
     RDKit          3D

 26 29  0  0  0  0  0  0  0  0999 V2000
   32.7116   24.8537    2.0694 O   0  0  0  0  0  0  0  0  0  0  0  0
   28.4629   26.2180    0.1993 C   0  0  0  0  0  0  0  0  0  0  0  0
   35.3754   22.6523    4.0907 C   0  0  0  0  0  0  0  0  0  0  0  0
   28.7266   27.3320   -0.5152 C   0  0  0  0  0  0  0  0  0  0  0  0
   32.6976   26.2987    4.2928 C   0  0  0  0  0  0  0  0  0  0  0  0
   31.0964   27.7294   -0.1284 C   0  0  0  0  0  0  0  0  0  0  0  0
   29.2068   25.3632    0.9422 C   0  0  0  0  0  0  0  0  0  0  0  0
   32.8901   26.1068    5.6283 C   0  0  0  0  0  0  0  0  0  0  0  0
   33.1668   25.2337    3.3280 C   0  0  0  0  0  0  0  0  0  0  0  0
   31.2967   26.6369    0.5784 C   0  0  0  0  0  0  0  0  0  0  0  0
   30.7462   23.4833    2.3495 C   0  0  0  0  0  0  0  0  0  0  0  0
   29.3456   23.3213    2.2132 C   0  0  0  0  0  0  0  0  0  0  0  0
   32.0895   27.5689    3.9371 C   0  0  0  0  0  0  0  0  0  0  0  0
   29.7848   29.2109   -1.3472 O   0  0  0  0  0  0  0  0  0  0  0  0
   29.8578   28.1212   -0.7095 C   0  0  0  0  0  0  0  0  0  0  0  0
   34.5401   23.6625    4.9556 C   0  0  0  0  0  0  0  0  0  0  0  0
   32.5129   26.9853    6.5717 C   0  0  0  0  0  0  0  0  0  0  0  0
   34.5995   23.2468    2.9647 C   0  0  0  0  0  0  0  0  0  0  0  0
   28.5860   24.2720    1.5254 C   0  0  0  0  0  0  0  0  0  0  0  0
   34.4164   24.5481    3.7443 C   0  0  0  0  0  0  0  0  0  0  0  0
   27.2729   24.1346    1.3423 O   0  0  0  0  0  0  0  0  0  0  0  0
   30.6421   25.5756    1.1106 C   0  0  0  0  0  0  0  0  0  0  0  0
   32.0683   28.1298    2.6679 F   0  0  0  0  0  0  0  0  0  0  0  0
   31.8887   28.1622    6.2586 C   0  0  0  0  0  0  0  0  0  0  0  0
   31.6153   28.4056    4.8764 C   0  0  0  0  0  0  0  0  0  0  0  0
   31.3685   24.6040    1.8431 C   0  0  0  0  0  0  0  0  0  0  0  0
  1  9  1  0
  1 26  1  0
  2  4  2  0
  2  7  1  0
  3 16  1  0
  3 18  1  0
  4 15  1  0
  5  8  1  0
  5  9  1  0
  5 13  1  0
  6 10  2  0
  6 15  1  0
  7 19  2  0
  7 22  1  0
  8 17  2  0
  9 20  1  0
 10 22  1  0
 11 12  2  0
 11 26  1  0
 12 19  1  0
 13 23  1  0
 13 25  2  0
 14 15  2  0
 16 20  1  0
 17 24  1  0
 18 20  1  0
 19 21  1  0
 22 26  2  0
 24 25  1  0
M  END
>  <ID>  (1) 
conformer_0

$$$$
