
     RDKit          3D

 31 36  0  0  0  0  0  0  0  0999 V2000
   35.4496   22.9199    6.7220 C   0  0  0  0  0  0  0  0  0  0  0  0
   31.7191   27.2252    3.1197 C   0  0  0  0  0  0  0  0  0  0  0  0
   32.4629   26.7790    5.3704 C   0  0  0  0  0  0  0  0  0  0  0  0
   31.0371   25.6096    1.5290 C   0  0  0  0  0  0  0  0  0  0  0  0
   34.5071   22.8341    3.5688 C   0  0  0  0  0  0  0  0  0  0  0  0
   31.4045   24.3612    2.0808 C   0  0  0  0  0  0  0  0  0  0  0  0
   29.8717   25.7280    0.7544 C   0  0  0  0  0  0  0  0  0  0  0  0
   30.9129   27.6645   -0.4414 C   0  0  0  0  0  0  0  0  0  0  0  0
   30.9917   28.2941    3.6354 C   0  0  0  0  0  0  0  0  0  0  0  0
   30.6186   23.2843    1.7851 C   0  0  0  0  0  0  0  0  0  0  0  0
   30.9773   23.6500    6.3609 O   0  0  0  0  0  1  0  0  0  0  0  0
   32.3200   23.3576    4.2951 N   0  0  0  0  0  0  0  0  0  0  0  0
   35.7199   21.9141    3.5371 C   0  0  0  0  0  0  0  0  0  0  0  0
   31.0002   28.5757    4.9766 C   0  0  0  0  0  0  0  0  0  0  0  0
   32.6442   24.1475    3.0011 C   0  0  0  0  0  0  0  0  0  0  0  0
   36.4262   21.3768    4.8325 C   0  0  0  0  0  0  0  0  0  0  0  0
   36.7250   22.4920    5.9195 C   0  0  0  0  0  0  0  0  0  0  0  0
   29.4009   23.4315    1.1656 C   0  0  0  0  0  0  0  0  0  0  0  0
   31.7284   27.8093    5.8466 C   0  0  0  0  0  0  0  0  0  0  0  0
   28.9798   24.6654    0.6869 C   0  0  0  0  0  0  0  0  0  0  0  0
   29.6385   27.0015   -0.0162 C   0  0  0  0  0  0  0  0  0  0  0  0
   31.7256   26.8644    1.7383 C   0  0  0  0  0  0  0  0  0  0  0  0
   31.8917   27.8265    0.6790 C   0  0  0  0  0  0  0  0  0  0  0  0
   32.4655   26.4554    3.9978 C   0  0  0  0  0  0  0  0  0  0  0  0
   33.2848   25.4017    3.4653 C   0  0  0  0  0  0  0  0  0  0  0  0
   31.8054   21.4390    6.0418 O   0  0  0  0  0  1  0  0  0  0  0  0
   34.2339   22.2488    6.0579 C   0  0  0  0  0  0  0  0  0  0  0  0
   29.9116   22.1257    4.5853 C   0  0  0  0  0  0  0  0  0  0  0  0
   31.2747   22.6325    5.4023 S   0  0  0  0  0  4  0  0  0  0  0  0
   33.7389   23.2643    2.4412 O   0  0  0  0  0  0  0  0  0  0  0  0
   33.7364   23.1037    4.8458 C   0  0  0  0  0  0  0  0  0  0  0  0
  1 17  1  0
  1 27  1  0
  2  9  1  0
  2 22  1  0
  2 24  2  0
  3 19  2  0
  3 24  1  0
  4  6  2  0
  4  7  1  0
  4 22  1  0
  5 13  2  0
  5 30  1  0
  5 31  1  0
  6 10  1  0
  6 15  1  0
  7 20  2  0
  7 21  1  0
  8 21  1  0
  8 23  1  0
  9 14  2  0
 10 18  2  0
 11 29  1  0
 12 15  1  0
 12 29  1  0
 12 31  1  0
 13 16  1  0
 14 19  1  0
 15 25  1  0
 15 30  1  0
 16 17  1  0
 18 20  1  0
 22 23  1  0
 24 25  1  0
 26 29  1  0
 27 31  1  0
 28 29  1  0
M  END
>  <ID>  (1) 
conformer_0

$$$$
