
     RDKit          3D

 27 29  0  0  0  0  0  0  0  0999 V2000
   28.9278   27.1191   -0.8757 C   0  0  0  0  0  0  0  0  0  0  0  0
   36.0900   23.3311    5.1060 C   0  0  0  0  0  0  0  0  0  0  0  0
   30.7579   28.6216    1.6366 C   0  0  0  0  0  0  0  0  0  0  0  0
   30.8475   23.7317    4.2566 C   0  0  0  0  0  0  0  0  0  0  0  0
   30.1902   26.8551   -0.0938 C   0  0  0  0  0  0  0  0  0  0  0  0
   31.5382   26.7912    4.9265 C   0  0  0  0  0  0  0  0  0  0  0  0
   36.0608   24.1183    6.2683 C   0  0  0  0  0  0  0  0  0  0  0  0
   28.3669   28.4611   -0.3143 C   0  0  0  0  0  0  0  0  0  0  0  0
   28.7434   22.5457    3.7262 C   0  0  0  0  0  0  0  0  0  0  0  0
   32.4889   25.9483    4.0990 C   0  0  0  0  0  0  0  0  0  0  0  0
   32.0343   23.0645    2.2130 O   0  0  0  0  0  0  0  0  0  0  0  0
   32.1466   26.5267    1.7947 C   0  0  0  0  0  0  0  0  0  0  0  0
   31.7486   27.9016    2.4555 C   0  0  0  0  0  0  0  0  0  0  0  0
   33.9342   24.0409    4.2765 C   0  0  0  0  0  0  0  0  0  0  0  0
   30.8988   28.2044    0.1764 C   0  0  0  0  0  0  0  0  0  0  0  0
   33.0719   24.8433    4.9132 C   0  0  0  0  0  0  0  0  0  0  0  0
   30.1091   22.4346    4.3411 C   0  0  0  0  0  0  0  0  0  0  0  0
   31.5951   23.9845    2.9668 C   0  0  0  0  0  0  0  0  0  0  0  0
   31.9705   25.3979    2.8003 C   0  0  0  0  0  0  0  0  0  0  0  0
   28.3039   28.3396    1.1777 C   0  0  0  0  0  0  0  0  0  0  0  0
   35.0540   23.3727    4.1850 C   0  0  0  0  0  0  0  0  0  0  0  0
   35.0371   24.9698    6.5419 C   0  0  0  0  0  0  0  0  0  0  0  0
   27.2508   27.8612    1.7234 O   0  0  0  0  0  0  0  0  0  0  0  0
   33.9152   25.2280    5.9545 C   0  0  0  0  0  0  0  0  0  0  0  0
   28.6949   23.4988    2.4893 C   0  0  0  0  0  0  0  0  0  0  0  0
   29.3694   28.6775    1.9938 O   0  0  0  0  0  0  0  0  0  0  0  0
   31.7294   24.0708    5.4471 C   0  0  0  0  0  0  0  0  0  0  0  0
  1  5  1  0
  1  8  1  0
  2  7  2  0
  2 21  1  0
  3 13  1  0
  3 15  1  0
  3 26  1  0
  4 17  1  0
  4 18  1  0
  4 27  1  0
  5 15  1  0
  6 10  1  0
  7 22  1  0
  8 20  1  0
  9 17  1  0
  9 25  1  0
 10 16  1  0
 10 19  1  0
 11 18  2  0
 12 13  1  0
 12 19  1  0
 14 16  1  0
 14 21  2  0
 16 24  1  0
 16 27  1  0
 18 19  1  0
 20 23  2  0
 20 26  1  0
 22 24  2  0
M  END
>  <ID>  (1) 
conformer_0

$$$$
