
     RDKit          3D

 30 32  0  0  0  0  0  0  0  0999 V2000
   28.7075   23.9018    1.6076 C   0  0  0  0  0  0  0  0  0  0  0  0
   29.0721   25.3204    1.1819 C   0  0  0  0  0  0  0  0  0  0  0  0
   31.5183   28.2180    5.3283 C   0  0  0  0  0  0  0  0  0  0  0  0
   30.2632   28.4127    5.9239 C   0  0  0  0  0  0  0  0  0  0  0  0
   33.8250   24.5742    3.3925 C   0  0  0  0  0  0  0  0  0  0  0  0
   32.0418   22.9122    5.1667 C   0  0  0  0  0  0  0  0  0  0  0  0
   31.3997   25.0534    2.0073 C   0  0  0  0  0  0  0  0  0  0  0  0
   31.5653   24.0393    4.2502 C   0  0  0  0  0  0  0  0  0  0  0  0
   32.6403   25.1718    4.2708 C   0  0  0  0  0  0  0  0  0  0  0  0
   29.9866   23.0837    1.9266 C   0  0  0  0  0  0  0  0  0  0  0  0
   30.0180   28.3063    1.9506 C   0  0  0  0  0  0  0  0  0  0  0  0
   34.1362   21.9103    6.0590 C   0  0  0  0  0  0  0  0  0  0  0  0
   30.6169   27.3574   -0.4737 C   0  0  0  0  0  0  0  0  0  0  0  0
   32.2835   27.6250    1.2749 C   0  0  0  0  0  0  0  0  0  0  0  0
   34.0280   23.0664    3.8264 C   0  0  0  0  0  0  0  0  0  0  0  0
   35.9524   23.5906    5.2061 C   0  0  0  0  0  0  0  0  0  0  0  0
   32.7081   25.9001    5.4779 O   0  0  0  0  0  0  0  0  0  0  0  0
   30.7568   27.2868    1.0379 C   0  0  0  0  0  0  0  0  0  0  0  0
   30.9978   23.8308    2.8607 C   0  0  0  0  0  0  0  0  0  0  0  0
   30.1004   27.9010    3.4205 C   0  0  0  0  0  0  0  0  0  0  0  0
   33.5855   23.1001    5.3684 C   0  0  0  0  0  0  0  0  0  0  0  0
   31.4559   27.8583    3.9503 O   0  0  0  0  0  0  0  0  0  0  0  0
   30.3673   25.9096    1.5033 C   0  0  0  0  0  0  0  0  0  0  0  0
   30.2850   21.5081    4.0404 O   0  0  0  0  0  0  0  0  0  0  0  0
   31.6740   21.5878    4.4404 C   0  0  0  0  0  0  0  0  0  0  0  0
   31.4061   23.0361    6.3730 O   0  0  0  0  0  0  0  0  0  0  0  0
   34.6509   24.1718    5.8334 C   0  0  0  0  0  0  0  0  0  0  0  0
   32.6525   28.5233    5.8812 O   0  0  0  0  0  0  0  0  0  0  0  0
   35.5224   22.8095    3.9011 C   0  0  0  0  0  0  0  0  0  0  0  0
   28.1330   26.2387    1.2847 O   0  0  0  0  0  0  0  0  0  0  0  0
  1  2  1  0
  1 10  1  0
  2 23  1  0
  2 30  1  0
  3  4  1  0
  3 22  1  0
  3 28  2  0
  5  9  1  0
  5 15  1  0
  6  8  1  0
  6 21  1  0
  6 25  1  0
  6 26  1  0
  7 19  1  0
  7 23  1  0
  8  9  1  0
  8 19  1  0
  9 17  1  0
 10 19  1  0
 11 18  1  0
 11 20  1  0
 12 21  1  0
 13 18  1  0
 14 18  1  0
 15 21  1  0
 15 29  1  0
 16 27  1  0
 16 29  1  0
 18 23  1  0
 20 22  1  0
 21 27  1  0
 24 25  1  0
M  END
>  <ID>  (1) 
conformer_0

$$$$
