
     RDKit          3D

 25 28  0  0  0  0  0  0  0  0999 V2000
   30.3930   22.8139    1.4727 C   0  0  0  0  0  0  0  0  0  0  0  0
   30.2694   24.1371    3.6547 C   0  0  0  0  0  0  0  0  0  0  0  0
   30.8949   25.4257    3.2813 C   0  0  0  0  0  0  0  0  0  0  0  0
   31.3478   23.5475    4.5768 C   0  0  0  0  0  0  0  0  0  0  0  0
   31.4156   22.0478    4.4825 C   0  0  0  0  0  0  0  0  0  0  0  0
   32.3803   25.2713    3.3179 C   0  0  0  0  0  0  0  0  0  0  0  0
   33.7224   24.0983    4.9407 O   0  0  0  0  0  0  0  0  0  0  0  0
   28.8284   27.3737    0.8957 C   0  0  0  0  0  0  0  0  0  0  0  0
   29.1774   26.0087    1.4580 C   0  0  0  0  0  0  0  0  0  0  0  0
   31.2107   28.6628    2.2364 C   0  0  0  0  0  0  0  0  0  0  0  0
   29.4621   23.5864    2.4943 C   0  0  0  0  0  0  0  0  0  0  0  0
   32.8319   21.6828    4.6971 C   0  0  0  0  0  0  0  0  0  0  0  0
   35.3995   21.3605    4.7828 O   0  0  0  0  0  0  0  0  0  0  0  0
   32.7644   23.9983    4.0569 C   0  0  0  0  0  0  0  0  0  0  0  0
   33.6674   22.8888    4.3792 C   0  0  0  0  0  0  0  0  0  0  0  0
   31.8217   25.7086    5.9065 C   0  0  0  0  0  0  0  0  0  0  0  0
   33.3631   26.1128    2.9223 O   0  0  0  0  0  0  0  0  0  0  0  0
   29.8420   27.6867   -0.2181 C   0  0  0  0  0  0  0  0  0  0  0  0
   31.2633   27.2550    0.1813 C   0  0  0  0  0  0  0  0  0  0  0  0
   35.0768   22.4052    4.2617 C   0  0  0  0  0  0  0  0  0  0  0  0
   31.1922   24.3170    5.8870 C   0  0  0  0  0  0  0  0  0  0  0  0
   28.6326   24.6072    1.6534 C   0  0  0  0  0  0  0  0  0  0  0  0
   30.4327   26.1919    2.1760 C   0  0  0  0  0  0  0  0  0  0  0  0
   31.2985   27.2884    1.6944 C   0  0  0  0  0  0  0  0  0  0  0  0
   35.8889   23.2479    3.4585 C   0  0  0  0  0  0  0  0  0  0  0  0
  1 11  1  0
  2  3  1  0
  2  4  1  0
  2 11  1  0
  3  6  1  0
  3 23  1  0
  4  5  1  0
  4 14  1  0
  4 21  1  0
  5 12  1  0
  6 14  1  0
  6 17  1  0
  7 14  1  0
  7 15  1  0
  8  9  1  0
  8 18  1  0
  9 22  2  0
  9 23  1  0
 10 24  1  0
 11 22  1  0
 12 15  1  0
 13 20  2  0
 15 20  1  0
 16 21  1  0
 18 19  1  0
 19 24  1  0
 20 25  1  0
 23 24  1  0
M  END
>  <ID>  (1) 
conformer_0

$$$$
