
     RDKit          3D

 29 31  0  0  0  0  0  0  0  0999 V2000
   30.0214   22.1809    3.3601 N   0  0  0  0  0  0  0  0  0  0  0  0
   33.7141   23.6676    6.5320 C   0  0  0  0  0  0  0  0  0  0  0  0
   32.9403   24.6259    1.2917 O   0  0  0  0  0  0  0  0  0  0  0  0
   30.6982   27.0766    1.8186 C   0  0  0  0  0  0  0  0  0  0  0  0
   28.3530   26.2891    2.1671 C   0  0  0  0  0  0  0  0  0  0  0  0
   31.5002   22.4423    5.1982 N   0  0  0  0  0  0  0  0  0  0  0  0
   29.2820   28.8769    0.9296 C   0  0  0  0  0  0  0  0  0  0  0  0
   33.8107   27.1093    6.5781 N   0  0  0  0  0  0  0  0  0  0  0  0
   27.0978   29.6301    1.3858 N   0  0  0  0  0  0  0  0  0  0  0  0
   30.8155   22.9162    2.5929 C   0  0  0  0  0  0  0  0  0  0  0  0
   31.0261   27.9154   -1.1679 C   0  0  0  0  0  0  0  0  0  0  0  0
   33.1087   28.2615    6.8471 C   0  0  0  0  0  0  0  0  0  0  0  0
   31.8828   23.6321    3.1647 C   0  0  0  0  0  0  0  0  0  0  0  0
   33.7528   23.4936    4.9821 C   0  0  0  0  0  0  0  0  0  0  0  0
   31.4571   28.4671    0.0941 O   0  0  0  0  0  0  0  0  0  0  0  0
   31.8149   27.8828    4.8192 C   0  0  0  0  0  0  0  0  0  0  0  0
   32.0722   28.6377    5.9550 C   0  0  0  0  0  0  0  0  0  0  0  0
   30.3601   21.9939    4.6519 C   0  0  0  0  0  0  0  0  0  0  0  0
   28.0095   28.6217    1.4245 C   0  0  0  0  0  0  0  0  0  0  0  0
   32.6019   26.7586    4.4532 C   0  0  0  0  0  0  0  0  0  0  0  0
   27.6093   27.3657    1.8899 C   0  0  0  0  0  0  0  0  0  0  0  0
   32.3201   23.2060    4.4377 C   0  0  0  0  0  0  0  0  0  0  0  0
   32.5112   24.8144    2.4931 C   0  0  0  0  0  0  0  0  0  0  0  0
   32.4525   26.1114    3.1343 N   0  0  0  0  0  0  0  0  0  0  0  0
   33.5424   26.4038    5.4135 C   0  0  0  0  0  0  0  0  0  0  0  0
   32.0378   27.0604    2.1816 N   0  0  0  0  0  0  0  0  0  0  0  0
   29.7066   26.1736    2.2577 C   0  0  0  0  0  0  0  0  0  0  0  0
   30.4032   28.1540    0.9330 C   0  0  0  0  0  0  0  0  0  0  0  0
   30.5149   22.9478    1.1134 C   0  0  0  0  0  0  0  0  0  0  0  0
  1 10  2  0
  1 18  1  0
  2 14  1  0
  3 23  2  0
  4 26  1  0
  4 27  2  0
  4 28  1  0
  5 21  2  0
  5 27  1  0
  6 18  2  0
  6 22  1  0
  7 19  2  0
  7 28  1  0
  8 12  2  0
  8 25  1  0
  9 19  1  0
 10 13  1  0
 10 29  1  0
 11 15  1  0
 12 17  1  0
 13 22  1  0
 13 23  1  0
 14 22  1  0
 15 28  1  0
 16 17  2  0
 16 20  1  0
 19 21  1  0
 20 24  1  0
 20 25  2  0
 23 24  1  0
 24 26  1  0
M  END
>  <ID>  (1) 
conformer_0

$$$$
