
     RDKit          3D

 27 31  0  0  0  0  0  0  0  0999 V2000
   35.6713   24.7371    5.0380 O   0  0  0  0  0  0  0  0  0  0  0  0
   31.5918   26.8850    1.4947 C   0  0  0  0  0  0  0  0  0  0  0  0
   33.6491   22.8025    2.9359 C   0  0  0  0  0  0  0  0  0  0  0  0
   30.4134   26.2139    0.6721 C   0  0  0  0  0  0  0  0  0  0  0  0
   29.9533   28.4688    4.6187 C   0  0  0  0  0  0  0  0  0  0  0  0
   33.1531   24.0307    2.7367 C   0  0  0  0  0  0  0  0  0  0  0  0
   32.4794   23.8312    0.4663 O   0  0  0  0  0  0  0  0  0  0  0  0
   33.3159   26.0950    4.0337 O   0  0  0  0  0  0  0  0  0  0  0  0
   29.6016   28.2486   -0.5590 O   0  0  0  0  0  0  0  0  0  0  0  0
   33.7577   24.9178    3.6420 C   0  0  0  0  0  0  0  0  0  0  0  0
   28.9303   22.9403    3.0098 C   0  0  0  0  0  0  0  0  0  0  0  0
   30.7043   28.0126    5.6883 C   0  0  0  0  0  0  0  0  0  0  0  0
   30.7646   24.1803    2.0124 C   0  0  0  0  0  0  0  0  0  0  0  0
   31.8016   27.2275    5.4117 C   0  0  0  0  0  0  0  0  0  0  0  0
   32.0393   27.9961    0.7876 O   0  0  0  0  0  0  0  0  0  0  0  0
   34.7864   24.2269    4.3208 C   0  0  0  0  0  0  0  0  0  0  0  0
   29.3535   26.9289   -0.1650 C   0  0  0  0  0  0  0  0  0  0  0  0
   32.2425   24.4704    1.7057 C   0  0  0  0  0  0  0  0  0  0  0  0
   28.0161   23.6978    2.2696 C   0  0  0  0  0  0  0  0  0  0  0  0
   28.4781   24.7579    1.4783 C   0  0  0  0  0  0  0  0  0  0  0  0
   34.6331   22.9043    3.8938 N   0  0  0  0  0  0  0  0  0  0  0  0
   31.3535   27.2931    3.0052 C   0  0  0  0  0  0  0  0  0  0  0  0
   29.8768   25.0197    1.3834 C   0  0  0  0  0  0  0  0  0  0  0  0
   32.1802   26.8440    4.0894 C   0  0  0  0  0  0  0  0  0  0  0  0
   30.2981   23.1794    2.8793 C   0  0  0  0  0  0  0  0  0  0  0  0
   32.5652   25.8215    1.5381 N   0  0  0  0  0  0  0  0  0  0  0  0
   30.2821   28.1161    3.3171 C   0  0  0  0  0  0  0  0  0  0  0  0
  1 16  2  0
  2  4  1  0
  2 15  1  0
  2 22  1  0
  2 26  1  0
  3  6  1  0
  3 21  1  0
  4 17  1  0
  4 23  1  0
  5 12  2  0
  5 27  1  0
  6 10  1  0
  6 18  1  0
  7 18  1  0
  8 10  1  0
  8 24  1  0
  9 17  1  0
 10 16  1  0
 11 19  1  0
 11 25  2  0
 12 14  1  0
 13 18  1  0
 13 23  2  0
 13 25  1  0
 14 24  2  0
 16 21  1  0
 18 26  1  0
 19 20  2  0
 20 23  1  0
 22 24  1  0
 22 27  2  0
M  END
>  <ID>  (1) 
conformer_0

$$$$
