
     RDKit          3D

 30 32  0  0  0  0  0  0  0  0999 V2000
   33.3400   25.4566    5.9750 C   0  0  0  0  0  0  0  0  0  0  0  0
   32.3250   27.7117    5.6231 C   0  0  0  0  0  0  0  0  0  0  0  0
   30.5065   23.1047    2.5763 C   0  0  0  0  0  0  0  0  0  0  0  0
   31.2914   28.3130    5.7389 C   0  0  0  0  0  0  0  0  0  0  0  0
   33.2643   26.8586    6.0593 O   0  0  0  0  0  0  0  0  0  0  0  0
   31.2656   21.3935    4.3441 C   0  0  0  0  0  0  0  0  0  0  0  0
   34.7445   24.9023    5.9021 C   0  0  0  0  0  0  0  0  0  0  0  0
   28.8865   28.1079    0.9294 C   0  0  0  0  0  0  0  0  0  0  0  0
   34.8614   23.8307    4.9033 N   0  0  0  0  0  0  0  0  0  0  0  0
   30.2595   24.1313    1.7133 C   0  0  0  0  0  0  0  0  0  0  0  0
   30.2992   28.5434    4.8419 C   0  0  0  0  0  0  0  0  0  0  0  0
   33.3256   21.8635    5.6138 C   0  0  0  0  0  0  0  0  0  0  0  0
   31.1712   26.6607    1.6826 C   0  0  0  0  0  0  0  0  0  0  0  0
   28.9711   28.9785   -2.0171 C   0  0  0  0  0  0  0  0  0  0  0  0
   30.9554   27.3641    2.8120 C   0  0  0  0  0  0  0  0  0  0  0  0
   30.2009   28.1439    0.2205 N   0  0  0  0  0  0  0  0  0  0  0  0
   32.2157   21.3190    5.1583 C   0  0  0  0  0  0  0  0  0  0  0  0
   28.9397   24.0540    0.9139 C   0  0  0  0  0  0  0  0  0  0  0  0
   35.1856   22.0326    6.5851 C   0  0  0  0  0  0  0  0  0  0  0  0
   31.4638   27.4390    0.4817 C   0  0  0  0  0  0  0  0  0  0  0  0
   27.6409   28.1256    0.0824 C   0  0  0  0  0  0  0  0  0  0  0  0
   33.8563   21.5006    6.9855 N   0  0  0  0  0  0  0  0  0  0  0  0
   30.0915   28.4380   -1.2049 C   0  0  0  0  0  0  0  0  0  0  0  0
   30.7766   22.6375    3.6909 C   0  0  0  0  0  0  0  0  0  0  0  0
   27.1398   29.4311   -0.5807 C   0  0  0  0  0  0  0  0  0  0  0  0
   30.6093   23.5654    4.1131 C   0  0  0  0  0  0  0  0  0  0  0  0
   34.5452   22.4975    5.1670 C   0  0  0  0  0  0  0  0  0  0  0  0
   30.3033   28.0790    3.5626 C   0  0  0  0  0  0  0  0  0  0  0  0
   28.2460   30.0780   -1.3297 O   0  0  0  0  0  0  0  0  0  0  0  0
   31.0571   25.2681    1.5463 C   0  0  0  0  0  0  0  0  0  0  0  0
  1  5  1  0
  1  7  1  0
  2  4  1  0
  2  5  1  0
  3 10  1  0
  3 24  1  0
  4 11  2  0
  6 17  1  0
  6 24  1  0
  7  9  1  0
  8 16  1  0
  8 21  1  0
  9 27  1  0
 10 18  1  0
 10 30  1  0
 11 28  1  0
 12 17  1  0
 12 22  1  0
 12 27  1  0
 13 15  1  0
 13 20  1  0
 13 30  1  0
 14 23  1  0
 14 29  1  0
 15 28  2  0
 16 20  1  0
 16 23  1  0
 19 22  1  0
 19 27  1  0
 21 25  1  0
 24 26  2  0
 25 29  1  0
M  END
>  <ID>  (1) 
conformer_0

$$$$
