
     RDKit          3D

 28 31  0  0  0  0  0  0  0  0999 V2000
   30.5153   22.6637    4.2787 C   0  0  0  0  0  0  0  0  0  0  0  0
   33.6253   24.8438    5.4794 O   0  0  0  0  0  0  0  0  0  0  0  0
   30.3817   28.7406    3.9704 O   0  0  0  0  0  0  0  0  0  0  0  0
   29.6273   26.7459    0.1824 C   0  0  0  0  0  0  0  0  0  0  0  0
   28.3763   28.8043   -1.2277 C   0  0  0  0  0  0  0  0  0  0  0  0
   32.5108   23.8855    3.6165 N   0  0  0  0  0  0  0  0  0  0  0  0
   33.7646   24.6438    4.1430 C   0  0  0  0  0  0  0  0  0  0  0  0
   30.1990   22.2879    2.8399 C   0  0  0  0  0  0  0  0  0  0  0  0
   31.4188   24.7461    3.2110 C   0  0  0  0  0  0  0  0  0  0  0  0
   31.7656   27.0224    2.5007 C   0  0  0  0  0  0  0  0  0  0  0  0
   31.8182   26.2977    1.0960 C   0  0  0  0  0  0  0  0  0  0  0  0
   34.2540   25.7931    3.3284 C   0  0  0  0  0  0  0  0  0  0  0  0
   29.6846   28.4814   -1.5241 C   0  0  0  0  0  0  0  0  0  0  0  0
   30.3028   27.4767   -0.8156 C   0  0  0  0  0  0  0  0  0  0  0  0
   30.3757   25.6086    0.9313 C   0  0  0  0  0  0  0  0  0  0  0  0
   34.9191   23.6098    3.9986 C   0  0  0  0  0  0  0  0  0  0  0  0
   31.2357   28.3794    4.8270 C   0  0  0  0  0  0  0  0  0  0  0  0
   29.7910   23.3650    1.8958 C   0  0  0  0  0  0  0  0  0  0  0  0
   33.0435   27.4092    6.0024 C   0  0  0  0  0  0  0  0  0  0  0  0
   31.7570   29.3086    5.6655 O   0  0  0  0  0  0  0  0  0  0  0  0
   31.9519   27.1089    4.9874 C   0  0  0  0  0  0  0  0  0  0  0  0
   30.5165   24.5724    2.0513 C   0  0  0  0  0  0  0  0  0  0  0  0
   28.3275   27.1109    0.4905 C   0  0  0  0  0  0  0  0  0  0  0  0
   28.6710   23.4910    1.2061 O   0  0  0  0  0  0  0  0  0  0  0  0
   32.0090   22.8092    4.5259 C   0  0  0  0  0  0  0  0  0  0  0  0
   31.6377   26.1500    3.7753 C   0  0  0  0  0  0  0  0  0  0  0  0
   27.7147   28.1189   -0.2144 C   0  0  0  0  0  0  0  0  0  0  0  0
   32.8813   28.8534    6.4174 C   0  0  0  0  0  0  0  0  0  0  0  0
  1  8  1  0
  1 25  1  0
  2  7  1  0
  3 17  2  0
  4 14  1  0
  4 15  1  0
  4 23  1  0
  5 13  1  0
  5 27  1  0
  6  7  1  0
  6  9  1  0
  6 25  1  0
  7 12  1  0
  7 16  1  0
  8 18  1  0
  9 22  1  0
  9 26  1  0
 10 11  1  0
 10 26  2  0
 11 15  1  0
 13 14  2  0
 15 22  1  0
 17 20  1  0
 17 21  1  0
 18 22  1  0
 18 24  1  0
 19 21  1  0
 19 28  1  0
 20 28  1  0
 21 26  1  0
 23 27  2  0
M  END
>  <ID>  (1) 
conformer_0

$$$$
