
     RDKit          3D

 14 15  0  0  0  0  0  0  0  0999 V2000
   31.9211   27.8822    5.7240 O   0  0  0  0  0  0  0  0  0  0  0  0
   30.7560   25.3542    1.5427 N   0  0  0  0  0  0  0  0  0  0  0  0
   33.5960   25.1312    3.9782 C   0  0  0  0  0  0  0  0  0  0  0  0
   32.1618   26.8304    1.2803 O   0  0  0  0  0  0  0  0  0  0  0  0
   30.4279   24.0970    1.4346 C   0  0  0  0  0  0  0  0  0  0  0  0
   32.2971   27.0622    4.7126 C   0  0  0  0  0  0  0  0  0  0  0  0
   31.3236   23.1075    1.8724 C   0  0  0  0  0  0  0  0  0  0  0  0
   32.6473   24.8712    2.9388 C   0  0  0  0  0  0  0  0  0  0  0  0
   31.7377   27.0628    3.4858 N   0  0  0  0  0  0  0  0  0  0  0  0
   33.3197   26.1474    4.9821 C   0  0  0  0  0  0  0  0  0  0  0  0
   32.4358   23.5411    2.5655 C   0  0  0  0  0  0  0  0  0  0  0  0
   31.8442   26.0181    2.2862 C   0  0  0  0  0  0  0  0  0  0  0  0
   34.7237   24.5031    4.0303 O   0  0  0  0  0  0  0  0  0  0  0  0
   28.9273   23.6881    0.9632 Cl  0  0  0  0  0  0  0  0  0  0  0  0
  1  6  2  0
  2  5  1  0
  2 12  1  0
  3  8  1  0
  3 10  1  0
  3 13  1  0
  4 12  1  0
  5  7  2  0
  5 14  1  0
  6  9  1  0
  6 10  1  0
  7 11  1  0
  8 11  1  0
  8 12  1  0
  9 12  1  0
M  END
>  <ID>  (1) 
conformer_0

$$$$
