
     RDKit          3D

 25 28  0  0  0  0  0  0  0  0999 V2000
   30.4590   22.5735    4.5494 C   0  0  0  0  0  0  0  0  0  0  0  0
   31.8342   27.6570    5.3859 C   0  0  0  0  0  0  0  0  0  0  0  0
   34.0617   21.6456    4.9539 C   0  0  0  0  0  0  0  0  0  0  0  0
   35.2872   22.1789    4.6907 C   0  0  0  0  0  0  0  0  0  0  0  0
   31.2534   28.3754    4.3560 C   0  0  0  0  0  0  0  0  0  0  0  0
   32.0840   26.2946    5.2082 C   0  0  0  0  0  0  0  0  0  0  0  0
   29.7176   28.1899    0.4971 C   0  0  0  0  0  0  0  0  0  0  0  0
   28.3698   23.9308    1.5225 C   0  0  0  0  0  0  0  0  0  0  0  0
   34.2605   24.1697    3.8561 C   0  0  0  0  0  0  0  0  0  0  0  0
   30.7952   25.6336    1.7602 C   0  0  0  0  0  0  0  0  0  0  0  0
   31.8397   24.3014    3.8367 N   0  0  0  0  0  0  0  0  0  0  0  0
   31.6353   21.8166    4.9912 C   0  0  0  0  0  0  0  0  0  0  0  0
   33.0261   23.6411    4.1229 C   0  0  0  0  0  0  0  0  0  0  0  0
   35.4024   23.4282    4.1227 C   0  0  0  0  0  0  0  0  0  0  0  0
   30.0057   22.7531    3.0597 O   0  0  0  0  0  0  0  0  0  0  0  0
   32.9096   22.3654    4.6686 C   0  0  0  0  0  0  0  0  0  0  0  0
   31.7280   25.6824    4.0175 C   0  0  0  0  0  0  0  0  0  0  0  0
   30.3517   26.7395    0.5517 C   0  0  0  0  0  0  0  0  0  0  0  0
   29.4729   24.9947    1.7411 C   0  0  0  0  0  0  0  0  0  0  0  0
   31.1424   26.3992    2.9892 C   0  0  0  0  0  0  0  0  0  0  0  0
   31.7382   27.1064   -0.0556 C   0  0  0  0  0  0  0  0  0  0  0  0
   29.0293   25.8859    0.4549 C   0  0  0  0  0  0  0  0  0  0  0  0
   31.9004   24.7785    1.1821 C   0  0  0  0  0  0  0  0  0  0  0  0
   30.7521   23.4666    3.6186 C   0  0  0  0  0  0  0  0  0  0  0  0
   30.9214   27.7166    3.1794 C   0  0  0  0  0  0  0  0  0  0  0  0
  1 12  1  0
  1 24  1  0
  2  5  2  0
  2  6  1  0
  3  4  2  0
  3 16  1  0
  4 14  1  0
  5 25  1  0
  6 17  2  0
  7 18  1  0
  8 19  1  0
  9 13  2  0
  9 14  1  0
 10 18  1  0
 10 19  1  0
 10 20  1  0
 10 23  1  0
 11 13  1  0
 11 17  1  0
 11 24  1  0
 12 16  2  0
 13 16  1  0
 15 24  2  0
 17 20  1  0
 18 21  1  0
 18 22  1  0
 19 22  1  0
 20 25  2  0
M  END
>  <ID>  (1) 
conformer_0

$$$$
