
     RDKit          3D

 24 27  0  0  0  0  0  0  0  0999 V2000
   32.8484   26.2526    4.5806 C   0  0  0  0  0  0  0  0  0  0  0  0
   32.0091   25.2605    2.3614 C   0  0  0  0  0  0  0  0  0  0  0  0
   35.4559   22.9902    6.2106 C   0  0  0  0  0  0  0  0  0  0  0  0
   30.0616   26.0909    1.0491 C   0  0  0  0  0  0  0  0  0  0  0  0
   32.8370   27.2421    5.4188 O   0  0  0  0  0  0  0  0  0  0  0  0
   32.1953   24.4805    0.9216 C   0  0  0  0  0  0  0  0  0  0  0  0
   28.1466   27.6030    0.4884 C   0  0  0  0  0  0  0  0  0  0  0  0
   32.6854   26.4881    3.0924 C   0  0  0  0  0  0  0  0  0  0  0  0
   33.3286   24.2374    6.0090 C   0  0  0  0  0  0  0  0  0  0  0  0
   34.3534   25.2675    6.1212 C   0  0  0  0  0  0  0  0  0  0  0  0
   30.9493   27.1434    0.3838 C   0  0  0  0  0  0  0  0  0  0  0  0
   34.6804   23.0023    3.7935 C   0  0  0  0  0  0  0  0  0  0  0  0
   33.7600   25.0971    4.9234 C   0  0  0  0  0  0  0  0  0  0  0  0
   30.4905   25.5915    2.4297 C   0  0  0  0  0  0  0  0  0  0  0  0
   32.3706   24.0032    3.2799 C   0  0  0  0  0  0  0  0  0  0  0  0
   30.3017   28.0163   -0.6400 C   0  0  0  0  0  0  0  0  0  0  0  0
   33.8819   24.2843    3.6284 C   0  0  0  0  0  0  0  0  0  0  0  0
   28.5753   26.2936    1.0626 C   0  0  0  0  0  0  0  0  0  0  0  0
   28.8245   27.7166   -0.9065 C   0  0  0  0  0  0  0  0  0  0  0  0
   35.8913   23.3184    4.7536 C   0  0  0  0  0  0  0  0  0  0  0  0
   33.3692   21.9937    7.0348 O   0  0  0  0  0  0  0  0  0  0  0  0
   31.0731   23.3545    0.8246 C   0  0  0  0  0  0  0  0  0  0  0  0
   33.8660   22.8109    6.0761 C   0  0  0  0  0  0  0  0  0  0  0  0
   33.7216   22.0664    4.6611 C   0  0  0  0  0  0  0  0  0  0  0  0
  1  5  1  0
  1  8  1  0
  1 13  1  0
  2  6  1  0
  2  8  1  0
  2 14  1  0
  2 15  1  0
  3 20  1  0
  3 23  1  0
  4 11  1  0
  4 14  1  0
  4 18  1  0
  6 22  1  0
  7 18  1  0
  7 19  1  0
  9 13  1  0
  9 23  1  0
 10 13  1  0
 11 16  2  0
 12 17  1  0
 12 20  1  0
 12 24  1  0
 13 17  1  0
 15 17  1  0
 16 19  1  0
 21 23  1  0
 23 24  1  0
M  END
>  <ID>  (1) 
conformer_0

$$$$
