
     RDKit          3D

 28 30  0  0  0  0  0  0  0  0999 V2000
   28.3090   25.8745    0.7045 O   0  0  0  0  0  0  0  0  0  0  0  0
   31.0779   22.8984    1.0609 C   0  0  0  0  0  0  0  0  0  0  0  0
   28.4052   28.5249    0.5161 C   0  0  0  0  0  0  0  0  0  0  0  0
   32.1511   23.3308    3.1824 C   0  0  0  0  0  0  0  0  0  0  0  0
   33.6175   24.4778    4.8254 C   0  0  0  0  0  0  0  0  0  0  0  0
   29.0425   28.6237    3.1462 C   0  0  0  0  0  0  0  0  0  0  0  0
   34.3570   24.8243    7.1785 C   0  0  0  0  0  0  0  0  0  0  0  0
   30.1562   28.0355    3.9621 C   0  0  0  0  0  0  0  0  0  0  0  0
   34.7593   22.9095    3.2179 C   0  0  0  0  0  0  0  0  0  0  0  0
   30.9258   25.3133    1.1083 C   0  0  0  0  0  0  0  0  0  0  0  0
   30.3862   26.5773    1.7174 C   0  0  0  0  0  0  0  0  0  0  0  0
   28.9022   26.5184    1.7763 C   0  0  0  0  0  0  0  0  0  0  0  0
   32.2756   24.8611    5.5144 C   0  0  0  0  0  0  0  0  0  0  0  0
   34.3830   22.4132    6.0579 C   0  0  0  0  0  0  0  0  0  0  0  0
   31.9479   22.3526    5.8512 C   0  0  0  0  0  0  0  0  0  0  0  0
   34.4753   23.8816    6.0031 C   0  0  0  0  0  0  0  0  0  0  0  0
   34.5654   26.1636    6.6391 O   0  0  0  0  0  0  0  0  0  0  0  0
   29.8780   28.5683    0.1477 C   0  0  0  0  0  0  0  0  0  0  0  0
   31.9042   23.7483    6.4947 C   0  0  0  0  0  0  0  0  0  0  0  0
   30.6623   29.1935    1.2371 C   0  0  0  0  0  0  0  0  0  0  0  0
   34.1426   25.6438    3.8923 C   0  0  0  0  0  0  0  0  0  0  0  0
   30.8096   27.8283    0.9752 C   0  0  0  0  0  0  0  0  0  0  0  0
   32.0116   27.5278    0.2672 O   0  0  0  0  0  0  0  0  0  0  0  0
   28.3475   27.9534    1.9194 C   0  0  0  0  0  0  0  0  0  0  0  0
   33.4106   23.1608    3.9930 C   0  0  0  0  0  0  0  0  0  0  0  0
   30.1382   24.0477    1.4080 C   0  0  0  0  0  0  0  0  0  0  0  0
   32.3939   23.2737    1.6989 C   0  0  0  0  0  0  0  0  0  0  0  0
   33.1956   22.0321    5.0372 C   0  0  0  0  0  0  0  0  0  0  0  0
  1 12  1  0
  2 26  1  0
  2 27  1  0
  3 18  1  0
  3 24  1  0
  4 25  1  0
  4 27  1  0
  5 13  1  0
  5 16  1  0
  5 21  1  0
  5 25  1  0
  6  8  1  0
  6 24  1  0
  7 16  1  0
  7 17  1  0
  9 25  1  0
 10 11  1  0
 10 26  1  0
 11 12  1  0
 11 22  1  0
 12 24  1  0
 13 19  1  0
 14 16  1  0
 14 28  1  0
 15 19  1  0
 15 28  1  0
 18 22  1  0
 20 22  1  0
 22 23  1  0
 25 28  1  0
M  END
>  <ID>  (1) 
conformer_0

$$$$
