
     RDKit          3D

 24 24  0  0  0  0  0  0  0  0999 V2000
   30.0635   26.8186    1.2092 N   0  0  0  0  0  0  0  0  0  0  0  0
   31.1700   23.9964    6.2514 C   0  0  0  0  0  0  0  0  0  0  0  0
   35.4283   24.2709    6.0967 C   0  0  0  0  0  0  0  0  0  0  0  0
   28.7547   22.6522    3.5821 O   0  0  0  0  0  0  0  0  0  0  0  0
   29.3632   29.2164    1.0118 C   0  0  0  0  0  0  0  0  0  0  0  0
   31.9399   24.6405    3.1364 C   0  0  0  0  0  0  0  0  0  0  0  0
   32.8497   23.1680    2.7228 C   0  0  0  0  0  0  0  0  0  0  0  0
   33.4052   23.6929    7.2741 C   0  0  0  0  0  0  0  0  0  0  0  0
   30.7225   24.8746    2.3730 C   0  0  0  0  0  0  0  0  0  0  0  0
   32.5280   25.4760    4.1516 N   0  0  0  0  0  0  0  0  0  0  0  0
   30.4912   28.2177    0.7420 C   0  0  0  0  0  0  0  0  0  0  0  0
   34.6960   24.8324    5.0640 C   0  0  0  0  0  0  0  0  0  0  0  0
   32.3416   26.8061    4.3322 N   0  0  0  0  0  0  0  0  0  0  0  0
   34.8015   23.7335    7.2209 C   0  0  0  0  0  0  0  0  0  0  0  0
   33.3251   24.8328    5.1315 C   0  0  0  0  0  0  0  0  0  0  0  0
   32.1684   25.7277    0.5450 C   0  0  0  0  0  0  0  0  0  0  0  0
   31.6363   28.5915    1.4344 O   0  0  0  0  0  0  0  0  0  0  0  0
   31.4305   27.5051    4.9954 C   0  0  0  0  0  0  0  0  0  0  0  0
   27.7381   23.9436    1.9859 O   0  0  0  0  0  0  0  0  0  0  0  0
   32.6762   24.1867    6.2087 C   0  0  0  0  0  0  0  0  0  0  0  0
   30.0381   23.5757    1.7836 C   0  0  0  0  0  0  0  0  0  0  0  0
   30.7058   28.1441   -0.7946 C   0  0  0  0  0  0  0  0  0  0  0  0
   28.6901   23.3785    2.5057 C   0  0  0  0  0  0  0  0  0  0  0  0
   30.9674   25.8185    1.2858 C   0  0  0  0  0  0  0  0  0  0  0  0
  1 11  1  0
  1 24  1  0
  2 20  1  0
  3 12  2  0
  3 14  1  0
  4 23  2  0
  5 11  1  0
  6  7  1  0
  6  9  1  0
  6 10  1  0
  8 14  2  0
  8 20  1  0
  9 21  1  0
  9 24  1  0
 10 13  1  0
 10 15  1  0
 11 17  1  0
 11 22  1  0
 12 15  1  0
 13 18  2  0
 15 20  2  0
 16 24  1  0
 19 23  1  0
 21 23  1  0
M  END
>  <ID>  (1) 
conformer_0

$$$$
