
     RDKit          3D

 33 36  0  0  0  0  0  0  0  0999 V2000
   32.7410   27.1475    5.5821 C   0  0  0  0  0  0  0  0  0  0  0  0
   32.8176   27.5333    2.0495 C   0  0  0  0  0  0  0  0  0  0  0  0
   31.4092   27.7779    5.2319 C   0  0  0  0  0  0  0  0  0  0  0  0
   28.2957   26.6041    1.3582 C   0  0  0  0  0  0  0  0  0  0  0  0
   26.8992   28.3893    0.5743 C   0  0  0  0  0  0  0  0  0  0  0  0
   31.2082   22.9929    3.3452 N   0  0  0  0  0  0  0  0  0  0  0  0
   33.3985   27.4498    6.6261 O   0  0  0  0  0  0  0  0  0  0  0  0
   31.4467   29.1318    5.2847 O   0  0  0  0  0  0  0  0  0  0  0  0
   32.3719   20.7162    6.3108 C   0  0  0  0  0  0  0  0  0  0  0  0
   28.9389   22.7364    3.3964 O   0  0  0  0  0  0  0  0  0  0  0  0
   31.0450   27.3045    3.8534 C   0  0  0  0  0  0  0  0  0  0  0  0
   28.4251   25.4023    2.0682 O   0  0  0  0  0  0  0  0  0  0  0  0
   31.2854   21.9778    4.3161 O   0  0  0  0  0  0  0  0  0  0  0  0
   34.7923   21.4418    4.6535 O   0  0  0  0  0  1  0  0  0  0  0  0
   33.6854   23.5926    3.9902 C   0  0  0  0  0  0  0  0  0  0  0  0
   32.7028   21.5095    7.5468 O   0  0  0  0  0  0  0  0  0  0  0  0
   32.3473   26.5859    3.2473 C   0  0  0  0  0  0  0  0  0  0  0  0
   29.3020   27.0119    0.4727 C   0  0  0  0  0  0  0  0  0  0  0  0
   33.8921   22.4919    5.1145 S   0  0  0  0  0  4  0  0  0  0  0  0
   27.1631   27.3799    1.5015 C   0  0  0  0  0  0  0  0  0  0  0  0
   35.0271   24.0431    3.5102 C   0  0  0  0  0  0  0  0  0  0  0  0
   28.9907   24.2043    1.5794 C   0  0  0  0  0  0  0  0  0  0  0  0
   31.7903   27.6055    0.8633 C   0  0  0  0  0  0  0  0  0  0  0  0
   32.3828   21.7076    5.1607 C   0  0  0  0  0  0  0  0  0  0  0  0
   33.2788   26.3873    4.4689 C   0  0  0  0  0  0  0  0  0  0  0  0
   28.9495   27.9659   -0.5151 C   0  0  0  0  0  0  0  0  0  0  0  0
   27.7719   28.6756   -0.4570 C   0  0  0  0  0  0  0  0  0  0  0  0
   32.3642   23.8370    3.3979 C   0  0  0  0  0  0  0  0  0  0  0  0
   29.8972   28.2438   -1.8948 Cl  0  0  0  0  0  0  0  0  0  0  0  0
   32.2983   25.1019    2.5006 S   0  0  0  0  0  0  0  0  0  0  0  0
   30.7372   26.5423    0.5861 C   0  0  0  0  0  0  0  0  0  0  0  0
   34.5004   23.2050    6.3461 O   0  0  0  0  0  1  0  0  0  0  0  0
   29.9429   23.3774    2.5787 C   0  0  0  0  0  0  0  0  0  0  0  0
  1  3  1  0
  1  7  2  0
  1 25  1  0
  2 17  1  0
  2 23  1  0
  3  8  1  0
  3 11  1  0
  4 12  1  0
  4 18  1  0
  4 20  2  0
  5 20  1  0
  5 27  1  0
  6 13  1  0
  6 28  1  0
  6 33  1  0
  9 16  1  0
  9 24  1  0
 10 33  2  0
 11 17  1  0
 12 22  1  0
 13 24  1  0
 14 19  1  0
 15 19  1  0
 15 21  1  0
 15 28  1  0
 17 25  1  0
 17 30  1  0
 18 26  1  0
 18 31  1  0
 19 24  1  0
 19 32  1  0
 22 33  1  0
 23 31  1  0
 26 27  2  0
 26 29  1  0
 28 30  1  0
M  END
>  <ID>  (1) 
conformer_0

$$$$
