
     RDKit          3D

 23 27  0  0  0  0  0  0  0  0999 V2000
   30.8376   26.6869    2.7015 N   0  0  0  0  0  0  0  0  0  0  0  0
   34.3789   24.5157    4.5688 C   0  0  0  0  0  0  0  0  0  0  0  0
   28.6332   24.3650    1.2732 C   0  0  0  0  0  0  0  0  0  0  0  0
   28.6795   28.7426   -0.2261 C   0  0  0  0  0  0  0  0  0  0  0  0
   30.2112   25.3808    2.4898 N   0  0  0  0  0  0  0  0  0  0  0  0
   31.8300   26.7415    3.8184 C   0  0  0  0  0  0  0  0  0  0  0  0
   30.2611   27.5747    1.7720 C   0  0  0  0  0  0  0  0  0  0  0  0
   29.2345   26.8649    1.0443 C   0  0  0  0  0  0  0  0  0  0  0  0
   32.1458   25.4084    4.4261 C   0  0  0  0  0  0  0  0  0  0  0  0
   30.2112   24.0140    2.7862 C   0  0  0  0  0  0  0  0  0  0  0  0
   29.6495   29.4688    0.4085 C   0  0  0  0  0  0  0  0  0  0  0  0
   32.5213   23.0013    3.5201 N   0  0  0  0  0  0  0  0  0  0  0  0
   34.9585   22.7351    3.0268 C   0  0  0  0  0  0  0  0  0  0  0  0
   29.2335   25.5594    1.4916 C   0  0  0  0  0  0  0  0  0  0  0  0
   35.6851   24.5683    4.7789 F   0  0  0  0  0  0  0  0  0  0  0  0
   33.5030   25.4880    4.9615 O   0  0  0  0  0  0  0  0  0  0  0  0
   31.2751   24.7517    5.4940 C   0  0  0  0  0  0  0  0  0  0  0  0
   28.4822   27.4592    0.0937 C   0  0  0  0  0  0  0  0  0  0  0  0
   31.0519   23.1132    3.6447 C   0  0  0  0  0  0  0  0  0  0  0  0
   29.2579   23.3985    2.0771 C   0  0  0  0  0  0  0  0  0  0  0  0
   30.4601   28.8676    1.4295 C   0  0  0  0  0  0  0  0  0  0  0  0
   33.8288   23.6701    3.3992 C   0  0  0  0  0  0  0  0  0  0  0  0
   30.7081   23.2772    5.1257 C   0  0  0  0  0  0  0  0  0  0  0  0
  1  5  1  0
  1  6  1  0
  1  7  1  0
  2 15  1  0
  2 16  1  0
  2 22  1  0
  3 14  1  0
  3 20  1  0
  4 11  1  0
  4 18  2  0
  5 10  1  0
  5 14  1  0
  6  9  1  0
  7  8  1  0
  7 21  2  0
  8 14  2  0
  8 18  1  0
  9 16  1  0
  9 17  1  0
 10 19  1  0
 10 20  1  0
 11 21  1  0
 12 19  1  0
 12 22  1  0
 13 22  1  0
 17 23  1  0
 19 23  1  0
M  END
>  <ID>  (1) 
conformer_0

$$$$
