
     RDKit          3D

 28 29  0  0  0  0  0  0  0  0999 V2000
   30.1215   23.5076    2.8835 C   0  0  0  0  0  0  0  0  0  0  0  0
   29.9944   28.1278    2.1079 C   0  0  0  0  0  0  0  0  0  0  0  0
   28.6517   29.7755   -0.9170 C   0  0  0  0  0  0  0  0  0  0  0  0
   30.3610   27.6615   -0.2936 C   0  0  0  0  0  0  0  0  0  0  0  0
   31.9604   25.3703    3.4932 C   0  0  0  0  0  0  0  0  0  0  0  0
   33.5896   26.8027    6.4683 O   0  0  0  0  0  0  0  0  0  0  0  0
   34.6991   22.8795    3.4026 C   0  0  0  0  0  0  0  0  0  0  0  0
   34.1190   25.5951    6.1820 C   0  0  0  0  0  0  0  0  0  0  0  0
   29.7720   28.4220    0.7028 C   0  0  0  0  0  0  0  0  0  0  0  0
   33.2362   25.2886    3.8682 N   0  0  0  0  0  0  0  0  0  0  0  0
   30.9975   23.6748    2.0301 C   0  0  0  0  0  0  0  0  0  0  0  0
   34.1481   24.9685    4.8684 C   0  0  0  0  0  0  0  0  0  0  0  0
   30.0633   27.9482   -1.6113 C   0  0  0  0  0  0  0  0  0  0  0  0
   34.6939   24.8514    7.3321 C   0  0  0  0  0  0  0  0  0  0  0  0
   29.2040   29.0071   -1.9395 C   0  0  0  0  0  0  0  0  0  0  0  0
   29.2052   28.4434    3.0117 O   0  0  0  0  0  0  0  0  0  0  0  0
   33.9152   24.8599    8.4514 O   0  0  0  0  0  0  0  0  0  0  0  0
   28.9421   29.4691    0.3864 C   0  0  0  0  0  0  0  0  0  0  0  0
   30.8287   27.2977    5.1533 S   0  0  0  0  0  0  0  0  0  0  0  0
   30.1153   22.7366    4.2413 C   0  0  0  0  0  0  0  0  0  0  0  0
   35.6724   23.7579    7.0300 C   0  0  0  0  0  0  0  0  0  0  0  0
   31.2028   23.2745    0.6828 C   0  0  0  0  0  0  0  0  0  0  0  0
   31.1853   24.5065    2.8338 N   0  0  0  0  0  0  0  0  0  0  0  0
   35.1805   23.9300    4.4642 C   0  0  0  0  0  0  0  0  0  0  0  0
   28.6165   23.6029    2.4623 C   0  0  0  0  0  0  0  0  0  0  0  0
   35.9700   23.3925    5.6175 C   0  0  0  0  0  0  0  0  0  0  0  0
   31.4063   26.7652    3.5415 C   0  0  0  0  0  0  0  0  0  0  0  0
   31.0841   27.3000    2.3811 N   0  0  0  0  0  0  0  0  0  0  0  0
  1 11  1  0
  1 20  1  0
  1 25  1  0
  2  9  1  0
  2 16  2  0
  2 28  1  0
  3 15  2  0
  3 18  1  0
  4  9  1  0
  4 13  2  0
  5 10  2  3
  5 23  1  0
  5 27  1  0
  6  8  1  0
  7 24  1  0
  8 12  1  0
  8 14  1  0
  9 18  2  0
 10 12  1  0
 11 22  1  0
 11 23  1  0
 12 24  1  0
 13 15  1  0
 14 17  1  0
 14 21  1  0
 19 27  2  0
 21 26  2  0
 24 26  1  0
 27 28  1  0
M  END
>  <ID>  (1) 
conformer_0

$$$$
