
     RDKit          3D

 22 24  0  0  0  0  0  0  0  0999 V2000
   31.6535   28.1556    3.9207 O   0  0  0  0  0  0  0  0  0  0  0  0
   33.7401   23.9282    3.7256 C   0  0  0  0  0  0  0  0  0  0  0  0
   29.7636   28.1283    0.9080 C   0  0  0  0  0  0  0  0  0  0  0  0
   34.8930   24.4324    4.6222 C   0  0  0  0  0  0  0  0  0  0  0  0
   28.5425   23.9497    1.1155 C   0  0  0  0  0  0  0  0  0  0  0  0
   33.4552   22.8482    6.1038 C   0  0  0  0  0  0  0  0  0  0  0  0
   29.6218   26.7989    0.7013 N   0  0  0  0  0  0  0  0  0  0  0  0
   31.0956   27.7091    2.8372 C   0  0  0  0  0  0  0  0  0  0  0  0
   32.3450   24.3997    4.3527 C   0  0  0  0  0  0  0  0  0  0  0  0
   30.5374   23.5555    2.4570 C   0  0  0  0  0  0  0  0  0  0  0  0
   34.4160   24.0941    6.0925 C   0  0  0  0  0  0  0  0  0  0  0  0
   29.2199   29.1129   -0.0829 C   0  0  0  0  0  0  0  0  0  0  0  0
   30.2116   25.8953    1.5595 C   0  0  0  0  0  0  0  0  0  0  0  0
   31.1176   26.3423    2.5482 C   0  0  0  0  0  0  0  0  0  0  0  0
   33.8388   22.4725    3.2644 C   0  0  0  0  0  0  0  0  0  0  0  0
   31.2009   23.3245    3.9058 C   0  0  0  0  0  0  0  0  0  0  0  0
   30.4539   28.6193    2.0138 C   0  0  0  0  0  0  0  0  0  0  0  0
   32.6103   25.6254    5.2650 C   0  0  0  0  0  0  0  0  0  0  0  0
   32.0531   23.3047    5.5157 C   0  0  0  0  0  0  0  0  0  0  0  0
   33.5046   25.3060    6.4505 C   0  0  0  0  0  0  0  0  0  0  0  0
   29.8795   24.4436    1.4459 C   0  0  0  0  0  0  0  0  0  0  0  0
   32.1152   25.5108    3.2881 C   0  0  0  0  0  0  0  0  0  0  0  0
  1  8  1  0
  2  4  1  0
  2  9  1  0
  2 15  1  0
  3  7  2  0
  3 12  1  0
  3 17  1  0
  4 11  1  0
  5 21  1  0
  6 11  1  0
  6 19  1  0
  7 13  1  0
  8 14  1  0
  8 17  2  0
  9 18  1  0
  9 19  1  0
  9 22  1  0
 10 16  1  0
 10 21  1  0
 11 20  1  0
 13 14  1  0
 13 21  1  0
 14 22  1  0
 18 20  1  0
M  END
>  <ID>  (1) 
conformer_0

$$$$
