
     RDKit          3D

 32 34  0  0  0  0  0  0  0  0999 V2000
   30.7058   28.2786    4.3355 C   0  0  0  0  0  0  0  0  0  0  0  0
   28.8044   22.8686    3.0554 C   0  0  0  0  0  0  0  0  0  0  0  0
   29.5171   22.2091    3.9509 O   0  0  0  0  0  0  0  0  0  0  0  0
   27.5801   22.5302    2.8290 O   0  0  0  0  0  0  0  0  0  0  0  0
   30.8032   28.6450    6.7035 O   0  0  0  0  0  0  0  0  0  0  0  0
   31.5424   28.3706    1.9886 C   0  0  0  0  0  0  0  0  0  0  0  0
   35.3908   22.7152    3.2851 C   0  0  0  0  0  0  0  0  0  0  0  0
   31.6057   22.6161    6.5513 O   0  0  0  0  0  0  0  0  0  0  0  0
   30.8193   25.5379    1.4151 C   0  0  0  0  0  0  0  0  0  0  0  0
   29.3434   26.5678   -0.4187 C   0  0  0  0  0  0  0  0  0  0  0  0
   33.0904   23.7443    3.5250 C   0  0  0  0  0  0  0  0  0  0  0  0
   31.4534   28.2575    3.2020 C   0  0  0  0  0  0  0  0  0  0  0  0
   29.6873   25.8183    0.7348 C   0  0  0  0  0  0  0  0  0  0  0  0
   32.6750   24.3023    4.9822 C   0  0  0  0  0  0  0  0  0  0  0  0
   32.4912   25.7977    4.8883 N   0  0  0  0  0  0  0  0  0  0  0  0
   33.5634   27.4655    6.3467 O   0  0  0  0  0  0  0  0  0  0  0  0
   30.8237   28.4679   -0.3943 C   0  0  0  0  0  0  0  0  0  0  0  0
   32.4496   27.0701    5.5045 C   0  0  0  0  0  0  0  0  0  0  0  0
   30.7155   24.3831    2.2169 C   0  0  0  0  0  0  0  0  0  0  0  0
   31.9171   23.8355    2.7054 N   0  0  0  0  0  0  0  0  0  0  0  0
   33.8211   23.6080    5.3110 C   0  0  0  0  0  0  0  0  0  0  0  0
   29.8479   27.7331   -1.0101 C   0  0  0  0  0  0  0  0  0  0  0  0
   31.0333   24.7821    6.7634 O   0  0  0  0  0  1  0  0  0  0  0  0
   31.6085   23.8800    6.1313 P   0  0  0  0  0  4  0  0  0  0  0  0
   35.8738   22.6019    4.6437 C   0  0  0  0  0  0  0  0  0  0  0  0
   34.1931   23.1808    2.9213 C   0  0  0  0  0  0  0  0  0  0  0  0
   31.2908   28.5611    0.7456 C   0  0  0  0  0  0  0  0  0  0  0  0
   29.3776   23.9580    2.2358 C   0  0  0  0  0  0  0  0  0  0  0  0
   28.5246   24.8408    1.2514 S   0  0  0  0  0  0  0  0  0  0  0  0
   31.3338   27.9743    5.5930 N   0  0  0  0  0  0  0  0  0  0  0  0
   29.3774   28.5392    4.3301 O   0  0  0  0  0  0  0  0  0  0  0  0
   34.9306   23.0493    5.6435 C   0  0  0  0  0  0  0  0  0  0  0  0
  1 12  1  0
  1 30  1  0
  1 31  2  0
  2  3  2  0
  2  4  1  0
  2 28  1  0
  5 30  1  0
  6 12  1  0
  6 27  3  0
  7 25  1  0
  7 26  2  0
  8 24  1  0
  9 13  1  0
  9 19  1  0
 10 13  1  0
 10 22  2  0
 11 14  1  0
 11 20  1  0
 11 26  1  0
 13 29  1  0
 14 15  1  0
 14 21  1  0
 14 24  1  0
 15 18  1  0
 16 18  2  0
 17 22  1  0
 17 27  1  0
 18 30  1  0
 19 20  1  0
 19 28  2  0
 21 32  1  0
 23 24  2  0
 25 32  1  0
 28 29  1  0
M  END
>  <ID>  (1) 
conformer_0

$$$$
