
     RDKit          3D

 33 37  0  0  0  0  0  0  0  0999 V2000
   35.4410   24.5200    5.9501 O   0  0  0  0  0  0  0  0  0  0  0  0
   30.6376   22.0610    4.4023 C   0  0  0  0  0  0  0  0  0  0  0  0
   31.1154   28.5844    1.7950 O   0  0  0  0  0  0  0  0  0  0  0  0
   34.7106   22.6268    3.9386 F   0  0  0  0  0  0  0  0  0  0  0  0
   33.0796   24.2537    6.3076 C   0  0  0  0  0  0  0  0  0  0  0  0
   28.2227   28.2859    1.6063 C   0  0  0  0  0  0  0  0  0  0  0  0
   32.0348   22.5674    4.6810 C   0  0  0  0  0  0  0  0  0  0  0  0
   28.8765   23.3397    2.6890 C   0  0  0  0  0  0  0  0  0  0  0  0
   29.7808   28.6014   -0.1826 C   0  0  0  0  0  0  0  0  0  0  0  0
   31.8825   23.9287    5.4558 C   0  0  0  0  0  0  0  0  0  0  0  0
   26.0917   30.4987    0.3101 C   0  0  0  0  0  0  0  0  0  0  0  0
   28.5588   27.7487    0.2279 C   0  0  0  0  0  0  0  0  0  0  0  0
   29.0264   26.3168    0.2446 C   0  0  0  0  0  0  0  0  0  0  0  0
   28.0668   30.8814   -0.8919 O   0  0  0  0  0  0  0  0  0  0  0  0
   33.8302   23.5856    3.3682 C   0  0  0  0  0  0  0  0  0  0  0  0
   28.1779   28.5470   -2.0075 C   0  0  0  0  0  0  0  0  0  0  0  0
   30.6075   29.2895    0.7886 C   0  0  0  0  0  0  0  0  0  0  0  0
   28.0926   29.7770    1.3474 C   0  0  0  0  0  0  0  0  0  0  0  0
   29.6840   28.8243   -1.6092 C   0  0  0  0  0  0  0  0  0  0  0  0
   31.1775   23.3327    2.5898 C   0  0  0  0  0  0  0  0  0  0  0  0
   27.4569   28.5012   -0.6544 C   0  0  0  0  0  0  0  0  0  0  0  0
   33.1147   27.0697    4.9892 O   0  0  0  0  0  0  0  0  0  0  0  0
   29.1969   24.0090    1.4040 C   0  0  0  0  0  0  0  0  0  0  0  0
   31.7129   24.8491    0.7299 C   0  0  0  0  0  0  0  0  0  0  0  0
   27.4771   29.9457   -0.0095 C   0  0  0  0  0  0  0  0  0  0  0  0
   34.1998   24.9780    5.5304 C   0  0  0  0  0  0  0  0  0  0  0  0
   30.6945   23.8689    1.3094 C   0  0  0  0  0  0  0  0  0  0  0  0
   30.0546   22.9848    3.4307 C   0  0  0  0  0  0  0  0  0  0  0  0
   28.5920   25.3750    1.2851 C   0  0  0  0  0  0  0  0  0  0  0  0
   33.9854   26.4408    5.8596 C   0  0  0  0  0  0  0  0  0  0  0  0
   32.4419   22.9899    3.2558 C   0  0  0  0  0  0  0  0  0  0  0  0
   33.9905   24.8566    4.0491 O   0  0  0  0  0  0  0  0  0  0  0  0
   33.9659   26.7075    7.1233 O   0  0  0  0  0  0  0  0  0  0  0  0
  1 26  1  0
  2  7  1  0
  2 28  1  0
  3 17  1  0
  4 15  1  0
  5 10  1  0
  5 26  1  0
  6 12  1  0
  6 18  1  0
  7 10  1  0
  7 31  1  0
  8 23  1  0
  8 28  1  0
  9 12  1  0
  9 17  1  0
  9 19  1  0
 11 25  1  0
 12 13  1  0
 12 21  1  0
 13 29  2  3
 14 25  1  0
 15 31  1  0
 15 32  1  0
 16 19  1  0
 16 21  1  0
 18 25  1  0
 20 27  1  0
 20 28  1  0
 20 31  1  0
 21 25  1  0
 22 30  2  0
 23 27  1  0
 23 29  1  0
 24 27  1  0
 26 30  1  0
 26 32  1  0
 30 33  1  0
M  END
>  <ID>  (1) 
conformer_0

$$$$
