
     RDKit          3D

 28 33  0  0  0  0  0  0  0  0999 V2000
   33.1460   28.2530    6.4236 C   0  0  0  0  0  0  0  0  0  0  0  0
   34.1646   24.8540    5.1966 C   0  0  0  0  0  0  0  0  0  0  0  0
   30.7518   23.3089    0.4996 C   0  0  0  0  0  0  0  0  0  0  0  0
   30.5221   22.6847    2.7562 C   0  0  0  0  0  0  0  0  0  0  0  0
   30.7996   24.4970    4.7639 C   0  0  0  0  0  0  0  0  0  0  0  0
   32.2429   26.5706    5.0266 C   0  0  0  0  0  0  0  0  0  0  0  0
   35.2909   24.4951    6.2181 C   0  0  0  0  0  0  0  0  0  0  0  0
   32.0622   22.4336    2.8714 C   0  0  0  0  0  0  0  0  0  0  0  0
   29.7157   28.6318   -0.3304 C   0  0  0  0  0  0  0  0  0  0  0  0
   28.9195   24.7239    1.6155 C   0  0  0  0  0  0  0  0  0  0  0  0
   31.9430   27.9043    5.5442 C   0  0  0  0  0  0  0  0  0  0  0  0
   33.1594   23.0610    6.3617 C   0  0  0  0  0  0  0  0  0  0  0  0
   32.6891   26.2172    3.6496 C   0  0  0  0  0  0  0  0  0  0  0  0
   32.8007   23.5645    3.5579 C   0  0  0  0  0  0  0  0  0  0  0  0
   30.5470   26.3924    0.3363 C   0  0  0  0  0  0  0  0  0  0  0  0
   30.2577   23.9386    1.8621 C   0  0  0  0  0  0  0  0  0  0  0  0
   34.5398   23.4105    7.0921 C   0  0  0  0  0  0  0  0  0  0  0  0
   29.1851   28.6008    1.1504 C   0  0  0  0  0  0  0  0  0  0  0  0
   33.5665   23.4069    4.8631 C   0  0  0  0  0  0  0  0  0  0  0  0
   33.9427   26.9633    6.6285 C   0  0  0  0  0  0  0  0  0  0  0  0
   31.8986   24.8036    3.6208 C   0  0  0  0  0  0  0  0  0  0  0  0
   28.4011   27.3028    1.3192 C   0  0  0  0  0  0  0  0  0  0  0  0
   33.1552   25.7700    6.0144 C   0  0  0  0  0  0  0  0  0  0  0  0
   31.7058   25.9257    1.1937 C   0  0  0  0  0  0  0  0  0  0  0  0
   31.2628   24.9839    2.2731 C   0  0  0  0  0  0  0  0  0  0  0  0
   34.6586   22.3442    4.5462 C   0  0  0  0  0  0  0  0  0  0  0  0
   29.1376   26.0648    0.8728 C   0  0  0  0  0  0  0  0  0  0  0  0
   30.8701   27.6692   -0.4036 C   0  0  0  0  0  0  0  0  0  0  0  0
  1 11  1  0
  1 20  1  0
  2  7  1  0
  2 19  1  0
  2 23  1  0
  3 16  1  0
  4  8  1  0
  4 16  1  0
  5 21  1  0
  6 11  1  0
  6 13  1  0
  6 23  1  0
  7 17  1  0
  8 14  1  0
  9 18  1  0
  9 28  1  0
 10 16  1  0
 10 27  1  0
 12 17  1  0
 12 19  1  0
 13 21  1  0
 14 19  1  0
 14 21  1  0
 15 24  1  0
 15 27  1  0
 15 28  1  0
 16 25  1  0
 18 22  1  0
 19 26  1  0
 20 23  1  0
 21 25  1  0
 22 27  1  0
 24 25  1  0
M  END
>  <ID>  (1) 
conformer_0

$$$$
