
     RDKit          3D

 23 25  0  0  0  0  0  0  0  0999 V2000
   29.9891   29.1650    0.5089 C   0  0  0  0  0  0  0  0  0  0  0  0
   31.0751   25.1882    5.8784 O   0  0  0  0  0  0  0  0  0  0  0  0
   30.3203   23.0157    3.4685 C   0  0  0  0  0  0  0  0  0  0  0  0
   32.5263   22.5970    4.0748 C   0  0  0  0  0  0  0  0  0  0  0  0
   28.8629   27.1082    0.0354 C   0  0  0  0  0  0  0  0  0  0  0  0
   36.0725   21.6023    3.8656 C   0  0  0  0  0  0  0  0  0  0  0  0
   34.9680   23.7777    3.5958 C   0  0  0  0  0  0  0  0  0  0  0  0
   31.0650   24.1654    3.2289 C   0  0  0  0  0  0  0  0  0  0  0  0
   29.7585   26.4528    0.8388 C   0  0  0  0  0  0  0  0  0  0  0  0
   34.8923   22.4178    3.8469 C   0  0  0  0  0  0  0  0  0  0  0  0
   30.8401   25.0301    2.2107 O   0  0  0  0  0  0  0  0  0  0  0  0
   28.9746   28.4795   -0.1238 C   0  0  0  0  0  0  0  0  0  0  0  0
   31.7686   26.1940    1.9457 C   0  0  0  0  0  0  0  0  0  0  0  0
   30.8472   27.1264    1.3580 C   0  0  0  0  0  0  0  0  0  0  0  0
   28.9122   23.9241    1.0618 C   0  0  0  0  0  0  0  0  0  0  0  0
   32.4411   24.1311    3.9717 C   0  0  0  0  0  0  0  0  0  0  0  0
   29.7388   25.1284    1.2899 C   0  0  0  0  0  0  0  0  0  0  0  0
   33.8534   24.5711    3.5890 C   0  0  0  0  0  0  0  0  0  0  0  0
   31.2064   22.0042    4.0093 C   0  0  0  0  0  0  0  0  0  0  0  0
   32.7727   26.4657    5.2453 O   0  0  0  0  0  0  0  0  0  0  0  0
   30.9520   28.5016    1.2639 C   0  0  0  0  0  0  0  0  0  0  0  0
   33.6618   21.8351    4.0910 C   0  0  0  0  0  0  0  0  0  0  0  0
   32.0768   25.3324    5.0673 C   0  0  0  0  0  0  0  0  0  0  0  0
  1 12  2  0
  1 21  1  0
  2 23  2  0
  3  8  1  0
  3 19  1  0
  4 16  1  0
  4 19  1  0
  4 22  2  0
  5  9  2  0
  5 12  1  0
  6 10  1  0
  7 10  1  0
  7 18  2  0
  8 11  1  0
  8 16  1  0
  9 14  1  0
  9 17  1  0
 10 22  1  0
 11 17  1  0
 13 14  1  0
 14 21  2  0
 15 17  1  0
 16 18  1  0
 16 23  1  0
 20 23  1  0
M  END
>  <ID>  (1) 
conformer_0

$$$$
