
     RDKit          3D

 24 28  0  0  0  0  0  0  0  0999 V2000
   28.7256   23.9837    1.9956 C   0  0  0  0  0  0  0  0  0  0  0  0
   28.3648   27.1113    0.3486 C   0  0  0  0  0  0  0  0  0  0  0  0
   33.4994   22.7346    2.7320 C   0  0  0  0  0  0  0  0  0  0  0  0
   30.8166   26.7255    0.4667 C   0  0  0  0  0  0  0  0  0  0  0  0
   30.5262   28.2368    0.5814 C   0  0  0  0  0  0  0  0  0  0  0  0
   31.6818   27.9246    4.1481 N   0  0  0  0  0  0  0  0  0  0  0  0
   29.1505   28.3541   -0.1507 C   0  0  0  0  0  0  0  0  0  0  0  0
   29.1172   22.9632    2.8498 C   0  0  0  0  0  0  0  0  0  0  0  0
   30.3464   28.4166    2.1242 C   0  0  0  0  0  0  0  0  0  0  0  0
   32.5593   27.0854    4.8200 C   0  0  0  0  0  0  0  0  0  0  0  0
   31.3540   23.8675    2.9732 C   0  0  0  0  0  0  0  0  0  0  0  0
   29.3873   26.0721    0.6641 C   0  0  0  0  0  0  0  0  0  0  0  0
   34.7591   24.6737    4.3224 C   0  0  0  0  0  0  0  0  0  0  0  0
   31.2754   27.4690    2.8293 C   0  0  0  0  0  0  0  0  0  0  0  0
   32.5714   25.8346    4.3944 N   0  0  0  0  0  0  0  0  0  0  0  0
   32.6737   23.7336    3.4132 N   0  0  0  0  0  0  0  0  0  0  0  0
   30.8925   24.9543    2.2158 C   0  0  0  0  0  0  0  0  0  0  0  0
   33.2143   27.3568    5.9979 C   0  0  0  0  0  0  0  0  0  0  0  0
   30.4381   22.8679    3.3279 C   0  0  0  0  0  0  0  0  0  0  0  0
   33.3317   24.8623    3.8912 C   0  0  0  0  0  0  0  0  0  0  0  0
   29.6456   24.9782    1.6486 C   0  0  0  0  0  0  0  0  0  0  0  0
   31.6045   26.2928    1.9237 C   0  0  0  0  0  0  0  0  0  0  0  0
   27.4150   27.4009    1.5392 C   0  0  0  0  0  0  0  0  0  0  0  0
   30.7878   28.6618    4.9982 C   0  0  0  0  0  0  0  0  0  0  0  0
  1  8  2  0
  1 21  1  0
  2  7  1  0
  2 12  1  0
  2 23  1  0
  3 16  1  0
  4  5  1  0
  4 12  1  0
  4 22  1  0
  5  7  1  0
  5  9  1  0
  6 10  1  0
  6 14  1  0
  6 24  1  0
  8 19  1  0
  9 14  1  0
 10 15  1  0
 10 18  2  0
 11 16  1  0
 11 17  1  0
 11 19  2  0
 12 21  1  0
 13 20  1  0
 14 22  1  0
 15 20  2  0
 16 20  1  0
 17 21  2  0
 17 22  1  0
M  END
>  <ID>  (1) 
conformer_0

$$$$
