
     RDKit          3D

 28 31  0  0  0  0  0  0  0  0999 V2000
   29.3608   23.4945    1.3475 C   0  0  0  0  0  0  0  0  0  0  0  0
   28.2901   24.4043    1.8251 C   0  0  0  0  0  0  0  0  0  0  0  0
   31.4295   27.1699    4.4274 C   0  0  0  0  0  0  0  0  0  0  0  0
   31.6891   22.9611    2.1470 C   0  0  0  0  0  0  0  0  0  0  0  0
   35.0733   23.9275    3.5874 C   0  0  0  0  0  0  0  0  0  0  0  0
   30.3526   28.2981    0.3733 C   0  0  0  0  0  0  0  0  0  0  0  0
   33.7138   23.6626    3.5147 N   0  0  0  0  0  0  0  0  0  0  0  0
   34.0923   24.5101    5.7102 C   0  0  0  0  0  0  0  0  0  0  0  0
   28.1928   27.8372    1.6033 C   0  0  0  0  0  0  0  0  0  0  0  0
   28.7239   23.3553    2.7075 C   0  0  0  0  0  0  0  0  0  0  0  0
   31.7708   25.0736    3.4166 C   0  0  0  0  0  0  0  0  0  0  0  0
   32.2081   23.6442    3.4928 C   0  0  0  0  0  0  0  0  0  0  0  0
   33.3494   26.7177    6.4182 C   0  0  0  0  0  0  0  0  0  0  0  0
   34.5103   21.8585    4.7009 C   0  0  0  0  0  0  0  0  0  0  0  0
   32.1718   25.9569    4.4353 C   0  0  0  0  0  0  0  0  0  0  0  0
   30.3493   26.6552    2.2761 C   0  0  0  0  0  0  0  0  0  0  0  0
   32.5340   27.7722    6.4745 N   0  0  0  0  0  0  0  0  0  0  0  0
   31.5506   27.9761    5.5702 C   0  0  0  0  0  0  0  0  0  0  0  0
   33.2045   25.7227    5.4535 C   0  0  0  0  0  0  0  0  0  0  0  0
   31.6798   23.0361    4.5729 O   0  0  0  0  0  0  0  0  0  0  0  0
   29.7428   29.6749    0.3104 C   0  0  0  0  0  0  0  0  0  0  0  0
   34.3029   23.4103    4.7676 C   0  0  0  0  0  0  0  0  0  0  0  0
   30.6180   27.4930    3.3708 C   0  0  0  0  0  0  0  0  0  0  0  0
   30.7531   24.0552    1.5302 C   0  0  0  0  0  0  0  0  0  0  0  0
   31.7691   27.7931    0.0978 C   0  0  0  0  0  0  0  0  0  0  0  0
   30.6112   28.9301    5.8123 F   0  0  0  0  0  0  0  0  0  0  0  0
   30.8948   25.3098    2.3721 C   0  0  0  0  0  0  0  0  0  0  0  0
   29.5520   27.2414    1.0849 C   0  0  0  0  0  0  0  0  0  0  0  0
  1  2  1  0
  1 24  1  0
  2 10  1  0
  3 15  1  0
  3 18  1  0
  3 23  2  0
  4 12  1  0
  4 24  1  0
  5  7  1  0
  6 21  1  0
  6 25  1  0
  6 28  1  0
  7 12  1  0
  7 22  1  0
  8 19  1  0
  8 22  1  0
  9 28  1  0
 11 12  1  0
 11 15  1  0
 11 27  2  0
 12 20  1  0
 13 17  2  0
 13 19  1  0
 14 22  1  0
 15 19  2  0
 16 23  1  0
 16 27  1  0
 16 28  1  0
 17 18  1  0
 18 26  1  0
 24 27  1  0
M  END
>  <ID>  (1) 
conformer_0

$$$$
