
     RDKit          3D

 28 33  0  0  0  0  0  0  0  0999 V2000
   33.7294   24.8308    5.8108 C   0  0  0  0  0  0  0  0  0  0  0  0
   34.0887   21.9487    4.5128 C   0  0  0  0  0  0  0  0  0  0  0  0
   34.9828   24.0592    3.8022 C   0  0  0  0  0  0  0  0  0  0  0  0
   29.6332   26.0879    1.6378 C   0  0  0  0  0  0  0  0  0  0  0  0
   29.8448   24.2734    3.3198 C   0  0  0  0  0  0  0  0  0  0  0  0
   32.3141   25.3704    4.1134 C   0  0  0  0  0  0  0  0  0  0  0  0
   29.9674   22.7400    2.8811 C   0  0  0  0  0  0  0  0  0  0  0  0
   33.3970   26.2810    3.5026 C   0  0  0  0  0  0  0  0  0  0  0  0
   29.6007   27.2059    0.7026 C   0  0  0  0  0  0  0  0  0  0  0  0
   30.8744   22.8877    1.5542 C   0  0  0  0  0  0  0  0  0  0  0  0
   29.2150   28.1754   -1.4212 C   0  0  0  0  0  0  0  0  0  0  0  0
   30.2145   28.3787    1.1055 C   0  0  0  0  0  0  0  0  0  0  0  0
   33.1311   23.9645    1.4231 C   0  0  0  0  0  0  0  0  0  0  0  0
   30.3824   29.4375    0.2671 C   0  0  0  0  0  0  0  0  0  0  0  0
   35.1614   24.5814    5.2625 C   0  0  0  0  0  0  0  0  0  0  0  0
   32.7760   24.0683    4.7623 C   0  0  0  0  0  0  0  0  0  0  0  0
   31.0509   26.0468    2.2011 C   0  0  0  0  0  0  0  0  0  0  0  0
   33.7144   26.2436    6.3102 C   0  0  0  0  0  0  0  0  0  0  0  0
   29.8457   29.3183   -1.0036 C   0  0  0  0  0  0  0  0  0  0  0  0
   28.9481   24.9099    2.2160 C   0  0  0  0  0  0  0  0  0  0  0  0
   31.2765   24.8266    3.0290 C   0  0  0  0  0  0  0  0  0  0  0  0
   29.0872   27.0842   -0.5619 C   0  0  0  0  0  0  0  0  0  0  0  0
   31.4689   26.1424    4.9313 O   0  0  0  0  0  0  0  0  0  0  0  0
   31.0630   22.2128    3.8690 C   0  0  0  0  0  0  0  0  0  0  0  0
   32.2598   23.0458    3.6342 C   0  0  0  0  0  0  0  0  0  0  0  0
   35.7714   23.6754    6.0767 O   0  0  0  0  0  0  0  0  0  0  0  0
   33.6257   23.1969    3.9812 C   0  0  0  0  0  0  0  0  0  0  0  0
   31.9904   23.7305    2.3172 C   0  0  0  0  0  0  0  0  0  0  0  0
  1 15  1  0
  1 16  1  0
  1 18  1  0
  2 27  1  0
  3 15  1  0
  3 27  1  0
  4  9  1  0
  4 17  1  0
  4 20  1  0
  5  7  1  0
  5 20  1  0
  5 21  1  0
  6  8  1  0
  6 16  1  0
  6 21  1  0
  6 23  1  0
  7 10  1  0
  7 24  1  0
  9 12  1  0
  9 22  2  0
 10 28  1  0
 11 19  2  0
 11 22  1  0
 12 14  2  0
 13 28  1  0
 14 19  1  0
 15 26  1  0
 16 27  1  0
 17 21  1  0
 21 28  1  0
 24 25  1  0
 25 27  1  0
 25 28  1  0
M  END
>  <ID>  (1) 
conformer_0

$$$$
