
     RDKit          3D

 27 28  0  0  0  0  0  0  0  0999 V2000
   30.7287   25.3446    0.9154 C   0  0  0  0  0  0  0  0  0  0  0  0
   31.6271   27.6111   -0.2889 O   0  0  0  0  0  0  0  0  0  0  0  0
   35.1999   24.6739    5.1215 C   0  0  0  0  0  0  0  0  0  0  0  0
   30.0750   26.4718    0.9929 N   0  0  0  0  0  0  0  0  0  0  0  0
   32.6683   26.1580    4.9116 C   0  0  0  0  0  0  0  0  0  0  0  0
   33.9817   24.2622    2.9805 C   0  0  0  0  0  0  0  0  0  0  0  0
   32.3189   22.6154    4.1440 C   0  0  0  0  0  0  0  0  0  0  0  0
   34.2677   26.1650    6.8034 C   0  0  0  0  0  0  0  0  0  0  0  0
   29.2800   28.9116   -1.6037 C   0  0  0  0  0  0  0  0  0  0  0  0
   29.3556   28.2894   -0.3604 C   0  0  0  0  0  0  0  0  0  0  0  0
   29.9935   22.7580    3.6371 C   0  0  0  0  0  0  0  0  0  0  0  0
   31.0301   22.2139    4.4058 C   0  0  0  0  0  0  0  0  0  0  0  0
   28.3940   28.6050    0.6003 C   0  0  0  0  0  0  0  0  0  0  0  0
   27.4422   29.5825    0.3514 C   0  0  0  0  0  0  0  0  0  0  0  0
   33.0442   21.2373    5.8765 C   0  0  0  0  0  0  0  0  0  0  0  0
   30.4272   27.3994    0.0123 C   0  0  0  0  0  0  0  0  0  0  0  0
   32.6150   23.6466    3.2280 C   0  0  0  0  0  0  0  0  0  0  0  0
   35.0640   23.7483    3.8200 C   0  0  0  0  0  0  0  0  0  0  0  0
   34.0112   25.5335    5.4512 C   0  0  0  0  0  0  0  0  0  0  0  0
   31.5699   24.1017    2.4421 C   0  0  0  0  0  0  0  0  0  0  0  0
   32.0103   25.0411    1.3428 C   0  0  0  0  0  0  0  0  0  0  0  0
   28.2960   29.8789   -1.8573 C   0  0  0  0  0  0  0  0  0  0  0  0
   30.2480   23.6822    2.6592 C   0  0  0  0  0  0  0  0  0  0  0  0
   27.3844   30.2262   -0.8679 C   0  0  0  0  0  0  0  0  0  0  0  0
   28.7494   22.3539    3.8301 O   0  0  0  0  0  0  0  0  0  0  0  0
   32.2045   20.6555    6.5261 N   0  0  0  0  0  0  0  0  0  0  0  0
   33.3095   21.8842    4.8082 N   0  0  0  0  0  0  0  0  0  0  0  0
  1  4  1  0
  1 21  1  0
  2 16  2  0
  3 18  1  0
  3 19  1  0
  4 16  1  0
  5 19  1  0
  6 17  1  0
  6 18  1  0
  7 12  2  0
  7 17  1  0
  7 27  1  0
  8 19  1  0
  9 10  2  0
  9 22  1  0
 10 13  1  0
 10 16  1  0
 11 12  1  0
 11 23  2  0
 11 25  1  0
 13 14  2  0
 14 24  1  0
 15 26  2  0
 15 27  1  0
 17 20  2  0
 20 21  1  0
 20 23  1  0
 22 24  2  0
M  END
>  <ID>  (1) 
conformer_0

$$$$
