
     RDKit          3D

 19 20  0  0  0  0  0  0  0  0999 V2000
   31.3722   26.9996    0.5736 C   0  0  0  0  0  0  0  0  0  0  0  0
   32.0634   25.3651    4.7325 C   0  0  0  0  0  0  0  0  0  0  0  0
   31.6893   23.4236    2.7706 C   0  0  0  0  0  0  0  0  0  0  0  0
   29.1723   26.3031   -0.0612 C   0  0  0  0  0  0  0  0  0  0  0  0
   31.1770   24.6812    2.5701 C   0  0  0  0  0  0  0  0  0  0  0  0
   29.6255   23.7293    0.9877 C   0  0  0  0  0  0  0  0  0  0  0  0
   35.4332   24.2985    4.3669 C   0  0  0  0  0  0  0  0  0  0  0  0
   33.0371   22.0404    4.0851 O   0  0  0  0  0  0  0  0  0  0  0  0
   32.9273   24.3047    4.6763 N   0  0  0  0  0  0  0  0  0  0  0  0
   31.1757   27.4598    3.4626 Cl  0  0  0  0  0  0  0  0  0  0  0  0
   31.4319   25.7237    3.5315 C   0  0  0  0  0  0  0  0  0  0  0  0
   30.3778   24.8724    1.3948 N   0  0  0  0  0  0  0  0  0  0  0  0
   32.5649   23.2261    3.8460 C   0  0  0  0  0  0  0  0  0  0  0  0
   31.7475   25.9630    5.8502 O   0  0  0  0  0  0  0  0  0  0  0  0
   30.3258   26.0900    0.6565 C   0  0  0  0  0  0  0  0  0  0  0  0
   31.2603   28.1303   -0.2067 C   0  0  0  0  0  0  0  0  0  0  0  0
   30.1025   28.3481   -0.9586 C   0  0  0  0  0  0  0  0  0  0  0  0
   34.2882   24.4350    5.4237 C   0  0  0  0  0  0  0  0  0  0  0  0
   29.0605   27.4318   -0.8937 C   0  0  0  0  0  0  0  0  0  0  0  0
  1 15  2  0
  1 16  1  0
  2  9  1  0
  2 11  1  0
  2 14  2  0
  3  5  2  0
  3 13  1  0
  4 15  1  0
  4 19  2  0
  5 11  1  0
  5 12  1  0
  6 12  1  0
  7 18  1  0
  8 13  2  0
  9 13  1  0
  9 18  1  0
 10 11  1  0
 12 15  1  0
 16 17  2  0
 17 19  1  0
M  END
>  <ID>  (1) 
conformer_0

$$$$
