
     RDKit          3D

 16 18  0  0  0  0  0  0  0  0999 V2000
   32.5650   23.7044    2.8792 C   0  0  0  0  0  0  0  0  0  0  0  0
   32.5179   25.0059    3.3839 C   0  0  0  0  0  0  0  0  0  0  0  0
   34.6317   24.6604    4.4560 C   0  0  0  0  0  0  0  0  0  0  0  0
   33.5257   25.4502    4.2339 C   0  0  0  0  0  0  0  0  0  0  0  0
   32.0557   27.4051    2.2302 S   0  0  0  0  0  0  0  0  0  0  0  0
   29.2539   26.2340    1.6700 C   0  0  0  0  0  0  0  0  0  0  0  0
   30.3964   25.3209    2.0676 N   0  0  0  0  0  0  0  0  0  0  0  0
   31.8931   26.8380    0.5213 C   0  0  0  0  0  0  0  0  0  0  0  0
   30.1729   23.8936    2.1050 C   0  0  0  0  0  0  0  0  0  0  0  0
   34.7402   23.4484    3.8495 C   0  0  0  0  0  0  0  0  0  0  0  0
   30.8124   27.9608   -1.2404 O   0  0  0  0  0  0  0  0  0  0  0  0
   31.3912   23.0814    2.1802 C   0  0  0  0  0  0  0  0  0  0  0  0
   31.3835   25.8715    3.0349 C   0  0  0  0  0  0  0  0  0  0  0  0
   30.7027   27.2153   -0.1550 C   0  0  0  0  0  0  0  0  0  0  0  0
   29.3111   26.8523    0.2959 C   0  0  0  0  0  0  0  0  0  0  0  0
   33.7271   22.9341    3.0662 C   0  0  0  0  0  0  0  0  0  0  0  0
  1  2  2  0
  1 12  1  0
  1 16  1  0
  2  4  1  0
  2 13  1  0
  3  4  2  0
  3 10  1  0
  5  8  1  0
  5 13  1  0
  6  7  1  0
  6 15  1  0
  7  9  1  0
  7 13  1  0
  8 14  1  0
  9 12  1  0
 10 16  2  0
 11 14  1  0
 14 15  1  0
M  END
>  <ID>  (1) 
conformer_0

$$$$
