
     RDKit          3D

 32 36  0  0  0  0  0  0  0  0999 V2000
   31.2430   23.6188    1.5630 C   0  0  0  0  0  0  0  0  0  0  0  0
   28.6464   23.4833    2.2996 C   0  0  0  0  0  0  0  0  0  0  0  0
   31.6479   27.1110    1.3737 C   0  0  0  0  0  0  0  0  0  0  0  0
   34.4701   22.0153    6.3754 C   0  0  0  0  0  0  0  0  0  0  0  0
   35.5002   24.0574    7.5246 C   0  0  0  0  0  0  0  0  0  0  0  0
   27.1246   27.6992    0.8981 C   0  0  0  0  0  0  0  0  0  0  0  0
   34.1575   24.2293    5.4708 C   0  0  0  0  0  0  0  0  0  0  0  0
   32.8114   24.3173    3.4012 C   0  0  0  0  0  0  0  0  0  0  0  0
   30.4440   27.8020    3.5543 C   0  0  0  0  0  0  0  0  0  0  0  0
   35.0028   23.3621    6.2865 C   0  0  0  0  0  0  0  0  0  0  0  0
   30.4638   27.2372    2.2510 C   0  0  0  0  0  0  0  0  0  0  0  0
   31.4797   27.6970    4.4367 O   0  0  0  0  0  0  0  0  0  0  0  0
   33.6664   23.6344    4.2959 C   0  0  0  0  0  0  0  0  0  0  0  0
   33.9822   25.4963    5.9199 C   0  0  0  0  0  0  0  0  0  0  0  0
   31.7421   25.7935    0.6653 C   0  0  0  0  0  0  0  0  0  0  0  0
   32.3999   25.5940    3.6752 C   0  0  0  0  0  0  0  0  0  0  0  0
   32.2249   28.1734    0.8674 O   0  0  0  0  0  0  0  0  0  0  0  0
   26.9935   29.0943    3.4052 O   0  0  0  0  0  0  0  0  0  0  0  0
   29.2548   26.7973    1.6998 C   0  0  0  0  0  0  0  0  0  0  0  0
   32.3917   23.5525    2.3092 O   0  0  0  0  0  0  0  0  0  0  0  0
   34.1400   21.4698    5.0737 C   0  0  0  0  0  0  0  0  0  0  0  0
   28.1112   28.3820    3.0709 C   0  0  0  0  0  0  0  0  0  0  0  0
   30.7101   24.8869    1.1655 N   0  0  0  0  0  0  0  0  0  0  0  0
   34.4563   24.5981    8.3874 C   0  0  0  0  0  0  0  0  0  0  0  0
   29.3529   25.4672    1.0416 C   0  0  0  0  0  0  0  0  0  0  0  0
   32.3421   26.6307    4.5506 C   0  0  0  0  0  0  0  0  0  0  0  0
   28.1267   27.5869    1.9046 C   0  0  0  0  0  0  0  0  0  0  0  0
   33.9872   22.2925    3.9656 C   0  0  0  0  0  0  0  0  0  0  0  0
   33.2283   26.6004    5.6606 C   0  0  0  0  0  0  0  0  0  0  0  0
   35.0513   23.3367    8.6810 C   0  0  0  0  0  0  0  0  0  0  0  0
   29.2593   28.4798    3.9134 C   0  0  0  0  0  0  0  0  0  0  0  0
   28.4501   24.2891    1.0398 O   0  0  0  0  0  0  0  0  0  0  0  0
  1 20  1  0
  1 23  1  0
  2 32  1  0
  3 11  1  0
  3 15  1  0
  3 17  1  0
  4 10  1  0
  4 21  1  0
  5 10  1  0
  5 30  1  0
  6 27  1  0
  7 10  1  0
  7 13  1  0
  7 14  2  0
  8 13  1  0
  8 16  2  0
  8 20  1  0
  9 11  1  0
  9 12  1  0
  9 31  2  0
 11 19  1  0
 12 26  1  0
 13 28  1  0
 14 29  1  0
 15 23  1  0
 16 26  1  0
 18 22  1  0
 19 25  1  0
 19 27  1  0
 21 28  1  0
 22 27  2  0
 22 31  1  0
 23 25  1  0
 24 30  1  0
 25 32  1  0
 26 29  2  0
M  END
>  <ID>  (1) 
conformer_0

$$$$
