
     RDKit          3D

 30 34  0  0  0  0  0  0  0  0999 V2000
   31.9858   24.5994    5.6472 C   0  0  0  0  0  0  0  0  0  0  0  0
   32.9093   21.4196    6.0598 C   0  0  0  0  0  0  0  0  0  0  0  0
   31.6895   21.2640    5.1768 C   0  0  0  0  0  0  0  0  0  0  0  0
   35.4149   21.7879    6.2412 C   0  0  0  0  0  0  0  0  0  0  0  0
   29.8256   22.4699    3.7048 N   0  0  0  0  0  0  0  0  0  0  0  0
   31.9311   26.9606    1.0792 C   0  0  0  0  0  0  0  0  0  0  0  0
   29.0646   30.2061    0.0659 O   0  0  0  0  0  0  0  0  0  0  0  0
   34.1379   22.3404    6.1811 C   0  0  0  0  0  0  0  0  0  0  0  0
   31.5064   23.6579    4.6192 C   0  0  0  0  0  0  0  0  0  0  0  0
   33.7554   26.2340    6.2411 C   0  0  0  0  0  0  0  0  0  0  0  0
   34.2849   23.7856    6.2100 C   0  0  0  0  0  0  0  0  0  0  0  0
   33.3356   25.0850    2.5832 C   0  0  0  0  0  0  0  0  0  0  0  0
   36.3488   22.8590    6.3089 C   0  0  0  0  0  0  0  0  0  0  0  0
   33.2636   24.8223    6.2421 C   0  0  0  0  0  0  0  0  0  0  0  0
   29.7043   27.9237    0.7059 C   0  0  0  0  0  0  0  0  0  0  0  0
   29.1436   28.6936   -1.6636 O   0  0  0  0  0  0  0  0  0  0  0  0
   28.8217   28.8904   -0.2659 C   0  0  0  0  0  0  0  0  0  0  0  0
   29.8293   25.5382    1.3962 C   0  0  0  0  0  0  0  0  0  0  0  0
   29.9551   23.6293    2.9042 C   0  0  0  0  0  0  0  0  0  0  0  0
   27.3217   28.5500   -0.0208 C   0  0  0  0  0  0  0  0  0  0  0  0
   31.1656   25.8416    1.6844 C   0  0  0  0  0  0  0  0  0  0  0  0
   30.9273   22.4046    4.6663 C   0  0  0  0  0  0  0  0  0  0  0  0
   29.2181   24.3167    1.8877 C   0  0  0  0  0  0  0  0  0  0  0  0
   29.0388   26.5488    0.6369 C   0  0  0  0  0  0  0  0  0  0  0  0
   31.1205   27.7948    0.1545 C   0  0  0  0  0  0  0  0  0  0  0  0
   31.8653   25.0488    2.5648 C   0  0  0  0  0  0  0  0  0  0  0  0
   33.0243   27.1247    5.4477 O   0  0  0  0  0  0  0  0  0  0  0  0
   29.7309   28.4633    2.1564 C   0  0  0  0  0  0  0  0  0  0  0  0
   31.1670   24.1682    3.3421 C   0  0  0  0  0  0  0  0  0  0  0  0
   35.6186   24.0752    6.2532 C   0  0  0  0  0  0  0  0  0  0  0  0
  1  9  1  0
  1 14  1  0
  2  3  1  0
  2  8  1  0
  3 22  1  0
  4  8  1  0
  4 13  1  0
  5 19  1  0
  5 22  1  0
  6 21  1  0
  6 25  1  0
  7 17  1  0
  8 11  2  0
  9 22  1  0
  9 29  1  0
 10 14  1  0
 10 27  1  0
 11 14  1  0
 11 30  1  0
 12 26  1  0
 13 30  1  0
 15 17  1  0
 15 24  1  0
 15 25  1  0
 15 28  1  0
 16 17  1  0
 17 20  1  0
 18 21  2  0
 18 23  1  0
 18 24  1  0
 19 23  2  0
 19 29  1  0
 21 26  1  0
 26 29  1  0
M  END
>  <ID>  (1) 
conformer_0

$$$$
