
     RDKit          3D

 28 34  0  0  0  0  0  0  0  0999 V2000
   32.8467   23.6764    5.5169 C   0  0  0  0  0  0  0  0  0  0  0  0
   29.4860   28.0821    1.6630 C   0  0  0  0  0  0  0  0  0  0  0  0
   30.9951   27.4688   -0.6652 C   0  0  0  0  0  0  0  0  0  0  0  0
   32.5616   25.0544    1.2868 C   0  0  0  0  0  0  0  0  0  0  0  0
   28.6562   26.9429   -0.2933 C   0  0  0  0  0  0  0  0  0  0  0  0
   35.3796   24.1082    5.4234 C   0  0  0  0  0  0  0  0  0  0  0  0
   33.6666   22.3468    3.6613 C   0  0  0  0  0  0  0  0  0  0  0  0
   27.7453   22.6925    3.1631 C   0  0  0  0  0  0  0  0  0  0  0  0
   33.1982   26.2120    4.1167 Cl  0  0  0  0  0  0  0  0  0  0  0  0
   29.0025   26.6555    1.1811 C   0  0  0  0  0  0  0  0  0  0  0  0
   31.4702   27.0980    0.7028 C   0  0  0  0  0  0  0  0  0  0  0  0
   33.8992   24.8629    3.6305 C   0  0  0  0  0  0  0  0  0  0  0  0
   35.1129   22.7776    3.3770 C   0  0  0  0  0  0  0  0  0  0  0  0
   30.3978   23.4670    3.1314 C   0  0  0  0  0  0  0  0  0  0  0  0
   29.5862   28.1542   -0.7327 C   0  0  0  0  0  0  0  0  0  0  0  0
   28.1505   23.6560    2.2668 C   0  0  0  0  0  0  0  0  0  0  0  0
   35.2582   24.2762    3.8700 C   0  0  0  0  0  0  0  0  0  0  0  0
   31.2358   25.7594    1.3974 C   0  0  0  0  0  0  0  0  0  0  0  0
   29.4501   24.1454    2.2981 C   0  0  0  0  0  0  0  0  0  0  0  0
   31.8246   23.6600    3.0368 C   0  0  0  0  0  0  0  0  0  0  0  0
   28.6389   22.1669    4.0785 C   0  0  0  0  0  0  0  0  0  0  0  0
   32.4257   23.5685    1.6524 C   0  0  0  0  0  0  0  0  0  0  0  0
   29.9464   22.5495    4.0453 C   0  0  0  0  0  0  0  0  0  0  0  0
   34.2410   23.2739    6.0434 C   0  0  0  0  0  0  0  0  0  0  0  0
   31.0590   28.1300    1.7925 C   0  0  0  0  0  0  0  0  0  0  0  0
   32.9031   23.6495    4.0037 C   0  0  0  0  0  0  0  0  0  0  0  0
   29.7745   25.4037    1.5191 C   0  0  0  0  0  0  0  0  0  0  0  0
   29.3961   29.0301    0.4370 O   0  0  0  0  0  0  0  0  0  0  0  0
  1 24  1  0
  1 26  1  0
  2 10  1  0
  2 25  1  0
  2 28  1  0
  3 11  1  0
  3 15  1  0
  4 18  1  0
  4 22  1  0
  5 10  1  0
  5 15  1  0
  6 17  1  0
  6 24  1  0
  7 13  1  0
  7 26  1  0
  8 16  2  0
  8 21  1  0
  9 12  1  0
 10 27  1  0
 11 18  1  0
 11 25  1  0
 12 17  1  0
 12 26  1  0
 13 17  1  0
 14 19  1  0
 14 20  1  0
 14 23  1  0
 15 28  1  0
 16 19  1  0
 18 27  1  0
 19 27  1  0
 20 22  1  0
 20 26  1  0
 21 23  2  0
M  END
>  <ID>  (1) 
conformer_0

$$$$
