
     RDKit          3D

 31 35  0  0  0  0  0  0  0  0999 V2000
   31.9241   27.7281    5.5195 C   0  0  0  0  0  0  0  0  0  0  0  0
   27.9229   28.3967    0.1502 C   0  0  0  0  0  0  0  0  0  0  0  0
   32.8948   23.6893    4.3208 C   0  0  0  0  0  0  0  0  0  0  0  0
   34.4862   22.4142    7.4735 C   0  0  0  0  0  0  0  0  0  0  0  0
   31.3262   21.4868    4.7406 C   0  0  0  0  0  0  0  0  0  0  0  0
   35.2138   24.2892    6.1796 C   0  0  0  0  0  0  0  0  0  0  0  0
   29.8393   28.0396   -1.8413 C   0  0  0  0  0  0  0  0  0  0  0  0
   26.7091   29.8183   -1.3022 O   0  0  0  0  0  0  0  0  0  0  0  0
   31.7285   26.9088    4.4661 C   0  0  0  0  0  0  0  0  0  0  0  0
   29.2745   27.0590    1.6560 C   0  0  0  0  0  0  0  0  0  0  0  0
   32.7105   20.9076    6.6134 O   0  0  0  0  0  0  0  0  0  0  0  0
   30.0623   28.4278    4.3322 O   0  0  0  0  0  0  0  0  0  0  0  0
   31.0120   22.4146    3.7195 C   0  0  0  0  0  0  0  0  0  0  0  0
   30.1863   26.6405    2.5185 C   0  0  0  0  0  0  0  0  0  0  0  0
   32.4346   21.7707    5.6055 C   0  0  0  0  0  0  0  0  0  0  0  0
   29.0894   27.6648    0.3990 C   0  0  0  0  0  0  0  0  0  0  0  0
   33.7035   21.2059    7.4940 C   0  0  0  0  0  0  0  0  0  0  0  0
   31.6986   24.2471    2.2673 C   0  0  0  0  0  0  0  0  0  0  0  0
   30.8964   28.7817    5.4771 C   0  0  0  0  0  0  0  0  0  0  0  0
   31.0555   25.5447    2.1948 N   0  0  0  0  0  0  0  0  0  0  0  0
   31.3585   23.5348    1.1201 O   0  0  0  0  0  0  0  0  0  0  0  0
   30.6666   27.2701    3.6994 C   0  0  0  0  0  0  0  0  0  0  0  0
   33.1502   24.8741    1.9086 C   0  0  0  0  0  0  0  0  0  0  0  0
   33.2243   22.9242    5.4093 C   0  0  0  0  0  0  0  0  0  0  0  0
   34.5710   25.5888    5.8335 C   0  0  0  0  0  0  0  0  0  0  0  0
   34.2747   23.1835    6.3051 N   0  0  0  0  0  0  0  0  0  0  0  0
   31.8795   23.4592    3.4946 C   0  0  0  0  0  0  0  0  0  0  0  0
   27.7626   29.0101   -1.0896 C   0  0  0  0  0  0  0  0  0  0  0  0
   30.0337   27.5128   -0.6154 C   0  0  0  0  0  0  0  0  0  0  0  0
   32.3134   26.1132    1.4520 C   0  0  0  0  0  0  0  0  0  0  0  0
   28.6943   28.8293   -2.1205 C   0  0  0  0  0  0  0  0  0  0  0  0
  1  9  1  0
  1 19  1  0
  2 16  2  0
  2 28  1  0
  3 24  2  0
  3 27  1  0
  4 17  1  0
  4 26  1  0
  5 13  1  0
  5 15  2  0
  6 25  1  0
  6 26  1  0
  7 29  2  0
  7 31  1  0
  8 28  1  0
  9 22  1  0
 10 14  1  0
 10 16  1  0
 11 15  1  0
 11 17  1  0
 12 19  1  0
 12 22  1  0
 13 27  2  0
 14 20  1  0
 14 22  2  3
 15 24  1  0
 16 29  1  0
 18 20  1  0
 18 21  1  0
 18 23  1  0
 18 27  1  0
 20 30  1  0
 23 30  1  0
 24 26  1  0
 28 31  2  0
M  END
>  <ID>  (1) 
conformer_0

$$$$
