
     RDKit          3D

 19 20  0  0  0  0  0  0  0  0999 V2000
   30.7435   22.9298    1.2069 C   0  0  0  0  0  0  0  0  0  0  0  0
   32.5443   23.6771    3.9230 C   0  0  0  0  0  0  0  0  0  0  0  0
   35.5395   22.9495    4.0412 C   0  0  0  0  0  0  0  0  0  0  0  0
   33.6881   24.6385    4.2469 C   0  0  0  0  0  0  0  0  0  0  0  0
   29.3001   27.4336   -0.3355 C   0  0  0  0  0  0  0  0  0  0  0  0
   33.5690   22.3772    5.6401 C   0  0  0  0  0  0  0  0  0  0  0  0
   32.0625   25.4748    2.3407 C   0  0  0  0  0  0  0  0  0  0  0  0
   35.1466   24.3331    4.5328 C   0  0  0  0  0  0  0  0  0  0  0  0
   34.4523   21.9153    4.3765 C   0  0  0  0  0  0  0  0  0  0  0  0
   32.1451   22.8471    5.1179 C   0  0  0  0  0  0  0  0  0  0  0  0
   30.3681   23.3750    2.6424 C   0  0  0  0  0  0  0  0  0  0  0  0
   33.2967   26.0438    4.8572 C   0  0  0  0  0  0  0  0  0  0  0  0
   31.4749   27.3968    0.8885 C   0  0  0  0  0  0  0  0  0  0  0  0
   29.6443   25.5733    1.2528 C   0  0  0  0  0  0  0  0  0  0  0  0
   28.6540   27.6207    2.2279 C   0  0  0  0  0  0  0  0  0  0  0  0
   31.1094   26.0269    1.4038 C   0  0  0  0  0  0  0  0  0  0  0  0
   28.7639   26.7639    0.9607 C   0  0  0  0  0  0  0  0  0  0  0  0
   31.4394   24.3746    3.2299 C   0  0  0  0  0  0  0  0  0  0  0  0
   30.8145   27.6681   -0.4462 C   0  0  0  0  0  0  0  0  0  0  0  0
  1 11  1  0
  2  4  1  0
  2 10  1  0
  2 18  1  0
  3  8  1  0
  3  9  1  0
  4  8  1  0
  4 12  1  0
  5 17  1  0
  5 19  1  0
  6  9  1  0
  6 10  1  0
  7 16  1  0
  7 18  1  0
 11 18  1  0
 13 16  1  0
 13 19  1  0
 14 16  1  0
 14 17  1  0
 15 17  1  0
M  END
>  <ID>  (1) 
conformer_0

$$$$
