
     RDKit          3D

 23 25  0  0  0  0  0  0  0  0999 V2000
   29.9255   27.2874    0.5578 C   0  0  0  0  0  0  0  0  0  0  0  0
   30.5626   26.6528    4.3495 C   0  0  0  0  0  0  0  0  0  0  0  0
   29.5918   25.8031    0.1164 C   0  0  0  0  0  0  0  0  0  0  0  0
   29.9497   27.1022    3.0891 C   0  0  0  0  0  0  0  0  0  0  0  0
   32.2776   23.1715    4.3328 C   0  0  0  0  0  0  0  0  0  0  0  0
   31.3285   25.3942    4.2809 C   0  0  0  0  0  0  0  0  0  0  0  0
   31.7546   25.0122    2.8498 C   0  0  0  0  0  0  0  0  0  0  0  0
   30.9189   27.8827   -0.5053 C   0  0  0  0  0  0  0  0  0  0  0  0
   28.6047   28.0255    0.2836 C   0  0  0  0  0  0  0  0  0  0  0  0
   34.9404   24.3360    4.2427 O   0  0  0  0  0  0  0  0  0  0  0  0
   29.9459   28.7310    5.4968 C   0  0  0  0  0  0  0  0  0  0  0  0
   30.7470   24.9043    0.4410 C   0  0  0  0  0  0  0  0  0  0  0  0
   31.8504   24.3797    5.2221 C   0  0  0  0  0  0  0  0  0  0  0  0
   32.3141   27.9436    5.5234 C   0  0  0  0  0  0  0  0  0  0  0  0
   32.7709   23.8270    3.0118 C   0  0  0  0  0  0  0  0  0  0  0  0
   30.7553   27.1553    1.8304 C   0  0  0  0  0  0  0  0  0  0  0  0
   30.8859   27.6897    5.3012 C   0  0  0  0  0  0  0  0  0  0  0  0
   32.3014   26.4929    2.1047 S   0  0  0  0  0  0  0  0  0  0  0  0
   34.1147   24.4868    3.3129 C   0  0  0  0  0  0  0  0  0  0  0  0
   29.9576   23.2152    2.0016 C   0  0  0  0  0  0  0  0  0  0  0  0
   31.7250   24.7376    6.4744 O   0  0  0  0  0  0  0  0  0  0  0  0
   30.6861   24.4916    1.9352 C   0  0  0  0  0  0  0  0  0  0  0  0
   28.8538   27.6826    3.0741 O   0  0  0  0  0  0  0  0  0  0  0  0
  1  3  1  0
  1  8  1  0
  1  9  1  0
  1 16  1  0
  2  4  1  0
  2  6  1  0
  2 17  1  0
  3 12  1  0
  4 16  1  0
  4 23  2  0
  5 13  1  0
  5 15  1  0
  6  7  1  0
  6 13  2  0
  7 15  1  0
  7 18  1  0
  7 22  1  0
 10 19  2  0
 11 17  1  0
 12 22  1  0
 13 21  1  0
 14 17  1  0
 15 19  1  0
 16 18  1  0
 20 22  1  0
M  END
>  <ID>  (1) 
conformer_0

$$$$
