
     RDKit          3D

 15 14  0  0  0  0  0  0  0  0999 V2000
   34.2562   23.9472    3.3971 C   0  0  0  0  0  0  0  0  0  0  0  0
   31.8841   26.6266    2.7138 C   0  0  0  0  0  0  0  0  0  0  0  0
   30.1470   25.9177    0.6148 C   0  0  0  0  0  0  0  0  0  0  0  0
   30.3459   24.5635    1.2322 C   0  0  0  0  0  0  0  0  0  0  0  0
   33.2811   22.9370    2.9232 C   0  0  0  0  0  0  0  0  0  0  0  0
   28.9641   26.7051    1.1210 C   0  0  0  0  0  0  0  0  0  0  0  0
   32.5031   27.2484    3.7259 N   0  0  0  0  0  0  0  0  0  0  0  0
   31.5194   24.3044    1.9528 N   0  0  0  0  0  0  0  0  0  0  0  0
   30.8767   22.6604    3.7186 C   0  0  0  0  0  0  0  0  0  0  0  0
   31.8423   23.2026    2.7063 C   0  0  0  0  0  0  0  0  0  0  0  0
   31.8924   27.4352    4.9476 C   0  0  0  0  0  0  0  0  0  0  0  0
   35.5577   23.3952    3.7139 C   0  0  0  0  0  0  0  0  0  0  0  0
   29.0436   23.7159    1.3167 C   0  0  0  0  0  0  0  0  0  0  0  0
   31.1934   26.7767   -0.0715 C   0  0  0  0  0  0  0  0  0  0  0  0
   32.3838   25.4013    1.9950 C   0  0  0  0  0  0  0  0  0  0  0  0
  1  5  1  0
  1 12  1  0
  2  7  1  0
  2 15  1  0
  3  4  1  0
  3  6  1  0
  3 14  1  0
  4  8  1  0
  4 13  1  0
  5 10  1  0
  7 11  1  0
  8 10  1  0
  8 15  1  0
  9 10  1  0
M  END
>  <ID>  (1) 
conformer_0

$$$$
