
     RDKit          3D

 29 31  0  0  0  0  0  0  0  0999 V2000
   31.1613   27.7973   -1.2257 C   0  0  0  0  0  0  0  0  0  0  0  0
   29.1613   24.5417    1.7781 C   0  0  0  0  0  0  0  0  0  0  0  0
   30.5637   24.0833    4.7647 N   0  0  0  0  0  0  0  0  0  0  0  0
   32.5247   27.9480    0.9203 C   0  0  0  0  0  0  0  0  0  0  0  0
   33.1247   23.2638    7.2398 C   0  0  0  0  0  0  0  0  0  0  0  0
   32.7930   23.7105    4.5561 C   0  0  0  0  0  0  0  0  0  0  0  0
   31.6903   23.6974    5.4218 N   0  0  0  0  0  0  0  0  0  0  0  0
   30.0530   26.6279    2.6605 C   0  0  0  0  0  0  0  0  0  0  0  0
   35.6260   23.4011    7.0340 C   0  0  0  0  0  0  0  0  0  0  0  0
   31.8142   23.4336    6.7442 C   0  0  0  0  0  0  0  0  0  0  0  0
   33.1154   24.2160    2.0092 C   0  0  0  0  0  0  0  0  0  0  0  0
   29.3920   23.2374    1.5507 O   0  0  0  0  0  0  0  0  0  0  0  0
   29.8574   28.3510   -0.7306 C   0  0  0  0  0  0  0  0  0  0  0  0
   34.0785   23.4014    5.0155 C   0  0  0  0  0  0  0  0  0  0  0  0
   35.3396   21.9658    3.6372 O   0  0  0  0  0  0  0  0  0  0  0  0
   32.3250   24.1561    3.3010 C   0  0  0  0  0  0  0  0  0  0  0  0
   30.0572   25.2088    2.6367 C   0  0  0  0  0  0  0  0  0  0  0  0
   29.0771   29.6247    1.2647 O   0  0  0  0  0  0  0  0  0  0  0  0
   30.6648   27.3588    3.8619 C   0  0  0  0  0  0  0  0  0  0  0  0
   34.2199   23.3277    6.4103 C   0  0  0  0  0  0  0  0  0  0  0  0
   29.8869   28.5997    0.8966 S   0  0  0  0  0  4  0  0  0  0  0  0
   30.9377   24.4532    3.5377 C   0  0  0  0  0  0  0  0  0  0  0  0
   31.4535   28.8838    1.3369 C   0  0  0  0  0  0  0  0  0  0  0  0
   35.2225   23.1538    4.1032 C   0  0  0  0  0  0  0  0  0  0  0  0
   29.3627   27.2448    1.6139 C   0  0  0  0  0  0  0  0  0  0  0  0
   35.9690   24.1570    3.8751 O   0  0  0  0  0  0  0  0  0  0  0  0
   28.2370   26.5840    1.0739 C   0  0  0  0  0  0  0  0  0  0  0  0
   28.1121   25.1902    1.1501 C   0  0  0  0  0  0  0  0  0  0  0  0
   32.3999   23.8232    0.8059 C   0  0  0  0  0  0  0  0  0  0  0  0
  1 13  1  0
  2 12  1  0
  2 17  1  0
  2 28  1  0
  3  7  1  0
  3 22  1  0
  4 23  1  0
  5 10  2  0
  5 20  1  0
  6  7  1  0
  6 14  1  0
  6 16  2  0
  7 10  1  0
  8 17  1  0
  8 19  1  0
  8 25  1  0
  9 20  1  0
 11 16  1  0
 11 29  1  0
 13 21  1  0
 14 20  1  0
 14 24  1  0
 15 24  2  0
 16 22  1  0
 17 22  1  0
 18 21  1  0
 21 23  1  0
 21 25  1  0
 24 26  1  0
 25 27  1  0
 27 28  2  0
M  END
>  <ID>  (1) 
conformer_0

$$$$
