
     RDKit          3D

 33 39  0  0  0  0  0  0  0  0999 V2000
   30.4440   27.6324   -0.9838 C   0  0  0  0  0  0  0  0  0  0  0  0
   34.2050   22.4923    6.0755 C   0  0  0  0  0  0  0  0  0  0  0  0
   33.5458   23.7430    4.2082 C   0  0  0  0  0  0  0  0  0  0  0  0
   32.6015   25.0177    2.3870 O   0  0  0  0  0  0  0  0  0  0  0  0
   31.8934   22.0630    4.9823 C   0  0  0  0  0  0  0  0  0  0  0  0
   31.4659   27.5547    3.5037 C   0  0  0  0  0  0  0  0  0  0  0  0
   34.7043   23.6918    6.7764 N   0  0  0  0  0  0  0  0  0  0  0  0
   29.8586   28.7579   -1.2734 N   0  0  0  0  0  0  0  0  0  0  0  0
   35.7217   23.8387    4.6089 C   0  0  0  0  0  0  0  0  0  0  0  0
   34.8761   21.6189    3.9356 O   0  0  0  0  0  0  0  0  0  0  0  0
   34.6523   22.7615    4.6163 C   0  0  0  0  0  0  0  0  0  0  0  0
   32.9041   21.7563    5.9137 O   0  0  0  0  0  0  0  0  0  0  0  0
   31.2492   27.6263    0.2295 C   0  0  0  0  0  0  0  0  0  0  0  0
   30.4475   22.0169    4.8291 C   0  0  0  0  0  0  0  0  0  0  0  0
   28.9758   27.9763   -0.5085 C   0  0  0  0  0  0  0  0  0  0  0  0
   29.6627   25.8753    0.7952 C   0  0  0  0  0  0  0  0  0  0  0  0
   29.7797   24.7612    1.7840 C   0  0  0  0  0  0  0  0  0  0  0  0
   32.3036   23.0909    4.0259 C   0  0  0  0  0  0  0  0  0  0  0  0
   31.3053   28.0251    4.7729 C   0  0  0  0  0  0  0  0  0  0  0  0
   29.1804   27.9501    2.9965 C   0  0  0  0  0  0  0  0  0  0  0  0
   29.0199   28.5112    4.2477 C   0  0  0  0  0  0  0  0  0  0  0  0
   30.4211   27.4442    2.5920 C   0  0  0  0  0  0  0  0  0  0  0  0
   28.5394   26.5791    0.0741 C   0  0  0  0  0  0  0  0  0  0  0  0
   30.0917   28.5273    5.1505 C   0  0  0  0  0  0  0  0  0  0  0  0
   28.8811   23.6121    1.4324 C   0  0  0  0  0  0  0  0  0  0  0  0
   27.9711   28.8482   -0.1647 O   0  0  0  0  0  0  0  0  0  0  0  0
   33.6224   24.0526    2.7793 C   0  0  0  0  0  0  0  0  0  0  0  0
   30.6307   26.8729    1.2482 C   0  0  0  0  0  0  0  0  0  0  0  0
   35.0869   24.7413    5.7176 C   0  0  0  0  0  0  0  0  0  0  0  0
   31.2313   23.3516    3.1467 C   0  0  0  0  0  0  0  0  0  0  0  0
   31.2061   24.5317    2.2975 C   0  0  0  0  0  0  0  0  0  0  0  0
   30.0955   22.6999    3.6007 O   0  0  0  0  0  0  0  0  0  0  0  0
   33.7286   24.9657    5.0679 C   0  0  0  0  0  0  0  0  0  0  0  0
  1  8  1  0
  1 13  1  0
  2  7  1  0
  2 11  1  0
  2 12  1  0
  3 11  1  0
  3 18  1  0
  3 27  1  0
  3 33  1  0
  4 27  1  0
  4 31  1  0
  5 12  1  0
  5 14  1  0
  5 18  1  0
  6 19  2  0
  6 22  1  0
  7 29  1  0
  8 15  1  0
  9 11  1  0
  9 29  1  0
 10 11  1  0
 13 28  1  0
 14 32  1  0
 15 23  1  0
 15 26  2  0
 16 17  1  0
 16 23  1  0
 16 28  1  0
 17 25  1  0
 17 31  1  0
 18 30  2  0
 19 24  1  0
 20 21  1  0
 20 22  2  0
 21 24  2  0
 22 28  1  0
 29 33  1  0
 30 31  1  0
 30 32  1  0
M  END
>  <ID>  (1) 
conformer_0

$$$$
