
     RDKit          3D

 17 18  0  0  0  0  0  0  0  0999 V2000
   31.8446   26.0547    2.9317 C   0  0  0  0  0  0  0  0  0  0  0  0
   31.1133   24.2985    1.2074 C   0  0  0  0  0  0  0  0  0  0  0  0
   32.2919   23.3710    1.5524 C   0  0  0  0  0  0  0  0  0  0  0  0
   30.9383   26.9785    3.6985 C   0  0  0  0  0  0  0  0  0  0  0  0
   33.0081   26.1239    5.2312 C   0  0  0  0  0  0  0  0  0  0  0  0
   30.7431   26.7983    0.8653 C   0  0  0  0  0  0  0  0  0  0  0  0
   32.9612   25.6132    3.8349 C   0  0  0  0  0  0  0  0  0  0  0  0
   29.7509   23.5921    1.3425 C   0  0  0  0  0  0  0  0  0  0  0  0
   34.8264   24.0528    4.4956 C   0  0  0  0  0  0  0  0  0  0  0  0
   35.1595   25.0412    5.5464 O   0  0  0  0  0  0  0  0  0  0  0  0
   31.5819   27.4841    0.0445 O   0  0  0  0  0  0  0  0  0  0  0  0
   33.9299   25.4640    6.2197 C   0  0  0  0  0  0  0  0  0  0  0  0
   28.3635   27.4104    0.8241 C   0  0  0  0  0  0  0  0  0  0  0  0
   31.1995   25.6762    1.6528 C   0  0  0  0  0  0  0  0  0  0  0  0
   29.6825   27.3813    3.0127 C   0  0  0  0  0  0  0  0  0  0  0  0
   29.6761   27.6208    1.5398 C   0  0  0  0  0  0  0  0  0  0  0  0
   34.0800   24.7683    3.4125 C   0  0  0  0  0  0  0  0  0  0  0  0
  1  4  2  0
  1  7  1  0
  1 14  1  0
  2  3  1  0
  2  8  1  0
  2 14  1  0
  4 15  1  0
  5  7  1  0
  5 12  1  0
  6 11  1  0
  6 14  1  0
  6 16  1  0
  7 17  1  0
  9 10  1  0
  9 17  1  0
 10 12  1  0
 13 16  1  0
 15 16  1  0
M  END
>  <ID>  (1) 
conformer_0

$$$$
