
     RDKit          3D

 24 24  0  0  0  0  0  0  0  0999 V2000
   29.3575   26.8088   -0.0758 C   0  0  0  0  0  0  0  0  0  0  0  0
   34.1696   22.2297    3.4854 C   0  0  0  0  0  0  0  0  0  0  0  0
   29.0746   25.5324    0.6054 C   0  0  0  0  0  0  0  0  0  0  0  0
   32.7935   26.8686    6.0178 O   0  0  0  0  0  0  0  0  0  0  0  0
   33.8806   24.9373    5.0824 C   0  0  0  0  0  0  0  0  0  0  0  0
   30.5897   27.2442    2.0418 C   0  0  0  0  0  0  0  0  0  0  0  0
   32.9228   24.4555    4.1039 C   0  0  0  0  0  0  0  0  0  0  0  0
   32.1228   25.1724    3.0217 C   0  0  0  0  0  0  0  0  0  0  0  0
   32.9370   22.9458    3.8348 C   0  0  0  0  0  0  0  0  0  0  0  0
   31.6840   22.1192    3.9592 C   0  0  0  0  0  0  0  0  0  0  0  0
   29.4196   24.6488    2.9113 C   0  0  0  0  0  0  0  0  0  0  0  0
   31.5677   24.2128    1.9951 C   0  0  0  0  0  0  0  0  0  0  0  0
   29.7641   23.3142    0.6542 C   0  0  0  0  0  0  0  0  0  0  0  0
   32.0715   26.9338    4.8111 C   0  0  0  0  0  0  0  0  0  0  0  0
   30.1107   24.6770    1.4614 C   0  0  0  0  0  0  0  0  0  0  0  0
   35.3548   24.6347    4.7512 C   0  0  0  0  0  0  0  0  0  0  0  0
   31.3379   28.2054    4.5730 C   0  0  0  0  0  0  0  0  0  0  0  0
   31.4502   28.3033   -0.1093 C   0  0  0  0  0  0  0  0  0  0  0  0
   31.9338   26.5924    2.2975 C   0  0  0  0  0  0  0  0  0  0  0  0
   32.5517   23.7247    0.9937 C   0  0  0  0  0  0  0  0  0  0  0  0
   33.6684   25.7713    6.2431 C   0  0  0  0  0  0  0  0  0  0  0  0
   31.1593   28.8030    5.6995 O   0  0  0  0  0  0  0  0  0  0  0  0
   30.3540   27.6700    0.6084 C   0  0  0  0  0  0  0  0  0  0  0  0
   29.4003   27.6542    2.8876 C   0  0  0  0  0  0  0  0  0  0  0  0
  1  3  1  0
  1 23  1  0
  2  9  1  0
  3 15  1  0
  4 14  1  0
  4 21  1  0
  5  7  1  0
  5 16  1  0
  5 21  1  0
  6 19  1  0
  6 23  1  0
  6 24  1  0
  7  8  1  0
  7  9  1  0
  8 12  1  0
  8 19  1  0
  9 10  1  0
 11 15  1  0
 12 15  1  0
 12 20  1  0
 13 15  1  0
 14 17  1  0
 17 22  1  0
 18 23  1  0
M  END
>  <ID>  (1) 
conformer_0

$$$$
