
     RDKit          3D

 25 27  0  0  0  0  0  0  0  0999 V2000
   35.1951   24.0975    6.2226 C   0  0  0  0  0  0  0  0  0  0  0  0
   29.4560   29.2556    0.0365 C   0  0  0  0  0  0  0  0  0  0  0  0
   28.6615   23.6010    1.4039 C   0  0  0  0  0  0  0  0  0  0  0  0
   30.6176   27.2539    0.2603 C   0  0  0  0  0  0  0  0  0  0  0  0
   28.7772   26.9767    1.8951 C   0  0  0  0  0  0  0  0  0  0  0  0
   32.7517   27.9796    6.0507 C   0  0  0  0  0  0  0  0  0  0  0  0
   31.9004   25.4787    1.5827 C   0  0  0  0  0  0  0  0  0  0  0  0
   29.9929   23.9563    1.8205 C   0  0  0  0  0  0  0  0  0  0  0  0
   32.8864   25.1238    2.2416 C   0  0  0  0  0  0  0  0  0  0  0  0
   30.4211   28.3977   -0.3084 C   0  0  0  0  0  0  0  0  0  0  0  0
   34.5591   23.7773    5.0431 C   0  0  0  0  0  0  0  0  0  0  0  0
   31.4602   27.8908    5.2741 C   0  0  0  0  0  0  0  0  0  0  0  0
   32.8510   24.1712    3.2907 C   0  0  0  0  0  0  0  0  0  0  0  0
   28.1357   28.1396    1.7978 N   0  0  0  0  0  0  0  0  0  0  0  0
   33.4753   26.6728    6.0133 C   0  0  0  0  0  0  0  0  0  0  0  0
   31.9408   23.1017    3.1854 C   0  0  0  0  0  0  0  0  0  0  0  0
   30.7612   22.9936    2.4815 C   0  0  0  0  0  0  0  0  0  0  0  0
   34.3513   26.2937    7.0879 C   0  0  0  0  0  0  0  0  0  0  0  0
   29.8789   26.5513    1.1966 C   0  0  0  0  0  0  0  0  0  0  0  0
   33.6046   24.6164    4.4491 C   0  0  0  0  0  0  0  0  0  0  0  0
   30.5234   25.2509    1.5362 C   0  0  0  0  0  0  0  0  0  0  0  0
   33.3112   25.8756    4.9307 C   0  0  0  0  0  0  0  0  0  0  0  0
   35.0746   25.1275    7.0918 C   0  0  0  0  0  0  0  0  0  0  0  0
   28.4450   29.1751    0.9347 C   0  0  0  0  0  0  0  0  0  0  0  0
   27.5857   30.2111    0.9915 F   0  0  0  0  0  0  0  0  0  0  0  0
  1 11  1  0
  1 23  2  0
  2 10  1  0
  2 24  2  0
  3  8  1  0
  4 10  2  0
  4 19  1  0
  5 14  2  0
  5 19  1  0
  6 12  1  0
  6 15  1  0
  7  9  2  0
  7 21  1  0
  8 17  1  0
  8 21  1  0
  9 13  1  0
 11 20  2  0
 13 16  1  0
 13 20  1  0
 14 24  1  0
 15 18  1  0
 15 22  2  0
 16 17  2  0
 18 23  1  0
 19 21  1  0
 20 22  1  0
 24 25  1  0
M  END
>  <ID>  (1) 
conformer_0

$$$$
