
     RDKit          3D

 27 27  0  0  0  0  0  0  0  0999 V2000
   34.8204   23.2127    3.7347 C   0  0  0  0  0  0  0  0  0  0  0  0
   31.4617   28.3150    1.9803 C   0  0  0  0  0  0  0  0  0  0  0  0
   28.4533   27.5259    1.7068 C   0  0  0  0  0  0  0  0  0  0  0  0
   30.5903   22.1902    4.5672 O   0  0  0  0  0  0  0  0  0  0  0  0
   27.2802   28.4990    3.4875 C   0  0  0  0  0  0  0  0  0  0  0  0
   32.1494   25.4805    0.8660 C   0  0  0  0  0  0  0  0  0  0  0  0
   32.1260   24.1097    4.6119 C   0  0  0  0  0  0  0  0  0  0  0  0
   31.0463   27.9413   -0.6272 C   0  0  0  0  0  0  0  0  0  0  0  0
   31.2029   23.6787    2.3328 C   0  0  0  0  0  0  0  0  0  0  0  0
   30.6630   22.9299    1.1370 C   0  0  0  0  0  0  0  0  0  0  0  0
   29.6727   25.4836    1.3963 C   0  0  0  0  0  0  0  0  0  0  0  0
   29.5173   26.9051    1.0436 C   0  0  0  0  0  0  0  0  0  0  0  0
   33.7401   25.8799    3.0368 C   0  0  0  0  0  0  0  0  0  0  0  0
   32.7706   24.9255    3.6293 C   0  0  0  0  0  0  0  0  0  0  0  0
   27.2009   27.6421    1.0345 C   0  0  0  0  0  0  0  0  0  0  0  0
   33.4907   22.6074    3.2195 C   0  0  0  0  0  0  0  0  0  0  0  0
   30.9028   23.3847    5.1789 C   0  0  0  0  0  0  0  0  0  0  0  0
   26.6104   29.4878    3.0416 O   0  0  0  0  0  0  0  0  0  0  0  0
   32.3751   23.5963    3.2433 C   0  0  0  0  0  0  0  0  0  0  0  0
   30.7011   27.8113    0.7961 C   0  0  0  0  0  0  0  0  0  0  0  0
   31.0408   25.1736    1.9364 C   0  0  0  0  0  0  0  0  0  0  0  0
   34.2444   24.8559    5.6421 C   0  0  0  0  0  0  0  0  0  0  0  0
   33.7345   26.0813    5.9309 O   0  0  0  0  0  0  0  0  0  0  0  0
   28.6607   28.2453    2.9409 C   0  0  0  0  0  0  0  0  0  0  0  0
   33.1719   23.7800    5.6381 C   0  0  0  0  0  0  0  0  0  0  0  0
   33.3152   22.4820    6.1275 C   0  0  0  0  0  0  0  0  0  0  0  0
   35.2855   24.4718    4.5950 C   0  0  0  0  0  0  0  0  0  0  0  0
  1 16  1  0
  1 27  1  0
  2 20  1  0
  3 12  1  0
  3 15  1  0
  3 24  1  0
  4 17  1  0
  5 18  2  0
  5 24  1  0
  6 21  1  0
  7 14  1  0
  7 17  1  0
  7 25  1  0
  8 20  1  0
  9 10  1  0
  9 19  1  0
  9 21  1  0
 11 12  1  0
 11 21  1  0
 12 20  1  0
 13 14  1  0
 14 19  1  0
 16 19  1  0
 22 23  1  0
 22 25  1  0
 22 27  1  0
 25 26  1  0
M  END
>  <ID>  (1) 
conformer_0

$$$$
