
     RDKit          3D

 21 23  0  0  0  0  0  0  0  0999 V2000
   32.9379   23.8685    2.4605 C   0  0  0  0  0  0  0  0  0  0  0  0
   31.6349   26.1589    2.5944 C   0  0  0  0  0  0  0  0  0  0  0  0
   31.2438   27.2671    0.4188 C   0  0  0  0  0  0  0  0  0  0  0  0
   34.1332   23.2254    3.0206 C   0  0  0  0  0  0  0  0  0  0  0  0
   28.1802   23.7595    2.0281 C   0  0  0  0  0  0  0  0  0  0  0  0
   31.5769   27.2094    3.6165 C   0  0  0  0  0  0  0  0  0  0  0  0
   32.6452   27.5981    5.8891 C   0  0  0  0  0  0  0  0  0  0  0  0
   31.1005   25.9681    1.2089 C   0  0  0  0  0  0  0  0  0  0  0  0
   34.8979   24.1207    3.9220 C   0  0  0  0  0  0  0  0  0  0  0  0
   34.2244   25.0253    4.8694 C   0  0  0  0  0  0  0  0  0  0  0  0
   36.0582   23.6174    4.5007 N   0  0  0  0  0  0  0  0  0  0  0  0
   33.1235   25.6597    4.3106 C   0  0  0  0  0  0  0  0  0  0  0  0
   30.3272   23.0746    0.9784 O   0  0  0  0  0  0  0  0  0  0  0  0
   29.4268   24.0582    1.3267 C   0  0  0  0  0  0  0  0  0  0  0  0
   32.3705   26.7828    4.7350 C   0  0  0  0  0  0  0  0  0  0  0  0
   29.6825   25.4879    1.0137 C   0  0  0  0  0  0  0  0  0  0  0  0
   28.8858   26.8120    0.9031 C   0  0  0  0  0  0  0  0  0  0  0  0
   31.8726   28.7083    6.1165 O   0  0  0  0  0  0  0  0  0  0  0  0
   32.6906   25.2243    2.9872 C   0  0  0  0  0  0  0  0  0  0  0  0
   29.4635   28.4756   -0.8778 C   0  0  0  0  0  0  0  0  0  0  0  0
   29.8601   27.9648    0.4765 C   0  0  0  0  0  0  0  0  0  0  0  0
  1  4  1  0
  1 19  1  0
  2  6  1  0
  2  8  1  0
  2 19  1  0
  3  8  1  0
  3 21  1  0
  4  9  1  0
  5 14  1  0
  6 15  1  0
  7 15  1  0
  7 18  1  0
  8 16  1  0
  9 10  1  0
  9 11  1  0
 10 12  1  0
 12 15  2  0
 12 19  1  0
 13 14  1  0
 14 16  1  0
 16 17  1  0
 17 21  1  0
 20 21  1  0
M  END
>  <ID>  (1) 
conformer_0

$$$$
