
     RDKit          3D

 27 30  0  0  0  0  0  0  0  0999 V2000
   29.1749   23.2679    3.2140 C   0  0  0  0  0  0  0  0  0  0  0  0
   32.6184   24.0854    2.1076 O   0  0  0  0  0  0  0  0  0  0  0  0
   31.3053   27.3968    1.5319 C   0  0  0  0  0  0  0  0  0  0  0  0
   32.2901   26.7884    2.2905 N   0  0  0  0  0  0  0  0  0  0  0  0
   31.2276   23.7711    2.0662 C   0  0  0  0  0  0  0  0  0  0  0  0
   30.5476   23.8758    0.8272 C   0  0  0  0  0  0  0  0  0  0  0  0
   28.3015   29.4013   -0.4775 F   0  0  0  0  0  0  0  0  0  0  0  0
   31.3369   27.4356    0.1408 C   0  0  0  0  0  0  0  0  0  0  0  0
   29.9742   27.8504    3.6790 N   0  0  0  0  0  0  0  0  0  0  0  0
   32.9867   24.7627    3.2987 C   0  0  0  0  0  0  0  0  0  0  0  0
   34.3185   22.9494    4.3341 C   0  0  0  0  0  0  0  0  0  0  0  0
   30.1729   27.9668    2.2232 C   0  0  0  0  0  0  0  0  0  0  0  0
   29.2751   28.6690    0.1541 C   0  0  0  0  0  0  0  0  0  0  0  0
   29.1960   28.5810    1.5203 C   0  0  0  0  0  0  0  0  0  0  0  0
   32.7073   25.8968    5.8045 C   0  0  0  0  0  0  0  0  0  0  0  0
   35.3164   22.8261    3.2481 C   0  0  0  0  0  0  0  0  0  0  0  0
   30.2924   28.0776   -0.5593 C   0  0  0  0  0  0  0  0  0  0  0  0
   34.2972   22.0186    5.3656 C   0  0  0  0  0  0  0  0  0  0  0  0
   32.5551   26.6786    4.6965 N   0  0  0  0  0  0  0  0  0  0  0  0
   32.5833   26.1165    3.4265 C   0  0  0  0  0  0  0  0  0  0  0  0
   33.0098   23.6052    6.7243 C   0  0  0  0  0  0  0  0  0  0  0  0
   33.4544   24.0585    4.4135 C   0  0  0  0  0  0  0  0  0  0  0  0
   33.5793   22.3363    6.5624 C   0  0  0  0  0  0  0  0  0  0  0  0
   29.1585   23.7350    0.8574 C   0  0  0  0  0  0  0  0  0  0  0  0
   33.0618   24.5238    5.6885 C   0  0  0  0  0  0  0  0  0  0  0  0
   28.4719   23.4659    2.0138 C   0  0  0  0  0  0  0  0  0  0  0  0
   30.5360   23.4082    3.2174 C   0  0  0  0  0  0  0  0  0  0  0  0
  1 26  2  0
  1 27  1  0
  2  5  1  0
  2 10  1  0
  3  4  1  0
  3  8  2  0
  3 12  1  0
  4 20  1  0
  5  6  1  0
  5 27  2  0
  6 24  2  0
  7 13  1  0
  8 17  1  0
  9 12  1  0
 10 20  1  0
 10 22  1  0
 11 16  1  0
 11 18  2  0
 11 22  1  0
 12 14  2  0
 13 14  1  0
 13 17  2  0
 15 19  1  0
 15 25  2  0
 18 23  1  0
 19 20  2  0
 21 23  2  0
 21 25  1  0
 22 25  1  0
 24 26  1  0
M  END
>  <ID>  (1) 
conformer_0

$$$$
