
     RDKit          3D

 16 17  0  0  0  0  0  0  0  0999 V2000
   31.8550   27.4641    1.3274 N   0  0  0  0  0  0  0  0  0  0  0  0
   32.9742   24.0736    3.4370 C   0  0  0  0  0  0  0  0  0  0  0  0
   32.9838   24.6651    4.6799 C   0  0  0  0  0  0  0  0  0  0  0  0
   35.3281   24.2095    4.8778 C   0  0  0  0  0  0  0  0  0  0  0  0
   31.7574   24.0990    2.6435 C   0  0  0  0  0  0  0  0  0  0  0  0
   35.2858   23.5613    3.6454 C   0  0  0  0  0  0  0  0  0  0  0  0
   29.2020   25.0744    1.0290 C   0  0  0  0  0  0  0  0  0  0  0  0
   29.9207   27.7680   -0.2157 C   0  0  0  0  0  0  0  0  0  0  0  0
   31.5816   25.4333    2.0675 C   0  0  0  0  0  0  0  0  0  0  0  0
   31.1878   22.8415    2.3380 C   0  0  0  0  0  0  0  0  0  0  0  0
   28.5892   24.0525    1.8622 C   0  0  0  0  0  0  0  0  0  0  0  0
   32.3569   26.4778    2.1295 N   0  0  0  0  0  0  0  0  0  0  0  0
   34.1624   24.7754    5.4091 C   0  0  0  0  0  0  0  0  0  0  0  0
   30.7418   27.0414    0.7689 C   0  0  0  0  0  0  0  0  0  0  0  0
   34.1062   23.4823    2.9378 C   0  0  0  0  0  0  0  0  0  0  0  0
   30.5072   25.7453    1.3109 N   0  0  0  0  0  0  0  0  0  0  0  0
  1 12  1  0
  1 14  2  0
  2  3  2  0
  2  5  1  0
  2 15  1  0
  3 13  1  0
  4  6  1  0
  4 13  2  0
  5  9  1  0
  5 10  1  0
  6 15  2  0
  7 11  1  0
  7 16  1  0
  8 14  1  0
  9 12  2  0
  9 16  1  0
 14 16  1  0
M  END
>  <ID>  (1) 
conformer_0

$$$$
