
     RDKit          3D

 26 30  0  0  0  0  0  0  0  0999 V2000
   32.4330   23.3908    4.6852 C   0  0  0  0  0  0  0  0  0  0  0  0
   31.8147   24.0382    3.5350 C   0  0  0  0  0  0  0  0  0  0  0  0
   33.5028   23.9657    5.2667 C   0  0  0  0  0  0  0  0  0  0  0  0
   30.2011   22.9673    1.8785 C   0  0  0  0  0  0  0  0  0  0  0  0
   28.5330   28.8574   -0.5101 N   0  0  0  0  0  0  0  0  0  0  0  0
   32.1230   24.9337    2.4972 C   0  0  0  0  0  0  0  0  0  0  0  0
   31.3074   26.0336    4.9685 C   0  0  0  0  0  0  0  0  0  0  0  0
   31.5096   26.2118    1.8330 C   0  0  0  0  0  0  0  0  0  0  0  0
   34.1554   23.2481    6.3267 C   0  0  0  0  0  0  0  0  0  0  0  0
   30.8446   21.9689    4.1399 O   0  0  0  0  0  0  0  0  0  0  0  0
   30.8595   22.9993    3.2226 N   0  0  0  0  0  0  0  0  0  0  0  0
   30.1302   27.3497    0.2208 C   0  0  0  0  0  0  0  0  0  0  0  0
   31.8574   22.2402    5.0359 C   0  0  0  0  0  0  0  0  0  0  0  0
   33.7179   25.3415    4.5654 C   0  0  0  0  0  0  0  0  0  0  0  0
   30.8937   26.2372    0.5499 C   0  0  0  0  0  0  0  0  0  0  0  0
   30.8241   28.4716    2.2236 C   0  0  0  0  0  0  0  0  0  0  0  0
   29.2887   27.6281   -0.9058 C   0  0  0  0  0  0  0  0  0  0  0  0
   36.0804   24.6805    6.2816 C   0  0  0  0  0  0  0  0  0  0  0  0
   33.5512   22.0439    6.7633 C   0  0  0  0  0  0  0  0  0  0  0  0
   35.3074   23.6615    6.9343 O   0  0  0  0  0  0  0  0  0  0  0  0
   31.5520   27.3904    2.5510 C   0  0  0  0  0  0  0  0  0  0  0  0
   32.4091   25.4991    3.9271 C   0  0  0  0  0  0  0  0  0  0  0  0
   32.3992   21.5195    6.1527 C   0  0  0  0  0  0  0  0  0  0  0  0
   30.0645   28.3841    1.1020 C   0  0  0  0  0  0  0  0  0  0  0  0
   29.5224   27.6626   -2.3988 C   0  0  0  0  0  0  0  0  0  0  0  0
   29.0829   29.3555    0.7483 C   0  0  0  0  0  0  0  0  0  0  0  0
  1  2  1  0
  1  3  1  0
  1 13  2  0
  2  6  1  0
  2 11  1  0
  3  9  2  0
  3 14  1  0
  4 11  1  0
  5 17  1  0
  5 26  1  0
  6  8  1  0
  6 22  1  0
  7 22  1  0
  8 15  1  0
  8 21  2  0
  9 19  1  0
  9 20  1  0
 10 11  1  0
 10 13  1  0
 12 15  2  0
 12 17  1  0
 12 24  1  0
 13 23  1  0
 14 22  1  0
 16 21  1  0
 16 24  2  0
 17 25  1  0
 18 20  1  0
 19 23  2  0
 24 26  1  0
M  END
>  <ID>  (1) 
conformer_0

$$$$
