
     RDKit          3D

 22 24  0  0  0  0  0  0  0  0999 V2000
   28.7620   29.7715   -0.4827 C   0  0  0  0  0  0  0  0  0  0  0  0
   30.6390   21.5883    4.2460 C   0  0  0  0  0  0  0  0  0  0  0  0
   29.4696   29.0914    0.6940 C   0  0  0  0  0  0  0  0  0  0  0  0
   29.5909   27.6315    0.3163 C   0  0  0  0  0  0  0  0  0  0  0  0
   33.0317   24.1102    3.2274 C   0  0  0  0  0  0  0  0  0  0  0  0
   32.2182   24.9436    2.4363 C   0  0  0  0  0  0  0  0  0  0  0  0
   33.4293   26.1235    5.3046 O   0  0  0  0  0  0  0  0  0  0  0  0
   34.1264   25.0345    5.7224 C   0  0  0  0  0  0  0  0  0  0  0  0
   32.3977   23.0647    3.7871 N   0  0  0  0  0  0  0  0  0  0  0  0
   34.4528   24.2541    3.3943 C   0  0  0  0  0  0  0  0  0  0  0  0
   34.8040   24.0167    4.8478 C   0  0  0  0  0  0  0  0  0  0  0  0
   30.4888   26.6321    0.9652 C   0  0  0  0  0  0  0  0  0  0  0  0
   32.6719   26.0977    1.8467 C   0  0  0  0  0  0  0  0  0  0  0  0
   30.8798   24.5568    2.2067 C   0  0  0  0  0  0  0  0  0  0  0  0
   35.8224   23.3063    5.3488 O   0  0  0  0  0  0  0  0  0  0  0  0
   28.8037   28.7721   -1.5900 C   0  0  0  0  0  0  0  0  0  0  0  0
   31.8123   26.8932    1.1695 C   0  0  0  0  0  0  0  0  0  0  0  0
   30.4045   23.4159    2.7162 N   0  0  0  0  0  0  0  0  0  0  0  0
   30.0204   25.3917    1.4529 C   0  0  0  0  0  0  0  0  0  0  0  0
   34.6088   25.0331    7.0366 N   0  0  0  0  0  0  0  0  0  0  0  0
   29.9521   27.8639   -1.1694 C   0  0  0  0  0  0  0  0  0  0  0  0
   31.1590   22.7322    3.5411 C   0  0  0  0  0  0  0  0  0  0  0  0
  1  3  1  0
  1 16  1  0
  2 22  1  0
  3  4  1  0
  4 12  1  0
  4 21  1  0
  5  6  1  0
  5  9  2  0
  5 10  1  0
  6 13  1  0
  6 14  1  0
  7  8  2  0
  8 11  1  0
  8 20  1  0
  9 22  1  0
 10 11  1  0
 11 15  1  0
 12 17  1  0
 12 19  1  0
 13 17  2  0
 14 18  1  0
 14 19  2  0
 16 21  1  0
 18 22  2  0
M  END
>  <ID>  (1) 
conformer_0

$$$$
