
     RDKit          3D

 24 27  0  0  0  0  0  0  0  0999 V2000
   31.4479   22.7245    1.5342 C   0  0  0  0  0  0  0  0  0  0  0  0
   28.6303   24.9192    1.6718 F   0  0  0  0  0  0  0  0  0  0  0  0
   28.4794   28.8686    1.3088 N   0  0  0  0  0  0  0  0  0  0  0  0
   33.1138   26.4270    6.0738 C   0  0  0  0  0  0  0  0  0  0  0  0
   30.2207   23.3113    1.2934 C   0  0  0  0  0  0  0  0  0  0  0  0
   32.3075   23.3352    2.3880 C   0  0  0  0  0  0  0  0  0  0  0  0
   34.7452   24.7252    5.5861 C   0  0  0  0  0  0  0  0  0  0  0  0
   36.0431   24.0088    5.8995 C   0  0  0  0  0  0  0  0  0  0  0  0
   29.9366   27.6105    2.6845 N   0  0  0  0  0  0  0  0  0  0  0  0
   30.3501   27.8280    0.2615 C   0  0  0  0  0  0  0  0  0  0  0  0
   34.0264   24.3915    4.4639 C   0  0  0  0  0  0  0  0  0  0  0  0
   31.3179   26.8695    4.4449 O   0  0  0  0  0  0  0  0  0  0  0  0
   29.6088   28.1137    1.4196 C   0  0  0  0  0  0  0  0  0  0  0  0
   31.9455   27.2906    0.3453 Cl  0  0  0  0  0  0  0  0  0  0  0  0
   28.5931   28.7187   -1.1027 C   0  0  0  0  0  0  0  0  0  0  0  0
   30.8160   25.2113    2.6848 C   0  0  0  0  0  0  0  0  0  0  0  0
   27.9846   29.1761    0.0706 C   0  0  0  0  0  0  0  0  0  0  0  0
   29.9163   24.4798    1.8773 C   0  0  0  0  0  0  0  0  0  0  0  0
   32.0132   24.5374    3.0476 C   0  0  0  0  0  0  0  0  0  0  0  0
   30.6681   26.5680    3.2518 C   0  0  0  0  0  0  0  0  0  0  0  0
   34.2938   25.7344    6.4321 C   0  0  0  0  0  0  0  0  0  0  0  0
   29.8169   28.0175   -0.9657 C   0  0  0  0  0  0  0  0  0  0  0  0
   32.8424   25.0308    4.1039 C   0  0  0  0  0  0  0  0  0  0  0  0
   32.4213   26.1371    4.8903 C   0  0  0  0  0  0  0  0  0  0  0  0
  1  5  2  0
  1  6  1  0
  2 18  1  0
  3 13  2  0
  3 17  1  0
  4 21  1  0
  4 24  2  0
  5 18  1  0
  6 19  2  0
  7  8  1  0
  7 11  1  0
  7 21  2  0
  9 13  1  0
  9 20  1  0
 10 13  1  0
 10 14  1  0
 10 22  2  0
 11 23  2  0
 12 20  1  0
 12 24  1  0
 15 17  2  0
 15 22  1  0
 16 18  2  0
 16 19  1  0
 16 20  1  0
 19 23  1  0
 23 24  1  0
M  END
>  <ID>  (1) 
conformer_0

$$$$
