
     RDKit          3D

 30 34  0  0  0  0  0  0  0  0999 V2000
   34.2900   25.3179    6.5827 N   0  0  0  0  0  0  0  0  0  0  0  0
   31.5902   27.9854    1.8139 C   0  0  0  0  0  0  0  0  0  0  0  0
   27.3192   28.3484    1.2360 C   0  0  0  0  0  0  0  0  0  0  0  0
   30.0720   24.0440    1.9044 C   0  0  0  0  0  0  0  0  0  0  0  0
   34.5409   24.4355    5.5371 C   0  0  0  0  0  0  0  0  0  0  0  0
   29.0939   23.3814    2.5491 C   0  0  0  0  0  0  0  0  0  0  0  0
   27.8345   27.2876    1.9856 C   0  0  0  0  0  0  0  0  0  0  0  0
   33.1898   26.0635    6.3428 N   0  0  0  0  0  0  0  0  0  0  0  0
   31.4002   24.2006    2.3734 C   0  0  0  0  0  0  0  0  0  0  0  0
   32.0718   27.0466    2.7159 N   0  0  0  0  0  0  0  0  0  0  0  0
   30.7932   22.5871    4.1046 C   0  0  0  0  0  0  0  0  0  0  0  0
   29.4457   22.6417    3.6688 C   0  0  0  0  0  0  0  0  0  0  0  0
   33.1478   23.4201    3.8662 C   0  0  0  0  0  0  0  0  0  0  0  0
   33.4130   24.4733    4.7541 C   0  0  0  0  0  0  0  0  0  0  0  0
   32.3754   28.5445    1.0554 O   0  0  0  0  0  0  0  0  0  0  0  0
   35.6043   23.6349    5.2225 C   0  0  0  0  0  0  0  0  0  0  0  0
   32.3818   24.1696    1.0636 C   0  0  0  0  0  0  0  0  0  0  0  0
   29.1741   27.2317    2.2593 C   0  0  0  0  0  0  0  0  0  0  0  0
   27.8444   23.5156    2.0679 F   0  0  0  0  0  0  0  0  0  0  0  0
   28.1994   29.3143    0.7609 C   0  0  0  0  0  0  0  0  0  0  0  0
   29.5762   29.2035    0.9706 C   0  0  0  0  0  0  0  0  0  0  0  0
   34.2129   22.5663    3.5181 C   0  0  0  0  0  0  0  0  0  0  0  0
   32.0549   25.6201    2.3978 C   0  0  0  0  0  0  0  0  0  0  0  0
   32.2701   25.7419    0.8199 C   0  0  0  0  0  0  0  0  0  0  0  0
   34.7762   25.1882    7.9324 C   0  0  0  0  0  0  0  0  0  0  0  0
   31.4152   26.0923    4.9776 O   0  0  0  0  0  0  0  0  0  0  0  0
   30.1053   28.1354    1.6991 C   0  0  0  0  0  0  0  0  0  0  0  0
   31.7987   23.3082    3.4506 C   0  0  0  0  0  0  0  0  0  0  0  0
   35.4257   22.6800    4.1786 C   0  0  0  0  0  0  0  0  0  0  0  0
   32.5869   25.5835    5.2520 C   0  0  0  0  0  0  0  0  0  0  0  0
  1  5  1  0
  1  8  1  0
  1 25  1  0
  2 10  1  0
  2 15  2  0
  2 27  1  0
  3  7  1  0
  3 20  1  0
  4  6  2  0
  4  9  1  0
  5 14  1  0
  5 16  2  0
  6 12  1  0
  6 19  1  0
  7 18  2  0
  8 30  1  0
  9 17  1  0
  9 23  1  0
  9 28  1  0
 10 23  1  0
 11 12  2  0
 11 28  1  0
 13 14  1  0
 13 22  1  0
 13 28  1  0
 14 30  1  0
 16 29  1  0
 17 24  1  0
 18 27  1  0
 20 21  2  0
 21 27  1  0
 22 29  2  0
 23 24  1  0
 26 30  2  0
M  END
>  <ID>  (1) 
conformer_0

$$$$
