
     RDKit          3D

 31 35  0  0  0  0  0  0  0  0999 V2000
   28.5677   23.7400    2.1703 C   0  0  0  0  0  0  0  0  0  0  0  0
   30.4394   27.6306    0.4961 C   0  0  0  0  0  0  0  0  0  0  0  0
   32.4304   24.2075    1.2221 C   0  0  0  0  0  0  0  0  0  0  0  0
   33.7526   21.7489    5.8760 C   0  0  0  0  0  0  0  0  0  0  0  0
   32.4621   21.0273    5.8713 C   0  0  0  0  0  0  0  0  0  0  0  0
   30.7656   26.5272    3.1504 C   0  0  0  0  0  0  0  0  0  0  0  0
   30.9579   26.0918    4.4302 C   0  0  0  0  0  0  0  0  0  0  0  0
   30.7979   28.5316    1.6267 C   0  0  0  0  0  0  0  0  0  0  0  0
   35.1463   23.2899    3.1800 C   0  0  0  0  0  0  0  0  0  0  0  0
   30.9632   28.1394   -0.6676 O   0  0  0  0  0  0  0  0  0  0  0  0
   33.4531   23.2613    5.8349 C   0  0  0  0  0  0  0  0  0  0  0  0
   30.9532   28.7550    4.0280 C   0  0  0  0  0  0  0  0  0  0  0  0
   34.2456   25.4881    3.7727 C   0  0  0  0  0  0  0  0  0  0  0  0
   28.8524   22.5166    4.1457 O   0  0  0  0  0  0  0  0  0  0  0  0
   31.4939   21.4201    4.8087 C   0  0  0  0  0  0  0  0  0  0  0  0
   31.7208   22.7494    4.2123 C   0  0  0  0  0  0  0  0  0  0  0  0
   35.6609   22.8320    4.5586 C   0  0  0  0  0  0  0  0  0  0  0  0
   30.8289   27.9032    2.9070 C   0  0  0  0  0  0  0  0  0  0  0  0
   29.5318   22.7512    2.9596 C   0  0  0  0  0  0  0  0  0  0  0  0
   31.1090   26.9355    5.5233 C   0  0  0  0  0  0  0  0  0  0  0  0
   30.4741   25.5491    1.9741 C   0  0  0  0  0  0  0  0  0  0  0  0
   31.0720   28.2843    5.3176 C   0  0  0  0  0  0  0  0  0  0  0  0
   30.8241   23.4667    3.3376 C   0  0  0  0  0  0  0  0  0  0  0  0
   29.2204   24.9178    1.6073 C   0  0  0  0  0  0  0  0  0  0  0  0
   33.8347   23.9972    3.4329 C   0  0  0  0  0  0  0  0  0  0  0  0
   30.5917   26.2532    0.6753 C   0  0  0  0  0  0  0  0  0  0  0  0
   29.7951   21.6867    2.1887 O   0  0  0  0  0  0  0  0  0  0  0  0
   29.2219   27.0018    0.4099 C   0  0  0  0  0  0  0  0  0  0  0  0
   34.8877   21.5574    4.9392 C   0  0  0  0  0  0  0  0  0  0  0  0
   32.9940   23.3563    4.4478 C   0  0  0  0  0  0  0  0  0  0  0  0
   31.3845   24.3351    2.3235 C   0  0  0  0  0  0  0  0  0  0  0  0
  1 19  1  0
  1 24  1  0
  2  8  1  0
  2 10  1  0
  2 26  1  0
  2 28  1  0
  3 31  1  0
  4  5  1  0
  4 11  1  0
  4 29  1  0
  5 15  1  0
  6  7  2  0
  6 18  1  0
  6 21  1  0
  7 20  1  0
  8 18  1  0
  9 17  1  0
  9 25  1  0
 11 30  1  0
 12 18  2  0
 12 22  1  0
 13 25  1  0
 14 19  1  0
 15 16  1  0
 16 23  1  0
 16 30  1  0
 17 29  1  0
 19 23  1  0
 19 27  1  0
 20 22  2  0
 21 24  1  0
 21 26  1  0
 21 31  1  0
 23 31  1  0
 25 30  1  0
M  END
>  <ID>  (1) 
conformer_0

$$$$
