
     RDKit          3D

 32 36  0  0  0  0  0  0  0  0999 V2000
   35.9989   21.0583    6.0756 O   0  0  0  0  0  0  0  0  0  0  0  0
   36.5191   22.0187    3.9972 O   0  0  0  0  0  0  0  0  0  0  0  0
   35.8219   21.9541    5.0974 C   0  0  0  0  0  0  0  0  0  0  0  0
   34.0247   23.3974    4.1144 N   0  0  0  0  0  0  0  0  0  0  0  0
   28.2062   27.8433   -0.0349 C   0  0  0  0  0  0  0  0  0  0  0  0
   30.4593   24.3039    1.7053 C   0  0  0  0  0  0  0  0  0  0  0  0
   29.5834   23.2531    1.8396 C   0  0  0  0  0  0  0  0  0  0  0  0
   36.2358   21.6065    7.4418 C   0  0  0  0  0  0  0  0  0  0  0  0
   28.3691   25.2148    1.9033 C   0  0  0  0  0  0  0  0  0  0  0  0
   35.1975   22.6503    7.6573 C   0  0  0  0  0  0  0  0  0  0  0  0
   34.5801   22.7336    5.2533 C   0  0  0  0  0  0  0  0  0  0  0  0
   29.5402   28.5207    0.5040 C   0  0  0  0  0  0  0  0  0  0  0  0
   31.4394   27.9824    5.3127 O   0  0  0  0  0  0  0  0  0  0  0  0
   31.8115   24.1898    1.4881 O   0  0  0  0  0  0  0  0  0  0  0  0
   34.5119   24.5518    3.6003 C   0  0  0  0  0  0  0  0  0  0  0  0
   33.7894   24.9570    2.5943 N   0  0  0  0  0  0  0  0  0  0  0  0
   34.3171   23.2154    6.6227 C   0  0  0  0  0  0  0  0  0  0  0  0
   30.0798   28.0430    1.8915 C   0  0  0  0  0  0  0  0  0  0  0  0
   34.0775   24.5709    7.1645 C   0  0  0  0  0  0  0  0  0  0  0  0
   29.7656   25.5148    1.8400 C   0  0  0  0  0  0  0  0  0  0  0  0
   30.4656   28.7787    3.0922 C   0  0  0  0  0  0  0  0  0  0  0  0
   28.2524   23.8728    1.9360 C   0  0  0  0  0  0  0  0  0  0  0  0
   30.4116   26.7171    2.2488 C   0  0  0  0  0  0  0  0  0  0  0  0
   27.0315   23.1920    1.9840 F   0  0  0  0  0  0  0  0  0  0  0  0
   32.9078   23.0677    3.3678 C   0  0  0  0  0  0  0  0  0  0  0  0
   30.5855   28.0879   -0.6120 C   0  0  0  0  0  0  0  0  0  0  0  0
   29.3332   29.8774    0.4596 O   0  0  0  0  0  0  0  0  0  0  0  0
   31.1176   27.8215    4.0302 C   0  0  0  0  0  0  0  0  0  0  0  0
   31.2390   26.7050    3.4058 N   0  0  0  0  0  0  0  0  0  0  0  0
   34.7000   23.0795    8.8770 O   0  0  0  0  0  0  0  0  0  0  0  0
   32.7752   24.0507    2.4699 C   0  0  0  0  0  0  0  0  0  0  0  0
   33.9026   24.2659    8.6550 C   0  0  0  0  0  0  0  0  0  0  0  0
  1  3  1  0
  1  8  1  0
  2  3  2  0
  3 11  1  0
  4 11  1  0
  4 15  1  0
  4 25  1  0
  5 12  1  0
  6  7  1  0
  6 14  1  0
  6 20  1  0
  7 22  1  0
  8 10  1  0
  9 20  1  0
  9 22  1  0
 10 17  1  0
 10 30  1  0
 11 17  1  0
 12 18  1  0
 12 26  1  0
 12 27  1  0
 13 28  2  0
 14 31  1  0
 15 16  1  0
 16 31  1  0
 17 19  1  0
 18 21  1  0
 18 23  1  0
 19 32  1  0
 20 23  1  0
 21 28  1  0
 22 24  1  0
 23 29  1  0
 25 31  1  0
 28 29  1  0
 30 32  1  0
M  END
>  <ID>  (1) 
conformer_0

$$$$
