
     RDKit          3D

 23 23  0  0  0  0  0  0  0  0999 V2000
   31.2280   23.8396    2.6922 C   0  0  0  0  0  0  0  0  0  0  0  0
   32.9284   24.7460    4.4107 C   0  0  0  0  0  0  0  0  0  0  0  0
   30.6148   25.2041    3.1087 C   0  0  0  0  0  0  0  0  0  0  0  0
   29.3649   27.6461   -0.1694 C   0  0  0  0  0  0  0  0  0  0  0  0
   32.0207   24.4740    5.4830 O   0  0  0  0  0  0  0  0  0  0  0  0
   29.2714   28.8983    0.7918 C   0  0  0  0  0  0  0  0  0  0  0  0
   33.6167   27.0741    6.5831 O   0  0  0  0  0  0  0  0  0  0  0  0
   34.1836   24.6745    5.2642 C   0  0  0  0  0  0  0  0  0  0  0  0
   35.4054   24.1289    4.6562 C   0  0  0  0  0  0  0  0  0  0  0  0
   30.3889   23.2604    1.5095 C   0  0  0  0  0  0  0  0  0  0  0  0
   30.8390   26.3480    4.2207 C   0  0  0  0  0  0  0  0  0  0  0  0
   30.8928   27.6470   -0.5292 C   0  0  0  0  0  0  0  0  0  0  0  0
   29.1572   26.4630    0.7819 C   0  0  0  0  0  0  0  0  0  0  0  0
   33.3307   25.9155    3.5155 Cl  0  0  0  0  0  0  0  0  0  0  0  0
   31.4855   26.9881    5.4550 C   0  0  0  0  0  0  0  0  0  0  0  0
   31.6115   28.0365    0.8456 C   0  0  0  0  0  0  0  0  0  0  0  0
   28.8704   23.5341    1.7096 C   0  0  0  0  0  0  0  0  0  0  0  0
   33.4250   22.8490    2.7763 O   0  0  0  0  0  0  0  0  0  0  0  0
   32.5435   23.5925    3.3819 C   0  0  0  0  0  0  0  0  0  0  0  0
   30.5194   28.7131    1.7367 C   0  0  0  0  0  0  0  0  0  0  0  0
   32.7377   27.6938    5.8533 C   0  0  0  0  0  0  0  0  0  0  0  0
   32.6183   28.9504    5.9764 O   0  0  0  0  0  0  0  0  0  0  0  0
   30.2129   25.9697    1.7585 C   0  0  0  0  0  0  0  0  0  0  0  0
  1  3  1  0
  1 10  1  0
  1 19  1  0
  2  5  1  0
  2  8  1  0
  2 14  1  0
  2 19  1  0
  3 11  2  0
  3 23  1  0
  4  6  1  0
  4 12  1  0
  4 13  1  0
  6 20  1  0
  7 21  2  0
  8  9  1  0
 10 17  1  0
 11 15  2  0
 12 16  1  0
 13 23  1  0
 15 21  1  0
 16 20  1  0
 18 19  1  0
 21 22  1  0
M  END
>  <ID>  (1) 
conformer_0

$$$$
