
     RDKit          3D

 33 39  0  0  0  0  0  0  0  0999 V2000
   35.6305   25.3628    5.4244 C   0  0  0  0  0  0  0  0  0  0  0  0
   34.5625   24.7072    4.8534 C   0  0  0  0  0  0  0  0  0  0  0  0
   28.2708   29.2109    0.2422 C   0  0  0  0  0  0  0  0  0  0  0  0
   26.9659   24.1823    1.4939 C   0  0  0  0  0  0  0  0  0  0  0  0
   27.5652   27.9953    0.9928 C   0  0  0  0  0  0  0  0  0  0  0  0
   31.8890   23.1686    3.8339 C   0  0  0  0  0  0  0  0  0  0  0  0
   29.7924   29.0064    0.3478 C   0  0  0  0  0  0  0  0  0  0  0  0
   30.5986   24.4428    2.4241 C   0  0  0  0  0  0  0  0  0  0  0  0
   29.9369   27.9343    1.5318 C   0  0  0  0  0  0  0  0  0  0  0  0
   35.0508   24.3532    7.5650 C   0  0  0  0  0  0  0  0  0  0  0  0
   31.8321   23.9737    2.7411 N   0  0  0  0  0  0  0  0  0  0  0  0
   30.5469   28.5914    3.9692 C   0  0  0  0  0  0  0  0  0  0  0  0
   34.0466   23.6240    6.9192 C   0  0  0  0  0  0  0  0  0  0  0  0
   29.4473   23.7170    2.6073 C   0  0  0  0  0  0  0  0  0  0  0  0
   30.3624   28.4170   -0.9395 C   0  0  0  0  0  0  0  0  0  0  0  0
   32.8308   22.9768    4.8756 C   0  0  0  0  0  0  0  0  0  0  0  0
   28.3020   24.4969    1.9358 C   0  0  0  0  0  0  0  0  0  0  0  0
   30.7796   22.3213    3.9984 C   0  0  0  0  0  0  0  0  0  0  0  0
   35.8539   25.1888    6.8132 C   0  0  0  0  0  0  0  0  0  0  0  0
   29.5240   22.6375    3.4905 C   0  0  0  0  0  0  0  0  0  0  0  0
   30.0732   28.9859    2.6597 O   0  0  0  0  0  0  0  0  0  0  0  0
   30.3543   25.7118    2.0041 C   0  0  0  0  0  0  0  0  0  0  0  0
   33.3419   26.0202    3.0260 C   0  0  0  0  0  0  0  0  0  0  0  0
   28.7991   25.7676    1.6652 C   0  0  0  0  0  0  0  0  0  0  0  0
   26.4136   22.8688    1.8282 O   0  0  0  0  0  0  0  0  0  0  0  0
   33.8132   23.7643    5.5496 C   0  0  0  0  0  0  0  0  0  0  0  0
   28.3344   22.0299    4.0173 C   0  0  0  0  0  0  0  0  0  0  0  0
   32.4468   21.7433    5.4686 C   0  0  0  0  0  0  0  0  0  0  0  0
   34.1499   24.9467    3.4982 O   0  0  0  0  0  0  0  0  0  0  0  0
   31.1883   21.3575    4.9004 C   0  0  0  0  0  0  0  0  0  0  0  0
   32.4322   27.0767    2.3450 C   0  0  0  0  0  0  0  0  0  0  0  0
   30.9858   26.8981    1.9013 C   0  0  0  0  0  0  0  0  0  0  0  0
   28.6592   27.1020    1.4120 C   0  0  0  0  0  0  0  0  0  0  0  0
  1  2  2  0
  1 19  1  0
  2 26  1  0
  2 29  1  0
  3  5  1  0
  3  7  1  0
  4 17  2  3
  4 25  1  0
  5 33  1  0
  6 11  1  0
  6 16  1  0
  6 18  1  0
  7  9  1  0
  7 15  1  0
  8 11  1  0
  8 14  1  0
  8 22  1  0
  9 21  1  0
  9 32  1  0
  9 33  1  0
 10 13  1  0
 10 19  2  0
 12 21  1  0
 13 26  2  0
 14 17  1  0
 14 20  2  0
 16 26  1  0
 16 28  1  0
 17 24  1  0
 18 20  1  0
 18 30  1  0
 20 27  1  0
 22 24  1  0
 22 32  2  0
 23 29  1  0
 23 31  1  0
 24 33  1  0
 28 30  1  0
 31 32  1  0
M  END
>  <ID>  (1) 
conformer_0

$$$$
