
     RDKit          3D

 32 36  0  0  0  0  0  0  0  0999 V2000
   35.1785   23.1873    3.9690 C   0  0  0  0  0  0  0  0  0  0  0  0
   32.3253   26.4979    3.8485 O   0  0  0  0  0  0  0  0  0  0  0  0
   29.5963   26.8766    1.5158 C   0  0  0  0  0  0  0  0  0  0  0  0
   34.8175   22.4597    5.3307 C   0  0  0  0  0  0  0  0  0  0  0  0
   31.0555   27.6330   -0.6901 C   0  0  0  0  0  0  0  0  0  0  0  0
   29.6745   27.7386   -0.7231 C   0  0  0  0  0  0  0  0  0  0  0  0
   32.0384   26.8090    5.3042 C   0  0  0  0  0  0  0  0  0  0  0  0
   31.7004   27.1074    0.4259 C   0  0  0  0  0  0  0  0  0  0  0  0
   31.2301   21.7052    4.2922 C   0  0  0  0  0  0  0  0  0  0  0  0
   28.6464   23.9746    0.9467 C   0  0  0  0  0  0  0  0  0  0  0  0
   33.9402   23.3705    2.9333 C   0  0  0  0  0  0  0  0  0  0  0  0
   33.2746   22.3185    5.3728 C   0  0  0  0  0  0  0  0  0  0  0  0
   30.2942   22.6943    2.2304 C   0  0  0  0  0  0  0  0  0  0  0  0
   35.6168   22.8540    6.4361 O   0  0  0  0  0  0  0  0  0  0  0  0
   34.3604   24.1670    8.0157 C   0  0  0  0  0  0  0  0  0  0  0  0
   31.5809   28.1929    5.3626 C   0  0  0  0  0  0  0  0  0  0  0  0
   34.8290   25.1082    5.8219 C   0  0  0  0  0  0  0  0  0  0  0  0
   29.2638   23.7354    2.3114 C   0  0  0  0  0  0  0  0  0  0  0  0
   30.9855   26.7007    1.5487 C   0  0  0  0  0  0  0  0  0  0  0  0
   32.3736   29.0548    5.8631 O   0  0  0  0  0  0  0  0  0  0  0  0
   31.7089   26.0149    2.6697 C   0  0  0  0  0  0  0  0  0  0  0  0
   33.3530   24.7110    5.8379 C   0  0  0  0  0  0  0  0  0  0  0  0
   35.4918   24.2807    6.9497 C   0  0  0  0  0  0  0  0  0  0  0  0
   31.8142   24.6350    2.5787 N   0  0  0  0  0  0  0  0  0  0  0  0
   32.6732   23.6704    4.9825 C   0  0  0  0  0  0  0  0  0  0  0  0
   32.3861   21.3209    4.9152 N   0  0  0  0  0  0  0  0  0  0  0  0
   32.4355   23.6610    3.4766 C   0  0  0  0  0  0  0  0  0  0  0  0
   30.1013   21.4518    4.6513 O   0  0  0  0  0  0  0  0  0  0  0  0
   31.3635   22.6056    3.2158 C   0  0  0  0  0  0  0  0  0  0  0  0
   28.9504   27.3559    0.4050 C   0  0  0  0  0  0  0  0  0  0  0  0
   33.0577   24.2027    7.2310 C   0  0  0  0  0  0  0  0  0  0  0  0
   30.2611   28.4428    4.9009 C   0  0  0  0  0  0  0  0  0  0  0  0
  1  4  1  0
  1 11  1  0
  2  7  1  0
  2 21  1  0
  3 19  1  0
  3 30  2  0
  4 12  1  0
  4 14  1  0
  5  6  1  0
  5  8  2  0
  6 30  1  0
  7 16  1  0
  8 19  1  0
  9 26  1  0
  9 28  2  0
  9 29  1  0
 10 18  1  0
 11 27  1  0
 12 25  1  0
 12 26  1  0
 13 18  1  0
 13 29  1  0
 14 23  1  0
 15 23  1  0
 15 31  1  0
 16 20  2  0
 16 32  1  0
 17 22  1  0
 17 23  1  0
 19 21  1  0
 21 24  2  3
 22 25  1  0
 22 31  1  0
 24 27  1  0
 25 27  1  0
 27 29  1  0
M  END
>  <ID>  (1) 
conformer_0

$$$$
