
     RDKit          3D

 23 26  0  0  0  0  0  0  0  0999 V2000
   34.7216   22.1629    4.9883 C   0  0  0  0  0  0  0  0  0  0  0  0
   28.6520   24.0651    1.1552 C   0  0  0  0  0  0  0  0  0  0  0  0
   32.5701   24.9488    2.8028 C   0  0  0  0  0  0  0  0  0  0  0  0
   30.6881   23.4916    2.0919 C   0  0  0  0  0  0  0  0  0  0  0  0
   30.5420   29.3109    1.2891 C   0  0  0  0  0  0  0  0  0  0  0  0
   30.7277   27.1888   -0.2191 C   0  0  0  0  0  0  0  0  0  0  0  0
   30.7198   27.4287    3.9233 N   0  0  0  0  0  0  0  0  0  0  0  0
   31.3900   28.2156    0.7503 C   0  0  0  0  0  0  0  0  0  0  0  0
   32.4512   24.9140    4.2364 C   0  0  0  0  0  0  0  0  0  0  0  0
   32.4478   27.4926    1.5514 C   0  0  0  0  0  0  0  0  0  0  0  0
   33.5997   22.7856    4.2501 C   0  0  0  0  0  0  0  0  0  0  0  0
   31.9792   26.1580    2.1288 C   0  0  0  0  0  0  0  0  0  0  0  0
   33.5724   24.1264    4.8116 C   0  0  0  0  0  0  0  0  0  0  0  0
   31.6780   23.9416    3.3145 C   0  0  0  0  0  0  0  0  0  0  0  0
   34.5264   25.4061    6.5432 O   0  0  0  0  0  0  0  0  0  0  0  0
   30.1824   24.4689    1.0482 C   0  0  0  0  0  0  0  0  0  0  0  0
   30.6108   26.4909    2.8805 C   0  0  0  0  0  0  0  0  0  0  0  0
   29.4453   26.6791    1.8926 C   0  0  0  0  0  0  0  0  0  0  0  0
   34.6427   24.4433    5.6841 C   0  0  0  0  0  0  0  0  0  0  0  0
   31.6416   25.4207    5.4491 C   0  0  0  0  0  0  0  0  0  0  0  0
   32.2509   22.5451    3.6927 C   0  0  0  0  0  0  0  0  0  0  0  0
   30.0057   26.0086    0.5134 C   0  0  0  0  0  0  0  0  0  0  0  0
   35.5331   23.2635    5.5825 C   0  0  0  0  0  0  0  0  0  0  0  0
  1 11  1  0
  1 23  1  0
  2 16  1  0
  3  9  1  0
  3 12  1  0
  3 14  1  0
  4 14  1  0
  4 16  1  0
  5  8  1  0
  6  8  1  0
  6 22  1  0
  7 17  1  0
  8 10  1  0
  9 13  1  0
  9 20  1  0
 10 12  1  0
 11 13  1  0
 11 21  1  0
 12 17  1  0
 13 19  1  0
 14 21  1  0
 15 19  1  0
 16 22  1  0
 17 18  1  0
 18 22  1  0
 19 23  1  0
M  END
>  <ID>  (1) 
conformer_0

$$$$
