
     RDKit          3D

 40 41  0  0  0  0  0  0  0  0999 V2000
   27.9641   27.7505    1.6969 C   0  0  0  0  0  0  0  0  0  0  0  0
   27.3524   28.1707    0.4922 C   0  0  0  0  0  0  0  0  0  0  0  0
   31.1567   22.8830    4.1849 C   0  0  0  0  0  0  0  0  0  0  0  0
   30.8859   29.1367    4.9102 O   0  0  0  0  0  0  0  0  0  0  0  0
   30.9332   23.5247    1.7425 C   0  0  0  0  0  0  0  0  0  0  0  0
   29.5956   21.2863    4.5374 O   0  0  0  0  0  0  0  0  0  0  0  0
   33.3676   24.1858    2.2364 C   0  0  0  0  0  0  0  0  0  0  0  0
   29.9067   23.5810    0.7993 C   0  0  0  0  0  0  0  0  0  0  0  0
   25.8843   29.6631   -0.7158 C   0  0  0  0  0  0  0  0  0  0  0  0
   26.5738   29.1252    2.9628 C   0  0  0  0  0  0  0  0  0  0  0  0
   31.3050   27.6690   -0.4412 C   0  0  0  0  0  0  0  0  0  0  0  0
   30.7918   21.5814    4.7218 C   0  0  0  0  0  0  0  0  0  0  0  0
   30.3981   27.3668    1.8649 C   0  0  0  0  0  0  0  0  0  0  0  0
   34.9477   21.7825    3.9316 O   0  0  0  0  0  0  0  0  0  0  0  0
   34.3154   24.6657    3.2836 C   0  0  0  0  0  0  0  0  0  0  0  0
   26.7019   29.3336   -1.7470 F   0  0  0  0  0  0  0  0  0  0  0  0
   28.8337   24.4129    0.8922 C   0  0  0  0  0  0  0  0  0  0  0  0
   36.4241   22.5852    5.3217 O   0  0  0  0  0  0  0  0  0  0  0  0
   30.5335   29.6351    0.9610 O   0  0  0  0  0  0  0  0  0  0  0  0
   33.5365   24.1115    5.5916 C   0  0  0  0  0  0  0  0  0  0  0  0
   27.5313   28.1847    2.8710 N   0  0  0  0  0  0  0  0  0  0  0  0
   24.9894   30.4836   -0.8595 F   0  0  0  0  0  0  0  0  0  0  0  0
   32.2348   23.6263    4.9403 C   0  0  0  0  0  0  0  0  0  0  0  0
   32.3487   23.8026    1.4183 C   0  0  0  0  0  0  0  0  0  0  0  0
   35.4237   22.7049    4.6181 C   0  0  0  0  0  0  0  0  0  0  0  0
   29.0441   26.8577    1.6837 N   0  0  0  0  0  0  0  0  0  0  0  0
   30.6472   23.2319    3.0388 C   0  0  0  0  0  0  0  0  0  0  0  0
   31.5823   27.9185    5.4137 C   0  0  0  0  0  0  0  0  0  0  0  0
   31.8988   26.4521    5.2093 O   0  0  0  0  0  0  0  0  0  0  0  0
   25.0343   30.5399    1.7569 O   0  0  0  0  0  0  0  0  0  0  0  0
   29.5061   29.0462    5.0114 C   0  0  0  0  0  0  0  0  0  0  0  0
   32.5211   28.4308    6.4486 C   0  0  0  0  0  0  0  0  0  0  0  0
   30.8361   28.3093    0.8254 C   0  0  0  0  0  0  0  0  0  0  0  0
   25.9772   29.6242    1.7450 C   0  0  0  0  0  0  0  0  0  0  0  0
   26.4252   29.1247    0.5101 C   0  0  0  0  0  0  0  0  0  0  0  0
   31.7678   20.8551    5.1175 N   0  0  0  0  0  0  0  0  0  0  0  0
   31.0336   27.5137    3.0815 O   0  0  0  0  0  0  0  0  0  0  0  0
   31.9574   27.2378    4.0602 C   0  0  0  0  0  0  0  0  0  0  0  0
   28.7145   25.5724    1.4806 C   0  0  0  0  0  0  0  0  0  0  0  0
   34.7570   24.0918    4.6342 C   0  0  0  0  0  0  0  0  0  0  0  0
  1  2  1  0
  1 21  2  0
  1 26  1  0
  2 35  1  0
  3 12  1  0
  3 23  1  0
  3 27  1  0
  4 28  1  0
  4 31  1  0
  5  8  1  0
  5 24  1  0
  5 27  1  0
  6 12  2  0
  7 15  2  0
  7 24  2  0
  8 17  1  0
  9 16  1  0
  9 22  1  0
  9 35  1  0
 10 21  1  0
 10 34  1  0
 11 33  1  0
 12 36  1  0
 13 26  1  0
 13 33  1  0
 13 37  1  0
 14 25  2  0
 15 40  1  0
 17 39  1  0
 18 25  1  0
 19 33  1  0
 20 23  1  0
 20 40  1  0
 25 40  1  0
 26 39  1  0
 28 32  1  0
 28 38  1  0
 29 38  1  0
 30 34  1  0
 34 35  2  0
 37 38  1  0
M  END
>  <ID>  (1) 
conformer_0

$$$$
