
     RDKit          3D

 29 32  0  0  0  0  0  0  0  0999 V2000
   30.1338   23.5657    1.3387 C   0  0  0  0  0  0  0  0  0  0  0  0
   37.0852   20.9947    5.6832 O   0  0  0  0  0  0  0  0  0  0  0  0
   32.7123   22.0175    5.0570 C   0  0  0  0  0  0  0  0  0  0  0  0
   29.3254   29.0035   -0.0999 C   0  0  0  0  0  0  0  0  0  0  0  0
   35.5544   24.3386    6.4320 C   0  0  0  0  0  0  0  0  0  0  0  0
   35.4122   25.7937    6.6951 C   0  0  0  0  0  0  0  0  0  0  0  0
   33.0817   23.6074    1.9814 O   0  0  0  0  0  0  0  0  0  0  0  0
   33.2939   24.9674    5.9536 C   0  0  0  0  0  0  0  0  0  0  0  0
   28.4053   26.8681    0.5548 C   0  0  0  0  0  0  0  0  0  0  0  0
   36.3149   22.0344    5.6972 C   0  0  0  0  0  0  0  0  0  0  0  0
   32.1575   24.8547    4.9110 C   0  0  0  0  0  0  0  0  0  0  0  0
   36.5758   23.2419    6.4892 C   0  0  0  0  0  0  0  0  0  0  0  0
   30.8514   26.5068    0.9794 C   0  0  0  0  0  0  0  0  0  0  0  0
   31.8125   25.6372    1.5848 C   0  0  0  0  0  0  0  0  0  0  0  0
   34.0195   22.7080    5.2518 C   0  0  0  0  0  0  0  0  0  0  0  0
   35.1755   21.9668    4.8638 N   0  0  0  0  0  0  0  0  0  0  0  0
   34.1667   23.8294    6.2094 C   0  0  0  0  0  0  0  0  0  0  0  0
   31.2864   26.0584    5.1830 O   0  0  0  0  0  0  0  0  0  0  0  0
   30.6490   28.7626    0.0969 C   0  0  0  0  0  0  0  0  0  0  0  0
   35.1478   21.4303    3.6554 O   0  0  0  0  0  0  0  0  0  0  0  0
   29.4743   26.0971    0.8904 C   0  0  0  0  0  0  0  0  0  0  0  0
   30.4608   23.1702    2.8397 C   0  0  0  0  0  0  0  0  0  0  0  0
   31.4331   24.1579    3.6665 C   0  0  0  0  0  0  0  0  0  0  0  0
   34.0368   26.2319    6.1777 C   0  0  0  0  0  0  0  0  0  0  0  0
   28.2922   28.1491    0.1523 C   0  0  0  0  0  0  0  0  0  0  0  0
   32.2748   24.6433    2.4336 C   0  0  0  0  0  0  0  0  0  0  0  0
   33.1788   24.1960    7.0768 C   0  0  0  0  0  0  0  0  0  0  0  0
   31.3098   27.6999    0.5451 C   0  0  0  0  0  0  0  0  0  0  0  0
   29.1539   24.6412    1.2329 C   0  0  0  0  0  0  0  0  0  0  0  0
  1 22  1  0
  1 29  1  0
  2 10  2  0
  3 15  1  0
  4 19  1  0
  4 25  1  0
  5  6  1  0
  5 12  1  0
  5 17  1  0
  6 24  1  0
  7 26  1  0
  8 11  1  0
  8 24  1  0
  8 27  1  0
  9 21  1  0
  9 25  2  0
 10 12  1  0
 10 16  1  0
 11 18  1  0
 11 23  1  0
 13 14  2  0
 13 21  1  0
 13 28  1  0
 14 26  2  0
 15 16  1  0
 15 17  1  0
 16 20  1  0
 17 27  1  0
 19 28  2  0
 21 29  1  0
 22 23  1  0
 23 26  1  0
M  END
>  <ID>  (1) 
conformer_0

$$$$
