
     RDKit          3D

 25 26  0  0  0  0  0  0  0  0999 V2000
   28.6159   24.9115    0.6344 C   0  0  0  0  0  0  0  0  0  0  0  0
   30.5157   26.6443    3.9349 O   0  0  0  0  0  0  0  0  0  0  0  0
   35.1212   23.1446    4.8357 C   0  0  0  0  0  0  0  0  0  0  0  0
   28.5222   23.2334    2.7287 C   0  0  0  0  0  0  0  0  0  0  0  0
   30.6590   27.4342   -0.6604 O   0  0  0  0  0  0  0  0  0  0  0  0
   30.6181   27.1516    2.6545 C   0  0  0  0  0  0  0  0  0  0  0  0
   29.6193   25.1555    1.7298 C   0  0  0  0  0  0  0  0  0  0  0  0
   30.6397   26.1304    1.6588 C   0  0  0  0  0  0  0  0  0  0  0  0
   31.8509   26.1311    0.8530 C   0  0  0  0  0  0  0  0  0  0  0  0
   35.5219   22.7916    3.3926 C   0  0  0  0  0  0  0  0  0  0  0  0
   31.4705   22.9926    3.9451 C   0  0  0  0  0  0  0  0  0  0  0  0
   29.6860   24.2107    2.8119 C   0  0  0  0  0  0  0  0  0  0  0  0
   30.7891   21.9048    3.7608 O   0  0  0  0  0  0  0  0  0  0  0  0
   36.0206   23.9270    5.7535 C   0  0  0  0  0  0  0  0  0  0  0  0
   32.7378   22.8243    4.4251 C   0  0  0  0  0  0  0  0  0  0  0  0
   28.7033   28.5020    3.3554 C   0  0  0  0  0  0  0  0  0  0  0  0
   31.2968   25.5254    4.1321 C   0  0  0  0  0  0  0  0  0  0  0  0
   33.7271   23.6996    4.8141 C   0  0  0  0  0  0  0  0  0  0  0  0
   33.5041   25.0219    5.1689 C   0  0  0  0  0  0  0  0  0  0  0  0
   29.9046   28.4557    2.4154 C   0  0  0  0  0  0  0  0  0  0  0  0
   32.2487   28.5783    0.8406 C   0  0  0  0  0  0  0  0  0  0  0  0
   31.5951   27.4931    0.2343 C   0  0  0  0  0  0  0  0  0  0  0  0
   32.4074   25.7614    4.9324 C   0  0  0  0  0  0  0  0  0  0  0  0
   32.4058   24.7553    0.7149 C   0  0  0  0  0  0  0  0  0  0  0  0
   30.8446   24.2862    3.6106 C   0  0  0  0  0  0  0  0  0  0  0  0
  1  7  1  0
  2  6  1  0
  2 17  1  0
  3 10  1  0
  3 14  1  0
  3 18  1  0
  4 12  1  0
  5 22  1  0
  6  8  1  0
  6 20  1  0
  7  8  1  0
  7 12  2  0
  8  9  1  0
  9 22  1  0
  9 24  1  0
 11 13  1  0
 11 15  2  0
 11 25  1  0
 12 25  1  0
 15 18  1  0
 16 20  1  0
 17 23  1  0
 17 25  2  0
 18 19  1  0
 19 23  2  0
 21 22  1  0
M  END
>  <ID>  (1) 
conformer_0

$$$$
