
     RDKit          3D

 19 22  0  0  0  0  0  0  0  0999 V2000
   34.0199   24.3835    3.8149 C   0  0  0  0  0  0  0  0  0  0  0  0
   31.6099   24.7386    2.0651 C   0  0  0  0  0  0  0  0  0  0  0  0
   30.6057   25.1160    1.1802 C   0  0  0  0  0  0  0  0  0  0  0  0
   30.5493   27.1203   -0.4207 C   0  0  0  0  0  0  0  0  0  0  0  0
   30.6936   27.3708    2.0290 C   0  0  0  0  0  0  0  0  0  0  0  0
   30.6950   28.6693    4.7271 O   0  0  0  0  0  0  0  0  0  0  0  0
   34.9472   24.0945    4.7754 C   0  0  0  0  0  0  0  0  0  0  0  0
   32.0117   25.6190    3.1060 C   0  0  0  0  0  0  0  0  0  0  0  0
   33.9392   25.6646    6.3028 C   0  0  0  0  0  0  0  0  0  0  0  0
   29.7100   23.9004    0.9284 C   0  0  0  0  0  0  0  0  0  0  0  0
   33.0179   25.3177    4.0431 C   0  0  0  0  0  0  0  0  0  0  0  0
   31.3652   27.5469    4.5403 C   0  0  0  0  0  0  0  0  0  0  0  0
   31.3302   26.8888    3.2063 C   0  0  0  0  0  0  0  0  0  0  0  0
   30.7618   22.7395    1.1276 C   0  0  0  0  0  0  0  0  0  0  0  0
   32.1018   26.9892    5.5176 N   0  0  0  0  0  0  0  0  0  0  0  0
   30.5430   26.5213    0.9417 C   0  0  0  0  0  0  0  0  0  0  0  0
   34.9127   24.7166    6.0185 C   0  0  0  0  0  0  0  0  0  0  0  0
   32.9981   26.0027    5.2788 C   0  0  0  0  0  0  0  0  0  0  0  0
   32.0046   23.3777    1.7555 O   0  0  0  0  0  0  0  0  0  0  0  0
  1  7  2  0
  1 11  1  0
  2  3  1  0
  2  8  2  0
  2 19  1  0
  3 10  1  0
  3 16  1  0
  4 16  1  0
  5 13  2  0
  5 16  1  0
  6 12  2  0
  7 17  1  0
  8 11  1  0
  8 13  1  0
  9 17  2  0
  9 18  1  0
 10 14  1  0
 11 18  1  0
 12 13  1  0
 12 15  1  0
 14 19  1  0
 15 18  2  0
M  END
>  <ID>  (1) 
conformer_0

$$$$
