
     RDKit          3D

 26 30  0  0  0  0  0  0  0  0999 V2000
   30.7655   24.9528    1.9914 C   0  0  0  0  0  0  0  0  0  0  0  0
   31.4982   23.9631    4.7090 C   0  0  0  0  0  0  0  0  0  0  0  0
   32.3771   25.2042    4.3135 C   0  0  0  0  0  0  0  0  0  0  0  0
   30.6753   23.0837    3.7637 C   0  0  0  0  0  0  0  0  0  0  0  0
   31.6483   25.6682    3.0095 C   0  0  0  0  0  0  0  0  0  0  0  0
   29.6933   28.2979   -0.4665 C   0  0  0  0  0  0  0  0  0  0  0  0
   30.8332   28.5813    5.0490 C   0  0  0  0  0  0  0  0  0  0  0  0
   33.8949   24.8073    4.7947 C   0  0  0  0  0  0  0  0  0  0  0  0
   28.9501   23.5669    1.9310 C   0  0  0  0  0  0  0  0  0  0  0  0
   30.9111   27.6369    1.6655 C   0  0  0  0  0  0  0  0  0  0  0  0
   33.3558   22.1768    4.0425 C   0  0  0  0  0  0  0  0  0  0  0  0
   34.3042   25.1486    6.2073 C   0  0  0  0  0  0  0  0  0  0  0  0
   31.2918   27.1607    3.0817 C   0  0  0  0  0  0  0  0  0  0  0  0
   31.7038   26.8579    0.5653 C   0  0  0  0  0  0  0  0  0  0  0  0
   31.4764   27.4393    4.5499 C   0  0  0  0  0  0  0  0  0  0  0  0
   35.8191   25.0524    6.3469 C   0  0  0  0  0  0  0  0  0  0  0  0
   31.4399   25.2998    0.5771 C   0  0  0  0  0  0  0  0  0  0  0  0
   28.4162   27.8984   -1.0920 C   0  0  0  0  0  0  0  0  0  0  0  0
   30.7276   28.1996   -1.3712 O   0  0  0  0  0  0  0  0  0  0  0  0
   30.5311   23.2982    2.2349 C   0  0  0  0  0  0  0  0  0  0  0  0
   32.1337   26.3891    5.2267 O   0  0  0  0  0  0  0  0  0  0  0  0
   32.1854   21.4627    4.8768 C   0  0  0  0  0  0  0  0  0  0  0  0
   29.6489   28.1604    1.0458 C   0  0  0  0  0  0  0  0  0  0  0  0
   30.7698   21.6039    4.1930 C   0  0  0  0  0  0  0  0  0  0  0  0
   34.2985   23.4233    4.2726 C   0  0  0  0  0  0  0  0  0  0  0  0
   29.1718   25.1369    1.7814 C   0  0  0  0  0  0  0  0  0  0  0  0
  1  5  1  0
  1 17  1  0
  1 20  1  0
  1 26  1  0
  2  3  1  0
  2  4  1  0
  3  5  1  0
  3  8  1  0
  3 21  1  0
  4 20  1  0
  4 24  1  0
  5 13  1  0
  6 18  1  0
  6 19  1  0
  6 23  1  0
  7 15  1  0
  8 12  1  0
  8 25  1  0
  9 20  1  0
  9 26  1  0
 10 13  1  0
 10 14  1  0
 10 23  1  0
 11 22  1  0
 11 25  1  0
 12 16  1  0
 13 15  1  0
 14 17  1  0
 15 21  1  0
 22 24  1  0
M  END
>  <ID>  (1) 
conformer_0

$$$$
