
     RDKit          3D

 32 37  0  0  0  0  0  0  0  0999 V2000
   30.3302   27.3234    3.5456 C   0  0  0  0  0  0  0  0  0  0  0  0
   30.3464   29.1973    5.2595 C   0  0  0  0  0  0  0  0  0  0  0  0
   28.4447   28.7261    3.9572 O   0  0  0  0  0  0  0  0  0  0  0  0
   31.6605   22.1037    4.5095 C   0  0  0  0  0  0  0  0  0  0  0  0
   30.0773   24.8596    1.1689 C   0  0  0  0  0  0  0  0  0  0  0  0
   29.1735   23.8817    1.3579 C   0  0  0  0  0  0  0  0  0  0  0  0
   29.5600   27.0476   -0.2611 C   0  0  0  0  0  0  0  0  0  0  0  0
   32.4015   25.2125    1.1194 C   0  0  0  0  0  0  0  0  0  0  0  0
   30.2197   22.0077    4.8104 C   0  0  0  0  0  0  0  0  0  0  0  0
   35.0419   24.1805    5.2629 C   0  0  0  0  0  0  0  0  0  0  0  0
   29.7145   27.0475    2.2044 C   0  0  0  0  0  0  0  0  0  0  0  0
   30.4459   27.8292   -1.2076 C   0  0  0  0  0  0  0  0  0  0  0  0
   31.4123   29.0737    5.9342 C   0  0  0  0  0  0  0  0  0  0  0  0
   31.2789   24.3674    1.5973 N   0  0  0  0  0  0  0  0  0  0  0  0
   33.8354   22.1074    5.5256 C   0  0  0  0  0  0  0  0  0  0  0  0
   33.8767   26.4148    5.7102 C   0  0  0  0  0  0  0  0  0  0  0  0
   34.7987   25.4461    5.4023 C   0  0  0  0  0  0  0  0  0  0  0  0
   31.7436   26.5987    0.7545 C   0  0  0  0  0  0  0  0  0  0  0  0
   29.6837   28.4349    4.2586 C   0  0  0  0  0  0  0  0  0  0  0  0
   33.4471   28.3149    6.8598 C   0  0  0  0  0  0  0  0  0  0  0  0
   32.5078   26.9597    5.1607 C   0  0  0  0  0  0  0  0  0  0  0  0
   33.3030   23.5209    3.6416 C   0  0  0  0  0  0  0  0  0  0  0  0
   34.2940   27.2621    6.7424 N   0  0  0  0  0  0  0  0  0  0  0  0
   30.1752   26.3474    0.9421 C   0  0  0  0  0  0  0  0  0  0  0  0
   32.0875   22.9221    3.4471 C   0  0  0  0  0  0  0  0  0  0  0  0
   28.3156   27.1649   -0.4011 O   0  0  0  0  0  0  0  0  0  0  0  0
   31.1069   23.2726    2.3854 C   0  0  0  0  0  0  0  0  0  0  0  0
   29.8434   22.8902    2.1651 O   0  0  0  0  0  0  0  0  0  0  0  0
   32.5550   21.5328    5.4120 C   0  0  0  0  0  0  0  0  0  0  0  0
   31.4513   26.6900    4.1863 C   0  0  0  0  0  0  0  0  0  0  0  0
   32.3891   28.1399    5.9701 C   0  0  0  0  0  0  0  0  0  0  0  0
   34.0690   23.2736    4.7713 C   0  0  0  0  0  0  0  0  0  0  0  0
  1 11  1  0
  1 19  1  0
  1 30  1  0
  2 13  2  0
  2 19  1  0
  3 19  1  0
  4  9  1  0
  4 25  1  0
  4 29  1  0
  5  6  1  0
  5 14  1  0
  5 24  1  0
  6 28  1  0
  7 12  1  0
  7 24  1  0
  7 26  2  0
  8 14  1  0
  8 18  1  0
 10 17  1  0
 10 32  1  0
 11 24  1  0
 13 31  1  0
 14 27  1  0
 15 29  2  0
 15 32  1  0
 16 17  1  0
 16 21  1  0
 16 23  1  0
 18 24  1  0
 20 23  1  0
 20 31  1  0
 21 30  1  0
 21 31  2  0
 22 25  2  0
 22 32  1  0
 25 27  1  0
 27 28  1  0
M  END
>  <ID>  (1) 
conformer_0

$$$$
