
     RDKit          3D

 26 27  0  0  0  0  0  0  0  0999 V2000
   32.0266   23.1456    6.4691 C   0  0  0  0  0  0  0  0  0  0  0  0
   33.3506   23.0804    3.4715 C   0  0  0  0  0  0  0  0  0  0  0  0
   31.5626   26.1766    1.9908 C   0  0  0  0  0  0  0  0  0  0  0  0
   30.1980   25.6901    2.1568 C   0  0  0  0  0  0  0  0  0  0  0  0
   34.1663   24.2836    5.4944 C   0  0  0  0  0  0  0  0  0  0  0  0
   28.5433   24.6060    0.2223 F   0  0  0  0  0  0  0  0  0  0  0  0
   29.3115   23.3283    4.1494 O   0  0  0  0  0  0  0  0  0  0  0  0
   29.2529   26.6567    2.2632 C   0  0  0  0  0  0  0  0  0  0  0  0
   29.8391   22.8382    0.4242 F   0  0  0  0  0  0  0  0  0  0  0  0
   33.4500   25.4132    3.3033 C   0  0  0  0  0  0  0  0  0  0  0  0
   32.3924   22.6093    2.6975 O   0  0  0  0  0  0  0  0  0  0  0  0
   29.0228   23.7271    1.1041 C   0  0  0  0  0  0  0  0  0  0  0  0
   33.4313   23.3657    6.3451 C   0  0  0  0  0  0  0  0  0  0  0  0
   33.6894   24.3035    4.0958 C   0  0  0  0  0  0  0  0  0  0  0  0
   35.2469   24.9524    5.9357 O   0  0  0  0  0  0  0  0  0  0  0  0
   29.2610   27.9687    2.0667 C   0  0  0  0  0  0  0  0  0  0  0  0
   31.0301   22.2993    2.9014 C   0  0  0  0  0  0  0  0  0  0  0  0
   29.8531   24.3022    2.2013 N   0  0  0  0  0  0  0  0  0  0  0  0
   35.5330   24.6703    7.3132 C   0  0  0  0  0  0  0  0  0  0  0  0
   30.0840   23.3965    3.2338 C   0  0  0  0  0  0  0  0  0  0  0  0
   27.9349   23.0800    1.6261 F   0  0  0  0  0  0  0  0  0  0  0  0
   32.6081   25.5241    2.3897 N   0  0  0  0  0  0  0  0  0  0  0  0
   30.1786   28.8717    1.6376 C   0  0  0  0  0  0  0  0  0  0  0  0
   31.9648   27.3666    1.4568 C   0  0  0  0  0  0  0  0  0  0  0  0
   31.2830   24.4349    6.2542 C   0  0  0  0  0  0  0  0  0  0  0  0
   31.5158   28.5552    1.2849 C   0  0  0  0  0  0  0  0  0  0  0  0
  1 13  1  0
  1 25  1  0
  2 11  1  0
  2 14  1  0
  3  4  1  0
  3 22  1  0
  3 24  1  0
  4  8  1  0
  4 18  1  0
  5 13  1  0
  5 14  1  0
  5 15  1  0
  6 12  1  0
  7 20  2  0
  8 16  2  0
  9 12  1  0
 10 14  1  0
 10 22  1  0
 11 17  1  0
 12 18  1  0
 12 21  1  0
 15 19  1  0
 16 23  1  0
 17 20  1  0
 18 20  1  0
 23 26  1  0
 24 26  2  0
M  END
>  <ID>  (1) 
conformer_0

$$$$
