
     RDKit          3D

 25 28  0  0  0  0  0  0  0  0999 V2000
   29.8898   22.0753    4.3163 C   0  0  0  0  0  0  0  0  0  0  0  0
   34.6187   25.0336    5.9571 C   0  0  0  0  0  0  0  0  0  0  0  0
   30.3643   23.4451    2.4352 C   0  0  0  0  0  0  0  0  0  0  0  0
   29.7233   28.0296   -0.0027 C   0  0  0  0  0  0  0  0  0  0  0  0
   32.1346   22.7319    3.8108 C   0  0  0  0  0  0  0  0  0  0  0  0
   31.9019   26.3583    3.2907 C   0  0  0  0  0  0  0  0  0  0  0  0
   29.8368   27.4858    2.3565 C   0  0  0  0  0  0  0  0  0  0  0  0
   31.6387   23.7086    2.9969 C   0  0  0  0  0  0  0  0  0  0  0  0
   34.7706   23.5904    5.4749 C   0  0  0  0  0  0  0  0  0  0  0  0
   36.2453   23.3585    5.5613 C   0  0  0  0  0  0  0  0  0  0  0  0
   29.1307   28.0062    1.2623 C   0  0  0  0  0  0  0  0  0  0  0  0
   32.4946   24.9599    2.9116 C   0  0  0  0  0  0  0  0  0  0  0  0
   31.2449   21.9854    4.6157 C   0  0  0  0  0  0  0  0  0  0  0  0
   33.3369   26.9499    5.6527 O   0  0  0  0  0  0  0  0  0  0  0  0
   34.3629   23.6095    4.0111 C   0  0  0  0  0  0  0  0  0  0  0  0
   31.6852   26.9707    0.8905 C   0  0  0  0  0  0  0  0  0  0  0  0
   32.1849   26.5812    4.7538 C   0  0  0  0  0  0  0  0  0  0  0  0
   30.0986   23.6296    1.0250 C   0  0  0  0  0  0  0  0  0  0  0  0
   33.4357   25.6410    5.1077 C   0  0  0  0  0  0  0  0  0  0  0  0
   33.7315   24.9291    3.7800 C   0  0  0  0  0  0  0  0  0  0  0  0
   31.0975   26.8161    5.4360 O   0  0  0  0  0  0  0  0  0  0  0  0
   30.9960   27.5129   -0.1770 C   0  0  0  0  0  0  0  0  0  0  0  0
   29.4260   22.7570    3.2021 C   0  0  0  0  0  0  0  0  0  0  0  0
   33.5000   22.5211    3.7386 O   0  0  0  0  0  0  0  0  0  0  0  0
   31.1461   26.9412    2.1784 C   0  0  0  0  0  0  0  0  0  0  0  0
  1 13  1  0
  1 23  2  0
  2  9  1  0
  2 19  1  0
  3  8  1  0
  3 18  1  0
  3 23  1  0
  4 11  2  0
  4 22  1  0
  5  8  1  0
  5 13  2  0
  5 24  1  0
  6 12  1  0
  6 17  1  0
  6 25  1  0
  7 11  1  0
  7 25  2  0
  8 12  1  0
  9 10  1  0
  9 15  1  0
 12 20  1  0
 14 19  1  0
 15 20  1  0
 15 24  1  0
 16 22  2  0
 16 25  1  0
 17 21  1  0
 19 20  1  0
M  END
>  <ID>  (1) 
conformer_0

$$$$
