
     RDKit          3D

 31 36  0  0  0  0  0  0  0  0999 V2000
   30.5711   23.7260    2.8391 C   0  0  0  0  0  0  0  0  0  0  0  0
   35.9021   23.7645    6.1793 C   0  0  0  0  0  0  0  0  0  0  0  0
   28.9396   29.4617   -0.6273 C   0  0  0  0  0  0  0  0  0  0  0  0
   34.2935   24.2712    3.9182 C   0  0  0  0  0  0  0  0  0  0  0  0
   29.5161   27.3180    0.3242 C   0  0  0  0  0  0  0  0  0  0  0  0
   36.1632   23.1603    4.9460 C   0  0  0  0  0  0  0  0  0  0  0  0
   30.4965   21.9067    4.8039 C   0  0  0  0  0  0  0  0  0  0  0  0
   27.0621   31.0968    0.3264 Cl  0  0  0  0  0  0  0  0  0  0  0  0
   29.4929   21.9285    3.8562 N   0  0  0  0  0  0  0  0  0  0  0  0
   29.6909   28.3174   -0.6412 C   0  0  0  0  0  0  0  0  0  0  0  0
   28.4657   27.4793    1.2723 C   0  0  0  0  0  0  0  0  0  0  0  0
   27.9650   29.6435    0.3421 C   0  0  0  0  0  0  0  0  0  0  0  0
   31.3716   23.8981    3.8980 C   0  0  0  0  0  0  0  0  0  0  0  0
   27.6935   28.6308    1.2746 C   0  0  0  0  0  0  0  0  0  0  0  0
   35.3837   23.4395    3.7935 C   0  0  0  0  0  0  0  0  0  0  0  0
   33.9438   24.7428    5.1867 C   0  0  0  0  0  0  0  0  0  0  0  0
   31.9335   27.5431    4.2145 O   0  0  0  0  0  0  0  0  0  0  0  0
   30.6836   24.3236    1.5686 C   0  0  0  0  0  0  0  0  0  0  0  0
   30.3359   26.1672    0.2213 O   0  0  0  0  0  0  0  0  0  0  0  0
   34.7673   24.5793    6.3107 C   0  0  0  0  0  0  0  0  0  0  0  0
   28.6841   23.1721    1.8580 O   0  0  0  0  0  0  0  0  0  0  0  0
   31.0941   25.6634    1.3144 C   0  0  0  0  0  0  0  0  0  0  0  0
   31.6165   26.7289    2.0610 C   0  0  0  0  0  0  0  0  0  0  0  0
   31.7920   26.5509    3.4870 C   0  0  0  0  0  0  0  0  0  0  0  0
   31.4278   22.9185    4.8688 C   0  0  0  0  0  0  0  0  0  0  0  0
   33.3911   24.7868    2.8616 C   0  0  0  0  0  0  0  0  0  0  0  0
   29.4805   23.8962    0.8072 C   0  0  0  0  0  0  0  0  0  0  0  0
   32.3696   27.7606    1.4113 C   0  0  0  0  0  0  0  0  0  0  0  0
   32.1622   25.1702    3.8013 C   0  0  0  0  0  0  0  0  0  0  0  0
   32.6929   25.3899    5.2732 N   0  0  0  0  0  0  0  0  0  0  0  0
   29.5285   22.8993    2.8969 C   0  0  0  0  0  0  0  0  0  0  0  0
  1 13  1  0
  1 18  1  0
  1 31  1  0
  2  6  2  0
  2 20  1  0
  3 10  2  0
  3 12  1  0
  4 15  2  0
  4 16  1  0
  4 26  1  0
  5 10  1  0
  5 11  1  0
  5 19  1  0
  6 15  1  0
  7  9  1  0
  7 25  1  0
  8 12  1  0
  9 31  2  0
 11 14  2  0
 12 14  1  0
 13 25  2  0
 13 29  1  0
 16 20  2  0
 16 30  1  0
 17 24  2  0
 18 22  1  0
 18 27  1  0
 19 22  1  0
 21 27  1  0
 21 31  1  0
 22 23  1  0
 23 24  1  0
 23 28  1  0
 24 29  1  0
 26 29  1  0
 29 30  1  0
M  END
>  <ID>  (1) 
conformer_0

$$$$
