
     RDKit          3D

 21 23  0  0  0  0  0  0  0  0999 V2000
   33.1189   23.3021    2.9136 C   0  0  0  0  0  0  0  0  0  0  0  0
   33.1186   25.9666    5.6991 C   0  0  0  0  0  0  0  0  0  0  0  0
   35.5148   23.9039    4.2769 C   0  0  0  0  0  0  0  0  0  0  0  0
   30.7329   22.9283    1.0155 C   0  0  0  0  0  0  0  0  0  0  0  0
   31.4652   27.1824    4.1655 C   0  0  0  0  0  0  0  0  0  0  0  0
   31.6583   26.1117    0.6701 C   0  0  0  0  0  0  0  0  0  0  0  0
   34.3396   24.1349    4.9980 O   0  0  0  0  0  0  0  0  0  0  0  0
   30.7564   25.9343    1.9541 C   0  0  0  0  0  0  0  0  0  0  0  0
   29.8387   27.4452   -0.3061 C   0  0  0  0  0  0  0  0  0  0  0  0
   28.8190   26.7716    0.6151 C   0  0  0  0  0  0  0  0  0  0  0  0
   29.2671   25.6758    1.5343 C   0  0  0  0  0  0  0  0  0  0  0  0
   33.5537   25.2480    4.4529 C   0  0  0  0  0  0  0  0  0  0  0  0
   30.2248   23.5458    2.4159 C   0  0  0  0  0  0  0  0  0  0  0  0
   30.8691   27.2381    2.7757 C   0  0  0  0  0  0  0  0  0  0  0  0
   31.4063   29.1955    5.7133 O   0  0  0  0  0  0  0  0  0  0  0  0
   32.5344   28.3545    6.0230 C   0  0  0  0  0  0  0  0  0  0  0  0
   31.1194   24.7660    2.8571 C   0  0  0  0  0  0  0  0  0  0  0  0
   32.2129   27.0474    5.4253 C   0  0  0  0  0  0  0  0  0  0  0  0
   28.8670   24.2839    1.9896 C   0  0  0  0  0  0  0  0  0  0  0  0
   31.3297   27.5241    0.1388 C   0  0  0  0  0  0  0  0  0  0  0  0
   32.5333   24.7122    3.4377 C   0  0  0  0  0  0  0  0  0  0  0  0
  1 21  1  0
  2 12  1  0
  2 18  1  0
  3  7  1  0
  4 13  1  0
  5 14  2  0
  5 18  2  0
  6  8  1  0
  6 20  1  0
  7 12  1  0
  8 11  1  0
  8 14  1  0
  8 17  1  0
  9 10  1  0
  9 20  1  0
 10 11  1  0
 11 19  1  0
 12 21  1  0
 13 17  1  0
 13 19  1  0
 15 16  1  0
 16 18  1  0
 17 21  1  0
M  END
>  <ID>  (1) 
conformer_0

$$$$
