
     RDKit          3D

 31 35  0  0  0  0  0  0  0  0999 V2000
   33.1988   23.6754    4.0843 C   0  0  0  0  0  0  0  0  0  0  0  0
   31.8280   23.1271    3.9065 C   0  0  0  0  0  0  0  0  0  0  0  0
   33.2046   24.7173    5.0894 C   0  0  0  0  0  0  0  0  0  0  0  0
   29.1743   28.4872    0.2747 C   0  0  0  0  0  0  0  0  0  0  0  0
   34.8564   23.1138    9.3723 O   0  0  0  0  0  0  0  0  0  0  0  0
   29.4692   23.6407    2.9458 C   0  0  0  0  0  0  0  0  0  0  0  0
   30.4696   27.2083    1.8762 C   0  0  0  0  0  0  0  0  0  0  0  0
   31.0314   23.7027    2.7832 C   0  0  0  0  0  0  0  0  0  0  0  0
   27.8204   28.4994   -0.3147 C   0  0  0  0  0  0  0  0  0  0  0  0
   30.3769   26.0083    2.5957 O   0  0  0  0  0  0  0  0  0  0  0  0
   32.6352   21.5043    5.5745 C   0  0  0  0  0  0  0  0  0  0  0  0
   35.0228   23.3514    8.0395 C   0  0  0  0  0  0  0  0  0  0  0  0
   29.1484   27.7544    1.5489 C   0  0  0  0  0  0  0  0  0  0  0  0
   28.2803   28.3551    2.5747 C   0  0  0  0  0  0  0  0  0  0  0  0
   34.0934   25.9221    5.4357 C   0  0  0  0  0  0  0  0  0  0  0  0
   26.6765   28.5926    0.7481 C   0  0  0  0  0  0  0  0  0  0  0  0
   28.7891   23.8684    1.6055 C   0  0  0  0  0  0  0  0  0  0  0  0
   35.1710   25.2455    6.3802 C   0  0  0  0  0  0  0  0  0  0  0  0
   31.2951   27.2921    0.5785 C   0  0  0  0  0  0  0  0  0  0  0  0
   28.8020   29.8257    0.0782 C   0  0  0  0  0  0  0  0  0  0  0  0
   31.5101   21.9958    4.7061 C   0  0  0  0  0  0  0  0  0  0  0  0
   31.5330   25.1877    2.7481 C   0  0  0  0  0  0  0  0  0  0  0  0
   32.7661   26.1149    2.8670 C   0  0  0  0  0  0  0  0  0  0  0  0
   33.5367   22.4938    6.2147 C   0  0  0  0  0  0  0  0  0  0  0  0
   34.3767   24.6715    7.6136 C   0  0  0  0  0  0  0  0  0  0  0  0
   30.4791   28.1196   -0.4073 C   0  0  0  0  0  0  0  0  0  0  0  0
   34.6338   22.1317    7.2146 C   0  0  0  0  0  0  0  0  0  0  0  0
   31.3997   23.0542    1.6012 O   0  0  0  0  0  0  0  0  0  0  0  0
   27.2215   29.2989    2.0138 C   0  0  0  0  0  0  0  0  0  0  0  0
   35.4913   23.9288    5.4924 C   0  0  0  0  0  0  0  0  0  0  0  0
   34.0275   23.5083    5.2281 C   0  0  0  0  0  0  0  0  0  0  0  0
  1  2  1  0
  1  3  1  0
  1 31  1  0
  2  8  1  0
  2 21  1  0
  3 15  1  0
  4  9  1  0
  4 13  1  0
  4 20  1  0
  4 26  1  0
  5 12  1  0
  6  8  1  0
  6 17  1  0
  7 10  1  0
  7 13  1  0
  7 19  1  0
  8 22  1  0
  8 28  1  0
  9 16  1  0
 10 22  1  0
 11 21  1  0
 11 24  1  0
 12 25  1  0
 12 27  1  0
 13 14  1  0
 14 29  1  0
 15 18  1  0
 16 29  1  0
 18 25  1  0
 18 30  1  0
 19 26  1  0
 22 23  1  0
 24 27  1  0
 24 31  1  0
 30 31  1  0
M  END
>  <ID>  (1) 
conformer_0

$$$$
