
     RDKit          3D

  3  2  0  0  0  0  0  0  0  0999 V2000
    8.7560   11.8158   11.5576 C   0  0  0  0  0  0  0  0  0  0  0  0
    8.5560   11.1158   12.8576 C   0  0  0  0  0  0  0  0  0  0  0  0
    7.6560   10.5158   13.4576 N   0  0  0  0  0  0  0  0  0  0  0  0
  2  1  1  0
  3  2  2  0
M  END
>  <ID>  (1) 
conformer_0

$$$$
