
     RDKit          3D

 13 15  0  0  0  0  0  0  0  0999 V2000
    7.5351   10.8843   13.7326 N   0  0  0  0  0  0  0  0  0  0  0  0
    8.4351   11.2843   12.7326 C   0  0  0  0  0  0  0  0  0  0  0  0
    7.4351   11.6843   14.7326 C   0  0  0  0  0  0  0  0  0  0  0  0
    8.5351   12.5843   14.8326 C   0  0  0  0  0  0  0  0  0  0  0  0
    9.3351   12.0843   13.5326 C   0  0  0  0  0  0  0  0  0  0  0  0
    6.4351   11.8843   15.6326 N   0  0  0  0  0  0  0  0  0  0  0  0
    8.3351   13.4843   15.8326 C   0  0  0  0  0  0  0  0  0  0  0  0
    7.3351   13.9843   16.5326 C   0  0  0  0  0  0  0  0  0  0  0  0
    8.9351   11.1843   11.4326 C   0  0  0  0  0  0  0  0  0  0  0  0
   10.2351   12.7843   12.9326 N   0  0  0  0  0  0  0  0  0  0  0  0
   10.7351   12.8843   11.6326 C   0  0  0  0  0  0  0  0  0  0  0  0
   10.1351   11.8843   10.8326 C   0  0  0  0  0  0  0  0  0  0  0  0
    8.0351   12.7843   17.0326 O   0  0  0  0  0  0  0  0  0  0  0  0
  2  1  2  0
  3  1  1  0
  4  3  1  0
  5  2  1  0
  5  4  2  0
  6  3  1  0
  7  4  1  0
  8  7  1  0
  9  2  1  0
 10  5  1  0
 11 10  2  0
 12  9  2  0
 12 11  1  0
 13  7  1  0
 13  8  1  0
M  END
>  <ID>  (1) 
conformer_0

$$$$
