
     RDKit          3D

 23 27  0  0  0  0  0  0  0  0999 V2000
    7.4714   11.7167   14.4948 C   0  0  0  0  0  0  0  0  0  0  0  0
    7.4714   10.7167   13.5948 N   0  0  0  0  0  0  0  0  0  0  0  0
    8.6714   12.4167   14.5948 C   0  0  0  0  0  0  0  0  0  0  0  0
    9.3714   12.5167   13.2948 C   0  0  0  0  0  0  0  0  0  0  0  0
    8.8714   13.5167   15.3948 C   0  0  0  0  0  0  0  0  0  0  0  0
    7.5714   13.7167   16.0948 C   0  0  0  0  0  0  0  0  0  0  0  0
    6.3714   12.0167   15.1948 N   0  0  0  0  0  0  0  0  0  0  0  0
   10.2714   13.6167   13.4948 N   0  0  0  0  0  0  0  0  0  0  0  0
   11.1714   14.0167   12.4948 C   0  0  0  0  0  0  0  0  0  0  0  0
    9.8714   14.4167   15.6948 C   0  0  0  0  0  0  0  0  0  0  0  0
    9.3714   11.5167   12.4948 N   0  0  0  0  0  0  0  0  0  0  0  0
   11.6714   15.4167   12.5948 C   0  0  0  0  0  0  0  0  0  0  0  0
   13.0714   15.6167   12.1948 C   0  0  0  0  0  0  0  0  0  0  0  0
    8.2714   10.8167   12.4948 C   0  0  0  0  0  0  0  0  0  0  0  0
   11.4714   15.8167   13.9948 C   0  0  0  0  0  0  0  0  0  0  0  0
   12.4714   16.8167   14.3948 C   0  0  0  0  0  0  0  0  0  0  0  0
   10.7714   15.3167   15.1948 C   0  0  0  0  0  0  0  0  0  0  0  0
   13.6714   16.4167   13.2948 C   0  0  0  0  0  0  0  0  0  0  0  0
    9.4714   14.9167   16.9948 N   0  0  0  0  0  0  0  0  0  0  0  0
    8.0714   14.7167   17.0948 O   0  0  0  0  0  0  0  0  0  0  0  0
    9.9714   16.1167   14.2948 C   0  0  0  0  0  0  0  0  0  0  0  0
   11.4714   13.3167   13.4948 N   0  0  0  0  0  0  0  0  0  0  0  0
    9.2714   17.2167   14.4948 O   0  0  0  0  0  0  0  0  0  0  0  0
  2  1  2  0
  3  1  1  0
  4  3  2  0
  5  3  1  0
  6  5  1  0
  7  1  1  0
  8  4  1  0
  9  8  1  0
 10  5  1  0
 11  4  1  0
 12  9  1  0
 13 12  1  0
 14  2  1  0
 14 11  2  0
 15 12  1  0
 16 15  1  0
 17 10  1  0
 17 15  1  0
 18 13  1  0
 18 16  1  0
 19 10  1  0
 20  6  1  0
 20 19  1  0
 21 15  1  0
 21 17  1  0
 22  9  1  0
 23 21  1  0
M  END
>  <ID>  (1) 
conformer_0

$$$$
