
     RDKit          3D

 31 33  0  0  0  0  0  0  0  0999 V2000
    7.4714   11.7167   14.4948 C   0  0  0  0  0  0  0  0  0  0  0  0
    7.4714   10.7167   13.5948 N   0  0  0  0  0  0  0  0  0  0  0  0
    8.6714   12.4167   14.5948 C   0  0  0  0  0  0  0  0  0  0  0  0
    9.3714   12.5167   13.2948 C   0  0  0  0  0  0  0  0  0  0  0  0
    8.8714   13.5167   15.3948 C   0  0  0  0  0  0  0  0  0  0  0  0
    7.5714   13.7167   16.0948 C   0  0  0  0  0  0  0  0  0  0  0  0
    6.3714   12.0167   15.1948 N   0  0  0  0  0  0  0  0  0  0  0  0
   10.3714   13.6167   13.3948 N   0  0  0  0  0  0  0  0  0  0  0  0
    9.8714   14.4167   15.5948 C   0  0  0  0  0  0  0  0  0  0  0  0
    9.0714   11.8167   12.1948 N   0  0  0  0  0  0  0  0  0  0  0  0
   11.5714   13.2167   12.5948 C   0  0  0  0  0  0  0  0  0  0  0  0
   11.0714   13.1167   11.1948 C   0  0  0  0  0  0  0  0  0  0  0  0
   12.3714   14.4167   12.6948 C   0  0  0  0  0  0  0  0  0  0  0  0
    8.2714   10.7167   12.4948 C   0  0  0  0  0  0  0  0  0  0  0  0
   10.5714   14.7167   14.3948 C   0  0  0  0  0  0  0  0  0  0  0  0
   10.7714   16.0167   13.6948 C   0  0  0  0  0  0  0  0  0  0  0  0
   12.0714   16.6167   13.8948 N   0  0  0  0  0  0  0  0  0  0  0  0
   10.4714   16.0167   12.3948 O   0  0  0  0  0  0  0  0  0  0  0  0
   12.1714   18.0167   13.5948 C   0  0  0  0  0  0  0  0  0  0  0  0
   13.2714   18.7167   14.2948 C   0  0  0  0  0  0  0  0  0  0  0  0
   12.9714   19.7167   15.1948 N   0  0  0  0  0  0  0  0  0  0  0  0
   14.3714   18.1167   14.5948 O   0  0  0  0  0  0  0  0  0  0  0  0
   13.9714   20.2167   16.0948 C   0  0  0  0  0  0  0  0  0  0  0  0
   15.0714   20.9167   15.3948 C   0  0  0  0  0  0  0  0  0  0  0  0
   14.4714   19.2167   16.9948 C   0  0  0  0  0  0  0  0  0  0  0  0
   14.6714   22.1167   14.5948 C   0  0  0  0  0  0  0  0  0  0  0  0
   13.3714   22.6167   14.5948 O   0  0  0  0  0  0  0  0  0  0  0  0
   15.9714   21.2167   16.4948 O   0  0  0  0  0  0  0  0  0  0  0  0
    7.4714   14.6167   17.0948 O   0  0  0  0  0  0  0  0  0  0  0  0
    6.8714   12.7167   16.1948 N   0  0  0  0  0  0  0  0  0  0  0  0
    8.3714   15.7167   17.1948 C   0  0  0  0  0  0  0  0  0  0  0  0
  2  1  2  0
  3  1  1  0
  4  3  1  0
  5  3  2  0
  6  5  1  0
  7  1  1  0
  8  4  1  0
  9  5  1  0
 10  4  1  0
 11  8  1  0
 12 11  1  0
 13 11  1  0
 14  2  1  0
 14 10  1  0
 15  8  1  0
 15  9  2  0
 16 15  1  0
 17 16  1  0
 18 16  1  0
 19 17  1  0
 20 19  1  0
 21 20  1  0
 22 20  2  0
 23 21  1  0
 24 23  1  0
 25 23  1  0
 26 24  1  0
 27 26  1  0
 28 24  1  0
 29  6  1  0
 30  6  2  0
 30  7  1  0
 31 29  1  0
M  END
>  <ID>  (1) 
conformer_0

$$$$
