
     RDKit          3D

 28 33  0  0  0  0  0  0  0  0999 V2000
    7.5107   11.9255   14.8794 C   0  0  0  0  0  0  0  0  0  0  0  0
    7.2107   11.0255   13.9794 N   0  0  0  0  0  0  0  0  0  0  0  0
    6.7107   12.2255   15.8794 N   0  0  0  0  0  0  0  0  0  0  0  0
    8.7107   12.7255   14.6794 C   0  0  0  0  0  0  0  0  0  0  0  0
    9.4107   12.2255   13.4794 C   0  0  0  0  0  0  0  0  0  0  0  0
    9.0107   11.5255   12.4794 N   0  0  0  0  0  0  0  0  0  0  0  0
   10.4107   13.2255   13.1794 N   0  0  0  0  0  0  0  0  0  0  0  0
   11.0107   13.0255   11.8794 C   0  0  0  0  0  0  0  0  0  0  0  0
    9.3107   14.0255   15.0794 C   0  0  0  0  0  0  0  0  0  0  0  0
   10.3107   14.4255   13.9794 C   0  0  0  0  0  0  0  0  0  0  0  0
    9.6107   14.4255   16.4794 C   0  0  0  0  0  0  0  0  0  0  0  0
   10.3107   12.4255   10.7794 C   0  0  0  0  0  0  0  0  0  0  0  0
    9.4107   11.3255   11.1794 C   0  0  0  0  0  0  0  0  0  0  0  0
    8.0107   10.7255   12.9794 C   0  0  0  0  0  0  0  0  0  0  0  0
   11.0107   15.5255   14.5794 C   0  0  0  0  0  0  0  0  0  0  0  0
   12.0107   16.3255   14.3794 N   0  0  0  0  0  0  0  0  0  0  0  0
   12.4107   17.5255   14.9794 C   0  0  0  0  0  0  0  0  0  0  0  0
   13.0107   15.8255   13.3794 C   0  0  0  0  0  0  0  0  0  0  0  0
   11.6107   17.7255   16.1794 C   0  0  0  0  0  0  0  0  0  0  0  0
   13.9107   17.5255   14.9794 C   0  0  0  0  0  0  0  0  0  0  0  0
   13.8107   16.7255   12.5794 C   0  0  0  0  0  0  0  0  0  0  0  0
   14.1107   16.3255   11.1794 C   0  0  0  0  0  0  0  0  0  0  0  0
   10.5107   15.6255   15.9794 C   0  0  0  0  0  0  0  0  0  0  0  0
   10.5107   16.8255   16.5794 C   0  0  0  0  0  0  0  0  0  0  0  0
   13.3107   18.1255   12.5794 O   0  0  0  0  0  0  0  0  0  0  0  0
   13.6107   18.7255   11.3794 C   0  0  0  0  0  0  0  0  0  0  0  0
   14.7107   18.6255   10.3794 C   0  0  0  0  0  0  0  0  0  0  0  0
   14.9107   17.1255   10.2794 O   0  0  0  0  0  0  0  0  0  0  0  0
  2  1  1  0
  3  1  1  0
  4  1  2  0
  5  4  1  0
  6  5  1  0
  7  5  1  0
  8  7  1  0
  9  4  1  0
 10  7  1  0
 10  9  2  0
 11  9  1  0
 12  8  1  0
 13  6  1  0
 13 12  1  0
 14  2  2  0
 14  6  1  0
 15 10  1  0
 16 15  1  0
 17 16  1  0
 18 16  1  0
 19 17  2  0
 20 17  1  0
 21 18  1  0
 22 21  1  0
 23 11  1  0
 23 15  1  0
 24 19  1  0
 24 23  2  0
 25 21  1  0
 26 25  1  0
 27 26  1  0
 28 22  1  0
 28 27  1  0
M  END
>  <ID>  (1) 
conformer_0

$$$$
