
     RDKit          3D

 30 35  0  0  0  0  0  0  0  0999 V2000
    7.4714   11.7167   14.4948 C   0  0  0  0  0  0  0  0  0  0  0  0
    7.4714   10.7167   13.5948 N   0  0  0  0  0  0  0  0  0  0  0  0
    8.7714   12.3167   14.7948 C   0  0  0  0  0  0  0  0  0  0  0  0
    9.4714   12.4167   13.4948 C   0  0  0  0  0  0  0  0  0  0  0  0
    6.5714   11.6167   15.5948 N   0  0  0  0  0  0  0  0  0  0  0  0
    9.4714   11.6167   12.5948 N   0  0  0  0  0  0  0  0  0  0  0  0
    8.8714   13.6167   15.3948 C   0  0  0  0  0  0  0  0  0  0  0  0
   10.4714   13.4167   13.4948 N   0  0  0  0  0  0  0  0  0  0  0  0
   11.3714   13.2167   12.3948 C   0  0  0  0  0  0  0  0  0  0  0  0
   10.8714   12.9167   11.0948 C   0  0  0  0  0  0  0  0  0  0  0  0
    8.5714   10.6167   12.6948 C   0  0  0  0  0  0  0  0  0  0  0  0
    9.1714   14.1167   16.6948 C   0  0  0  0  0  0  0  0  0  0  0  0
   10.1714   15.0167   16.8948 C   0  0  0  0  0  0  0  0  0  0  0  0
   10.0714   14.3167   14.4948 C   0  0  0  0  0  0  0  0  0  0  0  0
   10.0714   15.7167   14.6948 C   0  0  0  0  0  0  0  0  0  0  0  0
   10.3714   16.1167   16.0948 C   0  0  0  0  0  0  0  0  0  0  0  0
   11.2714   17.1167   16.4948 C   0  0  0  0  0  0  0  0  0  0  0  0
   12.3714   14.2167   12.3948 C   0  0  0  0  0  0  0  0  0  0  0  0
   12.4714   14.9167   11.0948 C   0  0  0  0  0  0  0  0  0  0  0  0
   11.1714   13.4167    9.7948 C   0  0  0  0  0  0  0  0  0  0  0  0
   12.3714   14.2167    9.8948 C   0  0  0  0  0  0  0  0  0  0  0  0
   11.9714   18.2167   16.3948 C   0  0  0  0  0  0  0  0  0  0  0  0
   12.8714   19.0167   15.6948 C   0  0  0  0  0  0  0  0  0  0  0  0
   13.3714   19.6167   14.5948 C   0  0  0  0  0  0  0  0  0  0  0  0
   13.8714   18.9167   13.4948 C   0  0  0  0  0  0  0  0  0  0  0  0
   13.7714   17.5167   13.5948 C   0  0  0  0  0  0  0  0  0  0  0  0
   14.2714   16.8167   14.7948 C   0  0  0  0  0  0  0  0  0  0  0  0
   14.1714   19.0167   15.6948 N   0  0  0  0  0  0  0  0  0  0  0  0
   14.4714   17.5167   15.9948 C   0  0  0  0  0  0  0  0  0  0  0  0
   13.9714   16.6167   16.0948 O   0  0  0  0  0  0  0  0  0  0  0  0
  2  1  2  0
  3  1  1  0
  4  3  2  0
  5  1  1  0
  6  4  1  0
  7  3  1  0
  8  4  1  0
  9  8  1  0
 10  9  2  0
 11  2  1  0
 11  6  2  0
 12  7  1  0
 13 12  1  0
 14  7  2  0
 14  8  1  0
 15 14  1  0
 16 13  1  0
 16 15  1  0
 17 16  2  0
 18  9  1  0
 19 18  2  0
 20 10  1  0
 21 19  1  0
 21 20  2  0
 22 17  2  0
 23 22  1  0
 24 23  1  0
 25 24  1  0
 26 25  1  0
 27 26  1  0
 28 23  1  0
 28 24  1  0
 29 27  1  0
 29 28  1  0
 30 29  1  0
M  END
>  <ID>  (1) 
conformer_0

$$$$
