
     RDKit          3D

 33 39  0  0  0  0  0  0  0  0999 V2000
    7.4714   11.7167   14.4948 C   0  0  0  0  0  0  0  0  0  0  0  0
    7.4714   10.7167   13.5948 N   0  0  0  0  0  0  0  0  0  0  0  0
    8.6714   12.4167   14.5948 C   0  0  0  0  0  0  0  0  0  0  0  0
    9.3714   12.5167   13.2948 C   0  0  0  0  0  0  0  0  0  0  0  0
    8.8714   13.5167   15.3948 C   0  0  0  0  0  0  0  0  0  0  0  0
    7.5714   13.7167   16.0948 C   0  0  0  0  0  0  0  0  0  0  0  0
    6.3714   12.0167   15.1948 N   0  0  0  0  0  0  0  0  0  0  0  0
   10.3714   13.6167   13.3948 N   0  0  0  0  0  0  0  0  0  0  0  0
    9.8714   14.4167   15.5948 C   0  0  0  0  0  0  0  0  0  0  0  0
    9.0714   11.8167   12.2948 N   0  0  0  0  0  0  0  0  0  0  0  0
   11.3714   13.3167   12.3948 C   0  0  0  0  0  0  0  0  0  0  0  0
   10.8714   13.1167   11.0948 C   0  0  0  0  0  0  0  0  0  0  0  0
    8.3714   10.7167   12.5948 C   0  0  0  0  0  0  0  0  0  0  0  0
    9.8714   15.7167   16.2948 C   0  0  0  0  0  0  0  0  0  0  0  0
   10.5714   14.5167   14.3948 N   0  0  0  0  0  0  0  0  0  0  0  0
   12.3714   14.4167   12.4948 C   0  0  0  0  0  0  0  0  0  0  0  0
   12.5714   14.9167   11.0948 C   0  0  0  0  0  0  0  0  0  0  0  0
   11.1714   13.5167    9.7948 C   0  0  0  0  0  0  0  0  0  0  0  0
   12.5714   14.2167    9.8948 C   0  0  0  0  0  0  0  0  0  0  0  0
   10.7714   16.6167   15.5948 N   0  0  0  0  0  0  0  0  0  0  0  0
   11.6714   17.4167   16.2948 C   0  0  0  0  0  0  0  0  0  0  0  0
   10.1714   17.0167   14.2948 C   0  0  0  0  0  0  0  0  0  0  0  0
   12.8714   18.0167   15.7948 C   0  0  0  0  0  0  0  0  0  0  0  0
   14.2714   17.8167   16.0948 C   0  0  0  0  0  0  0  0  0  0  0  0
   12.6714   19.4167   15.4948 N   0  0  0  0  0  0  0  0  0  0  0  0
   13.8714   20.1167   15.3948 C   0  0  0  0  0  0  0  0  0  0  0  0
   14.6714   19.5167   14.2948 C   0  0  0  0  0  0  0  0  0  0  0  0
   13.9714   21.2167   15.9948 O   0  0  0  0  0  0  0  0  0  0  0  0
   11.0714   18.2167   17.1948 O   0  0  0  0  0  0  0  0  0  0  0  0
   13.7714   17.2167   14.8948 C   0  0  0  0  0  0  0  0  0  0  0  0
   14.0714   19.5167   13.0948 O   0  0  0  0  0  0  0  0  0  0  0  0
   14.0714   18.3167   13.7948 C   0  0  0  0  0  0  0  0  0  0  0  0
    6.7714   12.7167   16.3948 C   0  0  0  0  0  0  0  0  0  0  0  0
  2  1  2  0
  3  1  1  0
  4  3  1  0
  5  3  2  0
  6  5  1  0
  7  1  1  0
  8  4  1  0
  9  5  1  0
 10  4  1  0
 11  8  1  0
 12 11  2  0
 13  2  1  0
 13 10  1  0
 14  9  1  0
 15  8  1  0
 15  9  2  0
 16 11  1  0
 17 16  2  0
 18 12  1  0
 19 17  1  0
 19 18  2  0
 20 14  1  0
 21 20  1  0
 22 20  1  0
 23 21  1  0
 24 23  1  0
 25 23  1  0
 26 25  1  0
 27 26  1  0
 28 26  2  0
 29 21  2  0
 30 23  1  0
 30 24  1  0
 31 27  1  0
 32 27  1  0
 32 30  1  0
 32 31  1  0
 33  6  1  0
 33  7  1  0
M  END
>  <ID>  (1) 
conformer_0

$$$$
