
     RDKit          3D

 26 30  0  0  0  0  0  0  0  0999 V2000
    7.7507   11.9268   14.7787 C   0  0  0  0  0  0  0  0  0  0  0  0
    7.3507   10.9268   13.8787 N   0  0  0  0  0  0  0  0  0  0  0  0
    8.9507   12.5268   14.6787 C   0  0  0  0  0  0  0  0  0  0  0  0
    9.5507   12.3268   13.3787 C   0  0  0  0  0  0  0  0  0  0  0  0
    9.1507   13.8268   15.1787 C   0  0  0  0  0  0  0  0  0  0  0  0
    6.8507   12.1268   15.7787 N   0  0  0  0  0  0  0  0  0  0  0  0
   10.5507   13.4268   13.1787 N   0  0  0  0  0  0  0  0  0  0  0  0
    9.2507   11.5268   12.4787 N   0  0  0  0  0  0  0  0  0  0  0  0
   11.1507   13.1268   11.8787 C   0  0  0  0  0  0  0  0  0  0  0  0
   10.6507   12.5268   10.7787 C   0  0  0  0  0  0  0  0  0  0  0  0
    8.2507   10.7268   12.8787 C   0  0  0  0  0  0  0  0  0  0  0  0
   10.9507   13.1268    9.4787 C   0  0  0  0  0  0  0  0  0  0  0  0
   11.8507   14.3268   11.4787 C   0  0  0  0  0  0  0  0  0  0  0  0
   10.9507   14.7268   13.6787 C   0  0  0  0  0  0  0  0  0  0  0  0
   10.4507   15.8268   14.3787 C   0  0  0  0  0  0  0  0  0  0  0  0
    9.4507   16.2268   15.2787 C   0  0  0  0  0  0  0  0  0  0  0  0
   11.6507   16.6268   14.6787 C   0  0  0  0  0  0  0  0  0  0  0  0
   11.3507   17.5268   15.7787 N   0  0  0  0  0  0  0  0  0  0  0  0
   10.0507   17.2268   16.3787 C   0  0  0  0  0  0  0  0  0  0  0  0
    9.8507   17.6268   17.5787 O   0  0  0  0  0  0  0  0  0  0  0  0
   12.7507   14.5268   10.3787 C   0  0  0  0  0  0  0  0  0  0  0  0
   12.3507   13.5268    9.3787 C   0  0  0  0  0  0  0  0  0  0  0  0
   12.0507   15.1268   12.7787 N   0  0  0  0  0  0  0  0  0  0  0  0
    9.3507   14.2268   16.5787 C   0  0  0  0  0  0  0  0  0  0  0  0
    8.1507   14.2268   16.0787 O   0  0  0  0  0  0  0  0  0  0  0  0
   12.6507   17.2268   13.7787 C   0  0  0  0  0  0  0  0  0  0  0  0
  2  1  2  0
  3  1  1  0
  4  3  2  0
  5  3  1  0
  6  1  1  0
  7  4  1  0
  8  4  1  0
  9  7  1  0
 10  9  2  0
 11  2  1  0
 11  8  2  0
 12 10  1  0
 13  9  1  0
 14  7  1  0
 15 14  1  0
 16 15  1  0
 17 15  1  0
 18 17  1  0
 19 16  1  0
 19 18  1  0
 20 19  2  0
 21 13  2  0
 22 12  2  0
 22 21  1  0
 23 13  1  0
 23 14  2  0
 24  5  1  0
 25  5  1  0
 25 24  1  0
 26 17  1  0
M  END
>  <ID>  (1) 
conformer_0

$$$$
