
     RDKit          3D

 31 35  0  0  0  0  0  0  0  0999 V2000
    7.4714   11.7167   14.4948 C   0  0  0  0  0  0  0  0  0  0  0  0
    7.4714   10.7167   13.5948 N   0  0  0  0  0  0  0  0  0  0  0  0
    8.6714   12.4167   14.5948 C   0  0  0  0  0  0  0  0  0  0  0  0
    9.3714   12.5167   13.2948 C   0  0  0  0  0  0  0  0  0  0  0  0
    8.8714   13.5167   15.3948 C   0  0  0  0  0  0  0  0  0  0  0  0
    7.5714   13.7167   16.0948 C   0  0  0  0  0  0  0  0  0  0  0  0
    6.3714   12.0167   15.1948 N   0  0  0  0  0  0  0  0  0  0  0  0
   10.3714   13.6167   13.3948 N   0  0  0  0  0  0  0  0  0  0  0  0
    9.8714   14.4167   15.5948 C   0  0  0  0  0  0  0  0  0  0  0  0
    9.2714   11.6167   12.3948 N   0  0  0  0  0  0  0  0  0  0  0  0
   11.5714   13.3167   12.5948 C   0  0  0  0  0  0  0  0  0  0  0  0
    8.3714   10.6167   12.5948 C   0  0  0  0  0  0  0  0  0  0  0  0
   11.5714   14.4167   11.5948 C   0  0  0  0  0  0  0  0  0  0  0  0
   11.3714   15.7167   12.2948 C   0  0  0  0  0  0  0  0  0  0  0  0
   10.6714   14.6167   14.2948 C   0  0  0  0  0  0  0  0  0  0  0  0
   11.7714   15.5167   13.6948 C   0  0  0  0  0  0  0  0  0  0  0  0
   11.4714   17.0167   11.5948 N   0  0  0  0  0  0  0  0  0  0  0  0
   12.5714   17.9167   11.6948 C   0  0  0  0  0  0  0  0  0  0  0  0
   13.5714   17.7167   12.6948 C   0  0  0  0  0  0  0  0  0  0  0  0
   14.5714   18.7167   13.1948 N   0  0  0  0  0  0  0  0  0  0  0  0
   14.4714   19.2167   14.4948 C   0  0  0  0  0  0  0  0  0  0  0  0
   14.2714   18.4167   15.4948 O   0  0  0  0  0  0  0  0  0  0  0  0
   13.9714   20.6167   14.5948 C   0  0  0  0  0  0  0  0  0  0  0  0
   13.6714   21.3167   15.7948 N   0  0  0  0  0  0  0  0  0  0  0  0
   13.7714   21.1167   13.1948 C   0  0  0  0  0  0  0  0  0  0  0  0
   14.4714   21.8167   16.8948 C   0  0  0  0  0  0  0  0  0  0  0  0
   14.1714   23.0167   17.0948 O   0  0  0  0  0  0  0  0  0  0  0  0
   14.0714   20.4167   16.8948 C   0  0  0  0  0  0  0  0  0  0  0  0
   13.1714   20.0167   17.6948 O   0  0  0  0  0  0  0  0  0  0  0  0
    7.4714   14.5167   17.0948 O   0  0  0  0  0  0  0  0  0  0  0  0
    6.9714   12.6167   16.0948 N   0  0  0  0  0  0  0  0  0  0  0  0
  2  1  2  0
  3  1  1  0
  4  3  1  0
  5  3  2  0
  6  5  1  0
  7  1  1  0
  8  4  1  0
  9  5  1  0
 10  4  2  0
 11  8  1  0
 12  2  1  0
 12 10  1  0
 13 11  1  0
 14 13  1  0
 15  8  1  0
 15  9  2  0
 16 14  1  0
 16 15  1  0
 17 14  1  0
 18 17  2  3
 19 18  1  0
 20 19  1  0
 21 20  1  0
 22 21  2  0
 23 21  1  0
 24 23  1  0
 25 23  1  0
 26 24  1  0
 27 26  1  0
 28 24  1  0
 28 26  1  0
 29 28  1  0
 30  6  2  0
 31  6  1  0
 31  7  1  0
M  END
>  <ID>  (1) 
conformer_0

$$$$
