
     RDKit          3D

 31 38  0  0  0  0  0  0  0  0999 V2000
    7.4714   11.7167   14.4948 C   0  0  0  0  0  0  0  0  0  0  0  0
    7.4714   10.7167   13.5948 N   0  0  0  0  0  0  0  0  0  0  0  0
    8.6714   12.4167   14.5948 C   0  0  0  0  0  0  0  0  0  0  0  0
    9.3714   12.5167   13.2948 C   0  0  0  0  0  0  0  0  0  0  0  0
    8.8714   13.5167   15.3948 C   0  0  0  0  0  0  0  0  0  0  0  0
    7.5714   13.7167   16.0948 C   0  0  0  0  0  0  0  0  0  0  0  0
    6.3714   12.0167   15.1948 N   0  0  0  0  0  0  0  0  0  0  0  0
   10.3714   13.6167   13.3948 N   0  0  0  0  0  0  0  0  0  0  0  0
    9.8714   14.4167   15.5948 C   0  0  0  0  0  0  0  0  0  0  0  0
    9.2714   11.6167   12.3948 N   0  0  0  0  0  0  0  0  0  0  0  0
   11.3714   13.4167   12.3948 C   0  0  0  0  0  0  0  0  0  0  0  0
   11.0714   12.8167   11.1948 C   0  0  0  0  0  0  0  0  0  0  0  0
    8.2714   10.7167   12.5948 C   0  0  0  0  0  0  0  0  0  0  0  0
    9.3714   15.4167   16.5948 C   0  0  0  0  0  0  0  0  0  0  0  0
   12.0714   14.7167   12.1948 C   0  0  0  0  0  0  0  0  0  0  0  0
   10.9714   13.7167   10.0948 C   0  0  0  0  0  0  0  0  0  0  0  0
   12.6714   15.0167   10.9948 C   0  0  0  0  0  0  0  0  0  0  0  0
   12.1714   14.3167    9.7948 C   0  0  0  0  0  0  0  0  0  0  0  0
    7.2714   14.5167   16.8948 O   0  0  0  0  0  0  0  0  0  0  0  0
   10.0714   16.6167   16.4948 C   0  0  0  0  0  0  0  0  0  0  0  0
   10.8714   16.7167   15.2948 C   0  0  0  0  0  0  0  0  0  0  0  0
   12.1714   17.3167   15.4948 C   0  0  0  0  0  0  0  0  0  0  0  0
   11.9714   18.1167   16.4948 N   0  0  0  0  0  0  0  0  0  0  0  0
   12.9714   19.0167   16.6948 C   0  0  0  0  0  0  0  0  0  0  0  0
   13.7714   19.2167   15.4948 C   0  0  0  0  0  0  0  0  0  0  0  0
   13.2714   16.9167   14.7948 C   0  0  0  0  0  0  0  0  0  0  0  0
   14.2714   18.0167   14.8948 C   0  0  0  0  0  0  0  0  0  0  0  0
   10.7714   15.3167   14.7948 N   0  0  0  0  0  0  0  0  0  0  0  0
    6.9714   12.5167   16.1948 N   0  0  0  0  0  0  0  0  0  0  0  0
    9.9714   14.8167   13.9948 C   0  0  0  0  0  3  0  0  0  0  0  0
    8.7714   16.4167   16.0948 O   0  0  0  0  0  0  0  0  0  0  0  0
  2  1  2  0
  3  1  1  0
  4  3  1  0
  5  3  2  0
  6  5  1  0
  7  1  1  0
  8  4  1  0
  9  5  1  0
 10  4  2  0
 11  8  1  0
 12 11  2  0
 13  2  1  0
 13 10  1  0
 14  9  1  0
 15 11  1  0
 16 12  1  0
 17 15  2  0
 18 16  2  0
 18 17  1  0
 19  6  2  0
 20 14  2  0
 21 20  1  0
 22 21  1  0
 23 22  2  0
 24 23  1  0
 25 24  2  0
 26 22  1  0
 27 25  1  0
 27 26  2  0
 28  9  1  0
 28 21  1  0
 29  6  1  0
 29  7  1  0
 30  8  1  0
 30  9  1  0
 30 28  1  0
 31 14  1  0
 31 20  1  0
M  END
>  <ID>  (1) 
conformer_0

$$$$
