
     RDKit          3D

 25 30  0  0  0  0  0  0  0  0999 V2000
    7.4714   11.7167   14.4948 C   0  0  0  0  0  0  0  0  0  0  0  0
    7.4714   10.7167   13.5948 N   0  0  0  0  0  0  0  0  0  0  0  0
    8.6714   12.4167   14.5948 C   0  0  0  0  0  0  0  0  0  0  0  0
    9.3714   12.5167   13.2948 C   0  0  0  0  0  0  0  0  0  0  0  0
    8.8714   13.5167   15.3948 C   0  0  0  0  0  3  0  0  0  0  0  0
    7.5714   13.7167   16.0948 C   0  0  0  0  0  0  0  0  0  0  0  0
    6.3714   12.0167   15.1948 N   0  0  0  0  0  0  0  0  0  0  0  0
   10.2714   13.6167   13.4948 N   0  0  0  0  0  0  0  0  0  0  0  0
   11.1714   14.0167   12.4948 C   0  0  0  0  0  0  0  0  0  0  0  0
    9.8714   14.4167   15.6948 C   0  0  0  0  0  0  0  0  0  0  0  0
    9.3714   11.5167   12.4948 N   0  0  0  0  0  0  0  0  0  0  0  0
   11.6714   15.4167   12.5948 C   0  0  0  0  0  0  0  0  0  0  0  0
   13.0714   15.6167   12.1948 C   0  0  0  0  0  0  0  0  0  0  0  0
    8.2714   10.8167   12.4948 C   0  0  0  0  0  0  0  0  0  0  0  0
   11.1714   15.9167   13.8948 C   0  0  0  0  0  0  0  0  0  0  0  0
   10.6714   15.4167   15.1948 C   0  0  0  0  0  0  0  0  0  0  0  0
   13.7714   16.3167   13.2948 C   0  0  0  0  0  0  0  0  0  0  0  0
   12.9714   17.5167   13.6948 C   0  0  0  0  0  0  0  0  0  0  0  0
   11.4714   17.3167   13.8948 C   0  0  0  0  0  0  0  0  0  0  0  0
    9.2714   15.1167   16.7948 N   0  0  0  0  0  0  0  0  0  0  0  0
    7.9714   14.8167   16.9948 N   0  0  0  0  0  0  0  0  0  0  0  0
    9.7714   16.4167   17.2948 C   0  0  0  0  0  0  0  0  0  0  0  0
    8.7714   16.9167   18.1948 C   0  0  0  0  0  0  0  0  0  0  0  0
    9.0714   17.7167   19.1948 O   0  0  0  0  0  0  0  0  0  0  0  0
   10.5714   14.2167   14.5948 N   0  0  0  0  0  0  0  0  0  0  0  0
  2  1  2  0
  3  1  1  0
  4  3  2  0
  5  3  1  0
  6  5  1  0
  7  1  1  0
  8  4  1  0
  9  8  1  0
 10  5  1  0
 11  4  1  0
 12  9  1  0
 13 12  1  0
 14  2  1  0
 14 11  2  0
 15 12  1  0
 16 10  1  0
 16 15  1  0
 17 13  1  0
 18 17  1  0
 19 15  1  0
 19 18  1  0
 20 10  1  0
 21  6  2  0
 21 20  1  0
 22 20  1  0
 23 22  1  0
 24 23  1  0
 25  8  1  0
 25 10  1  0
 25 16  1  0
M  END
>  <ID>  (1) 
conformer_0

$$$$
