
     RDKit          3D

 17 19  0  0  0  0  0  0  0  0999 V2000
    7.4714   11.7167   14.4948 C   0  0  0  0  0  0  0  0  0  0  0  0
    7.5714   10.6167   13.6948 N   0  0  0  0  0  0  0  0  0  0  0  0
    8.6714   12.5167   14.6948 C   0  0  0  0  0  0  0  0  0  0  0  0
    9.3714   12.3167   13.4948 C   0  0  0  0  0  0  0  0  0  0  0  0
    6.4714   11.8167   15.3948 N   0  0  0  0  0  0  0  0  0  0  0  0
    8.7714   11.8167   12.3948 N   0  0  0  0  0  0  0  0  0  0  0  0
    8.4714   13.5167   15.6948 C   0  0  0  0  0  0  0  0  0  0  0  0
    9.5714   11.8167   11.1948 C   0  0  0  0  0  0  0  0  0  0  0  0
    8.2714   10.7167   12.6948 N   0  0  0  0  0  0  0  0  0  0  0  0
    7.3714   13.8167   16.3948 C   0  0  0  0  0  0  0  0  0  0  0  0
    9.3714   10.7167   10.1948 C   0  0  0  0  0  0  0  0  0  0  0  0
   10.4714   10.6167    9.2948 C   0  0  0  0  0  0  0  0  0  0  0  0
   10.6714   12.7167   10.7948 C   0  0  0  0  0  0  0  0  0  0  0  0
   11.0714   11.7167    8.6948 C   0  0  0  0  0  0  0  0  0  0  0  0
   10.8714   12.9167    9.3948 N   0  0  0  0  0  0  0  0  0  0  0  0
    8.1714   12.7167   16.8948 C   0  0  0  0  0  0  0  0  0  0  0  0
   11.9714   13.8167    9.1948 C   0  0  0  0  0  0  0  0  0  0  0  0
  2  1  1  0
  3  1  2  0
  4  3  1  0
  5  1  1  0
  6  4  1  0
  7  3  1  0
  8  6  1  0
  9  2  2  0
  9  6  1  0
 10  7  1  0
 11  8  2  0
 12 11  1  0
 13  8  1  0
 14 12  2  0
 15 13  1  0
 15 14  1  0
 16  7  1  0
 16 10  1  0
 17 15  1  0
M  END
>  <ID>  (1) 
conformer_0

$$$$
