
     RDKit          3D

 31 38  0  0  0  0  0  0  0  0999 V2000
    7.4714   11.7167   14.4948 C   0  0  0  0  0  0  0  0  0  0  0  0
    7.4714   10.7167   13.5948 N   0  0  0  0  0  0  0  0  0  0  0  0
    8.6714   12.4167   14.5948 C   0  0  0  0  0  0  0  0  0  0  0  0
    9.3714   12.5167   13.2948 C   0  0  0  0  0  0  0  0  0  0  0  0
    8.8714   13.5167   15.3948 C   0  0  0  0  0  0  0  0  0  0  0  0
    7.5714   13.7167   16.0948 C   0  0  0  0  0  0  0  0  0  0  0  0
    6.3714   12.0167   15.1948 N   0  0  0  0  0  0  0  0  0  0  0  0
   10.2714   13.6167   13.4948 N   0  0  0  0  0  0  0  0  0  0  0  0
   11.1714   14.0167   12.4948 C   0  0  0  0  0  0  0  0  0  0  0  0
    9.8714   14.4167   15.6948 C   0  0  0  0  0  0  0  0  0  0  0  0
    9.3714   11.5167   12.4948 N   0  0  0  0  0  0  0  0  0  0  0  0
   11.6714   15.4167   12.5948 C   0  0  0  0  0  0  0  0  0  0  0  0
   13.0714   15.6167   12.1948 C   0  0  0  0  0  0  0  0  0  0  0  0
    8.2714   10.8167   12.4948 C   0  0  0  0  0  0  0  0  0  0  0  0
   11.1714   15.9167   13.8948 C   0  0  0  0  0  0  0  0  0  0  0  0
   10.6714   15.4167   15.1948 C   0  0  0  0  0  0  0  0  0  0  0  0
   12.1714   17.0167   14.0948 C   0  0  0  0  0  0  0  0  0  0  0  0
   13.3714   16.8167   13.2948 C   0  0  0  0  0  0  0  0  0  0  0  0
   12.1714   17.5167   15.4948 C   0  0  0  0  0  0  0  0  0  0  0  0
    9.4714   15.0167   16.9948 N   0  0  0  0  0  0  0  0  0  0  0  0
    8.0714   14.8167   17.0948 O   0  0  0  0  0  0  0  0  0  0  0  0
   10.7714   17.9167   15.7948 N   0  0  0  0  0  0  0  0  0  0  0  0
   12.5714   16.8167   16.4948 O   0  0  0  0  0  0  0  0  0  0  0  0
   10.8714   17.3167   13.4948 C   0  0  0  0  0  0  0  0  0  0  0  0
   10.3714   17.6167   17.0948 C   0  0  0  0  0  0  0  0  0  0  0  0
    9.5714   16.4167   17.2948 C   0  0  0  0  0  0  0  0  0  0  0  0
    8.6714   16.7167   18.1948 N   0  0  0  0  0  0  0  0  0  0  0  0
    8.9714   17.9167   18.7948 N   0  0  0  0  0  0  0  0  0  0  0  0
    9.3714   16.8167   19.2948 C   0  0  0  0  0  0  0  0  0  0  0  0
   11.3714   12.8167   12.8948 C   0  0  0  0  0  0  0  0  0  0  0  0
    9.7714   18.4167   17.8948 N   0  0  0  0  0  0  0  0  0  0  0  0
  2  1  2  0
  3  1  1  0
  4  3  2  0
  5  3  1  0
  6  5  1  0
  7  1  1  0
  8  4  1  0
  9  8  1  0
 10  5  1  0
 11  4  1  0
 12  9  1  0
 13 12  1  0
 14  2  1  0
 14 11  2  0
 15 12  1  0
 16 10  1  0
 16 15  1  0
 17 15  1  0
 18 13  1  0
 18 17  1  0
 19 17  1  0
 20 10  1  0
 21  6  1  0
 21 20  1  0
 22 19  1  0
 23 19  1  0
 24 15  1  0
 24 17  1  0
 25 22  1  0
 26 20  1  0
 26 25  1  0
 27 26  1  0
 29 27  1  0
 29 28  1  0
 30  8  1  0
 30  9  1  0
 31 25  1  0
 31 28  1  0
M  END
>  <ID>  (1) 
conformer_0

$$$$
