
     RDKit          3D

 33 41  0  0  0  0  0  0  0  0999 V2000
    7.4714   11.7167   14.4948 C   0  0  0  0  0  0  0  0  0  0  0  0
    7.4714   10.7167   13.5948 N   0  0  0  0  0  0  0  0  0  0  0  0
    8.6714   12.4167   14.5948 C   0  0  0  0  0  0  0  0  0  0  0  0
    9.3714   12.1167   13.3948 C   0  0  0  0  0  0  0  0  0  0  0  0
    6.4714   11.8167   15.3948 N   0  0  0  0  0  0  0  0  0  0  0  0
   10.4714   12.9167   12.9948 N   0  0  0  0  0  0  0  0  0  0  0  0
   10.9714   12.7167   11.6948 C   0  0  0  0  0  0  0  0  0  0  0  0
    9.8714   12.0167   10.9948 C   0  0  0  0  0  0  0  0  0  0  0  0
    8.9714   11.6167   12.0948 N   0  0  0  0  0  0  0  0  0  0  0  0
    8.4714   13.1167   15.8948 C   0  0  0  0  0  0  0  0  0  0  0  0
    9.0714   14.4167   16.0948 C   0  0  0  0  0  0  0  0  0  0  0  0
    9.8714   11.0167    9.9948 C   0  0  0  0  0  0  0  0  0  0  0  0
   10.9714   11.2167    9.1948 C   0  0  0  0  0  0  0  0  0  0  0  0
    7.0714   12.9167   16.3948 C   0  0  0  0  0  0  0  0  0  0  0  0
    8.2714   15.3167   16.8948 C   0  0  0  0  0  0  0  0  0  0  0  0
    8.9714   16.3167   17.4948 O   0  0  0  0  0  0  0  0  0  0  0  0
   10.0714   16.7167   16.7948 C   0  0  0  0  0  0  0  0  0  0  0  0
    9.7714   16.6167   15.3948 C   0  0  0  0  0  0  0  0  0  0  0  0
    9.8714   14.9167   15.1948 N   0  0  0  0  0  0  0  0  0  0  0  0
   10.2714   14.0167   14.0948 C   0  0  0  0  0  0  0  0  0  0  0  0
   11.2714   12.5167    8.7948 C   0  0  0  0  0  0  0  0  0  0  0  0
   11.0714   13.7167    9.5948 C   0  0  0  0  0  0  0  0  0  0  0  0
   11.5714   13.7167   10.8948 C   0  0  0  0  0  0  0  0  0  0  0  0
   10.9714   16.9167   14.5948 C   0  0  0  0  0  0  0  0  0  0  0  0
   10.6714   17.9167   17.2948 O   0  0  0  0  0  0  0  0  0  0  0  0
   11.7714   18.3167   16.4948 C   0  0  0  0  0  0  0  0  0  0  0  0
   12.1714   17.3167   15.4948 C   0  0  0  0  0  0  0  0  0  0  0  0
    8.2714   10.5167   12.5948 C   0  0  0  0  0  0  0  0  0  0  0  0
   12.0714   16.1167   15.2948 O   0  0  0  0  0  0  0  0  0  0  0  0
   12.8714   19.2167   16.7948 C   0  0  0  0  0  0  0  0  0  0  0  0
   13.1714   20.3167   17.4948 O   0  0  0  0  0  0  0  0  0  0  0  0
    6.9714   15.0167   17.2948 C   0  0  0  0  0  0  0  0  0  0  0  0
    6.3714   13.9167   16.7948 C   0  0  0  0  0  0  0  0  0  0  0  0
  2  1  2  0
  3  1  1  0
  4  3  1  0
  5  1  1  0
  6  4  1  0
  7  6  1  0
  8  7  2  0
  9  4  1  0
  9  8  1  0
 10  3  1  0
 11 10  2  0
 12  8  1  0
 13 12  2  0
 14  5  1  0
 14 10  1  0
 15 11  1  0
 16 15  1  0
 17 16  1  0
 18 17  1  0
 19 11  1  0
 19 18  1  0
 20  6  1  0
 20 19  1  0
 21 13  1  0
 22 21  2  0
 23  7  1  0
 23 22  1  0
 24 18  1  0
 25 17  1  0
 26 25  1  0
 27 24  1  0
 27 26  1  0
 28  2  1  0
 28  9  1  0
 29 24  1  0
 29 27  1  0
 30 26  1  0
 31 30  1  0
 32 15  2  0
 33 14  2  0
 33 32  1  0
M  END
>  <ID>  (1) 
conformer_0

$$$$
