
     RDKit          3D

 32 39  0  0  0  0  0  0  0  0999 V2000
    7.4714   11.7167   14.4948 C   0  0  0  0  0  0  0  0  0  0  0  0
    7.4714   10.7167   13.5948 N   0  0  0  0  0  0  0  0  0  0  0  0
    8.7714   12.3167   14.7948 C   0  0  0  0  0  0  0  0  0  0  0  0
    9.4714   12.1167   13.4948 C   0  0  0  0  0  0  0  0  0  0  0  0
    8.6714   13.6167   15.2948 C   0  0  0  0  0  0  0  0  0  0  0  0
    7.5714   13.7167   16.2948 C   0  0  0  0  0  0  0  0  0  0  0  0
    6.3714   11.9167   15.2948 N   0  0  0  0  0  0  0  0  0  0  0  0
    9.1714   11.6167   12.3948 N   0  0  0  0  0  0  0  0  0  0  0  0
   10.1714   13.4167   13.3948 N   0  0  0  0  0  0  0  0  0  0  0  0
   11.1714   13.6167   12.5948 C   0  0  0  0  0  0  0  0  0  0  0  0
   11.0714   12.8167   11.3948 C   0  0  0  0  0  0  0  0  0  0  0  0
    9.9714   11.9167   11.2948 C   0  0  0  0  0  0  0  0  0  0  0  0
    9.8714   14.3167   15.6948 C   0  0  0  0  0  0  0  0  0  0  0  0
    9.4714   15.3167   16.5948 C   0  0  0  0  0  0  0  0  0  0  0  0
    8.1714   15.0167   17.0948 N   0  0  0  0  0  0  0  0  0  0  0  0
    9.9714   16.6167   16.6948 C   0  0  0  0  0  0  0  0  0  0  0  0
   11.1714   16.9167   16.1948 C   0  0  0  0  0  0  0  0  0  0  0  0
   12.0714   17.9167   16.3948 N   0  0  0  0  0  0  0  0  0  0  0  0
   12.7714   18.5167   15.2948 C   0  0  0  0  0  0  0  0  0  0  0  0
   12.7714   17.7167   14.0948 C   0  0  0  0  0  0  0  0  0  0  0  0
   12.2714   16.4167   13.7948 C   0  0  0  0  0  0  0  0  0  0  0  0
   13.0714   15.3167   13.2948 C   0  0  0  0  0  0  0  0  0  0  0  0
   11.5714   16.0167   15.1948 N   0  0  0  0  0  0  0  0  0  0  0  0
   13.6714   19.6167   15.3948 C   0  0  0  0  0  0  0  0  0  0  0  0
   10.7714   14.6167   13.4948 C   0  0  0  0  0  0  0  0  0  0  0  0
   10.6714   15.0167   14.7948 N   0  0  0  0  0  0  0  0  0  0  0  0
    9.9714   11.3167   10.0948 N   0  0  0  0  0  0  0  0  0  0  0  0
   13.8714   20.7167   14.3948 C   0  0  0  0  0  0  0  0  0  0  0  0
   13.8714   22.0167   15.0948 N   0  0  0  0  0  0  0  0  0  0  0  0
   14.1714   21.8167   16.4948 C   0  0  0  0  0  0  0  0  0  0  0  0
    6.2714   13.2167   15.9948 C   0  0  0  0  0  0  0  0  0  0  0  0
    8.1714   10.6167   12.4948 C   0  0  0  0  0  0  0  0  0  0  0  0
  2  1  2  0
  3  1  1  0
  4  3  1  0
  5  3  2  0
  6  5  1  0
  7  1  1  0
  8  4  1  0
  9  4  1  0
 10  9  1  0
 11 10  1  0
 12  8  1  0
 12 11  2  0
 13  5  1  0
 14 13  2  0
 15  6  1  0
 15 14  1  0
 16 14  1  0
 17 16  2  0
 18 17  1  0
 19 18  1  0
 20 19  2  0
 21 20  1  0
 22 21  1  0
 23 17  1  0
 23 21  1  0
 24 19  1  0
 25  9  1  0
 25 10  1  0
 26 13  1  0
 26 23  1  0
 26 25  1  0
 27 12  1  0
 28 24  1  0
 29 28  1  0
 30 29  1  0
 31  6  1  0
 31  7  1  0
 32  2  1  0
 32  8  1  0
M  END
>  <ID>  (1) 
conformer_0

$$$$
