
     RDKit          3D

 32 39  0  0  0  0  0  0  0  0999 V2000
    7.7507   11.9268   14.7787 C   0  0  0  0  0  0  0  0  0  0  0  0
    7.3507   10.9268   13.8787 N   0  0  0  0  0  0  0  0  0  0  0  0
    8.9507   12.5268   14.6787 C   0  0  0  0  0  0  0  0  0  0  0  0
    9.5507   12.3268   13.3787 C   0  0  0  0  0  0  0  0  0  0  0  0
    9.1507   13.8268   15.1787 C   0  0  0  0  0  0  0  0  0  0  0  0
    6.8507   12.1268   15.7787 N   0  0  0  0  0  0  0  0  0  0  0  0
   10.5507   13.4268   13.1787 N   0  0  0  0  0  0  0  0  0  0  0  0
    9.2507   11.5268   12.4787 N   0  0  0  0  0  0  0  0  0  0  0  0
   11.1507   13.1268   11.8787 C   0  0  0  0  0  0  0  0  0  0  0  0
   10.6507   12.5268   10.7787 C   0  0  0  0  0  0  0  0  0  0  0  0
    8.2507   10.7268   12.8787 C   0  0  0  0  0  0  0  0  0  0  0  0
   10.9507   13.1268    9.4787 C   0  0  0  0  0  0  0  0  0  0  0  0
   11.8507   14.3268   11.4787 C   0  0  0  0  0  0  0  0  0  0  0  0
   10.9507   14.7268   13.6787 C   0  0  0  0  0  0  0  0  0  0  0  0
   10.4507   15.8268   14.3787 C   0  0  0  0  0  0  0  0  0  0  0  0
    9.4507   16.2268   15.2787 C   0  0  0  0  0  0  0  0  0  0  0  0
   11.6507   16.6268   14.6787 C   0  0  0  0  0  0  0  0  0  0  0  0
   11.3507   17.5268   15.7787 N   0  0  0  0  0  0  0  0  0  0  0  0
   10.0507   17.2268   16.3787 C   0  0  0  0  0  0  0  0  0  0  0  0
    9.3507   17.4268   15.4787 O   0  0  0  0  0  0  0  0  0  0  0  0
   12.5507   14.6268   10.4787 C   0  0  0  0  0  0  0  0  0  0  0  0
   12.0507   14.0268    9.2787 C   0  0  0  0  0  0  0  0  0  0  0  0
   11.8507   15.1268   12.6787 N   0  0  0  0  0  0  0  0  0  0  0  0
   11.6507   18.1268   14.6787 C   0  0  0  0  0  0  0  0  0  0  0  0
   13.0507   18.5268   14.4787 C   0  0  0  0  0  0  0  0  0  0  0  0
   13.8507   18.4268   13.2787 C   0  0  0  0  0  0  0  0  0  0  0  0
   14.2507   19.7268   12.6787 C   0  0  0  0  0  0  0  0  0  0  0  0
   14.0507   20.8268   13.6787 C   0  0  0  0  0  0  0  0  0  0  0  0
   14.3507   20.5268   14.9787 C   0  0  0  0  0  0  0  0  0  0  0  0
   13.6507   19.4268   15.5787 N   0  0  0  0  0  0  0  0  0  0  0  0
    8.1507   14.1268   16.1787 C   0  0  0  0  0  0  0  0  0  0  0  0
    7.1507   13.3268   16.4787 C   0  0  0  0  0  0  0  0  0  0  0  0
  2  1  2  0
  3  1  1  0
  4  3  1  0
  5  3  1  0
  6  1  1  0
  7  4  1  0
  8  4  2  0
  9  7  1  0
 10  9  2  0
 11  2  1  0
 11  8  1  0
 12 10  1  0
 13  9  1  0
 14  7  1  0
 15 14  1  0
 16 15  1  0
 17 15  2  0
 18 17  1  0
 19 16  2  0
 19 18  1  0
 20 16  1  0
 20 19  1  0
 21 13  2  0
 22 12  2  0
 22 21  1  0
 23 13  1  0
 23 14  2  0
 24 17  1  0
 24 18  1  0
 25 24  1  0
 26 25  1  0
 27 26  1  0
 28 27  1  0
 29 28  1  0
 30 25  1  0
 30 29  1  0
 31  5  1  0
 32  6  1  0
 32 31  2  0
M  END
>  <ID>  (1) 
conformer_0

$$$$
