
     RDKit          3D

 20 22  0  0  0  0  0  0  0  0999 V2000
    7.4714   11.7167   14.4948 C   0  0  0  0  0  0  0  0  0  0  0  0
    7.4714   10.7167   13.5948 N   0  0  0  0  0  0  0  0  0  0  0  0
    8.6714   12.4167   14.5948 C   0  0  0  0  0  0  0  0  0  0  0  0
    9.3714   12.2167   13.2948 C   0  0  0  0  0  0  0  0  0  0  0  0
    6.4714   11.8167   15.3948 N   0  0  0  0  0  0  0  0  0  0  0  0
    9.0714   11.6167   12.2948 N   0  0  0  0  0  0  0  0  0  0  0  0
   10.1714   13.3167   12.9948 N   0  0  0  0  0  0  0  0  0  0  0  0
   10.9714   13.1167   11.8948 C   0  0  0  0  0  0  0  0  0  0  0  0
    8.9714   13.7167   15.0948 C   0  0  0  0  0  0  0  0  0  0  0  0
    9.9714   14.3167   14.0948 C   0  0  0  0  0  0  0  0  0  0  0  0
   10.3714   12.7167   10.6948 C   0  0  0  0  0  0  0  0  0  0  0  0
    9.5714   13.9167   16.3948 C   0  0  0  0  0  0  0  0  0  0  0  0
   10.2714   15.7167   14.4948 C   0  0  0  0  0  0  0  0  0  0  0  0
    9.8714   15.1167   16.8948 C   0  0  0  0  0  0  0  0  0  0  0  0
   10.2714   11.4167   10.1948 C   0  0  0  0  0  0  0  0  0  0  0  0
    9.0714   10.6167   10.0948 N   0  0  0  0  0  0  0  0  0  0  0  0
    9.2714    9.4167    9.2948 C   0  0  0  0  0  0  0  0  0  0  0  0
    9.6714   16.1167   15.6948 C   0  0  0  0  0  0  0  0  0  0  0  0
    9.1714   17.3167   15.7948 O   0  0  0  0  0  0  0  0  0  0  0  0
    8.2714   10.6167   12.4948 C   0  0  0  0  0  0  0  0  0  0  0  0
  2  1  2  0
  3  1  1  0
  4  3  2  0
  5  1  1  0
  6  4  1  0
  7  4  1  0
  8  7  1  0
  9  3  1  0
 10  7  1  0
 10  9  1  0
 11  8  1  0
 12  9  1  0
 13 10  1  0
 14 12  1  0
 15 11  1  0
 16 15  1  0
 17 16  1  0
 18 13  1  0
 18 14  1  0
 19 18  1  0
 20  2  1  0
 20  6  2  0
M  END
>  <ID>  (1) 
conformer_0

$$$$
