
     RDKit          3D

 37 41  0  0  0  0  0  0  0  0999 V2000
   20.6514   47.3469   17.6560 O   0  0  0  0  0  0  0  0  0  0  0  0
   17.1914   54.4203   23.0769 C   0  0  0  0  0  0  0  0  0  0  0  0
   25.7839   47.1933   18.7998 C   0  0  0  0  0  0  0  0  0  0  0  0
   25.4022   48.5120   18.9453 C   0  0  0  0  0  0  0  0  0  0  0  0
   19.1840   53.9969   17.8841 C   0  0  0  0  0  0  0  0  0  0  0  0
   23.2182   46.9582   20.7258 C   0  0  0  0  0  0  0  0  0  0  0  0
   18.4518   54.5610   22.5594 C   0  0  0  0  0  0  0  0  0  0  0  0
   21.8120   49.6500   20.0271 C   0  0  0  0  0  0  0  0  0  0  0  0
   23.4159   46.7669   18.2613 C   0  0  0  0  0  0  0  0  0  0  0  0
   19.5593   49.0000   20.6402 C   0  0  0  0  0  0  0  0  0  0  0  0
   20.8921   48.3148   18.3109 C   0  0  0  0  0  0  0  0  0  0  0  0
   19.1742   55.6877   22.8055 N   0  0  0  0  0  0  0  0  0  0  0  0
   18.7921   56.5188   23.7875 C   0  0  0  0  0  0  0  0  0  0  0  0
   18.0777   51.9039   17.7216 O   0  0  0  0  0  0  0  0  0  0  0  0
   16.8275   55.2454   24.0949 C   0  0  0  0  0  0  0  0  0  0  0  0
   19.2292   52.3515   19.7224 C   0  0  0  0  0  0  0  0  0  0  0  0
   17.6716   56.2649   24.5458 C   0  0  0  0  0  0  0  0  0  0  0  0
   19.0864   53.5269   21.7814 C   0  0  0  0  0  0  0  0  0  0  0  0
   19.6871   49.7903   16.8835 C   0  0  0  0  0  0  0  0  0  0  0  0
   19.6513   54.5084   14.3347 C   0  0  0  0  0  0  0  0  0  0  0  0
   21.8811   48.4239   19.2689 C   0  0  0  0  0  0  0  0  0  0  0  0
   20.6381   51.7240   21.5250 C   0  0  0  0  0  0  0  0  0  0  0  0
   20.3591   50.0467   19.7925 C   0  0  0  0  0  0  0  0  0  0  0  0
   20.0137   49.6452   18.3625 C   0  0  0  0  0  0  0  0  0  0  0  0
   17.4992   56.9629   25.7041 O   0  0  0  0  0  0  0  0  0  0  0  0
   20.1936   52.7853   22.2707 C   0  0  0  0  0  0  0  0  0  0  0  0
   19.9700   55.5862   15.4444 C   0  0  0  0  0  0  0  0  0  0  0  0
   24.1596   48.8141   19.5177 C   0  0  0  0  0  0  0  0  0  0  0  0
   24.9553   44.9682   18.9044 F   0  0  0  0  0  0  0  0  0  0  0  0
   24.7576   46.2291   18.4887 C   0  0  0  0  0  0  0  0  0  0  0  0
   23.1689   47.6972   19.4009 C   0  0  0  0  0  0  0  0  0  0  0  0
   19.6701   54.4955   16.5866 C   0  0  0  0  0  0  0  0  0  0  0  0
   16.2548   57.1006   26.4020 C   0  0  0  0  0  0  0  0  0  0  0  0
   19.5300   53.3730   15.4243 C   0  0  0  0  0  0  0  0  0  0  0  0
   18.6458   53.2829   20.5134 C   0  0  0  0  0  0  0  0  0  0  0  0
   18.9048   52.5908   18.2650 C   0  0  0  0  0  0  0  0  0  0  0  0
   20.0895   51.3922   20.3248 C   0  0  0  0  0  0  0  0  0  0  0  0
  1 11  2  0
  2  7  1  0
  2 15  2  0
  3  4  1  0
  3 30  1  0
  4 28  1  0
  5 32  2  3
  5 36  1  0
  6 31  1  0
  7 12  1  0
  7 18  1  0
  8 21  1  0
  8 23  1  0
  9 30  1  0
  9 31  1  0
 10 23  1  0
 11 21  1  0
 11 24  1  0
 12 13  2  0
 13 17  1  0
 14 36  2  0
 15 17  1  0
 16 35  1  0
 16 36  1  0
 16 37  1  0
 17 25  1  0
 18 26  1  0
 18 35  2  0
 19 24  1  0
 20 27  1  0
 20 34  1  0
 21 31  1  0
 22 26  1  0
 22 37  2  0
 23 24  1  0
 23 37  1  0
 25 33  1  0
 27 32  1  0
 28 31  1  0
 29 30  1  0
 32 34  1  0
M  END
>  <ID>  (1) 
conformer_0

$$$$
