
     RDKit          3D

 28 30  0  0  0  0  0  0  0  0999 V2000
   18.5619   53.9065   21.5255 C   0  0  0  0  0  0  0  0  0  0  0  0
   20.0330   49.1873   16.1428 C   0  0  0  0  0  0  0  0  0  0  0  0
   17.8500   52.4412   19.8120 O   0  0  0  0  0  0  0  0  0  0  0  0
   16.7373   56.5278   25.3612 N   0  0  0  0  0  0  0  0  0  0  0  0
   19.9020   48.4031   17.4584 C   0  0  0  0  0  0  0  0  0  0  0  0
   21.5269   50.3840   20.0907 C   0  0  0  0  0  0  0  0  0  0  0  0
   25.0570   47.0590   18.7426 C   0  0  0  0  0  0  0  0  0  0  0  0
   19.2520   47.1282   18.0398 C   0  0  0  0  0  0  0  0  0  0  0  0
   22.7427   47.0897   19.2445 C   0  0  0  0  0  0  0  0  0  0  0  0
   25.0734   48.4281   18.7800 C   0  0  0  0  0  0  0  0  0  0  0  0
   18.8088   57.3722   25.1813 O   0  0  0  0  0  0  0  0  0  0  0  0
   18.1646   55.7370   23.5914 C   0  0  0  0  0  0  0  0  0  0  0  0
   23.9008   46.3943   18.9686 C   0  0  0  0  0  0  0  0  0  0  0  0
   19.6263   50.3427   18.8773 O   0  0  0  0  0  0  0  0  0  0  0  0
   20.7956   52.1624   21.8125 C   0  0  0  0  0  0  0  0  0  0  0  0
   20.3177   51.0445   19.7596 C   0  0  0  0  0  0  0  0  0  0  0  0
   17.1633   54.8785   23.1804 C   0  0  0  0  0  0  0  0  0  0  0  0
   23.9178   49.1291   19.0618 C   0  0  0  0  0  0  0  0  0  0  0  0
   17.9495   56.6268   24.7668 C   0  0  0  0  0  0  0  0  0  0  0  0
   18.8243   52.8500   20.5473 C   0  0  0  0  0  0  0  0  0  0  0  0
   16.5210   57.1118   26.6856 C   0  0  0  0  0  0  0  0  0  0  0  0
   19.3445   55.7327   22.8777 C   0  0  0  0  0  0  0  0  0  0  0  0
   21.5427   49.2035   19.3906 C   0  0  0  0  0  0  0  0  0  0  0  0
   22.7416   48.4552   19.2564 C   0  0  0  0  0  0  0  0  0  0  0  0
   19.5218   54.8170   21.8486 C   0  0  0  0  0  0  0  0  0  0  0  0
   20.4761   49.2252   18.5933 N   0  0  0  0  0  0  0  0  0  0  0  0
   17.3512   53.9888   22.1572 C   0  0  0  0  0  0  0  0  0  0  0  0
   20.1326   52.2985   20.5058 C   0  0  0  0  0  0  0  0  0  0  0  0
  1 20  1  0
  1 25  1  0
  1 27  2  0
  2  5  1  0
  3 20  1  0
  4 19  1  0
  4 21  1  0
  5  8  1  0
  5 26  1  0
  6 16  1  0
  6 23  1  0
  7 10  1  0
  7 13  2  0
  9 13  1  0
  9 24  1  0
 10 18  1  0
 11 19  2  0
 12 17  2  0
 12 19  1  0
 12 22  1  0
 14 16  1  0
 14 26  1  0
 15 28  1  0
 16 28  1  0
 17 27  1  0
 18 24  2  0
 20 28  1  0
 22 25  2  0
 23 24  1  0
 23 26  1  0
M  END
>  <ID>  (1) 
conformer_0

$$$$
