
     RDKit          3D

 46 52  0  0  0  0  0  0  0  0999 V2000
   21.0641   49.4795   20.2166 C   0  0  0  0  0  0  0  0  0  0  0  0
   20.1830   54.1549   20.2269 C   0  0  0  0  0  0  0  0  0  0  0  0
   19.3645   47.2957   17.2432 C   0  0  0  0  0  0  0  0  0  0  0  0
   17.6077   56.3365   23.8554 C   0  0  0  0  0  0  0  0  0  0  0  0
   19.7753   52.9398   19.4802 C   0  0  0  0  0  0  0  0  0  0  0  0
   18.4658   52.2934   17.4652 C   0  0  0  0  0  0  0  0  0  0  0  0
   17.6908   55.7482   22.5277 C   0  0  0  0  0  0  0  0  0  0  0  0
   20.7833   51.9061   19.6483 C   0  0  0  0  0  0  0  0  0  0  0  0
   21.5158   53.6165   21.1226 C   0  0  0  0  0  0  0  0  0  0  0  0
   20.7882   55.0764   17.7566 C   0  0  0  0  0  0  0  0  0  0  0  0
   16.8711   54.6579   21.9358 C   0  0  0  0  0  0  0  0  0  0  0  0
   23.3423   55.6949   14.9696 C   0  0  0  0  0  0  0  0  0  0  0  0
   21.0096   48.1477   17.3607 C   0  0  0  0  0  0  0  0  0  0  0  0
   24.3686   45.9235   18.6589 C   0  0  0  0  0  0  0  0  0  0  0  0
   22.7315   47.6802   19.2308 C   0  0  0  0  0  0  0  0  0  0  0  0
   21.3236   47.6103   18.7289 C   0  0  0  0  0  0  0  0  0  0  0  0
   21.4810   51.1682   21.9815 C   0  0  0  0  0  0  0  0  0  0  0  0
   18.9400   55.6987   21.7272 C   0  0  0  0  0  0  0  0  0  0  0  0
   20.0697   56.2416   22.0510 N   0  0  0  0  0  0  0  0  0  0  0  0
   18.8437   54.7729   20.6157 C   0  0  0  0  0  0  0  0  0  0  0  0
   22.8155   47.3196   20.7686 C   0  0  0  0  0  0  0  0  0  0  0  0
   18.6276   47.0520   18.5170 C   0  0  0  0  0  0  0  0  0  0  0  0
   21.3105   51.4674   23.2704 F   0  0  0  0  0  0  0  0  0  0  0  0
   25.4586   46.8609   18.5765 C   0  0  0  0  0  0  0  0  0  0  0  0
   18.4767   52.8729   18.8192 C   0  0  0  0  0  0  0  0  0  0  0  0
   17.2953   53.1222   19.6835 C   0  0  0  0  0  0  0  0  0  0  0  0
   20.4241   48.1752   19.8061 C   0  0  0  0  0  0  0  0  0  0  0  0
   20.7218   55.1848   19.2366 C   0  0  0  0  0  0  0  0  0  0  0  0
   17.3621   57.3351   26.4382 C   0  0  0  0  0  0  0  0  0  0  0  0
   16.2698   56.8862   25.7475 C   0  0  0  0  0  0  0  0  0  0  0  0
   19.6933   48.7102   17.0138 C   0  0  0  0  0  0  0  0  0  0  0  0
   24.8438   56.9732   13.7085 C   0  0  0  0  0  0  0  0  0  0  0  0
   18.5637   57.3042   25.8239 C   0  0  0  0  0  0  0  0  0  0  0  0
   25.1271   48.2887   18.7205 C   0  0  0  0  0  0  0  0  0  0  0  0
   23.0964   46.6093   18.1660 C   0  0  0  0  0  0  0  0  0  0  0  0
   23.5573   57.1173   14.3513 O   0  0  0  0  0  0  0  0  0  0  0  0
   16.3707   56.3991   24.4838 C   0  0  0  0  0  0  0  0  0  0  0  0
   18.7095   56.8132   24.5525 C   0  0  0  0  0  0  0  0  0  0  0  0
   18.9385   48.1017   19.5897 C   0  0  0  0  0  0  0  0  0  0  0  0
   22.0136   55.8195   15.6976 C   0  0  0  0  0  0  0  0  0  0  0  0
   21.6232   52.1779   20.9090 C   0  0  0  0  0  0  0  0  0  0  0  0
   17.5913   54.0131   20.7963 C   0  0  0  0  0  0  0  0  0  0  0  0
   21.5115   49.6999   21.6489 C   0  0  0  0  0  0  0  0  0  0  0  0
   20.6061   50.5702   19.2566 C   0  0  0  0  0  0  0  0  0  0  0  0
   23.7687   48.8421   19.0396 C   0  0  0  0  0  0  0  0  0  0  0  0
   22.1086   55.7101   17.2203 C   0  0  0  0  0  0  0  0  0  0  0  0
  1 27  1  0
  1 43  1  0
  1 44  2  0
  2  5  1  0
  2  9  1  0
  2 20  1  0
  2 28  1  0
  3 22  1  0
  3 31  1  0
  4  7  1  0
  4 37  2  0
  4 38  1  0
  5  8  1  0
  5 25  1  0
  6 25  1  0
  7 11  1  0
  7 18  1  0
  8 41  1  0
  8 44  1  0
  9 41  1  0
 10 28  1  0
 10 46  1  0
 11 42  1  0
 12 36  1  0
 12 40  1  0
 13 16  1  0
 13 31  1  0
 14 24  1  0
 14 35  1  0
 15 16  1  0
 15 21  1  0
 15 35  1  0
 15 45  1  0
 16 27  1  0
 17 23  1  0
 17 41  1  0
 17 43  1  0
 18 19  2  0
 18 20  1  0
 20 42  1  0
 22 39  1  0
 24 34  2  0
 25 26  1  0
 26 42  1  0
 27 39  1  0
 29 30  2  0
 29 33  1  0
 30 37  1  0
 32 36  1  0
 33 38  2  0
 34 45  1  0
 40 46  1  0
M  END
>  <ID>  (1) 
conformer_0

$$$$
