
     RDKit          3D

 39 42  0  0  0  0  0  0  0  0999 V2000
   22.5601   56.3286   15.9504 N   0  0  0  0  0  0  0  0  0  0  0  0
   21.4718   55.5625   15.6218 C   0  0  0  0  0  0  0  0  0  0  0  0
   21.1469   49.7654   20.4087 C   0  0  0  0  0  0  0  0  0  0  0  0
   22.8959   56.5329   17.2996 C   0  0  0  0  0  0  0  0  0  0  0  0
   21.2862   50.7264   21.2609 O   0  0  0  0  0  0  0  0  0  0  0  0
   17.9791   54.9018   21.6086 C   0  0  0  0  0  0  0  0  0  0  0  0
   18.6570   56.8125   24.7127 C   0  0  0  0  0  0  0  0  0  0  0  0
   18.7694   56.2408   23.4606 C   0  0  0  0  0  0  0  0  0  0  0  0
   16.7389   55.0520   23.6902 C   0  0  0  0  0  0  0  0  0  0  0  0
   25.0803   45.4822   18.7385 C   0  0  0  0  0  0  0  0  0  0  0  0
   22.0879   55.9686   18.3154 C   0  0  0  0  0  0  0  0  0  0  0  0
   19.0129   51.8055   16.4790 C   0  0  0  0  0  0  0  0  0  0  0  0
   17.8011   55.4017   22.9293 C   0  0  0  0  0  0  0  0  0  0  0  0
   21.2628   47.4772   18.0980 C   0  0  0  0  0  0  0  0  0  0  0  0
   19.0457   50.7591   15.9807 C   0  0  0  0  0  0  0  0  0  0  0  0
   19.8556   52.3541   20.4875 C   0  0  0  0  0  0  0  0  0  0  0  0
   19.5817   48.4412   16.5506 N   0  0  0  0  0  0  0  0  0  0  0  0
   25.2797   47.9585   18.4313 C   0  0  0  0  0  0  0  0  0  0  0  0
   23.1830   46.9753   19.3667 O   0  0  0  0  0  0  0  0  0  0  0  0
   21.7073   48.7083   20.1018 C   0  0  0  0  0  0  0  0  0  0  0  0
   19.8353   56.5934   22.7757 O   0  0  0  0  0  0  0  0  0  0  0  0
   16.6120   55.5672   24.9726 C   0  0  0  0  0  0  0  0  0  0  0  0
   19.7980   53.3507   19.5221 C   0  0  0  0  0  0  0  0  0  0  0  0
   18.9058   50.3224   20.7842 F   0  0  0  0  0  0  0  0  0  0  0  0
   17.4620   56.8143   26.6905 F   0  0  0  0  0  0  0  0  0  0  0  0
   19.3442   52.9714   17.0427 C   0  0  0  0  0  0  0  0  0  0  0  0
   19.9358   54.6294   20.2148 C   0  0  0  0  0  0  0  0  0  0  0  0
   19.8120   54.0133   16.2020 C   0  0  0  0  0  0  0  0  0  0  0  0
   19.3355   54.3724   21.4848 C   0  0  0  0  0  0  0  0  0  0  0  0
   19.1716   49.4726   15.9698 C   0  0  0  0  0  0  0  0  0  0  0  0
   17.5697   56.3983   25.4489 C   0  0  0  0  0  0  0  0  0  0  0  0
   20.1921   50.8588   20.6399 C   0  0  0  0  0  0  0  0  0  0  0  0
   20.7600   54.9308   16.6419 C   0  0  0  0  0  0  0  0  0  0  0  0
   24.3197   46.8081   18.6467 C   0  0  0  0  0  0  0  0  0  0  0  0
   20.3261   47.9139   17.4742 C   0  0  0  0  0  0  0  0  0  0  0  0
   22.1126   47.6840   19.1938 C   0  0  0  0  0  0  0  0  0  0  0  0
   19.3646   53.1856   18.3160 N   0  0  0  0  0  0  0  0  0  0  0  0
   21.0786   55.2291   17.9061 C   0  0  0  0  0  0  0  0  0  0  0  0
   19.3963   52.9428   21.7361 C   0  0  0  0  0  0  0  0  0  0  0  0
  1  2  2  0
  1  4  1  0
  2 33  1  0
  3  5  1  0
  3 20  1  0
  4 11  2  0
  5 32  1  0
  6 13  1  0
  6 29  1  0
  7  8  1  0
  7 31  1  0
  8 13  2  0
  8 21  1  0
  9 13  1  0
  9 22  1  0
 10 34  1  0
 11 38  1  0
 12 15  2  0
 12 26  2  0
 14 35  1  0
 14 36  2  0
 15 30  1  0
 16 23  1  0
 16 32  1  0
 16 39  1  0
 17 30  1  0
 17 35  1  0
 18 34  1  0
 19 34  1  0
 19 36  1  0
 20 36  1  0
 22 31  2  0
 23 27  1  0
 23 37  1  0
 24 32  1  0
 25 31  1  0
 26 28  1  0
 26 37  1  0
 27 29  1  0
 28 33  1  0
 29 39  1  0
 33 38  2  0
M  END
>  <ID>  (1) 
conformer_0

$$$$
