
     RDKit          3D

 43 48  0  0  0  0  0  0  0  0999 V2000
   20.9927   52.7595   21.7570 C   0  0  0  0  0  0  0  0  0  0  0  0
   25.5233   48.7287   19.0888 F   0  0  0  0  0  0  0  0  0  0  0  0
   19.6231   50.6738   18.2877 C   0  0  0  0  0  0  0  0  0  0  0  0
   17.5716   53.6962   20.1815 C   0  0  0  0  0  0  0  0  0  0  0  0
   19.0963   52.8658   17.6416 C   0  0  0  0  0  0  0  0  0  0  0  0
   24.1108   46.9241   19.0351 C   0  0  0  0  0  0  0  0  0  0  0  0
   20.4569   51.6592   20.9947 C   0  0  0  0  0  0  0  0  0  0  0  0
   19.1689   56.6032   23.5978 C   0  0  0  0  0  0  0  0  0  0  0  0
   19.1057   57.1496   24.9079 C   0  0  0  0  0  0  0  0  0  0  0  0
   19.4030   51.9591   18.6198 N   0  0  0  0  0  0  0  0  0  0  0  0
   19.2700   55.6600   20.9258 C   0  0  0  0  0  0  0  0  0  0  0  0
   22.8778   46.3637   19.1760 C   0  0  0  0  0  0  0  0  0  0  0  0
   19.1984   50.6815   14.6672 N   0  0  0  0  0  0  0  0  0  0  0  0
   20.9538   52.8734   22.9690 O   0  0  0  0  0  0  0  0  0  0  0  0
   20.0347   49.6783   13.9855 C   0  0  0  0  0  0  0  0  0  0  0  0
   18.1308   55.9304   23.0306 C   0  0  0  0  0  0  0  0  0  0  0  0
   18.1060   55.4231   21.7354 N   0  0  0  0  0  0  0  0  0  0  0  0
   22.0169   48.5776   19.7564 C   0  0  0  0  0  0  0  0  0  0  0  0
   15.7080   56.2943   25.7161 F   0  0  0  0  0  0  0  0  0  0  0  0
   21.8510   47.2182   19.5275 C   0  0  0  0  0  0  0  0  0  0  0  0
   20.9541   49.4174   20.1829 C   0  0  0  0  0  0  0  0  0  0  0  0
   18.9585   53.3934   20.4092 C   0  0  0  0  0  0  0  0  0  0  0  0
   17.0909   54.5760   21.1508 C   0  0  0  0  0  0  0  0  0  0  0  0
   17.8760   57.3380   26.9143 F   0  0  0  0  0  0  0  0  0  0  0  0
   19.7515   49.7261   19.3949 C   0  0  0  0  0  0  0  0  0  0  0  0
   23.2479   49.0784   19.4947 C   0  0  0  0  0  0  0  0  0  0  0  0
   20.0066   49.0494   16.6658 F   0  0  0  0  0  0  0  0  0  0  0  0
   15.8862   55.1766   23.3227 F   0  0  0  0  0  0  0  0  0  0  0  0
   19.6340   50.2727   16.9447 C   0  0  0  0  0  0  0  0  0  0  0  0
   18.6098   49.4980   20.0345 O   0  0  0  0  0  0  0  0  0  0  0  0
   24.2790   48.2566   19.1615 C   0  0  0  0  0  0  0  0  0  0  0  0
   21.1260   50.4615   21.0864 N   0  0  0  0  0  0  0  0  0  0  0  0
   18.7786   51.3037   13.4571 C   0  0  0  0  0  0  0  0  0  0  0  0
   25.1844   46.1629   18.8217 F   0  0  0  0  0  0  0  0  0  0  0  0
   19.6854   50.1929   12.5541 C   0  0  0  0  0  0  0  0  0  0  0  0
   17.9516   56.9715   25.6184 C   0  0  0  0  0  0  0  0  0  0  0  0
   19.2899   51.1587   15.9333 C   0  0  0  0  0  0  0  0  0  0  0  0
   19.4968   52.1374   20.0770 C   0  0  0  0  0  0  0  0  0  0  0  0
   16.9009   56.3376   25.0271 C   0  0  0  0  0  0  0  0  0  0  0  0
   19.8969   56.7686   20.9981 O   0  0  0  0  0  0  0  0  0  0  0  0
   16.9914   55.8017   23.7846 C   0  0  0  0  0  0  0  0  0  0  0  0
   19.0105   52.4474   16.2935 C   0  0  0  0  0  0  0  0  0  0  0  0
   19.8714   54.4784   20.3062 C   0  0  0  0  0  0  0  0  0  0  0  0
  1  7  1  0
  1 14  2  0
  2 31  1  0
  3 10  1  0
  3 25  1  0
  3 29  1  0
  4 22  1  0
  4 23  1  0
  5 10  1  0
  5 42  2  0
  6 12  2  0
  6 31  1  0
  6 34  1  0
  7 32  2  0
  7 38  1  0
  8  9  2  0
  8 16  1  0
  9 36  1  0
 10 38  1  0
 11 17  1  0
 11 40  2  0
 11 43  1  0
 12 20  1  0
 13 15  1  0
 13 33  1  0
 13 37  1  0
 15 35  1  0
 16 17  1  0
 16 41  2  0
 17 23  1  0
 18 20  2  0
 18 21  1  0
 18 26  1  0
 19 39  1  0
 21 25  1  0
 21 32  1  0
 22 38  1  0
 22 43  1  0
 24 36  1  0
 25 30  1  0
 26 31  2  0
 27 29  1  0
 28 41  1  0
 29 37  2  0
 33 35  1  0
 36 39  2  0
 37 42  1  0
 39 41  1  0
M  END
>  <ID>  (1) 
conformer_0

$$$$
