
     RDKit          3D

 39 43  0  0  0  0  0  0  0  0999 V2000
   17.9133   51.8715   12.3576 C   0  0  0  0  0  0  0  0  0  0  0  0
   17.7242   56.0028   26.4719 C   0  0  0  0  0  0  0  0  0  0  0  0
   20.6133   54.2191   19.4386 C   0  0  0  0  0  0  0  0  0  0  0  0
   20.0023   49.9205   19.3143 C   0  0  0  0  0  0  0  0  0  0  0  0
   19.6588   50.7602   13.4698 C   0  0  0  0  0  0  0  0  0  0  0  0
   23.4855   48.7505   19.2356 C   0  0  0  0  0  0  0  0  0  0  0  0
   25.1314   46.9801   18.5897 C   0  0  0  0  0  0  0  0  0  0  0  0
   21.5091   47.2897   18.6279 C   0  0  0  0  0  0  0  0  0  0  0  0
   26.2918   46.5977   18.5266 O   0  0  0  0  0  0  0  0  0  0  0  0
   18.3612   55.4558   24.2129 C   0  0  0  0  0  0  0  0  0  0  0  0
   17.3515   57.4054   26.7642 C   0  0  0  0  0  0  0  0  0  0  0  0
   24.7627   48.4000   18.7691 C   0  0  0  0  0  0  0  0  0  0  0  0
   19.1659   51.1417   17.2785 C   0  0  0  0  0  0  0  0  0  0  0  0
   17.4252   54.4012   20.3508 O   0  0  0  0  0  0  0  0  0  0  0  0
   18.2318   58.2791   27.0561 O   0  0  0  0  0  0  0  0  0  0  0  0
   18.6210   54.3319   20.8859 C   0  0  0  0  0  0  0  0  0  0  0  0
   20.0841   52.1534   21.1184 C   0  0  0  0  0  0  0  0  0  0  0  0
   20.6991   52.5677   22.3426 C   0  0  0  0  0  0  0  0  0  0  0  0
   19.5884   50.0018   17.9724 N   0  0  0  0  0  0  0  0  0  0  0  0
   21.1260   49.2845   19.9025 C   0  0  0  0  0  0  0  0  0  0  0  0
   19.8881   48.6357   19.8310 N   0  0  0  0  0  0  0  0  0  0  0  0
   22.6313   46.3906   18.1404 C   0  0  0  0  0  0  0  0  0  0  0  0
   20.0817   47.4546   18.9896 C   0  0  0  0  0  0  0  0  0  0  0  0
   22.0989   48.5843   19.1257 C   0  0  0  0  0  0  0  0  0  0  0  0
   16.5424   55.6937   22.5978 C   0  0  0  0  0  0  0  0  0  0  0  0
   17.2783   55.6977   25.1522 C   0  0  0  0  0  0  0  0  0  0  0  0
   16.3503   57.8006   25.7553 C   0  0  0  0  0  0  0  0  0  0  0  0
   18.9805   52.2776   19.4013 C   0  0  0  0  0  0  0  0  0  0  0  0
   19.5971   53.3713   20.2389 C   0  0  0  0  0  0  0  0  0  0  0  0
   15.9253   56.7955   23.3693 C   0  0  0  0  0  0  0  0  0  0  0  0
   19.5161   50.2090   14.9009 C   0  0  0  0  0  0  0  0  0  0  0  0
   18.8932   52.3041   18.0515 N   0  0  0  0  0  0  0  0  0  0  0  0
   18.0132   55.6846   22.8334 C   0  0  0  0  0  0  0  0  0  0  0  0
   19.5986   51.1742   20.0897 C   0  0  0  0  0  0  0  0  0  0  0  0
   19.0311   55.2973   21.8886 C   0  0  0  0  0  0  0  0  0  0  0  0
   16.3127   56.7635   24.7789 C   0  0  0  0  0  0  0  0  0  0  0  0
   19.1362   51.3259   15.7903 C   0  0  0  0  0  0  0  0  0  0  0  0
   23.9546   46.0584   18.6756 C   0  0  0  0  0  0  0  0  0  0  0  0
   18.8747   52.0353   13.4335 O   0  0  0  0  0  0  0  0  0  0  0  0
  1 39  1  0
  2 11  1  0
  2 26  1  0
  3 29  1  0
  4 19  1  0
  4 20  1  0
  4 34  1  0
  5 31  1  0
  5 39  1  0
  6 12  1  0
  6 24  1  0
  7  9  2  0
  7 12  1  0
  7 38  1  0
  8 22  1  0
  8 23  1  0
  8 24  2  0
 10 26  1  0
 10 33  1  0
 11 15  1  0
 11 27  1  0
 13 19  1  0
 13 32  2  0
 13 37  1  0
 14 16  1  0
 16 29  1  0
 16 35  1  0
 17 18  1  0
 17 29  1  0
 17 34  1  0
 20 24  1  0
 21 23  1  0
 22 38  1  0
 25 30  1  0
 25 33  1  0
 26 36  1  0
 27 36  1  0
 28 29  1  0
 28 32  1  0
 28 34  1  0
 30 36  1  0
 31 37  1  0
 33 35  1  0
M  END
>  <ID>  (1) 
conformer_0

$$$$
