
     RDKit          3D

 36 39  0  0  0  0  0  0  0  0999 V2000
   18.3074   56.5262   24.0725 C   0  0  0  0  0  0  0  0  0  0  0  0
   21.3870   56.0409   12.2493 O   0  0  0  0  0  0  0  0  0  0  0  0
   19.9318   52.8137   18.5165 N   0  0  0  0  0  0  0  0  0  0  0  0
   20.9876   49.2332   18.7363 C   0  0  0  0  0  0  0  0  0  0  0  0
   20.4307   51.9822   20.8129 C   0  0  0  0  0  0  0  0  0  0  0  0
   16.3378   58.0753   26.5246 O   0  0  0  0  0  0  0  0  0  0  0  0
   21.7094   55.5262   15.4713 C   0  0  0  0  0  0  0  0  0  0  0  0
   18.5766   54.2064   21.3413 C   0  0  0  0  0  0  0  0  0  0  0  0
   19.5386   54.5967   16.8727 N   0  0  0  0  0  0  0  0  0  0  0  0
   22.6159   47.1028   17.9639 C   0  0  0  0  0  0  0  0  0  0  0  0
   24.2477   48.9847   19.1563 C   0  0  0  0  0  0  0  0  0  0  0  0
   16.9807   54.8923   23.3376 C   0  0  0  0  0  0  0  0  0  0  0  0
   18.0991   55.6570   23.0857 C   0  0  0  0  0  0  0  0  0  0  0  0
   23.3575   47.0600   20.3268 C   0  0  0  0  0  0  0  0  0  0  0  0
   23.4697   46.2906   18.9215 C   0  0  0  0  0  0  0  0  0  0  0  0
   18.8904   55.5535   21.8888 C   0  0  0  0  0  0  0  0  0  0  0  0
   24.8954   46.5196   18.4909 C   0  0  0  0  0  0  0  0  0  0  0  0
   17.2884   56.4266   25.0249 C   0  0  0  0  0  0  0  0  0  0  0  0
   16.4159   55.4510   24.5676 C   0  0  0  0  0  0  0  0  0  0  0  0
   25.1369   47.9836   18.5222 C   0  0  0  0  0  0  0  0  0  0  0  0
   20.9031   49.1198   21.1741 O   0  0  0  0  0  0  0  0  0  0  0  0
   20.9699   49.8029   20.1283 C   0  0  0  0  0  0  0  0  0  0  0  0
   19.8524   52.8253   19.8101 C   0  0  0  0  0  0  0  0  0  0  0  0
   21.2188   51.1268   20.2340 N   0  0  0  0  0  0  0  0  0  0  0  0
   17.1885   57.1222   26.2492 C   0  0  0  0  0  0  0  0  0  0  0  0
   19.5233   54.0265   18.0469 C   0  0  0  0  0  0  0  0  0  0  0  0
   20.9790   55.3618   14.3893 C   0  0  0  0  0  0  0  0  0  0  0  0
   20.4018   52.1918   21.9916 O   0  0  0  0  0  0  0  0  0  0  0  0
   21.9886   48.1973   18.7387 C   0  0  0  0  0  0  0  0  0  0  0  0
   19.1786   53.9566   20.1359 C   0  0  0  0  0  0  0  0  0  0  0  0
   22.9581   54.7827   13.2289 O   0  0  0  0  0  0  0  0  0  0  0  0
   19.0360   55.0021   15.8093 C   0  0  0  0  0  0  0  0  0  0  0  0
   23.0348   48.4390   19.8725 C   0  0  0  0  0  0  0  0  0  0  0  0
   19.5626   55.2456   14.5953 C   0  0  0  0  0  0  0  0  0  0  0  0
   19.0216   54.7416   19.0642 N   0  0  0  0  0  0  0  0  0  0  0  0
   21.8131   55.3867   13.1703 C   0  0  0  0  0  0  0  0  0  0  0  0
  1 13  1  0
  1 18  1  0
  2 36  2  0
  3 23  1  0
  3 26  2  0
  4 22  1  0
  4 29  1  0
  5 23  1  0
  5 24  1  0
  5 28  2  0
  6 25  1  0
  7 27  2  0
  8 16  1  0
  8 30  1  0
  9 26  1  0
  9 32  1  0
 10 15  1  0
 10 29  1  0
 11 20  2  0
 11 33  1  0
 12 13  1  0
 12 19  1  0
 13 16  1  0
 14 15  1  0
 14 33  1  0
 15 17  1  0
 17 20  1  0
 18 19  1  0
 18 25  1  0
 21 22  2  0
 22 24  1  0
 23 30  1  0
 26 35  1  0
 27 34  1  0
 27 36  1  0
 29 33  1  0
 30 35  1  0
 31 36  1  0
 32 34  1  0
M  END
>  <ID>  (1) 
conformer_0

$$$$
