
     RDKit          3D

 33 34  0  0  0  0  0  0  0  0999 V2000
   19.9115   49.7333   19.9826 O   0  0  0  0  0  0  0  0  0  0  0  0
   15.8871   55.7894   25.4318 C   0  0  0  0  0  0  0  0  0  0  0  0
   19.3278   52.6268   17.8801 N   0  0  0  0  0  0  0  0  0  0  0  0
   19.4491   53.9689   21.6429 C   0  0  0  0  0  0  0  0  0  0  0  0
   19.2951   54.7015   16.5245 C   0  0  0  0  0  0  0  0  0  0  0  0
   20.9503   48.2076   18.5629 C   0  0  0  0  0  0  0  0  0  0  0  0
   24.5789   47.1511   18.1153 C   0  0  0  0  0  0  0  0  0  0  0  0
   18.0993   53.8334   21.9164 C   0  0  0  0  0  0  0  0  0  0  0  0
   19.5535   54.0348   17.8328 N   0  0  0  0  0  0  0  0  0  0  0  0
   23.4760   48.9113   19.5371 C   0  0  0  0  0  0  0  0  0  0  0  0
   22.3510   49.5577   19.9655 C   0  0  0  0  0  0  0  0  0  0  0  0
   16.5226   56.9730   24.5546 C   0  0  0  0  0  0  0  0  0  0  0  0
   23.3406   47.9106   18.6130 C   0  0  0  0  0  0  0  0  0  0  0  0
   16.4054   56.0830   26.8246 C   0  0  0  0  0  0  0  0  0  0  0  0
   16.0215   57.4294   27.3445 C   0  0  0  0  0  0  0  0  0  0  0  0
   22.1140   47.5684   18.0831 C   0  0  0  0  0  0  0  0  0  0  0  0
   20.6826   54.6364   18.6718 C   0  0  0  0  0  0  0  0  0  0  0  0
   19.2760   51.8190   18.9973 C   0  0  0  0  0  0  0  0  0  0  0  0
   17.9499   56.6543   24.4478 C   0  0  0  0  0  0  0  0  0  0  0  0
   20.1350   55.0895   21.9374 C   0  0  0  0  0  0  0  0  0  0  0  0
   17.5382   54.7453   22.7803 C   0  0  0  0  0  0  0  0  0  0  0  0
   20.1831   53.0762   21.1324 O   0  0  0  0  0  0  0  0  0  0  0  0
   21.0272   51.3039   22.0784 O   0  0  0  0  0  0  0  0  0  0  0  0
   25.7867   47.8630   18.5074 C   0  0  0  0  0  0  0  0  0  0  0  0
   21.0964   49.1796   19.5118 C   0  0  0  0  0  0  0  0  0  0  0  0
   19.5972   56.0008   22.7805 C   0  0  0  0  0  0  0  0  0  0  0  0
   19.2285   50.7883   16.3040 C   0  0  0  0  0  0  0  0  0  0  0  0
   24.5196   47.0866   16.7822 F   0  0  0  0  0  0  0  0  0  0  0  0
   18.8082   52.0926   16.7306 O   0  0  0  0  0  0  0  0  0  0  0  0
   20.3715   51.7683   21.1819 C   0  0  0  0  0  0  0  0  0  0  0  0
   24.6404   45.8269   18.7646 C   0  0  0  0  0  0  0  0  0  0  0  0
   19.7698   51.0894   20.0211 C   0  0  0  0  0  0  0  0  0  0  0  0
   18.3533   55.7591   23.3202 C   0  0  0  0  0  0  0  0  0  0  0  0
  1 25  1  0
  1 32  1  0
  2 12  1  0
  2 14  1  0
  3  9  1  0
  3 18  1  0
  3 29  1  0
  4  8  2  0
  4 20  1  0
  4 22  1  0
  5  9  1  0
  6 16  1  0
  6 25  2  0
  7 13  1  0
  7 24  1  0
  7 28  1  0
  7 31  1  0
  8 21  1  0
  9 17  1  0
 10 11  1  0
 10 13  2  0
 11 25  1  0
 12 19  1  0
 13 16  1  0
 14 15  1  0
 18 32  1  0
 19 33  1  0
 20 26  2  0
 21 33  2  0
 22 30  1  0
 23 30  2  0
 26 33  1  0
 27 29  1  0
 30 32  1  0
M  END
>  <ID>  (1) 
conformer_0

$$$$
