
     RDKit          3D

 30 33  0  0  0  0  0  0  0  0999 V2000
   18.8762   52.4086   17.5266 C   0  0  0  0  0  0  0  0  0  0  0  0
   26.5322   48.3902   18.9787 C   0  0  0  0  0  0  0  0  0  0  0  0
   18.8154   53.1063   21.0822 C   0  0  0  0  0  0  0  0  0  0  0  0
   16.2701   55.5421   24.3939 C   0  0  0  0  0  0  0  0  0  0  0  0
   21.5850   49.9320   19.9086 C   0  0  0  0  0  0  0  0  0  0  0  0
   19.9565   50.2832   17.4181 C   0  0  0  0  0  0  0  0  0  0  0  0
   24.1117   48.7673   18.8810 C   0  0  0  0  0  0  0  0  0  0  0  0
   20.3124   55.1582   20.4683 C   0  0  0  0  0  0  0  0  0  0  0  0
   25.0169   46.6236   18.2956 C   0  0  0  0  0  0  0  0  0  0  0  0
   19.2719   50.1219   16.2312 F   0  0  0  0  0  0  0  0  0  0  0  0
   17.1919   57.0549   26.0104 C   0  0  0  0  0  0  0  0  0  0  0  0
   22.8265   48.2927   18.6058 C   0  0  0  0  0  0  0  0  0  0  0  0
   23.7606   46.1576   18.0648 C   0  0  0  0  0  0  0  0  0  0  0  0
   19.5911   55.3305   21.7016 O   0  0  0  0  0  0  0  0  0  0  0  0
   20.0388   54.2441   19.2866 C   0  0  0  0  0  0  0  0  0  0  0  0
   20.0989   51.7976   19.4768 C   0  0  0  0  0  0  0  0  0  0  0  0
   17.9411   52.2103   21.1654 O   0  0  0  0  0  0  0  0  0  0  0  0
   16.1325   56.3145   25.5254 C   0  0  0  0  0  0  0  0  0  0  0  0
   22.6716   46.9867   18.2083 C   0  0  0  0  0  0  0  0  0  0  0  0
   18.3825   57.0288   25.3373 C   0  0  0  0  0  0  0  0  0  0  0  0
   19.6758   53.0215   20.0102 N   0  0  0  0  0  0  0  0  0  0  0  0
   20.9059   51.0059   20.2525 C   0  0  0  0  0  0  0  0  0  0  0  0
   18.7191   54.2890   21.9872 C   0  0  0  0  0  0  0  0  0  0  0  0
   21.7015   49.1948   18.7387 C   0  0  0  0  0  0  0  0  0  0  0  0
   20.7879   49.3012   17.7186 C   0  0  0  0  0  0  0  0  0  0  0  0
   17.4911   55.5021   23.7370 C   0  0  0  0  0  0  0  0  0  0  0  0
   25.1703   47.9110   18.6938 C   0  0  0  0  0  0  0  0  0  0  0  0
   17.5871   54.6157   22.6509 N   0  0  0  0  0  0  0  0  0  0  0  0
   19.7160   51.4437   18.1856 C   0  0  0  0  0  0  0  0  0  0  0  0
   18.5128   56.2649   24.1891 C   0  0  0  0  0  0  0  0  0  0  0  0
  1 29  1  0
  2 27  1  0
  3 17  2  0
  3 21  1  0
  3 23  1  0
  4 18  2  0
  4 26  1  0
  5 22  2  0
  5 24  1  0
  6 10  1  0
  6 25  2  0
  6 29  1  0
  7 12  2  0
  7 27  1  0
  8 14  1  0
  8 15  1  0
  9 13  1  0
  9 27  2  0
 11 18  1  0
 11 20  2  0
 12 19  1  0
 12 24  1  0
 13 19  2  0
 14 23  1  0
 15 21  1  0
 16 21  1  0
 16 22  1  0
 16 29  2  0
 20 30  1  0
 23 28  1  0
 24 25  1  0
 26 28  1  0
 26 30  2  0
M  END
>  <ID>  (1) 
conformer_0

$$$$
