
     RDKit          3D

 34 37  0  0  0  0  0  0  0  0999 V2000
   17.1470   56.6706   24.8496 S   0  0  0  0  0  4  0  0  0  0  0  0
   21.4167   49.4088   20.2906 C   0  0  0  0  0  0  0  0  0  0  0  0
   18.4446   55.5496   22.9526 C   0  0  0  0  0  0  0  0  0  0  0  0
   21.2508   55.6894   17.1100 O   0  0  0  0  0  0  0  0  0  0  0  0
   23.3526   48.7247   18.8845 C   0  0  0  0  0  0  0  0  0  0  0  0
   19.4817   53.7519   19.3625 C   0  0  0  0  0  0  0  0  0  0  0  0
   20.0958   54.6112   21.5472 C   0  0  0  0  0  0  0  0  0  0  0  0
   24.2599   47.6877   18.3908 C   0  0  0  0  0  0  0  0  0  0  0  0
   20.6056   51.6114   20.8087 C   0  0  0  0  0  0  0  0  0  0  0  0
   18.2012   56.5295   23.8422 O   0  0  0  0  0  0  0  0  0  0  0  0
   24.6722   47.7190   17.1358 O   0  0  0  0  0  0  0  0  0  0  0  0
   18.8630   51.8295   17.4759 C   0  0  0  0  0  0  0  0  0  0  0  0
   20.0962   49.1697   19.7370 C   0  0  0  0  0  0  0  0  0  0  0  0
   17.7741   54.1447   21.0728 C   0  0  0  0  0  0  0  0  0  0  0  0
   15.8331   56.7645   24.0221 F   0  0  0  0  0  0  0  0  0  0  0  0
   17.4559   54.8462   22.2143 C   0  0  0  0  0  0  0  0  0  0  0  0
   22.3004   47.1812   20.3205 C   0  0  0  0  0  0  0  0  0  0  0  0
   19.3576   52.5220   18.6556 C   0  0  0  0  0  0  0  0  0  0  0  0
   20.1178   51.5460   19.4393 C   0  0  0  0  0  0  0  0  0  0  0  0
   25.6732   48.0185   18.1445 C   0  0  0  0  0  0  0  0  0  0  0  0
   19.7718   55.2918   22.6307 C   0  0  0  0  0  0  0  0  0  0  0  0
   19.4178   49.4670   16.8046 O   0  0  0  0  0  0  0  0  0  0  0  0
   22.3884   48.4580   19.8247 C   0  0  0  0  0  0  0  0  0  0  0  0
   19.1616   54.9210   17.0293 N   0  0  0  0  0  0  0  0  0  0  0  0
   19.1260   54.1351   20.7110 C   0  0  0  0  0  0  0  0  0  0  0  0
   17.2673   57.8107   25.6293 O   0  0  0  0  0  0  0  0  0  0  0  0
   19.7248   50.2651   18.9265 C   0  0  0  0  0  0  0  0  0  0  0  0
   17.1726   55.4650   25.6772 O   0  0  0  0  0  0  0  0  0  0  0  0
   24.0756   46.3889   19.0093 C   0  0  0  0  0  0  0  0  0  0  0  0
   21.6157   50.5699   21.0695 C   0  0  0  0  0  0  0  0  0  0  0  0
   23.1224   46.1800   19.9251 C   0  0  0  0  0  0  0  0  0  0  0  0
   19.1650   50.4326   17.6160 C   0  0  0  0  0  0  0  0  0  0  0  0
   20.3243   55.0062   17.5872 C   0  0  0  0  0  0  0  0  0  0  0  0
   20.5681   54.4648   18.8600 N   0  0  0  0  0  0  0  0  0  0  0  0
  1 10  1  0
  1 15  1  0
  1 26  1  0
  1 28  1  0
  2 13  1  0
  2 23  1  0
  2 30  1  0
  3 10  1  0
  3 16  2  0
  3 21  1  0
  4 33  2  0
  5  8  1  0
  5 23  1  0
  6 18  1  0
  6 25  1  0
  6 34  1  0
  7 21  2  0
  7 25  1  0
  8 11  1  0
  8 20  1  0
  8 29  1  0
  9 19  1  0
  9 30  1  0
 12 18  1  0
 12 32  1  0
 13 27  1  0
 14 16  1  0
 14 25  2  0
 17 23  2  0
 17 31  1  0
 18 19  1  0
 19 27  1  0
 22 32  1  0
 24 33  1  0
 27 32  1  0
 29 31  2  0
 33 34  1  0
M  END
>  <ID>  (1) 
conformer_0

$$$$
