
     RDKit          3D

 29 33  0  0  0  0  0  0  0  0999 V2000
   17.3673   57.5394   25.2185 N   0  0  0  0  0  0  0  0  0  0  0  0
   20.9853   48.2365   17.9722 C   0  0  0  0  0  0  0  0  0  0  0  0
   20.2806   54.7885   20.0639 C   0  0  0  0  0  0  0  0  0  0  0  0
   20.3400   51.1324   20.8002 C   0  0  0  0  0  0  0  0  0  0  0  0
   19.3842   55.6695   22.1913 C   0  0  0  0  0  0  0  0  0  0  0  0
   20.3745   52.4962   20.6284 C   0  0  0  0  0  0  0  0  0  0  0  0
   16.7278   57.0853   26.3114 C   0  0  0  0  0  0  0  0  0  0  0  0
   17.5741   56.7254   24.1715 C   0  0  0  0  0  0  0  0  0  0  0  0
   19.9033   49.1035   17.8583 C   0  0  0  0  0  0  0  0  0  0  0  0
   19.4590   53.5651   20.2553 C   0  0  0  0  0  0  0  0  0  0  0  0
   25.7619   46.4727   18.7125 C   0  0  0  0  0  0  0  0  0  0  0  0
   23.3787   46.4604   18.5956 C   0  0  0  0  0  0  0  0  0  0  0  0
   19.2234   51.8060   18.3204 C   0  0  0  0  0  0  0  0  0  0  0  0
   22.0795   48.5692   18.7764 C   0  0  0  0  0  0  0  0  0  0  0  0
   18.3676   53.7187   21.1673 C   0  0  0  0  0  0  0  0  0  0  0  0
   18.8117   53.2389   18.8396 C   0  0  0  0  0  0  0  0  0  0  0  0
   16.2885   55.8095   26.3479 C   0  0  0  0  0  0  0  0  0  0  0  0
   16.4644   54.9858   25.2860 C   0  0  0  0  0  0  0  0  0  0  0  0
   18.4316   54.6480   22.2031 C   0  0  0  0  0  0  0  0  0  0  0  0
   24.5359   48.5009   18.7878 C   0  0  0  0  0  0  0  0  0  0  0  0
   19.8798   50.3685   18.5549 N   0  0  0  0  0  0  0  0  0  0  0  0
   17.1557   55.4371   24.2007 C   0  0  0  0  0  0  0  0  0  0  0  0
   20.7204   50.3759   19.6036 C   0  0  0  0  0  0  0  0  0  0  0  0
   25.7307   47.8299   18.7876 C   0  0  0  0  0  0  0  0  0  0  0  0
   23.3356   47.8457   18.7324 C   0  0  0  0  0  0  0  0  0  0  0  0
   24.5749   45.7941   18.6059 C   0  0  0  0  0  0  0  0  0  0  0  0
   17.3368   54.5240   23.1264 C   0  0  0  0  0  0  0  0  0  0  0  0
   20.4007   55.6562   21.1854 C   0  0  0  0  0  0  0  0  0  0  0  0
   21.8740   49.6592   19.6008 C   0  0  0  0  0  0  0  0  0  0  0  0
  1  7  2  0
  1  8  1  0
  2  9  2  0
  2 14  1  0
  3 10  1  0
  3 28  1  0
  4  6  1  0
  4 23  1  0
  5 19  2  0
  5 28  1  0
  6 10  1  0
  7 17  1  0
  8 22  2  0
  9 21  1  0
 10 15  1  0
 10 16  1  0
 11 24  2  0
 11 26  1  0
 12 25  1  0
 12 26  2  0
 13 16  1  0
 13 21  1  0
 14 25  1  0
 14 29  2  0
 15 19  1  0
 17 18  2  0
 18 22  1  0
 19 27  1  0
 20 24  1  0
 20 25  2  0
 21 23  1  0
 22 27  1  0
 23 29  1  0
M  END
>  <ID>  (1) 
conformer_0

$$$$
