
     RDKit          3D

 44 48  0  0  0  0  0  0  0  0999 V2000
   19.2676   51.4122   18.2540 C   0  0  0  0  0  0  0  0  0  0  0  0
   17.6764   52.2542   20.6027 C   0  0  0  0  0  0  0  0  0  0  0  0
   19.6175   53.7522   20.2832 C   0  0  0  0  0  0  0  0  0  0  0  0
   19.8894   54.6424   16.6311 C   0  0  0  0  0  0  0  0  0  0  0  0
   19.9035   47.9984   17.6132 C   0  0  0  0  0  0  0  0  0  0  0  0
   21.8941   50.5097   25.8247 C   0  0  0  0  0  0  0  0  0  0  0  0
   19.6438   53.8450   18.8490 C   0  0  0  0  0  0  0  0  0  0  0  0
   20.0082   51.1605   22.8040 O   0  0  0  0  0  0  0  0  0  0  0  0
   19.3271   46.9646   18.2578 O   0  0  0  0  0  0  0  0  0  0  0  0
   20.7520   55.9715   20.4674 C   0  0  0  0  0  0  0  0  0  0  0  0
   17.4528   55.0478   22.1157 C   0  0  0  0  0  0  0  0  0  0  0  0
   19.1724   53.2834   16.6145 C   0  0  0  0  0  0  0  0  0  0  0  0
   19.2737   48.3924   16.3178 C   0  0  0  0  0  0  0  0  0  0  0  0
   19.2325   56.3252   23.0668 C   0  0  0  0  0  0  0  0  0  0  0  0
   22.1654   48.3619   18.5167 C   0  0  0  0  0  0  0  0  0  0  0  0
   20.3247   50.1908   20.4988 C   0  0  0  0  0  0  0  0  0  0  0  0
   19.5404   55.1794   20.8521 C   0  0  0  0  0  0  0  0  0  0  0  0
   18.9428   57.4896   25.1983 C   0  0  0  0  0  0  0  0  0  0  0  0
   19.6238   49.7173   15.8349 C   0  0  0  0  0  0  0  0  0  0  0  0
   24.5492   45.5855   18.1382 F   0  0  0  0  0  0  0  0  0  0  0  0
   19.2842   48.9895   20.6251 C   0  0  0  0  0  0  0  0  0  0  0  0
   20.1489   55.0127   18.1791 O   0  0  0  0  0  0  0  0  0  0  0  0
   21.1357   49.3754   23.7084 O   0  0  0  0  0  0  0  0  0  0  0  0
   24.3360   48.9857   19.2753 C   0  0  0  0  0  0  0  0  0  0  0  0
   16.6466   55.3428   23.1742 C   0  0  0  0  0  0  0  0  0  0  0  0
   24.8649   47.7713   18.8413 C   0  0  0  0  0  0  0  0  0  0  0  0
   20.9435   50.3938   21.8609 C   0  0  0  0  0  0  0  0  0  0  0  0
   18.4441   56.6236   24.1457 C   0  0  0  0  0  0  0  0  0  0  0  0
   20.6692   50.6550   23.8705 C   0  0  0  0  0  0  0  0  0  0  0  0
   18.7686   55.5186   22.0411 C   0  0  0  0  0  0  0  0  0  0  0  0
   18.4144   57.6768   26.4249 O   0  0  0  0  0  0  0  0  0  0  0  0
   22.6297   47.0731   18.2648 C   0  0  0  0  0  0  0  0  0  0  0  0
   23.0230   49.2540   19.0722 C   0  0  0  0  0  0  0  0  0  0  0  0
   19.0396   52.8660   18.0184 C   0  0  0  0  0  0  0  0  0  0  0  0
   19.8210   51.3261   19.7115 C   0  0  0  0  0  0  0  0  0  0  0  0
   21.2157   55.6643   19.0439 C   0  0  0  0  0  0  0  0  0  0  0  0
   16.2726   56.5411   25.1357 O   0  0  0  0  0  0  0  0  0  0  0  0
   18.9592   52.0663   15.8370 C   0  0  0  0  0  0  0  0  0  0  0  0
   20.9122   48.7595   18.2047 O   0  0  0  0  0  0  0  0  0  0  0  0
   24.0221   46.7997   18.3821 C   0  0  0  0  0  0  0  0  0  0  0  0
   17.1279   56.1664   24.1784 C   0  0  0  0  0  0  0  0  0  0  0  0
   19.0848   50.8192   16.7941 C   0  0  0  0  0  0  0  0  0  0  0  0
   20.8507   51.3294   25.2061 C   0  0  0  0  0  0  0  0  0  0  0  0
   19.1827   52.3949   20.5944 C   0  0  0  0  0  0  0  0  0  0  0  0
  1 34  1  0
  1 35  1  0
  1 42  1  0
  2 44  1  0
  3  7  1  0
  3 17  1  0
  3 44  1  0
  4 12  1  0
  5  9  2  0
  5 13  1  0
  5 39  1  0
  6 43  1  0
  7 22  1  0
  7 34  1  0
  8 27  1  0
  8 29  1  0
 10 17  1  0
 10 36  1  0
 11 25  2  0
 11 30  1  0
 12 34  1  0
 12 38  1  0
 13 19  1  0
 14 28  1  0
 14 30  2  0
 15 32  1  0
 15 33  2  0
 15 39  1  0
 16 21  1  0
 16 27  1  0
 16 35  1  0
 17 30  1  0
 18 28  1  0
 18 31  1  0
 19 42  1  0
 20 40  1  0
 22 36  1  0
 23 29  2  0
 24 26  1  0
 24 33  1  0
 25 41  1  0
 26 40  2  0
 28 41  2  0
 29 43  1  0
 32 40  1  0
 35 44  1  0
 37 41  1  0
 38 42  1  0
M  END
>  <ID>  (1) 
conformer_0

$$$$
