
     RDKit          3D

 31 35  0  0  0  0  0  0  0  0999 V2000
   19.1073   53.6457   17.8277 C   0  0  0  0  0  0  0  0  0  0  0  0
   16.7582   57.2542   26.5516 O   0  0  0  0  0  0  0  0  0  0  0  0
   18.9300   56.6132   23.7149 C   0  0  0  0  0  0  0  0  0  0  0  0
   21.2789   48.4248   18.8814 N   0  0  0  0  0  0  0  0  0  0  0  0
   20.8806   51.5043   20.7969 C   0  0  0  0  0  0  0  0  0  0  0  0
   25.5604   47.8177   18.9714 C   0  0  0  0  0  0  0  0  0  0  0  0
   19.0695   53.0854   22.5400 O   0  0  0  0  0  0  0  0  0  0  0  0
   20.8785   49.6462   19.2584 C   0  0  0  0  0  0  0  0  0  0  0  0
   25.2856   46.6534   18.3700 C   0  0  0  0  0  0  0  0  0  0  0  0
   18.4333   57.1526   24.8958 C   0  0  0  0  0  0  0  0  0  0  0  0
   21.5825   50.4108   20.1795 C   0  0  0  0  0  0  0  0  0  0  0  0
   19.8726   52.1408   20.0068 C   0  0  0  0  0  0  0  0  0  0  0  0
   18.9868   54.2137   19.1239 C   0  0  0  0  0  0  0  0  0  0  0  0
   23.4747   48.9164   19.5864 C   0  0  0  0  0  0  0  0  0  0  0  0
   19.4947   54.5652   16.3348 Cl  0  0  0  0  0  0  0  0  0  0  0  0
   19.7240   50.1564   18.6744 O   0  0  0  0  0  0  0  0  0  0  0  0
   18.2195   55.6052   23.0940 C   0  0  0  0  0  0  0  0  0  0  0  0
   16.5297   55.7126   24.7880 C   0  0  0  0  0  0  0  0  0  0  0  0
   18.9321   53.8522   21.5986 C   0  0  0  0  0  0  0  0  0  0  0  0
   19.1637   52.2398   17.6756 C   0  0  0  0  0  0  0  0  0  0  0  0
   24.0243   46.2123   18.1161 C   0  0  0  0  0  0  0  0  0  0  0  0
   19.5901   51.5251   18.7974 C   0  0  0  0  0  0  0  0  0  0  0  0
   22.8892   46.8284   18.3729 C   0  0  0  0  0  0  0  0  0  0  0  0
   17.0321   55.1496   23.6088 C   0  0  0  0  0  0  0  0  0  0  0  0
   18.8513   51.6485   16.5979 O   0  0  0  0  0  0  0  0  0  0  0  0
   22.5749   48.0382   18.9348 C   0  0  0  0  0  0  0  0  0  0  0  0
   17.2462   56.6973   25.4166 C   0  0  0  0  0  0  0  0  0  0  0  0
   24.8213   48.7399   19.4835 C   0  0  0  0  0  0  0  0  0  0  0  0
   22.9409   50.0058   20.2895 C   0  0  0  0  0  0  0  0  0  0  0  0
   18.6293   55.1548   21.8433 N   0  0  0  0  0  0  0  0  0  0  0  0
   19.2537   53.4084   20.2734 C   0  0  0  0  0  0  0  0  0  0  0  0
  1 13  1  0
  1 15  1  0
  1 20  1  0
  2 27  1  0
  3 10  2  0
  3 17  1  0
  4  8  1  0
  4 26  2  0
  5 11  1  0
  5 12  2  0
  6  9  1  0
  6 28  2  0
  7 19  2  0
  8 11  1  0
  8 16  1  0
  9 21  1  0
 10 27  1  0
 11 29  1  0
 12 22  1  0
 12 31  1  0
 13 31  2  0
 14 26  1  0
 14 28  1  0
 14 29  2  0
 16 22  1  0
 17 24  2  0
 17 30  1  0
 18 24  1  0
 18 27  2  0
 19 30  1  0
 19 31  1  0
 20 22  1  0
 20 25  2  0
 21 23  2  0
 23 26  1  0
M  END
>  <ID>  (1) 
conformer_0

$$$$
