
     RDKit          3D

 30 34  0  0  0  0  0  0  0  0999 V2000
   21.5137   48.2363   18.0540 C   0  0  0  0  0  0  0  0  0  0  0  0
   18.8050   56.1335   23.3831 C   0  0  0  0  0  0  0  0  0  0  0  0
   19.8755   56.2142   22.4861 N   0  0  0  0  0  0  0  0  0  0  0  0
   22.9042   47.9549   18.4000 C   0  0  0  0  0  0  0  0  0  0  0  0
   18.0527   57.0772   25.5140 N   0  0  0  0  0  0  0  0  0  0  0  0
   25.6017   47.3966   18.9447 C   0  0  0  0  0  0  0  0  0  0  0  0
   16.9062   56.3150   25.6036 C   0  0  0  0  0  0  0  0  0  0  0  0
   20.4948   50.9439   20.5446 C   0  0  0  0  0  0  0  0  0  0  0  0
   23.4140   46.6133   18.3799 C   0  0  0  0  0  0  0  0  0  0  0  0
   18.8631   56.9408   24.4811 C   0  0  0  0  0  0  0  0  0  0  0  0
   20.0381   54.6394   20.1594 C   0  0  0  0  0  0  0  0  0  0  0  0
   24.7262   46.3816   18.7396 C   0  0  0  0  0  0  0  0  0  0  0  0
   25.1853   45.0493   18.9812 C   0  0  0  0  0  0  0  0  0  0  0  0
   21.1265   49.8847   19.9106 C   0  0  0  0  0  0  0  0  0  0  0  0
   16.7911   54.8412   23.5260 C   0  0  0  0  0  0  0  0  0  0  0  0
   23.8172   48.9700   18.6883 C   0  0  0  0  0  0  0  0  0  0  0  0
   16.4136   55.3814   24.7396 C   0  0  0  0  0  0  0  0  0  0  0  0
   19.1234   50.9797   17.5404 C   0  0  0  0  0  0  0  0  0  0  0  0
   20.8599   47.4526   17.3068 O   0  0  0  0  0  0  0  0  0  0  0  0
   19.1300   51.6568   18.6318 C   0  0  0  0  0  0  0  0  0  0  0  0
   19.9624   50.0774   17.7732 C   0  0  0  0  0  0  0  0  0  0  0  0
   18.9936   52.6675   20.7198 O   0  0  0  0  0  0  0  0  0  0  0  0
   19.5627   51.7438   19.9106 C   0  0  0  0  0  0  0  0  0  0  0  0
   18.6158   53.8845   20.1572 C   0  0  0  0  0  0  0  0  0  0  0  0
   18.3196   54.6883   21.5617 C   0  0  0  0  0  0  0  0  0  0  0  0
   20.8751   49.4629   18.5858 C   0  0  0  0  0  0  0  0  0  0  0  0
   19.7516   55.2992   21.5003 C   0  0  0  0  0  0  0  0  0  0  0  0
   25.1545   48.6779   18.9032 C   0  0  0  0  0  0  0  0  0  0  0  0
   16.1068   56.5719   26.8223 C   0  0  0  0  0  0  0  0  0  0  0  0
   17.9404   55.2160   22.8830 C   0  0  0  0  0  0  0  0  0  0  0  0
  1  4  1  0
  1 19  2  0
  1 26  1  0
  2  3  1  0
  2 10  1  0
  2 30  2  0
  3 27  1  0
  4  9  2  0
  4 16  1  0
  5  7  1  0
  5 10  2  0
  6 12  2  0
  6 28  1  0
  7 17  2  0
  7 29  1  0
  8 14  2  0
  8 23  1  0
  9 12  1  0
 11 24  1  0
 11 27  1  0
 12 13  1  0
 14 26  1  0
 15 17  1  0
 15 30  1  0
 16 28  2  0
 18 20  1  0
 18 21  1  0
 20 23  2  0
 21 26  2  0
 22 23  1  0
 22 24  1  0
 24 25  1  0
 25 27  2  0
 25 30  1  0
M  END
>  <ID>  (1) 
conformer_0

$$$$
