
     RDKit          3D

 42 45  0  0  0  0  0  0  0  0999 V2000
   18.3937   52.4534   20.1525 O   0  0  0  0  0  0  0  0  0  0  0  0
   23.8118   47.8055   18.7634 C   0  0  0  0  0  0  0  0  0  0  0  0
   20.1039   52.3345   26.9661 C   0  0  0  0  0  0  0  0  0  0  0  0
   19.1362   51.8640   18.9218 C   0  0  0  0  0  0  0  0  0  0  0  0
   17.9767   56.1736   23.1777 O   0  0  0  0  0  0  0  0  0  0  0  0
   21.4129   55.3875   18.7682 O   0  0  0  0  0  0  0  0  0  0  0  0
   18.8289   56.0627   22.1626 C   0  0  0  0  0  0  0  0  0  0  0  0
   16.9707   56.8970   23.6330 C   0  0  0  0  0  0  0  0  0  0  0  0
   21.2457   51.7593   24.9818 F   0  0  0  0  0  0  0  0  0  0  0  0
   20.6150   55.6469   19.9136 C   0  0  0  0  0  0  0  0  0  0  0  0
   23.0770   47.7828   17.4371 C   0  0  0  0  0  0  0  0  0  0  0  0
   20.8744   56.6205   20.8982 C   0  0  0  0  0  0  0  0  0  0  0  0
   16.7093   56.8780   25.1502 C   0  0  0  0  0  0  0  0  0  0  0  0
   16.9473   53.9928   19.1211 O   0  0  0  0  0  0  0  0  0  0  0  0
   20.1941   52.3628   25.6160 C   0  0  0  0  0  0  0  0  0  0  0  0
   19.6205   50.4060   19.3719 C   0  0  0  0  0  0  0  0  0  0  0  0
   22.0226   55.6973   16.2827 C   0  0  0  0  0  0  0  0  0  0  0  0
   17.4953   53.5173   20.0804 C   0  0  0  0  0  0  0  0  0  0  0  0
   20.3202   52.6340   18.5799 O   0  0  0  0  0  0  0  0  0  0  0  0
   20.4863   55.3486   15.9225 C   0  0  0  0  0  0  0  0  0  0  0  0
   17.4803   54.2854   21.3430 N   0  0  0  0  0  0  0  0  0  0  0  0
   19.4686   54.9562   20.1397 C   0  0  0  0  0  0  0  0  0  0  0  0
   19.1341   52.9378   24.8115 C   0  0  0  0  0  0  0  0  0  0  0  0
   22.1428   55.8924   17.8088 C   0  0  0  0  0  0  0  0  0  0  0  0
   21.0637   48.7896   18.4132 C   0  0  0  0  0  0  0  0  0  0  0  0
   18.6303   55.0880   21.1433 C   0  0  0  0  0  0  0  0  0  0  0  0
   21.2223   51.7776   27.6620 F   0  0  0  0  0  0  0  0  0  0  0  0
   19.0233   52.7175   27.7515 C   0  0  0  0  0  0  0  0  0  0  0  0
   18.0838   53.3964   27.0692 C   0  0  0  0  0  0  0  0  0  0  0  0
   23.8929   46.3908   19.4029 C   0  0  0  0  0  0  0  0  0  0  0  0
   16.5339   58.0685   25.6494 O   0  0  0  0  0  0  0  0  0  0  0  0
   17.1887   54.3724   25.1025 O   0  0  0  0  0  0  0  0  0  0  0  0
   19.9578   56.8615   22.0230 C   0  0  0  0  0  0  0  0  0  0  0  0
   19.7772   49.3906   18.3115 C   0  0  0  0  0  0  0  0  0  0  0  0
   16.8882   55.5814   25.8586 C   0  0  0  0  0  0  0  0  0  0  0  0
   18.2295   51.8058   17.8172 O   0  0  0  0  0  0  0  0  0  0  0  0
   20.9031   50.3299   20.1668 C   0  0  0  0  0  0  0  0  0  0  0  0
   18.1080   53.5161   25.6262 C   0  0  0  0  0  0  0  0  0  0  0  0
   21.8230   49.3183   19.4906 C   0  0  0  0  0  0  0  0  0  0  0  0
   23.1560   48.8524   19.6477 C   0  0  0  0  0  0  0  0  0  0  0  0
   21.6676   47.8993   17.5680 C   0  0  0  0  0  0  0  0  0  0  0  0
   25.2946   47.9939   18.5912 C   0  0  0  0  0  0  0  0  0  0  0  0
  1  4  1  0
  1 18  1  0
  2 11  1  0
  2 30  1  0
  2 40  1  0
  2 42  1  0
  3 15  2  0
  3 27  1  0
  3 28  1  0
  4 16  1  0
  4 19  1  0
  4 36  1  0
  5  7  1  0
  5  8  1  0
  6 10  1  0
  6 24  1  0
  7 26  1  0
  7 33  2  0
  8 13  1  0
  9 15  1  0
 10 12  2  0
 10 22  1  0
 11 41  1  0
 12 33  1  0
 13 31  1  0
 13 35  2  3
 14 18  2  0
 15 23  1  0
 16 34  1  0
 16 37  1  0
 17 20  1  0
 17 24  1  0
 18 21  1  0
 21 26  1  0
 22 26  2  0
 23 38  1  0
 25 34  1  0
 25 39  2  0
 25 41  1  0
 28 29  1  0
 29 38  2  0
 32 35  1  0
 32 38  1  0
 37 39  1  0
 39 40  1  0
M  END
>  <ID>  (1) 
conformer_0

$$$$
