
     RDKit          3D

 44 49  0  0  0  0  0  0  0  0999 V2000
   18.6669   54.2474   22.3735 C   0  0  0  0  0  0  0  0  0  0  0  0
   22.7259   47.8023   19.6651 C   0  0  0  0  0  0  0  0  0  0  0  0
   18.1089   55.9837   25.4111 O   0  0  0  0  0  0  0  0  0  0  0  0
   19.5088   57.9558   25.4359 O   0  0  0  0  0  0  0  0  0  0  0  0
   19.0753   51.0910   16.6576 O   0  0  0  0  0  0  0  0  0  0  0  0
   24.4162   46.2129   19.0584 C   0  0  0  0  0  0  0  0  0  0  0  0
   18.1873   57.4284   27.3866 O   0  0  0  0  0  0  0  0  0  0  0  0
   16.9835   58.2406   25.4059 N   0  0  0  0  0  0  0  0  0  0  0  0
   16.7226   55.7455   23.4807 C   0  0  0  0  0  0  0  0  0  0  0  0
   19.6449   54.5793   17.2993 C   0  0  0  0  0  0  0  0  0  0  0  0
   24.7582   49.8653   20.1603 C   0  0  0  0  0  0  0  0  0  0  0  0
   21.7632   48.2638   18.6373 C   0  0  0  0  0  0  0  0  0  0  0  0
   17.9120   55.5352   24.1864 C   0  0  0  0  0  0  0  0  0  0  0  0
   20.1191   51.5767   19.4949 C   0  0  0  0  0  0  0  0  0  0  0  0
   20.9305   55.3239   17.8456 C   0  0  0  0  0  0  0  0  0  0  0  0
   18.2482   57.4350   25.9548 S   0  0  0  0  0  4  0  0  0  0  0  0
   16.6285   53.3202   19.7222 O   0  0  0  0  0  0  0  0  0  0  0  0
   19.2577   53.3511   17.7491 O   0  0  0  0  0  0  0  0  0  0  0  0
   19.4727   48.8488   16.8290 C   0  0  0  0  0  0  0  0  0  0  0  0
   26.7181   46.9069   19.0323 N   0  0  0  0  0  0  0  0  0  0  0  0
   21.7411   49.5751   20.5493 C   0  0  0  0  0  0  0  0  0  0  0  0
   17.5207   53.8772   20.3779 C   0  0  0  0  0  0  0  0  0  0  0  0
   20.4847   52.6959   21.8277 C   0  0  0  0  0  0  0  0  0  0  0  0
   25.9912   50.7277   19.9407 C   0  0  0  0  0  0  0  0  0  0  0  0
   21.1415   49.4558   19.2476 C   0  0  0  0  0  0  0  0  0  0  0  0
   20.6588   51.6005   20.8410 C   0  0  0  0  0  0  0  0  0  0  0  0
   17.4669   54.4893   21.7082 C   0  0  0  0  0  0  0  0  0  0  0  0
   25.0864   48.4718   19.7262 C   0  0  0  0  0  0  0  0  0  0  0  0
   19.4858   53.5096   21.5308 N   0  0  0  0  0  0  0  0  0  0  0  0
   26.3517   48.1938   19.3935 C   0  0  0  0  0  0  0  0  0  0  0  0
   19.5154   50.1794   17.4631 C   0  0  0  0  0  0  0  0  0  0  0  0
   19.4195   52.8047   19.0208 C   0  0  0  0  0  0  0  0  0  0  0  0
   22.7830   48.5772   21.0344 C   0  0  0  0  0  0  0  0  0  0  0  0
   24.1106   47.4760   19.4675 C   0  0  0  0  0  0  0  0  0  0  0  0
   21.4293   50.5884   21.3681 C   0  0  0  0  0  0  0  0  0  0  0  0
   16.4830   55.2002   22.2523 C   0  0  0  0  0  0  0  0  0  0  0  0
   19.8399   54.6052   15.7082 C   0  0  0  0  0  0  0  0  0  0  0  0
   25.7616   45.9736   18.8504 C   0  0  0  0  0  0  0  0  0  0  0  0
   19.5732   48.9508   15.3398 C   0  0  0  0  0  0  0  0  0  0  0  0
   19.0887   47.4985   17.2110 C   0  0  0  0  0  0  0  0  0  0  0  0
   18.9542   53.5612   20.1690 C   0  0  0  0  0  0  0  0  0  0  0  0
   18.9370   54.7043   23.5783 C   0  0  0  0  0  0  0  0  0  0  0  0
   18.3867   54.8794   17.9217 C   0  0  0  0  0  0  0  0  0  0  0  0
   20.2671   50.4263   18.7301 C   0  0  0  0  0  0  0  0  0  0  0  0
  1 27  1  0
  1 29  1  0
  1 42  2  0
  2 12  1  0
  2 33  1  0
  2 34  1  0
  3 13  1  0
  3 16  1  0
  4 16  1  0
  5 31  1  0
  6 34  2  0
  6 38  1  0
  7 16  1  0
  8 16  1  0
  9 13  2  0
  9 36  1  0
 10 15  1  0
 10 18  1  0
 10 37  1  0
 10 43  1  0
 11 24  1  0
 11 28  1  0
 12 25  1  0
 13 42  1  0
 14 26  2  0
 14 32  1  0
 14 44  1  0
 17 22  2  0
 18 32  1  0
 19 31  1  0
 19 39  1  0
 19 40  1  0
 20 30  1  0
 20 38  2  0
 21 25  1  0
 21 33  1  0
 21 35  2  0
 22 27  1  0
 22 41  1  0
 23 26  1  0
 23 29  1  0
 25 44  1  0
 26 35  1  0
 27 36  2  0
 28 30  2  0
 28 34  1  0
 29 41  1  0
 31 44  1  0
 32 41  1  0
M  END
>  <ID>  (1) 
conformer_0

$$$$
