
     RDKit          3D

 31 35  0  0  0  0  0  0  0  0999 V2000
   21.9136   48.8416   19.5686 C   0  0  0  0  0  0  0  0  0  0  0  0
   21.2501   49.7853   18.7879 C   0  0  0  0  0  0  0  0  0  0  0  0
   20.0523   54.5253   17.5371 O   0  0  0  0  0  0  0  0  0  0  0  0
   17.6799   56.0658   23.9228 C   0  0  0  0  0  0  0  0  0  0  0  0
   18.9883   52.4017   17.9057 C   0  0  0  0  0  0  0  0  0  0  0  0
   20.6599   50.8400   20.8176 C   0  0  0  0  0  0  0  0  0  0  0  0
   18.2036   57.2926   25.8552 C   0  0  0  0  0  0  0  0  0  0  0  0
   18.5873   56.7482   24.6932 C   0  0  0  0  0  0  0  0  0  0  0  0
   18.1003   55.4394   22.7136 C   0  0  0  0  0  0  0  0  0  0  0  0
   16.9241   57.2045   26.3162 C   0  0  0  0  0  0  0  0  0  0  0  0
   19.7109   52.7644   20.1902 N   0  0  0  0  0  0  0  0  0  0  0  0
   18.7362   51.5619   16.9780 O   0  0  0  0  0  0  0  0  0  0  0  0
   23.0237   48.0122   19.0927 C   0  0  0  0  0  0  0  0  0  0  0  0
   23.8314   48.4682   18.0488 C   0  0  0  0  0  0  0  0  0  0  0  0
   24.5213   46.1465   19.3546 C   0  0  0  0  0  0  0  0  0  0  0  0
   19.0953   53.7767   20.9108 C   0  0  0  0  0  0  0  0  0  0  0  0
   24.9987   47.8301   17.7577 C   0  0  0  0  0  0  0  0  0  0  0  0
   25.3631   46.6911   18.4287 C   0  0  0  0  0  0  0  0  0  0  0  0
   20.3691   52.0763   21.3407 C   0  0  0  0  0  0  0  0  0  0  0  0
   20.6065   50.8446   19.4274 C   0  0  0  0  0  0  0  0  0  0  0  0
   19.9553   52.0195   18.9666 C   0  0  0  0  0  0  0  0  0  0  0  0
   16.3738   55.9942   24.3349 C   0  0  0  0  0  0  0  0  0  0  0  0
   17.7223   53.8231   21.0458 C   0  0  0  0  0  0  0  0  0  0  0  0
   21.6482   48.7496   20.9223 C   0  0  0  0  0  0  0  0  0  0  0  0
   23.3621   46.7818   19.6831 C   0  0  0  0  0  0  0  0  0  0  0  0
   19.4239   55.4906   22.3651 C   0  0  0  0  0  0  0  0  0  0  0  0
   17.2209   54.6870   21.9544 C   0  0  0  0  0  0  0  0  0  0  0  0
   21.0438   49.7587   21.5748 C   0  0  0  0  0  0  0  0  0  0  0  0
   18.7719   53.9126   17.9378 C   0  0  0  0  0  0  0  0  0  0  0  0
   19.9246   54.6230   21.5043 N   0  0  0  0  0  0  0  0  0  0  0  0
   15.9870   56.5449   25.5240 C   0  0  0  0  0  0  0  0  0  0  0  0
  1  2  1  0
  1 13  1  0
  1 24  1  0
  2 20  1  0
  3 29  1  0
  4  8  1  0
  4  9  1  0
  4 22  2  0
  5 12  2  0
  5 21  1  0
  5 29  1  0
  6 19  1  0
  6 20  2  0
  6 28  1  0
  7  8  2  0
  7 10  1  0
  9 26  1  0
  9 27  2  0
 10 31  2  0
 11 16  1  0
 11 19  1  0
 11 21  1  0
 13 14  1  0
 13 25  1  0
 14 17  2  0
 15 18  1  0
 15 25  2  0
 16 23  2  0
 16 30  1  0
 17 18  1  0
 20 21  1  0
 22 31  1  0
 23 27  1  0
 24 28  2  0
 26 30  2  0
M  END
>  <ID>  (1) 
conformer_0

$$$$
