
     RDKit          3D

 30 32  0  0  0  0  0  0  0  0999 V2000
   24.6197   47.3151   18.7440 C   0  0  0  0  0  0  0  0  0  0  0  0
   19.9661   48.5985   18.4754 C   0  0  0  0  0  0  0  0  0  0  0  0
   21.6163   52.1718   24.1583 C   0  0  0  0  0  0  0  0  0  0  0  0
   21.1651   52.5840   25.4502 C   0  0  0  0  0  0  0  0  0  0  0  0
   17.8350   55.1528   22.5521 C   0  0  0  0  0  0  0  0  0  0  0  0
   18.0184   56.4042   24.5893 C   0  0  0  0  0  0  0  0  0  0  0  0
   19.0577   53.9583   20.5093 C   0  0  0  0  0  0  0  0  0  0  0  0
   24.1725   46.6552   19.8167 F   0  0  0  0  0  0  0  0  0  0  0  0
   17.6651   56.5350   23.1107 C   0  0  0  0  0  0  0  0  0  0  0  0
   20.0523   53.9794   23.2001 C   0  0  0  0  0  0  0  0  0  0  0  0
   23.5007   47.5858   17.9220 C   0  0  0  0  0  0  0  0  0  0  0  0
   17.2876   57.3071   26.7037 C   0  0  0  0  0  0  0  0  0  0  0  0
   21.1788   51.9024   22.8048 O   0  0  0  0  0  0  0  0  0  0  0  0
   18.7317   53.8599   19.1069 C   0  0  0  0  0  0  0  0  0  0  0  0
   19.8443   49.7668   19.0094 C   0  0  0  0  0  0  0  0  0  0  0  0
   20.0823   52.0321   19.7623 C   0  0  0  0  0  0  0  0  0  0  0  0
   20.6573   50.7270   19.5749 C   0  0  0  0  0  0  0  0  0  0  0  0
   19.5878   55.1736   21.0737 C   0  0  0  0  0  0  0  0  0  0  0  0
   19.3312   55.0144   22.5292 C   0  0  0  0  0  0  0  0  0  0  0  0
   22.6231   49.3610   19.4077 C   0  0  0  0  0  0  0  0  0  0  0  0
   19.4150   52.6345   18.6275 C   0  0  0  0  0  0  0  0  0  0  0  0
   21.9616   50.4479   19.8542 C   0  0  0  0  0  0  0  0  0  0  0  0
   21.1322   47.8875   18.2012 C   0  0  0  0  0  0  0  0  0  0  0  0
   22.4083   48.3248   18.5618 C   0  0  0  0  0  0  0  0  0  0  0  0
   19.9689   52.8989   20.9229 C   0  0  0  0  0  0  0  0  0  0  0  0
   17.0086   57.2059   25.3481 C   0  0  0  0  0  0  0  0  0  0  0  0
   25.5513   46.6091   18.2016 F   0  0  0  0  0  0  0  0  0  0  0  0
   25.1486   48.4754   19.1574 F   0  0  0  0  0  0  0  0  0  0  0  0
   15.9143   57.7128   24.8049 O   0  0  0  0  0  0  0  0  0  0  0  0
   20.5008   53.0109   22.2650 C   0  0  0  0  0  0  0  0  0  0  0  0
  1  8  1  0
  1 11  1  0
  1 27  1  0
  1 28  1  0
  2 15  2  0
  2 23  1  0
  3  4  1  0
  3 13  1  0
  5  9  1  0
  5 19  1  0
  6  9  1  0
  6 26  1  0
  7 14  1  0
  7 18  1  0
  7 25  1  0
 10 19  1  0
 10 30  1  0
 11 24  1  0
 12 26  1  0
 13 30  1  0
 14 21  1  0
 15 17  1  0
 16 17  1  0
 16 21  1  0
 16 25  1  0
 17 22  1  0
 18 19  1  0
 20 22  2  0
 20 24  1  0
 23 24  2  0
 25 30  2  0
 26 29  1  0
M  END
>  <ID>  (1) 
conformer_0

$$$$
