
     RDKit          3D

 30 34  0  0  0  0  0  0  0  0999 V2000
   17.5726   55.0594   22.9879 C   0  0  0  0  0  0  0  0  0  0  0  0
   22.7222   48.5718   19.1423 C   0  0  0  0  0  0  0  0  0  0  0  0
   19.1454   51.7479   18.0576 C   0  0  0  0  0  0  0  0  0  0  0  0
   17.7876   53.4652   20.6681 N   0  0  0  0  0  0  0  0  0  0  0  0
   25.9800   47.6217   18.3314 O   0  0  0  0  0  0  0  0  0  0  0  0
   22.8246   48.6865   20.4773 F   0  0  0  0  0  0  0  0  0  0  0  0
   21.9310   48.6134   17.0945 C   0  0  0  0  0  0  0  0  0  0  0  0
   16.5184   55.4088   25.0596 C   0  0  0  0  0  0  0  0  0  0  0  0
   23.6303   47.8347   18.4057 C   0  0  0  0  0  0  0  0  0  0  0  0
   18.5552   55.9665   23.3493 C   0  0  0  0  0  0  0  0  0  0  0  0
   18.3818   52.4994   17.3153 F   0  0  0  0  0  0  0  0  0  0  0  0
   17.2404   57.1926   26.3980 O   0  0  0  0  0  0  0  0  0  0  0  0
   23.0966   47.8188   17.0972 C   0  0  0  0  0  0  0  0  0  0  0  0
   24.8227   45.6502   18.8238 C   0  0  0  0  0  0  0  0  0  0  0  0
   24.9016   47.1152   18.6340 C   0  0  0  0  0  0  0  0  0  0  0  0
   19.6760   54.3553   20.2838 N   0  0  0  0  0  0  0  0  0  0  0  0
   19.4356   52.0629   19.3957 C   0  0  0  0  0  0  0  0  0  0  0  0
   19.2254   55.0147   21.4145 C   0  0  0  0  0  0  0  0  0  0  0  0
   17.3765   56.5098   25.3316 C   0  0  0  0  0  0  0  0  0  0  0  0
   17.9201   54.4332   21.7056 C   0  0  0  0  0  0  0  0  0  0  0  0
   18.9310   53.2310   19.9859 C   0  0  0  0  0  0  0  0  0  0  0  0
   19.5691   55.8523   22.4483 N   0  0  0  0  0  0  0  0  0  0  0  0
   20.2997   50.9912   19.7943 C   0  0  0  0  0  0  0  0  0  0  0  0
   21.7017   49.1754   18.3751 C   0  0  0  0  0  0  0  0  0  0  0  0
   18.3580   56.7498   24.4063 N   0  0  0  0  0  0  0  0  0  0  0  0
   19.3532   49.8625   16.7001 O   0  0  0  0  0  0  0  0  0  0  0  0
   16.5155   54.8154   23.7990 C   0  0  0  0  0  0  0  0  0  0  0  0
   20.6940   50.1633   18.7230 C   0  0  0  0  0  0  0  0  0  0  0  0
   19.7509   50.5762   17.7315 C   0  0  0  0  0  0  0  0  0  0  0  0
   20.4840   50.7948   21.0928 F   0  0  0  0  0  0  0  0  0  0  0  0
  1 10  2  0
  1 20  1  0
  1 27  1  0
  2  6  1  0
  2  9  2  0
  2 24  1  0
  3 11  1  0
  3 17  2  0
  3 29  1  0
  4 20  1  0
  4 21  2  0
  5 15  2  0
  7 13  1  0
  7 24  1  0
  8 19  1  0
  8 27  1  0
  9 13  1  0
  9 15  1  0
 10 22  1  0
 10 25  1  0
 12 19  2  0
 14 15  1  0
 16 18  1  0
 16 21  1  0
 17 21  1  0
 17 23  1  0
 18 20  2  0
 18 22  1  0
 19 25  1  0
 23 28  1  0
 23 30  1  0
 24 28  2  3
 26 29  1  0
 28 29  1  0
M  END
>  <ID>  (1) 
conformer_0

$$$$
