
     RDKit          3D

 44 49  0  0  0  0  0  0  0  0999 V2000
   19.3297   50.8603   17.1522 C   0  0  0  0  0  0  0  0  0  0  0  0
   17.7987   53.8104   21.0925 C   0  0  0  0  0  0  0  0  0  0  0  0
   21.3170   50.8834   23.8177 C   0  0  0  0  0  0  0  0  0  0  0  0
   18.5557   56.1193   22.2174 C   0  0  0  0  0  0  0  0  0  0  0  0
   20.5488   50.7862   22.5480 C   0  0  0  0  0  0  0  0  0  0  0  0
   19.2454   57.3754   26.1821 O   0  0  0  0  0  0  0  0  0  0  0  0
   20.3741   52.0504   21.7742 C   0  0  0  0  0  0  0  0  0  0  0  0
   16.3009   55.1455   22.3295 C   0  0  0  0  0  0  0  0  0  0  0  0
   17.3293   55.9662   24.4235 C   0  0  0  0  0  0  0  0  0  0  0  0
   19.2483   52.1904   16.7980 C   0  0  0  0  0  0  0  0  0  0  0  0
   19.8166   51.5033   19.4333 C   0  0  0  0  0  0  0  0  0  0  0  0
   23.9571   47.2253   18.7296 C   0  0  0  0  0  0  0  0  0  0  0  0
   19.0757   53.1247   17.7931 C   0  0  0  0  0  0  0  0  0  0  0  0
   23.2777   56.3516   16.1113 C   0  0  0  0  0  0  0  0  0  0  0  0
   16.9761   56.6900   25.6645 C   0  0  0  0  0  0  0  0  0  0  0  0
   22.5875   56.2814   14.9076 C   0  0  0  0  0  0  0  0  0  0  0  0
   21.2766   55.8222   14.8839 C   0  0  0  0  0  0  0  0  0  0  0  0
   22.6748   55.8965   17.2988 C   0  0  0  0  0  0  0  0  0  0  0  0
   18.0436   57.2668   26.5151 C   0  0  0  0  0  0  0  0  0  0  0  0
   19.5902   55.0135   19.4748 O   0  0  0  0  0  0  0  0  0  0  0  0
   19.2612   54.8782   16.1068 C   0  0  0  0  0  0  0  0  0  0  0  0
   17.6526   55.0421   21.7883 C   0  0  0  0  0  0  0  0  0  0  0  0
   20.5651   53.2607   22.1855 O   0  0  0  0  0  0  0  0  0  0  0  0
   18.8440   54.3691   17.4573 N   0  0  0  0  0  0  0  0  0  0  0  0
   21.3864   55.4867   17.2472 C   0  0  0  0  0  0  0  0  0  0  0  0
   19.0038   54.0314   18.8997 C   0  0  0  0  0  0  0  0  0  0  0  0
   20.6836   55.4067   16.0772 C   0  0  0  0  0  0  0  0  0  0  0  0
   23.1291   47.0085   19.8052 C   0  0  0  0  0  0  0  0  0  0  0  0
   19.6188   52.3112   20.5484 C   0  0  0  0  0  0  0  0  0  0  0  0
   25.1665   46.6380   18.6841 F   0  0  0  0  0  0  0  0  0  0  0  0
   23.5768   47.9947   17.6642 C   0  0  0  0  0  0  0  0  0  0  0  0
   16.1189   55.9839   23.4821 C   0  0  0  0  0  0  0  0  0  0  0  0
   19.3073   51.8262   18.1409 C   0  0  0  0  0  0  0  0  0  0  0  0
   18.5590   56.3142   23.6877 C   0  0  0  0  0  0  0  0  0  0  0  0
   21.5397   48.4693   18.8032 C   0  0  0  0  0  0  0  0  0  0  0  0
   19.5205   49.5053   17.6674 C   0  0  0  0  0  0  0  0  0  0  0  0
   22.1425   51.9941   23.7428 O   0  0  0  0  0  0  0  0  0  0  0  0
   19.2405   48.3012   16.8471 C   0  0  0  0  0  0  0  0  0  0  0  0
   20.3522   50.3146   19.8772 C   0  0  0  0  0  0  0  0  0  0  0  0
   17.7161   57.6103   27.6943 O   0  0  0  0  0  0  0  0  0  0  0  0
   22.3721   48.6342   17.7025 C   0  0  0  0  0  0  0  0  0  0  0  0
   21.9320   47.6731   19.8521 C   0  0  0  0  0  0  0  0  0  0  0  0
   18.6825   53.2532   20.1607 C   0  0  0  0  0  0  0  0  0  0  0  0
   20.2353   49.2191   18.9145 C   0  0  0  0  0  0  0  0  0  0  0  0
  1 10  1  0
  1 33  1  0
  1 36  1  0
  2 22  1  0
  2 43  1  0
  3  5  1  0
  3 37  1  0
  4 22  1  0
  4 34  1  0
  5  7  1  0
  6 19  2  0
  7 23  1  0
  7 29  1  0
  8 22  1  0
  8 32  1  0
  9 15  1  0
  9 32  1  0
  9 34  1  0
 10 13  1  0
 11 29  1  0
 11 33  1  0
 11 39  1  0
 12 28  2  0
 12 30  1  0
 12 31  1  0
 13 24  1  0
 13 26  1  0
 13 33  1  0
 14 16  2  0
 14 18  1  0
 15 19  1  0
 16 17  1  0
 17 27  2  0
 18 25  2  0
 19 40  1  0
 20 26  2  0
 21 24  1  0
 21 27  1  0
 25 27  1  0
 26 43  1  0
 28 42  1  0
 29 43  1  0
 31 41  2  0
 35 41  1  0
 35 42  2  0
 35 44  1  0
 36 38  1  0
 36 44  1  0
 39 44  1  0
M  END
>  <ID>  (1) 
conformer_0

$$$$
