
     RDKit          3D

 26 29  0  0  0  0  0  0  0  0999 V2000
   18.9077   56.7357   23.9992 C   0  0  0  0  0  0  0  0  0  0  0  0
   17.6120   55.0911   22.8279 C   0  0  0  0  0  0  0  0  0  0  0  0
   21.4318   49.4189   21.3289 O   0  0  0  0  0  0  0  0  0  0  0  0
   18.1122   57.4186   26.1036 O   0  0  0  0  0  0  0  0  0  0  0  0
   21.0289   48.7313   18.7270 O   0  0  0  0  0  0  0  0  0  0  0  0
   17.2268   54.3543   21.5853 C   0  0  0  0  0  0  0  0  0  0  0  0
   22.2652   48.1463   18.8949 C   0  0  0  0  0  0  0  0  0  0  0  0
   19.8447   50.8482   18.4171 C   0  0  0  0  0  0  0  0  0  0  0  0
   22.4981   47.0252   19.7150 C   0  0  0  0  0  0  0  0  0  0  0  0
   24.7503   46.7969   18.9215 C   0  0  0  0  0  0  0  0  0  0  0  0
   18.0112   56.6118   25.0359 C   0  0  0  0  0  0  0  0  0  0  0  0
   20.4622   51.5005   21.0839 C   0  0  0  0  0  0  0  0  0  0  0  0
   23.7155   46.3676   19.7118 C   0  0  0  0  0  0  0  0  0  0  0  0
   16.7861   54.9338   23.9177 C   0  0  0  0  0  0  0  0  0  0  0  0
   23.3438   48.5901   18.0970 C   0  0  0  0  0  0  0  0  0  0  0  0
   20.8241   50.3147   20.5398 C   0  0  0  0  0  0  0  0  0  0  0  0
   19.6534   53.7430   20.9716 C   0  0  0  0  0  0  0  0  0  0  0  0
   16.9766   55.7146   25.0139 C   0  0  0  0  0  0  0  0  0  0  0  0
   20.5862   49.9587   19.1967 C   0  0  0  0  0  0  0  0  0  0  0  0
   17.9912   53.9898   19.2269 O   0  0  0  0  0  0  0  0  0  0  0  0
   19.4729   52.0804   18.9541 C   0  0  0  0  0  0  0  0  0  0  0  0
   19.8486   52.4179   20.2794 C   0  0  0  0  0  0  0  0  0  0  0  0
   18.6262   53.0210   18.1805 C   0  0  0  0  0  0  0  0  0  0  0  0
   24.5503   47.9103   18.1300 C   0  0  0  0  0  0  0  0  0  0  0  0
   18.7185   55.9355   22.8916 C   0  0  0  0  0  0  0  0  0  0  0  0
   18.3531   54.2449   20.6380 N   0  0  0  0  0  0  0  0  0  0  0  0
  1 11  2  0
  1 25  1  0
  2  6  1  0
  2 14  1  0
  2 25  2  0
  3 16  1  0
  4 11  1  0
  5  7  1  0
  5 19  1  0
  6 26  1  0
  7  9  1  0
  7 15  2  0
  8 19  2  0
  8 21  1  0
  9 13  1  0
 10 13  2  0
 10 24  1  0
 11 18  1  0
 12 16  2  0
 12 22  1  0
 14 18  2  0
 15 24  1  0
 16 19  1  0
 17 22  1  0
 17 26  1  0
 20 23  1  0
 20 26  1  0
 21 22  2  0
 21 23  1  0
M  END
>  <ID>  (1) 
conformer_0

$$$$
