
     RDKit          3D

 33 37  0  0  0  0  0  0  0  0999 V2000
   20.0013   53.4814   18.5802 C   0  0  0  0  0  0  0  0  0  0  0  0
   25.0132   47.0658   18.4640 C   0  0  0  0  0  0  0  0  0  0  0  0
   19.9200   51.1825   19.2070 C   0  0  0  0  0  0  0  0  0  0  0  0
   20.6338   50.2924   20.0338 C   0  0  0  0  0  0  0  0  0  0  0  0
   20.5116   48.5059   17.7294 C   0  0  0  0  0  0  0  0  0  0  0  0
   22.9522   49.6246   20.2403 C   0  0  0  0  0  0  0  0  0  0  0  0
   21.7253   49.4952   19.5923 C   0  0  0  0  0  0  0  0  0  0  0  0
   16.7002   57.4028   26.6072 C   0  0  0  0  0  0  0  0  0  0  0  0
   17.2421   53.9769   22.1921 C   0  0  0  0  0  0  0  0  0  0  0  0
   19.8383   54.2490   21.4615 C   0  0  0  0  0  0  0  0  0  0  0  0
   24.0172   48.8136   19.9249 C   0  0  0  0  0  0  0  0  0  0  0  0
   17.3359   57.0524   24.2477 C   0  0  0  0  0  0  0  0  0  0  0  0
   26.0842   47.6904   18.2892 O   0  0  0  0  0  0  0  0  0  0  0  0
   19.5663   53.1612   17.2408 N   0  0  0  0  0  0  0  0  0  0  0  0
   17.9999   54.8956   22.8925 C   0  0  0  0  0  0  0  0  0  0  0  0
   21.6182   48.5557   18.5794 C   0  0  0  0  0  0  0  0  0  0  0  0
   19.6800   50.8148   17.8442 C   0  0  0  0  0  0  0  0  0  0  0  0
   17.7380   53.2556   21.1621 C   0  0  0  0  0  0  0  0  0  0  0  0
   18.5832   57.4298   25.0566 C   0  0  0  0  0  0  0  0  0  0  0  0
   16.1551   57.4591   25.1783 C   0  0  0  0  0  0  0  0  0  0  0  0
   20.1779   50.2046   21.3276 F   0  0  0  0  0  0  0  0  0  0  0  0
   19.0801   51.5449   15.7332 O   0  0  0  0  0  0  0  0  0  0  0  0
   19.6865   49.4942   17.4136 C   0  0  0  0  0  0  0  0  0  0  0  0
   19.3421   51.8190   16.8723 C   0  0  0  0  0  0  0  0  0  0  0  0
   24.8952   45.8100   18.3101 O   0  0  0  0  0  0  0  0  0  0  0  0
   22.6209   47.6300   18.3619 C   0  0  0  0  0  0  0  0  0  0  0  0
   19.0587   53.3302   20.7919 C   0  0  0  0  0  0  0  0  0  0  0  0
   17.3363   55.6214   23.9826 C   0  0  0  0  0  0  0  0  0  0  0  0
   19.5268   54.3839   16.3739 C   0  0  0  0  0  0  0  0  0  0  0  0
   18.1795   57.7369   26.4874 C   0  0  0  0  0  0  0  0  0  0  0  0
   19.5513   52.5137   19.6652 C   0  0  0  0  0  0  0  0  0  0  0  0
   23.8454   47.8541   18.9248 C   0  0  0  0  0  0  0  0  0  0  0  0
   19.3122   55.0052   22.5008 C   0  0  0  0  0  0  0  0  0  0  0  0
  1 14  1  0
  1 31  1  0
  2 13  2  0
  2 25  1  0
  2 32  1  0
  3  4  1  0
  3 17  1  0
  3 31  1  0
  4  7  1  0
  4 21  1  0
  5 16  1  0
  5 23  2  0
  6  7  1  0
  6 11  2  0
  7 16  2  0
  8 20  1  0
  8 30  1  0
  9 15  2  0
  9 18  1  0
 10 27  1  0
 10 33  2  0
 11 32  1  0
 12 19  1  0
 12 20  1  0
 12 28  1  0
 14 24  1  0
 14 29  1  0
 15 28  1  0
 15 33  1  0
 16 26  1  0
 17 23  1  0
 17 24  1  0
 18 27  2  0
 19 30  1  0
 22 24  2  0
 26 32  2  0
 27 31  1  0
M  END
>  <ID>  (1) 
conformer_0

$$$$
