
     RDKit          3D

 23 25  0  0  0  0  0  0  0  0999 V2000
   16.8288   56.8211   26.1944 O   0  0  0  0  0  0  0  0  0  0  0  0
   19.8133   52.6761   21.2194 O   0  0  0  0  0  0  0  0  0  0  0  0
   20.0415   49.8879   18.8790 C   0  0  0  0  0  0  0  0  0  0  0  0
   18.8588   55.5315   22.4648 N   0  0  0  0  0  0  0  0  0  0  0  0
   17.2465   56.3027   25.0231 C   0  0  0  0  0  0  0  0  0  0  0  0
   23.6462   48.7357   18.9677 O   0  0  0  0  0  0  0  0  0  0  0  0
   17.5802   53.8325   21.3572 N   0  0  0  0  0  0  0  0  0  0  0  0
   21.9499   47.4591   19.2345 C   0  0  0  0  0  0  0  0  0  0  0  0
   18.5179   53.0608   20.8547 C   0  0  0  0  0  0  0  0  0  0  0  0
   19.0601   56.4742   23.3890 C   0  0  0  0  0  0  0  0  0  0  0  0
   20.3032   51.5193   20.4700 C   0  0  0  0  0  0  0  0  0  0  0  0
   24.4845   46.2910   18.7161 C   0  0  0  0  0  0  0  0  0  0  0  0
   22.3232   48.6762   19.2521 C   0  0  0  0  0  0  0  0  0  0  0  0
   17.7524   54.7042   22.4348 C   0  0  0  0  0  0  0  0  0  0  0  0
   16.4746   55.3508   24.4325 C   0  0  0  0  0  0  0  0  0  0  0  0
   21.4641   50.6676   20.5022 C   0  0  0  0  0  0  0  0  0  0  0  0
   19.4845   51.0660   19.5155 C   0  0  0  0  0  0  0  0  0  0  0  0
   18.4020   56.8023   24.4945 C   0  0  0  0  0  0  0  0  0  0  0  0
   16.7309   54.6967   23.3318 C   0  0  0  0  0  0  0  0  0  0  0  0
   21.3516   49.7208   19.5088 C   0  0  0  0  0  0  0  0  0  0  0  0
   24.5741   47.7386   18.6966 C   0  0  0  0  0  0  0  0  0  0  0  0
   17.9805   52.1089   19.4184 S   0  0  0  0  0  0  0  0  0  0  0  0
   25.8426   47.9936   18.3809 C   0  0  0  0  0  0  0  0  0  0  0  0
  1  5  1  0
  2  9  1  0
  2 11  1  0
  3 17  1  0
  3 20  1  0
  4 10  1  0
  4 14  2  0
  5 15  1  0
  5 18  1  0
  6 13  1  0
  6 21  1  0
  7  9  2  3
  7 14  1  0
  8 13  2  0
  9 22  1  0
 10 18  2  0
 11 16  1  0
 11 17  2  0
 12 21  1  0
 13 20  1  0
 14 19  1  0
 15 19  2  0
 16 20  1  0
 17 22  1  0
 21 23  2  0
M  END
>  <ID>  (1) 
conformer_0

$$$$
