
     RDKit          3D

 31 36  0  0  0  0  0  0  0  0999 V2000
   19.4877   52.6351   20.4341 N   0  0  0  0  0  0  0  0  0  0  0  0
   19.3043   52.1326   18.1116 C   0  0  0  0  0  0  0  0  0  0  0  0
   19.6049   47.6638   19.1476 C   0  0  0  0  0  0  0  0  0  0  0  0
   24.3304   48.2951   19.2267 C   0  0  0  0  0  0  0  0  0  0  0  0
   19.2260   54.2473   17.0138 O   0  0  0  0  0  0  0  0  0  0  0  0
   20.8401   47.1432   18.9336 C   0  0  0  0  0  0  0  0  0  0  0  0
   16.3569   57.1505   26.5428 C   0  0  0  0  0  0  0  0  0  0  0  0
   18.6806   54.6561   21.4997 C   0  0  0  0  0  0  0  0  0  0  0  0
   18.5802   53.6921   20.4511 C   0  0  0  0  0  0  0  0  0  0  0  0
   23.7774   46.2104   18.5835 C   0  0  0  0  0  0  0  0  0  0  0  0
   17.7959   54.4657   22.6145 C   0  0  0  0  0  0  0  0  0  0  0  0
   25.1962   46.3541   18.4553 C   0  0  0  0  0  0  0  0  0  0  0  0
   17.7969   55.4544   23.6838 C   0  0  0  0  0  0  0  0  0  0  0  0
   22.9496   49.9720   19.9501 C   0  0  0  0  0  0  0  0  0  0  0  0
   20.5696   49.6929   19.8196 C   0  0  0  0  0  0  0  0  0  0  0  0
   26.7699   48.3013   18.6814 Cl  0  0  0  0  0  0  0  0  0  0  0  0
   18.9560   53.5568   18.0668 C   0  0  0  0  0  0  0  0  0  0  0  0
   18.1688   54.0648   19.1478 C   0  0  0  0  0  0  0  0  0  0  0  0
   20.4353   51.0144   20.1695 N   0  0  0  0  0  0  0  0  0  0  0  0
   23.2650   47.4036   19.0073 C   0  0  0  0  0  0  0  0  0  0  0  0
   19.4674   48.9511   19.5914 C   0  0  0  0  0  0  0  0  0  0  0  0
   24.2199   49.5193   19.7168 N   0  0  0  0  0  0  0  0  0  0  0  0
   20.3458   51.8538   21.1972 C   0  0  0  0  0  0  0  0  0  0  0  0
   18.2609   57.1624   25.0341 C   0  0  0  0  0  0  0  0  0  0  0  0
   21.9759   47.8950   19.1949 C   0  0  0  0  0  0  0  0  0  0  0  0
   16.8173   55.5276   24.6072 N   0  0  0  0  0  0  0  0  0  0  0  0
   25.4744   47.6559   18.8263 N   0  0  0  0  0  0  0  0  0  0  0  0
   18.6905   56.4473   23.9254 C   0  0  0  0  0  0  0  0  0  0  0  0
   17.1342   56.6324   25.4278 N   0  0  0  0  0  0  0  0  0  0  0  0
   21.8637   49.1821   19.6572 C   0  0  0  0  0  0  0  0  0  0  0  0
   19.4102   51.6554   19.4283 C   0  0  0  0  0  0  0  0  0  0  0  0
  1  9  1  0
  1 23  1  0
  1 31  1  0
  2 17  1  0
  2 31  1  0
  3  6  2  0
  3 21  1  0
  4 20  1  0
  4 22  2  0
  4 27  1  0
  5 17  1  0
  6 25  1  0
  7 29  1  0
  8  9  1  0
  8 11  1  0
  9 18  1  0
 10 12  1  0
 10 20  1  0
 11 13  2  3
 12 27  1  0
 13 26  1  0
 13 28  1  0
 14 22  1  0
 14 30  2  0
 15 19  1  0
 15 21  2  0
 15 30  1  0
 16 27  1  0
 17 18  1  0
 19 23  1  0
 19 31  1  0
 20 25  2  0
 24 28  1  0
 24 29  1  0
 25 30  1  0
 26 29  1  0
M  END
>  <ID>  (1) 
conformer_0

$$$$
