
     RDKit          3D

 26 28  0  0  0  0  0  0  0  0999 V2000
   18.5850   51.4502   18.0506 C   0  0  0  0  0  0  0  0  0  0  0  0
   17.9504   53.7264   21.4289 C   0  0  0  0  0  0  0  0  0  0  0  0
   22.5927   49.6097   19.6730 C   0  0  0  0  0  0  0  0  0  0  0  0
   20.6232   49.6752   18.2333 C   0  0  0  0  0  0  0  0  0  0  0  0
   18.0535   57.2248   25.1166 O   0  0  0  0  0  0  0  0  0  0  0  0
   17.0974   54.1164   22.3718 C   0  0  0  0  0  0  0  0  0  0  0  0
   20.0044   52.4699   19.8416 C   0  0  0  0  0  0  0  0  0  0  0  0
   18.6811   52.5960   19.0399 C   0  0  0  0  0  0  0  0  0  0  0  0
   19.4653   50.3149   17.6333 C   0  0  0  0  0  0  0  0  0  0  0  0
   23.0269   48.4315   19.0581 C   0  0  0  0  0  0  0  0  0  0  0  0
   16.4278   55.3234   24.3163 C   0  0  0  0  0  0  0  0  0  0  0  0
   24.3449   47.7657   19.3343 C   0  0  0  0  0  0  0  0  0  0  0  0
   25.4029   48.4532   18.8307 O   0  0  0  0  0  0  0  0  0  0  0  0
   22.1788   47.8354   18.1357 C   0  0  0  0  0  0  0  0  0  0  0  0
   20.9644   51.4554   20.0037 C   0  0  0  0  0  0  0  0  0  0  0  0
   21.0171   48.4646   17.7329 C   0  0  0  0  0  0  0  0  0  0  0  0
   17.4514   55.0735   23.2890 C   0  0  0  0  0  0  0  0  0  0  0  0
   21.3903   50.2326   19.2871 C   0  0  0  0  0  0  0  0  0  0  0  0
   18.9706   56.8310   24.2526 C   0  0  0  0  0  0  0  0  0  0  0  0
   19.1267   49.8535   16.3987 O   0  0  0  0  0  0  0  0  0  0  0  0
   20.1949   53.7102   20.5468 N   0  0  0  0  0  0  0  0  0  0  0  0
   19.2032   54.2422   21.3876 C   0  0  0  0  0  0  0  0  0  0  0  0
   20.0469   57.4094   24.3166 O   0  0  0  0  0  0  0  0  0  0  0  0
   24.4120   46.2494   19.1480 C   0  0  0  0  0  0  0  0  0  0  0  0
   18.7094   55.7132   23.2509 C   0  0  0  0  0  0  0  0  0  0  0  0
   19.5922   55.2702   22.2531 C   0  0  0  0  0  0  0  0  0  0  0  0
  1  8  1  0
  1  9  1  0
  2  6  2  0
  2 22  1  0
  3 10  1  0
  3 18  2  0
  4  9  1  0
  4 16  2  0
  4 18  1  0
  5 19  2  0
  6 17  1  0
  7  8  1  0
  7 15  1  0
  7 21  1  0
  9 20  1  0
 10 12  1  0
 10 14  2  0
 11 17  1  0
 12 13  1  0
 12 24  1  0
 14 16  1  0
 15 18  1  0
 17 25  2  0
 19 23  1  0
 19 25  1  0
 21 22  2  3
 22 26  1  0
 25 26  1  0
M  END
>  <ID>  (1) 
conformer_0

$$$$
