
     RDKit          3D

 23 25  0  0  0  0  0  0  0  0999 V2000
   20.5667   53.5623   19.3696 C   0  0  0  0  0  0  0  0  0  0  0  0
   19.6717   54.8578   20.9989 C   0  0  0  0  0  0  0  0  0  0  0  0
   16.6561   56.5617   26.3410 F   0  0  0  0  0  0  0  0  0  0  0  0
   19.6494   51.3734   20.2549 C   0  0  0  0  0  0  0  0  0  0  0  0
   24.6650   47.4696   18.4858 C   0  0  0  0  0  0  0  0  0  0  0  0
   22.3534   48.3146   19.2791 C   0  0  0  0  0  0  0  0  0  0  0  0
   18.6197   55.8892   22.8458 C   0  0  0  0  0  0  0  0  0  0  0  0
   16.8919   55.2528   24.3608 C   0  0  0  0  0  0  0  0  0  0  0  0
   21.9705   50.4912   20.2119 C   0  0  0  0  0  0  0  0  0  0  0  0
   17.3468   56.2611   25.1718 C   0  0  0  0  0  0  0  0  0  0  0  0
   23.2725   47.1460   19.0098 C   0  0  0  0  0  0  0  0  0  0  0  0
   22.8131   49.4515   19.9052 C   0  0  0  0  0  0  0  0  0  0  0  0
   19.0847   56.8564   23.7014 C   0  0  0  0  0  0  0  0  0  0  0  0
   20.6229   50.4019   19.8913 C   0  0  0  0  0  0  0  0  0  0  0  0
   18.4294   57.0406   24.8859 C   0  0  0  0  0  0  0  0  0  0  0  0
   20.4070   54.9327   19.7936 C   0  0  0  0  0  0  0  0  0  0  0  0
   17.5620   55.0498   23.1520 C   0  0  0  0  0  0  0  0  0  0  0  0
   19.2429   55.9674   21.5979 O   0  0  0  0  0  0  0  0  0  0  0  0
   25.3691   46.0781   18.5897 C   0  0  0  0  0  0  0  0  0  0  0  0
   19.4539   53.5076   21.3451 C   0  0  0  0  0  0  0  0  0  0  0  0
   21.0028   48.2293   18.9324 C   0  0  0  0  0  0  0  0  0  0  0  0
   20.1410   49.2895   19.2420 C   0  0  0  0  0  0  0  0  0  0  0  0
   19.9606   52.7061   20.2949 C   0  0  0  0  0  0  0  0  0  0  0  0
  1 16  1  0
  1 23  1  0
  2 16  1  0
  2 18  1  0
  2 20  1  0
  3 10  1  0
  4 14  1  0
  4 23  1  0
  5 11  1  0
  5 19  1  0
  6 11  1  0
  6 12  2  0
  6 21  1  0
  7 13  1  0
  7 17  2  0
  7 18  1  0
  8 10  2  0
  8 17  1  0
  9 12  1  0
  9 14  2  0
 10 15  1  0
 13 15  2  0
 14 22  1  0
 20 23  1  0
 21 22  2  0
M  END
>  <ID>  (1) 
conformer_0

$$$$
