
     RDKit          3D

 34 39  0  0  0  0  0  0  0  0999 V2000
   22.5213   49.9691   20.9479 C   0  0  0  0  0  0  0  0  0  0  0  0
   20.2683   48.6485   17.2755 C   0  0  0  0  0  0  0  0  0  0  0  0
   19.5192   50.8899   17.6338 C   0  0  0  0  0  0  0  0  0  0  0  0
   19.7051   55.6084   22.5384 C   0  0  0  0  0  0  0  0  0  0  0  0
   17.7978   53.7541   21.9461 C   0  0  0  0  0  0  0  0  0  0  0  0
   21.4088   50.7482   21.2669 C   0  0  0  0  0  0  0  0  0  0  0  0
   24.1131   48.6789   18.6379 C   0  0  0  0  0  0  0  0  0  0  0  0
   20.9952   49.8173   19.2175 N   0  0  0  0  0  0  0  0  0  0  0  0
   19.0511   50.9355   16.3277 C   0  0  0  0  0  0  0  0  0  0  0  0
   19.1290   57.8597   26.0844 C   0  0  0  0  0  0  0  0  0  0  0  0
   19.4507   57.2836   24.8213 C   0  0  0  0  0  0  0  0  0  0  0  0
   20.6375   50.7459   20.0931 C   0  0  0  0  0  0  0  0  0  0  0  0
   19.2689   51.9968   18.5058 C   0  0  0  0  0  0  0  0  0  0  0  0
   19.9886   54.6148   21.6600 C   0  0  0  0  0  0  0  0  0  0  0  0
   23.8122   46.0928   19.3983 C   0  0  0  0  0  0  0  0  0  0  0  0
   25.0041   46.4842   18.8509 C   0  0  0  0  0  0  0  0  0  0  0  0
   19.1447   49.8362   15.5171 C   0  0  0  0  0  0  0  0  0  0  0  0
   25.1053   47.7628   18.3836 C   0  0  0  0  0  0  0  0  0  0  0  0
   22.0791   49.2874   19.7204 N   0  0  0  0  0  0  0  0  0  0  0  0
   18.7931   53.4246   18.3747 C   0  0  0  0  0  0  0  0  0  0  0  0
   16.0473   56.1450   25.1881 C   0  0  0  0  0  0  0  0  0  0  0  0
   17.4561   56.4785   25.4005 C   0  0  0  0  0  0  0  0  0  0  0  0
   22.9876   48.3186   19.3415 C   0  0  0  0  0  0  0  0  0  0  0  0
   20.2361   49.7815   18.0427 C   0  0  0  0  0  0  0  0  0  0  0  0
   19.0778   53.6354   21.4989 C   0  0  0  0  0  0  0  0  0  0  0  0
   19.4530   52.4141   20.9288 C   0  0  0  0  0  0  0  0  0  0  0  0
   17.1100   57.7740   27.3989 O   0  0  0  0  0  0  0  0  0  0  0  0
   19.6990   51.7141   19.8343 C   0  0  0  0  0  0  0  0  0  0  0  0
   18.4219   56.4588   24.3946 C   0  0  0  0  0  0  0  0  0  0  0  0
   19.7110   48.6755   15.9712 C   0  0  0  0  0  0  0  0  0  0  0  0
   17.5501   54.7337   22.8432 C   0  0  0  0  0  0  0  0  0  0  0  0
   17.8219   57.4102   26.4155 C   0  0  0  0  0  0  0  0  0  0  0  0
   18.5398   55.5963   23.2681 C   0  0  0  0  0  0  0  0  0  0  0  0
   22.8300   47.0048   19.6958 C   0  0  0  0  0  0  0  0  0  0  0  0
  1  6  1  0
  1 19  1  0
  2 24  2  0
  2 30  1  0
  3  9  2  0
  3 13  1  0
  3 24  1  0
  4 14  1  0
  4 33  1  0
  5 25  1  0
  5 31  2  0
  6 12  1  0
  7 18  2  0
  7 23  1  0
  8 12  1  0
  8 19  1  0
  8 24  1  0
  9 17  1  0
 10 11  1  0
 10 32  1  0
 11 29  1  0
 12 28  1  0
 13 20  1  0
 13 28  1  0
 14 25  2  0
 15 16  2  0
 15 34  1  0
 16 18  1  0
 17 30  2  0
 19 23  1  0
 21 22  1  0
 22 29  1  0
 22 32  1  0
 23 34  2  0
 25 26  1  0
 26 28  1  0
 27 32  2  0
 29 33  2  3
 31 33  1  0
M  END
>  <ID>  (1) 
conformer_0

$$$$
