
     RDKit          3D

 33 36  0  0  0  0  0  0  0  0999 V2000
   16.6937   55.2622   22.1033 C   0  0  0  0  0  0  0  0  0  0  0  0
   23.6846   48.5728   18.9961 C   0  0  0  0  0  0  0  0  0  0  0  0
   21.1621   52.3598   20.7868 C   0  0  0  0  0  0  0  0  0  0  0  0
   25.0392   46.6001   18.4720 C   0  0  0  0  0  0  0  0  0  0  0  0
   16.4969   58.0410   25.5241 O   0  0  0  0  0  0  0  0  0  0  0  0
   19.1395   51.6493   17.6072 C   0  0  0  0  0  0  0  0  0  0  0  0
   17.2950   54.9033   23.4693 C   0  0  0  0  0  0  0  0  0  0  0  0
   25.0553   48.1078   18.6950 C   0  0  0  0  0  0  0  0  0  0  0  0
   19.8458   52.1428   20.0108 C   0  0  0  0  0  0  0  0  0  0  0  0
   19.6960   48.4908   17.3687 C   0  0  0  0  0  0  0  0  0  0  0  0
   22.7944   47.3418   18.7760 C   0  0  0  0  0  0  0  0  0  0  0  0
   16.7403   57.3586   26.7685 C   0  0  0  0  0  0  0  0  0  0  0  0
   23.6128   46.2755   18.1717 C   0  0  0  0  0  0  0  0  0  0  0  0
   16.8200   55.6735   24.6179 C   0  0  0  0  0  0  0  0  0  0  0  0
   23.1219   49.4739   19.9962 C   0  0  0  0  0  0  0  0  0  0  0  0
   19.8508   55.7866   22.2603 C   0  0  0  0  0  0  0  0  0  0  0  0
   21.6414   50.9431   21.3728 C   0  0  0  0  0  0  0  0  0  0  0  0
   20.2319   51.4220   18.6602 C   0  0  0  0  0  0  0  0  0  0  0  0
   19.2531   54.1921   18.7468 O   0  0  0  0  0  0  0  0  0  0  0  0
   20.8117   50.0624   19.0259 C   0  0  0  0  0  0  0  0  0  0  0  0
   21.7970   50.1221   20.1022 C   0  0  0  0  0  0  0  0  0  0  0  0
   20.8597   53.2294   21.8839 C   0  0  0  0  0  0  0  0  0  0  0  0
   19.1582   53.4623   19.8008 C   0  0  0  0  0  0  0  0  0  0  0  0
   21.3349   52.1771   23.9725 F   0  0  0  0  0  0  0  0  0  0  0  0
   18.7232   51.2547   20.6717 C   0  0  0  0  0  0  0  0  0  0  0  0
   19.1736   54.6305   21.9327 C   0  0  0  0  0  0  0  0  0  0  0  0
   20.7314   48.7383   18.3977 C   0  0  0  0  0  0  0  0  0  0  0  0
   17.0727   54.5236   20.8331 C   0  0  0  0  0  0  0  0  0  0  0  0
   19.3264   53.2799   22.3357 C   0  0  0  0  0  0  0  0  0  0  0  0
   21.3887   47.5603   19.0435 C   0  0  0  0  0  0  0  0  0  0  0  0
   21.7133   53.2578   23.0611 C   0  0  0  0  0  0  0  0  0  0  0  0
   18.5052   54.0370   20.9773 C   0  0  0  0  0  0  0  0  0  0  0  0
   16.3562   57.1455   24.3929 C   0  0  0  0  0  0  0  0  0  0  0  0
  1  7  2  3
  1 28  1  0
  2  8  1  0
  2 11  1  0
  2 15  1  0
  3  9  1  0
  3 17  1  0
  3 22  1  0
  4  8  1  0
  4 13  1  0
  5 12  1  0
  5 33  1  0
  6 18  1  0
  7 14  1  0
  9 18  1  0
  9 23  1  0
  9 25  1  0
 10 27  1  0
 11 13  1  0
 11 30  1  0
 14 33  1  0
 15 21  2  0
 16 26  1  0
 17 21  1  0
 18 20  1  0
 19 23  1  0
 20 21  1  0
 20 27  1  0
 22 29  1  0
 22 31  1  0
 23 32  1  0
 24 31  1  0
 26 29  1  0
 26 32  1  0
 27 30  1  0
 28 32  1  0
M  END
>  <ID>  (1) 
conformer_0

$$$$
