
     RDKit          3D

 32 34  0  0  0  0  0  0  0  0999 V2000
   16.6386   57.3342   26.0232 O   0  0  0  0  0  0  0  0  0  0  0  0
   24.1127   45.8205   19.5472 C   0  0  0  0  0  0  0  0  0  0  0  0
   19.7445   53.2712   21.7213 C   0  0  0  0  0  0  0  0  0  0  0  0
   18.7709   57.2852   26.7345 O   0  0  0  0  0  0  0  0  0  0  0  0
   21.4557   48.1343   18.9245 C   0  0  0  0  0  0  0  0  0  0  0  0
   17.8752   57.0764   25.8249 C   0  0  0  0  0  0  0  0  0  0  0  0
   23.0442   46.4871   19.4658 C   0  0  0  0  0  0  0  0  0  0  0  0
   19.4651   49.5664   17.4896 C   0  0  0  0  0  0  0  0  0  0  0  0
   17.6174   56.0527   23.5475 C   0  0  0  0  0  0  0  0  0  0  0  0
   25.1065   48.3833   18.6390 C   0  0  0  0  0  0  0  0  0  0  0  0
   21.5393   50.2120   20.4157 F   0  0  0  0  0  0  0  0  0  0  0  0
   19.1411   48.3606   17.0314 N   0  0  0  0  0  0  0  0  0  0  0  0
   18.8141   53.8070   20.8618 C   0  0  0  0  0  0  0  0  0  0  0  0
   18.6143   53.4018   19.5514 C   0  0  0  0  0  0  0  0  0  0  0  0
   20.6417   51.3575   20.4517 C   0  0  0  0  0  0  0  0  0  0  0  0
   18.3042   56.6272   24.5947 N   0  0  0  0  0  0  0  0  0  0  0  0
   22.8266   47.7640   19.0908 C   0  0  0  0  0  0  0  0  0  0  0  0
   19.5965   47.2168   17.6238 C   0  0  0  0  0  0  0  0  0  0  0  0
   21.1232   49.4599   19.2852 C   0  0  0  0  0  0  0  0  0  0  0  0
   20.1129   50.1383   18.5694 C   0  0  0  0  0  0  0  0  0  0  0  0
   17.9508   54.8801   21.3785 C   0  0  0  0  0  0  0  0  0  0  0  0
   16.3128   55.3765   23.7786 C   0  0  0  0  0  0  0  0  0  0  0  0
   19.0236   52.3217   18.7837 C   0  0  0  0  0  0  0  0  0  0  0  0
   20.6110   47.1826   18.4530 N   0  0  0  0  0  0  0  0  0  0  0  0
   18.5041   55.6664   22.4399 C   0  0  0  0  0  0  0  0  0  0  0  0
   25.3948   46.0619   19.2003 C   0  0  0  0  0  0  0  0  0  0  0  0
   23.8185   48.6576   18.7681 C   0  0  0  0  0  0  0  0  0  0  0  0
   18.5231   52.2421   17.5513 F   0  0  0  0  0  0  0  0  0  0  0  0
   19.8927   51.3490   19.2693 C   0  0  0  0  0  0  0  0  0  0  0  0
   25.8374   47.2755   18.7743 C   0  0  0  0  0  0  0  0  0  0  0  0
   19.6085   56.3488   22.3070 O   0  0  0  0  0  0  0  0  0  0  0  0
   20.5454   52.1800   21.5411 C   0  0  0  0  0  0  0  0  0  0  0  0
  1  6  2  0
  2  7  2  0
  2 26  1  0
  3 13  2  0
  3 32  1  0
  4  6  1  0
  5 17  1  0
  5 19  1  0
  5 24  1  0
  6 16  1  0
  7 17  1  0
  8 12  2  0
  8 20  1  0
  9 16  1  0
  9 22  1  0
  9 25  1  0
 10 27  2  0
 10 30  1  0
 11 19  1  0
 12 18  1  0
 13 14  1  0
 13 21  1  0
 14 23  1  0
 15 29  1  0
 15 32  2  0
 17 27  1  0
 18 24  2  0
 19 20  2  0
 20 29  1  0
 21 25  1  0
 23 28  1  0
 23 29  2  0
 25 31  1  0
 26 30  2  0
M  END
>  <ID>  (1) 
conformer_0

$$$$
