
     RDKit          3D

 28 29  0  0  0  0  0  0  0  0999 V2000
   20.4519   49.9481   20.1301 C   0  0  0  0  0  0  0  0  0  0  0  0
   25.1590   45.5832   18.9192 C   0  0  0  0  0  0  0  0  0  0  0  0
   20.7163   55.0344   19.5293 C   0  0  0  0  0  0  0  0  0  0  0  0
   17.1196   55.6110   24.0845 C   0  0  0  0  0  0  0  0  0  0  0  0
   16.3391   56.7210   26.2239 C   0  0  0  0  0  0  0  0  0  0  0  0
   18.9121   54.1934   21.1373 C   0  0  0  0  0  0  0  0  0  0  0  0
   23.0315   46.9642   18.4485 C   0  0  0  0  0  0  0  0  0  0  0  0
   19.2200   56.3616   22.7629 C   0  0  0  0  0  0  0  0  0  0  0  0
   21.8137   50.0809   20.2858 C   0  0  0  0  0  0  0  0  0  0  0  0
   18.8357   52.9521   20.3632 C   0  0  0  0  0  0  0  0  0  0  0  0
   22.1931   48.0394   19.0290 C   0  0  0  0  0  0  0  0  0  0  0  0
   19.9568   48.9265   19.3557 C   0  0  0  0  0  0  0  0  0  0  0  0
   25.3111   48.0594   18.4840 C   0  0  0  0  0  0  0  0  0  0  0  0
   24.4492   46.8406   18.4017 C   0  0  0  0  0  0  0  0  0  0  0  0
   18.0156   54.4103   22.1489 C   0  0  0  0  0  0  0  0  0  0  0  0
   20.5066   52.3634   22.0622 O   0  0  0  0  0  0  0  0  0  0  0  0
   18.2656   52.5197   19.1662 O   0  0  0  0  0  0  0  0  0  0  0  0
   20.8117   47.9737   18.7966 C   0  0  0  0  0  0  0  0  0  0  0  0
   18.4818   57.2765   25.3139 O   0  0  0  0  0  0  0  0  0  0  0  0
   20.0819   56.2097   21.6724 C   0  0  0  0  0  0  0  0  0  0  0  0
   19.7777   52.0235   21.0299 C   0  0  0  0  0  0  0  0  0  0  0  0
   19.9274   55.1285   20.8015 C   0  0  0  0  0  0  0  0  0  0  0  0
   22.6563   49.1100   19.7629 C   0  0  0  0  0  0  0  0  0  0  0  0
   17.4168   56.4541   25.2226 C   0  0  0  0  0  0  0  0  0  0  0  0
   20.1653   54.3828   18.2975 O   0  0  0  0  0  0  0  0  0  0  0  0
   21.9024   55.8607   19.0123 C   0  0  0  0  0  0  0  0  0  0  0  0
   19.5348   50.7388   20.7521 O   0  0  0  0  0  0  0  0  0  0  0  0
   18.1391   55.4810   23.0346 C   0  0  0  0  0  0  0  0  0  0  0  0
  1  9  2  0
  1 12  1  0
  1 27  1  0
  2 14  1  0
  3 22  1  0
  3 25  1  0
  3 26  1  0
  4 24  2  3
  4 28  1  0
  5 24  1  0
  6 10  1  0
  6 15  1  0
  6 22  2  0
  7 11  1  0
  7 14  1  0
  8 20  2  0
  8 28  1  0
  9 23  1  0
 10 17  1  0
 10 21  1  0
 11 18  1  0
 11 23  2  0
 12 18  2  0
 13 14  1  0
 15 28  2  0
 16 21  2  0
 19 24  1  0
 20 22  1  0
 21 27  1  0
M  END
>  <ID>  (1) 
conformer_0

$$$$
