
     RDKit          3D

 28 31  0  0  0  0  0  0  0  0999 V2000
   25.2407   46.8056   18.1260 C   0  0  0  0  0  0  0  0  0  0  0  0
   25.1475   45.6145   19.0160 C   0  0  0  0  0  0  0  0  0  0  0  0
   20.0872   50.6246   18.7722 C   0  0  0  0  0  0  0  0  0  0  0  0
   19.2805   55.4765   22.3829 C   0  0  0  0  0  0  0  0  0  0  0  0
   22.0167   47.5101   17.9694 C   0  0  0  0  0  0  0  0  0  0  0  0
   18.2800   55.9150   23.3185 C   0  0  0  0  0  0  0  0  0  0  0  0
   19.4418   53.6902   18.5336 O   0  0  0  0  0  0  0  0  0  0  0  0
   18.1454   57.7299   26.4047 N   0  0  0  0  0  0  0  0  0  0  0  0
   19.8388   56.1132   21.1828 C   0  0  0  0  0  0  0  0  0  0  0  0
   20.8436   51.6353   20.8380 C   0  0  0  0  0  0  0  0  0  0  0  0
   20.6625   54.9737   20.4911 C   0  0  0  0  0  0  0  0  0  0  0  0
   21.5690   49.4880   20.2312 C   0  0  0  0  0  0  0  0  0  0  0  0
   19.9606   53.7062   20.9154 C   0  0  0  0  0  0  0  0  0  0  0  0
   20.8740   49.5116   19.0317 C   0  0  0  0  0  0  0  0  0  0  0  0
   20.0979   51.6686   19.6897 C   0  0  0  0  0  0  0  0  0  0  0  0
   20.8347   52.7756   21.5759 O   0  0  0  0  0  0  0  0  0  0  0  0
   20.8256   48.3939   18.0096 C   0  0  0  0  0  0  0  0  0  0  0  0
   16.5922   56.1401   25.5652 C   0  0  0  0  0  0  0  0  0  0  0  0
   17.8334   52.6893   19.9362 C   0  0  0  0  0  0  0  0  0  0  0  0
   19.0438   54.0991   21.9930 C   0  0  0  0  0  0  0  0  0  0  0  0
   16.2313   55.2829   24.5247 C   0  0  0  0  0  0  0  0  0  0  0  0
   23.0894   47.5146   19.0726 C   0  0  0  0  0  0  0  0  0  0  0  0
   17.1555   55.0840   23.5022 C   0  0  0  0  0  0  0  0  0  0  0  0
   21.5627   50.5355   21.1769 C   0  0  0  0  0  0  0  0  0  0  0  0
   17.8068   56.8730   25.4524 C   0  0  0  0  0  0  0  0  0  0  0  0
   24.4174   48.0097   18.4871 C   0  0  0  0  0  0  0  0  0  0  0  0
   19.3122   52.9840   19.6818 C   0  0  0  0  0  0  0  0  0  0  0  0
   18.6096   56.7736   24.3236 C   0  0  0  0  0  0  0  0  0  0  0  0
  1  2  1  0
  1 26  1  0
  3 14  2  0
  3 15  1  0
  4  6  1  0
  4  9  1  0
  4 20  1  0
  5 17  2  3
  5 22  1  0
  6 23  2  0
  6 28  1  0
  7 27  1  0
  8 25  2  0
  9 11  1  0
 10 15  2  0
 10 16  1  0
 10 24  1  0
 11 13  1  0
 12 14  1  0
 12 24  2  0
 13 16  1  0
 13 20  1  0
 13 27  1  0
 14 17  1  0
 15 27  1  0
 18 21  2  0
 18 25  1  0
 19 27  1  0
 21 23  1  0
 22 26  1  0
 25 28  1  0
M  END
>  <ID>  (1) 
conformer_0

$$$$
