
     RDKit          3D

 31 33  0  0  0  0  0  0  0  0999 V2000
   19.6979   50.3940   19.6777 C   0  0  0  0  0  0  0  0  0  0  0  0
   16.6024   57.3623   26.3145 O   0  0  0  0  0  0  0  0  0  0  0  0
   20.0871   49.3389   19.0231 C   0  0  0  0  0  0  0  0  0  0  0  0
   18.9269   56.3808   23.7551 C   0  0  0  0  0  0  0  0  0  0  0  0
   21.4358   48.7761   18.8615 C   0  0  0  0  0  0  0  0  0  0  0  0
   21.6944   55.6949   17.0326 C   0  0  0  0  0  0  0  0  0  0  0  0
   20.1405   51.4930   20.3146 C   0  0  0  0  0  0  0  0  0  0  0  0
   19.6566   54.8106   15.9919 C   0  0  0  0  0  0  0  0  0  0  0  0
   23.7864   47.3122   18.4946 C   0  0  0  0  0  0  0  0  0  0  0  0
   22.6136   46.8485   17.9937 C   0  0  0  0  0  0  0  0  0  0  0  0
   20.1762   54.3657   18.3146 C   0  0  0  0  0  0  0  0  0  0  0  0
   19.9335   53.7156   19.4768 N   0  0  0  0  0  0  0  0  0  0  0  0
   18.1453   52.8567   20.6956 C   0  0  0  0  0  0  0  0  0  0  0  0
   20.8689   55.5190   15.9075 N   0  0  0  0  0  0  0  0  0  0  0  0
   22.6495   49.3070   19.2876 C   0  0  0  0  0  0  0  0  0  0  0  0
   16.9971   54.9580   23.6324 C   0  0  0  0  0  0  0  0  0  0  0  0
   19.0165   48.6977   18.4400 C   0  0  0  0  0  0  0  0  0  0  0  0
   21.3528   55.1529   18.2470 C   0  0  0  0  0  0  0  0  0  0  0  0
   18.8802   54.5757   22.2036 C   0  0  0  0  0  0  0  0  0  0  0  0
   19.3933   52.7328   20.1523 C   0  0  0  0  0  0  0  0  0  0  0  0
   20.1204   54.6730   22.0112 O   0  0  0  0  0  0  0  0  0  0  0  0
   16.4228   55.6492   24.7043 C   0  0  0  0  0  0  0  0  0  0  0  0
   24.9750   46.4319   18.3977 C   0  0  0  0  0  0  0  0  0  0  0  0
   21.4893   47.5624   18.2205 C   0  0  0  0  0  0  0  0  0  0  0  0
   23.8292   48.5510   19.1136 C   0  0  0  0  0  0  0  0  0  0  0  0
   18.2623   55.3165   23.2402 C   0  0  0  0  0  0  0  0  0  0  0  0
   18.3688   57.0612   24.8052 C   0  0  0  0  0  0  0  0  0  0  0  0
   21.1600   51.4780   21.0989 O   0  0  0  0  0  0  0  0  0  0  0  0
   17.9509   53.7803   21.5583 N   0  0  0  0  0  0  0  0  0  0  0  0
   19.2907   54.2438   17.2158 C   0  0  0  0  0  0  0  0  0  0  0  0
   17.1346   56.6817   25.2708 C   0  0  0  0  0  0  0  0  0  0  0  0
  1  3  2  3
  1  7  1  0
  2 31  1  0
  3  5  1  0
  3 17  1  0
  4 26  2  0
  4 27  1  0
  5 15  1  0
  5 24  2  0
  6 14  2  0
  6 18  1  0
  7 20  1  0
  7 28  1  0
  8 14  1  0
  8 30  2  0
  9 10  2  0
  9 23  1  0
  9 25  1  0
 10 24  1  0
 11 12  1  0
 11 18  2  0
 11 30  1  0
 12 20  1  0
 13 20  1  0
 13 29  2  3
 15 25  2  0
 16 22  2  0
 16 26  1  0
 19 21  2  0
 19 26  1  0
 19 29  1  0
 22 31  1  0
 27 31  2  0
M  END
>  <ID>  (1) 
conformer_0

$$$$
