
     RDKit          3D

 34 38  0  0  0  0  0  0  0  0999 V2000
   16.6945   55.6638   24.9551 C   0  0  0  0  0  0  0  0  0  0  0  0
   22.3397   49.6946   19.8499 C   0  0  0  0  0  0  0  0  0  0  0  0
   22.7149   48.4292   19.3252 C   0  0  0  0  0  0  0  0  0  0  0  0
   20.4158   48.6969   19.3740 C   0  0  0  0  0  0  0  0  0  0  0  0
   21.4834   47.8148   19.0142 O   0  0  0  0  0  0  0  0  0  0  0  0
   19.6967   52.6445   17.7287 C   0  0  0  0  0  0  0  0  0  0  0  0
   23.9948   46.3969   19.2870 O   0  0  0  0  0  0  0  0  0  0  0  0
   20.0567   50.9430   20.4325 C   0  0  0  0  0  0  0  0  0  0  0  0
   19.1879   52.9718   19.9975 N   0  0  0  0  0  0  0  0  0  0  0  0
   21.8237   55.4047   17.6943 C   0  0  0  0  0  0  0  0  0  0  0  0
   20.7187   55.5855   15.0795 C   0  0  0  0  0  0  0  0  0  0  0  0
   20.4600   55.7072   21.9785 F   0  0  0  0  0  0  0  0  0  0  0  0
   24.0056   47.7062   19.1419 C   0  0  0  0  0  0  0  0  0  0  0  0
   25.0402   48.3398   18.7591 O   0  0  0  0  0  0  0  0  0  0  0  0
   19.0627   54.2454   19.3232 C   0  0  0  0  0  0  0  0  0  0  0  0
   19.8022   53.1186   21.3165 C   0  0  0  0  0  0  0  0  0  0  0  0
   17.4275   55.2792   23.7937 C   0  0  0  0  0  0  0  0  0  0  0  0
   18.8736   54.0502   21.9009 C   0  0  0  0  0  0  0  0  0  0  0  0
   22.0321   56.0036   15.3520 C   0  0  0  0  0  0  0  0  0  0  0  0
   17.5590   53.7140   22.0148 C   0  0  0  0  0  0  0  0  0  0  0  0
   22.5762   55.9316   16.6253 C   0  0  0  0  0  0  0  0  0  0  0  0
   20.5826   54.8596   17.3637 C   0  0  0  0  0  0  0  0  0  0  0  0
   16.8630   54.2893   23.0159 C   0  0  0  0  0  0  0  0  0  0  0  0
   18.8750   50.4953   20.9290 O   0  0  0  0  0  0  0  0  0  0  0  0
   19.2957   51.3181   18.0270 C   0  0  0  0  0  0  0  0  0  0  0  0
   19.1858   56.9789   24.1327 C   0  0  0  0  0  0  0  0  0  0  0  0
   19.7196   51.9170   19.2984 C   0  0  0  0  0  0  0  0  0  0  0  0
   20.5947   51.9687   21.5130 C   0  0  0  0  0  0  0  0  0  0  0  0
   20.9362   49.8420   19.9058 C   0  0  0  0  0  0  0  0  0  0  0  0
   19.9878   55.0466   16.1127 C   0  0  0  0  0  0  0  0  0  0  0  0
   18.5870   57.5408   25.1634 O   0  0  0  0  0  0  0  0  0  0  0  0
   18.6708   55.8367   23.4736 C   0  0  0  0  0  0  0  0  0  0  0  0
   19.8750   54.0103   18.2224 C   0  0  0  0  0  0  0  0  0  0  0  0
   19.3348   55.2148   22.4610 C   0  0  0  0  0  0  0  0  0  0  0  0
  1 17  1  0
  2  3  1  0
  2 29  1  0
  3  5  1  0
  3 13  1  0
  4  5  1  0
  4 29  1  0
  6 25  1  0
  6 33  1  0
  7 13  2  0
  8 24  1  0
  8 27  1  0
  8 28  1  0
  8 29  1  0
  9 15  1  0
  9 16  1  0
  9 27  1  0
 10 21  2  0
 10 22  1  0
 11 19  2  0
 11 30  1  0
 12 34  1  0
 13 14  1  0
 15 33  1  0
 16 18  1  0
 16 28  1  0
 17 23  1  0
 17 32  1  0
 18 20  1  0
 18 34  1  0
 19 21  1  0
 20 23  2  0
 22 30  2  0
 22 33  1  0
 25 27  1  0
 26 31  1  0
 26 32  2  3
 32 34  1  0
M  END
>  <ID>  (1) 
conformer_0

$$$$
