
     RDKit          3D

 38 43  0  0  0  0  0  0  0  0999 V2000
   19.9326   57.0755   23.7686 O   0  0  0  0  0  0  0  0  0  0  0  0
   18.7500   56.8121   24.2083 C   0  0  0  0  0  0  0  0  0  0  0  0
   23.9904   45.9088   19.5520 C   0  0  0  0  0  0  0  0  0  0  0  0
   18.7626   52.3939   21.6351 C   0  0  0  0  0  0  0  0  0  0  0  0
   16.6154   55.7901   23.9016 C   0  0  0  0  0  0  0  0  0  0  0  0
   18.2026   53.5481   20.4452 C   0  0  0  0  0  0  0  0  0  0  0  0
   21.8034   49.2039   22.3341 C   0  0  0  0  0  0  0  0  0  0  0  0
   23.2703   47.0455   19.1148 C   0  0  0  0  0  0  0  0  0  0  0  0
   21.2050   51.7228   22.5558 C   0  0  0  0  0  0  0  0  0  0  0  0
   21.0450   50.1871   24.3706 C   0  0  0  0  0  0  0  0  0  0  0  0
   20.5729   54.4010   20.5735 C   0  0  0  0  0  0  0  0  0  0  0  0
   18.8501   52.9753   19.1615 C   0  0  0  0  0  0  0  0  0  0  0  0
   22.1079   50.5643   23.3210 C   0  0  0  0  0  0  0  0  0  0  0  0
   16.2190   56.2520   25.1369 C   0  0  0  0  0  0  0  0  0  0  0  0
   25.3327   47.6729   18.1424 O   0  0  0  0  0  0  0  0  0  0  0  0
   18.0511   50.7291   18.6337 C   0  0  0  0  0  0  0  0  0  0  0  0
   24.3134   48.1097   18.8516 C   0  0  0  0  0  0  0  0  0  0  0  0
   21.8926   47.3778   19.6136 C   0  0  0  0  0  0  0  0  0  0  0  0
   21.5657   53.4026   21.2291 C   0  0  0  0  0  0  0  0  0  0  0  0
   19.0037   54.8926   20.8186 C   0  0  0  0  0  0  0  0  0  0  0  0
   17.8459   53.3845   18.0075 C   0  0  0  0  0  0  0  0  0  0  0  0
   21.7307   48.9469   19.7874 C   0  0  0  0  0  0  0  0  0  0  0  0
   20.4410   54.4225   18.1772 O   0  0  0  0  0  0  0  0  0  0  0  0
   22.1708   49.5386   18.3374 C   0  0  0  0  0  0  0  0  0  0  0  0
   20.2733   53.5421   19.1732 C   0  0  0  0  0  0  0  0  0  0  0  0
   22.6480   48.9962   21.3583 C   0  0  0  0  0  0  0  0  0  0  0  0
   20.1911   49.4336   19.5873 C   0  0  0  0  0  0  0  0  0  0  0  0
   19.1815   49.6987   18.4497 C   0  0  0  0  0  0  0  0  0  0  0  0
   18.2522   52.0492   17.9781 C   0  0  0  0  0  0  0  0  0  0  0  0
   18.3237   57.3234   25.4425 C   0  0  0  0  0  0  0  0  0  0  0  0
   17.0687   57.0375   25.8925 C   0  0  0  0  0  0  0  0  0  0  0  0
   24.6719   49.2533   19.6927 C   0  0  0  0  0  0  0  0  0  0  0  0
   20.0720   49.7891   21.9035 C   0  0  0  0  0  0  0  0  0  0  0  0
   20.1759   52.1001   19.5088 C   0  0  0  0  0  0  0  0  0  0  0  0
   17.8741   56.0884   23.4280 C   0  0  0  0  0  0  0  0  0  0  0  0
   20.3136   52.0841   21.2155 C   0  0  0  0  0  0  0  0  0  0  0  0
   20.3184   50.7743   20.4498 C   0  0  0  0  0  0  0  0  0  0  0  0
   18.3240   55.6533   22.0189 C   0  0  0  0  0  0  0  0  0  0  0  0
  1  2  1  0
  2 30  2  0
  2 35  1  0
  3  8  1  0
  4  6  1  0
  4 36  1  0
  5 14  1  0
  5 35  2  0
  6 12  1  0
  6 20  1  0
  7 13  1  0
  7 26  1  0
  8 17  1  0
  8 18  1  0
  9 13  1  0
  9 36  1  0
 10 13  1  0
 11 19  1  0
 11 20  1  0
 11 25  1  0
 12 21  1  0
 12 25  1  0
 14 31  2  0
 15 17  1  0
 16 28  1  0
 16 29  1  0
 17 32  1  0
 18 22  1  0
 19 36  1  0
 20 38  1  0
 21 29  1  0
 22 24  1  0
 22 26  1  0
 22 27  1  0
 23 25  1  0
 25 34  1  0
 27 28  1  0
 27 37  1  0
 30 31  1  0
 33 37  1  0
 34 37  1  0
 35 38  1  0
 36 37  1  0
M  END
>  <ID>  (1) 
conformer_0

$$$$
