
     RDKit          3D

 37 41  0  0  0  0  0  0  0  0999 V2000
   19.4360   53.4200   18.1767 C   0  0  0  0  0  0  0  0  0  0  0  0
   20.3394   52.3100   22.6242 C   0  0  0  0  0  0  0  0  0  0  0  0
   20.2602   52.8685   26.5557 C   0  0  0  0  0  0  0  0  0  0  0  0
   19.8887   53.0723   21.1851 C   0  0  0  0  0  0  0  0  0  0  0  0
   22.4237   51.8600   25.8369 C   0  0  0  0  0  0  0  0  0  0  0  0
   17.5407   55.3253   22.1270 C   0  0  0  0  0  0  0  0  0  0  0  0
   16.4274   54.8690   22.0199 O   0  0  0  0  0  0  0  0  0  0  0  0
   17.9078   56.2636   23.2171 C   0  0  0  0  0  0  0  0  0  0  0  0
   19.7130   49.4170   18.6939 C   0  0  0  0  0  0  0  0  0  0  0  0
   23.5685   46.2834   18.7910 C   0  0  0  0  0  0  0  0  0  0  0  0
   19.2801   52.1017   18.8447 C   0  0  0  0  0  0  0  0  0  0  0  0
   17.0421   56.5418   24.2599 C   0  0  0  0  0  0  0  0  0  0  0  0
   24.7706   45.6786   18.8477 C   0  0  0  0  0  0  0  0  0  0  0  0
   19.3336   56.4412   23.2096 C   0  0  0  0  0  0  0  0  0  0  0  0
   21.1357   51.1390   23.4978 C   0  0  0  0  0  0  0  0  0  0  0  0
   22.1944   48.3325   18.7179 C   0  0  0  0  0  0  0  0  0  0  0  0
   20.1880   52.5534   25.0941 C   0  0  0  0  0  0  0  0  0  0  0  0
   21.2337   47.8679   17.8377 C   0  0  0  0  0  0  0  0  0  0  0  0
   16.2033   58.4115   25.3278 O   0  0  0  0  0  0  0  0  0  0  0  0
   18.3633   57.9370   25.6366 O   0  0  0  0  0  0  0  0  0  0  0  0
   21.8979   49.3551   19.6018 C   0  0  0  0  0  0  0  0  0  0  0  0
   21.5365   52.0144   24.6278 C   0  0  0  0  0  0  0  0  0  0  0  0
   19.8548   55.6351   22.0415 C   0  0  0  0  0  0  0  0  0  0  0  0
   20.6105   49.8681   19.6713 C   0  0  0  0  0  0  0  0  0  0  0  0
   25.9178   46.4017   18.8384 C   0  0  0  0  0  0  0  0  0  0  0  0
   24.6601   48.4011   18.7343 C   0  0  0  0  0  0  0  0  0  0  0  0
   23.4830   47.6913   18.7546 C   0  0  0  0  0  0  0  0  0  0  0  0
   18.8206   54.0979   20.4721 C   0  0  0  0  0  0  0  0  0  0  0  0
   17.5020   53.4450   20.0525 C   0  0  0  0  0  0  0  0  0  0  0  0
   18.6794   55.0956   21.4686 N   0  0  0  0  0  0  0  0  0  0  0  0
   19.9011   51.9935   20.2040 C   0  0  0  0  0  0  0  0  0  0  0  0
   19.9922   48.4226   17.7849 C   0  0  0  0  0  0  0  0  0  0  0  0
   17.2415   57.7219   25.0911 C   0  0  0  0  0  0  0  0  0  0  0  0
   19.5382   54.5699   19.1898 C   0  0  0  0  0  0  0  0  0  0  0  0
   25.8719   47.7627   18.7640 C   0  0  0  0  0  0  0  0  0  0  0  0
   21.5590   52.1932   27.0944 C   0  0  0  0  0  0  0  0  0  0  0  0
   20.2438   50.6936   20.7532 C   0  0  0  0  0  0  0  0  0  0  0  0
  1 11  1  0
  1 34  1  0
  2  4  1  0
  2 15  1  0
  3 17  1  0
  3 36  1  0
  4 28  1  0
  4 31  1  0
  5 22  1  0
  5 36  1  0
  6  7  2  0
  6  8  1  0
  6 30  1  0
  8 12  1  0
  8 14  1  0
  9 24  2  0
  9 32  1  0
 10 13  2  0
 10 27  1  0
 11 31  1  0
 12 33  1  0
 13 25  1  0
 14 23  1  0
 15 22  1  0
 16 18  1  0
 16 21  2  0
 16 27  1  0
 17 22  1  0
 18 32  2  0
 19 33  2  0
 20 33  1  0
 21 24  1  0
 23 30  1  0
 24 37  1  0
 25 35  2  0
 26 27  2  0
 26 35  1  0
 28 29  1  0
 28 30  1  0
 28 34  1  0
 31 37  1  0
M  END
>  <ID>  (1) 
conformer_0

$$$$
