
     RDKit          3D

 26 26  0  0  0  0  0  0  0  0999 V2000
   22.4055   47.9048   20.0191 C   0  0  0  0  0  0  0  0  0  0  0  0
   17.9473   54.2145   21.8666 C   0  0  0  0  0  0  0  0  0  0  0  0
   15.9812   55.3934   24.7680 C   0  0  0  0  0  0  0  0  0  0  0  0
   19.1916   54.8402   21.6716 C   0  0  0  0  0  0  0  0  0  0  0  0
   22.7976   47.4778   18.7125 C   0  0  0  0  0  0  0  0  0  0  0  0
   20.6258   50.8577   19.3081 N   0  0  0  0  0  0  0  0  0  0  0  0
   19.3081   51.4292   19.1730 C   0  0  0  0  0  0  0  0  0  0  0  0
   19.2743   52.8329   18.8758 C   0  0  0  0  0  0  0  0  0  0  0  0
   17.0709   54.4680   22.8239 C   0  0  0  0  0  0  0  0  0  0  0  0
   22.1897   47.5749   17.6644 O   0  0  0  0  0  0  0  0  0  0  0  0
   17.9830   56.9990   25.2639 O   0  0  0  0  0  0  0  0  0  0  0  0
   20.8190   49.5201   19.0174 N   0  0  0  0  0  0  0  0  0  0  0  0
   24.6333   46.9202   17.2973 F   0  0  0  0  0  0  0  0  0  0  0  0
   19.2840   56.5738   23.4053 C   0  0  0  0  0  0  0  0  0  0  0  0
   21.3350   48.8679   20.1175 C   0  0  0  0  0  0  0  0  0  0  0  0
   24.6803   46.2723   19.3745 F   0  0  0  0  0  0  0  0  0  0  0  0
   24.2794   47.2347   18.5379 C   0  0  0  0  0  0  0  0  0  0  0  0
   19.8551   49.1927   17.9252 C   0  0  0  0  0  0  0  0  0  0  0  0
   18.1644   56.2861   24.1459 C   0  0  0  0  0  0  0  0  0  0  0  0
   17.1381   55.3615   23.8547 C   0  0  0  0  0  0  0  0  0  0  0  0
   19.5849   50.2281   16.6743 C   0  0  0  0  0  0  0  0  0  0  0  0
   19.5292   52.8415   20.2866 C   0  0  0  0  0  0  0  0  0  0  0  0
   24.8896   48.3801   18.9311 F   0  0  0  0  0  0  0  0  0  0  0  0
   19.6823   55.9036   22.3071 C   0  0  0  0  0  0  0  0  0  0  0  0
   20.0772   54.2105   20.6611 C   0  0  0  0  0  0  0  0  0  0  0  0
   20.9344   49.2484   21.2011 O   0  0  0  0  0  0  0  0  0  0  0  0
  1  5  1  0
  1 15  1  0
  2  4  1  0
  2  9  2  0
  3 20  1  0
  4 24  2  0
  4 25  1  0
  5 10  2  0
  5 17  1  0
  6  7  1  0
  6 12  1  0
  7  8  1  0
  8 22  1  0
  9 20  1  0
 11 19  1  0
 12 15  1  0
 12 18  1  0
 13 17  1  0
 14 19  2  0
 14 24  1  0
 15 26  2  0
 16 17  1  0
 17 23  1  0
 18 21  1  0
 19 20  1  0
 22 25  1  0
M  END
>  <ID>  (1) 
conformer_0

$$$$
