
     RDKit          3D

 27 31  0  0  0  0  0  0  0  0999 V2000
   25.2879   47.5536   19.0247 C   0  0  0  0  0  0  0  0  0  0  0  0
   20.4573   50.2001   18.6357 C   0  0  0  0  0  0  0  0  0  0  0  0
   21.2806   50.2889   19.7417 C   0  0  0  0  0  0  0  0  0  0  0  0
   19.0767   52.5275   19.9780 N   0  0  0  0  0  0  0  0  0  0  0  0
   18.8368   52.1302   18.6952 N   0  0  0  0  0  0  0  0  0  0  0  0
   22.4948   49.6582   19.8550 C   0  0  0  0  0  0  0  0  0  0  0  0
   21.5406   48.1581   17.5841 C   0  0  0  0  0  0  0  0  0  0  0  0
   18.3771   56.6296   24.1389 C   0  0  0  0  0  0  0  0  0  0  0  0
   20.2970   53.5238   21.5572 C   0  0  0  0  0  0  0  0  0  0  0  0
   18.4485   55.0336   22.3561 C   0  0  0  0  0  0  0  0  0  0  0  0
   24.5707   48.5641   19.5784 C   0  0  0  0  0  0  0  0  0  0  0  0
   18.2473   53.5952   20.4044 C   0  0  0  0  0  0  0  0  0  0  0  0
   17.2810   54.4901   22.8186 C   0  0  0  0  0  0  0  0  0  0  0  0
   17.2845   56.0032   24.6320 C   0  0  0  0  0  0  0  0  0  0  0  0
   16.6956   54.9628   23.9857 C   0  0  0  0  0  0  0  0  0  0  0  0
   23.2467   48.7194   19.1970 C   0  0  0  0  0  0  0  0  0  0  0  0
   23.4803   46.8259   17.7078 C   0  0  0  0  0  0  0  0  0  0  0  0
   16.7189   56.4843   25.8878 C   0  0  0  0  0  0  0  0  0  0  0  0
   19.4532   51.0704   18.2997 C   0  0  0  0  0  0  0  0  0  0  0  0
   18.9798   56.1290   22.9777 C   0  0  0  0  0  0  0  0  0  0  0  0
   20.5772   49.1087   17.7134 C   0  0  0  0  0  0  0  0  0  0  0  0
   24.7476   46.6806   18.1234 C   0  0  0  0  0  0  0  0  0  0  0  0
   19.5739   49.0034   16.8828 O   0  0  0  0  0  0  0  0  0  0  0  0
   20.1825   52.3117   20.7872 C   0  0  0  0  0  0  0  0  0  0  0  0
   19.1530   54.4312   21.2426 C   0  0  0  0  0  0  0  0  0  0  0  0
   22.7454   47.8957   18.1638 C   0  0  0  0  0  0  0  0  0  0  0  0
   20.8188   51.0913   20.8500 C   0  0  0  0  0  0  0  0  0  0  0  0
  1 11  2  0
  1 22  1  0
  2  3  1  0
  2 19  1  0
  2 21  1  0
  3  6  2  0
  3 27  1  0
  4  5  1  0
  4 12  1  0
  4 24  1  0
  5 19  2  0
  6 16  1  0
  7 21  2  0
  7 26  1  0
  8 14  2  0
  8 20  1  0
  9 24  1  0
  9 25  1  0
 10 13  1  0
 10 20  2  0
 10 25  1  0
 11 16  1  0
 12 25  1  0
 13 15  2  0
 14 15  1  0
 14 18  1  0
 16 26  2  0
 17 22  2  0
 17 26  1  0
 21 23  1  0
 24 27  1  0
M  END
>  <ID>  (1) 
conformer_0

$$$$
