
     RDKit          3D

 27 29  0  0  0  0  0  0  0  0999 V2000
   22.1286   48.2134   18.0305 C   0  0  0  0  0  0  0  0  0  0  0  0
   16.8667   55.5558   24.9799 C   0  0  0  0  0  0  0  0  0  0  0  0
   18.5161   53.9707   20.6204 C   0  0  0  0  0  0  0  0  0  0  0  0
   17.3712   54.3650   22.8357 N   0  0  0  0  0  0  0  0  0  0  0  0
   18.3738   54.4778   21.9487 C   0  0  0  0  0  0  0  0  0  0  0  0
   20.5270   52.3011   21.4838 C   0  0  0  0  0  0  0  0  0  0  0  0
   22.0339   50.1117   19.9949 N   0  0  0  0  0  0  0  0  0  0  0  0
   21.0080   49.9989   19.1743 C   0  0  0  0  0  0  0  0  0  0  0  0
   21.0314   49.0108   18.2281 C   0  0  0  0  0  0  0  0  0  0  0  0
   19.0559   52.4560   17.6839 O   0  0  0  0  0  0  0  0  0  0  0  0
   19.1701   51.2697   18.0576 C   0  0  0  0  0  0  0  0  0  0  0  0
   25.5274   48.2554   18.8582 F   0  0  0  0  0  0  0  0  0  0  0  0
   18.7023   55.9676   23.5471 C   0  0  0  0  0  0  0  0  0  0  0  0
   19.2616   55.4701   22.4183 C   0  0  0  0  0  0  0  0  0  0  0  0
   18.8310   50.3193   17.2758 O   0  0  0  0  0  0  0  0  0  0  0  0
   17.3128   56.5960   25.7529 C   0  0  0  0  0  0  0  0  0  0  0  0
   19.1028   57.0360   24.3159 C   0  0  0  0  0  0  0  0  0  0  0  0
   23.1448   49.3283   19.8063 C   0  0  0  0  0  0  0  0  0  0  0  0
   23.2124   48.3959   18.8136 C   0  0  0  0  0  0  0  0  0  0  0  0
   18.3736   57.3320   25.4106 N   0  0  0  0  0  0  0  0  0  0  0  0
   18.3172   52.5018   20.3147 C   0  0  0  0  0  0  0  0  0  0  0  0
   17.5720   55.2672   23.8528 C   0  0  0  0  0  0  0  0  0  0  0  0
   24.4353   46.5089   19.4268 F   0  0  0  0  0  0  0  0  0  0  0  0
   19.8903   50.8964   19.2784 N   0  0  0  0  0  0  0  0  0  0  0  0
   24.5026   47.0938   17.3336 F   0  0  0  0  0  0  0  0  0  0  0  0
   19.5999   51.6910   20.4692 C   0  0  0  0  0  0  0  0  0  0  0  0
   24.4421   47.5488   18.5809 C   0  0  0  0  0  0  0  0  0  0  0  0
  1  9  1  0
  1 19  2  0
  2 16  2  0
  2 22  1  0
  3  5  1  0
  3 21  1  0
  4  5  1  0
  4 22  1  0
  5 14  1  0
  6 26  1  0
  7  8  2  0
  7 18  1  0
  8  9  1  0
  8 24  1  0
 10 11  2  0
 11 15  1  0
 11 24  1  0
 12 27  1  0
 13 14  1  0
 13 17  1  0
 13 22  2  0
 16 20  1  0
 17 20  2  0
 18 19  1  0
 19 27  1  0
 21 26  1  0
 23 27  1  0
 24 26  1  0
 25 27  1  0
M  END
>  <ID>  (1) 
conformer_0

$$$$
