
     RDKit          3D

 44 47  0  0  0  0  0  0  0  0999 V2000
   20.8088   51.5138   21.5300 C   0  0  0  0  0  0  0  0  0  0  0  0
   18.4049   54.1816   21.2277 C   0  0  0  0  0  0  0  0  0  0  0  0
   24.4872   45.9036   18.7198 C   0  0  0  0  0  0  0  0  0  0  0  0
   21.6244   56.6577   19.8342 C   0  0  0  0  0  0  0  0  0  0  0  0
   21.1285   52.1639   22.7477 F   0  0  0  0  0  0  0  0  0  0  0  0
   17.2703   55.2816   23.1890 N   0  0  0  0  0  0  0  0  0  0  0  0
   19.1629   47.4946   17.4902 O   0  0  0  0  0  0  0  0  0  0  0  0
   18.0354   52.3976   17.5240 C   0  0  0  0  0  0  0  0  0  0  0  0
   22.9863   47.8182   19.4064 C   0  0  0  0  0  0  0  0  0  0  0  0
   19.1264   51.4692   17.0251 C   0  0  0  0  0  0  0  0  0  0  0  0
   17.9175   57.3748   26.4163 C   0  0  0  0  0  0  0  0  0  0  0  0
   20.1973   53.4236   22.8422 F   0  0  0  0  0  0  0  0  0  0  0  0
   20.9088   55.6077   19.4492 C   0  0  0  0  0  0  0  0  0  0  0  0
   21.6884   49.6046   20.2331 C   0  0  0  0  0  0  0  0  0  0  0  0
   19.8142   52.2388   20.8708 C   0  0  0  0  0  0  0  0  0  0  0  0
   21.6507   48.4724   19.3830 C   0  0  0  0  0  0  0  0  0  0  0  0
   20.8281   47.5601   19.9395 F   0  0  0  0  0  0  0  0  0  0  0  0
   15.9067   54.8614   23.0286 C   0  0  0  0  0  0  0  0  0  0  0  0
   19.4630   53.2868   21.6635 C   0  0  0  0  0  0  0  0  0  0  0  0
   19.4488   48.9116   14.7825 O   0  0  0  0  0  0  0  0  0  0  0  0
   17.4728   56.2439   25.5919 C   0  0  0  0  0  0  0  0  0  0  0  0
   19.4025   49.9088   15.4761 C   0  0  0  0  0  0  0  0  0  0  0  0
   21.2488   57.4420   21.0457 C   0  0  0  0  0  0  0  0  0  0  0  0
   18.9661   56.5989   23.6869 N   0  0  0  0  0  0  0  0  0  0  0  0
   22.6598   56.5039   17.9417 C   0  0  0  0  0  0  0  0  0  0  0  0
   22.0416   55.5284   17.4035 C   0  0  0  0  0  0  0  0  0  0  0  0
   23.6956   47.6311   17.0235 C   0  0  0  0  0  0  0  0  0  0  0  0
   19.3555   57.5962   26.8045 C   0  0  0  0  0  0  0  0  0  0  0  0
   17.0441   58.0378   27.0813 O   0  0  0  0  0  0  0  0  0  0  0  0
   20.9995   54.9945   18.2141 C   0  0  0  0  0  0  0  0  0  0  0  0
   18.0765   55.3350   22.0512 C   0  0  0  0  0  0  0  0  0  0  0  0
   24.0275   47.3979   18.4984 C   0  0  0  0  0  0  0  0  0  0  0  0
   17.8247   56.0629   24.1874 C   0  0  0  0  0  3  0  0  0  0  0  0
   25.3545   48.1437   18.7901 C   0  0  0  0  0  0  0  0  0  0  0  0
   21.1291   48.7703   18.0281 N   0  0  0  0  0  0  0  0  0  0  0  0
   19.1118   56.2845   22.3940 C   0  0  0  0  0  0  0  0  0  0  0  0
   19.1618   49.8663   16.9802 C   0  0  0  0  0  0  0  0  0  0  0  0
   21.3749   50.3917   21.0642 C   0  0  0  0  0  0  0  0  0  0  0  0
   19.2733   51.9864   19.6363 C   0  0  0  0  0  0  0  0  0  0  0  0
   19.2126   51.3953   15.4500 N   0  0  0  0  0  0  0  0  0  0  0  0
   17.8307   53.9379   19.9115 C   0  0  0  0  0  0  0  0  0  0  0  0
   18.3627   52.7906   19.0521 C   0  0  0  0  0  0  0  0  0  0  0  0
   20.0166   56.9987   21.6321 N   0  0  0  0  0  0  0  0  0  0  0  0
   19.8223   48.6493   17.5343 C   0  0  0  0  0  0  0  0  0  0  0  0
  1  5  1  0
  1 15  2  0
  1 38  1  0
  2 19  2  0
  2 31  1  0
  2 41  1  0
  3 32  1  0
  4 13  2  3
  4 23  1  0
  6 18  1  0
  6 31  1  0
  6 33  1  0
  7 44  2  0
  8 10  1  0
  8 42  1  0
  9 16  1  0
  9 32  1  0
 10 37  1  0
 10 40  1  0
 11 21  1  0
 11 28  1  0
 11 29  2  0
 12 19  1  0
 13 30  1  0
 14 16  1  0
 14 38  3  0
 15 19  1  0
 15 39  1  0
 16 17  1  0
 16 35  1  0
 20 22  2  0
 21 33  1  0
 22 37  1  0
 22 40  1  0
 23 43  1  0
 24 33  1  0
 24 36  2  0
 25 26  1  0
 26 30  1  0
 27 32  1  0
 31 36  1  0
 32 34  1  0
 35 44  1  0
 36 43  1  0
 37 44  1  0
 39 42  2  0
 41 42  1  0
M  END
>  <ID>  (1) 
conformer_0

$$$$
