
     RDKit          3D

 42 48  0  0  0  0  0  0  0  0999 V2000
   18.3084   55.7975   23.6263 C   0  0  0  0  0  0  0  0  0  0  0  0
   19.0057   52.6169   18.7735 C   0  0  0  0  0  0  0  0  0  0  0  0
   19.3988   57.3408   25.9239 O   0  0  0  0  0  1  0  0  0  0  0  0
   19.4416   53.4686   21.8314 C   0  0  0  0  0  0  0  0  0  0  0  0
   19.3532   47.4244   18.0925 C   0  0  0  0  0  0  0  0  0  0  0  0
   25.5009   47.0128   18.6364 C   0  0  0  0  0  0  0  0  0  0  0  0
   19.3040   52.1850   15.0430 C   0  0  0  0  0  0  0  0  0  0  0  0
   16.4456   54.4526   23.0156 C   0  0  0  0  0  0  0  0  0  0  0  0
   17.8893   54.3595   20.2273 C   0  0  0  0  0  0  0  0  0  0  0  0
   22.2072   49.9314   19.5783 C   0  0  0  0  0  0  0  0  0  0  0  0
   23.5266   46.4312   19.9582 C   0  0  0  0  0  0  0  0  0  0  0  0
   18.3346   54.3005   21.5873 C   0  0  0  0  0  0  0  0  0  0  0  0
   19.9111   47.8606   19.1698 C   0  0  0  0  0  0  0  0  0  0  0  0
   18.9871   48.6067   15.9632 C   0  0  0  0  0  0  0  0  0  0  0  0
   19.2370   50.8079   14.9098 C   0  0  0  0  0  0  0  0  0  0  0  0
   16.4213   55.6552   25.0844 C   0  0  0  0  0  0  0  0  0  0  0  0
   19.2987   52.8042   16.2843 C   0  0  0  0  0  0  0  0  0  0  0  0
   19.3955   54.3176   16.3527 C   0  0  0  0  0  0  0  0  0  0  0  0
   23.1502   48.8060   19.4546 C   0  0  0  0  0  0  0  0  0  0  0  0
   19.6631   51.9784   19.8859 C   0  0  0  0  0  0  0  0  0  0  0  0
   22.8905   47.6147   20.1196 C   0  0  0  0  0  0  0  0  0  0  0  0
   19.1913   52.0179   17.4772 C   0  0  0  0  0  0  0  0  0  0  0  0
   25.2556   48.2732   18.4223 C   0  0  0  0  0  0  0  0  0  0  0  0
   25.2231   44.9196   19.3956 F   0  0  0  0  0  0  0  0  0  0  0  0
   24.2503   49.0757   18.7205 C   0  0  0  0  0  0  0  0  0  0  0  0
   20.8193   49.7340   21.9031 C   0  0  0  0  0  0  0  0  0  0  0  0
   20.7063   48.3769   20.0452 C   0  0  0  0  0  0  0  0  0  0  0  0
   24.7633   46.1583   19.3232 C   0  0  0  0  0  0  0  0  0  0  0  0
   20.0806   50.7153   19.7108 O   0  0  0  0  0  0  0  0  0  0  0  0
   17.6602   56.1619   24.8190 C   0  0  0  0  0  0  0  0  0  0  0  0
   17.7226   54.9191   22.7183 C   0  0  0  0  0  0  0  0  0  0  0  0
   21.7288   48.5024   22.1610 C   0  0  0  0  0  0  0  0  0  0  0  0
   17.4077   57.5463   26.7920 O   0  0  0  0  0  1  0  0  0  0  0  0
   15.8380   54.7547   24.1947 C   0  0  0  0  0  0  0  0  0  0  0  0
   19.1839   50.0000   16.0751 C   0  0  0  0  0  0  0  0  0  0  0  0
   18.2074   53.7372   19.1030 C   0  0  0  0  0  0  0  0  0  0  0  0
   18.1715   57.0592   25.8334 N   0  0  0  0  0  0  0  0  0  0  0  0
   21.6696   47.7082   20.8972 C   0  0  0  0  0  0  0  0  0  0  0  0
   19.0316   47.6221   16.8187 C   0  0  0  0  0  0  0  0  0  0  0  0
   19.8653   52.5020   21.0975 C   0  0  0  0  0  0  0  0  0  0  0  0
   20.8762   49.7949   20.2959 C   0  0  0  0  0  0  0  0  0  0  0  0
   19.2604   50.6552   17.2681 C   0  0  0  0  0  0  0  0  0  0  0  0
  1 30  2  0
  1 31  1  0
  2 20  1  0
  2 22  1  0
  2 36  1  0
  3 37  1  0
  4 12  1  0
  4 40  2  0
  5 13  2  0
  5 39  1  0
  6 23  2  0
  6 28  1  0
  7 15  1  0
  7 17  2  0
  8 31  2  0
  8 34  1  0
  9 12  1  0
  9 36  2  0
 10 19  1  0
 10 41  1  0
 11 21  1  0
 11 28  2  0
 12 31  1  0
 13 27  2  0
 14 35  1  0
 14 39  2  0
 15 35  2  0
 16 30  1  0
 16 34  2  0
 17 18  1  0
 17 22  1  0
 19 21  1  0
 19 25  2  0
 20 29  1  0
 20 40  1  0
 21 38  1  0
 22 42  2  0
 23 25  1  0
 24 28  1  0
 26 32  1  0
 26 41  1  0
 27 38  1  0
 27 41  1  0
 29 41  1  0
 30 37  1  0
 32 38  1  0
 33 37  1  0
 35 42  1  0
M  END
>  <ID>  (1) 
conformer_0

$$$$
