
     RDKit          3D

 28 31  0  0  0  0  0  0  0  0999 V2000
   16.9921   54.5754   23.6585 C   0  0  0  0  0  0  0  0  0  0  0  0
   20.0635   52.1948   21.1560 N   0  0  0  0  0  0  0  0  0  0  0  0
   17.3633   57.4220   26.4474 C   0  0  0  0  0  0  0  0  0  0  0  0
   16.1924   54.7991   24.7786 C   0  0  0  0  0  0  0  0  0  0  0  0
   19.9481   51.8934   19.8635 C   0  0  0  0  0  0  0  0  0  0  0  0
   23.0590   47.1700   18.7145 C   0  0  0  0  0  0  0  0  0  0  0  0
   21.4317   48.5273   20.0004 C   0  0  0  0  0  0  0  0  0  0  0  0
   18.0299   55.5167   23.4334 C   0  0  0  0  0  0  0  0  0  0  0  0
   16.2935   56.4688   26.6981 C   0  0  0  0  0  0  0  0  0  0  0  0
   16.0448   55.4887   25.7973 C   0  0  0  0  0  0  0  0  0  0  0  0
   18.1004   57.2485   25.2768 C   0  0  0  0  0  0  0  0  0  0  0  0
   18.8464   51.9453   17.0622 C   0  0  0  0  0  0  0  0  0  0  0  0
   18.8119   55.4026   22.2643 C   0  0  0  0  0  0  0  0  0  0  0  0
   24.4861   47.2088   18.4650 C   0  0  0  0  0  0  0  0  0  0  0  0
   23.9035   49.0549   19.8036 C   0  0  0  0  0  0  0  0  0  0  0  0
   19.2669   50.6893   17.2823 C   0  0  0  0  0  0  0  0  0  0  0  0
   19.5017   53.3970   21.2330 C   0  0  0  0  0  0  0  0  0  0  0  0
   25.2713   45.9897   18.5301 C   0  0  0  0  0  0  0  0  0  0  0  0
   20.3911   50.6281   19.4309 C   0  0  0  0  0  0  0  0  0  0  0  0
   18.9634   53.0320   17.8966 C   0  0  0  0  0  0  0  0  0  0  0  0
   18.2400   56.5429   24.2699 C   0  0  0  0  0  0  0  0  0  0  0  0
   21.3320   49.9618   20.3141 C   0  0  0  0  0  0  0  0  0  0  0  0
   22.7790   48.2467   19.6074 N   0  0  0  0  0  0  0  0  0  0  0  0
   24.9816   48.4582   19.0092 C   0  0  0  0  0  0  0  0  0  0  0  0
   19.0262   53.9459   22.2709 N   0  0  0  0  0  0  0  0  0  0  0  0
   19.4080   52.9270   19.1937 C   0  0  0  0  0  0  0  0  0  0  0  0
   19.2864   53.9055   20.0454 N   0  0  0  0  0  0  0  0  0  0  0  0
   19.9090   50.0971   18.2692 C   0  0  0  0  0  0  0  0  0  0  0  0
  1  4  1  0
  1  8  1  0
  2  5  1  0
  2 17  2  0
  3  9  1  0
  3 11  1  0
  4 10  2  0
  5 19  1  0
  5 26  2  0
  6 14  1  0
  6 23  1  0
  7 22  1  0
  7 23  1  0
  8 13  1  0
  8 21  2  0
  9 10  2  0
 11 21  2  0
 12 16  1  0
 12 20  2  0
 13 25  1  0
 14 18  1  0
 14 24  1  0
 15 23  1  0
 15 24  1  0
 16 28  2  0
 17 25  1  0
 17 27  1  0
 19 22  1  0
 19 28  1  0
 20 26  1  0
 26 27  1  0
M  END
>  <ID>  (1) 
conformer_0

$$$$
