
     RDKit          3D

 28 32  0  0  0  0  0  0  0  0999 V2000
   19.6874   50.3704   17.3231 C   0  0  0  0  0  0  0  0  0  0  0  0
   18.0302   56.6995   25.8422 O   0  0  0  0  0  0  0  0  0  0  0  0
   17.3914   56.5636   24.7854 C   0  0  0  0  0  0  0  0  0  0  0  0
   22.6224   47.9715   19.3515 C   0  0  0  0  0  0  0  0  0  0  0  0
   19.1796   56.3950   22.9605 C   0  0  0  0  0  0  0  0  0  0  0  0
   23.5938   47.7437   18.1868 C   0  0  0  0  0  0  0  0  0  0  0  0
   23.1702   48.5556   20.7129 C   0  0  0  0  0  0  0  0  0  0  0  0
   19.6117   54.0500   21.9666 C   0  0  0  0  0  0  0  0  0  0  0  0
   21.6719   50.7195   21.9544 C   0  0  0  0  0  0  0  0  0  0  0  0
   21.5418   48.8784   18.7239 C   0  0  0  0  0  0  0  0  0  0  0  0
   18.0758   55.8086   23.7079 C   0  0  0  0  0  0  0  0  0  0  0  0
   16.2060   56.8975   24.5790 O   0  0  0  0  0  0  0  0  0  0  0  0
   20.6099   48.1394   17.8714 C   0  0  0  0  0  0  0  0  0  0  0  0
   19.6851   51.1296   18.5912 C   0  0  0  0  0  0  0  0  0  0  0  0
   20.6864   51.6660   21.1168 C   0  0  0  0  0  0  0  0  0  0  0  0
   18.2117   53.7074   22.3850 C   0  0  0  0  0  0  0  0  0  0  0  0
   25.5516   48.2593   19.3592 O   0  0  0  0  0  0  0  0  0  0  0  0
   20.3536   50.8490   19.8812 C   0  0  0  0  0  0  0  0  0  0  0  0
   24.8992   47.3173   18.7852 C   0  0  0  0  0  0  0  0  0  0  0  0
   21.1503   49.6465   19.8729 C   0  0  0  0  0  0  0  0  0  0  0  0
   19.3280   52.5670   18.4453 C   0  0  0  0  0  0  0  0  0  0  0  0
   22.0928   49.4918   21.1997 C   0  0  0  0  0  0  0  0  0  0  0  0
   17.4130   54.6677   23.1123 C   0  0  0  0  0  0  0  0  0  0  0  0
   20.0673   53.0753   20.8937 C   0  0  0  0  0  0  0  0  0  0  0  0
   19.7101   48.9626   17.0331 C   0  0  0  0  0  0  0  0  0  0  0  0
   19.7186   55.5414   21.8745 C   0  0  0  0  0  0  0  0  0  0  0  0
   18.9822   53.0926   19.7919 C   0  0  0  0  0  0  0  0  0  0  0  0
   24.9165   45.8881   19.1374 C   0  0  0  0  0  0  0  0  0  0  0  0
  1 14  1  0
  1 25  1  0
  2  3  2  0
  3 11  1  0
  3 12  1  0
  4  6  1  0
  4  7  1  0
  4 10  1  0
  5 11  1  0
  5 26  1  0
  6 19  1  0
  7 22  1  0
  8 16  1  0
  8 24  1  0
  8 26  1  0
  9 15  1  0
  9 22  1  0
 10 13  1  0
 10 20  1  0
 11 23  1  0
 13 25  2  0
 14 18  1  0
 14 21  1  0
 15 18  2  0
 15 24  1  0
 16 23  2  0
 17 19  2  0
 18 20  1  0
 19 28  1  0
 20 22  1  0
 21 27  1  0
 24 27  1  0
M  END
>  <ID>  (1) 
conformer_0

$$$$
