
     RDKit          3D

 36 41  0  0  0  0  0  0  0  0999 V2000
   18.9941   52.9893   19.8838 C   0  0  0  0  0  0  0  0  0  0  0  0
   17.7570   55.0577   22.8254 C   0  0  0  0  0  0  0  0  0  0  0  0
   20.9029   49.5124   19.6914 C   0  0  0  0  0  0  0  0  0  0  0  0
   18.9908   53.4317   21.2583 C   0  0  0  0  0  0  0  0  0  0  0  0
   20.3778   47.9069   17.9389 C   0  0  0  0  0  0  0  0  0  0  0  0
   19.8332   50.3110   19.1728 C   0  0  0  0  0  0  0  0  0  0  0  0
   18.6866   56.0199   23.1492 C   0  0  0  0  0  0  0  0  0  0  0  0
   20.1924   54.9936   16.9090 C   0  0  0  0  0  0  0  0  0  0  0  0
   19.4426   54.1330   17.6642 C   0  0  0  0  0  0  0  0  0  0  0  0
   21.3996   49.4989   21.0247 C   0  0  0  0  0  0  0  0  0  0  0  0
   17.3730   57.1011   26.4366 C   0  0  0  0  0  0  0  0  0  0  0  0
   21.3971   48.5578   18.7251 C   0  0  0  0  0  0  0  0  0  0  0  0
   19.5316   50.1552   17.8114 C   0  0  0  0  0  0  0  0  0  0  0  0
   19.6329   51.5858   19.7943 C   0  0  0  0  0  0  0  0  0  0  0  0
   16.8389   54.2655   20.7802 O   0  0  0  0  0  0  0  0  0  0  0  0
   22.6583   47.8624   18.9010 C   0  0  0  0  0  0  0  0  0  0  0  0
   20.8154   54.6541   19.5672 C   0  0  0  0  0  0  0  0  0  0  0  0
   17.5401   56.3886   25.1940 C   0  0  0  0  0  0  0  0  0  0  0  0
   18.5788   56.7066   24.3503 C   0  0  0  0  0  0  0  0  0  0  0  0
   23.8418   48.3803   18.4030 C   0  0  0  0  0  0  0  0  0  0  0  0
   25.0379   46.4842   19.2069 C   0  0  0  0  0  0  0  0  0  0  0  0
   19.7511   53.9221   19.0083 C   0  0  0  0  0  0  0  0  0  0  0  0
   19.7447   52.6011   21.9893 C   0  0  0  0  0  0  0  0  0  0  0  0
   20.9442   50.5279   21.8986 C   0  0  0  0  0  0  0  0  0  0  0  0
   19.4910   48.8521   17.3034 C   0  0  0  0  0  0  0  0  0  0  0  0
   26.1766   48.2049   18.2250 F   0  0  0  0  0  0  0  0  0  0  0  0
   21.5636   55.5117   18.8124 C   0  0  0  0  0  0  0  0  0  0  0  0
   22.7020   46.6406   19.4893 C   0  0  0  0  0  0  0  0  0  0  0  0
   20.1704   51.5239   21.2068 C   0  0  0  0  0  0  0  0  0  0  0  0
   25.0040   47.6991   18.6190 C   0  0  0  0  0  0  0  0  0  0  0  0
   17.8806   54.2878   21.5929 C   0  0  0  0  0  0  0  0  0  0  0  0
   23.8715   45.9807   19.6485 C   0  0  0  0  0  0  0  0  0  0  0  0
   19.3104   51.2253   18.3225 C   0  0  0  0  0  0  0  0  0  0  0  0
   21.2544   55.6646   17.4767 C   0  0  0  0  0  0  0  0  0  0  0  0
   16.6093   55.4648   24.8390 C   0  0  0  0  0  0  0  0  0  0  0  0
   16.7162   54.8162   23.6482 C   0  0  0  0  0  0  0  0  0  0  0  0
  1  4  1  0
  1 14  1  0
  1 22  1  0
  2  7  2  0
  2 31  1  0
  2 36  1  0
  3  6  1  0
  3 10  2  0
  3 12  1  0
  4 23  1  0
  4 31  1  0
  5 12  1  0
  5 25  1  0
  6 14  1  0
  6 33  1  0
  7 19  1  0
  8  9  2  0
  8 34  1  0
  9 22  1  0
 10 24  1  0
 11 18  1  0
 12 16  1  0
 13 25  1  0
 13 33  1  0
 14 29  2  0
 15 31  1  0
 16 20  2  0
 16 28  1  0
 17 22  1  0
 17 27  2  0
 18 19  2  0
 18 35  1  0
 20 30  1  0
 21 30  2  0
 21 32  1  0
 23 29  1  0
 24 29  1  0
 26 30  1  0
 27 34  1  0
 28 32  2  0
 35 36  2  0
M  END
>  <ID>  (1) 
conformer_0

$$$$
