
     RDKit          3D

 28 31  0  0  0  0  0  0  0  0999 V2000
   18.9396   56.0817   23.8107 C   0  0  0  0  0  0  0  0  0  0  0  0
   15.9560   57.4171   25.3431 C   0  0  0  0  0  0  0  0  0  0  0  0
   21.3095   49.0215   20.8155 O   0  0  0  0  0  0  0  0  0  0  0  0
   23.6270   47.8578   17.6732 C   0  0  0  0  0  0  0  0  0  0  0  0
   18.9200   54.3872   22.1902 C   0  0  0  0  0  0  0  0  0  0  0  0
   17.0490   56.4009   25.3656 C   0  0  0  0  0  0  0  0  0  0  0  0
   19.8080   50.5689   17.9595 C   0  0  0  0  0  0  0  0  0  0  0  0
   24.8182   47.1622   17.9141 C   0  0  0  0  0  0  0  0  0  0  0  0
   19.5801   53.6760   19.0340 C   0  0  0  0  0  0  0  0  0  0  0  0
   20.3631   51.6158   20.2828 C   0  0  0  0  0  0  0  0  0  0  0  0
   19.6964   53.4035   21.5603 C   0  0  0  0  0  0  0  0  0  0  0  0
   20.6096   52.6705   22.2695 C   0  0  0  0  0  0  0  0  0  0  0  0
   17.6109   55.8939   24.0887 C   0  0  0  0  0  0  0  0  0  0  0  0
   22.7679   46.9560   19.7373 C   0  0  0  0  0  0  0  0  0  0  0  0
   18.0546   56.6450   26.4428 C   0  0  0  0  0  0  0  0  0  0  0  0
   21.3331   48.5092   18.4570 C   0  0  0  0  0  0  0  0  0  0  0  0
   19.6094   52.8944   20.2276 N   0  0  0  0  0  0  0  0  0  0  0  0
   16.8619   55.1263   23.2130 C   0  0  0  0  0  0  0  0  0  0  0  0
   17.5273   54.3725   22.2462 C   0  0  0  0  0  0  0  0  0  0  0  0
   19.5749   55.3550   22.8933 C   0  0  0  0  0  0  0  0  0  0  0  0
   22.5760   47.7623   18.6143 C   0  0  0  0  0  0  0  0  0  0  0  0
   18.4214   53.2828   19.4614 O   0  0  0  0  0  0  0  0  0  0  0  0
   21.0262   49.3942   19.6319 C   0  0  0  0  0  0  0  0  0  0  0  0
   23.9352   46.2273   19.9190 C   0  0  0  0  0  0  0  0  0  0  0  0
   20.6349   49.2634   17.0533 S   0  0  0  0  0  0  0  0  0  0  0  0
   24.9614   46.3774   19.0459 C   0  0  0  0  0  0  0  0  0  0  0  0
   20.9891   51.5900   21.5193 C   0  0  0  0  0  0  0  0  0  0  0  0
   20.3756   50.6221   19.3207 N   0  0  0  0  0  0  0  0  0  0  0  0
  1 13  2  0
  1 20  1  0
  2  6  1  0
  3 23  2  0
  4  8  2  0
  4 21  1  0
  5 11  1  0
  5 19  1  0
  5 20  2  0
  6 13  1  0
  6 15  1  0
  7 25  1  0
  7 28  1  0
  8 26  1  0
  9 17  1  0
  9 22  1  0
 10 17  1  0
 10 27  1  0
 10 28  1  0
 11 12  1  0
 11 17  1  0
 12 27  1  0
 13 18  1  0
 14 21  2  0
 14 24  1  0
 16 21  1  0
 16 23  1  0
 16 25  1  0
 18 19  2  0
 23 28  1  0
 24 26  2  0
M  END
>  <ID>  (1) 
conformer_0

$$$$
