
     RDKit          3D

 31 33  0  0  0  0  0  0  0  0999 V2000
   20.4618   52.7603   18.8493 C   0  0  0  0  0  0  0  0  0  0  0  0
   21.0975   51.0729   22.1039 F   0  0  0  0  0  0  0  0  0  0  0  0
   21.6181   55.6525   17.6018 C   0  0  0  0  0  0  0  0  0  0  0  0
   18.3317   54.8632   21.7777 C   0  0  0  0  0  0  0  0  0  0  0  0
   23.7205   47.6997   18.8797 C   0  0  0  0  0  0  0  0  0  0  0  0
   20.2220   54.0961   18.6418 C   0  0  0  0  0  0  0  0  0  0  0  0
   17.0042   54.4060   21.5127 C   0  0  0  0  0  0  0  0  0  0  0  0
   19.7344   49.1566   21.2978 F   0  0  0  0  0  0  0  0  0  0  0  0
   19.6921   52.9957   21.0807 C   0  0  0  0  0  0  0  0  0  0  0  0
   24.8675   46.8916   18.5206 N   0  0  0  0  0  0  0  0  0  0  0  0
   19.2156   49.9614   19.3169 F   0  0  0  0  0  0  0  0  0  0  0  0
   22.4792   47.2465   18.5886 C   0  0  0  0  0  0  0  0  0  0  0  0
   21.3477   48.0198   18.9298 C   0  0  0  0  0  0  0  0  0  0  0  0
   22.7748   49.6912   19.8627 C   0  0  0  0  0  0  0  0  0  0  0  0
   25.9842   47.4536   18.2730 O   0  0  0  0  0  1  0  0  0  0  0  0
   18.5714   55.6269   22.9127 C   0  0  0  0  0  0  0  0  0  0  0  0
   20.2654   52.3036   20.1494 C   0  0  0  0  0  0  0  0  0  0  0  0
   21.4994   49.1833   19.6440 C   0  0  0  0  0  0  0  0  0  0  0  0
   24.7920   45.6028   18.4619 O   0  0  0  0  0  1  0  0  0  0  0  0
   20.4548   54.7240   17.4307 O   0  0  0  0  0  0  0  0  0  0  0  0
   16.1983   55.6085   23.3780 C   0  0  0  0  0  0  0  0  0  0  0  0
   17.0742   57.8388   25.1331 N   0  0  0  0  0  0  0  0  0  0  0  0
   23.8632   48.9210   19.4740 C   0  0  0  0  0  0  0  0  0  0  0  0
   17.4925   55.9733   23.7493 C   0  0  0  0  0  0  0  0  0  0  0  0
   19.2887   54.3141   20.8512 C   0  0  0  0  0  0  0  0  0  0  0  0
   15.9607   54.8072   22.2679 C   0  0  0  0  0  0  0  0  0  0  0  0
   19.6969   54.8843   19.6587 C   0  0  0  0  0  0  0  0  0  0  0  0
   18.0446   56.0296   25.9754 O   0  0  0  0  0  0  0  0  0  0  0  0
   20.6664   51.1490   20.7781 C   0  0  0  0  0  0  0  0  0  0  0  0
   17.6399   56.6725   25.0288 C   0  0  0  0  0  0  0  0  0  0  0  0
   20.2676   49.8439   20.2048 C   0  0  0  0  0  0  0  0  0  0  0  0
  1  6  2  0
  1 17  1  0
  2 29  1  0
  3 20  1  0
  4  7  2  0
  4 16  1  0
  4 25  1  0
  5 10  1  0
  5 12  2  0
  5 23  1  0
  6 20  1  0
  6 27  1  0
  7 26  1  0
  8 31  1  0
  9 17  2  0
  9 25  1  0
 10 15  1  0
 10 19  1  0
 11 31  1  0
 12 13  1  0
 13 18  2  0
 14 18  1  0
 14 23  2  0
 16 24  2  0
 17 29  1  0
 18 31  1  0
 21 24  1  0
 21 26  2  0
 22 30  1  0
 24 30  1  0
 25 27  1  0
 28 30  2  0
 29 31  1  0
M  END
>  <ID>  (1) 
conformer_0

$$$$
