
     RDKit          3D

 27 29  0  0  0  0  0  0  0  0999 V2000
   23.0784   46.7819   18.1276 N   0  0  0  0  0  0  0  0  0  0  0  0
   25.4145   46.3186   18.4741 C   0  0  0  0  0  0  0  0  0  0  0  0
   18.3747   54.3149   21.7890 C   0  0  0  0  0  0  0  0  0  0  0  0
   25.1716   48.6122   19.0678 C   0  0  0  0  0  0  0  0  0  0  0  0
   19.2468   55.2339   22.2550 C   0  0  0  0  0  0  0  0  0  0  0  0
   16.7286   55.6406   25.9593 C   0  0  0  0  0  0  0  0  0  0  0  0
   18.6084   52.2357   20.1974 C   0  0  0  0  0  0  0  0  0  0  0  0
   21.0911   49.4488   19.5982 C   0  0  0  0  0  0  0  0  0  0  0  0
   19.7618   50.0357   19.4311 C   0  0  0  0  0  0  0  0  0  0  0  0
   17.6349   56.0485   23.7655 C   0  0  0  0  0  0  0  0  0  0  0  0
   19.6404   51.2707   20.1431 N   0  0  0  0  0  0  0  0  0  0  0  0
   17.0372   54.4606   22.0516 C   0  0  0  0  0  0  0  0  0  0  0  0
   20.6244   47.7340   17.9510 C   0  0  0  0  0  0  0  0  0  0  0  0
   18.9836   53.1574   21.1457 C   0  0  0  0  0  0  0  0  0  0  0  0
   17.3872   56.6563   25.1286 C   0  0  0  0  0  0  0  0  0  0  0  0
   24.1607   46.1197   18.1634 C   0  0  0  0  0  0  0  0  0  0  0  0
   20.2482   52.8311   21.5175 N   0  0  0  0  0  0  0  0  0  0  0  0
   18.8959   56.1068   23.2317 C   0  0  0  0  0  0  0  0  0  0  0  0
   25.9583   47.4894   18.9405 C   0  0  0  0  0  0  0  0  0  0  0  0
   20.6146   51.6878   20.9768 O   0  0  0  0  0  0  0  0  0  0  0  0
   16.6535   55.3545   23.0835 C   0  0  0  0  0  0  0  0  0  0  0  0
   19.5020   47.9580   17.3111 N   0  0  0  0  0  0  0  0  0  0  0  0
   23.9243   48.8455   19.0019 C   0  0  0  0  0  0  0  0  0  0  0  0
   22.9338   48.0636   18.5959 C   0  0  0  0  0  0  0  0  0  0  0  0
   18.5537   57.0006   25.7725 F   0  0  0  0  0  0  0  0  0  0  0  0
   21.5339   48.6386   18.5869 C   0  0  0  0  0  0  0  0  0  0  0  0
   16.6243   57.7787   25.0061 F   0  0  0  0  0  0  0  0  0  0  0  0
  1 16  2  0
  1 24  1  0
  2 16  1  0
  2 19  2  0
  3  5  1  0
  3 12  1  0
  3 14  1  0
  4 19  1  0
  4 23  2  0
  5 18  2  0
  6 15  1  0
  7 11  1  0
  7 14  1  0
  8  9  1  0
  8 26  1  0
  9 11  1  0
 10 15  1  0
 10 18  1  0
 10 21  1  0
 11 20  1  0
 12 21  2  0
 13 22  2  0
 13 26  1  0
 14 17  2  0
 15 25  1  0
 15 27  1  0
 17 20  1  0
 23 24  1  0
 24 26  1  0
M  END
>  <ID>  (1) 
conformer_0

$$$$
