
     RDKit          3D

 28 33  0  0  0  0  0  0  0  0999 V2000
   18.3742   56.3210   24.1678 C   0  0  0  0  0  0  0  0  0  0  0  0
   19.1876   56.1591   23.0717 C   0  0  0  0  0  0  0  0  0  0  0  0
   16.7864   55.8912   25.6482 C   0  0  0  0  0  0  0  0  0  0  0  0
   19.0998   51.8621   18.8802 C   0  0  0  0  0  0  0  0  0  0  0  0
   19.1471   50.4844   16.9124 C   0  0  0  0  0  0  0  0  0  0  0  0
   18.5229   57.2348   25.1695 C   0  0  0  0  0  0  0  0  0  0  0  0
   20.1051   51.0668   19.3484 C   0  0  0  0  0  0  0  0  0  0  0  0
   18.6269   52.8886   19.6826 C   0  0  0  0  0  0  0  0  0  0  0  0
   21.7140   50.2567   20.7581 O   0  0  0  0  0  0  0  0  0  0  0  0
   19.1385   53.0904   20.9764 C   0  0  0  0  0  0  0  0  0  0  0  0
   25.1375   48.1274   18.7103 C   0  0  0  0  0  0  0  0  0  0  0  0
   21.7750   49.5078   19.5093 C   0  0  0  0  0  0  0  0  0  0  0  0
   20.7182   49.9968   18.6859 C   0  0  0  0  0  0  0  0  0  0  0  0
   20.6680   51.2666   20.6324 C   0  0  0  0  0  0  0  0  0  0  0  0
   24.1195   49.0025   19.0106 C   0  0  0  0  0  0  0  0  0  0  0  0
   22.8427   48.5649   19.3141 C   0  0  0  0  0  0  0  0  0  0  0  0
   19.3355   55.2552   22.1210 C   0  0  0  0  0  0  0  0  0  0  0  0
   18.5830   51.5973   17.6051 O   0  0  0  0  0  0  0  0  0  0  0  0
   16.8815   54.5479   23.5639 C   0  0  0  0  0  0  0  0  0  0  0  0
   20.1969   52.2866   21.4145 C   0  0  0  0  0  0  0  0  0  0  0  0
   22.6351   47.1911   19.3075 C   0  0  0  0  0  0  0  0  0  0  0  0
   24.9312   46.7843   18.7418 C   0  0  0  0  0  0  0  0  0  0  0  0
   23.6653   46.3222   19.0032 C   0  0  0  0  0  0  0  0  0  0  0  0
   17.2969   55.5240   24.4434 C   0  0  0  0  0  0  0  0  0  0  0  0
   17.3759   53.9714   22.4835 C   0  0  0  0  0  0  0  0  0  0  0  0
   20.1666   49.6884   17.4520 C   0  0  0  0  0  0  0  0  0  0  0  0
   17.5524   56.9483   26.1065 N   0  0  0  0  0  0  0  0  0  0  0  0
   18.6011   54.1246   21.8676 C   0  0  0  0  0  0  0  0  0  0  0  0
  1  2  1  0
  1  6  1  0
  1 24  2  0
  2 17  2  0
  3 24  1  0
  3 27  1  0
  4  7  2  0
  4  8  1  0
  4 18  1  0
  5 18  1  0
  5 26  1  0
  6 27  1  0
  7 13  1  0
  7 14  1  0
  8 10  2  0
  9 12  1  0
  9 14  1  0
 10 20  1  0
 10 28  1  0
 11 15  2  0
 11 22  1  0
 12 13  1  0
 12 16  1  0
 13 26  2  0
 14 20  2  0
 15 16  1  0
 16 21  2  0
 17 28  1  0
 19 24  1  0
 19 25  2  0
 21 23  1  0
 22 23  2  0
 25 28  1  0
M  END
>  <ID>  (1) 
conformer_0

$$$$
