
     RDKit          3D

 31 34  0  0  0  0  0  0  0  0999 V2000
   23.5603   48.9159   18.6841 C   0  0  0  0  0  0  0  0  0  0  0  0
   18.9472   52.0718   16.8866 C   0  0  0  0  0  0  0  0  0  0  0  0
   19.9360   49.9138   17.5695 C   0  0  0  0  0  0  0  0  0  0  0  0
   19.4956   57.2583   24.7437 C   0  0  0  0  0  0  0  0  0  0  0  0
   22.6487   47.9998   19.1368 C   0  0  0  0  0  0  0  0  0  0  0  0
   17.8725   55.6046   22.8506 C   0  0  0  0  0  0  0  0  0  0  0  0
   20.4668   50.7230   19.7989 C   0  0  0  0  0  0  0  0  0  0  0  0
   19.1500   53.8781   21.1213 C   0  0  0  0  0  0  0  0  0  0  0  0
   24.8244   48.5860   18.4110 C   0  0  0  0  0  0  0  0  0  0  0  0
   25.2819   47.3300   18.6265 C   0  0  0  0  0  0  0  0  0  0  0  0
   18.6557   57.9867   27.1244 C   0  0  0  0  0  0  0  0  0  0  0  0
   21.2545   48.4739   19.2764 C   0  0  0  0  0  0  0  0  0  0  0  0
   16.2863   57.0558   26.7618 C   0  0  0  0  0  0  0  0  0  0  0  0
   23.0883   46.7098   19.3617 C   0  0  0  0  0  0  0  0  0  0  0  0
   19.7730   50.8635   18.6052 C   0  0  0  0  0  0  0  0  0  0  0  0
   19.7880   55.0019   21.5028 C   0  0  0  0  0  0  0  0  0  0  0  0
   24.9311   45.1714   19.2683 F   0  0  0  0  0  0  0  0  0  0  0  0
   19.1401   55.8506   22.3940 C   0  0  0  0  0  0  0  0  0  0  0  0
   20.2489   51.6773   20.7442 N   0  0  0  0  0  0  0  0  0  0  0  0
   20.4940   48.6868   18.0402 C   0  0  0  0  0  0  0  0  0  0  0  0
   17.1672   54.5524   22.2747 C   0  0  0  0  0  0  0  0  0  0  0  0
   21.1838   49.6439   20.0963 N   0  0  0  0  0  0  0  0  0  0  0  0
   24.4291   46.4114   19.0924 C   0  0  0  0  0  0  0  0  0  0  0  0
   17.2072   56.3890   23.8923 C   0  0  0  0  0  0  0  0  0  0  0  0
   17.6288   57.3739   26.2082 C   0  0  0  0  0  0  0  0  0  0  0  0
   17.8246   53.7125   21.4200 C   0  0  0  0  0  0  0  0  0  0  0  0
   19.0164   52.0756   18.3286 C   0  0  0  0  0  0  0  0  0  0  0  0
   19.7648   53.1193   18.9831 C   0  0  0  0  0  0  0  0  0  0  0  0
   18.0520   57.0314   24.8650 C   0  0  0  0  0  0  0  0  0  0  0  0
   17.6360   52.2168   18.6173 F   0  0  0  0  0  0  0  0  0  0  0  0
   19.8897   52.8867   20.3853 C   0  0  0  0  0  0  0  0  0  0  0  0
  1  5  2  0
  1  9  1  0
  2 27  1  0
  3 15  1  0
  3 20  1  0
  4 29  1  0
  5 12  1  0
  5 14  1  0
  6 18  2  0
  6 21  1  0
  6 24  1  0
  7 15  1  0
  7 19  1  0
  7 22  2  0
  8 16  2  0
  8 26  1  0
  8 31  1  0
  9 10  2  0
 10 23  1  0
 11 25  1  0
 12 20  1  0
 12 22  1  0
 13 25  1  0
 14 23  2  0
 15 27  1  0
 16 18  1  0
 17 23  1  0
 19 31  1  0
 21 26  2  0
 24 29  1  0
 25 29  2  3
 27 28  1  0
 27 30  1  0
 28 31  1  0
M  END
>  <ID>  (1) 
conformer_0

$$$$
