
     RDKit          3D

 34 38  0  0  0  0  0  0  0  0999 V2000
   25.2359   47.5987   19.4158 F   0  0  0  0  0  0  0  0  0  0  0  0
   19.2744   51.4454   20.5218 C   0  0  0  0  0  0  0  0  0  0  0  0
   19.4753   54.4916   16.7317 C   0  0  0  0  0  0  0  0  0  0  0  0
   20.6838   55.2164   16.7099 C   0  0  0  0  0  0  0  0  0  0  0  0
   17.2295   55.8068   25.4914 C   0  0  0  0  0  0  0  0  0  0  0  0
   21.3705   55.6123   17.8268 N   0  0  0  0  0  0  0  0  0  0  0  0
   17.4970   54.7418   21.9169 C   0  0  0  0  0  0  0  0  0  0  0  0
   23.3490   48.9005   19.0845 C   0  0  0  0  0  0  0  0  0  0  0  0
   20.8482   55.2789   19.0586 C   0  0  0  0  0  0  0  0  0  0  0  0
   21.4849   50.6416   20.7542 C   0  0  0  0  0  0  0  0  0  0  0  0
   23.1354   46.7229   19.3775 C   0  0  0  0  0  0  0  0  0  0  0  0
   21.1787   49.6505   19.8181 C   0  0  0  0  0  0  0  0  0  0  0  0
   22.1507   48.6547   19.5806 N   0  0  0  0  0  0  0  0  0  0  0  0
   18.8614   56.3618   23.6492 C   0  0  0  0  0  0  0  0  0  0  0  0
   20.5089   51.5159   21.1564 C   0  0  0  0  0  0  0  0  0  0  0  0
   17.4646   53.1513   19.9404 C   0  0  0  0  0  0  0  0  0  0  0  0
   19.9585   49.6156   19.1513 C   0  0  0  0  0  0  0  0  0  0  0  0
   17.6263   56.9339   26.3242 C   0  0  0  0  0  0  0  0  0  0  0  0
   17.6676   53.5009   18.4114 C   0  0  0  0  0  0  0  0  0  0  0  0
   16.9692   54.9010   23.1816 C   0  0  0  0  0  0  0  0  0  0  0  0
   20.6157   56.6081   21.8253 O   0  0  0  0  0  0  0  0  0  0  0  0
   19.0497   54.1647   18.0303 C   0  0  0  0  0  0  0  0  0  0  0  0
   18.9864   50.5244   19.5258 C   0  0  0  0  0  0  0  0  0  0  0  0
   19.3850   56.1187   22.3810 C   0  0  0  0  0  0  0  0  0  0  0  0
   16.7623   54.0406   20.8921 N   0  0  0  0  0  0  0  0  0  0  0  0
   17.6977   55.6976   24.0706 C   0  0  0  0  0  0  0  0  0  0  0  0
   21.1976   55.9422   20.4774 C   0  0  0  0  0  0  0  0  0  0  0  0
   19.8190   54.4278   19.0923 C   0  0  0  0  0  0  0  0  0  0  0  0
   18.6578   55.3479   21.5655 C   0  0  0  0  0  0  0  0  0  0  0  0
   24.3200   47.4868   17.5585 F   0  0  0  0  0  0  0  0  0  0  0  0
   24.0312   47.6783   18.8695 C   0  0  0  0  0  0  0  0  0  0  0  0
   16.3155   54.8220   26.1367 C   0  0  0  0  0  0  0  0  0  0  0  0
   21.9815   47.3631   19.7684 C   0  0  0  0  0  0  0  0  0  0  0  0
   18.2292   52.3622   20.9316 C   0  0  0  0  0  0  0  0  0  0  0  0
  1 31  1  0
  2 15  1  0
  2 23  1  0
  2 34  1  0
  3  4  1  0
  3 22  1  0
  4  6  1  0
  5 18  1  0
  5 26  1  0
  5 32  1  0
  6  9  2  0
  7 20  2  0
  7 25  1  0
  7 29  1  0
  8 13  1  0
  8 31  1  0
  9 27  1  0
  9 28  1  0
 10 12  1  0
 10 15  2  0
 11 31  1  0
 11 33  1  0
 12 13  1  0
 12 17  1  0
 13 33  1  0
 14 24  1  0
 14 26  2  0
 16 19  1  0
 16 25  1  0
 16 34  2  3
 17 23  2  0
 19 22  2  0
 20 26  1  0
 21 24  1  0
 21 27  1  0
 22 28  1  0
 24 29  2  0
 30 31  1  0
M  END
>  <ID>  (1) 
conformer_0

$$$$
