
     RDKit          3D

 26 28  0  0  0  0  0  0  0  0999 V2000
   18.4652   51.8953   19.5041 C   0  0  0  0  0  0  0  0  0  0  0  0
   18.5630   54.7682   22.5560 N   0  0  0  0  0  0  0  0  0  0  0  0
   20.4554   51.6491   20.9870 C   0  0  0  0  0  0  0  0  0  0  0  0
   20.9034   49.1075   19.0801 C   0  0  0  0  0  0  0  0  0  0  0  0
   23.3531   47.8837   18.4714 C   0  0  0  0  0  0  0  0  0  0  0  0
   22.7889   47.8313   19.7551 C   0  0  0  0  0  0  0  0  0  0  0  0
   19.4756   54.9275   20.3806 C   0  0  0  0  0  0  0  0  0  0  0  0
   19.2984   54.1467   21.6110 C   0  0  0  0  0  0  0  0  0  0  0  0
   16.3755   56.8198   25.6354 C   0  0  0  0  0  0  0  0  0  0  0  0
   18.5178   57.3842   26.4577 C   0  0  0  0  0  0  0  0  0  0  0  0
   21.5870   48.4520   20.0608 C   0  0  0  0  0  0  0  0  0  0  0  0
   19.9008   52.8215   21.7141 C   0  0  0  0  0  0  0  0  0  0  0  0
   22.6131   48.5197   17.4826 C   0  0  0  0  0  0  0  0  0  0  0  0
   16.9484   56.4286   24.4386 C   0  0  0  0  0  0  0  0  0  0  0  0
   19.1905   53.0981   18.6589 C   0  0  0  0  0  0  0  0  0  0  0  0
   21.3770   49.1350   17.7845 C   0  0  0  0  0  0  0  0  0  0  0  0
   20.2691   54.1292   19.3167 C   0  0  0  0  0  0  0  0  0  0  0  0
   18.3095   56.4945   24.2441 C   0  0  0  0  0  0  0  0  0  0  0  0
   19.7712   56.7049   22.4527 O   0  0  0  0  0  0  0  0  0  0  0  0
   19.7255   49.7350   19.3961 N   0  0  0  0  0  0  0  0  0  0  0  0
   24.6181   47.3239   18.1201 O   0  0  0  0  0  0  0  0  0  0  0  0
   24.8936   46.0152   18.7360 C   0  0  0  0  0  0  0  0  0  0  0  0
   17.1838   57.2771   26.6492 C   0  0  0  0  0  0  0  0  0  0  0  0
   18.9176   56.0018   23.0339 C   0  0  0  0  0  0  0  0  0  0  0  0
   19.0891   57.0226   25.2618 C   0  0  0  0  0  0  0  0  0  0  0  0
   19.5579   50.9139   20.0981 C   0  0  0  0  0  0  0  0  0  0  0  0
  1 15  1  0
  1 26  1  0
  2  8  1  0
  2 24  1  0
  3 12  1  0
  3 26  1  0
  4 11  2  0
  4 16  1  0
  4 20  1  0
  5  6  2  0
  5 13  1  0
  5 21  1  0
  6 11  1  0
  7  8  1  0
  7 17  1  0
  8 12  1  0
  9 14  2  0
  9 23  1  0
 10 23  2  0
 10 25  1  0
 13 16  2  0
 14 18  1  0
 15 17  1  0
 18 24  1  0
 18 25  2  0
 19 24  2  0
 20 26  1  0
 21 22  1  0
M  END
>  <ID>  (1) 
conformer_0

$$$$
