
     RDKit          3D

 36 43  0  0  0  0  0  0  0  0999 V2000
   17.1751   53.0956   20.6682 O   0  0  0  0  0  0  0  0  0  0  0  0
   16.4393   55.1905   22.0242 C   0  0  0  0  0  0  0  0  0  0  0  0
   21.7299   50.1154   20.0188 C   0  0  0  0  0  0  0  0  0  0  0  0
   24.1143   47.1368   18.4038 C   0  0  0  0  0  0  0  0  0  0  0  0
   23.8940   49.0442   19.7755 C   0  0  0  0  0  0  0  0  0  0  0  0
   20.0724   52.2086   20.6918 C   0  0  0  0  0  0  0  0  0  0  0  0
   19.8386   51.4892   19.4692 C   0  0  0  0  0  0  0  0  0  0  0  0
   17.9774   56.4558   24.2174 C   0  0  0  0  0  0  0  0  0  0  0  0
   20.2123   53.7798   22.4610 O   0  0  0  0  0  0  0  0  0  0  0  0
   16.8316   57.3432   26.0071 O   0  0  0  0  0  0  0  0  0  0  0  0
   17.8570   54.9432   21.9299 C   0  0  0  0  0  0  0  0  0  0  0  0
   19.2018   57.1847   26.1769 O   0  0  0  0  0  0  0  0  0  0  0  0
   20.4308   54.6562   19.1083 C   0  0  0  0  0  0  0  0  0  0  0  0
   15.8785   56.4901   25.3137 C   0  0  0  0  0  0  0  0  0  0  0  0
   18.1701   53.7135   21.2116 C   0  0  0  0  0  0  0  0  0  0  0  0
   22.6108   49.2275   19.3743 C   0  0  0  0  0  0  0  0  0  0  0  0
   19.8944   55.2088   20.5834 C   0  0  0  0  0  0  0  0  0  0  0  0
   19.6405   53.5897   21.1912 C   0  0  0  0  0  0  0  0  0  0  0  0
   18.8244   51.7113   18.5115 C   0  0  0  0  0  0  0  0  0  0  0  0
   24.6770   48.0310   19.2448 C   0  0  0  0  0  0  0  0  0  0  0  0
   21.1492   56.2683   20.4999 C   0  0  0  0  0  0  0  0  0  0  0  0
   24.9939   45.6164   18.1717 Cl  0  0  0  0  0  0  0  0  0  0  0  0
   16.6792   55.8307   24.2976 C   0  0  0  0  0  0  0  0  0  0  0  0
   18.7131   50.9542   17.3416 C   0  0  0  0  0  0  0  0  0  0  0  0
   15.9485   54.9635   23.4071 C   0  0  0  0  0  0  0  0  0  0  0  0
   20.7124   49.5891   17.9465 C   0  0  0  0  0  0  0  0  0  0  0  0
   18.9942   55.8966   21.7611 C   0  0  0  0  0  0  0  0  0  0  0  0
   22.0436   48.5838   18.1998 C   0  0  0  0  0  0  0  0  0  0  0  0
   19.1342   56.4753   23.2715 C   0  0  0  0  0  0  0  0  0  0  0  0
   21.7547   50.5675   21.2939 C   0  0  0  0  0  0  0  0  0  0  0  0
   22.8880   47.3906   17.8189 C   0  0  0  0  0  0  0  0  0  0  0  0
   18.1511   57.1299   25.5201 C   0  0  0  0  0  0  0  0  0  0  0  0
   20.8996   51.5670   21.6274 C   0  0  0  0  0  0  0  0  0  0  0  0
   19.6412   49.8966   17.0496 C   0  0  0  0  0  0  0  0  0  0  0  0
   21.4491   55.7783   18.8895 C   0  0  0  0  0  0  0  0  0  0  0  0
   20.6932   50.4437   19.1335 C   0  0  0  0  0  0  0  0  0  0  0  0
  1 15  1  0
  2 11  1  0
  2 25  1  0
  3 16  1  0
  3 30  2  0
  3 36  1  0
  4 20  1  0
  4 22  1  0
  4 31  2  0
  5 16  1  0
  5 20  2  0
  6  7  1  0
  6 18  1  0
  6 33  1  0
  7 19  1  0
  7 36  2  0
  8 23  1  0
  8 29  2  0
  8 32  1  0
  9 18  1  0
 10 14  1  0
 10 32  1  0
 11 15  1  0
 11 27  1  0
 12 32  2  0
 13 17  1  0
 13 35  1  0
 14 23  1  0
 15 18  1  0
 16 28  1  0
 17 18  1  0
 17 21  1  0
 17 27  1  0
 19 24  2  0
 21 35  1  0
 23 25  1  0
 24 34  1  0
 26 28  1  0
 26 34  2  0
 26 36  1  0
 27 29  1  0
 28 31  1  0
 30 33  1  0
M  END
>  <ID>  (1) 
conformer_0

$$$$
