
     RDKit          3D

 34 38  0  0  0  0  0  0  0  0999 V2000
   22.2755   48.0510   18.8417 C   0  0  0  0  0  0  0  0  0  0  0  0
   22.6721   46.8505   18.2822 C   0  0  0  0  0  0  0  0  0  0  0  0
   19.7996   50.1521   17.7222 C   0  0  0  0  0  0  0  0  0  0  0  0
   20.2976   55.1879   21.8400 C   0  0  0  0  0  0  0  0  0  0  0  0
   19.1379   50.6450   15.9274 C   0  0  0  0  0  0  0  0  0  0  0  0
   21.3734   50.1982   21.1025 F   0  0  0  0  0  0  0  0  0  0  0  0
   18.2104   54.2527   22.3772 C   0  0  0  0  0  0  0  0  0  0  0  0
   20.1932   52.2215   22.1526 F   0  0  0  0  0  0  0  0  0  0  0  0
   17.6987   57.3611   26.5939 O   0  0  0  0  0  0  0  0  0  0  0  0
   17.7316   57.1011   25.3761 C   0  0  0  0  0  0  0  0  0  0  0  0
   24.6273   48.6605   19.0225 C   0  0  0  0  0  0  0  0  0  0  0  0
   20.4786   49.6897   18.9072 C   0  0  0  0  0  0  0  0  0  0  0  0
   20.8778   48.3085   19.0531 C   0  0  0  0  0  0  0  0  0  0  0  0
   18.9463   53.3840   18.7163 C   0  0  0  0  0  0  0  0  0  0  0  0
   19.2808   46.6650   18.4586 O   0  0  0  0  0  0  0  0  0  0  0  0
   18.9331   56.2406   23.4982 C   0  0  0  0  0  0  0  0  0  0  0  0
   20.0513   56.2317   22.6903 N   0  0  0  0  0  0  0  0  0  0  0  0
   19.6316   49.2876   16.6957 O   0  0  0  0  0  0  0  0  0  0  0  0
   17.9250   55.3307   23.2227 C   0  0  0  0  0  0  0  0  0  0  0  0
   18.8615   57.0739   24.5620 N   0  0  0  0  0  0  0  0  0  0  0  0
   19.5385   52.7174   19.8210 C   0  0  0  0  0  0  0  0  0  0  0  0
   16.4523   56.7380   24.6636 C   0  0  0  0  0  0  0  0  0  0  0  0
   19.3986   54.1581   21.7245 C   0  0  0  0  0  0  0  0  0  0  0  0
   24.9997   47.4514   18.4729 C   0  0  0  0  0  0  0  0  0  0  0  0
   24.0208   46.5456   18.0755 C   0  0  0  0  0  0  0  0  0  0  0  0
   18.9287   47.8620   20.3090 O   0  0  0  0  0  0  0  0  0  0  0  0
   20.6461   50.5461   20.0019 C   0  0  0  0  0  0  0  0  0  0  0  0
   16.6075   55.5257   23.8244 C   0  0  0  0  0  0  0  0  0  0  0  0
   19.3007   51.2610   17.2861 C   0  0  0  0  0  0  0  0  0  0  0  0
   18.8557   52.5440   17.5016 C   0  0  0  0  0  0  0  0  0  0  0  0
   20.0295   51.7312   19.8591 C   0  0  0  0  0  0  0  0  0  0  0  0
   23.2947   48.9549   19.1708 C   0  0  0  0  0  0  0  0  0  0  0  0
   19.7129   47.4515   19.3416 C   0  0  0  0  0  0  0  0  0  0  0  0
   19.7829   52.8895   21.0535 C   0  0  0  0  0  0  0  0  0  0  0  0
  1  2  2  0
  1 13  1  0
  1 32  1  0
  2 25  1  0
  3 12  2  0
  3 18  1  0
  3 29  1  0
  4 17  2  0
  4 23  1  0
  5 18  1  0
  5 29  1  0
  6 27  1  0
  7 19  1  0
  7 23  2  0
  8 34  1  0
  9 10  2  0
 10 20  1  0
 10 22  1  0
 11 24  1  0
 11 32  2  0
 12 13  1  0
 12 27  1  0
 13 33  1  0
 14 21  1  0
 14 30  1  0
 15 33  2  0
 16 17  1  0
 16 19  1  0
 16 20  2  0
 19 28  2  0
 21 31  2  0
 21 34  1  0
 22 28  1  0
 23 34  1  0
 24 25  2  0
 26 33  1  0
 27 31  2  0
 29 30  2  0
M  END
>  <ID>  (1) 
conformer_0

$$$$
