
     RDKit          3D

 44 48  0  0  0  0  0  0  0  0999 V2000
   17.2144   56.8507   25.6988 C   0  0  0  0  0  0  0  0  0  0  0  0
   19.6126   53.3646   15.1586 C   0  0  0  0  0  0  0  0  0  0  0  0
   18.5695   48.6821   20.1149 S   0  0  0  0  0  0  0  0  0  0  0  0
   21.0747   48.5078   19.0578 C   0  0  0  0  0  0  0  0  0  0  0  0
   18.4382   55.6003   22.5127 C   0  0  0  0  0  0  0  0  0  0  0  0
   20.7037   52.5969   21.8182 C   0  0  0  0  0  0  0  0  0  0  0  0
   26.0464   45.4249   18.7636 Cl  0  0  0  0  0  0  0  0  0  0  0  0
   23.4496   48.9210   19.4263 C   0  0  0  0  0  0  0  0  0  0  0  0
   17.4822   52.9935   19.9709 C   0  0  0  0  0  0  0  0  0  0  0  0
   19.4279   49.8391   20.1489 N   0  0  0  0  0  0  0  0  0  0  0  0
   21.7919   50.3580   20.4817 C   0  0  0  0  0  0  0  0  0  0  0  0
   18.6714   47.8198   18.9116 C   0  0  0  0  0  0  0  0  0  0  0  0
   25.5500   47.7209   19.1188 C   0  0  0  0  0  0  0  0  0  0  0  0
   17.1751   55.0506   22.5317 C   0  0  0  0  0  0  0  0  0  0  0  0
   19.4575   50.7646   14.9486 C   0  0  0  0  0  0  0  0  0  0  0  0
   19.4924   53.5095   13.8762 C   0  0  0  0  0  0  0  0  0  0  0  0
   20.2042   55.1426   17.0163 C   0  0  0  0  0  0  0  0  0  0  0  0
   22.7095   46.8826   18.3101 C   0  0  0  0  0  0  0  0  0  0  0  0
   20.4130   56.3060   21.5472 O   0  0  0  0  0  0  0  0  0  0  0  0
   24.7579   48.6933   19.3304 C   0  0  0  0  0  0  0  0  0  0  0  0
   20.7666   49.6037   19.9067 C   0  0  0  0  0  0  0  0  0  0  0  0
   19.1661   50.4264   17.0201 C   0  0  0  0  0  0  0  0  0  0  0  0
   18.3297   57.3862   26.4967 C   0  0  0  0  0  0  0  0  0  0  0  0
   20.0487   55.7252   14.7471 C   0  0  0  0  0  0  0  0  0  0  0  0
   19.2899   51.7306   16.9803 N   0  0  0  0  0  0  0  0  0  0  0  0
   18.7859   53.2843   20.6188 C   0  0  0  0  0  0  0  0  0  0  0  0
   19.8601   54.6570   15.7211 C   0  0  0  0  0  0  0  0  0  0  0  0
   15.8158   57.1712   26.0866 C   0  0  0  0  0  0  0  0  0  0  0  0
   20.0283   47.8198   18.2837 C   0  0  0  0  0  0  0  0  0  0  0  0
   19.6017   52.1761   20.9953 C   0  0  0  0  0  0  0  0  0  0  0  0
   25.1106   46.4830   18.6684 C   0  0  0  0  0  0  0  0  0  0  0  0
   23.8501   46.2141   18.2280 C   0  0  0  0  0  0  0  0  0  0  0  0
   22.4520   48.0584   18.9058 C   0  0  0  0  0  0  0  0  0  0  0  0
   19.4154   54.4935   20.5095 N   0  0  0  0  0  0  0  0  0  0  0  0
   23.0855   50.1877   20.1024 C   0  0  0  0  0  0  0  0  0  0  0  0
   19.4334   51.9864   15.7303 C   0  0  0  0  0  0  0  0  0  0  0  0
   19.5660   54.7283   18.1726 O   0  0  0  0  0  0  0  0  0  0  0  0
   19.3469   49.7790   15.8226 N   0  0  0  0  0  0  0  0  0  0  0  0
   17.4513   56.2460   24.4313 C   0  0  0  0  0  0  0  0  0  0  0  0
   20.3498   54.6505   19.3892 C   0  0  0  0  0  0  0  0  0  0  0  0
   16.5529   55.4398   23.7138 C   0  0  0  0  0  0  0  0  0  0  0  0
   18.5694   56.3453   23.6528 C   0  0  0  0  0  0  0  0  0  0  0  0
   19.0396   50.8622   20.9674 C   0  0  0  0  0  0  0  0  0  0  0  0
   19.4424   55.5228   21.4930 C   0  0  0  0  0  0  0  0  0  0  0  0
  1 23  1  0
  1 28  1  0
  1 39  1  0
  2 16  2  0
  2 27  1  0
  2 36  1  0
  3 10  1  0
  3 12  1  0
  4 21  1  0
  4 29  1  0
  4 33  1  0
  5 14  1  0
  5 42  1  0
  5 44  1  0
  6 30  1  0
  7 31  1  0
  8 20  1  0
  8 33  2  0
  8 35  1  0
  9 26  1  0
 10 21  1  0
 10 43  1  0
 11 21  2  0
 11 35  1  0
 12 29  1  0
 13 20  2  0
 13 31  1  0
 14 41  1  0
 15 36  1  0
 15 38  1  0
 17 27  1  0
 17 37  1  0
 18 32  2  0
 18 33  1  0
 19 44  2  0
 22 25  1  0
 22 38  1  0
 24 27  1  0
 25 36  1  0
 26 30  1  0
 26 34  1  0
 30 43  1  0
 31 32  1  0
 34 40  1  0
 34 44  1  0
 37 40  1  0
 39 41  1  0
 39 42  1  0
M  END
>  <ID>  (1) 
conformer_0

$$$$
