
     RDKit          3D

 42 45  0  0  0  0  0  0  0  0999 V2000
   22.9620   55.6574   14.9710 N   0  0  0  0  0  0  0  0  0  0  0  0
   24.3477   46.1981   18.8292 C   0  0  0  0  0  0  0  0  0  0  0  0
   17.1959   57.0093   26.1537 C   0  0  0  0  0  0  0  0  0  0  0  0
   16.6944   53.3894   18.8044 O   0  0  0  0  0  0  0  0  0  0  0  0
   18.4895   54.9806   20.8785 N   0  0  0  0  0  0  0  0  0  0  0  0
   19.7078   55.6964   22.8789 N   0  0  0  0  0  0  0  0  0  0  0  0
   25.2054   47.2182   18.6159 C   0  0  0  0  0  0  0  0  0  0  0  0
   19.5177   51.5814   20.3915 C   0  0  0  0  0  0  0  0  0  0  0  0
   20.6328   49.3412   19.6706 C   0  0  0  0  0  0  0  0  0  0  0  0
   20.6765   48.2002   16.8707 F   0  0  0  0  0  0  0  0  0  0  0  0
   22.9852   46.4450   19.0206 C   0  0  0  0  0  0  0  0  0  0  0  0
   19.3527   49.7929   19.2601 C   0  0  0  0  0  0  0  0  0  0  0  0
   24.2989   55.4952   15.5525 C   0  0  0  0  0  0  0  0  0  0  0  0
   16.4731   55.7507   22.8368 C   0  0  0  0  0  0  0  0  0  0  0  0
   21.1021   49.8915   20.8628 C   0  0  0  0  0  0  0  0  0  0  0  0
   19.2622   52.8996   20.8411 C   0  0  0  0  0  0  0  0  0  0  0  0
   18.2184   57.1808   27.1768 C   0  0  0  0  0  0  0  0  0  0  0  0
   19.7892   53.4894   21.9486 C   0  0  0  0  0  0  0  0  0  0  0  0
   21.9161   55.5156   17.2117 C   0  0  0  0  0  0  0  0  0  0  0  0
   24.7709   48.5054   18.6389 C   0  0  0  0  0  0  0  0  0  0  0  0
   19.3077   54.7847   21.9993 C   0  0  0  0  0  0  0  0  0  0  0  0
   21.8424   55.4639   15.8054 C   0  0  0  0  0  0  0  0  0  0  0  0
   20.6334   55.1715   15.2196 C   0  0  0  0  0  0  0  0  0  0  0  0
   19.5856   54.9068   17.3487 C   0  0  0  0  0  0  0  0  0  0  0  0
   18.4871   53.8443   20.1537 C   0  0  0  0  0  0  0  0  0  0  0  0
   20.3954   47.5707   17.9832 C   0  0  0  0  0  0  0  0  0  0  0  0
   19.4948   54.8852   15.9728 C   0  0  0  0  0  0  0  0  0  0  0  0
   20.8025   55.1884   17.9949 C   0  0  0  0  0  0  0  0  0  0  0  0
   20.3674   50.9798   21.1787 N   0  0  0  0  0  0  0  0  0  0  0  0
   18.9643   51.0404   19.3103 N   0  0  0  0  0  0  0  0  0  0  0  0
   17.7917   53.8538   18.9088 C   0  0  0  0  0  0  0  0  0  0  0  0
   23.0894   55.5169   13.5344 C   0  0  0  0  0  0  0  0  0  0  0  0
   22.5272   47.7613   19.0569 C   0  0  0  0  0  0  0  0  0  0  0  0
   19.0306   56.3547   23.8380 C   0  0  0  0  0  0  0  0  0  0  0  0
   16.3395   58.0413   25.5994 C   0  0  0  0  0  0  0  0  0  0  0  0
   21.1086   48.0296   19.2272 C   0  0  0  0  0  0  0  0  0  0  0  0
   23.4312   48.7793   18.8490 C   0  0  0  0  0  0  0  0  0  0  0  0
   18.3823   54.6440   17.9747 N   0  0  0  0  0  0  0  0  0  0  0  0
   17.1286   55.7256   25.3365 C   0  0  0  0  0  0  0  0  0  0  0  0
   19.6913   57.1114   24.5533 O   0  0  0  0  0  0  0  0  0  0  0  0
   19.2432   46.8600   18.0993 F   0  0  0  0  0  0  0  0  0  0  0  0
   17.5523   56.0153   23.9230 C   0  0  0  0  0  0  0  0  0  0  0  0
  1 13  1  0
  1 22  1  0
  1 32  1  0
  2  7  2  0
  2 11  1  0
  3 17  1  0
  3 35  1  0
  3 39  1  0
  4 31  2  0
  5 21  2  0
  5 25  1  0
  6 21  1  0
  6 34  1  0
  7 20  1  0
  8 16  2  3
  8 29  1  0
  8 30  1  0
  9 12  1  0
  9 15  1  0
  9 36  1  0
 10 26  1  0
 11 33  2  0
 12 30  1  0
 14 42  1  0
 15 29  1  0
 16 18  1  0
 16 25  1  0
 18 21  1  0
 19 22  2  0
 19 28  1  0
 20 37  2  0
 22 23  1  0
 23 27  2  0
 24 27  1  0
 24 28  2  0
 24 38  1  0
 25 31  1  0
 26 36  1  0
 26 41  1  0
 31 38  1  0
 33 36  1  0
 33 37  1  0
 34 40  2  0
 34 42  1  0
 39 42  1  0
M  END
>  <ID>  (1) 
conformer_0

$$$$
