
     RDKit          3D

 24 26  0  0  0  0  0  0  0  0999 V2000
   18.3756   53.8700   20.7275 C   0  0  0  0  0  0  0  0  0  0  0  0
   19.3830   50.4064   20.5332 C   0  0  0  0  0  0  0  0  0  0  0  0
   23.4472   47.1060   18.1936 C   0  0  0  0  0  0  0  0  0  0  0  0
   17.8846   55.1263   22.5686 C   0  0  0  0  0  0  0  0  0  0  0  0
   19.3381   54.8262   20.8893 C   0  0  0  0  0  0  0  0  0  0  0  0
   24.8554   47.5229   18.2437 C   0  0  0  0  0  0  0  0  0  0  0  0
   18.9795   56.5506   23.9194 C   0  0  0  0  0  0  0  0  0  0  0  0
   18.5735   52.5769   20.2075 C   0  0  0  0  0  0  0  0  0  0  0  0
   22.2418   48.1290   20.1491 C   0  0  0  0  0  0  0  0  0  0  0  0
   17.4628   54.0977   21.7086 N   0  0  0  0  0  0  0  0  0  0  0  0
   17.1253   56.9675   26.2268 C   0  0  0  0  0  0  0  0  0  0  0  0
   19.1139   55.5595   22.0128 C   0  0  0  0  0  0  0  0  0  0  0  0
   22.4785   48.0915   18.7790 C   0  0  0  0  0  0  0  0  0  0  0  0
   21.2374   48.9085   20.6740 C   0  0  0  0  0  0  0  0  0  0  0  0
   19.6113   51.7854   20.8696 C   0  0  0  0  0  0  0  0  0  0  0  0
   18.0473   52.1661   19.0932 O   0  0  0  0  0  0  0  0  0  0  0  0
   21.7382   48.9478   17.9620 C   0  0  0  0  0  0  0  0  0  0  0  0
   19.7690   56.3527   22.8873 N   0  0  0  0  0  0  0  0  0  0  0  0
   20.4663   49.7042   19.8690 C   0  0  0  0  0  0  0  0  0  0  0  0
   20.7320   49.7527   18.5138 C   0  0  0  0  0  0  0  0  0  0  0  0
   17.8479   55.8513   23.7763 N   0  0  0  0  0  0  0  0  0  0  0  0
   19.2929   57.3401   24.9882 O   0  0  0  0  0  0  0  0  0  0  0  0
   20.5850   55.0536   20.1463 C   0  0  0  0  0  0  0  0  0  0  0  0
   18.3351   57.7996   25.9252 C   0  0  0  0  0  0  0  0  0  0  0  0
  1  5  1  0
  1  8  1  0
  1 10  1  0
  2 15  1  0
  2 19  1  0
  3  6  1  0
  3 13  1  0
  4 10  1  0
  4 12  2  0
  4 21  1  0
  5 12  1  0
  5 23  1  0
  7 18  2  0
  7 21  1  0
  7 22  1  0
  8 15  1  0
  8 16  1  0
  9 13  2  0
  9 14  1  0
 11 24  1  0
 12 18  1  0
 13 17  1  0
 14 19  2  0
 17 20  2  0
 19 20  1  0
 22 24  1  0
M  END
>  <ID>  (1) 
conformer_0

$$$$
