
     RDKit          3D

 44 50  0  0  0  0  0  0  0  0999 V2000
   20.2815   51.2385   20.5799 C   0  0  0  0  0  0  0  0  0  0  0  0
   20.1174   51.7485   19.2054 C   0  0  0  0  0  0  0  0  0  0  0  0
   22.5067   50.5651   20.2623 F   0  0  0  0  0  0  0  0  0  0  0  0
   19.2510   52.8510   18.8099 C   0  0  0  0  0  0  0  0  0  0  0  0
   19.9252   49.7647   13.7374 C   0  0  0  0  0  0  0  0  0  0  0  0
   19.1369   51.6764   14.8897 C   0  0  0  0  0  0  0  0  0  0  0  0
   25.1160   47.6176   18.7761 C   0  0  0  0  0  0  0  0  0  0  0  0
   17.0470   56.2390   23.2932 C   0  0  0  0  0  0  0  0  0  0  0  0
   19.1223   48.1541   16.1036 N   0  0  0  0  0  0  0  0  0  0  0  0
   19.7272   56.4699   25.7020 C   0  0  0  0  0  0  0  0  0  0  0  0
   18.0333   58.3284   26.4943 O   0  0  0  0  0  0  0  0  0  0  0  0
   19.3970   54.5593   24.4746 C   0  0  0  0  0  0  0  0  0  0  0  0
   24.0442   46.6472   19.2972 C   0  0  0  0  0  0  0  0  0  0  0  0
   17.7101   52.7686   19.1680 C   0  0  0  0  0  0  0  0  0  0  0  0
   19.1336   47.2577   17.0756 C   0  0  0  0  0  0  0  0  0  0  0  0
   21.4285   49.6346   21.9435 F   0  0  0  0  0  0  0  0  0  0  0  0
   19.9598   52.2649   21.5747 C   0  0  0  0  0  0  0  0  0  0  0  0
   17.2261   54.1648   19.7407 C   0  0  0  0  0  0  0  0  0  0  0  0
   19.5131   57.8097   26.5341 N   0  0  0  0  0  0  0  0  0  0  0  0
   19.6000   49.4092   16.2959 C   0  0  0  0  0  0  0  0  0  0  0  0
   15.8242   55.5518   25.8180 C   0  0  0  0  0  0  0  0  0  0  0  0
   19.4988   50.2995   15.0785 C   0  0  0  0  0  0  0  0  0  0  0  0
   18.5736   54.4116   22.0497 C   0  0  0  0  0  0  0  0  0  0  0  0
   20.9374   48.9274   19.8124 C   0  0  0  0  0  0  0  0  0  0  0  0
   17.9095   55.4667   24.3933 C   0  0  0  0  0  0  0  0  0  0  0  0
   20.1088   49.7295   17.5157 N   0  0  0  0  0  0  0  0  0  0  0  0
   19.3097   52.0761   13.4337 C   0  0  0  0  0  0  0  0  0  0  0  0
   17.3869   54.8435   21.0732 C   0  0  0  0  0  0  0  0  0  0  0  0
   26.2029   47.1772   18.4500 O   0  0  0  0  0  0  0  0  0  0  0  0
   17.4346   57.4567   25.8191 C   0  0  0  0  0  0  0  0  0  0  0  0
   19.5487   50.7782   12.6887 C   0  0  0  0  0  0  0  0  0  0  0  0
   21.2493   50.0789   20.6817 C   0  0  0  0  0  0  0  0  0  0  0  0
   18.4394   56.5607   25.2549 C   0  0  0  0  0  0  0  0  0  0  0  0
   21.9359   47.7702   19.9289 C   0  0  0  0  0  0  0  0  0  0  0  0
   19.3349   53.4841   21.1482 C   0  0  0  0  0  0  0  0  0  0  0  0
   16.0321   57.0829   25.4411 C   0  0  0  0  0  0  0  0  0  0  0  0
   19.7154   53.9914   19.8144 C   0  0  0  0  0  0  0  0  0  0  0  0
   24.7924   48.8753   18.9463 O   0  0  0  0  0  0  0  0  0  0  0  0
   19.7016   47.5424   18.2791 C   0  0  0  0  0  0  0  0  0  0  0  0
   16.9335   54.6213   25.2182 C   0  0  0  0  0  0  0  0  0  0  0  0
   20.1987   48.7886   18.4795 C   0  0  0  0  0  0  0  0  0  0  0  0
   15.9946   57.1481   23.8449 C   0  0  0  0  0  0  0  0  0  0  0  0
   23.3483   47.4622   20.5449 C   0  0  0  0  0  0  0  0  0  0  0  0
   19.7318   54.6161   23.0666 C   0  0  0  0  0  0  0  0  0  0  0  0
  1  2  1  0
  1 17  2  0
  1 32  1  0
  2  4  1  0
  3 32  1  0
  4 14  1  0
  4 37  1  0
  5 22  1  0
  5 31  1  0
  6 22  1  0
  6 27  1  0
  7 13  1  0
  7 29  2  0
  7 38  1  0
  8 25  1  0
  8 42  1  0
  9 15  2  0
  9 20  1  0
 10 19  1  0
 10 33  1  0
 11 19  1  0
 11 30  1  0
 12 25  1  0
 12 44  1  0
 13 43  1  0
 14 18  1  0
 15 39  1  0
 16 32  1  0
 17 35  1  0
 18 28  1  0
 20 22  1  0
 20 26  1  0
 21 36  1  0
 21 40  1  0
 23 28  1  0
 23 35  1  0
 23 44  1  0
 24 32  1  0
 24 34  1  0
 24 41  1  0
 25 33  1  0
 25 40  1  0
 26 41  2  0
 27 31  1  0
 30 33  1  0
 30 36  1  0
 34 43  1  0
 35 37  1  0
 36 42  1  0
 39 41  1  0
M  END
>  <ID>  (1) 
conformer_0

$$$$
