
     RDKit          3D

 34 38  0  0  0  0  0  0  0  0999 V2000
   21.4297   48.8784   20.3575 C   0  0  0  0  0  0  0  0  0  0  0  0
   25.1139   46.1237   18.4056 F   0  0  0  0  0  0  0  0  0  0  0  0
   20.7302   49.5890   22.5324 O   0  0  0  0  0  0  0  0  0  0  0  0
   18.9921   54.9562   22.1444 C   0  0  0  0  0  0  0  0  0  0  0  0
   19.3162   51.1678   19.5019 N   0  0  0  0  0  0  0  0  0  0  0  0
   19.4216   52.4081   16.2741 C   0  0  0  0  0  0  0  0  0  0  0  0
   18.1197   56.2273   24.0655 C   0  0  0  0  0  0  0  0  0  0  0  0
   19.7530   50.8481   18.1933 N   0  0  0  0  0  0  0  0  0  0  0  0
   23.5106   47.7913   18.8974 C   0  0  0  0  0  0  0  0  0  0  0  0
   20.4890   49.6166   21.2160 C   0  0  0  0  0  0  0  0  0  0  0  0
   24.7507   47.3760   18.1246 C   0  0  0  0  0  0  0  0  0  0  0  0
   19.3159   50.9989   16.7810 C   0  0  0  0  0  0  0  0  0  0  0  0
   19.0561   53.3666   17.3722 C   0  0  0  0  0  0  0  0  0  0  0  0
   21.5756   49.1092   18.9578 C   0  0  0  0  0  0  0  0  0  0  0  0
   23.3226   47.4191   20.2077 C   0  0  0  0  0  0  0  0  0  0  0  0
   22.2648   47.9514   20.9080 C   0  0  0  0  0  0  0  0  0  0  0  0
   22.6307   48.6223   18.2578 C   0  0  0  0  0  0  0  0  0  0  0  0
   18.2906   53.8492   21.6035 C   0  0  0  0  0  0  0  0  0  0  0  0
   19.5845   54.7221   17.1079 C   0  0  0  0  0  0  0  0  0  0  0  0
   16.0854   56.4006   25.2709 C   0  0  0  0  0  0  0  0  0  0  0  0
   25.7369   48.1737   18.5762 F   0  0  0  0  0  0  0  0  0  0  0  0
   18.5434   52.3777   19.6309 C   0  0  0  0  0  0  0  0  0  0  0  0
   18.7770   56.9706   25.0356 C   0  0  0  0  0  0  0  0  0  0  0  0
   19.5170   50.4105   20.6609 O   0  0  0  0  0  0  0  0  0  0  0  0
   20.1679   55.1511   21.3742 C   0  0  0  0  0  0  0  0  0  0  0  0
   20.1546   54.1283   20.4270 C   0  0  0  0  0  0  0  0  0  0  0  0
   18.9976   53.3647   20.5246 C   0  0  0  0  0  0  0  0  0  0  0  0
   20.6551   49.8141   18.1716 C   0  0  0  0  0  0  0  0  0  0  0  0
   18.0889   52.9054   18.3496 C   0  0  0  0  0  0  0  0  0  0  0  0
   24.5942   47.5144   16.8126 F   0  0  0  0  0  0  0  0  0  0  0  0
   16.7788   55.9358   24.1525 C   0  0  0  0  0  0  0  0  0  0  0  0
   18.0690   57.3869   26.1347 C   0  0  0  0  0  0  0  0  0  0  0  0
   18.8386   55.8178   23.0781 O   0  0  0  0  0  0  0  0  0  0  0  0
   16.7386   57.1102   26.2637 C   0  0  0  0  0  0  0  0  0  0  0  0
  1 10  1  0
  1 14  2  0
  1 16  1  0
  2 11  1  0
  3 10  2  0
  4 18  1  0
  4 25  1  0
  4 33  1  0
  5  8  1  0
  5 22  1  0
  5 24  1  0
  6 12  1  0
  6 13  1  0
  7 23  1  0
  7 31  2  0
  7 33  1  0
  8 12  1  0
  8 28  1  0
  9 11  1  0
  9 15  1  0
  9 17  2  0
 10 24  1  0
 11 21  1  0
 11 30  1  0
 13 19  1  0
 13 29  1  0
 14 17  1  0
 14 28  1  0
 15 16  2  0
 18 27  1  0
 20 31  1  0
 20 34  1  0
 22 27  1  0
 22 29  1  0
 23 32  1  0
 25 26  1  0
 26 27  1  0
 32 34  2  0
M  END
>  <ID>  (1) 
conformer_0

$$$$
