
     RDKit          3D

 36 40  0  0  0  0  0  0  0  0999 V2000
   19.9990   51.4862   21.5653 C   0  0  0  0  0  0  0  0  0  0  0  0
   23.3876   49.0681   19.7086 C   0  0  0  0  0  0  0  0  0  0  0  0
   19.1003   52.0820   16.8333 C   0  0  0  0  0  0  0  0  0  0  0  0
   24.7512   46.2797   19.7067 F   0  0  0  0  0  0  0  0  0  0  0  0
   21.0210   48.1589   18.6816 C   0  0  0  0  0  0  0  0  0  0  0  0
   19.6802   53.4530   19.1816 C   0  0  0  0  0  0  0  0  0  0  0  0
   22.2154   49.7140   20.0326 C   0  0  0  0  0  0  0  0  0  0  0  0
   19.1828   51.3743   18.0172 C   0  0  0  0  0  0  0  0  0  0  0  0
   19.8009   54.2265   20.3535 C   0  0  0  0  0  0  0  0  0  0  0  0
   19.9794   56.6391   22.8091 O   0  0  0  0  0  0  0  0  0  0  0  0
   20.1414   55.6181   20.2592 C   0  0  0  0  0  0  0  0  0  0  0  0
   18.8417   49.0440   20.6468 O   0  0  0  0  0  0  0  0  0  0  0  0
   19.6026   54.1079   17.9577 C   0  0  0  0  0  0  0  0  0  0  0  0
   25.7017   48.0329   18.8837 F   0  0  0  0  0  0  0  0  0  0  0  0
   18.9787   55.8290   22.8077 C   0  0  0  0  0  0  0  0  0  0  0  0
   19.5705   52.0155   19.1866 C   0  0  0  0  0  0  0  0  0  0  0  0
   18.5483   54.5657   22.3707 C   0  0  0  0  0  0  0  0  0  0  0  0
   24.7411   46.6217   17.5278 F   0  0  0  0  0  0  0  0  0  0  0  0
   19.2829   53.4507   16.8153 C   0  0  0  0  0  0  0  0  0  0  0  0
   19.7622   49.7665   20.0791 C   0  0  0  0  0  0  0  0  0  0  0  0
   19.3905   53.8026   21.5959 C   0  0  0  0  0  0  0  0  0  0  0  0
   18.7116   56.9436   25.1530 C   0  0  0  0  0  0  0  0  0  0  0  0
   21.4156   55.8816   19.5451 C   0  0  0  0  0  0  0  0  0  0  0  0
   22.2364   47.5569   18.2868 C   0  0  0  0  0  0  0  0  0  0  0  0
   18.0529   56.1988   24.0708 C   0  0  0  0  0  0  0  0  0  0  0  0
   17.9629   57.1015   26.4148 C   0  0  0  0  0  0  0  0  0  0  0  0
   21.0342   49.2093   19.5824 C   0  0  0  0  0  0  0  0  0  0  0  0
   18.8516   51.3600   15.5886 C   0  0  0  0  0  0  0  0  0  0  0  0
   19.8000   51.1848   20.2844 C   0  0  0  0  0  0  0  0  0  0  0  0
   16.1540   55.6493   25.5976 C   0  0  0  0  0  0  0  0  0  0  0  0
   24.6517   47.2046   18.7202 C   0  0  0  0  0  0  0  0  0  0  0  0
   16.9501   55.3012   24.3980 C   0  0  0  0  0  0  0  0  0  0  0  0
   19.8222   52.6284   22.1906 C   0  0  0  0  0  0  0  0  0  0  0  0
   23.3978   47.9614   18.9094 C   0  0  0  0  0  0  0  0  0  0  0  0
   16.4650   57.0311   26.1779 C   0  0  0  0  0  0  0  0  0  0  0  0
   19.8404   56.3264   21.4166 N   0  0  0  0  0  0  0  0  0  0  0  0
  1 29  1  0
  1 33  2  0
  2  7  2  0
  2 34  1  0
  3  8  2  0
  3 19  1  0
  3 28  1  0
  4 31  1  0
  5 24  1  0
  5 27  2  0
  6  9  1  0
  6 13  1  0
  6 16  1  0
  7 27  1  0
  8 16  1  0
  9 11  1  0
  9 21  1  0
 10 15  1  0
 10 36  1  0
 11 23  1  0
 11 36  1  0
 12 20  1  0
 13 19  2  0
 14 31  1  0
 15 17  1  0
 15 25  1  0
 16 29  2  0
 17 21  1  0
 18 31  1  0
 20 27  1  0
 20 29  1  0
 21 33  1  0
 22 25  1  0
 22 26  1  0
 24 34  2  0
 25 32  1  0
 26 35  1  0
 30 32  1  0
 30 35  1  0
 31 34  1  0
M  END
>  <ID>  (1) 
conformer_0

$$$$
