
     RDKit          3D

 28 29  0  0  0  0  0  0  0  0999 V2000
   20.8803   55.3195   19.3293 O   0  0  0  0  0  0  0  0  0  0  0  0
   20.0080   51.7491   19.6917 C   0  0  0  0  0  0  0  0  0  0  0  0
   18.8042   56.3504   23.7028 C   0  0  0  0  0  0  0  0  0  0  0  0
   25.2030   47.9991   18.4824 C   0  0  0  0  0  0  0  0  0  0  0  0
   22.7705   47.8067   18.6430 C   0  0  0  0  0  0  0  0  0  0  0  0
   16.8368   55.1587   23.6936 C   0  0  0  0  0  0  0  0  0  0  0  0
   19.9960   54.1205   21.1196 C   0  0  0  0  0  0  0  0  0  0  0  0
   20.6189   49.3858   19.8092 C   0  0  0  0  0  0  0  0  0  0  0  0
   19.8254   51.7593   21.0806 C   0  0  0  0  0  0  0  0  0  0  0  0
   21.5201   55.4716   18.0971 C   0  0  0  0  0  0  0  0  0  0  0  0
   18.0685   57.1475   26.5157 C   0  0  0  0  0  0  0  0  0  0  0  0
   19.8725   55.4047   21.7355 C   0  0  0  0  0  0  0  0  0  0  0  0
   19.8901   50.4206   18.9723 C   0  0  0  0  0  0  0  0  0  0  0  0
   18.7912   55.4460   22.6501 C   0  0  0  0  0  0  0  0  0  0  0  0
   24.4021   45.8762   18.8218 C   0  0  0  0  0  0  0  0  0  0  0  0
   19.7799   52.9246   21.7779 C   0  0  0  0  0  0  0  0  0  0  0  0
   17.2123   56.8555   25.4217 N   0  0  0  0  0  0  0  0  0  0  0  0
   20.3634   54.1248   19.7882 C   0  0  0  0  0  0  0  0  0  0  0  0
   15.8571   57.3904   25.5665 C   0  0  0  0  0  0  0  0  0  0  0  0
   19.7597   57.1045   23.9951 O   0  0  0  0  0  0  0  0  0  0  0  0
   22.1629   48.6831   17.6189 C   0  0  0  0  0  0  0  0  0  0  0  0
   20.2761   52.9444   19.0556 C   0  0  0  0  0  0  0  0  0  0  0  0
   20.5274   55.1134   16.8907 C   0  0  0  0  0  0  0  0  0  0  0  0
   22.0206   47.3352   19.7151 O   0  0  0  0  0  0  0  0  0  0  0  0
   17.5288   56.1777   24.3511 C   0  0  0  0  0  0  0  0  0  0  0  0
   20.6303   47.8983   19.6970 C   0  0  0  0  0  0  0  0  0  0  0  0
   17.6628   54.7069   22.6604 N   0  0  0  0  0  0  0  0  0  0  0  0
   24.0243   47.1410   18.1861 C   0  0  0  0  0  0  0  0  0  0  0  0
  1 10  1  0
  1 18  1  0
  2  9  1  0
  2 13  1  0
  2 22  2  0
  3 14  1  0
  3 20  2  0
  3 25  1  0
  4 28  1  0
  5 21  1  0
  5 24  1  0
  5 28  1  0
  6 25  1  0
  6 27  1  0
  7 12  1  0
  7 16  1  0
  7 18  1  0
  8 13  1  0
  8 26  1  0
  9 16  2  0
 10 23  1  0
 11 17  1  0
 12 14  1  0
 14 27  1  0
 15 28  1  0
 17 19  1  0
 17 25  1  0
 18 22  1  0
 24 26  1  0
M  END
>  <ID>  (1) 
conformer_0

$$$$
