
     RDKit          3D

 30 33  0  0  0  0  0  0  0  0999 V2000
   17.9720   54.6296   21.9360 C   0  0  0  0  0  0  0  0  0  0  0  0
   20.7895   50.7809   20.7001 N   0  0  0  0  0  0  0  0  0  0  0  0
   17.1560   56.7553   25.0538 C   0  0  0  0  0  0  0  0  0  0  0  0
   26.9612   47.7201   18.9793 F   0  0  0  0  0  0  0  0  0  0  0  0
   22.9323   47.8969   18.6243 C   0  0  0  0  0  0  0  0  0  0  0  0
   21.2225   50.9345   22.0741 C   0  0  0  0  0  0  0  0  0  0  0  0
   19.2266   52.5764   20.4551 C   0  0  0  0  0  0  0  0  0  0  0  0
   22.8885   49.7874   20.0955 C   0  0  0  0  0  0  0  0  0  0  0  0
   20.8376   48.6125   19.4998 C   0  0  0  0  0  0  0  0  0  0  0  0
   18.6821   56.2456   23.5710 N   0  0  0  0  0  0  0  0  0  0  0  0
   21.5597   47.8079   18.6820 C   0  0  0  0  0  0  0  0  0  0  0  0
   25.0035   48.8714   19.4195 C   0  0  0  0  0  0  0  0  0  0  0  0
   18.7084   48.6825   20.8129 O   0  0  0  0  0  0  0  0  0  0  0  0
   19.7158   53.0404   21.6222 C   0  0  0  0  0  0  0  0  0  0  0  0
   19.9326   51.4707   19.8138 C   0  0  0  0  0  0  0  0  0  0  0  0
   19.7802   51.2876   18.5400 O   0  0  0  0  0  0  0  0  0  0  0  0
   23.6106   48.8609   19.3802 C   0  0  0  0  0  0  0  0  0  0  0  0
   18.0352   53.2033   19.9328 C   0  0  0  0  0  0  0  0  0  0  0  0
   23.6571   46.9668   17.8753 C   0  0  0  0  0  0  0  0  0  0  0  0
   19.1698   54.0168   22.2408 C   0  0  0  0  0  0  0  0  0  0  0  0
   25.6786   47.8844   18.7544 C   0  0  0  0  0  0  0  0  0  0  0  0
   19.4088   48.1951   19.8162 C   0  0  0  0  0  0  0  0  0  0  0  0
   18.4294   56.9031   24.7031 N   0  0  0  0  0  0  0  0  0  0  0  0
   18.8364   47.2650   19.1343 O   0  0  0  0  0  0  0  0  0  0  0  0
   17.3881   54.2460   20.6910 C   0  0  0  0  0  0  0  0  0  0  0  0
   17.6035   55.5868   23.0126 C   0  0  0  0  0  0  0  0  0  0  0  0
   16.5337   55.9927   23.9600 C   0  0  0  0  0  0  0  0  0  0  0  0
   21.5068   49.7128   20.0955 C   0  0  0  0  0  0  0  0  0  0  0  0
   16.6051   57.1866   26.2573 N   0  0  0  0  0  0  0  0  0  0  0  0
   25.0030   47.0004   17.9206 C   0  0  0  0  0  0  0  0  0  0  0  0
  1 20  2  0
  1 25  1  0
  1 26  1  0
  2  6  1  0
  2 15  1  0
  2 28  1  0
  3 23  1  0
  3 27  1  0
  3 29  2  0
  4 21  1  0
  5 11  2  0
  5 17  1  0
  5 19  1  0
  7 14  2  0
  7 15  1  0
  7 18  1  0
  8 17  2  0
  8 28  1  0
  9 11  1  0
  9 22  1  0
  9 28  2  0
 10 23  1  0
 10 26  2  0
 12 17  1  0
 12 21  2  0
 13 22  2  0
 14 20  1  0
 15 16  2  0
 18 25  2  0
 19 30  2  0
 21 30  1  0
 22 24  1  0
 26 27  1  0
M  END
>  <ID>  (1) 
conformer_0

$$$$
