
     RDKit          3D

 36 40  0  0  0  0  0  0  0  0999 V2000
   24.5349   46.1997   19.7633 C   0  0  0  0  0  0  0  0  0  0  0  0
   17.8181   54.1144   22.1508 C   0  0  0  0  0  0  0  0  0  0  0  0
   17.0305   56.5218   25.6436 C   0  0  0  0  0  0  0  0  0  0  0  0
   21.6293   48.4356   20.2548 C   0  0  0  0  0  0  0  0  0  0  0  0
   20.3891   54.9393   18.4797 O   0  0  0  0  0  0  0  0  0  0  0  0
   23.2482   46.6428   20.0912 C   0  0  0  0  0  0  0  0  0  0  0  0
   22.7928   47.8693   19.6394 C   0  0  0  0  0  0  0  0  0  0  0  0
   19.7301   50.2944   16.1246 O   0  0  0  0  0  0  0  0  0  0  0  0
   16.8265   57.1315   27.0314 C   0  0  0  0  0  0  0  0  0  0  0  0
   18.9383   53.7549   19.9891 C   0  0  0  0  0  0  0  0  0  0  0  0
   20.0081   50.4163   17.4490 C   0  0  0  0  0  0  0  0  0  0  0  0
   18.2177   56.7622   24.8201 C   0  0  0  0  0  0  0  0  0  0  0  0
   16.4335   54.5970   24.1005 C   0  0  0  0  0  0  0  0  0  0  0  0
   19.4195   52.8838   17.6753 C   0  0  0  0  0  0  0  0  0  0  0  0
   23.5392   48.5518   18.6684 C   0  0  0  0  0  0  0  0  0  0  0  0
   25.3286   46.9609   18.9544 C   0  0  0  0  0  0  0  0  0  0  0  0
   19.7446   51.4981   19.5926 C   0  0  0  0  0  0  0  0  0  0  0  0
   18.7965   54.5064   21.2445 C   0  0  0  0  0  0  0  0  0  0  0  0
   20.8622   49.3827   19.4657 C   0  0  0  0  0  0  0  0  0  0  0  0
   20.5926   49.3195   18.1083 C   0  0  0  0  0  0  0  0  0  0  0  0
   19.1591   52.4104   20.4875 C   0  0  0  0  0  0  0  0  0  0  0  0
   17.6008   54.8823   23.2875 C   0  0  0  0  0  0  0  0  0  0  0  0
   19.7206   51.5978   18.1853 C   0  0  0  0  0  0  0  0  0  0  0  0
   19.3313   54.0210   18.6363 C   0  0  0  0  0  0  0  0  0  0  0  0
   19.5523   48.9456   15.6506 C   0  0  0  0  0  0  0  0  0  0  0  0
   21.5490   48.3095   21.5415 O   0  0  0  0  0  0  0  0  0  0  0  0
   20.2839   50.4140   21.5465 F   0  0  0  0  0  0  0  0  0  0  0  0
   18.4210   55.9634   23.6221 C   0  0  0  0  0  0  0  0  0  0  0  0
   19.6099   55.5760   21.5619 C   0  0  0  0  0  0  0  0  0  0  0  0
   19.1083   57.5584   25.2139 O   0  0  0  0  0  0  0  0  0  0  0  0
   26.5945   46.6318   18.7725 F   0  0  0  0  0  0  0  0  0  0  0  0
   19.3426   53.1304   16.4284 O   0  0  0  0  0  0  0  0  0  0  0  0
   20.3126   50.4124   20.2230 C   0  0  0  0  0  0  0  0  0  0  0  0
   19.4306   56.2799   22.7338 C   0  0  0  0  0  0  0  0  0  0  0  0
   24.8030   48.0786   18.3104 C   0  0  0  0  0  0  0  0  0  0  0  0
   16.2156   55.3389   25.2828 C   0  0  0  0  0  0  0  0  0  0  0  0
  1  6  2  0
  1 16  1  0
  2 18  2  0
  2 22  1  0
  3  9  1  0
  3 12  1  0
  3 36  1  0
  4  7  1  0
  4 19  1  0
  4 26  1  0
  5 24  1  0
  6  7  1  0
  7 15  2  0
  8 11  1  0
  8 25  1  0
 10 18  1  0
 10 21  2  0
 10 24  1  0
 11 20  2  0
 11 23  1  0
 12 28  1  0
 12 30  2  0
 13 22  1  0
 13 36  2  0
 14 23  1  0
 14 24  1  0
 14 32  2  0
 15 35  1  0
 16 31  1  0
 16 35  2  0
 17 21  1  0
 17 23  1  0
 17 33  2  0
 18 29  1  0
 19 20  1  0
 19 33  1  0
 22 28  2  0
 27 33  1  0
 28 34  1  0
 29 34  2  0
M  END
>  <ID>  (1) 
conformer_0

$$$$
