
     RDKit          3D

 42 50  0  0  0  0  0  0  0  0999 V2000
   15.7399   55.3424   22.7045 C   0  0  0  0  0  0  0  0  0  0  0  0
   20.8195   55.5234   18.1833 C   0  0  0  0  0  0  0  0  0  0  0  0
   22.1864   47.4628   18.7191 C   0  0  0  0  0  0  0  0  0  0  0  0
   16.3008   56.9300   26.7888 C   0  0  0  0  0  0  0  0  0  0  0  0
   20.1556   55.3536   22.3978 C   0  0  0  0  0  0  0  0  0  0  0  0
   24.4661   48.3767   18.8833 C   0  0  0  0  0  0  0  0  0  0  0  0
   17.0465   57.2634   25.5509 C   0  0  0  0  0  0  0  0  0  0  0  0
   19.8923   55.4876   16.8847 C   0  0  0  0  0  0  0  0  0  0  0  0
   19.6597   50.0553   17.8680 C   0  0  0  0  0  0  0  0  0  0  0  0
   19.3647   53.5849   18.2593 C   0  0  0  0  0  0  0  0  0  0  0  0
   18.8744   51.8996   16.2483 C   0  0  0  0  0  0  0  0  0  0  0  0
   20.4902   54.2245   18.9711 C   0  0  0  0  0  0  0  0  0  0  0  0
   19.7887   50.1821   20.0269 C   0  0  0  0  0  0  0  0  0  0  0  0
   18.7098   55.4032   22.6679 C   0  0  0  0  0  0  0  0  0  0  0  0
   22.7974   48.9972   20.6677 C   0  0  0  0  0  0  0  0  0  0  0  0
   24.9193   46.9392   18.4558 C   0  0  0  0  0  0  0  0  0  0  0  0
   23.1401   48.1511   19.5589 C   0  0  0  0  0  0  0  0  0  0  0  0
   20.2310   54.1854   20.4497 C   0  0  0  0  0  0  0  0  0  0  0  0
   20.3495   55.5377   21.0419 O   0  0  0  0  0  0  0  0  0  0  0  0
   22.8672   46.6978   19.7866 C   0  0  0  0  0  0  0  0  0  0  0  0
   20.6204   49.5317   18.9714 C   0  0  0  0  0  0  0  0  0  0  0  0
   18.1619   57.7940   26.2714 C   0  0  0  0  0  0  0  0  0  0  0  0
   19.0864   52.2448   18.7802 C   0  0  0  0  0  0  0  0  0  0  0  0
   19.1669   51.3457   17.5864 C   0  0  0  0  0  0  0  0  0  0  0  0
   19.7390   49.2186   16.6453 C   0  0  0  0  0  0  0  0  0  0  0  0
   16.0233   56.0476   23.7678 C   0  0  0  0  0  0  0  0  0  0  0  0
   24.1720   45.9878   19.3612 C   0  0  0  0  0  0  0  0  0  0  0  0
   17.8456   52.1850   19.3812 O   0  0  0  0  0  0  0  0  0  0  0  0
   17.3932   57.7121   27.6399 C   0  0  0  0  0  0  0  0  0  0  0  0
   21.3387   52.0456   20.6182 C   0  0  0  0  0  0  0  0  0  0  0  0
   20.2059   47.9351   17.1561 C   0  0  0  0  0  0  0  0  0  0  0  0
   20.1377   51.7232   19.7646 C   0  0  0  0  0  0  0  0  0  0  0  0
   17.8419   54.7864   21.8026 C   0  0  0  0  0  0  0  0  0  0  0  0
   18.4135   56.1496   23.7763 C   0  0  0  0  0  0  0  0  0  0  0  0
   20.9739   55.2811   23.3169 O   0  0  0  0  0  0  0  0  0  0  0  0
   20.8800   48.1326   18.4596 C   0  0  0  0  0  0  0  0  0  0  0  0
   18.8049   54.4457   17.1840 C   0  0  0  0  0  0  0  0  0  0  0  0
   16.4765   54.7172   21.7321 C   0  0  0  0  0  0  0  0  0  0  0  0
   17.1843   56.4789   24.3494 C   0  0  0  0  0  0  0  0  0  0  0  0
   21.6284   50.8685   21.4917 C   0  0  0  0  0  0  0  0  0  0  0  0
   21.3680   53.4104   21.1714 C   0  0  0  0  0  0  0  0  0  0  0  0
   21.3797   49.6998   20.3153 C   0  0  0  0  0  0  0  0  0  0  0  0
  1 26  2  0
  1 38  1  0
  2  8  1  0
  2 12  1  0
  3 17  1  0
  3 20  1  0
  3 36  1  0
  4  7  1  0
  4 29  1  0
  5 14  1  0
  5 19  1  0
  5 35  2  0
  6 16  1  0
  6 17  1  0
  7 22  1  0
  7 39  1  0
  8 37  1  0
  9 21  1  0
  9 24  1  0
  9 25  1  0
 10 12  1  0
 10 23  1  0
 10 37  1  0
 11 24  1  0
 12 18  1  0
 13 21  1  0
 13 32  1  0
 14 33  2  0
 14 34  1  0
 15 17  1  0
 15 42  1  0
 16 27  1  0
 18 19  1  0
 18 41  1  0
 20 27  1  0
 21 36  1  0
 21 42  1  0
 22 29  1  0
 23 24  1  0
 23 28  1  0
 23 32  1  0
 25 31  1  0
 26 39  1  0
 30 32  1  0
 30 40  1  0
 30 41  1  0
 31 36  1  0
 33 38  1  0
 34 39  2  0
 40 42  1  0
M  END
>  <ID>  (1) 
conformer_0

$$$$
