
     RDKit          3D

 33 37  0  0  0  0  0  0  0  0999 V2000
   21.9705   49.8064   20.1533 C   0  0  0  0  0  0  0  0  0  0  0  0
   18.2978   57.4448   26.9062 C   0  0  0  0  0  0  0  0  0  0  0  0
   20.9706   49.1499   18.0906 C   0  0  0  0  0  0  0  0  0  0  0  0
   18.8986   49.7666   16.1805 O   0  0  0  0  0  0  0  0  0  0  0  0
   18.6753   55.8793   22.8518 C   0  0  0  0  0  0  0  0  0  0  0  0
   19.1735   50.6634   17.1578 C   0  0  0  0  0  0  0  0  0  0  0  0
   20.0784   50.2177   18.2022 C   0  0  0  0  0  0  0  0  0  0  0  0
   19.0151   51.9321   19.5482 C   0  0  0  0  0  0  0  0  0  0  0  0
   18.5193   56.7564   24.1365 C   0  0  0  0  0  0  0  0  0  0  0  0
   22.0112   49.0252   18.9977 C   0  0  0  0  0  0  0  0  0  0  0  0
   23.1606   48.1739   18.8523 C   0  0  0  0  0  0  0  0  0  0  0  0
   20.7074   48.2791   17.0678 O   0  0  0  0  0  0  0  0  0  0  0  0
   19.8082   55.4381   21.9243 C   0  0  0  0  0  0  0  0  0  0  0  0
   18.4513   53.6781   20.8847 C   0  0  0  0  0  0  0  0  0  0  0  0
   17.5539   53.8889   21.9767 C   0  0  0  0  0  0  0  0  0  0  0  0
   20.0285   50.9379   19.3887 C   0  0  0  0  0  0  0  0  0  0  0  0
   24.2456   46.0435   18.5164 C   0  0  0  0  0  0  0  0  0  0  0  0
   19.5806   48.4836   16.2826 C   0  0  0  0  0  0  0  0  0  0  0  0
   17.0516   57.6110   26.1398 C   0  0  0  0  0  0  0  0  0  0  0  0
   17.8049   54.6786   23.0490 C   0  0  0  0  0  0  0  0  0  0  0  0
   25.4773   46.6524   18.5944 C   0  0  0  0  0  0  0  0  0  0  0  0
   23.1005   46.8003   18.6585 C   0  0  0  0  0  0  0  0  0  0  0  0
   22.9079   49.7090   21.1236 F   0  0  0  0  0  0  0  0  0  0  0  0
   24.4295   48.7516   18.9084 C   0  0  0  0  0  0  0  0  0  0  0  0
   17.1139   56.7242   24.8093 C   0  0  0  0  0  0  0  0  0  0  0  0
   19.7356   54.4046   20.8814 C   0  0  0  0  0  0  0  0  0  0  0  0
   20.9395   50.6796   20.3815 C   0  0  0  0  0  0  0  0  0  0  0  0
   16.5703   55.3704   25.3336 C   0  0  0  0  0  0  0  0  0  0  0  0
   18.7981   52.0745   17.1153 C   0  0  0  0  0  0  0  0  0  0  0  0
   25.5451   48.0126   18.7041 C   0  0  0  0  0  0  0  0  0  0  0  0
   18.5198   52.6877   18.4594 C   0  0  0  0  0  0  0  0  0  0  0  0
   18.6623   52.2380   20.8050 O   0  0  0  0  0  0  0  0  0  0  0  0
   16.1093   57.3368   23.7619 C   0  0  0  0  0  0  0  0  0  0  0  0
  1 10  1  0
  1 23  1  0
  1 27  2  0
  2 19  1  0
  3  7  1  0
  3 10  1  0
  3 12  1  0
  4  6  1  0
  4 18  1  0
  5  9  1  0
  5 13  1  0
  5 20  1  0
  6  7  1  0
  6 29  1  0
  7 16  2  0
  8 16  1  0
  8 31  1  0
  8 32  1  0
  9 25  1  0
 10 11  1  0
 11 22  2  0
 11 24  1  0
 12 18  1  0
 13 26  1  0
 14 15  1  0
 14 26  1  0
 14 32  1  0
 15 20  1  0
 16 27  1  0
 17 21  2  0
 17 22  1  0
 19 25  1  0
 21 30  1  0
 24 30  2  0
 25 28  1  0
 25 33  1  0
 29 31  1  0
M  END
>  <ID>  (1) 
conformer_0

$$$$
