
     RDKit          3D

 33 38  0  0  0  0  0  0  0  0999 V2000
   18.1062   54.9114   22.0389 C   0  0  0  0  0  0  0  0  0  0  0  0
   24.3972   47.0480   18.5510 C   0  0  0  0  0  0  0  0  0  0  0  0
   16.0572   55.4655   23.2656 C   0  0  0  0  0  0  0  0  0  0  0  0
   23.3515   49.0881   19.4830 C   0  0  0  0  0  0  0  0  0  0  0  0
   19.6201   52.9815   20.2410 C   0  0  0  0  0  0  0  0  0  0  0  0
   17.1467   57.5527   25.9438 C   0  0  0  0  0  0  0  0  0  0  0  0
   17.4046   55.5277   23.0668 C   0  0  0  0  0  0  0  0  0  0  0  0
   21.0129   49.6397   19.2672 C   0  0  0  0  0  0  0  0  0  0  0  0
   20.0540   56.6561   25.3008 C   0  0  0  0  0  0  0  0  0  0  0  0
   19.9189   50.6280   19.5087 C   0  0  0  0  0  0  0  0  0  0  0  0
   19.2208   50.3907   20.6060 O   0  0  0  0  0  0  0  0  0  0  0  0
   18.0126   56.2664   24.0489 C   0  0  0  0  0  0  0  0  0  0  0  0
   23.2184   47.8908   18.8313 C   0  0  0  0  0  0  0  0  0  0  0  0
   22.2732   49.9312   19.6898 C   0  0  0  0  0  0  0  0  0  0  0  0
   15.8337   56.2310   24.4355 C   0  0  0  0  0  0  0  0  0  0  0  0
   20.0664   55.0208   20.6534 C   0  0  0  0  0  0  0  0  0  0  0  0
   19.4514   56.2087   24.2011 C   0  0  0  0  0  0  0  0  0  0  0  0
   19.9799   52.0377   19.0812 C   0  0  0  0  0  0  0  0  0  0  0  0
   17.6433   52.5981   19.0910 O   0  0  0  0  0  0  0  0  0  0  0  0
   18.7483   51.9827   17.0011 O   0  0  0  0  0  0  0  0  0  0  0  0
   18.8405   52.5467   18.1731 C   0  0  0  0  0  0  0  0  0  0  0  0
   18.2631   53.3559   20.1530 C   0  0  0  0  0  0  0  0  0  0  0  0
   19.4827   55.2571   22.0239 C   0  0  0  0  0  0  0  0  0  0  0  0
   17.4897   53.9454   21.2066 C   0  0  0  0  0  0  0  0  0  0  0  0
   19.2311   54.4074   19.6161 C   0  0  0  0  0  0  0  0  0  0  0  0
   25.6001   47.7178   18.0716 C   0  0  0  0  0  0  0  0  0  0  0  0
   21.9591   47.5201   18.4189 C   0  0  0  0  0  0  0  0  0  0  0  0
   20.8332   48.4081   18.6394 C   0  0  0  0  0  0  0  0  0  0  0  0
   20.5658   53.0210   21.2469 C   0  0  0  0  0  0  0  0  0  0  0  0
   24.6717   45.7248   19.1091 C   0  0  0  0  0  0  0  0  0  0  0  0
   20.1611   55.6817   23.1282 N   0  0  0  0  0  0  0  0  0  0  0  0
   17.0434   56.6871   24.8305 N   0  0  0  0  0  0  0  0  0  0  0  0
   19.2062   54.0906   18.1499 C   0  0  0  0  0  0  0  0  0  0  0  0
  1  7  1  0
  1 23  1  0
  1 24  2  0
  2 13  1  0
  2 26  1  0
  2 30  1  0
  3  7  1  0
  3 15  1  0
  4 13  1  0
  4 14  1  0
  5 18  1  0
  5 22  1  0
  5 29  1  0
  6 32  1  0
  7 12  2  0
  8 10  1  0
  8 14  2  0
  8 28  1  0
  9 17  2  0
 10 11  1  0
 10 18  1  0
 12 17  1  0
 12 32  1  0
 13 27  2  0
 15 32  1  0
 16 23  2  0
 16 25  1  0
 17 31  1  0
 18 21  1  0
 19 21  1  0
 19 22  1  0
 20 21  1  0
 21 33  1  0
 22 24  1  0
 22 25  1  0
 23 31  1  0
 25 33  1  0
 27 28  1  0
M  END
>  <ID>  (1) 
conformer_0

$$$$
