
     RDKit          3D

 40 45  0  0  0  0  0  0  0  0999 V2000
   20.6404   50.8482   21.2170 C   0  0  0  0  0  0  0  0  0  0  0  0
   18.0979   55.5611   23.5047 C   0  0  0  0  0  0  0  0  0  0  0  0
   24.7167   47.3514   18.6966 C   0  0  0  0  0  0  0  0  0  0  0  0
   17.7913   56.2877   24.7326 C   0  0  0  0  0  0  0  0  0  0  0  0
   19.6761   50.4241   17.3790 N   0  0  0  0  0  0  0  0  0  0  0  0
   19.3385   56.2645   23.0785 C   0  0  0  0  0  0  0  0  0  0  0  0
   18.8020   57.1351   25.0286 C   0  0  0  0  0  0  0  0  0  0  0  0
   18.4632   54.2031   19.9705 C   0  0  0  0  0  0  0  0  0  0  0  0
   19.8782   48.3598   18.8642 C   0  0  0  0  0  0  0  0  0  0  0  0
   18.8368   57.9150   26.1817 C   0  0  0  0  0  0  0  0  0  0  0  0
   20.9204   49.8142   20.5358 N   0  0  0  0  0  0  0  0  0  0  0  0
   18.7026   47.2055   17.0374 C   0  0  0  0  0  0  0  0  0  0  0  0
   19.8835   51.9938   20.8616 C   0  0  0  0  0  0  0  0  0  0  0  0
   16.7049   56.2094   25.5998 C   0  0  0  0  0  0  0  0  0  0  0  0
   19.5630   51.6169   17.2766 C   0  0  0  0  0  0  0  0  0  0  0  0
   19.2433   52.3564   16.2063 C   0  0  0  0  0  0  0  0  0  0  0  0
   19.3200   52.8528   21.7687 C   0  0  0  0  0  0  0  0  0  0  0  0
   16.7153   56.9867   26.7576 C   0  0  0  0  0  0  0  0  0  0  0  0
   18.9471   47.6438   19.8109 C   0  0  0  0  0  0  0  0  0  0  0  0
   19.9663   47.6248   17.5966 C   0  0  0  0  0  0  0  0  0  0  0  0
   24.6291   48.6082   19.2995 C   0  0  0  0  0  0  0  0  0  0  0  0
   23.4146   49.1773   19.4890 C   0  0  0  0  0  0  0  0  0  0  0  0
   19.0415   53.3520   19.1093 C   0  0  0  0  0  0  0  0  0  0  0  0
   19.5363   49.5989   16.2267 C   0  0  0  0  0  0  0  0  0  0  0  0
   19.1483   51.6050   15.0233 C   0  0  0  0  0  0  0  0  0  0  0  0
   18.3896   53.7554   21.2828 C   0  0  0  0  0  0  0  0  0  0  0  0
   17.7719   57.8059   27.0463 C   0  0  0  0  0  0  0  0  0  0  0  0
   23.5834   46.6817   18.2923 C   0  0  0  0  0  0  0  0  0  0  0  0
   19.5999   48.0826   16.2814 C   0  0  0  0  0  0  0  0  0  0  0  0
   22.3689   47.2662   18.5029 C   0  0  0  0  0  0  0  0  0  0  0  0
   19.8995   56.3205   21.9423 O   0  0  0  0  0  0  0  0  0  0  0  0
   22.3008   48.4612   19.1412 C   0  0  0  0  0  0  0  0  0  0  0  0
   17.0842   54.0588   21.8683 C   0  0  0  0  0  0  0  0  0  0  0  0
   25.9102   46.7855   18.5334 O   0  0  0  0  0  0  0  0  0  0  0  0
   16.9715   54.6531   23.1498 C   0  0  0  0  0  0  0  0  0  0  0  0
   19.6262   52.1624   19.4804 C   0  0  0  0  0  0  0  0  0  0  0  0
   20.9684   49.0435   19.4818 C   0  0  0  0  0  0  0  0  0  0  0  0
   19.8258   51.2212   18.4029 N   0  0  0  0  0  0  0  0  0  0  0  0
   19.7337   57.1033   24.0771 N   0  0  0  0  0  0  0  0  0  0  0  0
   19.3266   50.2107   15.0274 C   0  0  0  0  0  0  0  0  0  0  0  0
  1 11  1  0
  1 13  1  0
  2  4  1  0
  2  6  1  0
  2 35  1  0
  3 21  2  0
  3 28  1  0
  3 34  1  0
  4  7  2  0
  4 14  1  0
  5 15  2  0
  5 24  1  0
  6 31  2  0
  6 39  1  0
  7 10  1  0
  7 39  1  0
  8 23  2  0
  8 26  1  0
  9 19  1  0
  9 20  1  0
  9 37  1  0
 10 27  1  0
 11 37  1  0
 12 20  1  0
 13 17  2  0
 13 36  1  0
 14 18  1  0
 15 16  1  0
 15 38  1  0
 16 25  1  0
 17 26  1  0
 18 27  2  0
 20 29  1  0
 21 22  1  0
 22 32  2  0
 23 36  1  0
 24 29  1  0
 24 40  2  0
 25 40  1  0
 26 33  1  0
 28 30  2  0
 30 32  1  0
 32 37  1  0
 33 35  1  0
 36 38  2  0
M  END
>  <ID>  (1) 
conformer_0

$$$$
