
     RDKit          3D

 37 42  0  0  0  0  0  0  0  0999 V2000
   22.9620   46.7318   18.4376 C   0  0  0  0  0  0  0  0  0  0  0  0
   20.2235   51.8095   20.1644 C   0  0  0  0  0  0  0  0  0  0  0  0
   25.2439   47.0156   18.5421 C   0  0  0  0  0  0  0  0  0  0  0  0
   16.4375   55.9268   23.9457 C   0  0  0  0  0  0  0  0  0  0  0  0
   20.7761   47.9494   17.9982 C   0  0  0  0  0  0  0  0  0  0  0  0
   15.8812   57.1279   26.0132 C   0  0  0  0  0  0  0  0  0  0  0  0
   19.5091   52.1355   18.9470 C   0  0  0  0  0  0  0  0  0  0  0  0
   19.1579   56.3666   24.3388 C   0  0  0  0  0  0  0  0  0  0  0  0
   21.2161   49.5077   20.1931 C   0  0  0  0  0  0  0  0  0  0  0  0
   18.9675   51.2995   17.8192 C   0  0  0  0  0  0  0  0  0  0  0  0
   21.2056   51.8681   21.2834 C   0  0  0  0  0  0  0  0  0  0  0  0
   18.9414   53.8585   20.4073 C   0  0  0  0  0  0  0  0  0  0  0  0
   19.5052   50.0453   18.3195 C   0  0  0  0  0  0  0  0  0  0  0  0
   17.8967   53.8514   18.1138 C   0  0  0  0  0  0  0  0  0  0  0  0
   25.3916   45.6490   19.0879 C   0  0  0  0  0  0  0  0  0  0  0  0
   22.5453   49.7054   21.2704 C   0  0  0  0  0  0  0  0  0  0  0  0
   24.0977   47.1250   17.5744 C   0  0  0  0  0  0  0  0  0  0  0  0
   17.8973   53.6865   21.4089 C   0  0  0  0  0  0  0  0  0  0  0  0
   21.5932   53.7804   22.9044 F   0  0  0  0  0  0  0  0  0  0  0  0
   17.3568   55.4281   23.0915 C   0  0  0  0  0  0  0  0  0  0  0  0
   18.7292   55.5644   23.3065 C   0  0  0  0  0  0  0  0  0  0  0  0
   22.8172   47.8092   19.5246 C   0  0  0  0  0  0  0  0  0  0  0  0
   20.5443   53.8786   22.1868 C   0  0  0  0  0  0  0  0  0  0  0  0
   16.8394   56.6577   25.0273 C   0  0  0  0  0  0  0  0  0  0  0  0
   22.0962   49.9177   22.7246 C   0  0  0  0  0  0  0  0  0  0  0  0
   21.0017   51.1459   22.6228 C   0  0  0  0  0  0  0  0  0  0  0  0
   25.7996   48.2381   18.9924 C   0  0  0  0  0  0  0  0  0  0  0  0
   16.9244   54.6362   21.9414 C   0  0  0  0  0  0  0  0  0  0  0  0
   20.4951   50.5592   19.4035 C   0  0  0  0  0  0  0  0  0  0  0  0
   21.4139   48.2908   19.3692 C   0  0  0  0  0  0  0  0  0  0  0  0
   18.5648   57.5917   26.2316 O   0  0  0  0  0  0  0  0  0  0  0  0
   22.5835   51.6119   20.7622 C   0  0  0  0  0  0  0  0  0  0  0  0
   18.5638   53.2805   19.2041 C   0  0  0  0  0  0  0  0  0  0  0  0
   18.1751   56.8989   25.1864 C   0  0  0  0  0  0  0  0  0  0  0  0
   20.0271   49.0453   17.3207 C   0  0  0  0  0  0  0  0  0  0  0  0
   19.7038   54.9695   22.4796 C   0  0  0  0  0  0  0  0  0  0  0  0
   20.3567   53.0561   20.9244 C   0  0  0  0  0  0  0  0  0  0  0  0
  1 17  1  0
  1 22  1  0
  2  7  1  0
  2 11  1  0
  2 29  1  0
  2 37  1  0
  3 15  1  0
  3 17  1  0
  3 27  1  0
  4 20  2  0
  4 24  1  0
  5 30  1  0
  5 35  1  0
  6 24  1  0
  7 10  1  0
  7 33  1  0
  8 21  2  0
  8 34  1  0
  9 16  1  0
  9 29  1  0
  9 30  1  0
 10 13  1  0
 11 26  1  0
 11 32  1  0
 12 18  1  0
 12 33  1  0
 12 37  1  0
 13 29  1  0
 13 35  1  0
 14 33  1  0
 16 25  1  0
 18 28  1  0
 19 23  1  0
 20 21  1  0
 20 28  1  0
 21 36  1  0
 22 30  1  0
 23 36  1  0
 23 37  1  0
 24 34  2  0
 25 26  1  0
 31 34  1  0
M  END
>  <ID>  (1) 
conformer_0

$$$$
