
     RDKit          3D

 52 58  0  0  0  0  0  0  0  0999 V2000
   17.8130   53.3175   17.3925 C   0  0  0  0  0  0  0  0  0  0  0  0
   17.3147   54.3988   21.1360 C   0  0  0  0  0  0  0  0  0  0  0  0
   22.2020   49.2749   20.4444 C   0  0  0  0  0  0  0  0  0  0  0  0
   18.9058   50.2289   19.3081 O   0  0  0  0  0  0  0  0  0  0  0  0
   19.8719   49.5063   19.7342 C   0  0  0  0  0  0  0  0  0  0  0  0
   24.4675   48.7276   19.3249 C   0  0  0  0  0  0  0  0  0  0  0  0
   19.0325   47.3007   18.8042 C   0  0  0  0  0  0  0  0  0  0  0  0
   18.9452   54.3172   17.8097 C   0  0  0  0  0  0  0  0  0  0  0  0
   20.6556   55.3436   16.0443 C   0  0  0  0  0  0  0  0  0  0  0  0
   22.8925   46.7990   19.6210 C   0  0  0  0  0  0  0  0  0  0  0  0
   24.2526   46.0936   19.3221 C   0  0  0  0  0  0  0  0  0  0  0  0
   18.9794   53.8722   22.7451 C   0  0  0  0  0  0  0  0  0  0  0  0
   18.3677   52.3181   16.4403 C   0  0  0  0  0  0  0  0  0  0  0  0
   18.6261   54.6925   19.1815 C   0  0  0  0  0  0  0  0  0  0  0  0
   17.0916   56.3520   24.1562 C   0  0  0  0  0  0  0  0  0  0  0  0
   19.6510   54.6964   20.2153 C   0  0  0  0  0  0  0  0  0  0  0  0
   23.0678   56.6656   15.6495 C   0  0  0  0  0  0  0  0  0  0  0  0
   20.4038   57.1259   12.8392 O   0  0  0  0  0  0  0  0  0  0  0  0
   20.2440   56.8407   21.3056 C   0  0  0  0  0  0  0  0  0  0  0  0
   17.2083   52.8600   18.6235 C   0  0  0  0  0  0  0  0  0  0  0  0
   16.5234   55.3759   20.5429 O   0  0  0  0  0  0  0  0  0  0  0  0
   19.8861   52.3873   21.2519 C   0  0  0  0  0  0  0  0  0  0  0  0
   16.6042   58.2267   25.5531 O   0  0  0  0  0  0  0  0  0  0  0  0
   24.1485   57.2613   15.1290 C   0  0  0  0  0  0  0  0  0  0  0  0
   19.2604   56.2819   22.2670 C   0  0  0  0  0  0  0  0  0  0  0  0
   21.5791   55.5023   17.0803 C   0  0  0  0  0  0  0  0  0  0  0  0
   21.1644   54.3131   22.0374 O   0  0  0  0  0  0  0  0  0  0  0  0
   20.5213   55.9569   20.1030 C   0  0  0  0  0  0  0  0  0  0  0  0
   21.1465   51.8036   22.0954 C   0  0  0  0  0  0  0  0  0  0  0  0
   25.1071   48.0547   18.1761 C   0  0  0  0  0  0  0  0  0  0  0  0
   23.1976   50.4289   20.9255 C   0  0  0  0  0  0  0  0  0  0  0  0
   21.0027   55.9535   14.8021 C   0  0  0  0  0  0  0  0  0  0  0  0
   22.2197   56.5833   14.6967 C   0  0  0  0  0  0  0  0  0  0  0  0
   18.2535   55.1338   22.1827 C   0  0  0  0  0  0  0  0  0  0  0  0
   22.9432   48.3236   19.4968 C   0  0  0  0  0  0  0  0  0  0  0  0
   19.6522   55.0456   13.0354 O   0  0  0  0  0  0  0  0  0  0  0  0
   22.7995   56.1505   16.9512 C   0  0  0  0  0  0  0  0  0  0  0  0
   20.2355   48.1443   19.1511 C   0  0  0  0  0  0  0  0  0  0  0  0
   17.8021   53.5021   19.9093 C   0  0  0  0  0  0  0  0  0  0  0  0
   18.7844   56.5986   25.7888 O   0  0  0  0  0  0  0  0  0  0  0  0
   20.2465   56.0572   13.5535 C   0  0  0  0  0  0  0  0  0  0  0  0
   20.9248   50.3294   22.3107 C   0  0  0  0  0  0  0  0  0  0  0  0
   19.3875   54.5628   16.3270 C   0  0  0  0  0  0  0  0  0  0  0  0
   20.7327   48.0770   17.7266 C   0  0  0  0  0  0  0  0  0  0  0  0
   19.3586   53.1800   15.6494 C   0  0  0  0  0  0  0  0  0  0  0  0
   19.9006   53.8488   21.4694 C   0  0  0  0  0  0  0  0  0  0  0  0
   24.6889   46.6140   17.9773 C   0  0  0  0  0  0  0  0  0  0  0  0
   20.8161   49.8248   20.8389 C   0  0  0  0  0  0  0  0  0  0  0  0
   18.4954   56.5473   24.5346 C   0  0  0  0  0  0  0  0  0  0  0  0
   19.3946   47.2353   17.3201 C   0  0  0  0  0  0  0  0  0  0  0  0
   19.5661   56.6102   23.6322 O   0  0  0  0  0  0  0  0  0  0  0  0
   16.2122   56.9769   25.1828 C   0  0  0  0  0  0  0  0  0  0  0  0
  1  8  1  0
  1 13  1  0
  1 20  1  0
  2 21  1  0
  2 34  1  0
  2 39  1  0
  3 31  1  0
  3 35  1  0
  3 48  1  0
  4  5  2  0
  5 38  1  0
  5 48  1  0
  6 30  1  0
  6 35  1  0
  7 38  1  0
  7 50  1  0
  8 14  1  0
  8 43  1  0
  9 26  1  0
  9 32  2  0
  9 43  1  0
 10 11  1  0
 10 35  1  0
 11 47  1  0
 12 34  1  0
 12 46  1  0
 13 45  1  0
 14 16  1  0
 14 39  1  0
 15 49  1  0
 15 52  1  0
 16 28  1  0
 16 46  1  0
 17 24  1  0
 17 33  2  0
 17 37  1  0
 18 41  2  0
 19 25  1  0
 19 28  1  0
 20 39  1  0
 22 29  1  0
 22 46  1  0
 23 52  1  0
 25 34  1  0
 25 51  1  0
 26 37  1  0
 27 46  1  0
 29 42  1  0
 30 47  1  0
 32 33  1  0
 32 41  1  0
 36 41  1  0
 38 44  1  0
 40 49  2  0
 42 48  1  0
 43 45  1  0
 44 50  1  0
 49 51  1  0
M  END
>  <ID>  (1) 
conformer_0

$$$$
