
     RDKit          3D

 27 29  0  0  0  0  0  0  0  0999 V2000
   20.1325   51.9952   19.7590 C   0  0  0  0  0  0  0  0  0  0  0  0
   20.5948   49.5356   19.1728 C   0  0  0  0  0  0  0  0  0  0  0  0
   20.0945   52.6278   21.0256 C   0  0  0  0  0  0  0  0  0  0  0  0
   19.6869   52.7585   18.7204 N   0  0  0  0  0  0  0  0  0  0  0  0
   19.1516   54.1095   22.5002 O   0  0  0  0  0  0  0  0  0  0  0  0
   19.2924   54.0443   18.8891 C   0  0  0  0  0  0  0  0  0  0  0  0
   17.3215   56.2728   25.8834 O   0  0  0  0  0  0  0  0  0  0  0  0
   20.9918   52.1264   23.1824 O   0  0  0  0  0  0  0  0  0  0  0  0
   18.1311   56.2523   21.9499 C   0  0  0  0  0  0  0  0  0  0  0  0
   16.1749   56.7271   25.1254 C   0  0  0  0  0  0  0  0  0  0  0  0
   19.3880   48.6357   19.2870 C   0  0  0  0  0  0  0  0  0  0  0  0
   20.7186   51.7866   22.0159 C   0  0  0  0  0  0  0  0  0  0  0  0
   20.6344   50.6738   20.0190 C   0  0  0  0  0  0  0  0  0  0  0  0
   20.9694   50.6185   21.4205 N   0  0  0  0  0  0  0  0  0  0  0  0
   23.0345   49.2745   19.5797 C   0  0  0  0  0  0  0  0  0  0  0  0
   19.4890   53.7686   21.2229 C   0  0  0  0  0  0  0  0  0  0  0  0
   24.2572   47.5892   18.4541 C   0  0  0  0  0  0  0  0  0  0  0  0
   17.4660   55.0252   23.9182 C   0  0  0  0  0  0  0  0  0  0  0  0
   18.1658   55.0148   22.6288 C   0  0  0  0  0  0  0  0  0  0  0  0
   19.3997   52.2669   17.3543 C   0  0  0  0  0  0  0  0  0  0  0  0
   19.1568   54.5253   20.1472 C   0  0  0  0  0  0  0  0  0  0  0  0
   21.8780   48.9027   18.9202 C   0  0  0  0  0  0  0  0  0  0  0  0
   24.2208   48.6433   19.3408 C   0  0  0  0  0  0  0  0  0  0  0  0
   25.5991   46.7092   18.3205 Cl  0  0  0  0  0  0  0  0  0  0  0  0
   21.9675   47.9286   17.9175 C   0  0  0  0  0  0  0  0  0  0  0  0
   17.4559   56.5178   24.4674 C   0  0  0  0  0  0  0  0  0  0  0  0
   23.1787   47.2621   17.7027 C   0  0  0  0  0  0  0  0  0  0  0  0
  1  3  2  0
  1  4  1  0
  1 13  1  0
  2 11  1  0
  2 13  1  0
  2 22  1  0
  3 12  1  0
  3 16  1  0
  4  6  1  0
  4 20  1  0
  5 16  1  0
  5 19  1  0
  6 21  1  0
  7 26  1  0
  8 12  2  0
  9 19  1  0
 10 26  1  0
 12 14  1  0
 13 14  1  0
 15 22  2  0
 15 23  1  0
 16 21  2  0
 17 23  2  0
 17 24  1  0
 17 27  1  0
 18 19  1  0
 18 26  1  0
 22 25  1  0
 25 27  2  0
M  END
>  <ID>  (1) 
conformer_0

$$$$
