
     RDKit          3D

 29 31  0  0  0  0  0  0  0  0999 V2000
   20.5409   54.8680   19.8883 C   0  0  0  0  0  0  0  0  0  0  0  0
   19.6150   52.5820   20.0441 C   0  0  0  0  0  0  0  0  0  0  0  0
   19.7057   49.5845   17.9662 C   0  0  0  0  0  0  0  0  0  0  0  0
   18.2209   50.7792   19.5943 O   0  0  0  0  0  0  0  0  0  0  0  0
   18.8786   56.0034   23.0137 O   0  0  0  0  0  0  0  0  0  0  0  0
   18.8728   53.8347   22.0333 C   0  0  0  0  0  0  0  0  0  0  0  0
   18.7689   57.3831   25.4654 C   0  0  0  0  0  0  0  0  0  0  0  0
   20.3453   48.4178   17.3989 N   0  0  0  0  0  0  0  0  0  0  0  0
   17.0241   55.6805   26.1551 C   0  0  0  0  0  0  0  0  0  0  0  0
   24.9675   45.8947   17.8422 F   0  0  0  0  0  0  0  0  0  0  0  0
   25.9606   47.6670   18.4601 F   0  0  0  0  0  0  0  0  0  0  0  0
   24.9490   46.8791   18.7139 C   0  0  0  0  0  0  0  0  0  0  0  0
   19.4842   51.2679   19.3678 C   0  0  0  0  0  0  0  0  0  0  0  0
   21.5630   48.2007   17.9159 C   0  0  0  0  0  0  0  0  0  0  0  0
   17.6739   55.9580   23.6453 C   0  0  0  0  0  0  0  0  0  0  0  0
   22.7103   47.3435   17.8020 C   0  0  0  0  0  0  0  0  0  0  0  0
   25.0964   46.3388   19.8988 F   0  0  0  0  0  0  0  0  0  0  0  0
   17.4682   56.6761   25.0109 C   0  0  0  0  0  0  0  0  0  0  0  0
   23.6651   47.6946   18.6790 C   0  0  0  0  0  0  0  0  0  0  0  0
   20.3048   53.6130   19.4200 C   0  0  0  0  0  0  0  0  0  0  0  0
   20.1939   55.5814   20.9925 C   0  0  0  0  0  0  0  0  0  0  0  0
   16.3875   55.1310   23.2554 C   0  0  0  0  0  0  0  0  0  0  0  0
   20.6413   50.1875   19.1166 C   0  0  0  0  0  0  0  0  0  0  0  0
   21.3817   50.7319   20.5081 O   0  0  0  0  0  0  0  0  0  0  0  0
   23.1440   48.8548   19.3839 C   0  0  0  0  0  0  0  0  0  0  0  0
   18.9910   52.8268   21.2561 C   0  0  0  0  0  0  0  0  0  0  0  0
   21.8238   49.1499   18.8901 C   0  0  0  0  0  0  0  0  0  0  0  0
   16.3185   57.7609   24.9396 C   0  0  0  0  0  0  0  0  0  0  0  0
   19.3301   55.1318   22.0172 C   0  0  0  0  0  0  0  0  0  0  0  0
  1 20  1  0
  1 21  2  0
  2 13  1  0
  2 20  2  0
  2 26  1  0
  3  8  1  0
  3 23  1  0
  4 13  1  0
  5 15  1  0
  5 29  1  0
  6 26  2  0
  6 29  1  0
  7 18  1  0
  8 14  1  0
  9 18  1  0
 10 12  1  0
 11 12  1  0
 12 17  1  0
 12 19  1  0
 13 23  1  0
 14 16  1  0
 14 27  2  0
 15 18  1  0
 15 22  1  0
 16 19  1  0
 18 28  1  0
 19 25  1  0
 21 29  1  0
 23 24  1  0
 23 27  1  0
 25 27  1  0
M  END
>  <ID>  (1) 
conformer_0

$$$$
