
     RDKit          3D

 28 32  0  0  0  0  0  0  0  0999 V2000
   26.0361   46.3238   19.2354 C   0  0  0  0  0  0  0  0  0  0  0  0
   17.9565   53.5308   20.8877 C   0  0  0  0  0  0  0  0  0  0  0  0
   20.6253   49.6059   20.4657 C   0  0  0  0  0  0  0  0  0  0  0  0
   26.2712   47.5845   18.8307 C   0  0  0  0  0  0  0  0  0  0  0  0
   20.5555   49.5086   17.6971 C   0  0  0  0  0  0  0  0  0  0  0  0
   24.7701   45.7934   19.1728 C   0  0  0  0  0  0  0  0  0  0  0  0
   17.0968   55.9073   24.1229 C   0  0  0  0  0  0  0  0  0  0  0  0
   18.2721   56.5154   24.2836 N   0  0  0  0  0  0  0  0  0  0  0  0
   20.1694   49.2127   16.0119 Cl  0  0  0  0  0  0  0  0  0  0  0  0
   19.7020   50.3479   18.3699 C   0  0  0  0  0  0  0  0  0  0  0  0
   20.0781   53.4161   22.0499 C   0  0  0  0  0  0  0  0  0  0  0  0
   22.8641   48.6005   17.7616 N   0  0  0  0  0  0  0  0  0  0  0  0
   19.5051   51.7398   20.4447 C   0  0  0  0  0  0  0  0  0  0  0  0
   18.2445   57.2742   25.5999 C   0  0  0  0  0  0  0  0  0  0  0  0
   18.3253   52.4156   20.1766 C   0  0  0  0  0  0  0  0  0  0  0  0
   19.0748   56.0415   23.2536 C   0  0  0  0  0  0  0  0  0  0  0  0
   23.9191   47.8565   18.3303 C   0  0  0  0  0  0  0  0  0  0  0  0
   21.5113   48.7793   19.7850 C   0  0  0  0  0  0  0  0  0  0  0  0
   21.6267   48.8984   18.4052 C   0  0  0  0  0  0  0  0  0  0  0  0
   23.7008   46.5462   18.7810 C   0  0  0  0  0  0  0  0  0  0  0  0
   20.3603   52.2825   21.3969 C   0  0  0  0  0  0  0  0  0  0  0  0
   25.2215   48.3723   18.3162 C   0  0  0  0  0  0  0  0  0  0  0  0
   16.8344   57.1416   26.1781 C   0  0  0  0  0  0  0  0  0  0  0  0
   18.4106   55.0718   22.6565 N   0  0  0  0  0  0  0  0  0  0  0  0
   18.8344   54.0084   21.8552 C   0  0  0  0  0  0  0  0  0  0  0  0
   19.8977   50.5585   19.7387 C   0  0  0  0  0  0  0  0  0  0  0  0
   16.1044   56.1974   25.2134 C   0  0  0  0  0  0  0  0  0  0  0  0
   17.1180   55.0871   23.0803 N   0  0  0  0  0  0  0  0  0  0  0  0
  1  4  2  0
  1  6  1  0
  2 15  2  0
  2 25  1  0
  3 18  2  0
  3 26  1  0
  4 22  1  0
  5  9  1  0
  5 10  2  0
  5 19  1  0
  6 20  2  0
  7  8  1  0
  7 27  1  0
  7 28  2  0
  8 14  1  0
  8 16  1  0
 10 26  1  0
 11 21  2  0
 11 25  1  0
 12 17  1  0
 12 19  1  0
 13 15  1  0
 13 21  1  0
 13 26  1  0
 14 23  1  0
 16 24  1  0
 17 20  1  0
 17 22  2  0
 18 19  1  0
 23 27  1  0
 24 25  1  0
 24 28  1  0
M  END
>  <ID>  (1) 
conformer_0

$$$$
