
     RDKit          3D

 41 46  0  0  0  0  0  0  0  0999 V2000
   18.6261   52.4832   19.2175 N   0  0  0  0  0  0  0  0  0  0  0  0
   19.5813   54.8214   17.4819 C   0  0  0  0  0  0  0  0  0  0  0  0
   19.7116   52.3171   21.4320 C   0  0  0  0  0  0  0  0  0  0  0  0
   19.8323   54.9318   16.1230 C   0  0  0  0  0  0  0  0  0  0  0  0
   16.1127   56.7799   26.9954 C   0  0  0  0  0  0  0  0  0  0  0  0
   17.9817   55.4134   22.1246 C   0  0  0  0  0  0  0  0  0  0  0  0
   24.9168   45.7828   19.0694 C   0  0  0  0  0  0  0  0  0  0  0  0
   24.4007   47.6121   17.4525 C   0  0  0  0  0  0  0  0  0  0  0  0
   19.9493   57.2012   22.8058 O   0  0  0  0  0  0  0  0  0  0  0  0
   18.8289   52.2282   20.5732 C   0  0  0  0  0  0  0  0  0  0  0  0
   16.8930   54.9674   21.3620 C   0  0  0  0  0  0  0  0  0  0  0  0
   17.3243   57.2099   26.6562 N   0  0  0  0  0  0  0  0  0  0  0  0
   17.8794   56.8124   25.4816 C   0  0  0  0  0  0  0  0  0  0  0  0
   20.3476   54.4965   22.6723 C   0  0  0  0  0  0  0  0  0  0  0  0
   18.4015   51.7259   17.0937 O   0  0  0  0  0  0  0  0  0  0  0  0
   19.4523   49.2595   16.3669 C   0  0  0  0  0  0  0  0  0  0  0  0
   17.9670   53.7315   19.0454 C   0  0  0  0  0  0  0  0  0  0  0  0
   19.9983   50.5624   18.5234 C   0  0  0  0  0  0  0  0  0  0  0  0
   21.5583   49.4376   20.2175 C   0  0  0  0  0  0  0  0  0  0  0  0
   16.0423   55.4988   24.9411 C   0  0  0  0  0  0  0  0  0  0  0  0
   20.7093   51.9709   22.0882 O   0  0  0  0  0  0  0  0  0  0  0  0
   19.2690   56.5868   23.6981 C   0  0  0  0  0  0  0  0  0  0  0  0
   24.1787   47.0752   18.8146 C   0  0  0  0  0  0  0  0  0  0  0  0
   18.9660   51.6361   18.1796 C   0  0  0  0  0  0  0  0  0  0  0  0
   18.2890   54.3411   17.8748 O   0  0  0  0  0  0  0  0  0  0  0  0
   17.4582   54.1068   20.3220 C   0  0  0  0  0  0  0  0  0  0  0  0
   17.2610   55.9774   24.5930 C   0  0  0  0  0  0  0  0  0  0  0  0
   23.0743   47.5830   19.5556 C   0  0  0  0  0  0  0  0  0  0  0  0
   18.6498   53.3877   21.2504 C   0  0  0  0  0  0  0  0  0  0  0  0
   22.2204   48.6927   19.0954 C   0  0  0  0  0  0  0  0  0  0  0  0
   19.2047   57.1295   25.0302 C   0  0  0  0  0  0  0  0  0  0  0  0
   22.0499   55.6960   16.5903 C   0  0  0  0  0  0  0  0  0  0  0  0
   15.4293   55.9271   26.1728 C   0  0  0  0  0  0  0  0  0  0  0  0
   20.5794   55.0800   18.3903 C   0  0  0  0  0  0  0  0  0  0  0  0
   19.1318   54.5513   21.8976 C   0  0  0  0  0  0  0  0  0  0  0  0
   21.8091   55.5448   17.9748 C   0  0  0  0  0  0  0  0  0  0  0  0
   21.0711   55.3853   15.6888 C   0  0  0  0  0  0  0  0  0  0  0  0
   18.0240   55.8567   23.4438 N   0  0  0  0  0  0  0  0  0  0  0  0
   20.5220   50.4113   19.8715 C   0  0  0  0  0  0  0  0  0  0  0  0
   21.2911   48.5028   17.9761 C   0  0  0  0  0  0  0  0  0  0  0  0
   20.2595   49.4633   17.6186 C   0  0  0  0  0  0  0  0  0  0  0  0
  1 10  1  0
  1 17  1  0
  1 24  1  0
  2  4  1  0
  2 25  1  0
  2 34  2  0
  3 10  1  0
  3 21  1  0
  4 37  1  0
  5 12  2  0
  5 33  1  0
  6 11  1  0
  6 35  1  0
  6 38  1  0
  7 23  1  0
  8 23  1  0
  9 22  2  0
 10 29  1  0
 11 26  1  0
 12 13  1  0
 13 27  1  0
 13 31  1  0
 14 35  1  0
 15 24  2  0
 16 41  1  0
 17 25  1  0
 17 26  1  0
 18 24  1  0
 18 39  1  0
 18 41  1  0
 19 30  1  0
 19 39  2  0
 20 27  2  0
 20 33  1  0
 22 31  1  0
 22 38  1  0
 23 28  2  3
 26 29  1  0
 27 38  1  0
 28 30  1  0
 29 35  1  0
 30 40  1  0
 32 36  1  0
 32 37  2  0
 34 36  1  0
 40 41  2  0
M  END
>  <ID>  (1) 
conformer_0

$$$$
