
     RDKit          3D

 34 37  0  0  0  0  0  0  0  0999 V2000
   23.4097   46.4949   19.7357 C   0  0  0  0  0  0  0  0  0  0  0  0
   19.0150   53.6220   16.8713 C   0  0  0  0  0  0  0  0  0  0  0  0
   20.7695   55.1253   17.7622 C   0  0  0  0  0  0  0  0  0  0  0  0
   22.5430   47.7579   19.5868 C   0  0  0  0  0  0  0  0  0  0  0  0
   25.1971   47.4248   18.3012 C   0  0  0  0  0  0  0  0  0  0  0  0
   19.1252   55.6542   22.8665 O   0  0  0  0  0  0  0  0  0  0  0  0
   18.9828   54.0165   19.3022 C   0  0  0  0  0  0  0  0  0  0  0  0
   19.8200   50.3725   19.1144 C   0  0  0  0  0  0  0  0  0  0  0  0
   16.9721   55.8499   23.9446 C   0  0  0  0  0  0  0  0  0  0  0  0
   19.3942   53.5871   21.6891 C   0  0  0  0  0  0  0  0  0  0  0  0
   20.6700   55.2983   20.5371 O   0  0  0  0  0  0  0  0  0  0  0  0
   18.9761   52.5062   19.0181 C   0  0  0  0  0  0  0  0  0  0  0  0
   20.0158   48.2297   18.1273 C   0  0  0  0  0  0  0  0  0  0  0  0
   20.5749   49.2755   18.9873 C   0  0  0  0  0  0  0  0  0  0  0  0
   19.8104   51.5163   19.7881 C   0  0  0  0  0  0  0  0  0  0  0  0
   20.5108   51.6414   21.0173 C   0  0  0  0  0  0  0  0  0  0  0  0
   16.6967   58.0111   25.7801 O   0  0  0  0  0  0  0  0  0  0  0  0
   22.1257   49.8499   20.7682 C   0  0  0  0  0  0  0  0  0  0  0  0
   17.6387   52.0464   19.0266 O   0  0  0  0  0  0  0  0  0  0  0  0
   18.2453   56.5629   23.5154 C   0  0  0  0  0  0  0  0  0  0  0  0
   22.9440   48.5564   18.4850 C   0  0  0  0  0  0  0  0  0  0  0  0
   21.5925   50.8915   21.3920 C   0  0  0  0  0  0  0  0  0  0  0  0
   19.3016   52.3221   17.4946 C   0  0  0  0  0  0  0  0  0  0  0  0
   18.5129   57.0438   26.6780 O   0  0  0  0  0  0  0  0  0  0  0  0
   23.9105   47.8548   17.5259 C   0  0  0  0  0  0  0  0  0  0  0  0
   17.5972   54.3695   19.7820 C   0  0  0  0  0  0  0  0  0  0  0  0
   19.8515   54.3040   20.5042 C   0  0  0  0  0  0  0  0  0  0  0  0
   20.0550   52.5087   22.0239 O   0  0  0  0  0  0  0  0  0  0  0  0
   17.4557   57.0213   26.0472 C   0  0  0  0  0  0  0  0  0  0  0  0
   19.2588   54.7004   18.0067 C   0  0  0  0  0  0  0  0  0  0  0  0
   24.7513   46.1422   19.0253 C   0  0  0  0  0  0  0  0  0  0  0  0
   18.6145   54.3162   22.6561 C   0  0  0  0  0  0  0  0  0  0  0  0
   17.0030   55.6899   25.4655 C   0  0  0  0  0  0  0  0  0  0  0  0
   21.7966   49.1049   19.6883 C   0  0  0  0  0  0  0  0  0  0  0  0
  1  4  1  0
  1 31  1  0
  2 23  1  0
  2 30  1  0
  3 30  1  0
  4 21  1  0
  4 34  1  0
  5 25  1  0
  5 31  1  0
  6 20  1  0
  6 32  1  0
  7 12  1  0
  7 26  1  0
  7 27  1  0
  7 30  1  0
  8 14  2  0
  8 15  1  0
  9 20  1  0
  9 33  1  0
 10 27  1  0
 10 28  1  0
 10 32  1  0
 11 27  1  0
 12 15  1  0
 12 19  1  0
 12 23  1  0
 13 14  1  0
 14 34  1  0
 15 16  1  0
 16 22  1  0
 16 28  1  0
 17 29  2  0
 18 22  2  0
 18 34  1  0
 21 25  1  0
 24 29  1  0
 29 33  1  0
M  END
>  <ID>  (1) 
conformer_0

$$$$
