
     RDKit          3D

 32 33  0  0  0  0  0  0  0  0999 V2000
   19.5212   55.0569   14.0995 O   0  0  0  0  0  0  0  0  0  0  0  0
   18.9642   56.3916   23.6512 C   0  0  0  0  0  0  0  0  0  0  0  0
   19.8920   52.7596   13.4351 C   0  0  0  0  0  0  0  0  0  0  0  0
   18.9148   52.5067   19.0441 C   0  0  0  0  0  0  0  0  0  0  0  0
   19.6132   51.5910   19.8260 C   0  0  0  0  0  0  0  0  0  0  0  0
   20.7710   48.3864   18.9188 C   0  0  0  0  0  0  0  0  0  0  0  0
   17.7587   56.3045   24.3394 C   0  0  0  0  0  0  0  0  0  0  0  0
   16.7415   55.5494   23.7594 C   0  0  0  0  0  0  0  0  0  0  0  0
   23.1797   47.7365   18.8367 C   0  0  0  0  0  0  0  0  0  0  0  0
   18.2817   54.7304   22.1134 C   0  0  0  0  0  0  0  0  0  0  0  0
   16.3444   57.2378   26.1702 N   0  0  0  0  0  0  0  0  0  0  0  0
   19.4142   53.4837   15.7006 N   0  0  0  0  0  0  0  0  0  0  0  0
   20.2654   52.0107   20.9658 O   0  0  0  0  0  0  0  0  0  0  0  0
   24.4024   46.7275   17.1919 O   0  0  0  0  0  0  0  0  0  0  0  0
   19.1165   52.5171   16.5772 C   0  0  0  0  0  0  0  0  0  0  0  0
   19.5414   50.2711   19.5738 O   0  0  0  0  0  0  0  0  0  0  0  0
   18.7730   53.8181   21.2645 C   0  0  0  0  0  0  0  0  0  0  0  0
   20.7838   49.6213   19.5554 C   0  0  0  0  0  0  0  0  0  0  0  0
   21.8018   47.5712   18.6214 C   0  0  0  0  0  0  0  0  0  0  0  0
   19.9591   53.2068   21.4271 N   0  0  0  0  0  0  0  0  0  0  0  0
   23.7318   48.8177   19.4805 C   0  0  0  0  0  0  0  0  0  0  0  0
   16.9795   54.7488   22.6100 C   0  0  0  0  0  0  0  0  0  0  0  0
   18.7184   52.9546   17.8078 O   0  0  0  0  0  0  0  0  0  0  0  0
   18.6241   57.4061   26.3194 O   0  0  0  0  0  0  0  0  0  0  0  0
   19.1659   51.2402   16.2908 O   0  0  0  0  0  0  0  0  0  0  0  0
   24.1071   46.7048   18.3327 C   0  0  0  0  0  0  0  0  0  0  0  0
   24.6775   45.8673   19.2650 N   0  0  0  0  0  0  0  0  0  0  0  0
   21.9221   50.2190   20.0677 C   0  0  0  0  0  0  0  0  0  0  0  0
   23.2183   49.9060   20.0719 C   0  0  0  0  0  0  0  0  0  0  0  0
   17.5960   57.0159   25.6640 C   0  0  0  0  0  0  0  0  0  0  0  0
   19.2045   55.6058   22.5503 C   0  0  0  0  0  0  0  0  0  0  0  0
   19.6515   53.8000   14.4192 C   0  0  0  0  0  0  0  0  0  0  0  0
  1 32  2  0
  2  7  2  0
  2 31  1  0
  3 32  1  0
  4  5  1  0
  4 23  1  0
  5 13  1  0
  5 16  1  0
  6 18  1  0
  6 19  2  0
  7  8  1  0
  7 30  1  0
  8 22  2  0
  9 19  1  0
  9 21  2  0
  9 26  1  0
 10 17  1  0
 10 22  1  0
 10 31  2  0
 11 30  1  0
 12 15  1  0
 12 32  1  0
 13 20  1  0
 14 26  2  0
 15 23  1  0
 15 25  2  0
 16 18  1  0
 17 20  1  0
 18 28  1  0
 21 29  1  0
 24 30  2  0
 26 27  1  0
 28 29  2  0
M  END
>  <ID>  (1) 
conformer_0

$$$$
