
     RDKit          3D

 36 39  0  0  0  0  0  0  0  0999 V2000
   19.4576   48.9269   20.1503 C   0  0  0  0  0  0  0  0  0  0  0  0
   20.0293   53.1491   18.8423 C   0  0  0  0  0  0  0  0  0  0  0  0
   17.4688   56.0704   24.0022 C   0  0  0  0  0  0  0  0  0  0  0  0
   24.1683   46.0805   19.3020 C   0  0  0  0  0  0  0  0  0  0  0  0
   25.5526   47.7920   18.3053 C   0  0  0  0  0  0  0  0  0  0  0  0
   24.2852   47.5939   19.0417 C   0  0  0  0  0  0  0  0  0  0  0  0
   20.5871   49.3073   19.1549 C   0  0  0  0  0  0  0  0  0  0  0  0
   18.0037   53.9412   20.2361 C   0  0  0  0  0  0  0  0  0  0  0  0
   20.6881   48.2048   18.0760 C   0  0  0  0  0  0  0  0  0  0  0  0
   19.0526   50.3702   17.7683 O   0  0  0  0  0  0  0  0  0  0  0  0
   22.0783   50.1497   22.3299 C   0  0  0  0  0  0  0  0  0  0  0  0
   17.6517   52.8232   19.0659 C   0  0  0  0  0  0  0  0  0  0  0  0
   23.4914   49.6769   20.1664 C   0  0  0  0  0  0  0  0  0  0  0  0
   21.9167   49.3278   19.9095 C   0  0  0  0  0  0  0  0  0  0  0  0
   18.7472   52.8597   18.0557 C   0  0  0  0  0  0  0  0  0  0  0  0
   16.5279   57.5093   25.5773 F   0  0  0  0  0  0  0  0  0  0  0  0
   20.2363   50.5956   18.4724 C   0  0  0  0  0  0  0  0  0  0  0  0
   23.1446   47.9324   17.9486 C   0  0  0  0  0  0  0  0  0  0  0  0
   24.3875   48.4428   20.4512 C   0  0  0  0  0  0  0  0  0  0  0  0
   21.3799   50.4567   20.9493 C   0  0  0  0  0  0  0  0  0  0  0  0
   18.6281   56.2077   23.3012 C   0  0  0  0  0  0  0  0  0  0  0  0
   18.7559   55.5693   22.1038 C   0  0  0  0  0  0  0  0  0  0  0  0
   17.7556   54.7694   21.5181 C   0  0  0  0  0  0  0  0  0  0  0  0
   16.3873   55.3998   23.4410 C   0  0  0  0  0  0  0  0  0  0  0  0
   16.5307   54.7391   22.1830 C   0  0  0  0  0  0  0  0  0  0  0  0
   19.4548   53.9470   19.9295 O   0  0  0  0  0  0  0  0  0  0  0  0
   19.5177   47.5133   17.8007 O   0  0  0  0  0  0  0  0  0  0  0  0
   21.8322   47.3171   18.5340 C   0  0  0  0  0  0  0  0  0  0  0  0
   18.9167   52.9161   16.7762 O   0  0  0  0  0  0  0  0  0  0  0  0
   19.9659   55.6823   21.3765 O   0  0  0  0  0  0  0  0  0  0  0  0
   17.3813   56.5759   25.3114 C   0  0  0  0  0  0  0  0  0  0  0  0
   20.3815   54.3656   20.9247 C   0  0  0  0  0  0  0  0  0  0  0  0
   20.7507   53.3749   21.9732 C   0  0  0  0  0  0  0  0  0  0  0  0
   20.8982   51.8879   18.7543 C   0  0  0  0  0  0  0  0  0  0  0  0
   18.1463   56.0058   26.1784 F   0  0  0  0  0  0  0  0  0  0  0  0
   21.8863   47.7299   20.0832 C   0  0  0  0  0  0  0  0  0  0  0  0
  1  7  1  0
  2 15  1  0
  2 26  1  0
  2 34  1  0
  3 21  2  0
  3 24  1  0
  3 31  1  0
  4  6  1  0
  5  6  1  0
  6 18  1  0
  6 19  1  0
  7  9  1  0
  7 14  1  0
  7 17  1  0
  8 12  1  0
  8 23  1  0
  9 27  1  0
  9 28  1  0
 10 17  1  0
 11 20  1  0
 12 15  1  0
 13 14  1  0
 13 19  1  0
 14 20  1  0
 14 36  1  0
 15 29  1  0
 16 31  1  0
 17 34  1  0
 18 28  1  0
 21 22  1  0
 22 23  2  0
 22 30  1  0
 23 25  1  0
 24 25  2  0
 26 32  1  0
 28 36  1  0
 30 32  1  0
 31 35  1  0
 32 33  1  0
M  END
>  <ID>  (1) 
conformer_0

$$$$
