
     RDKit          3D

 46 53  0  0  0  0  0  0  0  0999 V2000
   19.1501   55.3440   21.5799 C   0  0  0  0  0  0  0  0  0  0  0  0
   19.3086   56.4750   24.0197 C   0  0  0  0  0  0  0  0  0  0  0  0
   18.2253   57.1536   26.0934 C   0  0  0  0  0  0  0  0  0  0  0  0
   19.2661   51.2663   19.1582 C   0  0  0  0  0  0  0  0  0  0  0  0
   18.8617   55.8232   22.8926 C   0  0  0  0  0  0  0  0  0  0  0  0
   17.2318   54.5160   20.3953 N   0  0  0  0  0  0  0  0  0  0  0  0
   21.6230   55.2318   17.1205 C   0  0  0  0  0  0  0  0  0  0  0  0
   20.7068   49.5336   19.8703 C   0  0  0  0  0  0  0  0  0  0  0  0
   15.8566   56.7424   26.2273 C   0  0  0  0  0  0  0  0  0  0  0  0
   18.2048   56.6468   24.8493 C   0  0  0  0  0  0  0  0  0  0  0  0
   25.3109   48.1654   18.4453 C   0  0  0  0  0  0  0  0  0  0  0  0
   25.6489   44.7831   19.3802 F   0  0  0  0  0  0  0  0  0  0  0  0
   18.2111   51.6410   18.4140 O   0  0  0  0  0  0  0  0  0  0  0  0
   17.3674   55.6019   22.9574 C   0  0  0  0  0  0  0  0  0  0  0  0
   17.5422   55.0184   21.6462 C   0  0  0  0  0  0  0  0  0  0  0  0
   21.2811   48.2760   19.7685 O   0  0  0  0  0  0  0  0  0  0  0  0
   15.8750   56.1703   24.9422 C   0  0  0  0  0  0  0  0  0  0  0  0
   17.0447   57.2199   26.8170 C   0  0  0  0  0  0  0  0  0  0  0  0
   19.2745   54.2867   19.0698 C   0  0  0  0  0  0  0  0  0  0  0  0
   17.0461   56.1289   24.2163 C   0  0  0  0  0  0  0  0  0  0  0  0
   21.6137   47.4912   18.6887 C   0  0  0  0  0  0  0  0  0  0  0  0
   19.5972   49.0290   17.8368 C   0  0  0  0  0  0  0  0  0  0  0  0
   21.0399   50.2409   21.0124 C   0  0  0  0  0  0  0  0  0  0  0  0
   19.4907   53.4406   20.2444 C   0  0  0  0  0  0  0  0  0  0  0  0
   20.2023   56.2894   20.9464 C   0  0  0  0  0  0  0  0  0  0  0  0
   20.5925   47.8737   17.7136 N   0  0  0  0  0  0  0  0  0  0  0  0
   25.0868   45.9519   19.0790 C   0  0  0  0  0  0  0  0  0  0  0  0
   25.9053   46.9972   18.8116 C   0  0  0  0  0  0  0  0  0  0  0  0
   18.1350   54.9874   19.3331 N   0  0  0  0  0  0  0  0  0  0  0  0
   20.5295   56.5093   12.3292 O   0  0  0  0  0  0  0  0  0  0  0  0
   20.2837   54.8562   16.8300 C   0  0  0  0  0  0  0  0  0  0  0  0
   22.3841   55.8241   16.1113 C   0  0  0  0  0  0  0  0  0  0  0  0
   23.9514   48.2844   18.4026 C   0  0  0  0  0  0  0  0  0  0  0  0
   20.5475   51.5110   21.1440 C   0  0  0  0  0  0  0  0  0  0  0  0
   23.0965   47.2535   18.7225 C   0  0  0  0  0  0  0  0  0  0  0  0
   19.7935   49.9947   18.9330 C   0  0  0  0  0  0  0  0  0  0  0  0
   19.7063   55.2113   15.5898 C   0  0  0  0  0  0  0  0  0  0  0  0
   23.6991   46.0521   19.0771 C   0  0  0  0  0  0  0  0  0  0  0  0
   18.6461   57.1678   13.5298 C   0  0  0  0  0  0  0  0  0  0  0  0
   19.5902   54.0439   17.7364 O   0  0  0  0  0  0  0  0  0  0  0  0
   21.8099   56.1500   14.8907 C   0  0  0  0  0  0  0  0  0  0  0  0
   19.8651   56.4571   13.3689 C   0  0  0  0  0  0  0  0  0  0  0  0
   19.7066   54.0008   21.5767 C   0  0  0  0  0  0  0  0  0  0  0  0
   19.7628   52.0697   20.2021 C   0  0  0  0  0  0  0  0  0  0  0  0
   20.0841   53.5239   22.7595 O   0  0  0  0  0  0  0  0  0  0  0  0
   20.4560   55.9192   14.6154 C   0  0  0  0  0  0  0  0  0  0  0  0
  1  5  1  0
  1 15  1  0
  1 25  1  0
  1 43  1  0
  2  5  1  0
  2 10  1  0
  3 10  1  0
  3 18  2  0
  4 13  1  0
  4 36  2  0
  4 44  1  0
  5 14  2  0
  6 15  1  0
  6 29  1  0
  7 31  2  0
  7 32  1  0
  8 16  1  0
  8 23  2  0
  8 36  1  0
  9 17  2  0
  9 18  1  0
 10 20  2  0
 11 28  2  0
 11 33  1  0
 12 27  1  0
 14 15  1  0
 14 20  1  0
 16 21  1  0
 17 20  1  0
 19 24  1  0
 19 29  1  0
 19 40  1  0
 21 26  1  0
 21 35  1  0
 22 26  2  0
 22 36  1  0
 23 34  1  0
 24 43  1  0
 24 44  1  0
 27 28  1  0
 27 38  2  0
 30 42  2  0
 31 37  1  0
 31 40  1  0
 32 41  2  0
 33 35  2  0
 34 44  2  0
 35 38  1  0
 37 46  2  0
 39 42  1  0
 41 46  1  0
 42 46  1  0
 43 45  1  0
M  END
>  <ID>  (1) 
conformer_0

$$$$
