
     RDKit          3D

 29 30  0  0  0  0  0  0  0  0999 V2000
   24.9458   48.0870   18.3123 C   0  0  0  0  0  0  0  0  0  0  0  0
   19.6291   50.5931   18.2689 C   0  0  0  0  0  0  0  0  0  0  0  0
   19.1160   53.3729   17.6295 C   0  0  0  0  0  0  0  0  0  0  0  0
   25.3848   46.8011   18.5771 C   0  0  0  0  0  0  0  0  0  0  0  0
   19.6966   53.0426   18.9323 C   0  0  0  0  0  0  0  0  0  0  0  0
   16.9313   56.1912   25.2898 C   0  0  0  0  0  0  0  0  0  0  0  0
   18.1012   56.6489   24.5265 C   0  0  0  0  0  0  0  0  0  0  0  0
   20.0868   55.0006   20.6961 F   0  0  0  0  0  0  0  0  0  0  0  0
   18.9045   50.7616   17.0284 C   0  0  0  0  0  0  0  0  0  0  0  0
   20.2180   53.0623   21.5992 F   0  0  0  0  0  0  0  0  0  0  0  0
   18.6404   53.4842   19.8873 C   0  0  0  0  0  0  0  0  0  0  0  0
   20.1148   51.5618   19.1003 C   0  0  0  0  0  0  0  0  0  0  0  0
   22.8828   47.6818   19.4195 C   0  0  0  0  0  0  0  0  0  0  0  0
   18.3870   54.0576   22.2157 C   0  0  0  0  0  0  0  0  0  0  0  0
   19.0114   57.3205   25.1610 O   0  0  0  0  0  0  0  0  0  0  0  0
   20.9678   49.3103   19.5571 C   0  0  0  0  0  0  0  0  0  0  0  0
   16.6401   56.9951   26.5377 C   0  0  0  0  0  0  0  0  0  0  0  0
   21.6042   48.1025   19.9452 O   0  0  0  0  0  0  0  0  0  0  0  0
   17.6344   55.0871   22.7171 C   0  0  0  0  0  0  0  0  0  0  0  0
   23.3203   46.3986   19.7333 C   0  0  0  0  0  0  0  0  0  0  0  0
   17.4903   52.6404   20.1324 C   0  0  0  0  0  0  0  0  0  0  0  0
   19.3244   53.9963   21.1344 C   0  0  0  0  0  0  0  0  0  0  0  0
   20.8394   53.7864   19.0466 F   0  0  0  0  0  0  0  0  0  0  0  0
   23.7030   48.5290   18.6761 C   0  0  0  0  0  0  0  0  0  0  0  0
   24.5629   45.9715   19.2960 C   0  0  0  0  0  0  0  0  0  0  0  0
   20.0260   49.3351   18.5811 C   0  0  0  0  0  0  0  0  0  0  0  0
   21.1530   50.7027   20.1234 O   0  0  0  0  0  0  0  0  0  0  0  0
   18.3383   56.2271   23.1967 C   0  0  0  0  0  0  0  0  0  0  0  0
   19.4191   56.6231   22.5669 O   0  0  0  0  0  0  0  0  0  0  0  0
  1  4  2  0
  1 24  1  0
  2  9  1  0
  2 12  2  0
  2 26  1  0
  3  5  1  0
  4 25  1  0
  5 11  1  0
  5 12  1  0
  5 23  1  0
  6  7  1  0
  6 17  1  0
  7 15  1  0
  7 28  1  0
  8 22  1  0
 10 22  1  0
 11 21  1  0
 11 22  1  0
 12 27  1  0
 13 18  1  0
 13 20  1  0
 13 24  2  0
 14 19  1  0
 14 22  1  0
 16 18  1  0
 16 26  1  0
 16 27  1  0
 19 28  1  0
 20 25  2  0
 28 29  1  0
M  END
>  <ID>  (1) 
conformer_0

$$$$
