
     RDKit          3D

 33 38  0  0  0  0  0  0  0  0999 V2000
   21.1702   51.0257   21.4487 O   0  0  0  0  0  0  0  0  0  0  0  0
   24.4273   46.5498   18.9462 C   0  0  0  0  0  0  0  0  0  0  0  0
   17.5236   55.9440   25.0422 C   0  0  0  0  0  0  0  0  0  0  0  0
   19.5740   49.7938   15.9309 C   0  0  0  0  0  0  0  0  0  0  0  0
   16.5532   56.6925   25.6552 F   0  0  0  0  0  0  0  0  0  0  0  0
   19.4259   52.2571   20.0878 C   0  0  0  0  0  0  0  0  0  0  0  0
   20.8039   50.4839   19.3669 C   0  0  0  0  0  0  0  0  0  0  0  0
   20.1182   49.5836   17.1797 C   0  0  0  0  0  0  0  0  0  0  0  0
   19.6582   54.8863   20.2998 C   0  0  0  0  0  0  0  0  0  0  0  0
   18.1338   55.1693   22.3018 C   0  0  0  0  0  0  0  0  0  0  0  0
   19.0135   51.0237   15.6335 C   0  0  0  0  0  0  0  0  0  0  0  0
   18.0293   52.1688   20.3853 O   0  0  0  0  0  0  0  0  0  0  0  0
   18.3409   55.5087   26.0715 F   0  0  0  0  0  0  0  0  0  0  0  0
   21.7829   49.6950   19.8691 N   0  0  0  0  0  0  0  0  0  0  0  0
   19.4665   54.3610   18.9217 C   0  0  0  0  0  0  0  0  0  0  0  0
   16.9034   54.8140   24.3261 C   0  0  0  0  0  0  0  0  0  0  0  0
   21.9774   50.0515   21.1812 N   0  0  0  0  0  0  0  0  0  0  0  0
   20.4158   51.3225   20.3576 C   0  0  0  0  0  0  0  0  0  0  0  0
   19.5503   51.8523   17.8261 C   0  0  0  0  0  0  0  0  0  0  0  0
   20.1429   50.6374   18.1150 C   0  0  0  0  0  0  0  0  0  0  0  0
   18.9992   52.0461   16.5516 C   0  0  0  0  0  0  0  0  0  0  0  0
   19.4140   53.4195   22.1832 O   0  0  0  0  0  0  0  0  0  0  0  0
   18.8585   56.1358   22.9948 C   0  0  0  0  0  0  0  0  0  0  0  0
   23.7549   48.8392   18.6704 C   0  0  0  0  0  0  0  0  0  0  0  0
   17.6459   53.5795   20.5109 C   0  0  0  0  0  0  0  0  0  0  0  0
   18.3232   56.7258   24.1196 C   0  0  0  0  0  0  0  0  0  0  0  0
   16.9265   54.7637   22.9199 C   0  0  0  0  0  0  0  0  0  0  0  0
   22.4204   47.3770   19.9343 C   0  0  0  0  0  0  0  0  0  0  0  0
   19.5006   52.9178   18.7892 C   0  0  0  0  0  0  0  0  0  0  0  0
   18.7273   54.2545   21.3000 C   0  0  0  0  0  0  0  0  0  0  0  0
   24.6078   47.7924   18.3815 C   0  0  0  0  0  0  0  0  0  0  0  0
   22.6514   48.6517   19.4742 C   0  0  0  0  0  0  0  0  0  0  0  0
   23.2637   46.3544   19.6671 C   0  0  0  0  0  0  0  0  0  0  0  0
  1 17  1  0
  1 18  1  0
  2 31  2  0
  2 33  1  0
  3  5  1  0
  3 13  1  0
  3 16  1  0
  3 26  1  0
  4  8  2  0
  4 11  1  0
  6 12  1  0
  6 18  1  0
  6 29  1  0
  7 14  1  0
  7 18  2  0
  7 20  1  0
  8 20  1  0
  9 15  1  0
  9 30  1  0
 10 23  2  0
 10 27  1  0
 10 30  1  0
 11 21  2  0
 12 25  1  0
 14 17  1  0
 14 32  1  0
 15 29  2  0
 16 27  1  0
 19 20  2  0
 19 21  1  0
 19 29  1  0
 22 30  1  0
 23 26  1  0
 24 31  1  0
 24 32  2  0
 25 30  1  0
 28 32  1  0
 28 33  2  0
M  END
>  <ID>  (1) 
conformer_0

$$$$
