
     RDKit          3D

 31 35  0  0  0  0  0  0  0  0999 V2000
   16.8286   56.5850   23.4625 C   0  0  0  0  0  0  0  0  0  0  0  0
   18.9196   53.2725   21.4666 N   0  0  0  0  0  0  0  0  0  0  0  0
   23.2923   47.6310   18.9207 C   0  0  0  0  0  0  0  0  0  0  0  0
   20.2034   55.3500   18.8773 N   0  0  0  0  0  0  0  0  0  0  0  0
   20.7013   50.1217   19.3680 C   0  0  0  0  0  0  0  0  0  0  0  0
   18.6610   54.4955   21.9089 C   0  0  0  0  0  0  0  0  0  0  0  0
   21.9183   48.0531   19.0733 C   0  0  0  0  0  0  0  0  0  0  0  0
   24.2731   48.5894   19.0550 C   0  0  0  0  0  0  0  0  0  0  0  0
   16.9104   56.0416   26.1515 C   0  0  0  0  0  0  0  0  0  0  0  0
   19.5270   53.4118   20.2609 C   0  0  0  0  0  0  0  0  0  0  0  0
   24.8586   45.9752   18.4034 C   0  0  0  0  0  0  0  0  0  0  0  0
   19.8329   52.2757   19.5057 C   0  0  0  0  0  0  0  0  0  0  0  0
   25.5458   48.2316   18.8380 C   0  0  0  0  0  0  0  0  0  0  0  0
   19.6822   47.3572   18.2672 C   0  0  0  0  0  0  0  0  0  0  0  0
   19.2064   48.5912   18.0840 C   0  0  0  0  0  0  0  0  0  0  0  0
   20.9180   47.2036   18.6945 C   0  0  0  0  0  0  0  0  0  0  0  0
   19.2616   52.0890   18.2604 C   0  0  0  0  0  0  0  0  0  0  0  0
   19.1444   55.4090   21.0124 N   0  0  0  0  0  0  0  0  0  0  0  0
   19.7474   49.7924   18.3974 C   0  0  0  0  0  0  0  0  0  0  0  0
   23.5741   46.3301   18.5598 C   0  0  0  0  0  0  0  0  0  0  0  0
   16.2448   57.4564   24.3489 C   0  0  0  0  0  0  0  0  0  0  0  0
   20.5563   54.9440   17.4814 O   0  0  0  0  0  0  0  0  0  0  0  0
   17.4363   55.4599   23.9398 C   0  0  0  0  0  0  0  0  0  0  0  0
   20.6128   51.2884   20.0749 C   0  0  0  0  0  0  0  0  0  0  0  0
   21.7449   49.2799   19.6447 C   0  0  0  0  0  0  0  0  0  0  0  0
   18.0218   54.5769   23.1107 C   0  0  0  0  0  0  0  0  0  0  0  0
   19.1207   50.8605   17.6779 C   0  0  0  0  0  0  0  0  0  0  0  0
   16.3053   57.2176   25.7123 C   0  0  0  0  0  0  0  0  0  0  0  0
   17.4630   55.1740   25.2745 C   0  0  0  0  0  0  0  0  0  0  0  0
   25.8468   46.9257   18.5366 C   0  0  0  0  0  0  0  0  0  0  0  0
   19.6728   54.7376   19.9874 C   0  0  0  0  0  0  0  0  0  0  0  0
  1 21  2  0
  1 23  1  0
  2  6  1  0
  2 10  1  0
  3  7  2  3
  3  8  1  0
  3 20  1  0
  4 22  1  0
  4 31  1  0
  5 19  1  0
  5 24  1  0
  5 25  2  0
  6 18  1  0
  6 26  2  3
  7 16  1  0
  7 25  1  0
  8 13  2  0
  9 28  2  0
  9 29  1  0
 10 12  1  0
 10 31  2  0
 11 20  2  0
 11 30  1  0
 12 17  1  0
 12 24  2  0
 13 30  1  0
 14 15  1  0
 14 16  2  0
 15 19  1  0
 17 27  1  0
 18 31  1  0
 19 27  1  0
 21 28  1  0
 23 26  1  0
 23 29  2  0
M  END
>  <ID>  (1) 
conformer_0

$$$$
