
     RDKit          3D

 46 51  0  0  0  0  0  0  0  0999 V2000
   19.8490   47.3629   18.2120 C   0  0  0  0  0  0  0  0  0  0  0  0
   17.9056   48.5278   19.9942 O   0  0  0  0  0  0  0  0  0  0  0  0
   19.4909   54.0959   16.3913 C   0  0  0  0  0  0  0  0  0  0  0  0
   20.5896   55.1531   20.6343 C   0  0  0  0  0  0  0  0  0  0  0  0
   18.7894   57.0742   25.8889 C   0  0  0  0  0  0  0  0  0  0  0  0
   25.3849   46.4491   18.5942 C   0  0  0  0  0  0  0  0  0  0  0  0
   23.1202   47.0646   19.1341 C   0  0  0  0  0  0  0  0  0  0  0  0
   21.6610   50.1232   20.1988 C   0  0  0  0  0  0  0  0  0  0  0  0
   21.8270   55.5974   17.0302 C   0  0  0  0  0  0  0  0  0  0  0  0
   16.1467   56.0799   25.3105 C   0  0  0  0  0  0  0  0  0  0  0  0
   19.0840   55.4751   20.8814 C   0  0  0  0  0  0  0  0  0  0  0  0
   19.9889   57.3618   26.4878 O   0  0  0  0  0  0  0  0  0  0  0  0
   17.7784   54.8378   21.1998 N   0  0  0  0  0  0  0  0  0  0  0  0
   18.3875   53.3501   16.2218 O   0  0  0  0  0  0  0  0  0  0  0  0
   17.0594   54.7070   22.4641 C   0  0  0  0  0  0  0  0  0  0  0  0
   19.1232   56.5916   21.8860 C   0  0  0  0  0  0  0  0  0  0  0  0
   17.7930   53.5675   19.2834 C   0  0  0  0  0  0  0  0  0  0  0  0
   24.0859   46.1252   18.8028 C   0  0  0  0  0  0  0  0  0  0  0  0
   21.5312   55.2602   15.6846 C   0  0  0  0  0  0  0  0  0  0  0  0
   24.7673   48.7610   19.0394 C   0  0  0  0  0  0  0  0  0  0  0  0
   16.2219   56.6185   23.9012 C   0  0  0  0  0  0  0  0  0  0  0  0
   19.7265   54.5809   17.6532 C   0  0  0  0  0  0  0  0  0  0  0  0
   18.5897   56.3583   23.1966 C   0  0  0  0  0  0  0  0  0  0  0  0
   18.9845   49.1464   19.7680 C   0  0  0  0  0  0  0  0  0  0  0  0
   19.5148   52.8732   21.1641 C   0  0  0  0  0  0  0  0  0  0  0  0
   20.6185   52.0909   21.3094 C   0  0  0  0  0  0  0  0  0  0  0  0
   22.4654   49.4228   19.7665 C   0  0  0  0  0  0  0  0  0  0  0  0
   18.1992   51.3217   20.0037 C   0  0  0  0  0  0  0  0  0  0  0  0
   19.4150   57.7027   21.4357 O   0  0  0  0  0  0  0  0  0  0  0  0
   21.5221   55.8996   21.3879 O   0  0  0  0  0  0  0  0  0  0  0  0
   20.1279   48.4519   19.2423 C   0  0  0  0  0  0  0  0  0  0  0  0
   26.9706   48.1315   18.4604 F   0  0  0  0  0  0  0  0  0  0  0  0
   17.6414   57.2311   26.9033 C   0  0  0  0  0  0  0  0  0  0  0  0
   20.5315   50.9023   20.5614 C   0  0  0  0  0  0  0  0  0  0  0  0
   17.1692   55.9541   23.1013 C   0  0  0  0  0  0  0  0  0  0  0  0
   16.2594   57.2143   26.3291 C   0  0  0  0  0  0  0  0  0  0  0  0
   18.5913   54.4999   18.5204 C   0  0  0  0  0  0  0  0  0  0  0  0
   16.8589   54.3446   20.1631 C   0  0  0  0  0  0  0  0  0  0  0  0
   19.2502   50.4766   20.1402 C   0  0  0  0  0  0  0  0  0  0  0  0
   20.9238   55.1971   18.0018 C   0  0  0  0  0  0  0  0  0  0  0  0
   21.2988   49.0175   19.6115 N   0  0  0  0  0  0  0  0  0  0  0  0
   18.5267   52.6146   20.2405 C   0  0  0  0  0  0  0  0  0  0  0  0
   20.3845   54.4908   15.3714 C   0  0  0  0  0  0  0  0  0  0  0  0
   18.9150   56.9158   24.4689 C   0  0  0  0  0  0  0  0  0  0  0  0
   25.6798   47.7967   18.7143 C   0  0  0  0  0  0  0  0  0  0  0  0
   23.4702   48.3853   19.3178 C   0  0  0  0  0  0  0  0  0  0  0  0
  1 31  1  0
  2 24  2  0
  3 14  1  0
  3 22  2  0
  3 43  1  0
  4 11  1  0
  4 30  1  0
  5 12  1  0
  5 33  2  0
  5 44  1  0
  6 18  2  0
  6 45  1  0
  7 18  1  0
  7 46  2  0
  8 27  2  0
  8 34  2  0
  9 19  1  0
  9 40  2  0
 10 21  1  0
 10 36  1  0
 11 13  1  0
 11 16  1  0
 13 15  1  0
 13 38  1  0
 15 35  1  0
 16 23  1  0
 16 29  2  0
 17 37  1  0
 17 38  1  0
 17 42  1  0
 19 43  2  0
 20 45  2  0
 20 46  1  0
 21 35  1  0
 22 37  1  0
 22 40  1  0
 23 35  1  0
 23 44  1  0
 24 31  1  0
 24 39  1  0
 25 26  1  0
 25 42  1  0
 26 34  1  0
 27 41  1  0
 27 46  1  0
 28 39  1  0
 28 42  1  0
 31 41  1  0
 32 45  1  0
 33 36  1  0
 34 39  1  0
M  END
>  <ID>  (1) 
conformer_0

$$$$
