
     RDKit          3D

 37 42  0  0  0  0  0  0  0  0999 V2000
   15.6494   57.1548   24.6029 F   0  0  0  0  0  0  0  0  0  0  0  0
   16.8510   56.7742   25.0714 C   0  0  0  0  0  0  0  0  0  0  0  0
   17.6287   54.0887   22.4859 C   0  0  0  0  0  0  0  0  0  0  0  0
   19.8314   52.1140   19.4116 C   0  0  0  0  0  0  0  0  0  0  0  0
   16.7778   55.9019   26.1460 F   0  0  0  0  0  0  0  0  0  0  0  0
   19.3380   55.7823   22.3766 C   0  0  0  0  0  0  0  0  0  0  0  0
   21.1635   50.0704   19.8243 C   0  0  0  0  0  0  0  0  0  0  0  0
   19.4640   52.8930   16.9876 C   0  0  0  0  0  0  0  0  0  0  0  0
   25.7116   47.8971   18.8580 N   0  0  0  0  0  0  0  0  0  0  0  0
   24.7579   48.8600   19.1121 C   0  0  0  0  0  0  0  0  0  0  0  0
   23.0794   47.2411   18.7843 C   0  0  0  0  0  0  0  0  0  0  0  0
   23.4214   48.5780   19.1312 C   0  0  0  0  0  0  0  0  0  0  0  0
   21.1430   48.5359   18.9884 C   0  0  0  0  0  0  0  0  0  0  0  0
   17.3217   57.9454   25.6467 F   0  0  0  0  0  0  0  0  0  0  0  0
   18.9265   51.8205   16.4762 O   0  0  0  0  0  0  0  0  0  0  0  0
   22.2435   49.3365   19.3413 C   0  0  0  0  0  0  0  0  0  0  0  0
   19.6659   48.5472   18.5084 C   0  0  0  0  0  0  0  0  0  0  0  0
   19.1647   49.9684   18.3562 C   0  0  0  0  0  0  0  0  0  0  0  0
   19.6394   53.9632   16.1228 C   0  0  0  0  0  0  0  0  0  0  0  0
   20.1782   54.3515   18.7882 C   0  0  0  0  0  0  0  0  0  0  0  0
   24.0011   46.2656   18.5425 C   0  0  0  0  0  0  0  0  0  0  0  0
   18.7091   56.5169   23.4183 C   0  0  0  0  0  0  0  0  0  0  0  0
   16.9993   54.8429   23.4574 C   0  0  0  0  0  0  0  0  0  0  0  0
   21.3984   50.5580   21.0913 O   0  0  0  0  0  0  0  0  0  0  0  0
   20.2469   55.1399   16.5485 C   0  0  0  0  0  0  0  0  0  0  0  0
   20.5725   55.3636   17.8886 C   0  0  0  0  0  0  0  0  0  0  0  0
   19.5609   52.5548   20.6769 N   0  0  0  0  0  0  0  0  0  0  0  0
   18.8029   54.5552   21.9812 C   0  0  0  0  0  0  0  0  0  0  0  0
   19.8248   53.0774   18.3546 C   0  0  0  0  0  0  0  0  0  0  0  0
   18.8308   47.9054   19.5154 O   0  0  0  0  0  0  0  0  0  0  0  0
   25.3369   46.5920   18.5638 C   0  0  0  0  0  0  0  0  0  0  0  0
   20.4052   56.3354   21.8634 O   0  0  0  0  0  0  0  0  0  0  0  0
   17.5477   56.0226   23.9651 C   0  0  0  0  0  0  0  0  0  0  0  0
   20.0871   54.6802   20.0541 N   0  0  0  0  0  0  0  0  0  0  0  0
   21.6899   47.1934   18.7410 C   0  0  0  0  0  0  0  0  0  0  0  0
   20.0462   50.7425   19.2317 N   0  0  0  0  0  0  0  0  0  0  0  0
   19.4898   53.8754   20.9255 C   0  0  0  0  0  0  0  0  0  0  0  0
  1  2  1  0
  2  5  1  0
  2 14  1  0
  2 33  1  0
  3 23  2  0
  3 28  1  0
  4 27  2  0
  4 29  1  0
  4 36  1  0
  6 22  1  0
  6 28  2  0
  6 32  1  0
  7 16  1  0
  7 24  2  0
  7 36  1  0
  8 15  1  0
  8 19  2  0
  8 29  1  0
  9 10  2  0
  9 31  1  0
 10 12  1  0
 11 12  1  0
 11 21  2  0
 11 35  1  0
 12 16  1  0
 13 16  1  0
 13 17  1  0
 13 35  1  0
 17 18  1  0
 17 30  1  0
 18 36  1  0
 19 25  1  0
 20 26  1  0
 20 29  1  0
 20 34  2  0
 21 31  1  0
 22 33  2  0
 23 33  1  0
 25 26  2  0
 27 37  1  0
 28 37  1  0
 34 37  1  0
M  END
>  <ID>  (1) 
conformer_0

$$$$
