
     RDKit          3D

 57 65  0  0  0  0  0  0  0  0999 V2000
   25.5778   47.6331   18.6364 C   0  0  0  0  0  0  0  0  0  0  0  0
   20.9566   57.1261   20.7981 C   0  0  0  0  0  0  0  0  0  0  0  0
   23.9917   56.5138   15.9612 C   0  0  0  0  0  0  0  0  0  0  0  0
   18.4629   55.7978   23.2538 C   0  0  0  0  0  0  0  0  0  0  0  0
   20.5199   51.7770   21.3917 N   0  0  0  0  0  0  0  0  0  0  0  0
   21.3030   48.3142   19.9688 C   0  0  0  0  0  0  0  0  0  0  0  0
   19.6261   49.8424   14.0972 C   0  0  0  0  0  0  0  0  0  0  0  0
   19.5688   53.8902   22.3008 C   0  0  0  0  0  0  0  0  0  0  0  0
   19.4853   50.5770   18.1458 N   0  0  0  0  0  0  0  0  0  0  0  0
   19.3514   48.9355   16.2872 C   0  0  0  0  0  0  0  0  0  0  0  0
   21.8337   56.6448   19.6485 C   0  0  0  0  0  0  0  0  0  0  0  0
   20.1587   56.8629   21.9206 C   0  0  0  0  0  0  0  0  0  0  0  0
   23.1845   56.6298   17.0961 C   0  0  0  0  0  0  0  0  0  0  0  0
   16.3209   55.1019   21.5475 O   0  0  0  0  0  0  0  0  0  0  0  0
   25.4043   58.2817   16.7617 C   0  0  0  0  0  0  0  0  0  0  0  0
   25.1004   57.2833   15.8073 C   0  0  0  0  0  0  0  0  0  0  0  0
   18.8530   53.0059   20.2081 C   0  0  0  0  0  0  0  0  0  0  0  0
   17.8341   58.2178   27.8650 C   0  0  0  0  0  0  0  0  0  0  0  0
   18.6628   57.8760   26.8489 C   0  0  0  0  0  0  0  0  0  0  0  0
   22.5938   47.6963   19.7185 C   0  0  0  0  0  0  0  0  0  0  0  0
   17.7148   53.8303   20.1931 C   0  0  0  0  0  0  0  0  0  0  0  0
   22.7485   57.6339   19.1974 O   0  0  0  0  0  0  0  0  0  0  0  0
   18.7868   52.9874   17.7301 C   0  0  0  0  0  0  0  0  0  0  0  0
   19.2517   50.3176   16.7785 C   0  0  0  0  0  0  0  0  0  0  0  0
   19.2744   51.1224   14.5713 C   0  0  0  0  0  0  0  0  0  0  0  0
   17.7173   54.0210   24.6418 F   0  0  0  0  0  0  0  0  0  0  0  0
   19.1651   52.2763   18.9603 C   0  0  0  0  0  0  0  0  0  0  0  0
   21.5377   49.7691   20.0565 C   0  0  0  0  0  0  0  0  0  0  0  0
   17.5993   54.6103   21.2701 N   0  0  0  0  0  0  0  0  0  0  0  0
   15.8758   56.9206   27.2245 C   0  0  0  0  0  0  0  0  0  0  0  0
   24.5705   58.4022   17.8940 C   0  0  0  0  0  0  0  0  0  0  0  0
   19.8615   51.2226   19.2113 N   0  0  0  0  0  0  0  0  0  0  0  0
   19.1467   47.3029   18.5235 C   0  0  0  0  0  0  0  0  0  0  0  0
   16.5296   57.7749   28.0556 C   0  0  0  0  0  0  0  0  0  0  0  0
   23.0588   46.4163   19.8700 C   0  0  0  0  0  0  0  0  0  0  0  0
   25.3847   46.3027   18.9795 C   0  0  0  0  0  0  0  0  0  0  0  0
   23.4799   57.5612   18.0623 C   0  0  0  0  0  0  0  0  0  0  0  0
   16.2707   56.2434   26.1551 C   0  0  0  0  0  0  0  0  0  0  0  0
   18.9907   56.3481   22.2363 C   0  0  0  0  0  0  0  0  0  0  0  0
   16.7067   53.7229   19.1853 C   0  0  0  0  0  0  0  0  0  0  0  0
   22.8755   49.9686   19.6667 C   0  0  0  0  0  0  0  0  0  0  0  0
   19.0236   51.3214   15.8900 C   0  0  0  0  0  0  0  0  0  0  0  0
   18.6470   54.9068   22.1762 C   0  0  0  0  0  0  0  0  0  0  0  0
   20.1232   47.3425   19.6226 C   0  0  0  0  0  0  0  0  0  0  0  0
   19.6608   52.8515   21.3329 C   0  0  0  0  0  0  0  0  0  0  0  0
   23.4848   48.7310   19.3901 C   0  0  0  0  0  0  0  0  0  0  0  0
   19.0381   47.6967   17.1157 C   0  0  0  0  0  0  0  0  0  0  0  0
   24.2520   45.8408   19.5636 C   0  0  0  0  0  0  0  0  0  0  0  0
   18.5391   57.0609   25.8444 C   0  0  0  0  0  0  0  0  0  0  0  0
   19.4317   54.3969   17.5438 C   0  0  0  0  0  0  0  0  0  0  0  0
   19.6291   48.7679   14.9559 C   0  0  0  0  0  0  0  0  0  0  0  0
   17.7347   55.2906   24.3945 C   0  0  0  0  0  0  0  0  0  0  0  0
   26.0261   57.0698   14.7131 C   0  0  0  0  0  0  0  0  0  0  0  0
   18.3233   52.5686   16.3840 C   0  0  0  0  0  0  0  0  0  0  0  0
   24.7398   48.6085   18.9052 C   0  0  0  0  0  0  0  0  0  0  0  0
   20.6403   50.9597   20.3344 C   0  0  0  0  0  0  0  0  0  0  0  0
   17.4751   56.2070   25.4819 C   0  0  0  0  0  0  0  0  0  0  0  0
  1 36  1  0
  1 55  2  0
  2 11  1  0
  2 12  1  0
  3 13  2  0
  3 16  1  0
  4 39  1  0
  4 43  1  0
  4 52  1  0
  5 45  1  0
  5 56  2  0
  6 20  1  0
  6 28  1  0
  6 44  1  0
  7 25  1  0
  7 51  1  0
  8 43  1  0
  8 45  2  0
  9 24  1  0
  9 32  1  0
 10 24  1  0
 10 47  1  0
 10 51  2  0
 11 22  1  0
 12 39  1  0
 13 37  1  0
 14 29  1  0
 15 16  2  0
 15 31  1  0
 16 53  1  0
 17 21  1  0
 17 27  1  0
 17 45  1  0
 18 19  1  0
 18 34  2  0
 19 49  2  0
 20 35  2  0
 20 46  1  0
 21 29  1  0
 21 40  1  0
 22 37  1  0
 23 27  1  0
 23 50  1  0
 23 54  1  0
 24 42  1  0
 25 42  2  0
 26 52  1  0
 27 32  1  0
 28 41  1  0
 28 56  1  0
 29 43  1  0
 30 34  1  0
 30 38  2  0
 31 37  2  0
 32 56  1  0
 33 44  1  0
 33 47  1  0
 35 48  1  0
 36 48  2  0
 38 57  1  0
 41 46  1  0
 42 54  1  0
 46 55  1  0
 49 57  1  0
 52 57  1  0
M  END
>  <ID>  (1) 
conformer_0

$$$$
