
     RDKit          3D

 46 52  0  0  0  0  0  0  0  0999 V2000
   22.8585   49.2803   20.1177 C   0  0  0  0  0  0  0  0  0  0  0  0
   19.0502   50.5126   17.1424 C   0  0  0  0  0  0  0  0  0  0  0  0
   17.7913   54.6133   21.4635 C   0  0  0  0  0  0  0  0  0  0  0  0
   23.1590   46.9567   18.6504 C   0  0  0  0  0  0  0  0  0  0  0  0
   18.8496   47.8661   18.3961 C   0  0  0  0  0  0  0  0  0  0  0  0
   22.1631   55.5386   14.8872 C   0  0  0  0  0  0  0  0  0  0  0  0
   19.2517   49.0218   19.2347 C   0  0  0  0  0  0  0  0  0  0  0  0
   19.1101   51.7986   16.6293 C   0  0  0  0  0  0  0  0  0  0  0  0
   18.2539   53.4991   19.8633 C   0  0  0  0  0  0  0  0  0  0  0  0
   16.4481   55.3056   24.7340 C   0  0  0  0  0  0  0  0  0  0  0  0
   16.2997   57.4501   26.9910 C   0  0  0  0  0  0  0  0  0  0  0  0
   17.6153   56.1160   24.6993 C   0  0  0  0  0  0  0  0  0  0  0  0
   18.2719   55.8885   23.4608 C   0  0  0  0  0  0  0  0  0  0  0  0
   19.5308   54.7758   15.7432 C   0  0  0  0  0  0  0  0  0  0  0  0
   19.0054   52.7077   18.8490 C   0  0  0  0  0  0  0  0  0  0  0  0
   18.2041   57.0817   25.6128 C   0  0  0  0  0  0  0  0  0  0  0  0
   19.6350   55.6729   14.5460 C   0  0  0  0  0  0  0  0  0  0  0  0
   21.3778   51.8570   22.9001 O   0  0  0  0  0  0  0  0  0  0  0  0
   20.4384   49.2365   20.2436 C   0  0  0  0  0  0  0  0  0  0  0  0
   20.7543   51.9317   21.6810 C   0  0  0  0  0  0  0  0  0  0  0  0
   19.0385   54.2073   20.8549 C   0  0  0  0  0  0  0  0  0  0  0  0
   19.5764   53.7310   18.1014 N   0  0  0  0  0  0  0  0  0  0  0  0
   24.3098   47.6107   19.0656 C   0  0  0  0  0  0  0  0  0  0  0  0
   21.8918   47.5018   18.9230 C   0  0  0  0  0  0  0  0  0  0  0  0
   19.0523   51.3898   19.3253 C   0  0  0  0  0  0  0  0  0  0  0  0
   19.5891   55.4794   20.7056 N   0  0  0  0  0  0  0  0  0  0  0  0
   22.4834   50.3329   20.9562 O   0  0  0  0  0  0  0  0  0  0  0  0
   21.2518   56.4580   12.9315 O   0  0  0  0  0  0  0  0  0  0  0  0
   20.3857   54.7870   18.0710 C   0  0  0  0  0  0  0  0  0  0  0  0
   17.2431   58.0517   26.0265 O   0  0  0  0  0  0  0  0  0  0  0  0
   25.6082   45.5003   18.9534 C   0  0  0  0  0  0  0  0  0  0  0  0
   19.9705   53.2370   21.5660 C   0  0  0  0  0  0  0  0  0  0  0  0
   21.7549   55.8038   16.3325 C   0  0  0  0  0  0  0  0  0  0  0  0
   24.1399   48.8027   19.7868 C   0  0  0  0  0  0  0  0  0  0  0  0
   19.8569   56.3347   21.7189 C   0  0  0  0  0  0  0  0  0  0  0  0
   21.2455   55.1241   18.8438 O   0  0  0  0  0  0  0  0  0  0  0  0
   19.2915   56.5444   22.9063 N   0  0  0  0  0  0  0  0  0  0  0  0
   25.6461   47.0219   18.7696 C   0  0  0  0  0  0  0  0  0  0  0  0
   19.0999   50.3301   18.5424 C   0  0  0  0  0  0  0  0  0  0  0  0
   19.2125   52.8382   17.5232 C   0  0  0  0  0  0  0  0  0  0  0  0
   17.5293   54.8882   22.8020 C   0  0  0  0  0  0  0  0  0  0  0  0
   20.9673   50.4698   21.0495 C   0  0  0  0  0  0  0  0  0  0  0  0
   21.7251   48.6361   19.6811 C   0  0  0  0  0  0  0  0  0  0  0  0
   20.5240   55.1484   16.6969 N   0  0  0  0  0  0  0  0  0  0  0  0
   20.9826   55.7704   14.0773 N   0  0  0  0  0  0  0  0  0  0  0  0
   16.4480   54.4983   23.5194 C   0  0  0  0  0  0  0  0  0  0  0  0
  1 27  1  0
  1 34  2  0
  1 43  1  0
  2  8  2  0
  2 39  1  0
  3 21  1  0
  3 41  1  0
  4 23  2  0
  4 24  1  0
  5  7  1  0
  6 33  1  0
  6 45  1  0
  7 19  1  0
  7 39  1  0
  8 40  1  0
  9 15  1  0
  9 21  1  0
 10 12  1  0
 10 46  1  0
 11 30  1  0
 12 13  1  0
 12 16  1  0
 13 37  1  0
 13 41  2  0
 14 17  1  0
 14 44  1  0
 15 25  1  0
 15 40  1  0
 16 30  1  0
 17 45  1  0
 18 20  1  0
 19 42  1  0
 19 43  1  0
 20 32  2  0
 20 42  1  0
 21 26  1  0
 21 32  1  0
 22 29  1  0
 22 40  1  0
 23 34  1  0
 23 38  1  0
 24 43  2  0
 25 39  2  0
 26 35  1  0
 27 42  1  0
 28 45  1  0
 29 36  2  0
 29 44  1  0
 31 38  1  0
 33 44  1  0
 35 37  2  0
 41 46  1  0
M  END
>  <ID>  (1) 
conformer_0

$$$$
