
     RDKit          3D

 39 45  0  0  0  0  0  0  0  0999 V2000
   20.6580   53.0520   21.3087 O   0  0  0  0  0  0  0  0  0  0  0  0
   19.6620   52.1691   18.1480 C   0  0  0  0  0  0  0  0  0  0  0  0
   17.4454   57.0304   26.4440 C   0  0  0  0  0  0  0  0  0  0  0  0
   19.5420   58.0076   25.8769 C   0  0  0  0  0  0  0  0  0  0  0  0
   18.5057   55.5902   23.2959 C   0  0  0  0  0  0  0  0  0  0  0  0
   22.9782   49.1515   19.6478 C   0  0  0  0  0  0  0  0  0  0  0  0
   18.4834   57.9179   26.7503 C   0  0  0  0  0  0  0  0  0  0  0  0
   19.5174   53.1553   20.6944 C   0  0  0  0  0  0  0  0  0  0  0  0
   25.0980   45.6134   18.9965 C   0  0  0  0  0  0  0  0  0  0  0  0
   19.4254   52.4276   16.7612 C   0  0  0  0  0  0  0  0  0  0  0  0
   22.9032   47.4289   17.9725 C   0  0  0  0  0  0  0  0  0  0  0  0
   19.0441   48.0728   16.3274 O   0  0  0  0  0  0  0  0  0  0  0  0
   20.4863   50.5676   21.0329 O   0  0  0  0  0  0  0  0  0  0  0  0
   16.5714   55.3170   24.7114 C   0  0  0  0  0  0  0  0  0  0  0  0
   17.5181   56.3091   25.2966 C   0  0  0  0  0  0  0  0  0  0  0  0
   23.6366   48.1629   18.8552 C   0  0  0  0  0  0  0  0  0  0  0  0
   19.4603   53.1575   19.2201 C   0  0  0  0  0  0  0  0  0  0  0  0
   25.1228   48.0547   18.9073 C   0  0  0  0  0  0  0  0  0  0  0  0
   25.6380   46.7729   18.3282 O   0  0  0  0  0  0  0  0  0  0  0  0
   20.1168   49.8419   17.6684 C   0  0  0  0  0  0  0  0  0  0  0  0
   19.1785   51.4711   15.8147 C   0  0  0  0  0  0  0  0  0  0  0  0
   20.0262   50.9065   18.5332 N   0  0  0  0  0  0  0  0  0  0  0  0
   21.6911   49.5619   19.3243 C   0  0  0  0  0  0  0  0  0  0  0  0
   21.6548   47.8657   17.6019 C   0  0  0  0  0  0  0  0  0  0  0  0
   21.1708   48.9925   18.1544 C   0  0  0  0  0  0  0  0  0  0  0  0
   17.2543   54.7571   23.3257 C   0  0  0  0  0  0  0  0  0  0  0  0
   19.6083   57.2793   24.7641 N   0  0  0  0  0  0  0  0  0  0  0  0
   20.7124   50.5705   19.7370 C   0  0  0  0  0  0  0  0  0  0  0  0
   19.4019   49.3112   16.5221 C   0  0  0  0  0  0  0  0  0  0  0  0
   19.3028   55.1046   17.6776 C   0  0  0  0  0  0  0  0  0  0  0  0
   19.3018   54.4444   18.7504 C   0  0  0  0  0  0  0  0  0  0  0  0
   19.0050   50.2247   15.5604 N   0  0  0  0  0  0  0  0  0  0  0  0
   19.3874   53.4870   16.0368 C   0  0  0  0  0  0  0  0  0  0  0  0
   18.6352   56.4196   24.4467 C   0  0  0  0  0  0  0  0  0  0  0  0
   17.5002   53.8277   22.1218 C   0  0  0  0  0  0  0  0  0  0  0  0
   19.3257   54.7807   16.3229 C   0  0  0  0  0  0  0  0  0  0  0  0
   20.1985   56.2626   21.6896 C   0  0  0  0  0  0  0  0  0  0  0  0
   19.2045   55.2737   22.1824 C   0  0  0  0  0  0  0  0  0  0  0  0
   18.7182   54.0892   21.5019 C   0  0  0  0  0  0  0  0  0  0  0  0
  1  8  1  0
  2 10  1  0
  2 17  2  0
  2 22  1  0
  3  7  2  0
  3 15  1  0
  4  7  1  0
  4 27  2  0
  5 26  2  0
  5 34  1  0
  5 38  1  0
  6 16  1  0
  6 23  2  0
  8 17  1  0
  8 39  1  0
  9 19  1  0
 10 21  2  0
 10 33  1  0
 11 16  1  0
 11 24  2  0
 12 29  2  0
 13 28  2  0
 14 15  1  0
 14 26  1  0
 15 34  2  0
 16 18  1  0
 17 31  1  0
 18 19  1  0
 20 22  1  0
 20 25  2  0
 20 29  1  0
 21 32  1  0
 22 28  1  0
 23 25  1  0
 23 28  1  0
 24 25  1  0
 26 35  1  0
 27 34  1  0
 29 32  1  0
 30 31  2  0
 30 36  1  0
 33 36  2  0
 35 39  1  0
 37 38  1  0
 38 39  1  0
M  END
>  <ID>  (1) 
conformer_0

$$$$
