
     RDKit          3D

 33 36  0  0  0  0  0  0  0  0999 V2000
   22.7026   55.7904   16.7093 C   0  0  0  0  0  0  0  0  0  0  0  0
   20.7044   55.9046   19.6485 C   0  0  0  0  0  0  0  0  0  0  0  0
   19.2192   50.6847   18.6441 C   0  0  0  0  0  0  0  0  0  0  0  0
   19.4191   48.6924   17.1272 C   0  0  0  0  0  0  0  0  0  0  0  0
   21.2270   55.4570   17.1433 C   0  0  0  0  0  0  0  0  0  0  0  0
   18.8939   54.2154   19.4451 C   0  0  0  0  0  0  0  0  0  0  0  0
   24.2871   48.4733   19.3701 C   0  0  0  0  0  0  0  0  0  0  0  0
   24.4009   47.3794   18.5319 C   0  0  0  0  0  0  0  0  0  0  0  0
   19.2225   52.1047   20.6085 C   0  0  0  0  0  0  0  0  0  0  0  0
   23.1142   56.8753   17.5833 O   0  0  0  0  0  0  0  0  0  0  0  0
   17.3806   55.6382   23.5415 C   0  0  0  0  0  0  0  0  0  0  0  0
   22.0776   47.4743   18.1402 C   0  0  0  0  0  0  0  0  0  0  0  0
   19.4035   50.8063   20.0843 C   0  0  0  0  0  0  0  0  0  0  0  0
   19.7003   52.4755   21.8286 C   0  0  0  0  0  0  0  0  0  0  0  0
   19.1965   56.9967   24.4192 C   0  0  0  0  0  0  0  0  0  0  0  0
   18.5561   57.0727   25.6113 C   0  0  0  0  0  0  0  0  0  0  0  0
   25.5896   46.7685   18.3764 N   0  0  0  0  0  0  0  0  0  0  0  0
   19.6131   54.8937   21.6285 C   0  0  0  0  0  0  0  0  0  0  0  0
   17.3454   56.4381   25.7875 C   0  0  0  0  0  0  0  0  0  0  0  0
   20.5199   50.0251   20.4870 C   0  0  0  0  0  0  0  0  0  0  0  0
   19.7707   49.3817   18.3899 C   0  0  0  0  0  0  0  0  0  0  0  0
   23.3036   46.8876   17.8844 C   0  0  0  0  0  0  0  0  0  0  0  0
   20.6542   48.9774   19.4557 C   0  0  0  0  0  0  0  0  0  0  0  0
   18.5371   52.9522   19.7345 C   0  0  0  0  0  0  0  0  0  0  0  0
   17.3475   52.4891   19.0588 F   0  0  0  0  0  0  0  0  0  0  0  0
   19.6852   54.9853   20.2378 C   0  0  0  0  0  0  0  0  0  0  0  0
   18.6396   56.2294   23.4064 C   0  0  0  0  0  0  0  0  0  0  0  0
   19.3428   56.1683   22.2185 C   0  0  0  0  0  0  0  0  0  0  0  0
   16.7222   55.7485   24.7445 C   0  0  0  0  0  0  0  0  0  0  0  0
   23.0763   49.0085   19.6336 C   0  0  0  0  0  0  0  0  0  0  0  0
   21.9584   48.4834   19.0576 C   0  0  0  0  0  0  0  0  0  0  0  0
   19.7785   53.7282   22.3280 C   0  0  0  0  0  0  0  0  0  0  0  0
   21.3525   55.0248   18.5561 C   0  0  0  0  0  0  0  0  0  0  0  0
  1  5  1  0
  1 10  1  0
  2 26  1  0
  2 33  1  0
  3 13  1  0
  3 21  1  0
  4 21  1  0
  5 33  1  0
  6 24  1  0
  6 26  1  0
  7  8  2  0
  7 30  1  0
  8 17  1  0
  8 22  1  0
  9 13  1  0
  9 14  1  0
  9 24  1  0
 11 27  1  0
 11 29  2  0
 12 22  2  0
 12 31  1  0
 13 20  1  0
 14 32  2  0
 15 16  2  0
 15 27  1  0
 16 19  1  0
 18 26  1  0
 18 28  1  0
 18 32  1  0
 19 29  1  0
 20 23  1  0
 21 23  1  0
 23 31  1  0
 24 25  1  0
 27 28  1  0
 30 31  2  0
M  END
>  <ID>  (1) 
conformer_0

$$$$
