
     RDKit          3D

 31 35  0  0  0  0  0  0  0  0999 V2000
   19.8942   51.2457   19.5344 C   0  0  0  0  0  0  0  0  0  0  0  0
   17.6986   56.9390   24.1759 C   0  0  0  0  0  0  0  0  0  0  0  0
   18.9272   56.7715   24.7867 C   0  0  0  0  0  0  0  0  0  0  0  0
   20.4478   52.3813   21.6305 C   0  0  0  0  0  0  0  0  0  0  0  0
   21.6562   48.6622   19.7634 C   0  0  0  0  0  0  0  0  0  0  0  0
   18.9202   56.7168   23.5885 C   0  0  0  0  0  0  0  0  0  0  0  0
   24.8108   46.8383   18.5332 C   0  0  0  0  0  0  0  0  0  0  0  0
   16.8347   55.7325   23.8060 C   0  0  0  0  0  0  0  0  0  0  0  0
   21.9078   48.9781   17.4392 C   0  0  0  0  0  0  0  0  0  0  0  0
   20.5884   51.1479   20.8103 C   0  0  0  0  0  0  0  0  0  0  0  0
   16.7106   57.0803   26.3613 C   0  0  0  0  0  0  0  0  0  0  0  0
   20.0761   50.2133   18.5513 C   0  0  0  0  0  0  0  0  0  0  0  0
   18.7738   52.1815   19.2254 C   0  0  0  0  0  0  0  0  0  0  0  0
   23.5522   47.6295   18.5870 C   0  0  0  0  0  0  0  0  0  0  0  0
   25.8694   47.3811   18.1327 O   0  0  0  0  0  0  0  0  0  0  0  0
   19.1381   55.5131   21.4568 C   0  0  0  0  0  0  0  0  0  0  0  0
   16.9012   55.3842   22.4747 C   0  0  0  0  0  0  0  0  0  0  0  0
   24.8062   45.4736   18.9612 C   0  0  0  0  0  0  0  0  0  0  0  0
   17.8665   54.8549   21.5899 C   0  0  0  0  0  0  0  0  0  0  0  0
   20.3295   54.7781   21.1059 C   0  0  0  0  0  0  0  0  0  0  0  0
   16.7115   57.7200   24.9768 C   0  0  0  0  0  0  0  0  0  0  0  0
   23.0619   48.2010   17.4225 C   0  0  0  0  0  0  0  0  0  0  0  0
   16.5666   55.0056   25.0179 C   0  0  0  0  0  0  0  0  0  0  0  0
   19.9400   53.4441   20.8489 C   0  0  0  0  0  0  0  0  0  0  0  0
   19.3122   56.6012   22.2986 C   0  0  0  0  0  0  0  0  0  0  0  0
   21.2273   49.2755   18.5998 C   0  0  0  0  0  0  0  0  0  0  0  0
   17.6010   54.0703   20.4184 C   0  0  0  0  0  0  0  0  0  0  0  0
   18.7526   53.3289   20.0430 C   0  0  0  0  0  0  0  0  0  0  0  0
   19.2968   50.1802   17.5533 O   0  0  0  0  0  0  0  0  0  0  0  0
   17.0943   55.6024   26.2788 C   0  0  0  0  0  0  0  0  0  0  0  0
   22.8142   47.8284   19.7654 C   0  0  0  0  0  0  0  0  0  0  0  0
  1 10  1  0
  1 12  1  0
  1 13  1  0
  2  6  1  0
  2  8  1  0
  2 21  1  0
  3  6  2  0
  4 10  1  0
  4 24  1  0
  5 26  2  0
  5 31  1  0
  6 25  1  0
  7 14  1  0
  7 15  2  0
  7 18  1  0
  8 17  1  0
  8 23  1  0
  9 22  2  0
  9 26  1  0
 11 21  1  0
 11 30  1  0
 12 26  1  0
 12 29  2  0
 13 28  1  0
 14 22  1  0
 14 31  2  0
 16 19  1  0
 16 20  1  0
 16 25  1  0
 17 19  1  0
 19 27  1  0
 20 24  1  0
 23 30  1  0
 24 28  1  0
 27 28  1  0
M  END
>  <ID>  (1) 
conformer_0

$$$$
