
     RDKit          3D

 36 41  0  0  0  0  0  0  0  0999 V2000
   21.0579   51.1581   21.5217 C   0  0  0  0  0  0  0  0  0  0  0  0
   20.8063   55.0050   18.3178 C   0  0  0  0  0  0  0  0  0  0  0  0
   18.6193   56.3569   23.6471 C   0  0  0  0  0  0  0  0  0  0  0  0
   21.3934   51.3406   22.8167 F   0  0  0  0  0  0  0  0  0  0  0  0
   18.9894   53.3470   19.3859 N   0  0  0  0  0  0  0  0  0  0  0  0
   16.5973   55.4976   24.5881 C   0  0  0  0  0  0  0  0  0  0  0  0
   22.9447   47.8688   18.9638 C   0  0  0  0  0  0  0  0  0  0  0  0
   17.3810   53.8818   21.2185 C   0  0  0  0  0  0  0  0  0  0  0  0
   18.8507   54.0499   20.7532 C   0  0  0  0  0  0  0  0  0  0  0  0
   18.4229   55.5653   22.5404 C   0  0  0  0  0  0  0  0  0  0  0  0
   17.7327   56.2799   24.7090 C   0  0  0  0  0  0  0  0  0  0  0  0
   24.4833   46.0052   18.8968 C   0  0  0  0  0  0  0  0  0  0  0  0
   16.9052   57.6503   26.4953 O   0  0  0  0  0  0  0  0  0  0  0  0
   21.5466   50.0828   20.8162 C   0  0  0  0  0  0  0  0  0  0  0  0
   23.1878   46.4923   18.9729 C   0  0  0  0  0  0  0  0  0  0  0  0
   25.3004   48.2159   18.7586 C   0  0  0  0  0  0  0  0  0  0  0  0
   19.5462   52.0645   19.7354 C   0  0  0  0  0  0  0  0  0  0  0  0
   19.3684   51.0360   18.9458 C   0  0  0  0  0  0  0  0  0  0  0  0
   19.6733   48.9422   17.9471 N   0  0  0  0  0  0  0  0  0  0  0  0
   19.2111   55.4625   21.2846 C   0  0  0  0  0  0  0  0  0  0  0  0
   18.6229   52.5874   17.0190 O   0  0  0  0  0  0  0  0  0  0  0  0
   19.6702   54.6106   17.3083 C   0  0  0  0  0  0  0  0  0  0  0  0
   18.9830   53.4011   17.8763 C   0  0  0  0  0  0  0  0  0  0  0  0
   16.4160   54.6645   23.4634 C   0  0  0  0  0  0  0  0  0  0  0  0
   21.4783   55.5837   15.6930 C   0  0  0  0  0  0  0  0  0  0  0  0
   18.0250   57.0323   25.9277 C   0  0  0  0  0  0  0  0  0  0  0  0
   20.1511   52.0773   20.9768 C   0  0  0  0  0  0  0  0  0  0  0  0
   20.0404   49.9066   18.8855 C   0  0  0  0  0  0  0  0  0  0  0  0
   17.3405   54.7080   22.4722 C   0  0  0  0  0  0  0  0  0  0  0  0
   24.0228   48.7162   18.8312 C   0  0  0  0  0  0  0  0  0  0  0  0
   19.7461   53.2224   21.7143 C   0  0  0  0  0  0  0  0  0  0  0  0
   21.6202   48.3539   19.0308 C   0  0  0  0  0  0  0  0  0  0  0  0
   20.7128   47.9923   17.9223 C   0  0  0  0  0  0  0  0  0  0  0  0
   20.1256   54.7319   15.8405 C   0  0  0  0  0  0  0  0  0  0  0  0
   21.1240   49.5412   19.6317 C   0  0  0  0  0  0  0  0  0  0  0  0
   25.5312   46.8603   18.7702 C   0  0  0  0  0  0  0  0  0  0  0  0
  1  4  1  0
  1 14  2  0
  1 27  1  0
  2 22  1  0
  3 10  2  0
  3 11  1  0
  5  9  1  0
  5 17  1  0
  5 23  1  0
  6 11  2  0
  6 24  1  0
  7 15  1  0
  7 30  2  0
  7 32  1  0
  8  9  1  0
  8 29  1  0
  9 20  1  0
  9 31  1  0
 10 20  1  0
 10 29  1  0
 11 26  1  0
 12 15  2  0
 12 36  1  0
 13 26  1  0
 14 35  1  0
 16 30  1  0
 16 36  2  0
 17 18  1  0
 17 27  1  0
 18 28  2  0
 19 28  1  0
 19 33  1  0
 21 23  2  0
 22 23  1  0
 22 34  1  0
 24 29  2  0
 25 34  1  0
 27 31  1  0
 28 35  1  0
 32 33  1  0
 32 35  1  0
M  END
>  <ID>  (1) 
conformer_0

$$$$
