
     RDKit          3D

 37 41  0  0  0  0  0  0  0  0999 V2000
   19.6079   53.2964   19.1080 C   0  0  0  0  0  0  0  0  0  0  0  0
   19.3847   51.8208   18.8545 C   0  0  0  0  0  0  0  0  0  0  0  0
   24.6838   46.9926   18.6112 C   0  0  0  0  0  0  0  0  0  0  0  0
   19.0247   54.0598   17.8156 C   0  0  0  0  0  0  0  0  0  0  0  0
   18.4348   57.0194   25.3375 C   0  0  0  0  0  0  0  0  0  0  0  0
   20.2688   50.9888   19.5650 N   0  0  0  0  0  0  0  0  0  0  0  0
   19.3320   47.7209   18.1484 C   0  0  0  0  0  0  0  0  0  0  0  0
   22.3808   48.1888   18.8132 C   0  0  0  0  0  0  0  0  0  0  0  0
   18.0151   57.4390   26.5636 C   0  0  0  0  0  0  0  0  0  0  0  0
   24.1520   48.0535   20.4212 F   0  0  0  0  0  0  0  0  0  0  0  0
   18.4707   51.5285   18.1143 O   0  0  0  0  0  0  0  0  0  0  0  0
   19.9095   54.7716   15.4543 C   0  0  0  0  0  0  0  0  0  0  0  0
   21.1763   55.3888   17.6111 C   0  0  0  0  0  0  0  0  0  0  0  0
   25.8443   47.5748   18.3889 F   0  0  0  0  0  0  0  0  0  0  0  0
   21.7046   49.2540   19.3611 C   0  0  0  0  0  0  0  0  0  0  0  0
   20.4295   49.6673   19.1721 C   0  0  0  0  0  0  0  0  0  0  0  0
   20.9932   52.6207   21.0861 C   0  0  0  0  0  0  0  0  0  0  0  0
   19.8065   55.4767   21.7752 C   0  0  0  0  0  0  0  0  0  0  0  0
   21.6973   47.2059   18.1436 C   0  0  0  0  0  0  0  0  0  0  0  0
   19.2481   56.1593   22.7930 N   0  0  0  0  0  0  0  0  0  0  0  0
   17.6758   56.1618   24.6061 C   0  0  0  0  0  0  0  0  0  0  0  0
   19.9194   54.7347   16.9568 C   0  0  0  0  0  0  0  0  0  0  0  0
   23.7989   48.1022   19.0824 C   0  0  0  0  0  0  0  0  0  0  0  0
   17.4121   54.6159   22.7430 C   0  0  0  0  0  0  0  0  0  0  0  0
   16.7955   57.0871   27.0678 C   0  0  0  0  0  0  0  0  0  0  0  0
   24.2550   46.3999   17.5111 F   0  0  0  0  0  0  0  0  0  0  0  0
   24.9907   45.9365   19.3984 F   0  0  0  0  0  0  0  0  0  0  0  0
   16.0086   56.2882   26.2920 C   0  0  0  0  0  0  0  0  0  0  0  0
   20.4147   47.0063   17.8946 C   0  0  0  0  0  0  0  0  0  0  0  0
   17.9858   53.9702   21.7365 C   0  0  0  0  0  0  0  0  0  0  0  0
   20.0273   53.4615   20.4987 C   0  0  0  0  0  0  0  0  0  0  0  0
   18.1394   55.6413   23.3583 C   0  0  0  0  0  0  0  0  0  0  0  0
   22.2846   50.1657   20.2847 O   0  0  0  0  0  0  0  0  0  0  0  0
   19.3211   48.9646   18.7309 C   0  0  0  0  0  0  0  0  0  0  0  0
   19.2487   54.3329   21.3246 C   0  0  0  0  0  0  0  0  0  0  0  0
   21.2890   51.2837   20.4545 C   0  0  0  0  0  0  0  0  0  0  0  0
   16.4262   55.8378   25.0794 C   0  0  0  0  0  0  0  0  0  0  0  0
  1  2  1  0
  1  4  1  0
  1 31  1  0
  2  6  1  0
  2 11  2  0
  3 14  1  0
  3 23  1  0
  3 26  1  0
  3 27  1  0
  4 22  1  0
  5  9  2  0
  5 21  1  0
  6 16  1  0
  6 36  1  0
  7 29  1  0
  7 34  2  0
  8 15  2  0
  8 19  1  0
  8 23  1  0
  9 25  1  0
 10 23  1  0
 12 22  1  0
 13 22  1  0
 15 16  1  0
 15 33  1  0
 16 34  1  0
 17 31  1  0
 17 36  1  0
 18 20  2  0
 18 35  1  0
 19 29  2  0
 20 32  1  0
 21 32  2  3
 21 37  1  0
 24 30  2  0
 24 32  1  0
 25 28  1  0
 28 37  2  0
 30 35  1  0
 31 35  1  0
 33 36  1  0
M  END
>  <ID>  (1) 
conformer_0

$$$$
