
     RDKit          3D

 43 47  0  0  0  0  0  0  0  0999 V2000
   21.8298   55.1101   15.6022 F   0  0  0  0  0  0  0  0  0  0  0  0
   19.4339   53.0110   15.1197 C   0  0  0  0  0  0  0  0  0  0  0  0
   18.9527   55.7100   21.7636 C   0  0  0  0  0  0  0  0  0  0  0  0
   19.9427   50.9423   20.0160 O   0  0  0  0  0  0  0  0  0  0  0  0
   18.6478   50.2126   20.0003 C   0  0  0  0  0  0  0  0  0  0  0  0
   17.2880   53.1165   19.1378 C   0  0  0  0  0  0  0  0  0  0  0  0
   24.6656   46.4880   18.5576 C   0  0  0  0  0  0  0  0  0  0  0  0
   19.6739   54.9680   13.3615 C   0  0  0  0  0  0  0  0  0  0  0  0
   19.9110   56.0275   14.4273 C   0  0  0  0  0  0  0  0  0  0  0  0
   17.4180   56.8500   25.3898 C   0  0  0  0  0  0  0  0  0  0  0  0
   20.0065   53.5406   13.8435 C   0  0  0  0  0  0  0  0  0  0  0  0
   16.8718   54.1580   22.9047 F   0  0  0  0  0  0  0  0  0  0  0  0
   20.0859   55.5704   19.6442 C   0  0  0  0  0  0  0  0  0  0  0  0
   20.1542   56.2735   21.0558 C   0  0  0  0  0  0  0  0  0  0  0  0
   20.3788   48.8161   19.4486 C   0  0  0  0  0  0  0  0  0  0  0  0
   19.1400   52.7607   16.5605 C   0  0  0  0  0  0  0  0  0  0  0  0
   24.6105   48.8856   19.3347 C   0  0  0  0  0  0  0  0  0  0  0  0
   18.5920   55.8571   23.1034 C   0  0  0  0  0  0  0  0  0  0  0  0
   18.5816   54.5226   21.0688 O   0  0  0  0  0  0  0  0  0  0  0  0
   20.9718   49.9481   19.7820 C   0  0  0  0  0  0  0  0  0  0  0  0
   23.1211   48.8862   19.4790 C   0  0  0  0  0  0  0  0  0  0  0  0
   19.4075   56.5844   23.9891 C   0  0  0  0  0  0  0  0  0  0  0  0
   20.6224   46.4411   18.8552 F   0  0  0  0  0  0  0  0  0  0  0  0
   20.0123   52.1569   20.4689 C   0  0  0  0  0  0  0  0  0  0  0  0
   18.9622   49.0016   19.3762 O   0  0  0  0  0  0  0  0  0  0  0  0
   19.7440   55.1756   16.9071 C   0  0  0  0  0  0  0  0  0  0  0  0
   16.8409   55.6665   24.7886 C   0  0  0  0  0  0  0  0  0  0  0  0
   16.6989   57.6160   26.3952 C   0  0  0  0  0  0  0  0  0  0  0  0
   19.1142   53.9772   17.5026 C   0  0  0  0  0  0  0  0  0  0  0  0
   23.2840   46.3969   18.9463 C   0  0  0  0  0  0  0  0  0  0  0  0
   20.3007   52.5030   21.6114 O   0  0  0  0  0  0  0  0  0  0  0  0
   25.2150   47.8895   18.4394 C   0  0  0  0  0  0  0  0  0  0  0  0
   19.4961   57.8426   26.0342 Cl  0  0  0  0  0  0  0  0  0  0  0  0
   22.3682   50.0187   19.8552 C   0  0  0  0  0  0  0  0  0  0  0  0
   20.5034   55.3269   15.6453 C   0  0  0  0  0  0  0  0  0  0  0  0
   18.7441   53.5021   18.8688 C   0  0  0  0  0  0  0  0  0  0  0  0
   19.0462   54.5571   19.7763 C   0  0  0  0  0  0  0  0  0  0  0  0
   19.6461   52.2084   19.2143 C   0  0  0  0  0  0  0  0  0  0  0  0
   18.8103   57.0938   25.1568 C   0  0  0  0  0  0  0  0  0  0  0  0
   22.5068   47.6680   19.1943 C   0  0  0  0  0  0  0  0  0  0  0  0
   16.6348   56.9229   27.5580 O   0  0  0  0  0  0  0  0  0  0  0  0
   17.4525   55.1701   23.5938 C   0  0  0  0  0  0  0  0  0  0  0  0
   21.1359   47.6280   19.1611 C   0  0  0  0  0  0  0  0  0  0  0  0
  1 35  1  0
  2 11  2  0
  2 16  2  0
  3 14  1  0
  3 18  1  0
  3 19  1  0
  4 20  1  0
  4 24  1  0
  5 25  1  0
  6 36  1  0
  7 30  2  0
  7 32  1  0
  8  9  1  0
  8 11  1  0
  9 35  1  0
 10 27  1  0
 10 28  1  0
 10 39  1  0
 12 42  1  0
 13 14  1  0
 13 37  1  0
 15 20  2  0
 15 25  1  0
 15 43  1  0
 16 29  1  0
 17 21  1  0
 17 32  1  0
 18 22  1  0
 18 42  1  0
 19 37  1  0
 20 34  1  0
 21 34  2  0
 21 40  1  0
 22 39  2  0
 23 43  1  0
 24 31  2  0
 24 38  1  0
 26 29  1  0
 26 35  1  0
 27 42  2  0
 28 41  1  0
 29 36  1  0
 30 40  1  0
 33 39  1  0
 36 37  1  0
 36 38  1  0
 40 43  2  0
M  END
>  <ID>  (1) 
conformer_0

$$$$
