
     RDKit          3D

 12 13  0  0  0  0  0  0  0  0999 V2000
   62.2395   49.5478  110.6330 C   0  0  0  0  0  0  0  0  0  0  0  0
   63.1329   50.3621  111.1231 C   0  0  0  0  0  0  0  0  0  0  0  0
   63.2508   51.6720  110.5751 C   0  0  0  0  0  0  0  0  0  0  0  0
   62.4503   52.0528  109.5105 C   0  0  0  0  0  0  0  0  0  0  0  0
   61.5638   50.9952  109.0206 C   0  0  0  0  0  0  0  0  0  0  0  0
   62.4695   53.3300  108.8486 C   0  0  0  0  0  0  0  0  0  0  0  0
   64.0742   52.6823  111.0355 N   0  0  0  0  0  0  0  0  0  0  0  0
   64.1924   53.7812  110.2751 C   0  0  0  0  0  0  0  0  0  0  0  0
   61.6358   53.6207  107.8800 O   0  0  0  0  0  0  0  0  0  0  0  0
   61.4370   49.8900  109.3546 C   0  0  0  0  0  0  0  0  0  0  0  0
   65.1652   54.7769  110.8850 N   0  0  0  0  0  0  0  0  0  0  0  0
   63.4456   54.2875  109.3235 N   0  0  0  0  0  0  0  0  0  0  0  0
  1  2  2  0
  2  3  1  0
  3  4  2  0
  4  5  1  0
  4  6  1  0
  3  7  1  0
  7  8  2  0
  6  9  2  0
  1 10  1  0
  5 10  2  0
  8 11  1  0
  6 12  1  0
  8 12  1  0
M  END
>  <ID>  (1) 
conformer_0

$$$$
