
     RDKit          3D

 12 12  0  0  0  0  0  0  0  0999 V2000
   63.5681   50.9090  110.8433 C   0  0  0  0  0  0  0  0  0  0  0  0
   62.4043   51.1968  110.1403 C   0  0  0  0  0  0  0  0  0  0  0  0
   63.8358   49.7324  111.3344 O   0  0  0  0  0  0  0  0  0  0  0  0
   62.2799   52.4159  109.5897 C   0  0  0  0  0  0  0  0  0  0  0  0
   63.2475   53.3980  109.6185 C   0  0  0  0  0  0  0  0  0  0  0  0
   63.0607   54.7380  109.0968 C   0  0  0  0  0  0  0  0  0  0  0  0
   64.5881   51.8953  110.9172 N   0  0  0  0  0  0  0  0  0  0  0  0
   61.3408   50.2015  109.9717 C   0  0  0  0  0  0  0  0  0  0  0  0
   63.6832   55.7387  109.6660 N   0  0  0  0  0  0  0  0  0  0  0  0
   64.4437   53.1309  110.3975 N   0  0  0  0  0  0  0  0  0  0  0  0
   62.3334   54.8693  108.0305 O   0  0  0  0  0  0  0  0  0  0  0  0
   63.5007   57.0522  109.2527 C   0  0  0  0  0  0  0  0  0  0  0  0
  1  2  1  0
  1  3  2  0
  2  4  2  0
  4  5  1  0
  5  6  1  0
  1  7  1  0
  2  8  1  0
  6  9  1  0
  5 10  2  0
  7 10  1  0
  6 11  2  0
  9 12  1  0
M  END
>  <ID>  (1) 
conformer_0

$$$$
