
     RDKit          3D

 12 13  0  0  0  0  0  0  0  0999 V2000
   65.0286   53.1076  109.8253 O   0  0  0  0  0  0  0  0  0  0  0  0
   64.3273   54.1087  109.9205 C   0  0  0  0  0  0  0  0  0  0  0  0
   62.9065   53.8214  109.7892 C   0  0  0  0  0  0  0  0  0  0  0  0
   62.7303   52.4074  109.6979 C   0  0  0  0  0  0  0  0  0  0  0  0
   61.7358   51.6720  110.1709 C   0  0  0  0  0  0  0  0  0  0  0  0
   64.1914   52.0608  110.2403 C   0  0  0  0  0  0  0  0  0  0  0  0
   62.0410   54.3958  110.8329 O   0  0  0  0  0  0  0  0  0  0  0  0
   64.5886   55.4595  110.2952 C   0  0  0  0  0  0  0  0  0  0  0  0
   61.9094   50.9437  111.2135 C   0  0  0  0  0  0  0  0  0  0  0  0
   62.8745   49.9577  110.9320 C   0  0  0  0  0  0  0  0  0  0  0  0
   61.2561   50.7163  109.1403 O   0  0  0  0  0  0  0  0  0  0  0  0
   64.1966   50.6909  110.8727 C   0  0  0  0  0  0  0  0  0  0  0  0
  1  2  1  0
  2  3  1  0
  3  4  1  0
  4  5  1  0
  1  6  1  0
  4  6  1  0
  3  7  1  0
  2  8  2  0
  5  9  1  0
  9 10  1  0
  5 11  1  0
  6 12  1  0
 10 12  1  0
M  END
>  <ID>  (1) 
conformer_0

$$$$
