
     RDKit          3D

 11 12  0  0  0  0  0  0  0  0999 V2000
   65.0286   53.1076  109.8253 N   0  0  0  0  0  0  0  0  0  0  0  0
   64.5988   54.2806  109.7164 C   0  0  0  0  0  0  0  0  0  0  0  0
   63.9833   52.1672  109.7512 C   0  0  0  0  0  0  0  0  0  0  0  0
   62.8704   52.8393  109.5718 C   0  0  0  0  0  0  0  0  0  0  0  0
   63.2232   54.2180  109.5651 N   0  0  0  0  0  0  0  0  0  0  0  0
   64.1465   50.8243  110.0447 C   0  0  0  0  0  0  0  0  0  0  0  0
   62.9736   50.0973  110.0235 C   0  0  0  0  0  0  0  0  0  0  0  0
   63.0226   48.7113  110.3275 F   0  0  0  0  0  0  0  0  0  0  0  0
   65.1801   55.5718  109.8238 N   0  0  0  0  0  0  0  0  0  0  0  0
   61.7046   50.8662  109.8444 C   0  0  0  0  0  0  0  0  0  0  0  0
   61.6965   52.1413  109.5962 C   0  0  0  0  0  0  0  0  0  0  0  0
  1  2  1  0
  1  3  2  0
  3  4  1  0
  2  5  2  0
  4  5  1  0
  3  6  1  0
  6  7  2  0
  7  8  1  0
  2  9  1  0
  7 10  1  0
  4 11  2  0
 10 11  2  0
M  END
>  <ID>  (1) 
conformer_0

$$$$
