
     RDKit          3D

 13 13  0  0  0  0  0  0  0  0999 V2000
   65.0286   53.1076  109.8253 N   0  0  0  0  0  0  0  0  0  0  0  0
   64.0263   52.2954  110.1696 C   0  0  0  0  0  0  0  0  0  0  0  0
   64.8929   54.4574  110.2104 C   0  0  0  0  0  0  0  0  0  0  0  0
   64.1482   51.2773  111.0055 O   0  0  0  0  0  0  0  0  0  0  0  0
   64.4009   55.3076  109.1511 C   0  0  0  0  0  0  0  0  0  0  0  0
   62.6962   52.5335  109.6819 C   0  0  0  0  0  0  0  0  0  0  0  0
   64.4576   54.8671  111.5075 O   0  0  0  0  0  0  0  0  0  0  0  0
   61.8144   51.3023  109.5169 N   0  0  0  0  0  0  0  0  0  0  0  0
   61.1753   50.9456  110.5316 O   0  0  0  0  0  0  0  0  0  0  0  0
   62.9648   55.2614  109.2233 C   0  0  0  0  0  0  0  0  0  0  0  0
   62.5033   53.5122  108.4411 C   0  0  0  0  0  0  0  0  0  0  0  0
   64.8449   54.9193  107.8794 O   0  0  0  0  0  0  0  0  0  0  0  0
   61.1296   53.7207  108.0498 O   0  0  0  0  0  0  0  0  0  0  0  0
  1  2  1  0
  1  3  1  0
  2  4  2  0
  3  5  1  0
  2  6  1  0
  3  7  1  0
  6  8  1  0
  8  9  1  0
  5 10  1  0
  6 11  1  0
 10 11  1  0
  5 12  1  0
 11 13  1  0
M  END
>  <ID>  (1) 
conformer_0

$$$$
