
     RDKit          3D

 13 14  0  0  0  0  0  0  0  0999 V2000
   62.2395   49.5478  110.6330 C   0  0  0  0  0  0  0  0  0  0  0  0
   62.0713   50.5178  109.6816 C   0  0  0  0  0  0  0  0  0  0  0  0
   62.6987   51.7891  109.7829 C   0  0  0  0  0  0  0  0  0  0  0  0
   63.2524   49.6543  111.5862 C   0  0  0  0  0  0  0  0  0  0  0  0
   62.5464   52.8692  108.8240 C   0  0  0  0  0  0  0  0  0  0  0  0
   63.1589   54.0397  109.0266 N   0  0  0  0  0  0  0  0  0  0  0  0
   62.8203   55.0906  108.3687 C   0  0  0  0  0  0  0  0  0  0  0  0
   63.8921   54.0755  110.3220 C   0  0  0  0  0  0  0  0  0  0  0  0
   64.0470   50.9145  111.5722 C   0  0  0  0  0  0  0  0  0  0  0  0
   63.7121   51.8743  110.6883 C   0  0  0  0  0  0  0  0  0  0  0  0
   64.4994   53.0246  110.7151 N   0  0  0  0  0  0  0  0  0  0  0  0
   61.7654   52.7059  107.9738 O   0  0  0  0  0  0  0  0  0  0  0  0
   64.5157   55.2991  110.4980 O   0  0  0  0  0  0  0  0  0  0  0  0
  1  2  1  0
  2  3  2  0
  1  4  2  0
  3  5  1  0
  5  6  1  0
  6  7  1  0
  6  8  1  0
  4  9  1  0
  3 10  1  0
  9 10  2  0
  8 11  1  0
 10 11  1  0
  5 12  2  0
  8 13  2  0
M  END
>  <ID>  (1) 
conformer_0

$$$$
