
     RDKit          3D

 13 14  0  0  0  0  0  0  0  0999 V2000
   63.5681   50.9090  110.8433 C   0  0  0  0  0  0  0  0  0  0  0  0
   63.6615   52.0911  110.5966 C   0  0  0  0  0  0  0  0  0  0  0  0
   64.7109   52.9186  110.8313 O   0  0  0  0  0  0  0  0  0  0  0  0
   64.5278   54.1647  110.2283 C   0  0  0  0  0  0  0  0  0  0  0  0
   64.2630   55.2269  111.1140 C   0  0  0  0  0  0  0  0  0  0  0  0
   62.4837   50.0111  110.4879 C   0  0  0  0  0  0  0  0  0  0  0  0
   64.7804   56.3824  110.8391 O   0  0  0  0  0  0  0  0  0  0  0  0
   63.3869   53.9347  109.1706 C   0  0  0  0  0  0  0  0  0  0  0  0
   63.0928   52.6755  109.4061 C   0  0  0  0  0  0  0  0  0  0  0  0
   61.9638   51.9053  108.6779 C   0  0  0  0  0  0  0  0  0  0  0  0
   63.9323   54.1000  107.8347 O   0  0  0  0  0  0  0  0  0  0  0  0
   62.2110   48.7838  110.9768 C   0  0  0  0  0  0  0  0  0  0  0  0
   61.7130   50.6232  109.3247 C   0  0  0  0  0  0  0  0  0  0  0  0
  1  2  1  0
  2  3  1  0
  3  4  1  0
  4  5  1  0
  1  6  2  0
  5  7  1  0
  4  8  1  0
  2  9  2  0
  8  9  1  0
  9 10  1  0
  8 11  1  0
  6 12  1  0
  6 13  1  0
 10 13  2  0
M  END
>  <ID>  (1) 
conformer_0

$$$$
