
     RDKit          3D

 13 14  0  0  0  0  0  0  0  0999 V2000
   62.2395   49.5478  110.6330 C   0  0  0  0  0  0  0  0  0  0  0  0
   62.0713   50.5178  109.6816 C   0  0  0  0  0  0  0  0  0  0  0  0
   62.5327   51.7183  109.7518 C   0  0  0  0  0  0  0  0  0  0  0  0
   63.5268   52.0249  110.7790 C   0  0  0  0  0  0  0  0  0  0  0  0
   62.2320   52.8377  108.9311 C   0  0  0  0  0  0  0  0  0  0  0  0
   62.7971   54.0646  109.1588 C   0  0  0  0  0  0  0  0  0  0  0  0
   63.2737   49.7756  111.5789 C   0  0  0  0  0  0  0  0  0  0  0  0
   63.8714   51.1340  111.5938 C   0  0  0  0  0  0  0  0  0  0  0  0
   62.6702   55.1647  108.3423 O   0  0  0  0  0  0  0  0  0  0  0  0
   63.8496   54.2235  110.2600 C   0  0  0  0  0  0  0  0  0  0  0  0
   64.3099   53.2463  110.9105 N   0  0  0  0  0  0  0  0  0  0  0  0
   64.3508   55.4547  110.3426 O   0  0  0  0  0  0  0  0  0  0  0  0
   62.4178   52.3273  107.6117 O   0  0  0  0  0  0  0  0  0  0  0  0
  1  2  2  0
  2  3  1  0
  3  4  2  0
  3  5  1  0
  5  6  1  0
  1  7  1  0
  4  8  1  0
  7  8  2  0
  6  9  1  0
  6 10  1  0
  4 11  1  0
 10 11  1  0
 10 12  2  0
  5 13  1  0
M  END
>  <ID>  (1) 
conformer_0

$$$$
