
     RDKit          3D

 12 13  0  0  0  0  0  0  0  0999 V2000
   61.7731   51.4388  108.2186 O   0  0  0  0  0  0  0  0  0  0  0  0
   62.2628   52.1981  109.0305 C   0  0  0  0  0  0  0  0  0  0  0  0
   63.1757   51.6692  109.9754 C   0  0  0  0  0  0  0  0  0  0  0  0
   62.2001   53.5569  108.8922 C   0  0  0  0  0  0  0  0  0  0  0  0
   63.1911   54.3135  109.5237 C   0  0  0  0  0  0  0  0  0  0  0  0
   63.6142   53.7569  110.8214 C   0  0  0  0  0  0  0  0  0  0  0  0
   63.0531   50.2813  110.1957 O   0  0  0  0  0  0  0  0  0  0  0  0
   64.9071   54.5323  111.1384 N   0  0  0  0  0  0  0  0  0  0  0  0
   65.2206   55.3675  110.0451 C   0  0  0  0  0  0  0  0  0  0  0  0
   63.8264   55.3909  109.0733 C   0  0  0  0  0  0  0  0  0  0  0  0
   63.5094   49.7160  111.4555 C   0  0  0  0  0  0  0  0  0  0  0  0
   63.9510   52.3308  110.6947 C   0  0  0  0  0  0  0  0  0  0  0  0
  1  2  2  0
  2  3  1  0
  2  4  1  0
  4  5  1  0
  5  6  1  0
  3  7  1  0
  6  8  1  0
  8  9  1  0
  5 10  1  0
  9 10  1  0
  7 11  1  0
  3 12  2  0
  6 12  1  0
M  END
>  <ID>  (1) 
conformer_0

$$$$
