
     RDKit          3D

 12 13  0  0  0  0  0  0  0  0999 V2000
   63.5681   50.9090  110.8433 C   0  0  0  0  0  0  0  0  0  0  0  0
   63.6615   52.0911  110.5966 C   0  0  0  0  0  0  0  0  0  0  0  0
   64.3032   50.2620  111.7369 O   0  0  0  0  0  0  0  0  0  0  0  0
   64.8017   52.8210  110.9889 O   0  0  0  0  0  0  0  0  0  0  0  0
   63.2846   52.6575  109.2583 C   0  0  0  0  0  0  0  0  0  0  0  0
   61.9505   52.4065  108.8256 O   0  0  0  0  0  0  0  0  0  0  0  0
   62.6232   50.1759  110.0083 C   0  0  0  0  0  0  0  0  0  0  0  0
   63.7573   53.9815  108.9244 C   0  0  0  0  0  0  0  0  0  0  0  0
   64.8220   54.3276  109.7000 N   0  0  0  0  0  0  0  0  0  0  0  0
   61.5504   51.0207  109.0509 C   0  0  0  0  0  0  0  0  0  0  0  0
   61.4057   50.0223  108.1349 O   0  0  0  0  0  0  0  0  0  0  0  0
   64.9699   53.9769  110.6882 C   0  0  0  0  0  0  0  0  0  0  0  0
  1  2  1  0
  1  3  2  0
  2  4  1  0
  2  5  1  0
  5  6  1  0
  1  7  1  0
  5  8  1  0
  8  9  1  0
  6 10  1  0
  7 10  1  0
 10 11  1  0
  4 12  1  0
  9 12  1  0
M  END
>  <ID>  (1) 
conformer_0

$$$$
