
     RDKit          3D

 10 11  0  0  0  0  0  0  0  0999 V2000
   61.8566   50.0191  109.7915 C   0  0  0  0  0  0  0  0  0  0  0  0
   62.1311   51.1418  109.2163 C   0  0  0  0  0  0  0  0  0  0  0  0
   62.6094   49.7202  111.0823 C   0  0  0  0  0  0  0  0  0  0  0  0
   63.0266   52.1040  109.6620 C   0  0  0  0  0  0  0  0  0  0  0  0
   63.7442   51.8342  110.8194 C   0  0  0  0  0  0  0  0  0  0  0  0
   64.6847   52.8407  111.1516 N   0  0  0  0  0  0  0  0  0  0  0  0
   63.5685   50.6229  111.5219 C   0  0  0  0  0  0  0  0  0  0  0  0
   64.7119   53.8893  110.4886 C   0  0  0  0  0  0  0  0  0  0  0  0
   63.3484   53.4865  109.1316 C   0  0  0  0  0  0  0  0  0  0  0  0
   63.9877   54.2533  109.5281 C   0  0  0  0  0  0  0  0  0  0  0  0
  1  2  2  0
  1  3  1  0
  2  4  1  0
  4  5  2  0
  5  6  1  0
  3  7  2  0
  5  7  1  0
  6  8  2  0
  4  9  1  0
  8 10  1  0
  9 10  2  0
M  END
>  <ID>  (1) 
conformer_0

$$$$
