
     RDKit          3D

 12 13  0  0  0  0  0  0  0  0999 V2000
   63.5681   50.9090  110.8433 C   0  0  0  0  0  0  0  0  0  0  0  0
   63.6615   52.0911  110.5966 C   0  0  0  0  0  0  0  0  0  0  0  0
   62.6757   52.7046  109.7661 C   0  0  0  0  0  0  0  0  0  0  0  0
   64.4695   50.2317  111.6819 F   0  0  0  0  0  0  0  0  0  0  0  0
   64.7204   52.9365  110.9805 O   0  0  0  0  0  0  0  0  0  0  0  0
   64.5149   54.3013  110.5187 C   0  0  0  0  0  0  0  0  0  0  0  0
   63.2026   54.4268  109.9722 C   0  0  0  0  0  0  0  0  0  0  0  0
   62.0625   52.3761  108.9043 C   0  0  0  0  0  0  0  0  0  0  0  0
   64.8492   55.4214  111.2366 N   0  0  0  0  0  0  0  0  0  0  0  0
   61.6999   50.8994  109.0619 C   0  0  0  0  0  0  0  0  0  0  0  0
   62.7216   50.0975  110.0376 C   0  0  0  0  0  0  0  0  0  0  0  0
   62.1836   55.0496  110.6879 O   0  0  0  0  0  0  0  0  0  0  0  0
  1  2  1  0
  2  3  2  0
  1  4  1  0
  2  5  1  0
  5  6  1  0
  3  7  1  0
  6  7  1  0
  3  8  1  0
  6  9  1  0
  8 10  2  0
  1 11  2  0
 10 11  1  0
  7 12  1  0
M  END
>  <ID>  (1) 
conformer_0

$$$$
