
     RDKit          3D

 13 14  0  0  0  0  0  0  0  0999 V2000
   63.5681   50.9090  110.8433 C   0  0  0  0  0  0  0  0  0  0  0  0
   63.6615   52.0911  110.5966 C   0  0  0  0  0  0  0  0  0  0  0  0
   64.7109   52.9186  110.8313 O   0  0  0  0  0  0  0  0  0  0  0  0
   64.5278   54.1647  110.2283 C   0  0  0  0  0  0  0  0  0  0  0  0
   64.2630   55.2269  111.1140 C   0  0  0  0  0  0  0  0  0  0  0  0
   64.4126   50.2778  111.8095 O   0  0  0  0  0  0  0  0  0  0  0  0
   63.3540   53.9472  109.2684 C   0  0  0  0  0  0  0  0  0  0  0  0
   63.1445   55.9100  110.6256 O   0  0  0  0  0  0  0  0  0  0  0  0
   63.2603   52.5512  109.2553 N   0  0  0  0  0  0  0  0  0  0  0  0
   62.4208   49.9944  110.6454 C   0  0  0  0  0  0  0  0  0  0  0  0
   63.7618   54.5075  107.9348 C   0  0  0  0  0  0  0  0  0  0  0  0
   61.5860   50.2701  109.5028 C   0  0  0  0  0  0  0  0  0  0  0  0
   62.0401   51.6913  108.9331 C   0  0  0  0  0  0  0  0  0  0  0  0
  1  2  1  0
  2  3  1  0
  3  4  1  0
  4  5  1  0
  1  6  1  0
  4  7  1  0
  5  8  1  0
  2  9  1  0
  7  9  1  0
  1 10  2  0
  7 11  1  0
 10 12  1  0
  9 13  1  0
 12 13  2  0
M  END
>  <ID>  (1) 
conformer_0

$$$$
