
     RDKit          3D

 12 12  0  0  0  0  0  0  0  0999 V2000
   61.4754   50.0669  108.7914 O   0  0  0  0  0  0  0  0  0  0  0  0
   62.1341   50.5210  109.6417 C   0  0  0  0  0  0  0  0  0  0  0  0
   62.7115   49.8191  110.5861 C   0  0  0  0  0  0  0  0  0  0  0  0
   63.5673   50.3985  111.5178 C   0  0  0  0  0  0  0  0  0  0  0  0
   62.4801   51.9629  109.5096 C   0  0  0  0  0  0  0  0  0  0  0  0
   63.4341   52.4941  110.4253 C   0  0  0  0  0  0  0  0  0  0  0  0
   63.7093   53.8861  110.2845 C   0  0  0  0  0  0  0  0  0  0  0  0
   64.2461   54.3254  109.1893 C   0  0  0  0  0  0  0  0  0  0  0  0
   62.5268   54.7379  110.5881 O   0  0  0  0  0  0  0  0  0  0  0  0
   65.6324   54.2598  109.1595 N   0  0  0  0  0  0  0  0  0  0  0  0
   63.7891   55.4068  108.6015 O   0  0  0  0  0  0  0  0  0  0  0  0
   63.9321   51.7258  111.4528 C   0  0  0  0  0  0  0  0  0  0  0  0
  1  2  1  0
  2  3  2  0
  3  4  1  0
  2  5  1  0
  5  6  2  0
  6  7  1  0
  7  8  1  0
  7  9  1  0
  8 10  1  0
  8 11  2  0
  4 12  2  0
  6 12  1  0
M  END
>  <ID>  (1) 
conformer_0

$$$$
