
     RDKit          3D

 12 13  0  0  0  0  0  0  0  0999 V2000
   63.5681   50.9090  110.8433 C   0  0  0  0  0  0  0  0  0  0  0  0
   63.6615   52.0911  110.5966 C   0  0  0  0  0  0  0  0  0  0  0  0
   62.6757   52.7046  109.7661 C   0  0  0  0  0  0  0  0  0  0  0  0
   62.6667   54.1706  109.4883 C   0  0  0  0  0  0  0  0  0  0  0  0
   61.5697   51.9414  109.3393 C   0  0  0  0  0  0  0  0  0  0  0  0
   61.5826   50.5824  109.5182 C   0  0  0  0  0  0  0  0  0  0  0  0
   64.7203   52.9262  111.0666 O   0  0  0  0  0  0  0  0  0  0  0  0
   64.9883   54.0505  110.3244 C   0  0  0  0  0  0  0  0  0  0  0  0
   62.5499   50.0329  110.3748 C   0  0  0  0  0  0  0  0  0  0  0  0
   61.4643   54.7120  109.1747 O   0  0  0  0  0  0  0  0  0  0  0  0
   63.5083   54.9717  110.4236 C   0  0  0  0  0  0  0  0  0  0  0  0
   63.8180   56.2842  110.2257 N   0  0  0  0  0  0  0  0  0  0  0  0
  1  2  1  0
  2  3  2  0
  3  4  1  0
  3  5  1  0
  5  6  2  0
  2  7  1  0
  7  8  1  0
  1  9  2  0
  6  9  1  0
  4 10  1  0
  4 11  1  0
  8 11  1  0
 11 12  1  0
M  END
>  <ID>  (1) 
conformer_0

$$$$
