
     RDKit          3D

 12 13  0  0  0  0  0  0  0  0999 V2000
   62.2395   49.5478  110.6330 C   0  0  0  0  0  0  0  0  0  0  0  0
   62.0713   50.5178  109.6816 C   0  0  0  0  0  0  0  0  0  0  0  0
   62.6883   51.7626  109.7568 C   0  0  0  0  0  0  0  0  0  0  0  0
   62.5287   52.8816  108.8045 C   0  0  0  0  0  0  0  0  0  0  0  0
   63.3204   49.8381  111.5983 C   0  0  0  0  0  0  0  0  0  0  0  0
   63.7355   51.8900  110.6589 C   0  0  0  0  0  0  0  0  0  0  0  0
   64.0734   50.9409  111.6089 C   0  0  0  0  0  0  0  0  0  0  0  0
   64.4216   53.1402  110.7262 N   0  0  0  0  0  0  0  0  0  0  0  0
   63.0236   54.0748  109.0501 C   0  0  0  0  0  0  0  0  0  0  0  0
   64.1418   54.0541  109.7731 C   0  0  0  0  0  0  0  0  0  0  0  0
   61.9440   54.9227  109.7908 N   0  0  0  0  0  0  0  0  0  0  0  0
   64.9551   55.2062  109.9084 O   0  0  0  0  0  0  0  0  0  0  0  0
  1  2  2  0
  2  3  1  0
  3  4  1  0
  1  5  1  0
  3  6  2  0
  5  7  2  0
  6  7  1  0
  6  8  1  0
  4  9  1  0
  8 10  1  0
  9 10  1  0
  9 11  1  0
 10 12  2  0
M  END
>  <ID>  (1) 
conformer_0

$$$$
