
     RDKit          3D

 13 15  0  0  0  0  0  0  0  0999 V2000
   61.4754   50.0669  108.7914 C   0  0  0  0  0  0  0  0  0  0  0  0
   62.1820   50.7153  109.6604 C   0  0  0  0  0  0  0  0  0  0  0  0
   62.6724   52.0547  109.4190 C   0  0  0  0  0  0  0  0  0  0  0  0
   62.2630   52.7991  108.3037 C   0  0  0  0  0  0  0  0  0  0  0  0
   61.4343   52.2117  107.4513 N   0  0  0  0  0  0  0  0  0  0  0  0
   62.4718   50.0591  110.9711 C   0  0  0  0  0  0  0  0  0  0  0  0
   63.7805   50.2404  111.3765 C   0  0  0  0  0  0  0  0  0  0  0  0
   62.8600   54.1754  108.2500 C   0  0  0  0  0  0  0  0  0  0  0  0
   63.6492   52.8340  110.3788 C   0  0  0  0  0  0  0  0  0  0  0  0
   64.1729   51.7607  111.3971 N   0  0  0  0  0  0  0  0  0  0  0  0
   63.7794   54.5725  108.9537 C   0  0  0  0  0  0  0  0  0  0  0  0
   60.9744   50.8590  107.7460 C   0  0  0  0  0  0  0  0  0  0  0  0
   64.1964   53.8958  110.1317 N   0  0  0  0  0  0  0  0  0  0  0  0
  1  2  1  0
  2  3  2  0
  3  4  1  0
  4  5  2  0
  2  6  1  0
  6  7  1  0
  4  8  1  0
  3  9  1  0
  7 10  1  0
  9 10  1  0
  8 11  2  0
  1 12  2  0
  5 12  1  0
  9 13  2  0
 11 13  1  0
M  END
>  <ID>  (1) 
conformer_0

$$$$
