
     RDKit          3D

 13 14  0  0  0  0  0  0  0  0999 V2000
   65.0286   53.1076  109.8253 N   0  0  0  0  0  0  0  0  0  0  0  0
   64.5988   54.2806  109.7164 C   0  0  0  0  0  0  0  0  0  0  0  0
   63.9833   52.1672  109.7512 C   0  0  0  0  0  0  0  0  0  0  0  0
   62.8704   52.8393  109.5718 C   0  0  0  0  0  0  0  0  0  0  0  0
   63.2232   54.2180  109.5651 N   0  0  0  0  0  0  0  0  0  0  0  0
   61.8413   52.4340  110.4945 C   0  0  0  0  0  0  0  0  0  0  0  0
   64.0365   50.8826  110.1869 C   0  0  0  0  0  0  0  0  0  0  0  0
   62.4957   55.2204  108.7413 C   0  0  0  0  0  0  0  0  0  0  0  0
   60.6008   52.7361  109.9967 O   0  0  0  0  0  0  0  0  0  0  0  0
   62.9401   50.3318  110.9533 C   0  0  0  0  0  0  0  0  0  0  0  0
   64.8504   55.3322  110.4703 N   0  0  0  0  0  0  0  0  0  0  0  0
   61.1769   54.8570  108.3916 C   0  0  0  0  0  0  0  0  0  0  0  0
   61.7444   51.0140  110.9143 C   0  0  0  0  0  0  0  0  0  0  0  0
  1  2  1  0
  1  3  2  0
  3  4  1  0
  2  5  1  0
  4  5  1  0
  4  6  1  0
  3  7  1  0
  5  8  1  0
  6  9  1  0
  7 10  2  0
  2 11  2  0
  8 12  1  0
  6 13  1  0
 10 13  1  0
M  END
>  <ID>  (1) 
conformer_0

$$$$
