
     RDKit          3D

 12 12  0  0  0  0  0  0  0  0999 V2000
   63.5681   50.9090  110.8433 C   0  0  0  0  0  0  0  0  0  0  0  0
   63.6615   52.0911  110.5966 C   0  0  0  0  0  0  0  0  0  0  0  0
   62.6757   52.7046  109.7661 C   0  0  0  0  0  0  0  0  0  0  0  0
   62.6667   54.1706  109.4883 C   0  0  0  0  0  0  0  0  0  0  0  0
   61.7853   51.8300  109.1509 C   0  0  0  0  0  0  0  0  0  0  0  0
   61.7606   50.4886  109.3632 C   0  0  0  0  0  0  0  0  0  0  0  0
   63.6479   54.9211  110.0966 N   0  0  0  0  0  0  0  0  0  0  0  0
   62.7034   54.4485  107.9748 C   0  0  0  0  0  0  0  0  0  0  0  0
   62.6779   49.9916  110.3000 C   0  0  0  0  0  0  0  0  0  0  0  0
   63.4755   55.6920  111.1962 C   0  0  0  0  0  0  0  0  0  0  0  0
   64.6280   56.3154  111.6189 N   0  0  0  0  0  0  0  0  0  0  0  0
   62.3755   55.9506  111.6213 O   0  0  0  0  0  0  0  0  0  0  0  0
  1  2  1  0
  2  3  2  0
  3  4  1  0
  3  5  1  0
  5  6  2  0
  4  7  1  0
  4  8  1  0
  1  9  2  0
  6  9  1  0
  7 10  1  0
 10 11  1  0
 10 12  2  0
M  END
>  <ID>  (1) 
conformer_0

$$$$
