
     RDKit          3D

 13 15  0  0  0  0  0  0  0  0999 V2000
   63.9512   50.4852  110.9906 C   0  0  0  0  0  0  0  0  0  0  0  0
   62.9150   49.7548  110.8181 C   0  0  0  0  0  0  0  0  0  0  0  0
   63.7809   51.8175  110.4676 C   0  0  0  0  0  0  0  0  0  0  0  0
   64.7383   52.7910  110.6215 N   0  0  0  0  0  0  0  0  0  0  0  0
   64.4044   53.9535  110.1789 C   0  0  0  0  0  0  0  0  0  0  0  0
   65.2209   55.0945  110.2653 N   0  0  0  0  0  0  0  0  0  0  0  0
   62.5629   51.9514  109.8395 C   0  0  0  0  0  0  0  0  0  0  0  0
   63.1263   54.2785  109.4957 C   0  0  0  0  0  0  0  0  0  0  0  0
   62.8997   55.6070  108.9670 C   0  0  0  0  0  0  0  0  0  0  0  0
   63.6832   56.5325  109.4773 C   0  0  0  0  0  0  0  0  0  0  0  0
   61.9522   50.6595  110.0146 O   0  0  0  0  0  0  0  0  0  0  0  0
   62.0386   53.1610  109.1801 C   0  0  0  0  0  0  0  0  0  0  0  0
   64.5691   56.3261  110.5245 C   0  0  0  0  0  0  0  0  0  0  0  0
  1  2  2  0
  1  3  1  0
  3  4  1  0
  4  5  2  0
  5  6  1  0
  3  7  2  0
  5  8  1  0
  8  9  1  0
  9 10  1  0
  2 11  1  0
  7 11  1  0
  7 12  1  0
  8 12  2  0
  6 13  1  0
 10 13  1  0
M  END
>  <ID>  (1) 
conformer_0

$$$$
