
     RDKit          3D

 11 12  0  0  0  0  0  0  0  0999 V2000
   65.0286   53.1076  109.8253 N   0  0  0  0  0  0  0  0  0  0  0  0
   64.0263   52.2954  110.1696 C   0  0  0  0  0  0  0  0  0  0  0  0
   62.7908   52.5417  109.5484 C   0  0  0  0  0  0  0  0  0  0  0  0
   62.6298   53.6871  108.8734 C   0  0  0  0  0  0  0  0  0  0  0  0
   64.2774   51.0877  110.9184 N   0  0  0  0  0  0  0  0  0  0  0  0
   64.7916   54.1917  109.1328 C   0  0  0  0  0  0  0  0  0  0  0  0
   63.0354   50.4012  110.9070 C   0  0  0  0  0  0  0  0  0  0  0  0
   61.9093   51.4067  109.6944 C   0  0  0  0  0  0  0  0  0  0  0  0
   63.5979   54.5384  108.6798 N   0  0  0  0  0  0  0  0  0  0  0  0
   63.3826   49.1995  111.7950 O   0  0  0  0  0  0  0  0  0  0  0  0
   61.9985   50.4275  110.4355 C   0  0  0  0  0  0  0  0  0  0  0  0
  1  2  1  0
  2  3  2  0
  3  4  1  0
  2  5  1  0
  1  6  2  0
  5  7  1  0
  3  8  1  0
  4  9  2  0
  6  9  1  0
  7 10  1  0
  7 11  2  0
  8 11  1  0
M  END
>  <ID>  (1) 
conformer_0

$$$$
