
     RDKit          3D

 13 13  0  0  0  0  0  0  0  0999 V2000
   61.4754   50.0669  108.7914 C   0  0  0  0  0  0  0  0  0  0  0  0
   62.1820   50.7153  109.6604 C   0  0  0  0  0  0  0  0  0  0  0  0
   62.6724   52.0547  109.4190 C   0  0  0  0  0  0  0  0  0  0  0  0
   62.2630   52.7991  108.3037 C   0  0  0  0  0  0  0  0  0  0  0  0
   61.4343   52.2117  107.4513 N   0  0  0  0  0  0  0  0  0  0  0  0
   63.5309   52.7091  110.4259 C   0  0  0  0  0  0  0  0  0  0  0  0
   60.9803   50.9337  107.7679 C   0  0  0  0  0  0  0  0  0  0  0  0
   64.1580   53.8162  110.1335 N   0  0  0  0  0  0  0  0  0  0  0  0
   63.9115   54.9332  110.9302 C   0  0  0  0  0  0  0  0  0  0  0  0
   64.7126   56.0496  110.7262 N   0  0  0  0  0  0  0  0  0  0  0  0
   64.6562   51.6892  110.8136 O   0  0  0  0  0  0  0  0  0  0  0  0
   62.5174   50.0853  110.9536 C   0  0  0  0  0  0  0  0  0  0  0  0
   62.9943   54.9629  111.7534 N   0  0  0  0  0  0  0  0  0  0  0  0
  1  2  1  0
  2  3  2  0
  3  4  1  0
  4  5  2  0
  3  6  1  0
  1  7  2  0
  5  7  1  0
  6  8  1  0
  8  9  1  0
  9 10  2  0
  6 11  1  0
  2 12  1  0
  9 13  1  0
M  END
>  <ID>  (1) 
conformer_0

$$$$
