
     RDKit          3D

 13 13  0  0  0  0  0  0  0  0999 V2000
   63.5681   50.9090  110.8433 C   0  0  0  0  0  0  0  0  0  0  0  0
   63.6615   52.0911  110.5966 C   0  0  0  0  0  0  0  0  0  0  0  0
   64.3032   50.2620  111.7369 O   0  0  0  0  0  0  0  0  0  0  0  0
   62.5556   49.9723  110.3313 C   0  0  0  0  0  0  0  0  0  0  0  0
   62.7800   52.6442  109.5782 C   0  0  0  0  0  0  0  0  0  0  0  0
   62.4024   48.6473  110.6577 F   0  0  0  0  0  0  0  0  0  0  0  0
   64.5262   52.9265  111.1058 O   0  0  0  0  0  0  0  0  0  0  0  0
   61.8283   50.3748  109.3789 C   0  0  0  0  0  0  0  0  0  0  0  0
   60.8719   49.5839  108.6265 F   0  0  0  0  0  0  0  0  0  0  0  0
   61.9352   51.7703  108.9007 C   0  0  0  0  0  0  0  0  0  0  0  0
   61.1524   52.2432  107.9454 O   0  0  0  0  0  0  0  0  0  0  0  0
   62.8375   53.9604  109.2058 C   0  0  0  0  0  0  0  0  0  0  0  0
   62.3743   54.9440  109.8535 O   0  0  0  0  0  0  0  0  0  0  0  0
  1  2  1  0
  1  3  2  0
  1  4  1  0
  2  5  2  0
  4  6  1  0
  2  7  1  0
  4  8  2  0
  8  9  1  0
  5 10  1  0
  8 10  1  0
 10 11  2  0
  5 12  1  0
 12 13  1  0
M  END
>  <ID>  (1) 
conformer_0

$$$$
