
     RDKit          3D

 12 13  0  0  0  0  0  0  0  0999 V2000
   62.2395   49.5478  110.6330 C   0  0  0  0  0  0  0  0  0  0  0  0
   62.0713   50.5178  109.6816 C   0  0  0  0  0  0  0  0  0  0  0  0
   62.6883   51.7626  109.7568 C   0  0  0  0  0  0  0  0  0  0  0  0
   62.5287   52.8816  108.8045 C   0  0  0  0  0  0  0  0  0  0  0  0
   63.3204   49.8381  111.5983 C   0  0  0  0  0  0  0  0  0  0  0  0
   63.7355   51.8900  110.6589 C   0  0  0  0  0  0  0  0  0  0  0  0
   64.0734   50.9409  111.6089 C   0  0  0  0  0  0  0  0  0  0  0  0
   60.9548   50.4295  108.7569 O   0  0  0  0  0  0  0  0  0  0  0  0
   64.3686   53.2394  110.6180 N   0  0  0  0  0  0  0  0  0  0  0  0
   62.9719   54.0846  108.9775 C   0  0  0  0  0  0  0  0  0  0  0  0
   64.0557   54.2344  109.9316 C   0  0  0  0  0  0  0  0  0  0  0  0
   64.7927   55.4473  110.0302 N   0  0  0  0  0  0  0  0  0  0  0  0
  1  2  2  0
  2  3  1  0
  3  4  1  0
  1  5  1  0
  3  6  2  0
  5  7  2  0
  6  7  1  0
  2  8  1  0
  6  9  1  0
  4 10  2  0
  9 11  2  0
 10 11  1  0
 11 12  1  0
M  END
>  <ID>  (1) 
conformer_0

$$$$
