
     RDKit          3D

 11 12  0  0  0  0  0  0  0  0999 V2000
   65.0286   53.1076  109.8253 N   0  0  0  0  0  0  0  0  0  0  0  0
   64.5988   54.2806  109.7164 C   0  0  0  0  0  0  0  0  0  0  0  0
   63.9833   52.1672  109.7512 C   0  0  0  0  0  0  0  0  0  0  0  0
   62.8704   52.8393  109.5718 C   0  0  0  0  0  0  0  0  0  0  0  0
   63.2232   54.2180  109.5651 N   0  0  0  0  0  0  0  0  0  0  0  0
   64.1465   50.8243  110.0447 C   0  0  0  0  0  0  0  0  0  0  0  0
   62.9736   50.0973  110.0235 C   0  0  0  0  0  0  0  0  0  0  0  0
   61.6865   50.7913  109.7378 C   0  0  0  0  0  0  0  0  0  0  0  0
   61.6938   52.1293  109.5813 C   0  0  0  0  0  0  0  0  0  0  0  0
   65.2397   55.6271  109.7154 N   0  0  0  0  0  0  0  0  0  0  0  0
   60.6240   50.0794  109.3923 O   0  0  0  0  0  0  0  0  0  0  0  0
  1  2  1  0
  1  3  2  0
  3  4  1  0
  2  5  2  0
  4  5  1  0
  3  6  1  0
  6  7  2  0
  7  8  1  0
  4  9  2  0
  8  9  1  0
  2 10  1  0
  8 11  1  0
M  END
>  <ID>  (1) 
conformer_0

$$$$
