
     RDKit          3D

 13 14  0  0  0  0  0  0  0  0999 V2000
   65.0286   53.1076  109.8253 N   0  0  0  0  0  0  0  0  0  0  0  0
   64.5988   54.2806  109.7164 C   0  0  0  0  0  0  0  0  0  0  0  0
   63.9833   52.1672  109.7512 C   0  0  0  0  0  0  0  0  0  0  0  0
   62.8704   52.8393  109.5718 C   0  0  0  0  0  0  0  0  0  0  0  0
   64.0015   50.8266  109.9757 C   0  0  0  0  0  0  0  0  0  0  0  0
   61.5768   52.2303  109.3973 C   0  0  0  0  0  0  0  0  0  0  0  0
   63.2349   54.2504  109.5831 N   0  0  0  0  0  0  0  0  0  0  0  0
   64.9268   50.2508  110.6435 F   0  0  0  0  0  0  0  0  0  0  0  0
   60.6053   53.0177  108.9102 O   0  0  0  0  0  0  0  0  0  0  0  0
   62.7032   50.1653  109.9333 C   0  0  0  0  0  0  0  0  0  0  0  0
   65.2376   55.4968  109.8057 N   0  0  0  0  0  0  0  0  0  0  0  0
   61.6028   50.8842  109.5627 C   0  0  0  0  0  0  0  0  0  0  0  0
   64.7991   56.4896  109.0741 C   0  0  0  0  0  0  0  0  0  0  0  0
  1  2  1  0
  1  3  2  0
  3  4  1  0
  3  5  1  0
  4  6  1  0
  2  7  1  0
  4  7  2  0
  5  8  1  0
  6  9  1  0
  5 10  2  0
  2 11  1  0
  6 12  2  0
 10 12  1  0
 11 13  1  0
M  END
>  <ID>  (1) 
conformer_0

$$$$
