
     RDKit          3D

 13 14  0  0  0  0  0  0  0  0999 V2000
   63.5681   50.9090  110.8433 C   0  0  0  0  0  0  0  0  0  0  0  0
   63.6615   52.0911  110.5966 C   0  0  0  0  0  0  0  0  0  0  0  0
   62.6757   52.7046  109.7661 C   0  0  0  0  0  0  0  0  0  0  0  0
   62.6667   54.1706  109.4883 C   0  0  0  0  0  0  0  0  0  0  0  0
   61.7853   51.8300  109.1509 C   0  0  0  0  0  0  0  0  0  0  0  0
   61.7606   50.4886  109.3632 C   0  0  0  0  0  0  0  0  0  0  0  0
   63.6479   54.9211  110.0966 N   0  0  0  0  0  0  0  0  0  0  0  0
   60.8302   49.6757  108.7323 O   0  0  0  0  0  0  0  0  0  0  0  0
   61.3286   54.7272  109.6531 C   0  0  0  0  0  0  0  0  0  0  0  0
   63.8219   56.1709  109.7551 C   0  0  0  0  0  0  0  0  0  0  0  0
   62.6798   50.0058  110.3086 C   0  0  0  0  0  0  0  0  0  0  0  0
   61.2719   56.0504  109.2468 C   0  0  0  0  0  0  0  0  0  0  0  0
   62.3937   56.9079  110.0198 C   0  0  0  0  0  0  0  0  0  0  0  0
  1  2  1  0
  2  3  2  0
  3  4  1  0
  3  5  1  0
  5  6  2  0
  4  7  1  0
  6  8  1  0
  4  9  1  0
  7 10  1  0
  1 11  2  0
  6 11  1  0
  9 12  1  0
 10 13  1  0
 12 13  1  0
M  END
>  <ID>  (1) 
conformer_0

$$$$
