
     RDKit          3D

 13 13  0  0  0  0  0  0  0  0999 V2000
   63.5681   50.9090  110.8433 C   0  0  0  0  0  0  0  0  0  0  0  0
   63.6615   52.0911  110.5966 C   0  0  0  0  0  0  0  0  0  0  0  0
   64.3032   50.2620  111.7369 O   0  0  0  0  0  0  0  0  0  0  0  0
   64.8017   52.8210  110.9889 O   0  0  0  0  0  0  0  0  0  0  0  0
   63.2846   52.6575  109.2583 C   0  0  0  0  0  0  0  0  0  0  0  0
   61.9505   52.4065  108.8256 O   0  0  0  0  0  0  0  0  0  0  0  0
   64.7544   54.1356  110.5272 C   0  0  0  0  0  0  0  0  0  0  0  0
   63.3221   54.2551  109.5046 C   0  0  0  0  0  0  0  0  0  0  0  0
   63.7468   54.9104  108.2991 O   0  0  0  0  0  0  0  0  0  0  0  0
   61.8107   51.4486  107.8722 C   0  0  0  0  0  0  0  0  0  0  0  0
   64.4152   55.3409  111.2719 C   0  0  0  0  0  0  0  0  0  0  0  0
   64.9280   56.4743  110.8878 O   0  0  0  0  0  0  0  0  0  0  0  0
   62.7054   49.9880  110.0988 O   0  0  0  0  0  0  0  0  0  0  0  0
  1  2  1  0
  1  3  2  0
  2  4  1  0
  2  5  1  0
  5  6  1  0
  4  7  1  0
  5  8  1  0
  7  8  1  0
  8  9  1  0
  6 10  1  0
  7 11  1  0
 11 12  1  0
  1 13  1  0
M  END
>  <ID>  (1) 
conformer_0

$$$$
