
     RDKit          3D

 10 11  0  0  0  0  0  0  0  0999 V2000
   65.0286   53.1076  109.8253 N   0  0  0  0  0  0  0  0  0  0  0  0
   64.5988   54.2806  109.7164 C   0  0  0  0  0  0  0  0  0  0  0  0
   63.9833   52.1672  109.7512 C   0  0  0  0  0  0  0  0  0  0  0  0
   62.8704   52.8393  109.5718 C   0  0  0  0  0  0  0  0  0  0  0  0
   64.0015   50.8266  109.9757 C   0  0  0  0  0  0  0  0  0  0  0  0
   61.5768   52.2303  109.3973 C   0  0  0  0  0  0  0  0  0  0  0  0
   62.7459   50.1281  109.8789 C   0  0  0  0  0  0  0  0  0  0  0  0
   63.1009   54.2812  109.5065 N   0  0  0  0  0  0  0  0  0  0  0  0
   61.5912   50.8932  109.5131 C   0  0  0  0  0  0  0  0  0  0  0  0
   65.2222   55.6203  109.8075 N   0  0  0  0  0  0  0  0  0  0  0  0
  1  2  1  0
  1  3  2  0
  3  4  1  0
  3  5  1  0
  4  6  1  0
  5  7  2  0
  2  8  2  0
  4  8  1  0
  6  9  2  0
  7  9  1  0
  2 10  1  0
M  END
>  <ID>  (1) 
conformer_0

$$$$
