
     RDKit          3D

 10  9  0  0  0  0  0  0  0  0999 V2000
   64.8023   51.6257  110.8127 O   0  0  0  0  0  0  0  0  0  0  0  0
   63.6714   52.0670  110.5829 C   0  0  0  0  0  0  0  0  0  0  0  0
   62.5916   51.0906  110.3354 C   0  0  0  0  0  0  0  0  0  0  0  0
   62.2621   51.0075  108.9816 C   0  0  0  0  0  0  0  0  0  0  0  0
   63.3342   53.3420  110.7983 N   0  0  0  0  0  0  0  0  0  0  0  0
   64.4154   54.2745  110.9464 C   0  0  0  0  0  0  0  0  0  0  0  0
   63.0338   49.7022  110.7522 C   0  0  0  0  0  0  0  0  0  0  0  0
   61.4058   51.3789  111.0773 C   0  0  0  0  0  0  0  0  0  0  0  0
   64.5876   54.8709  109.6362 C   0  0  0  0  0  0  0  0  0  0  0  0
   64.8779   56.1697  109.5977 N   0  0  0  0  0  0  0  0  0  0  0  0
  1  2  2  0
  2  3  1  0
  3  4  1  0
  2  5  1  0
  5  6  1  0
  3  7  1  0
  3  8  1  0
  6  9  1  0
  9 10  1  0
M  END
>  <ID>  (1) 
conformer_0

$$$$
