
     RDKit          3D

 13 14  0  0  0  0  0  0  0  0999 V2000
   63.9512   50.4852  110.9906 C   0  0  0  0  0  0  0  0  0  0  0  0
   62.9150   49.7548  110.8181 C   0  0  0  0  0  0  0  0  0  0  0  0
   63.7809   51.8175  110.4676 C   0  0  0  0  0  0  0  0  0  0  0  0
   64.7383   52.7910  110.6215 N   0  0  0  0  0  0  0  0  0  0  0  0
   64.4044   53.9535  110.1789 C   0  0  0  0  0  0  0  0  0  0  0  0
   65.2209   55.0945  110.2653 N   0  0  0  0  0  0  0  0  0  0  0  0
   62.5629   51.9514  109.8395 C   0  0  0  0  0  0  0  0  0  0  0  0
   63.0662   54.0952  109.3302 C   0  0  0  0  0  0  0  0  0  0  0  0
   61.9219   50.6387  109.9908 O   0  0  0  0  0  0  0  0  0  0  0  0
   62.8061   55.4161  108.7599 C   0  0  0  0  0  0  0  0  0  0  0  0
   62.2254   53.0781  109.2660 C   0  0  0  0  0  0  0  0  0  0  0  0
   62.4336   56.3776  109.4736 O   0  0  0  0  0  0  0  0  0  0  0  0
   62.9348   55.5713  107.5031 O   0  0  0  0  0  0  0  0  0  0  0  0
  1  2  2  0
  1  3  1  0
  3  4  1  0
  4  5  2  0
  5  6  1  0
  3  7  2  0
  5  8  1  0
  2  9  1  0
  7  9  1  0
  8 10  1  0
  7 11  1  0
  8 11  2  0
 10 12  2  0
 10 13  1  0
M  END
>  <ID>  (1) 
conformer_0

$$$$
