
     RDKit          3D

 12 12  0  0  0  0  0  0  0  0999 V2000
   63.5681   50.9090  110.8433 C   0  0  0  0  0  0  0  0  0  0  0  0
   63.6615   52.0911  110.5966 C   0  0  0  0  0  0  0  0  0  0  0  0
   62.6757   52.7046  109.7661 C   0  0  0  0  0  0  0  0  0  0  0  0
   62.6667   54.1706  109.4883 C   0  0  0  0  0  0  0  0  0  0  0  0
   61.6791   51.9529  109.2500 C   0  0  0  0  0  0  0  0  0  0  0  0
   62.5931   49.9911  110.2682 C   0  0  0  0  0  0  0  0  0  0  0  0
   63.0867   54.5217  108.1499 C   0  0  0  0  0  0  0  0  0  0  0  0
   61.3447   54.8016  109.7109 C   0  0  0  0  0  0  0  0  0  0  0  0
   61.6550   50.5789  109.4156 C   0  0  0  0  0  0  0  0  0  0  0  0
   63.6813   55.1091  110.1534 C   0  0  0  0  0  0  0  0  0  0  0  0
   64.8122   54.6992  110.3295 O   0  0  0  0  0  0  0  0  0  0  0  0
   63.3220   56.1247  110.8135 O   0  0  0  0  0  0  0  0  0  0  0  0
  1  2  1  0
  2  3  2  0
  3  4  1  0
  3  5  1  0
  1  6  2  0
  4  7  1  0
  4  8  1  0
  5  9  2  0
  6  9  1  0
  4 10  1  0
 10 11  2  0
 10 12  1  0
M  END
>  <ID>  (1) 
conformer_0

$$$$
