
     RDKit          3D

 11 11  0  0  0  0  0  0  0  0999 V2000
   61.9718   50.1127  109.3554 C   0  0  0  0  0  0  0  0  0  0  0  0
   62.1415   51.3937  109.4399 C   0  0  0  0  0  0  0  0  0  0  0  0
   63.3097   51.9218  110.2918 C   0  0  0  0  0  0  0  0  0  0  0  0
   61.5477   52.3802  108.7009 C   0  0  0  0  0  0  0  0  0  0  0  0
   63.6906   53.2328  110.2363 C   0  0  0  0  0  0  0  0  0  0  0  0
   64.7748   53.6640  111.0493 O   0  0  0  0  0  0  0  0  0  0  0  0
   63.0939   54.1775  109.2103 C   0  0  0  0  0  0  0  0  0  0  0  0
   63.9931   51.1719  111.2005 O   0  0  0  0  0  0  0  0  0  0  0  0
   62.0237   53.6747  108.5731 C   0  0  0  0  0  0  0  0  0  0  0  0
   63.5523   55.2552  109.1324 O   0  0  0  0  0  0  0  0  0  0  0  0
   63.6977   56.2119  110.1859 C   0  0  0  0  0  0  0  0  0  0  0  0
  1  2  1  0
  2  3  1  0
  2  4  2  0
  3  5  2  0
  5  6  1  0
  5  7  1  0
  3  8  1  0
  4  9  1  0
  7  9  2  0
  7 10  1  0
 10 11  1  0
M  END
>  <ID>  (1) 
conformer_0

$$$$
