
     RDKit          3D

 11 10  0  0  0  0  0  0  0  0999 V2000
   61.7731   51.4388  108.2186 O   0  0  0  0  0  0  0  0  0  0  0  0
   61.9574   50.9280  109.3600 C   0  0  0  0  0  0  0  0  0  0  0  0
   62.9986   51.5914  110.2146 C   0  0  0  0  0  0  0  0  0  0  0  0
   63.2914   52.9509  109.9846 C   0  0  0  0  0  0  0  0  0  0  0  0
   64.4432   53.2158  109.1887 N   0  0  0  0  0  0  0  0  0  0  0  0
   62.6014   51.3207  111.6202 C   0  0  0  0  0  0  0  0  0  0  0  0
   64.7674   54.5526  109.0921 C   0  0  0  0  0  0  0  0  0  0  0  0
   61.3772   49.8453  109.6809 O   0  0  0  0  0  0  0  0  0  0  0  0
   64.1584   55.2610  108.2216 O   0  0  0  0  0  0  0  0  0  0  0  0
   65.6463   54.8200  110.0065 O   0  0  0  0  0  0  0  0  0  0  0  0
   63.6597   56.4952  108.8140 C   0  0  0  0  0  0  0  0  0  0  0  0
  1  2  2  0
  2  3  1  0
  3  4  1  0
  4  5  1  0
  3  6  1  0
  5  7  1  0
  2  8  1  0
  7  9  1  0
  7 10  2  0
  9 11  1  0
M  END
>  <ID>  (1) 
conformer_0

$$$$
