
     RDKit          3D

 13 14  0  0  0  0  0  0  0  0999 V2000
   61.9718   50.1127  109.3554 C   0  0  0  0  0  0  0  0  0  0  0  0
   62.1415   51.3937  109.4399 C   0  0  0  0  0  0  0  0  0  0  0  0
   63.3097   51.9218  110.2918 C   0  0  0  0  0  0  0  0  0  0  0  0
   61.5477   52.3802  108.7009 C   0  0  0  0  0  0  0  0  0  0  0  0
   63.6906   53.2328  110.2363 C   0  0  0  0  0  0  0  0  0  0  0  0
   61.9675   53.7143  108.6555 C   0  0  0  0  0  0  0  0  0  0  0  0
   64.7415   53.6490  111.1054 O   0  0  0  0  0  0  0  0  0  0  0  0
   63.0830   54.0942  109.3000 C   0  0  0  0  0  0  0  0  0  0  0  0
   63.5114   55.4856  109.3599 O   0  0  0  0  0  0  0  0  0  0  0  0
   62.2360   49.3631  110.5122 C   0  0  0  0  0  0  0  0  0  0  0  0
   63.1151   56.2880  110.2544 C   0  0  0  0  0  0  0  0  0  0  0  0
   63.9160   51.0410  111.2271 C   0  0  0  0  0  0  0  0  0  0  0  0
   63.6131   49.6349  111.0975 C   0  0  0  0  0  0  0  0  0  0  0  0
  1  2  1  0
  2  3  1  0
  2  4  2  0
  3  5  2  0
  4  6  1  0
  5  7  1  0
  5  8  1  0
  6  8  2  0
  8  9  1  0
  1 10  1  0
  9 11  1  0
  3 12  1  0
 10 13  1  0
 12 13  1  0
M  END
>  <ID>  (1) 
conformer_0

$$$$
