
     RDKit          3D

 12 13  0  0  0  0  0  0  0  0999 V2000
   61.5478   49.8620  109.5197 C   0  0  0  0  0  0  0  0  0  0  0  0
   62.1891   50.0162  110.6109 C   0  0  0  0  0  0  0  0  0  0  0  0
   63.1800   50.9984  110.7502 C   0  0  0  0  0  0  0  0  0  0  0  0
   63.2293   52.0042  109.8542 C   0  0  0  0  0  0  0  0  0  0  0  0
   62.3570   52.0588  108.8121 C   0  0  0  0  0  0  0  0  0  0  0  0
   64.1327   53.1170  110.1071 N   0  0  0  0  0  0  0  0  0  0  0  0
   63.9287   54.2236  109.4816 C   0  0  0  0  0  0  0  0  0  0  0  0
   63.1974   54.3551  108.3278 C   0  0  0  0  0  0  0  0  0  0  0  0
   65.0014   55.2982  109.9986 N   0  0  0  0  0  0  0  0  0  0  0  0
   64.6064   55.8201  111.2340 C   0  0  0  0  0  0  0  0  0  0  0  0
   61.4101   50.9809  108.6355 C   0  0  0  0  0  0  0  0  0  0  0  0
   62.2006   53.3292  108.0924 C   0  0  0  0  0  0  0  0  0  0  0  0
  1  2  1  0
  2  3  2  0
  3  4  1  0
  4  5  2  0
  4  6  1  0
  6  7  2  0
  7  8  1  0
  7  9  1  0
  9 10  1  0
  1 11  2  0
  5 11  1  0
  5 12  1  0
  8 12  2  0
M  END
>  <ID>  (1) 
conformer_0

$$$$
