
     RDKit          3D

 13 14  0  0  0  0  0  0  0  0999 V2000
   63.8670   50.2660  111.3526 C   0  0  0  0  0  0  0  0  0  0  0  0
   63.9687   51.4533  110.9292 N   0  0  0  0  0  0  0  0  0  0  0  0
   63.0754   51.9534  110.1408 C   0  0  0  0  0  0  0  0  0  0  0  0
   63.3100   53.4332  109.8122 C   0  0  0  0  0  0  0  0  0  0  0  0
   63.9068   54.2090  110.7428 N   0  0  0  0  0  0  0  0  0  0  0  0
   62.1317   53.9954  109.1593 C   0  0  0  0  0  0  0  0  0  0  0  0
   62.1769   53.8044  107.7379 C   0  0  0  0  0  0  0  0  0  0  0  0
   64.0581   55.5566  110.3927 C   0  0  0  0  0  0  0  0  0  0  0  0
   61.8292   51.3991  109.8084 C   0  0  0  0  0  0  0  0  0  0  0  0
   62.0931   55.4886  109.3903 C   0  0  0  0  0  0  0  0  0  0  0  0
   62.5991   49.5099  111.0097 C   0  0  0  0  0  0  0  0  0  0  0  0
   62.8469   56.1936  110.3867 C   0  0  0  0  0  0  0  0  0  0  0  0
   61.6652   50.0989  110.2470 C   0  0  0  0  0  0  0  0  0  0  0  0
  1  2  2  0
  2  3  1  0
  3  4  1  0
  4  5  1  0
  4  6  1  0
  6  7  1  0
  5  8  1  0
  3  9  2  0
  6 10  1  0
  1 11  1  0
  8 12  1  0
 10 12  1  0
  9 13  1  0
 11 13  2  0
M  END
>  <ID>  (1) 
conformer_0

$$$$
