
     RDKit          3D

 13 13  0  0  0  0  0  0  0  0999 V2000
   64.7236   51.7681  110.5549 O   0  0  0  0  0  0  0  0  0  0  0  0
   63.5580   52.2749  110.4933 C   0  0  0  0  0  0  0  0  0  0  0  0
   62.5421   51.3750  109.8517 C   0  0  0  0  0  0  0  0  0  0  0  0
   63.4350   53.6326  109.8843 C   0  0  0  0  0  0  0  0  0  0  0  0
   63.8593   54.6235  110.7480 C   0  0  0  0  0  0  0  0  0  0  0  0
   62.0382   50.2079  110.4874 C   0  0  0  0  0  0  0  0  0  0  0  0
   60.9588   49.6920  110.0974 O   0  0  0  0  0  0  0  0  0  0  0  0
   61.9995   51.7110  108.7002 N   0  0  0  0  0  0  0  0  0  0  0  0
   62.8087   49.6780  111.4456 O   0  0  0  0  0  0  0  0  0  0  0  0
   63.1128   53.8948  108.7284 C   0  0  0  0  0  0  0  0  0  0  0  0
   62.1910   52.9075  108.1240 C   0  0  0  0  0  0  0  0  0  0  0  0
   64.2704   55.7797  110.2069 N   0  0  0  0  0  0  0  0  0  0  0  0
   63.7151   56.9190  110.5927 C   0  0  0  0  0  0  0  0  0  0  0  0
  1  2  1  0
  2  3  1  0
  2  4  1  0
  4  5  1  0
  3  6  1  0
  6  7  2  0
  3  8  2  0
  6  9  1  0
  4 10  2  0
  8 11  1  0
 10 11  1  0
  5 12  1  0
 12 13  1  0
M  END
>  <ID>  (1) 
conformer_0

$$$$
