
     RDKit          3D

 11 11  0  0  0  0  0  0  0  0999 V2000
   64.8023   51.6257  110.8127 O   0  0  0  0  0  0  0  0  0  0  0  0
   63.5893   51.4148  110.8632 C   0  0  0  0  0  0  0  0  0  0  0  0
   63.2294   50.1419  110.8108 C   0  0  0  0  0  0  0  0  0  0  0  0
   61.8733   49.7879  110.6275 C   0  0  0  0  0  0  0  0  0  0  0  0
   62.7291   52.4695  110.3169 C   0  0  0  0  0  0  0  0  0  0  0  0
   61.3530   52.0447  110.2159 C   0  0  0  0  0  0  0  0  0  0  0  0
   63.0421   53.7741  110.3074 C   0  0  0  0  0  0  0  0  0  0  0  0
   63.8099   54.2908  111.1898 O   0  0  0  0  0  0  0  0  0  0  0  0
   64.5926   55.3598  110.6434 C   0  0  0  0  0  0  0  0  0  0  0  0
   61.0358   50.5804  110.1557 C   0  0  0  0  0  0  0  0  0  0  0  0
   61.8719   54.5727  110.0789 O   0  0  0  0  0  0  0  0  0  0  0  0
  1  2  1  0
  2  3  2  0
  3  4  1  0
  2  5  1  0
  5  6  2  0
  5  7  1  0
  7  8  1  0
  8  9  1  0
  4 10  2  0
  6 10  1  0
  7 11  1  0
M  END
>  <ID>  (1) 
conformer_0

$$$$
