
     RDKit          3D

 12 12  0  0  0  0  0  0  0  0999 V2000
   61.9062   52.4262  107.9873 O   0  0  0  0  0  0  0  0  0  0  0  0
   62.4539   53.1136  108.7454 C   0  0  0  0  0  0  0  0  0  0  0  0
   63.2700   52.5420  109.7856 C   0  0  0  0  0  0  0  0  0  0  0  0
   62.7929   51.3409  110.4031 C   0  0  0  0  0  0  0  0  0  0  0  0
   62.6217   50.2167  109.6582 O   0  0  0  0  0  0  0  0  0  0  0  0
   63.8491   50.9116  111.4612 C   0  0  0  0  0  0  0  0  0  0  0  0
   64.2334   53.2177  110.3654 N   0  0  0  0  0  0  0  0  0  0  0  0
   64.5840   54.4532  109.8970 C   0  0  0  0  0  0  0  0  0  0  0  0
   62.7397   54.4594  108.3793 N   0  0  0  0  0  0  0  0  0  0  0  0
   65.2443   55.2428  110.8130 N   0  0  0  0  0  0  0  0  0  0  0  0
   63.7338   55.1085  108.9782 C   0  0  0  0  0  0  0  0  0  0  0  0
   64.0070   56.5118  108.6931 C   0  0  0  0  0  0  0  0  0  0  0  0
  1  2  2  0
  2  3  1  0
  3  4  1  0
  4  5  1  0
  4  6  1  0
  3  7  2  0
  7  8  1  0
  2  9  1  0
  8 10  1  0
  8 11  2  0
  9 11  1  0
 11 12  1  0
M  END
>  <ID>  (1) 
conformer_0

$$$$
