
     RDKit          3D

 13 15  0  0  0  0  0  0  0  0999 V2000
   65.0286   53.1076  109.8253 N   0  0  0  0  0  0  0  0  0  0  0  0
   64.5988   54.2806  109.7164 C   0  0  0  0  0  0  0  0  0  0  0  0
   63.9833   52.1672  109.7512 C   0  0  0  0  0  0  0  0  0  0  0  0
   62.8704   52.8393  109.5718 C   0  0  0  0  0  0  0  0  0  0  0  0
   64.0015   50.8266  109.9757 C   0  0  0  0  0  0  0  0  0  0  0  0
   61.5768   52.2303  109.3973 C   0  0  0  0  0  0  0  0  0  0  0  0
   63.2127   54.2217  109.5654 N   0  0  0  0  0  0  0  0  0  0  0  0
   62.2768   55.2884  109.8711 C   0  0  0  0  0  0  0  0  0  0  0  0
   62.9252   56.4721  110.0211 C   0  0  0  0  0  0  0  0  0  0  0  0
   65.1126   55.4382  109.9305 N   0  0  0  0  0  0  0  0  0  0  0  0
   64.4918   56.5076  110.0980 C   0  0  0  0  0  0  0  0  0  0  0  0
   62.8342   50.0840  109.9777 C   0  0  0  0  0  0  0  0  0  0  0  0
   61.5944   50.8575  109.6441 C   0  0  0  0  0  0  0  0  0  0  0  0
  1  2  1  0
  1  3  2  0
  3  4  1  0
  3  5  1  0
  4  6  1  0
  2  7  1  0
  4  7  1  0
  7  8  1  0
  8  9  2  0
  2 10  2  0
  9 11  1  0
 10 11  1  0
  5 12  2  0
  6 13  2  0
 12 13  1  0
M  END
>  <ID>  (1) 
conformer_0

$$$$
