
     RDKit          3D

 12 12  0  0  0  0  0  0  0  0999 V2000
   64.7236   51.7681  110.5549 O   0  0  0  0  0  0  0  0  0  0  0  0
   63.5580   52.2749  110.4933 C   0  0  0  0  0  0  0  0  0  0  0  0
   62.5421   51.3750  109.8517 C   0  0  0  0  0  0  0  0  0  0  0  0
   63.4350   53.6326  109.8843 C   0  0  0  0  0  0  0  0  0  0  0  0
   63.8593   54.6235  110.7480 C   0  0  0  0  0  0  0  0  0  0  0  0
   62.0382   50.2079  110.4874 C   0  0  0  0  0  0  0  0  0  0  0  0
   60.9588   49.6920  110.0974 O   0  0  0  0  0  0  0  0  0  0  0  0
   63.0998   55.4805  111.2725 O   0  0  0  0  0  0  0  0  0  0  0  0
   62.1121   53.8022  109.3645 N   0  0  0  0  0  0  0  0  0  0  0  0
   62.6675   49.9155  111.6452 O   0  0  0  0  0  0  0  0  0  0  0  0
   61.5944   52.3493  109.1762 C   0  0  0  0  0  0  0  0  0  0  0  0
   65.1641   55.0426  110.6577 O   0  0  0  0  0  0  0  0  0  0  0  0
  1  2  1  0
  2  3  1  0
  2  4  1  0
  4  5  1  0
  3  6  1  0
  6  7  2  0
  5  8  1  0
  4  9  1  0
  6 10  1  0
  3 11  1  0
  9 11  1  0
  5 12  2  0
M  END
>  <ID>  (1) 
conformer_0

$$$$
