
     RDKit          3D

 11 11  0  0  0  0  0  0  0  0999 V2000
   65.0286   53.1076  109.8253 N   0  0  0  0  0  0  0  0  0  0  0  0
   64.5988   54.2806  109.7164 C   0  0  0  0  0  0  0  0  0  0  0  0
   64.2501   52.2717  110.6334 C   0  0  0  0  0  0  0  0  0  0  0  0
   62.8683   52.2388  110.3608 C   0  0  0  0  0  0  0  0  0  0  0  0
   62.2534   50.9957  110.7455 C   0  0  0  0  0  0  0  0  0  0  0  0
   63.2719   54.5075  109.3762 C   0  0  0  0  0  0  0  0  0  0  0  0
   61.1379   50.6317  110.2209 O   0  0  0  0  0  0  0  0  0  0  0  0
   65.4083   55.3263  108.9752 N   0  0  0  0  0  0  0  0  0  0  0  0
   62.9761   50.0702  111.2280 O   0  0  0  0  0  0  0  0  0  0  0  0
   62.2494   53.3891  109.8258 C   0  0  0  0  0  0  0  0  0  0  0  0
   62.9537   54.5963  107.8985 O   0  0  0  0  0  0  0  0  0  0  0  0
  1  2  1  0
  1  3  1  0
  3  4  1  0
  4  5  1  0
  2  6  1  0
  5  7  2  0
  2  8  1  0
  5  9  1  0
  4 10  2  0
  6 10  1  0
  6 11  1  0
M  END
>  <ID>  (1) 
conformer_0

$$$$
