
     RDKit          3D

 12 12  0  0  0  0  0  0  0  0999 V2000
   65.0286   53.1076  109.8253 O   0  0  0  0  0  0  0  0  0  0  0  0
   64.3273   54.1087  109.9205 C   0  0  0  0  0  0  0  0  0  0  0  0
   62.9065   53.8214  109.7892 C   0  0  0  0  0  0  0  0  0  0  0  0
   62.7303   52.4074  109.6979 C   0  0  0  0  0  0  0  0  0  0  0  0
   61.7358   51.6720  110.1709 C   0  0  0  0  0  0  0  0  0  0  0  0
   63.9844   52.0191  110.2163 C   0  0  0  0  0  0  0  0  0  0  0  0
   62.4136   52.5319  108.2115 O   0  0  0  0  0  0  0  0  0  0  0  0
   64.5424   55.4208  109.1025 C   0  0  0  0  0  0  0  0  0  0  0  0
   63.9924   51.7941  111.5722 O   0  0  0  0  0  0  0  0  0  0  0  0
   64.3262   56.4902  109.8562 O   0  0  0  0  0  0  0  0  0  0  0  0
   61.6092   50.4304  110.1233 O   0  0  0  0  0  0  0  0  0  0  0  0
   62.0349   54.6998  109.1266 O   0  0  0  0  0  0  0  0  0  0  0  0
  1  2  1  0
  2  3  1  0
  3  4  1  0
  4  5  1  0
  1  6  1  0
  4  6  1  0
  4  7  1  0
  2  8  1  0
  6  9  1  0
  8 10  1  0
  5 11  2  0
  3 12  1  0
M  END
>  <ID>  (1) 
conformer_0

$$$$
