
     RDKit          3D

 13 14  0  0  0  0  0  0  0  0999 V2000
   63.8670   50.2660  111.3526 C   0  0  0  0  0  0  0  0  0  0  0  0
   63.9687   51.4533  110.9292 N   0  0  0  0  0  0  0  0  0  0  0  0
   63.0754   51.9534  110.1408 C   0  0  0  0  0  0  0  0  0  0  0  0
   63.3100   53.4332  109.8122 C   0  0  0  0  0  0  0  0  0  0  0  0
   63.9068   54.2090  110.7428 N   0  0  0  0  0  0  0  0  0  0  0  0
   62.1317   53.9954  109.1593 C   0  0  0  0  0  0  0  0  0  0  0  0
   62.1769   53.8044  107.7379 C   0  0  0  0  0  0  0  0  0  0  0  0
   64.0581   55.5566  110.3927 C   0  0  0  0  0  0  0  0  0  0  0  0
   61.8292   51.3991  109.8084 C   0  0  0  0  0  0  0  0  0  0  0  0
   61.8350   49.9912  110.2719 C   0  0  0  0  0  0  0  0  0  0  0  0
   62.8894   56.1741  110.0224 C   0  0  0  0  0  0  0  0  0  0  0  0
   62.6800   49.4812  111.0095 C   0  0  0  0  0  0  0  0  0  0  0  0
   62.0244   55.4866  109.2579 N   0  0  0  0  0  0  0  0  0  0  0  0
  1  2  2  0
  2  3  1  0
  3  4  1  0
  4  5  1  0
  4  6  1  0
  6  7  1  0
  5  8  1  0
  3  9  2  0
  9 10  1  0
  8 11  1  0
  1 12  1  0
 10 12  2  0
  6 13  1  0
 11 13  2  0
M  END
>  <ID>  (1) 
conformer_0

$$$$
