
     RDKit          3D

 12 13  0  0  0  0  0  0  0  0999 V2000
   61.5583   49.5520  110.3776 C   0  0  0  0  0  0  0  0  0  0  0  0
   61.3611   50.2863  109.2583 C   0  0  0  0  0  0  0  0  0  0  0  0
   61.7882   51.4869  108.9501 C   0  0  0  0  0  0  0  0  0  0  0  0
   62.7135   52.0348  109.8481 C   0  0  0  0  0  0  0  0  0  0  0  0
   63.3327   53.3930  109.5104 C   0  0  0  0  0  0  0  0  0  0  0  0
   62.4747   54.2694  108.9945 N   0  0  0  0  0  0  0  0  0  0  0  0
   62.0539   55.3585  109.5542 C   0  0  0  0  0  0  0  0  0  0  0  0
   63.9404   54.1939  110.5447 C   0  0  0  0  0  0  0  0  0  0  0  0
   62.5546   50.1572  111.3186 C   0  0  0  0  0  0  0  0  0  0  0  0
   63.1643   51.3259  110.9870 C   0  0  0  0  0  0  0  0  0  0  0  0
   63.3511   55.6050  110.4917 C   0  0  0  0  0  0  0  0  0  0  0  0
   64.3458   56.3780  109.6333 N   0  0  0  0  0  0  0  0  0  0  0  0
  1  2  2  0
  2  3  1  0
  3  4  2  0
  4  5  1  0
  5  6  1  0
  6  7  1  0
  5  8  1  0
  1  9  1  0
  4 10  1  0
  9 10  2  0
  7 11  1  0
  8 11  1  0
 11 12  1  0
M  END
>  <ID>  (1) 
conformer_0

$$$$
