
     RDKit          3D

 12 13  0  0  0  0  0  0  0  0999 V2000
   61.5478   49.8620  109.5197 C   0  0  0  0  0  0  0  0  0  0  0  0
   62.2088   51.0998  109.3761 C   0  0  0  0  0  0  0  0  0  0  0  0
   63.0629   51.6143  110.4509 C   0  0  0  0  0  0  0  0  0  0  0  0
   63.7552   52.8533  110.4016 C   0  0  0  0  0  0  0  0  0  0  0  0
   61.7827   52.1150  108.4289 C   0  0  0  0  0  0  0  0  0  0  0  0
   63.4250   50.6511  111.5742 C   0  0  0  0  0  0  0  0  0  0  0  0
   62.9243   49.3366  111.4524 C   0  0  0  0  0  0  0  0  0  0  0  0
   63.2869   53.7289  109.3726 N   0  0  0  0  0  0  0  0  0  0  0  0
   64.5816   53.3414  111.3562 O   0  0  0  0  0  0  0  0  0  0  0  0
   64.6836   54.7262  111.2022 C   0  0  0  0  0  0  0  0  0  0  0  0
   61.9275   49.0402  110.5266 C   0  0  0  0  0  0  0  0  0  0  0  0
   62.3797   53.3574  108.4451 C   0  0  0  0  0  0  0  0  0  0  0  0
  1  2  1  0
  2  3  2  0
  3  4  1  0
  2  5  1  0
  3  6  1  0
  6  7  2  0
  4  8  2  0
  4  9  1  0
  9 10  1  0
  1 11  2  0
  7 11  1  0
  5 12  2  0
  8 12  1  0
M  END
>  <ID>  (1) 
conformer_0

$$$$
