
     RDKit          3D

 13 14  0  0  0  0  0  0  0  0999 V2000
   63.5681   50.9090  110.8433 C   0  0  0  0  0  0  0  0  0  0  0  0
   63.6615   52.0911  110.5966 C   0  0  0  0  0  0  0  0  0  0  0  0
   62.6757   52.7046  109.7661 C   0  0  0  0  0  0  0  0  0  0  0  0
   61.6329   51.9511  109.2652 C   0  0  0  0  0  0  0  0  0  0  0  0
   64.6329   52.8860  111.1085 N   0  0  0  0  0  0  0  0  0  0  0  0
   62.7792   54.1791  109.5802 C   0  0  0  0  0  0  0  0  0  0  0  0
   64.6287   54.2409  110.8839 C   0  0  0  0  0  0  0  0  0  0  0  0
   62.6036   49.9921  110.3203 C   0  0  0  0  0  0  0  0  0  0  0  0
   61.6484   50.5913  109.4376 C   0  0  0  0  0  0  0  0  0  0  0  0
   63.6718   54.8293  110.0985 C   0  0  0  0  0  0  0  0  0  0  0  0
   63.7285   56.2992  109.8956 C   0  0  0  0  0  0  0  0  0  0  0  0
   63.0387   56.7523  108.9949 O   0  0  0  0  0  0  0  0  0  0  0  0
   64.4855   57.0723  110.5778 N   0  0  0  0  0  0  0  0  0  0  0  0
  1  2  1  0
  2  3  2  0
  3  4  1  0
  2  5  1  0
  3  6  1  0
  5  7  2  0
  1  8  2  0
  4  9  2  0
  8  9  1  0
  6 10  2  0
  7 10  1  0
 10 11  1  0
 11 12  2  0
 11 13  1  0
M  END
>  <ID>  (1) 
conformer_0

$$$$
