
     RDKit          3D

 12 12  0  0  0  0  0  0  0  0999 V2000
   64.8023   51.6257  110.8127 O   0  0  0  0  0  0  0  0  0  0  0  0
   64.0816   52.5740  110.4870 C   0  0  0  0  0  0  0  0  0  0  0  0
   64.4167   53.8819  110.4493 N   0  0  0  0  0  0  0  0  0  0  0  0
   62.7622   52.2985  109.9539 C   0  0  0  0  0  0  0  0  0  0  0  0
   62.2024   51.2090  109.9793 N   0  0  0  0  0  0  0  0  0  0  0  0
   63.5744   54.8790  110.1647 C   0  0  0  0  0  0  0  0  0  0  0  0
   61.9434   53.2810  109.5295 C   0  0  0  0  0  0  0  0  0  0  0  0
   64.0893   56.2873  110.2638 C   0  0  0  0  0  0  0  0  0  0  0  0
   62.3443   54.5918  109.6667 N   0  0  0  0  0  0  0  0  0  0  0  0
   62.1777   50.3669  108.9383 O   0  0  0  0  0  0  0  0  0  0  0  0
   61.9991   50.4848  111.1821 O   0  0  0  0  0  0  0  0  0  0  0  0
   61.4660   55.6643  109.0390 C   0  0  0  0  0  0  0  0  0  0  0  0
  1  2  2  0
  2  3  1  0
  2  4  1  0
  4  5  1  0
  3  6  2  0
  4  7  2  0
  6  8  1  0
  6  9  1  0
  7  9  1  0
  5 10  1  0
  5 11  2  0
  9 12  1  0
M  CHG  2   5   1  10  -1
M  END
>  <ID>  (1) 
conformer_0

$$$$
