
     RDKit          3D

 13 14  0  0  0  0  0  0  0  0999 V2000
   61.9062   52.4262  107.9873 O   0  0  0  0  0  0  0  0  0  0  0  0
   62.3968   52.3866  109.0511 C   0  0  0  0  0  0  0  0  0  0  0  0
   63.3103   53.3554  109.5430 C   0  0  0  0  0  0  0  0  0  0  0  0
   63.8156   53.2863  110.7625 N   0  0  0  0  0  0  0  0  0  0  0  0
   64.0808   54.4995  111.3271 C   0  0  0  0  0  0  0  0  0  0  0  0
   63.7834   55.6203  110.5363 C   0  0  0  0  0  0  0  0  0  0  0  0
   64.1344   52.0574  111.3061 C   0  0  0  0  0  0  0  0  0  0  0  0
   62.5449   50.9721  109.6260 N   0  0  0  0  0  0  0  0  0  0  0  0
   63.0636   54.8887  109.3812 C   0  0  0  0  0  0  0  0  0  0  0  0
   63.3033   50.9014  110.8430 C   0  0  0  0  0  0  0  0  0  0  0  0
   63.6541   49.6022  111.1364 O   0  0  0  0  0  0  0  0  0  0  0  0
   61.6798   50.0249  109.2154 C   0  0  0  0  0  0  0  0  0  0  0  0
   64.9570   56.2224  109.9192 N   0  0  0  0  0  0  0  0  0  0  0  0
  1  2  2  0
  2  3  1  0
  3  4  1  0
  4  5  1  0
  5  6  1  0
  4  7  1  0
  2  8  1  0
  3  9  1  0
  6  9  1  0
  7 10  1  0
  8 10  1  0
 10 11  1  0
  8 12  1  0
  6 13  1  0
M  END
>  <ID>  (1) 
conformer_0

$$$$
