
     RDKit          3D

 12 13  0  0  0  0  0  0  0  0999 V2000
   62.2395   49.5478  110.6330 C   0  0  0  0  0  0  0  0  0  0  0  0
   63.1329   50.3621  111.1231 C   0  0  0  0  0  0  0  0  0  0  0  0
   63.2508   51.6720  110.5751 C   0  0  0  0  0  0  0  0  0  0  0  0
   62.4503   52.0528  109.5105 C   0  0  0  0  0  0  0  0  0  0  0  0
   61.5638   50.9952  109.0206 C   0  0  0  0  0  0  0  0  0  0  0  0
   62.4695   53.3300  108.8486 C   0  0  0  0  0  0  0  0  0  0  0  0
   64.0742   52.6823  111.0355 N   0  0  0  0  0  0  0  0  0  0  0  0
   61.4789   49.8208  109.5312 C   0  0  0  0  0  0  0  0  0  0  0  0
   64.4380   53.6750  110.2538 C   0  0  0  0  0  0  0  0  0  0  0  0
   63.1321   54.2819  109.7256 C   0  0  0  0  0  0  0  0  0  0  0  0
   63.1770   53.1394  107.6282 O   0  0  0  0  0  0  0  0  0  0  0  0
   65.1848   54.8380  110.6940 N   0  0  0  0  0  0  0  0  0  0  0  0
  1  2  2  0
  2  3  1  0
  3  4  2  0
  4  5  1  0
  4  6  1  0
  3  7  1  0
  1  8  1  0
  5  8  2  0
  7  9  1  0
  6 10  1  0
  9 10  1  0
  6 11  1  0
  9 12  1  0
M  END
>  <ID>  (1) 
conformer_0

$$$$
