
     RDKit          3D

 11 12  0  0  0  0  0  0  0  0999 V2000
   61.8566   50.0191  109.7915 C   0  0  0  0  0  0  0  0  0  0  0  0
   62.1311   51.1418  109.2163 C   0  0  0  0  0  0  0  0  0  0  0  0
   62.6094   49.7202  111.0823 C   0  0  0  0  0  0  0  0  0  0  0  0
   63.0266   52.1040  109.6620 C   0  0  0  0  0  0  0  0  0  0  0  0
   63.7442   51.8342  110.8194 C   0  0  0  0  0  0  0  0  0  0  0  0
   64.6847   52.8407  111.1516 N   0  0  0  0  0  0  0  0  0  0  0  0
   64.8405   53.7597  110.3148 C   0  0  0  0  0  0  0  0  0  0  0  0
   63.5558   50.6101  111.4703 C   0  0  0  0  0  0  0  0  0  0  0  0
   63.1002   53.4388  108.9766 C   0  0  0  0  0  0  0  0  0  0  0  0
   64.0525   54.1854  109.3246 N   0  0  0  0  0  0  0  0  0  0  0  0
   62.3268   53.7416  107.8680 C   0  0  0  0  0  0  0  0  0  0  0  0
  1  2  2  0
  1  3  1  0
  2  4  1  0
  4  5  2  0
  5  6  1  0
  6  7  2  0
  3  8  2  0
  5  8  1  0
  4  9  1  0
  7 10  1  0
  9 10  2  0
  9 11  1  0
M  END
>  <ID>  (1) 
conformer_0

$$$$
