
     RDKit          3D

 11 11  0  0  0  0  0  0  0  0999 V2000
   63.5681   50.9090  110.8433 C   0  0  0  0  0  0  0  0  0  0  0  0
   62.4043   51.1968  110.1403 C   0  0  0  0  0  0  0  0  0  0  0  0
   63.8358   49.7324  111.3344 O   0  0  0  0  0  0  0  0  0  0  0  0
   62.2799   52.4159  109.5897 C   0  0  0  0  0  0  0  0  0  0  0  0
   63.2475   53.3980  109.6185 C   0  0  0  0  0  0  0  0  0  0  0  0
   63.0607   54.7380  109.0968 C   0  0  0  0  0  0  0  0  0  0  0  0
   64.6341   51.9168  110.8485 N   0  0  0  0  0  0  0  0  0  0  0  0
   61.3381   50.2058  109.9939 C   0  0  0  0  0  0  0  0  0  0  0  0
   63.6591   55.7479  109.6973 N   0  0  0  0  0  0  0  0  0  0  0  0
   63.0618   56.7558  110.1963 C   0  0  0  0  0  0  0  0  0  0  0  0
   64.4099   53.0807  110.3514 C   0  0  0  0  0  0  0  0  0  0  0  0
  1  2  1  0
  1  3  2  0
  2  4  2  0
  4  5  1  0
  5  6  1  0
  1  7  1  0
  2  8  1  0
  6  9  1  0
  9 10  1  0
  5 11  2  0
  7 11  2  0
M  END
>  <ID>  (1) 
conformer_0

$$$$
