
     RDKit          3D

 13 14  0  0  0  0  0  0  0  0999 V2000
   61.7731   51.4388  108.2186 O   0  0  0  0  0  0  0  0  0  0  0  0
   62.2628   52.1981  109.0305 C   0  0  0  0  0  0  0  0  0  0  0  0
   62.3355   53.4985  108.9644 C   0  0  0  0  0  0  0  0  0  0  0  0
   62.7107   51.5318  110.2449 N   0  0  0  0  0  0  0  0  0  0  0  0
   63.6107   54.1454  109.4955 N   0  0  0  0  0  0  0  0  0  0  0  0
   61.5800   54.3692  108.2449 C   0  0  0  0  0  0  0  0  0  0  0  0
   63.9331   51.9901  110.8223 C   0  0  0  0  0  0  0  0  0  0  0  0
   61.8687   55.7066  108.4549 C   0  0  0  0  0  0  0  0  0  0  0  0
   62.2779   50.1100  110.4301 C   0  0  0  0  0  0  0  0  0  0  0  0
   63.0025   56.2689  109.0040 C   0  0  0  0  0  0  0  0  0  0  0  0
   63.8772   55.3582  109.6310 C   0  0  0  0  0  0  0  0  0  0  0  0
   64.5684   53.0830  110.1024 C   0  0  0  0  0  0  0  0  0  0  0  0
   65.0172   55.6979  110.1910 O   0  0  0  0  0  0  0  0  0  0  0  0
  1  2  2  0
  2  3  1  0
  2  4  1  0
  3  5  1  0
  3  6  2  0
  4  7  1  0
  6  8  1  0
  4  9  1  0
  8 10  2  0
  5 11  1  0
 10 11  1  0
  5 12  1  0
  7 12  1  0
 11 13  2  0
M  END
>  <ID>  (1) 
conformer_0

$$$$
