
     RDKit          3D

 12 13  0  0  0  0  0  0  0  0999 V2000
   61.8566   50.0191  109.7915 C   0  0  0  0  0  0  0  0  0  0  0  0
   62.1311   51.1418  109.2163 C   0  0  0  0  0  0  0  0  0  0  0  0
   62.6094   49.7202  111.0823 C   0  0  0  0  0  0  0  0  0  0  0  0
   63.0266   52.1040  109.6620 C   0  0  0  0  0  0  0  0  0  0  0  0
   63.7442   51.8342  110.8194 C   0  0  0  0  0  0  0  0  0  0  0  0
   64.6847   52.8407  111.1516 N   0  0  0  0  0  0  0  0  0  0  0  0
   63.2739   53.3642  109.0001 C   0  0  0  0  0  0  0  0  0  0  0  0
   63.5387   50.5734  111.4858 C   0  0  0  0  0  0  0  0  0  0  0  0
   64.4695   54.0503  110.6366 C   0  0  0  0  0  0  0  0  0  0  0  0
   64.3037   54.1384  109.3005 N   0  0  0  0  0  0  0  0  0  0  0  0
   65.2395   55.1429  111.1668 N   0  0  0  0  0  0  0  0  0  0  0  0
   62.5164   53.6565  107.9722 O   0  0  0  0  0  0  0  0  0  0  0  0
  1  2  2  0
  1  3  1  0
  2  4  1  0
  4  5  2  0
  5  6  1  0
  4  7  1  0
  3  8  2  0
  5  8  1  0
  6  9  1  0
  7 10  1  0
  9 10  1  0
  9 11  2  0
  7 12  2  0
M  END
>  <ID>  (1) 
conformer_0

$$$$
