
     RDKit          3D

 12 13  0  0  0  0  0  0  0  0999 V2000
   61.4754   50.0669  108.7914 C   0  0  0  0  0  0  0  0  0  0  0  0
   62.1820   50.7153  109.6604 C   0  0  0  0  0  0  0  0  0  0  0  0
   62.8167   50.1287  110.7290 C   0  0  0  0  0  0  0  0  0  0  0  0
   62.5571   48.8717  111.1174 C   0  0  0  0  0  0  0  0  0  0  0  0
   62.5967   52.0658  109.3754 C   0  0  0  0  0  0  0  0  0  0  0  0
   62.1922   53.0014  108.4026 C   0  0  0  0  0  0  0  0  0  0  0  0
   63.7234   50.9338  111.5777 C   0  0  0  0  0  0  0  0  0  0  0  0
   62.4373   54.2751  108.7722 C   0  0  0  0  0  0  0  0  0  0  0  0
   63.6442   52.7464  110.2339 C   0  0  0  0  0  0  0  0  0  0  0  0
   64.1949   52.0017  111.2263 N   0  0  0  0  0  0  0  0  0  0  0  0
   62.2097   55.4332  107.9505 C   0  0  0  0  0  0  0  0  0  0  0  0
   63.6121   54.3466  109.9152 S   0  0  0  0  0  0  0  0  0  0  0  0
  1  2  1  0
  2  3  1  0
  3  4  2  0
  2  5  2  0
  5  6  1  0
  3  7  1  0
  6  8  2  0
  5  9  1  0
  7 10  2  0
  9 10  1  0
  8 11  1  0
  8 12  1  0
  9 12  2  0
M  END
>  <ID>  (1) 
conformer_0

$$$$
