
     RDKit          3D

 13 14  0  0  0  0  0  0  0  0999 V2000
   62.2395   49.5478  110.6330 C   0  0  0  0  0  0  0  0  0  0  0  0
   61.4533   49.9146  109.6646 C   0  0  0  0  0  0  0  0  0  0  0  0
   61.7053   51.0780  108.9917 C   0  0  0  0  0  0  0  0  0  0  0  0
   62.5317   51.9630  109.4652 C   0  0  0  0  0  0  0  0  0  0  0  0
   63.2401   51.6416  110.6564 C   0  0  0  0  0  0  0  0  0  0  0  0
   62.7250   53.2845  108.8268 C   0  0  0  0  0  0  0  0  0  0  0  0
   63.0946   50.4334  111.2440 C   0  0  0  0  0  0  0  0  0  0  0  0
   64.1855   52.5539  111.1787 O   0  0  0  0  0  0  0  0  0  0  0  0
   63.7131   54.0864  109.4513 N   0  0  0  0  0  0  0  0  0  0  0  0
   64.4203   53.7037  110.5391 C   0  0  0  0  0  0  0  0  0  0  0  0
   65.1669   54.7472  111.1503 N   0  0  0  0  0  0  0  0  0  0  0  0
   64.6474   55.8320  111.5763 O   0  0  0  0  0  0  0  0  0  0  0  0
   62.1474   53.6829  107.8572 O   0  0  0  0  0  0  0  0  0  0  0  0
  1  2  2  0
  2  3  1  0
  3  4  2  0
  4  5  1  0
  4  6  1  0
  1  7  1  0
  5  7  2  0
  5  8  1  0
  6  9  1  0
  8 10  1  0
  9 10  2  0
 10 11  1  0
 11 12  1  0
  6 13  2  0
M  END
>  <ID>  (1) 
conformer_0

$$$$
