
     RDKit          3D

 13 14  0  0  0  0  0  0  0  0999 V2000
   63.5681   50.9090  110.8433 C   0  0  0  0  0  0  0  0  0  0  0  0
   63.6615   52.0911  110.5966 C   0  0  0  0  0  0  0  0  0  0  0  0
   64.7109   52.9186  110.8313 O   0  0  0  0  0  0  0  0  0  0  0  0
   64.5278   54.1647  110.2283 C   0  0  0  0  0  0  0  0  0  0  0  0
   64.2630   55.2269  111.1140 C   0  0  0  0  0  0  0  0  0  0  0  0
   62.4837   50.0111  110.4879 C   0  0  0  0  0  0  0  0  0  0  0  0
   63.3500   54.0195  109.2090 C   0  0  0  0  0  0  0  0  0  0  0  0
   62.9197   52.6298  109.4967 C   0  0  0  0  0  0  0  0  0  0  0  0
   62.3383   48.7288  111.0366 O   0  0  0  0  0  0  0  0  0  0  0  0
   63.3033   56.0838  110.6932 O   0  0  0  0  0  0  0  0  0  0  0  0
   61.8666   51.8811  109.0368 C   0  0  0  0  0  0  0  0  0  0  0  0
   61.6763   50.5996  109.4612 C   0  0  0  0  0  0  0  0  0  0  0  0
   63.6055   53.8860  107.8208 O   0  0  0  0  0  0  0  0  0  0  0  0
  1  2  1  0
  2  3  1  0
  3  4  1  0
  4  5  1  0
  1  6  2  0
  4  7  1  0
  2  8  2  0
  7  8  1  0
  6  9  1  0
  5 10  1  0
  8 11  1  0
  6 12  1  0
 11 12  2  0
  7 13  1  0
M  END
>  <ID>  (1) 
conformer_0

$$$$
