
     RDKit          3D

 13 14  0  0  0  0  0  0  0  0999 V2000
   64.8023   51.6257  110.8127 O   0  0  0  0  0  0  0  0  0  0  0  0
   64.0816   52.5740  110.4870 C   0  0  0  0  0  0  0  0  0  0  0  0
   64.4167   53.8819  110.4493 N   0  0  0  0  0  0  0  0  0  0  0  0
   62.7622   52.2985  109.9539 C   0  0  0  0  0  0  0  0  0  0  0  0
   62.2024   51.2090  109.9793 N   0  0  0  0  0  0  0  0  0  0  0  0
   63.5744   54.8790  110.1647 C   0  0  0  0  0  0  0  0  0  0  0  0
   61.9862   53.4021  109.5081 C   0  0  0  0  0  0  0  0  0  0  0  0
   60.6588   53.0583  109.0152 C   0  0  0  0  0  0  0  0  0  0  0  0
   61.2766   50.9633  109.3201 C   0  0  0  0  0  0  0  0  0  0  0  0
   60.8333   49.6832  109.0214 O   0  0  0  0  0  0  0  0  0  0  0  0
   60.4419   51.9424  108.9480 C   0  0  0  0  0  0  0  0  0  0  0  0
   64.1445   56.2924  110.3133 C   0  0  0  0  0  0  0  0  0  0  0  0
   62.4504   54.7172  109.6310 N   0  0  0  0  0  0  0  0  0  0  0  0
  1  2  2  0
  2  3  1  0
  2  4  1  0
  4  5  1  0
  3  6  2  0
  4  7  2  0
  7  8  1  0
  5  9  1  0
  9 10  2  0
  8 11  2  0
  9 11  1  0
  6 12  1  0
  6 13  1  0
  7 13  1  0
M  END
>  <ID>  (1) 
conformer_0

$$$$
