
     RDKit          3D

 11 12  0  0  0  0  0  0  0  0999 V2000
   63.9512   50.4852  110.9906 C   0  0  0  0  0  0  0  0  0  0  0  0
   62.9150   49.7548  110.8181 C   0  0  0  0  0  0  0  0  0  0  0  0
   63.7809   51.8175  110.4676 C   0  0  0  0  0  0  0  0  0  0  0  0
   64.7383   52.7910  110.6215 N   0  0  0  0  0  0  0  0  0  0  0  0
   64.4044   53.9535  110.1789 C   0  0  0  0  0  0  0  0  0  0  0  0
   65.2209   55.0945  110.2653 N   0  0  0  0  0  0  0  0  0  0  0  0
   62.5629   51.9514  109.8395 C   0  0  0  0  0  0  0  0  0  0  0  0
   64.7119   56.1426  110.9578 C   0  0  0  0  0  0  0  0  0  0  0  0
   61.5505   50.0020  110.0690 C   0  0  0  0  0  0  0  0  0  0  0  0
   63.1281   53.9395  109.1420 C   0  0  0  0  0  0  0  0  0  0  0  0
   61.5763   51.2394  109.6187 C   0  0  0  0  0  0  0  0  0  0  0  0
  1  2  2  0
  1  3  1  0
  3  4  1  0
  4  5  2  0
  5  6  1  0
  3  7  2  0
  6  8  1  0
  2  9  1  0
  5 10  1  0
  7 10  1  0
  7 11  1  0
  9 11  2  0
M  END
>  <ID>  (1) 
conformer_0

$$$$
