
     RDKit          3D

 11 11  0  0  0  0  0  0  0  0999 V2000
   63.9512   50.4852  110.9906 C   0  0  0  0  0  0  0  0  0  0  0  0
   64.0121   51.7516  110.8173 N   0  0  0  0  0  0  0  0  0  0  0  0
   62.7312   49.7807  110.5476 C   0  0  0  0  0  0  0  0  0  0  0  0
   63.1162   52.4507  110.1845 C   0  0  0  0  0  0  0  0  0  0  0  0
   63.3040   53.9208  109.9912 C   0  0  0  0  0  0  0  0  0  0  0  0
   64.0319   54.6098  110.7745 N   0  0  0  0  0  0  0  0  0  0  0  0
   61.7726   50.4414  109.8427 C   0  0  0  0  0  0  0  0  0  0  0  0
   63.8642   54.0338  108.4871 C   0  0  0  0  0  0  0  0  0  0  0  0
   64.0350   56.0598  110.7512 C   0  0  0  0  0  0  0  0  0  0  0  0
   62.6911   53.8066  107.5912 C   0  0  0  0  0  0  0  0  0  0  0  0
   61.9693   51.8151  109.6305 C   0  0  0  0  0  0  0  0  0  0  0  0
  1  2  1  0
  1  3  2  0
  2  4  2  0
  4  5  1  0
  5  6  1  0
  3  7  1  0
  5  8  1  0
  6  9  1  0
  8 10  1  0
  4 11  1  0
  7 11  2  0
M  END
>  <ID>  (1) 
conformer_0

$$$$
