
     RDKit          3D

 13 14  0  0  0  0  0  0  0  0999 V2000
   63.9288   54.8357  111.4694 O   0  0  0  0  0  0  0  0  0  0  0  0
   63.7212   54.6254  110.1878 C   0  0  0  0  0  0  0  0  0  0  0  0
   63.4618   53.1690  109.9507 C   0  0  0  0  0  0  0  0  0  0  0  0
   64.0683   52.3168  110.8523 O   0  0  0  0  0  0  0  0  0  0  0  0
   62.4912   52.5824  109.2781 C   0  0  0  0  0  0  0  0  0  0  0  0
   62.6644   55.4546  109.6543 C   0  0  0  0  0  0  0  0  0  0  0  0
   63.4375   51.0699  110.6636 C   0  0  0  0  0  0  0  0  0  0  0  0
   63.7304   49.9491  111.4544 C   0  0  0  0  0  0  0  0  0  0  0  0
   62.7924   48.9619  111.1915 C   0  0  0  0  0  0  0  0  0  0  0  0
   62.4497   51.2839  109.7099 C   0  0  0  0  0  0  0  0  0  0  0  0
   61.6091   50.1213  109.4189 C   0  0  0  0  0  0  0  0  0  0  0  0
   62.6214   55.5093  108.3273 O   0  0  0  0  0  0  0  0  0  0  0  0
   61.7816   49.0280  110.2222 C   0  0  0  0  0  0  0  0  0  0  0  0
  1  2  1  0
  2  3  1  0
  3  4  1  0
  3  5  2  0
  2  6  1  0
  4  7  1  0
  7  8  1  0
  8  9  2  0
  5 10  1  0
  7 10  2  0
 10 11  1  0
  6 12  1  0
  9 13  1  0
 11 13  2  0
M  END
>  <ID>  (1) 
conformer_0

$$$$
