
     RDKit          3D

 12 12  0  0  0  0  0  0  0  0999 V2000
   65.0286   53.1076  109.8253 O   0  0  0  0  0  0  0  0  0  0  0  0
   64.3273   54.1087  109.9205 C   0  0  0  0  0  0  0  0  0  0  0  0
   62.9065   53.8214  109.7892 C   0  0  0  0  0  0  0  0  0  0  0  0
   62.7303   52.4074  109.6979 C   0  0  0  0  0  0  0  0  0  0  0  0
   61.7358   51.6720  110.1709 C   0  0  0  0  0  0  0  0  0  0  0  0
   63.9844   52.0191  110.2163 C   0  0  0  0  0  0  0  0  0  0  0  0
   64.2927   51.0195  110.9656 O   0  0  0  0  0  0  0  0  0  0  0  0
   62.5567   52.1089  108.2132 O   0  0  0  0  0  0  0  0  0  0  0  0
   61.6340   50.2071  109.8613 C   0  0  0  0  0  0  0  0  0  0  0  0
   64.7305   55.3004  108.9689 C   0  0  0  0  0  0  0  0  0  0  0  0
   63.9878   56.4267  109.3336 O   0  0  0  0  0  0  0  0  0  0  0  0
   62.1355   54.7154  109.0290 O   0  0  0  0  0  0  0  0  0  0  0  0
  1  2  1  0
  2  3  1  0
  3  4  1  0
  4  5  1  0
  1  6  1  0
  4  6  1  0
  6  7  2  0
  4  8  1  0
  5  9  1  0
  2 10  1  0
 10 11  1  0
  3 12  1  0
M  END
>  <ID>  (1) 
conformer_0

$$$$
