
     RDKit          3D

 11 11  0  0  0  0  0  0  0  0999 V2000
   63.9512   50.4852  110.9906 C   0  0  0  0  0  0  0  0  0  0  0  0
   64.0121   51.7516  110.8173 N   0  0  0  0  0  0  0  0  0  0  0  0
   62.7312   49.7807  110.5476 C   0  0  0  0  0  0  0  0  0  0  0  0
   63.1162   52.4507  110.1845 C   0  0  0  0  0  0  0  0  0  0  0  0
   63.3040   53.9208  109.9912 C   0  0  0  0  0  0  0  0  0  0  0  0
   64.0319   54.6098  110.7745 N   0  0  0  0  0  0  0  0  0  0  0  0
   61.7530   50.6063  109.7829 C   0  0  0  0  0  0  0  0  0  0  0  0
   60.6551   49.9397  109.3107 O   0  0  0  0  0  0  0  0  0  0  0  0
   61.9460   51.8862  109.6499 C   0  0  0  0  0  0  0  0  0  0  0  0
   63.6963   55.8491  111.1919 C   0  0  0  0  0  0  0  0  0  0  0  0
   62.8754   54.5566  108.9011 O   0  0  0  0  0  0  0  0  0  0  0  0
  1  2  1  0
  1  3  2  0
  2  4  2  0
  4  5  1  0
  5  6  1  0
  3  7  1  0
  7  8  1  0
  4  9  1  0
  7  9  2  0
  6 10  1  0
  5 11  2  0
M  END
>  <ID>  (1) 
conformer_0

$$$$
