
     RDKit          3D

 13 14  0  0  0  0  0  0  0  0999 V2000
   61.5583   49.5520  110.3776 C   0  0  0  0  0  0  0  0  0  0  0  0
   61.3611   50.2863  109.2583 C   0  0  0  0  0  0  0  0  0  0  0  0
   61.7882   51.4869  108.9501 C   0  0  0  0  0  0  0  0  0  0  0  0
   62.7135   52.0348  109.8481 C   0  0  0  0  0  0  0  0  0  0  0  0
   63.3327   53.3930  109.5104 C   0  0  0  0  0  0  0  0  0  0  0  0
   62.4747   54.2694  108.9945 N   0  0  0  0  0  0  0  0  0  0  0  0
   63.1802   51.5045  110.9977 C   0  0  0  0  0  0  0  0  0  0  0  0
   64.5864   53.6329  109.9080 N   0  0  0  0  0  0  0  0  0  0  0  0
   61.2775   54.1522  108.4414 C   0  0  0  0  0  0  0  0  0  0  0  0
   64.7129   55.0643  109.7189 C   0  0  0  0  0  0  0  0  0  0  0  0
   62.5844   50.1079  111.3919 C   0  0  0  0  0  0  0  0  0  0  0  0
   63.3871   55.5121  109.0020 C   0  0  0  0  0  0  0  0  0  0  0  0
   65.0134   55.6463  111.0302 N   0  0  0  0  0  0  0  0  0  0  0  0
  1  2  2  0
  2  3  1  0
  3  4  2  0
  4  5  1  0
  5  6  1  0
  4  7  1  0
  5  8  2  0
  6  9  1  0
  8 10  1  0
  1 11  1  0
  7 11  2  0
  6 12  1  0
 10 12  1  0
 10 13  1  0
M  END
>  <ID>  (1) 
conformer_0

$$$$
