
     RDKit          3D

 11 11  0  0  0  0  0  0  0  0999 V2000
   65.0286   53.1076  109.8253 N   0  0  0  0  0  0  0  0  0  0  0  0
   64.0263   52.2954  110.1696 C   0  0  0  0  0  0  0  0  0  0  0  0
   62.7908   52.5417  109.5484 C   0  0  0  0  0  0  0  0  0  0  0  0
   61.6809   51.5474  109.7329 C   0  0  0  0  0  0  0  0  0  0  0  0
   64.7639   54.2310  109.2179 C   0  0  0  0  0  0  0  0  0  0  0  0
   64.2839   51.1645  110.9947 N   0  0  0  0  0  0  0  0  0  0  0  0
   65.8380   55.1790  109.0516 N   0  0  0  0  0  0  0  0  0  0  0  0
   62.6749   53.7934  108.8297 C   0  0  0  0  0  0  0  0  0  0  0  0
   63.6010   54.6083  108.6858 N   0  0  0  0  0  0  0  0  0  0  0  0
   61.2607   54.0675  108.1828 C   0  0  0  0  0  0  0  0  0  0  0  0
   61.7403   50.4839  108.9112 O   0  0  0  0  0  0  0  0  0  0  0  0
  1  2  1  0
  2  3  2  0
  3  4  1  0
  1  5  2  0
  2  6  1  0
  5  7  1  0
  3  8  1  0
  5  9  1  0
  8  9  2  0
  8 10  1  0
  4 11  1  0
M  END
>  <ID>  (1) 
conformer_0

$$$$
