
     RDKit          3D

 11 12  0  0  0  0  0  0  0  0999 V2000
   65.0286   53.1076  109.8253 N   0  0  0  0  0  0  0  0  0  0  0  0
   64.0263   52.2954  110.1696 C   0  0  0  0  0  0  0  0  0  0  0  0
   62.7908   52.5417  109.5484 C   0  0  0  0  0  0  0  0  0  0  0  0
   61.6809   51.5474  109.7329 C   0  0  0  0  0  0  0  0  0  0  0  0
   62.8075   53.6840  108.7887 C   0  0  0  0  0  0  0  0  0  0  0  0
   64.9655   54.1987  109.1506 C   0  0  0  0  0  0  0  0  0  0  0  0
   63.7590   54.6073  108.7067 N   0  0  0  0  0  0  0  0  0  0  0  0
   64.2281   51.1498  110.9130 N   0  0  0  0  0  0  0  0  0  0  0  0
   61.4277   54.0783  108.1957 N   0  0  0  0  0  0  0  0  0  0  0  0
   63.2378   50.3059  111.1123 C   0  0  0  0  0  0  0  0  0  0  0  0
   62.0065   50.4913  110.5882 C   0  0  0  0  0  0  0  0  0  0  0  0
  1  2  1  0
  2  3  2  0
  3  4  1  0
  3  5  1  0
  1  6  2  0
  5  7  2  0
  6  7  1  0
  2  8  1  0
  5  9  1  0
  8 10  2  0
  4 11  2  0
 10 11  1  0
M  END
>  <ID>  (1) 
conformer_0

$$$$
