
     RDKit          3D

 13 14  0  0  0  0  0  0  0  0999 V2000
   64.2924   50.9080  111.0063 O   0  0  0  0  0  0  0  0  0  0  0  0
   63.2640   51.4835  110.6985 C   0  0  0  0  0  0  0  0  0  0  0  0
   62.0898   51.0149  110.6882 C   0  0  0  0  0  0  0  0  0  0  0  0
   61.8459   50.2033  109.4928 C   0  0  0  0  0  0  0  0  0  0  0  0
   61.4072   51.0147  108.3755 C   0  0  0  0  0  0  0  0  0  0  0  0
   63.4187   52.8034  110.1483 C   0  0  0  0  0  0  0  0  0  0  0  0
   64.4454   53.5216  110.4009 N   0  0  0  0  0  0  0  0  0  0  0  0
   64.4927   54.9478  110.3366 C   0  0  0  0  0  0  0  0  0  0  0  0
   62.5535   53.3621  109.3094 C   0  0  0  0  0  0  0  0  0  0  0  0
   61.5651   52.6218  108.3883 C   0  0  0  0  0  0  0  0  0  0  0  0
   63.8101   55.3957  109.2882 C   0  0  0  0  0  0  0  0  0  0  0  0
   63.6693   56.8810  109.4014 O   0  0  0  0  0  0  0  0  0  0  0  0
   62.5659   54.8669  109.1452 C   0  0  0  0  0  0  0  0  0  0  0  0
  1  2  2  0
  2  3  1  0
  3  4  1  0
  4  5  1  0
  2  6  1  0
  6  7  1  0
  7  8  1  0
  6  9  2  0
  5 10  1  0
  9 10  1  0
  8 11  1  0
 11 12  1  0
  9 13  1  0
 11 13  1  0
M  END
>  <ID>  (1) 
conformer_0

$$$$
