
     RDKit          3D

 12 12  0  0  0  0  0  0  0  0999 V2000
   63.9512   50.4852  110.9906 C   0  0  0  0  0  0  0  0  0  0  0  0
   64.0121   51.7516  110.8173 N   0  0  0  0  0  0  0  0  0  0  0  0
   62.7312   49.7807  110.5476 C   0  0  0  0  0  0  0  0  0  0  0  0
   63.1162   52.4507  110.1845 C   0  0  0  0  0  0  0  0  0  0  0  0
   63.3040   53.9208  109.9912 C   0  0  0  0  0  0  0  0  0  0  0  0
   64.0319   54.6098  110.7745 N   0  0  0  0  0  0  0  0  0  0  0  0
   61.7726   50.4414  109.8427 C   0  0  0  0  0  0  0  0  0  0  0  0
   63.8642   54.0338  108.4871 C   0  0  0  0  0  0  0  0  0  0  0  0
   61.9439   51.8111  109.6282 C   0  0  0  0  0  0  0  0  0  0  0  0
   65.0022   54.4202  108.3356 O   0  0  0  0  0  0  0  0  0  0  0  0
   63.8475   55.8325  111.3791 C   0  0  0  0  0  0  0  0  0  0  0  0
   62.8795   54.5878  107.5978 O   0  0  0  0  0  0  0  0  0  0  0  0
  1  2  1  0
  1  3  2  0
  2  4  2  0
  4  5  1  0
  5  6  1  0
  3  7  1  0
  5  8  1  0
  4  9  1  0
  7  9  2  0
  8 10  1  0
  6 11  1  0
  8 12  2  0
M  END
>  <ID>  (1) 
conformer_0

$$$$
