
     RDKit          3D

 12 11  0  0  0  0  0  0  0  0999 V2000
   68.5184   -3.1251  -66.9393 C   0  0  0  0  0  0  0  0  0  0  0  0
   63.2532   -7.6874  -68.8528 C   0  0  0  0  0  0  0  0  0  0  0  0
   65.2413   -5.2365  -67.6260 C   0  0  0  0  0  0  0  0  0  0  0  0
   64.1228   -6.8143  -67.0969 C   0  0  0  0  0  0  0  0  0  0  0  0
   64.3391   -6.1363  -67.7316 O   0  0  0  0  0  0  0  0  0  0  0  0
   68.3988   -3.4864  -66.3292 O   0  0  0  0  0  0  0  0  0  0  0  0
   70.8333   -2.8119  -64.9093 O   0  0  0  0  0  0  0  0  0  0  0  0
   66.5563   -4.7579  -66.9721 O   0  0  0  0  0  0  0  0  0  0  0  0
   66.9067   -4.1598  -67.5891 C   0  0  0  0  0  0  0  0  0  0  0  0
   62.7678   -7.6477  -67.9574 O   0  0  0  0  0  0  0  0  0  0  0  0
   62.6712   -9.3504  -68.5386 C   0  0  0  0  0  0  0  0  0  0  0  0
   69.8657   -2.7056  -65.7509 C   0  0  0  0  0  0  0  0  0  0  0  0
  4  2  1  0
  5  3  1  0
  5  4  1  0
  6  1  1  0
  8  3  1  0
  9  1  1  0
  9  8  1  0
 10  2  1  0
 11  2  1  0
 12  1  1  0
 12  7  1  0
M  END
>  <ID>  (1) 
conformer_0

$$$$
