
     RDKit          3D

 13 12  0  0  0  0  0  0  0  0999 V2000
   63.2373   -7.9945  -68.2894 C   0  0  0  0  0  0  0  0  0  0  0  0
   69.9392   -2.4430  -65.6435 C   0  0  0  0  0  0  0  0  0  0  0  0
   64.0817   -6.2591  -67.3788 C   0  0  0  0  0  0  0  0  0  0  0  0
   65.5927   -5.0933  -67.6120 C   0  0  0  0  0  0  0  0  0  0  0  0
   71.0198   -3.2237  -65.1429 O   0  0  0  0  0  0  0  0  0  0  0  0
   66.9031   -4.5346  -66.8316 O   0  0  0  0  0  0  0  0  0  0  0  0
   61.1982   -9.5899  -68.8085 O   0  0  0  0  0  0  0  0  0  0  0  0
   63.1498   -7.5650  -67.8026 O   0  0  0  0  0  0  0  0  0  0  0  0
   65.1829   -6.1553  -67.1605 O   0  0  0  0  0  0  0  0  0  0  0  0
   68.8311   -3.1286  -66.8911 C   0  0  0  0  0  0  0  0  0  0  0  0
   67.3751   -4.4131  -67.5788 C   0  0  0  0  0  0  0  0  0  0  0  0
   68.5152   -3.3941  -66.3621 O   0  0  0  0  0  0  0  0  0  0  0  0
   62.4041   -9.3884  -68.9441 C   0  0  0  0  0  0  0  0  0  0  0  0
  5  2  1  0
  6  4  1  0
  8  1  1  0
  8  3  1  0
  9  3  1  0
  9  4  1  0
 10  2  1  0
 11  6  1  0
 11 10  1  0
 12 10  1  0
 13  1  1  0
 13  7  1  0
M  END
>  <ID>  (1) 
conformer_0

$$$$
