
     RDKit          3D

 15 15  0  0  0  0  0  0  0  0999 V2000
   65.0027   -5.8757  -67.3978 C   0  0  0  0  0  0  0  0  0  0  0  0
   62.3945   -9.2512  -68.7518 C   0  0  0  0  0  0  0  0  0  0  0  0
   70.4026   -2.6034  -65.6945 C   0  0  0  0  0  0  0  0  0  0  0  0
   68.7934   -2.4432  -66.3148 C   0  0  0  0  0  0  0  0  0  0  0  0
   61.2204   -9.4316  -69.1224 O   0  0  0  0  0  0  0  0  0  0  0  0
   62.6651   -7.7599  -67.5806 O   0  0  0  0  0  0  0  0  0  0  0  0
   70.7024   -2.5893  -64.6546 O   0  0  0  0  0  0  0  0  0  0  0  0
   68.9365   -3.2232  -66.5155 O   0  0  0  0  0  0  0  0  0  0  0  0
   67.8778   -3.8397  -67.4696 C   0  0  0  0  0  0  0  0  0  0  0  0
   67.0339   -3.9698  -66.5555 O   0  0  0  0  0  0  0  0  0  0  0  0
   66.2544   -4.5613  -67.5076 C   0  0  0  0  0  0  0  0  0  0  0  0
   65.6803   -5.8090  -67.2890 O   0  0  0  0  0  0  0  0  0  0  0  0
   63.7700   -6.9905  -67.0629 C   0  0  0  0  0  0  0  0  0  0  0  0
   63.3982   -8.2431  -69.0685 C   0  0  0  0  0  0  0  0  0  0  0  0
   64.3768   -7.7393  -68.2203 O   0  0  0  0  0  0  0  0  0  0  0  0
  4  3  1  0
  5  2  1  0
  7  3  1  0
  8  4  1  0
  9  8  1  0
 10  9  1  0
 11 10  1  0
 12  1  1  0
 12 11  1  0
 13  1  1  0
 13  6  1  0
 14  2  1  0
 14  6  1  0
 15 13  1  0
 15 14  1  0
M  END
>  <ID>  (1) 
conformer_0

$$$$
