
     RDKit          3D

 11 10  0  0  0  0  0  0  0  0999 V2000
   63.5883   -8.1654  -67.6461 C   0  0  0  0  0  0  0  0  0  0  0  0
   70.3560   -2.7587  -66.0379 C   0  0  0  0  0  0  0  0  0  0  0  0
   64.6005   -6.9441  -66.8584 C   0  0  0  0  0  0  0  0  0  0  0  0
   62.3260   -9.3973  -69.1380 C   0  0  0  0  0  0  0  0  0  0  0  0
   62.9632   -7.5833  -67.6865 O   0  0  0  0  0  0  0  0  0  0  0  0
   68.7335   -3.1450  -66.9161 C   0  0  0  0  0  0  0  0  0  0  0  0
   66.9565   -3.9062  -66.8673 O   0  0  0  0  0  0  0  0  0  0  0  0
   65.1267   -5.7975  -67.0654 O   0  0  0  0  0  0  0  0  0  0  0  0
   69.0467   -3.0902  -66.3476 O   0  0  0  0  0  0  0  0  0  0  0  0
   66.8732   -3.8842  -67.4975 C   0  0  0  0  0  0  0  0  0  0  0  0
   65.0813   -4.9717  -67.5718 C   0  0  0  0  0  0  0  0  0  0  0  0
  3  1  1  0
  4  1  1  0
  5  1  1  0
  7  6  1  0
  8  3  1  0
  9  2  1  0
  9  6  1  0
 10  7  1  0
 11  8  1  0
 11 10  1  0
M  END
>  <ID>  (1) 
conformer_0

$$$$
