
     RDKit          3D

 12 11  0  0  0  0  0  0  0  0999 V2000
   63.7140   -7.9420  -67.4041 C   0  0  0  0  0  0  0  0  0  0  0  0
   69.9670   -2.5226  -65.9433 C   0  0  0  0  0  0  0  0  0  0  0  0
   64.3474   -6.6068  -66.8920 C   0  0  0  0  0  0  0  0  0  0  0  0
   62.4479   -9.1320  -68.8239 C   0  0  0  0  0  0  0  0  0  0  0  0
   63.0358   -7.3653  -68.0561 O   0  0  0  0  0  0  0  0  0  0  0  0
   70.7378   -2.7202  -64.9831 O   0  0  0  0  0  0  0  0  0  0  0  0
   68.1080   -3.5493  -66.8904 O   0  0  0  0  0  0  0  0  0  0  0  0
   65.8158   -5.3194  -67.1570 O   0  0  0  0  0  0  0  0  0  0  0  0
   61.3137   -9.5896  -67.8747 O   0  0  0  0  0  0  0  0  0  0  0  0
   68.7306   -3.1518  -67.1777 C   0  0  0  0  0  0  0  0  0  0  0  0
   65.6853   -5.3566  -67.5542 C   0  0  0  0  0  0  0  0  0  0  0  0
   67.1541   -4.1269  -67.8748 C   0  0  0  0  0  0  0  0  0  0  0  0
  3  1  1  0
  4  1  1  0
  5  1  1  0
  6  2  1  0
  9  4  1  0
 10  2  1  0
 10  7  1  0
 11  3  1  0
 11  8  1  0
 12  7  1  0
 12 11  1  0
M  END
>  <ID>  (1) 
conformer_0

$$$$
