
     RDKit          3D

 11 10  0  0  0  0  0  0  0  0999 V2000
   64.5176   -6.1458  -67.3692 C   0  0  0  0  0  0  0  0  0  0  0  0
   63.8009   -7.8504  -68.2281 C   0  0  0  0  0  0  0  0  0  0  0  0
   69.7715   -2.4630  -65.8830 C   0  0  0  0  0  0  0  0  0  0  0  0
   70.7053   -2.9464  -64.4980 O   0  0  0  0  0  0  0  0  0  0  0  0
   61.1323   -9.4660  -67.9874 O   0  0  0  0  0  0  0  0  0  0  0  0
   65.8354   -4.9341  -67.8732 C   0  0  0  0  0  0  0  0  0  0  0  0
   63.3144   -7.6436  -68.2539 O   0  0  0  0  0  0  0  0  0  0  0  0
   65.5092   -6.0047  -67.3932 O   0  0  0  0  0  0  0  0  0  0  0  0
   67.8329   -3.6765  -67.2936 C   0  0  0  0  0  0  0  0  0  0  0  0
   67.1926   -4.3298  -66.8420 O   0  0  0  0  0  0  0  0  0  0  0  0
   62.5870   -9.2522  -68.9029 C   0  0  0  0  0  0  0  0  0  0  0  0
  2  1  1  0
  4  3  1  0
  7  2  1  0
  8  1  1  0
  8  6  1  0
  9  3  1  0
 10  6  1  0
 10  9  1  0
 11  2  1  0
 11  5  1  0
M  END
>  <ID>  (1) 
conformer_0

$$$$
