
     RDKit          3D

 12 11  0  0  0  0  0  0  0  0999 V2000
   62.6294   -8.7894  -68.9640 C   0  0  0  0  0  0  0  0  0  0  0  0
   68.3006   -3.2837  -66.7536 C   0  0  0  0  0  0  0  0  0  0  0  0
   70.2557   -2.6586  -65.9602 C   0  0  0  0  0  0  0  0  0  0  0  0
   63.8293   -7.3697  -67.5060 C   0  0  0  0  0  0  0  0  0  0  0  0
   63.0194   -7.3767  -67.6912 O   0  0  0  0  0  0  0  0  0  0  0  0
   71.0718   -3.0432  -64.7473 O   0  0  0  0  0  0  0  0  0  0  0  0
   61.2633   -9.6174  -69.0650 O   0  0  0  0  0  0  0  0  0  0  0  0
   68.7978   -3.0469  -66.2810 O   0  0  0  0  0  0  0  0  0  0  0  0
   67.3234   -4.5655  -67.1286 O   0  0  0  0  0  0  0  0  0  0  0  0
   66.5763   -4.4446  -67.5543 C   0  0  0  0  0  0  0  0  0  0  0  0
   64.8806   -5.5374  -67.2467 C   0  0  0  0  0  0  0  0  0  0  0  0
   65.3165   -6.0559  -67.3904 O   0  0  0  0  0  0  0  0  0  0  0  0
  5  1  1  0
  5  4  1  0
  6  3  1  0
  7  1  1  0
  8  2  1  0
  8  3  1  0
  9  2  1  0
 10  9  1  0
 11 10  1  0
 12  4  1  0
 12 11  1  0
M  END
>  <ID>  (1) 
conformer_0

$$$$
