
     RDKit          3D

 14 13  0  0  0  0  0  0  0  0999 V2000
   64.8507   -5.9125  -67.3260 C   0  0  0  0  0  0  0  0  0  0  0  0
   63.7511   -7.1279  -67.0061 C   0  0  0  0  0  0  0  0  0  0  0  0
   66.2506   -4.7462  -67.7673 C   0  0  0  0  0  0  0  0  0  0  0  0
   69.1462   -2.5597  -66.5834 C   0  0  0  0  0  0  0  0  0  0  0  0
   69.1069   -3.3090  -66.3465 O   0  0  0  0  0  0  0  0  0  0  0  0
   61.1595   -9.7001  -68.3611 O   0  0  0  0  0  0  0  0  0  0  0  0
   63.4418   -6.8411  -68.3002 O   0  0  0  0  0  0  0  0  0  0  0  0
   67.5662   -3.8211  -67.3932 C   0  0  0  0  0  0  0  0  0  0  0  0
   70.6811   -2.3897  -64.8664 O   0  0  0  0  0  0  0  0  0  0  0  0
   65.3475   -5.8880  -67.9104 O   0  0  0  0  0  0  0  0  0  0  0  0
   62.3379   -9.2032  -69.1605 C   0  0  0  0  0  0  0  0  0  0  0  0
   67.4446   -4.5402  -66.9206 O   0  0  0  0  0  0  0  0  0  0  0  0
   70.5327   -2.1687  -65.9236 C   0  0  0  0  0  0  0  0  0  0  0  0
   63.2288   -8.2165  -68.5108 C   0  0  0  0  0  0  0  0  0  0  0  0
  2  1  1  0
  5  4  1  0
  7  2  1  0
  8  4  1  0
 10  1  1  0
 10  3  1  0
 11  6  1  0
 12  3  1  0
 12  8  1  0
 13  4  1  0
 13  9  1  0
 14  7  1  0
 14 11  1  0
M  END
>  <ID>  (1) 
conformer_0

$$$$
