
     RDKit          3D

 13 12  0  0  0  0  0  0  0  0999 V2000
   64.2612   -6.9366  -67.0063 C   0  0  0  0  0  0  0  0  0  0  0  0
   65.6121   -5.5573  -67.8206 C   0  0  0  0  0  0  0  0  0  0  0  0
   62.5491   -8.8326  -68.9981 C   0  0  0  0  0  0  0  0  0  0  0  0
   68.4542   -3.1358  -66.9796 C   0  0  0  0  0  0  0  0  0  0  0  0
   68.7806   -3.2649  -66.0934 O   0  0  0  0  0  0  0  0  0  0  0  0
   63.0956   -7.2959  -68.1690 O   0  0  0  0  0  0  0  0  0  0  0  0
   66.9879   -4.6489  -66.8054 O   0  0  0  0  0  0  0  0  0  0  0  0
   70.8784   -2.8289  -64.9624 O   0  0  0  0  0  0  0  0  0  0  0  0
   61.4523   -9.2412  -68.3931 O   0  0  0  0  0  0  0  0  0  0  0  0
   69.9965   -2.7891  -65.5837 C   0  0  0  0  0  0  0  0  0  0  0  0
   64.9493   -5.7501  -67.7023 O   0  0  0  0  0  0  0  0  0  0  0  0
   67.2603   -4.3615  -67.5511 C   0  0  0  0  0  0  0  0  0  0  0  0
   63.5363   -7.4444  -68.6445 C   0  0  0  0  0  0  0  0  0  0  0  0
  5  4  1  0
  6  1  1  0
  7  2  1  0
  9  3  1  0
 10  5  1  0
 10  8  1  0
 11  1  1  0
 11  2  1  0
 12  4  1  0
 12  7  1  0
 13  3  1  0
 13  6  1  0
M  END
>  <ID>  (1) 
conformer_0

$$$$
