
     RDKit          3D

 13 12  0  0  0  0  0  0  0  0999 V2000
   62.2386   -8.9119  -68.8798 C   0  0  0  0  0  0  0  0  0  0  0  0
   70.1925   -2.5735  -65.8018 C   0  0  0  0  0  0  0  0  0  0  0  0
   69.0126   -3.4712  -66.9116 C   0  0  0  0  0  0  0  0  0  0  0  0
   63.4165   -8.1996  -67.9705 C   0  0  0  0  0  0  0  0  0  0  0  0
   63.0206   -7.1422  -68.1330 O   0  0  0  0  0  0  0  0  0  0  0  0
   60.9343   -9.4639  -68.2179 O   0  0  0  0  0  0  0  0  0  0  0  0
   70.8308   -2.7419  -64.6541 O   0  0  0  0  0  0  0  0  0  0  0  0
   68.8993   -3.5374  -66.4386 O   0  0  0  0  0  0  0  0  0  0  0  0
   66.9351   -4.3479  -66.9857 O   0  0  0  0  0  0  0  0  0  0  0  0
   64.3726   -6.6884  -67.3025 C   0  0  0  0  0  0  0  0  0  0  0  0
   67.3914   -4.5799  -67.6932 C   0  0  0  0  0  0  0  0  0  0  0  0
   65.4043   -4.8967  -67.7869 C   0  0  0  0  0  0  0  0  0  0  0  0
   64.9055   -5.7754  -67.5063 O   0  0  0  0  0  0  0  0  0  0  0  0
  4  1  1  0
  5  4  1  0
  6  1  1  0
  7  2  1  0
  8  2  1  0
  8  3  1  0
 10  5  1  0
 11  3  1  0
 11  9  1  0
 12  9  1  0
 13 10  1  0
 13 12  1  0
M  END
>  <ID>  (1) 
conformer_0

$$$$
