
     RDKit          3D

 11 10  0  0  0  0  0  0  0  0999 V2000
   63.6921   -7.5594  -67.6426 C   0  0  0  0  0  0  0  0  0  0  0  0
   70.1707   -2.7189  -66.2460 C   0  0  0  0  0  0  0  0  0  0  0  0
   64.7137   -5.8688  -67.3238 C   0  0  0  0  0  0  0  0  0  0  0  0
   66.4508   -4.6674  -67.5241 C   0  0  0  0  0  0  0  0  0  0  0  0
   61.3801   -9.4611  -68.6772 O   0  0  0  0  0  0  0  0  0  0  0  0
   68.6346   -3.7761  -66.4622 O   0  0  0  0  0  0  0  0  0  0  0  0
   70.4833   -2.5451  -64.9422 O   0  0  0  0  0  0  0  0  0  0  0  0
   63.1097   -7.0485  -67.7761 O   0  0  0  0  0  0  0  0  0  0  0  0
   68.4152   -3.5298  -67.2198 C   0  0  0  0  0  0  0  0  0  0  0  0
   66.6307   -5.0944  -67.0856 O   0  0  0  0  0  0  0  0  0  0  0  0
   62.6355   -8.5511  -68.9038 C   0  0  0  0  0  0  0  0  0  0  0  0
  3  1  1  0
  4  3  1  0
  6  2  1  0
  7  2  1  0
  8  1  1  0
  9  4  1  0
  9  6  1  0
 10  4  1  0
 11  1  1  0
 11  5  1  0
M  END
>  <ID>  (1) 
conformer_0

$$$$
