
     RDKit          3D

 15 14  0  0  0  0  0  0  0  0999 V2000
   69.1246   -2.8211  -66.6912 C   0  0  0  0  0  0  0  0  0  0  0  0
   67.5666   -3.6648  -67.3809 C   0  0  0  0  0  0  0  0  0  0  0  0
   64.6226   -5.8361  -67.6463 C   0  0  0  0  0  0  0  0  0  0  0  0
   62.2836   -9.9430  -68.9353 C   0  0  0  0  0  0  0  0  0  0  0  0
   60.8940   -9.3462  -68.1040 O   0  0  0  0  0  0  0  0  0  0  0  0
   68.9269   -2.6499  -66.0822 O   0  0  0  0  0  0  0  0  0  0  0  0
   63.0876   -8.4808  -68.1076 O   0  0  0  0  0  0  0  0  0  0  0  0
   71.0255   -2.5556  -64.9505 O   0  0  0  0  0  0  0  0  0  0  0  0
   66.1246   -4.5754  -67.4686 C   0  0  0  0  0  0  0  0  0  0  0  0
   67.4454   -3.8329  -66.4798 O   0  0  0  0  0  0  0  0  0  0  0  0
   63.5305   -6.3968  -67.6177 O   0  0  0  0  0  0  0  0  0  0  0  0
   64.3458   -7.4573  -66.9921 C   0  0  0  0  0  0  0  0  0  0  0  0
   63.0877   -8.2979  -68.7216 C   0  0  0  0  0  0  0  0  0  0  0  0
   65.5495   -5.3315  -67.1208 O   0  0  0  0  0  0  0  0  0  0  0  0
   70.5326   -2.2903  -66.0134 C   0  0  0  0  0  0  0  0  0  0  0  0
  2  1  1  0
  5  4  1  0
  6  1  2  0
  9  2  1  0
 10  2  1  0
 11  3  1  0
 12 11  1  0
 13  4  1  0
 13  7  1  0
 13 12  1  0
 14  3  1  0
 14  9  1  0
 15  1  1  0
 15  8  1  0
M  END
>  <ID>  (1) 
conformer_0

$$$$
