
     RDKit          3D

 13 12  0  0  0  0  0  0  0  0999 V2000
   63.4682   -8.1163  -67.7550 C   0  0  0  0  0  0  0  0  0  0  0  0
   70.3223   -2.7657  -65.9331 C   0  0  0  0  0  0  0  0  0  0  0  0
   67.0055   -4.4365  -67.7248 C   0  0  0  0  0  0  0  0  0  0  0  0
   62.3207   -9.3283  -68.9606 C   0  0  0  0  0  0  0  0  0  0  0  0
   61.0050   -9.4767  -68.0818 O   0  0  0  0  0  0  0  0  0  0  0  0
   62.9895   -7.4545  -68.2811 O   0  0  0  0  0  0  0  0  0  0  0  0
   71.1189   -2.9690  -64.9050 O   0  0  0  0  0  0  0  0  0  0  0  0
   69.0194   -3.6581  -66.5896 O   0  0  0  0  0  0  0  0  0  0  0  0
   64.8906   -5.8416  -67.2376 O   0  0  0  0  0  0  0  0  0  0  0  0
   68.8047   -3.4348  -67.0381 C   0  0  0  0  0  0  0  0  0  0  0  0
   65.0621   -4.8974  -67.8584 C   0  0  0  0  0  0  0  0  0  0  0  0
   66.8225   -4.3014  -66.8977 O   0  0  0  0  0  0  0  0  0  0  0  0
   64.2545   -6.5996  -67.0378 C   0  0  0  0  0  0  0  0  0  0  0  0
  4  1  1  0
  5  4  1  0
  6  1  1  0
  7  2  1  0
  8  2  1  0
 10  3  1  0
 10  8  1  0
 11  3  1  0
 11  9  1  0
 12  3  1  0
 13  1  1  0
 13  9  1  0
M  END
>  <ID>  (1) 
conformer_0

$$$$
