
     RDKit          3D

 13 12  0  0  0  0  0  0  0  0999 V2000
   62.2954   -9.3427  -69.0221 C   0  0  0  0  0  0  0  0  0  0  0  0
   63.4821   -8.4765  -68.0680 C   0  0  0  0  0  0  0  0  0  0  0  0
   70.1467   -2.3918  -66.0058 C   0  0  0  0  0  0  0  0  0  0  0  0
   65.3234   -5.4775  -67.6258 C   0  0  0  0  0  0  0  0  0  0  0  0
   60.9919   -9.6853  -68.1307 O   0  0  0  0  0  0  0  0  0  0  0  0
   63.2112   -7.8091  -68.2160 O   0  0  0  0  0  0  0  0  0  0  0  0
   70.7553   -2.6015  -65.0480 O   0  0  0  0  0  0  0  0  0  0  0  0
   65.0204   -6.1227  -67.4181 O   0  0  0  0  0  0  0  0  0  0  0  0
   68.6050   -3.2664  -66.8049 O   0  0  0  0  0  0  0  0  0  0  0  0
   68.7655   -3.0669  -67.0926 C   0  0  0  0  0  0  0  0  0  0  0  0
   67.1306   -4.3063  -67.8731 C   0  0  0  0  0  0  0  0  0  0  0  0
   63.8265   -6.6229  -66.9405 C   0  0  0  0  0  0  0  0  0  0  0  0
   66.6806   -4.6478  -66.9967 O   0  0  0  0  0  0  0  0  0  0  0  0
  2  1  1  0
  5  1  1  0
  6  2  1  0
  7  3  1  0
  8  4  1  0
 10  3  1  0
 10  9  1  0
 11 10  1  0
 12  6  1  0
 12  8  1  0
 13  4  1  0
 13 11  1  0
M  END
>  <ID>  (1) 
conformer_0

$$$$
