
     RDKit          3D

 13 12  0  0  0  0  0  0  0  0999 V2000
   64.2158   -7.0939  -66.7719 C   0  0  0  0  0  0  0  0  0  0  0  0
   64.8593   -5.6362  -67.4601 C   0  0  0  0  0  0  0  0  0  0  0  0
   63.4634   -8.2891  -68.3963 C   0  0  0  0  0  0  0  0  0  0  0  0
   66.2938   -4.7386  -67.8972 C   0  0  0  0  0  0  0  0  0  0  0  0
   69.3588   -3.0925  -66.0772 O   0  0  0  0  0  0  0  0  0  0  0  0
   63.4015   -7.7616  -68.0169 O   0  0  0  0  0  0  0  0  0  0  0  0
   67.6299   -3.7608  -67.5572 C   0  0  0  0  0  0  0  0  0  0  0  0
   67.3373   -4.2282  -66.8876 O   0  0  0  0  0  0  0  0  0  0  0  0
   61.2591   -9.5180  -67.7580 O   0  0  0  0  0  0  0  0  0  0  0  0
   65.5215   -5.9259  -67.2659 O   0  0  0  0  0  0  0  0  0  0  0  0
   69.1640   -3.1286  -66.9627 C   0  0  0  0  0  0  0  0  0  0  0  0
   62.2176   -9.2871  -68.8444 C   0  0  0  0  0  0  0  0  0  0  0  0
   70.6424   -2.8348  -65.5677 C   0  0  0  0  0  0  0  0  0  0  0  0
  2  1  1  0
  6  1  1  0
  6  3  1  0
  8  4  1  0
  8  7  1  0
 10  2  1  0
 10  4  1  0
 11  5  1  0
 11  7  1  0
 12  3  1  0
 12  9  1  0
 13  5  1  0
M  END
>  <ID>  (1) 
conformer_0

$$$$
