
     RDKit          3D

 11 10  0  0  0  0  0  0  0  0999 V2000
   64.9240   -5.8990  -67.4729 C   0  0  0  0  0  0  0  0  0  0  0  0
   66.4947   -4.5318  -67.5757 C   0  0  0  0  0  0  0  0  0  0  0  0
   67.8889   -3.1642  -66.7715 C   0  0  0  0  0  0  0  0  0  0  0  0
   63.8111   -7.5169  -67.7955 C   0  0  0  0  0  0  0  0  0  0  0  0
   63.0809   -7.6093  -68.3601 O   0  0  0  0  0  0  0  0  0  0  0  0
   68.6600   -3.4809  -66.5538 O   0  0  0  0  0  0  0  0  0  0  0  0
   70.8603   -2.9894  -64.9565 O   0  0  0  0  0  0  0  0  0  0  0  0
   66.6640   -4.7283  -66.8188 O   0  0  0  0  0  0  0  0  0  0  0  0
   69.8049   -2.7945  -65.7968 C   0  0  0  0  0  0  0  0  0  0  0  0
   62.7630   -8.8277  -69.0074 C   0  0  0  0  0  0  0  0  0  0  0  0
   64.5072   -5.9992  -67.6196 O   0  0  0  0  0  0  0  0  0  0  0  0
  2  1  1  0
  5  4  1  0
  6  3  1  0
  8  2  1  0
  8  3  1  0
  9  6  1  0
  9  7  1  0
 10  5  1  0
 11  1  1  0
 11  4  1  0
M  END
>  <ID>  (1) 
conformer_0

$$$$
