
     RDKit          3D

 12 11  0  0  0  0  0  0  0  0999 V2000
   64.1766   -6.2345  -67.1829 C   0  0  0  0  0  0  0  0  0  0  0  0
   69.9021   -2.5657  -65.8838 C   0  0  0  0  0  0  0  0  0  0  0  0
   63.4676   -7.9033  -67.6174 C   0  0  0  0  0  0  0  0  0  0  0  0
   66.0548   -4.6090  -67.8981 C   0  0  0  0  0  0  0  0  0  0  0  0
   66.4232   -4.7393  -67.1263 O   0  0  0  0  0  0  0  0  0  0  0  0
   70.9282   -2.8420  -64.5973 O   0  0  0  0  0  0  0  0  0  0  0  0
   68.4633   -3.4463  -66.6948 O   0  0  0  0  0  0  0  0  0  0  0  0
   64.3226   -5.8274  -67.5768 O   0  0  0  0  0  0  0  0  0  0  0  0
   67.9944   -3.3897  -67.0836 C   0  0  0  0  0  0  0  0  0  0  0  0
   61.0847   -9.6729  -68.5228 O   0  0  0  0  0  0  0  0  0  0  0  0
   62.5535   -9.3347  -69.0864 C   0  0  0  0  0  0  0  0  0  0  0  0
   62.8025   -7.7362  -68.0393 O   0  0  0  0  0  0  0  0  0  0  0  0
  3  1  1  0
  5  4  1  0
  6  2  1  0
  7  2  1  0
  8  1  1  0
  8  4  1  0
  9  5  1  0
  9  7  1  0
 11 10  1  0
 12  3  1  0
 12 11  1  0
M  END
>  <ID>  (1) 
conformer_0

$$$$
