
     RDKit          3D

 12 11  0  0  0  0  0  0  0  0999 V2000
   62.4106   -9.4519  -68.7005 C   0  0  0  0  0  0  0  0  0  0  0  0
   69.6439   -2.3616  -66.1594 C   0  0  0  0  0  0  0  0  0  0  0  0
   64.5915   -6.2659  -67.2859 C   0  0  0  0  0  0  0  0  0  0  0  0
   67.8749   -3.4271  -67.1456 C   0  0  0  0  0  0  0  0  0  0  0  0
   63.1995   -7.5699  -67.7764 O   0  0  0  0  0  0  0  0  0  0  0  0
   70.5059   -1.8869  -64.9127 O   0  0  0  0  0  0  0  0  0  0  0  0
   68.7591   -3.3543  -66.3473 O   0  0  0  0  0  0  0  0  0  0  0  0
   61.1951   -9.7039  -69.0658 O   0  0  0  0  0  0  0  0  0  0  0  0
   66.9223   -4.3397  -66.8946 O   0  0  0  0  0  0  0  0  0  0  0  0
   65.8808   -4.4837  -67.5456 C   0  0  0  0  0  0  0  0  0  0  0  0
   63.6341   -8.1727  -68.1099 C   0  0  0  0  0  0  0  0  0  0  0  0
   65.1863   -6.0073  -67.4930 O   0  0  0  0  0  0  0  0  0  0  0  0
  5  3  1  0
  6  2  1  0
  7  2  1  0
  7  4  1  0
  8  1  1  0
  9  4  1  0
 10  9  1  0
 11  1  1  0
 11  5  1  0
 12  3  1  0
 12 10  1  0
M  END
>  <ID>  (1) 
conformer_0

$$$$
