
     RDKit          3D

 13 12  0  0  0  0  0  0  0  0999 V2000
   69.9128   -2.2588  -65.7279 C   0  0  0  0  0  0  0  0  0  0  0  0
   64.5742   -6.6260  -67.2924 C   0  0  0  0  0  0  0  0  0  0  0  0
   67.3961   -4.2978  -67.4451 C   0  0  0  0  0  0  0  0  0  0  0  0
   63.6752   -8.1029  -68.1989 C   0  0  0  0  0  0  0  0  0  0  0  0
   63.9628   -6.1706  -67.8094 O   0  0  0  0  0  0  0  0  0  0  0  0
   70.9117   -2.9915  -64.6600 O   0  0  0  0  0  0  0  0  0  0  0  0
   68.6658   -3.5566  -66.5350 O   0  0  0  0  0  0  0  0  0  0  0  0
   61.1444   -9.2934  -69.2396 O   0  0  0  0  0  0  0  0  0  0  0  0
   65.8256   -5.3013  -67.4918 C   0  0  0  0  0  0  0  0  0  0  0  0
   66.7342   -4.8173  -67.0459 O   0  0  0  0  0  0  0  0  0  0  0  0
   62.3569   -9.3974  -68.7998 C   0  0  0  0  0  0  0  0  0  0  0  0
   62.8374   -7.7899  -68.1073 O   0  0  0  0  0  0  0  0  0  0  0  0
   68.6664   -2.9757  -66.5582 C   0  0  0  0  0  0  0  0  0  0  0  0
  4  2  1  0
  5  2  1  0
  6  1  1  0
  7  3  1  0
  9  2  1  0
 10  3  1  0
 10  9  1  0
 11  8  1  0
 12  4  1  0
 12 11  1  0
 13  1  1  0
 13  7  1  0
M  END
>  <ID>  (1) 
conformer_0

$$$$
