
     RDKit          3D

 13 12  0  0  0  0  0  0  0  0999 V2000
   63.7792   -6.6146  -67.0390 C   0  0  0  0  0  0  0  0  0  0  0  0
   70.2199   -2.6910  -65.8655 C   0  0  0  0  0  0  0  0  0  0  0  0
   62.3933   -9.3343  -68.9997 C   0  0  0  0  0  0  0  0  0  0  0  0
   67.0744   -4.2983  -67.6188 C   0  0  0  0  0  0  0  0  0  0  0  0
   68.7875   -3.4761  -66.1093 O   0  0  0  0  0  0  0  0  0  0  0  0
   70.9299   -2.9289  -64.8608 O   0  0  0  0  0  0  0  0  0  0  0  0
   62.9740   -7.6628  -68.2641 O   0  0  0  0  0  0  0  0  0  0  0  0
   64.8432   -5.6427  -67.6166 O   0  0  0  0  0  0  0  0  0  0  0  0
   61.1074   -9.3357  -68.3277 O   0  0  0  0  0  0  0  0  0  0  0  0
   68.7447   -3.1979  -66.9860 C   0  0  0  0  0  0  0  0  0  0  0  0
   65.0374   -5.3456  -67.7558 C   0  0  0  0  0  0  0  0  0  0  0  0
   66.7939   -4.5065  -66.7835 O   0  0  0  0  0  0  0  0  0  0  0  0
   63.4945   -7.8989  -68.4559 C   0  0  0  0  0  0  0  0  0  0  0  0
  5  2  1  0
  6  2  1  0
  7  1  1  0
  8  1  1  0
  9  3  1  0
 10  4  1  0
 10  5  1  0
 11  8  1  0
 12  4  1  0
 12 11  1  0
 13  3  1  0
 13  7  1  0
M  END
>  <ID>  (1) 
conformer_0

$$$$
