
     RDKit          3D

 12 11  0  0  0  0  0  0  0  0999 V2000
   63.4671   -8.3486  -68.0828 C   0  0  0  0  0  0  0  0  0  0  0  0
   70.1257   -2.3463  -66.2166 C   0  0  0  0  0  0  0  0  0  0  0  0
   64.2140   -6.2080  -67.3956 C   0  0  0  0  0  0  0  0  0  0  0  0
   68.0357   -3.2587  -67.2617 C   0  0  0  0  0  0  0  0  0  0  0  0
   70.7263   -2.3943  -64.7143 O   0  0  0  0  0  0  0  0  0  0  0  0
   62.9853   -7.9902  -68.2251 O   0  0  0  0  0  0  0  0  0  0  0  0
   68.7717   -3.3360  -66.5537 O   0  0  0  0  0  0  0  0  0  0  0  0
   64.8336   -6.2005  -67.6614 O   0  0  0  0  0  0  0  0  0  0  0  0
   66.1218   -4.6433  -67.6272 C   0  0  0  0  0  0  0  0  0  0  0  0
   60.8297   -9.5200  -67.8013 O   0  0  0  0  0  0  0  0  0  0  0  0
   62.3645   -9.7233  -68.8298 C   0  0  0  0  0  0  0  0  0  0  0  0
   66.8582   -4.7317  -67.0678 O   0  0  0  0  0  0  0  0  0  0  0  0
  3  1  1  0
  5  2  1  0
  6  1  1  0
  7  2  1  0
  7  4  1  0
  8  3  1  0
  9  8  1  0
 11  1  1  0
 11 10  1  0
 12  4  1  0
 12  9  1  0
M  END
>  <ID>  (1) 
conformer_0

$$$$
