
     RDKit          3D

 12 11  0  0  0  0  0  0  0  0999 V2000
   68.7321   -3.3098  -66.8927 C   0  0  0  0  0  0  0  0  0  0  0  0
   66.7933   -4.3354  -67.4470 C   0  0  0  0  0  0  0  0  0  0  0  0
   65.0253   -5.1812  -67.5087 C   0  0  0  0  0  0  0  0  0  0  0  0
   63.8420   -7.2336  -67.5685 C   0  0  0  0  0  0  0  0  0  0  0  0
   71.1110   -2.9314  -64.8027 O   0  0  0  0  0  0  0  0  0  0  0  0
   62.8690   -7.8397  -68.3585 O   0  0  0  0  0  0  0  0  0  0  0  0
   68.8110   -3.3464  -66.3331 O   0  0  0  0  0  0  0  0  0  0  0  0
   62.7719  -10.4466  -68.6072 C   0  0  0  0  0  0  0  0  0  0  0  0
   62.6610   -9.2345  -68.7809 C   0  0  0  0  0  0  0  0  0  0  0  0
   64.2503   -6.2122  -67.4888 O   0  0  0  0  0  0  0  0  0  0  0  0
   70.1318   -2.4202  -65.8907 C   0  0  0  0  0  0  0  0  0  0  0  0
   67.0824   -4.2912  -66.9064 O   0  0  0  0  0  0  0  0  0  0  0  0
  3  2  1  0
  6  4  1  0
  7  1  1  0
  9  6  1  0
  9  8  2  3
 10  3  1  0
 10  4  1  0
 11  5  1  0
 11  7  1  0
 12  1  1  0
 12  2  1  0
M  END
>  <ID>  (1) 
conformer_0

$$$$
