
     RDKit          3D

 14 13  0  0  0  0  0  0  0  0999 V2000
   62.9253   -8.1604  -68.4987 C   0  0  0  0  0  0  0  0  0  0  0  0
   67.0218   -3.4666  -67.1702 C   0  0  0  0  0  0  0  0  0  0  0  0
   63.9950   -6.9929  -67.1497 C   0  0  0  0  0  0  0  0  0  0  0  0
   70.1793   -2.8120  -65.8907 C   0  0  0  0  0  0  0  0  0  0  0  0
   70.9336   -3.0092  -64.8681 O   0  0  0  0  0  0  0  0  0  0  0  0
   62.9659   -7.4322  -67.9051 O   0  0  0  0  0  0  0  0  0  0  0  0
   68.6937   -3.6168  -66.5773 O   0  0  0  0  0  0  0  0  0  0  0  0
   69.0154   -3.3780  -66.9050 C   0  0  0  0  0  0  0  0  0  0  0  0
   66.8478   -4.7804  -67.0209 O   0  0  0  0  0  0  0  0  0  0  0  0
   61.0397   -9.6219  -68.3544 O   0  0  0  0  0  0  0  0  0  0  0  0
   62.0903   -9.5371  -68.6479 C   0  0  0  0  0  0  0  0  0  0  0  0
   64.3513   -5.8557  -67.6244 O   0  0  0  0  0  0  0  0  0  0  0  0
   64.7716   -5.3590  -67.4636 C   0  0  0  0  0  0  0  0  0  0  0  0
   66.6889   -5.2306  -67.7501 C   0  0  0  0  0  0  0  0  0  0  0  0
  5  4  1  0
  6  1  1  0
  6  3  1  0
  7  2  1  0
  8  4  1  0
  8  7  1  0
  9  2  1  0
 11  1  1  0
 11 10  1  0
 12  3  1  0
 13 12  1  0
 14  9  1  0
 14 13  1  0
M  END
>  <ID>  (1) 
conformer_0

$$$$
