
     RDKit          3D

 14 13  0  0  0  0  0  0  0  0999 V2000
   63.2312   -8.4162  -68.4156 C   0  0  0  0  0  0  0  0  0  0  0  0
   65.8576   -4.0035  -67.7283 C   0  0  0  0  0  0  0  0  0  0  0  0
   70.4397   -2.8251  -65.9935 C   0  0  0  0  0  0  0  0  0  0  0  0
   64.9172   -5.5025  -67.6296 C   0  0  0  0  0  0  0  0  0  0  0  0
   63.1141   -7.5054  -68.0934 O   0  0  0  0  0  0  0  0  0  0  0  0
   70.9064   -2.9036  -64.8336 O   0  0  0  0  0  0  0  0  0  0  0  0
   68.5230   -3.4821  -66.6334 O   0  0  0  0  0  0  0  0  0  0  0  0
   61.2690  -10.1442  -68.2120 O   0  0  0  0  0  0  0  0  0  0  0  0
   66.7204   -4.3122  -66.9087 O   0  0  0  0  0  0  0  0  0  0  0  0
   69.1449   -3.2493  -66.8084 C   0  0  0  0  0  0  0  0  0  0  0  0
   62.1834   -9.3741  -68.8626 C   0  0  0  0  0  0  0  0  0  0  0  0
   64.7460   -5.7477  -67.2234 O   0  0  0  0  0  0  0  0  0  0  0  0
   64.1812   -7.0774  -66.9459 C   0  0  0  0  0  0  0  0  0  0  0  0
   67.6768   -4.3349  -67.6482 C   0  0  0  0  0  0  0  0  0  0  0  0
  4  2  1  0
  5  1  1  0
  6  3  1  0
  9  2  1  0
 10  3  2  3
 10  7  1  0
 11  1  1  0
 11  8  1  0
 12  4  1  0
 13  5  1  0
 13 12  1  0
 14  7  1  0
 14  9  1  0
M  END
>  <ID>  (1) 
conformer_0

$$$$
