
     RDKit          3D

 14 13  0  0  0  0  0  0  0  0999 V2000
   62.3993   -9.1814  -68.7872 C   0  0  0  0  0  0  0  0  0  0  0  0
   63.5496   -8.3807  -67.9977 C   0  0  0  0  0  0  0  0  0  0  0  0
   64.3400   -6.8087  -67.1430 C   0  0  0  0  0  0  0  0  0  0  0  0
   69.9754   -2.7499  -65.9564 C   0  0  0  0  0  0  0  0  0  0  0  0
   61.1706   -9.3933  -69.0605 O   0  0  0  0  0  0  0  0  0  0  0  0
   63.0661   -7.3084  -68.0695 O   0  0  0  0  0  0  0  0  0  0  0  0
   68.6372   -3.1423  -66.3763 O   0  0  0  0  0  0  0  0  0  0  0  0
   70.9285   -3.2551  -64.7797 O   0  0  0  0  0  0  0  0  0  0  0  0
   65.2183   -6.1759  -67.6673 O   0  0  0  0  0  0  0  0  0  0  0  0
   68.2433   -3.3276  -67.1005 C   0  0  0  0  0  0  0  0  0  0  0  0
   71.1280   -2.7846  -65.7224 C   0  0  0  0  0  0  0  0  0  0  0  0
   66.8569   -4.3857  -66.8687 O   0  0  0  0  0  0  0  0  0  0  0  0
   66.8536   -4.6204  -67.7470 C   0  0  0  0  0  0  0  0  0  0  0  0
   65.0056   -5.1872  -67.3512 C   0  0  0  0  0  0  0  0  0  0  0  0
  2  1  1  0
  5  1  1  0
  6  2  1  0
  6  3  1  0
  7  4  1  0
  9  3  1  0
 10  7  1  0
 11  4  1  0
 11  8  1  0
 12 10  1  0
 13 12  1  0
 14  9  1  0
 14 13  1  0
M  END
>  <ID>  (1) 
conformer_0

$$$$
