
     RDKit          3D

 13 12  0  0  0  0  0  0  0  0999 V2000
   63.5031   -8.0652  -68.2692 C   0  0  0  0  0  0  0  0  0  0  0  0
   65.3541   -5.4145  -67.3998 C   0  0  0  0  0  0  0  0  0  0  0  0
   67.0552   -4.3562  -67.5596 C   0  0  0  0  0  0  0  0  0  0  0  0
   68.4785   -3.3287  -67.0047 C   0  0  0  0  0  0  0  0  0  0  0  0
   70.6844   -2.7603  -65.0739 O   0  0  0  0  0  0  0  0  0  0  0  0
   61.2291   -9.4697  -68.9490 O   0  0  0  0  0  0  0  0  0  0  0  0
   68.5700   -3.0942  -66.2399 O   0  0  0  0  0  0  0  0  0  0  0  0
   65.3215   -6.0707  -67.6457 O   0  0  0  0  0  0  0  0  0  0  0  0
   62.9464   -7.8877  -68.0273 O   0  0  0  0  0  0  0  0  0  0  0  0
   69.9915   -2.5838  -66.2206 C   0  0  0  0  0  0  0  0  0  0  0  0
   62.6390   -9.3465  -68.8285 C   0  0  0  0  0  0  0  0  0  0  0  0
   67.0650   -4.5941  -66.9130 O   0  0  0  0  0  0  0  0  0  0  0  0
   64.0719   -6.6441  -67.1217 C   0  0  0  0  0  0  0  0  0  0  0  0
  3  2  1  0
  4  3  1  0
  7  4  1  0
  8  2  1  0
  9  1  1  0
 10  5  1  0
 10  7  1  0
 11  1  1  0
 11  6  1  0
 12  3  1  0
 13  1  1  0
 13  8  1  0
M  END
>  <ID>  (1) 
conformer_0

$$$$
