
     RDKit          3D

 13 12  0  0  0  0  0  0  0  0999 V2000
   62.3385   -9.1788  -69.0122 C   0  0  0  0  0  0  0  0  0  0  0  0
   68.9174   -3.1508  -66.7637 C   0  0  0  0  0  0  0  0  0  0  0  0
   67.2789   -4.2874  -67.4988 C   0  0  0  0  0  0  0  0  0  0  0  0
   64.1432   -6.3598  -67.0998 C   0  0  0  0  0  0  0  0  0  0  0  0
   62.9560   -7.1783  -68.0972 O   0  0  0  0  0  0  0  0  0  0  0  0
   70.9394   -3.0800  -64.9130 O   0  0  0  0  0  0  0  0  0  0  0  0
   61.1268   -9.3884  -68.4204 O   0  0  0  0  0  0  0  0  0  0  0  0
   68.8748   -3.4952  -66.4370 O   0  0  0  0  0  0  0  0  0  0  0  0
   65.7309   -5.2299  -67.5327 C   0  0  0  0  0  0  0  0  0  0  0  0
   64.7786   -6.0557  -67.5807 O   0  0  0  0  0  0  0  0  0  0  0  0
   63.2285   -7.9820  -68.1523 C   0  0  0  0  0  0  0  0  0  0  0  0
   67.0514   -4.6149  -66.8045 O   0  0  0  0  0  0  0  0  0  0  0  0
   70.3352   -2.5487  -65.7941 C   0  0  0  0  0  0  0  0  0  0  0  0
  3  2  1  0
  5  4  1  0
  7  1  1  0
  8  2  1  0
 10  4  1  0
 10  9  1  0
 11  1  1  0
 11  5  1  0
 12  3  1  0
 12  9  1  0
 13  2  1  0
 13  6  1  0
M  END
>  <ID>  (1) 
conformer_0

$$$$
