
     RDKit          3D

 11 10  0  0  0  0  0  0  0  0999 V2000
   70.0634   -2.6859  -65.8859 C   0  0  0  0  0  0  0  0  0  0  0  0
   64.3231   -6.6279  -67.2201 C   0  0  0  0  0  0  0  0  0  0  0  0
   63.3334   -9.0826  -68.5811 C   0  0  0  0  0  0  0  0  0  0  0  0
   65.5745   -5.2057  -67.2205 C   0  0  0  0  0  0  0  0  0  0  0  0
   63.0007   -7.8750  -67.6865 O   0  0  0  0  0  0  0  0  0  0  0  0
   70.9641   -2.8947  -65.0016 O   0  0  0  0  0  0  0  0  0  0  0  0
   68.5551   -3.5788  -66.7299 O   0  0  0  0  0  0  0  0  0  0  0  0
   64.5608   -6.4532  -67.7269 O   0  0  0  0  0  0  0  0  0  0  0  0
   67.0810   -4.4935  -67.7563 C   0  0  0  0  0  0  0  0  0  0  0  0
   66.3901   -3.9201  -67.3718 O   0  0  0  0  0  0  0  0  0  0  0  0
   68.7379   -3.3046  -66.8250 C   0  0  0  0  0  0  0  0  0  0  0  0
  5  2  1  0
  5  3  1  0
  6  1  1  0
  8  2  1  0
  8  4  1  0
 10  4  1  0
 10  9  1  0
 11  1  1  0
 11  7  1  0
 11  9  1  0
M  END
>  <ID>  (1) 
conformer_0

$$$$
