
     RDKit          3D

 13 12  0  0  0  0  0  0  0  0999 V2000
   68.6353   -3.1169  -66.7447 C   0  0  0  0  0  0  0  0  0  0  0  0
   65.4914   -5.2527  -67.5884 C   0  0  0  0  0  0  0  0  0  0  0  0
   64.0491   -6.4140  -67.0167 C   0  0  0  0  0  0  0  0  0  0  0  0
   67.2268   -4.3313  -67.5990 C   0  0  0  0  0  0  0  0  0  0  0  0
   70.9308   -2.9040  -65.0396 O   0  0  0  0  0  0  0  0  0  0  0  0
   68.3641   -3.5192  -66.5679 O   0  0  0  0  0  0  0  0  0  0  0  0
   62.7227   -7.9685  -67.8720 O   0  0  0  0  0  0  0  0  0  0  0  0
   64.7101   -6.3205  -67.4432 O   0  0  0  0  0  0  0  0  0  0  0  0
   70.1503   -2.6692  -66.1156 C   0  0  0  0  0  0  0  0  0  0  0  0
   61.0798   -9.5328  -68.8087 O   0  0  0  0  0  0  0  0  0  0  0  0
   62.2448   -9.1383  -68.9362 C   0  0  0  0  0  0  0  0  0  0  0  0
   66.5265   -4.8807  -66.9760 O   0  0  0  0  0  0  0  0  0  0  0  0
   63.4927   -7.8647  -68.3007 C   0  0  0  0  0  0  0  0  0  0  0  0
  6  1  1  0
  6  4  1  0
  8  2  1  0
  8  3  1  0
  9  1  2  3
  9  5  1  0
 11  7  1  0
 11 10  1  0
 12  2  1  0
 12  4  1  0
 13  3  1  0
 13  7  1  0
M  END
>  <ID>  (1) 
conformer_0

$$$$
