
     RDKit          3D

 13 12  0  0  0  0  0  0  0  0999 V2000
   64.2284   -6.7662  -67.0732 C   0  0  0  0  0  0  0  0  0  0  0  0
   70.4048   -2.7259  -65.9687 C   0  0  0  0  0  0  0  0  0  0  0  0
   68.9051   -3.3602  -67.0162 C   0  0  0  0  0  0  0  0  0  0  0  0
   65.3489   -5.2385  -67.3816 C   0  0  0  0  0  0  0  0  0  0  0  0
   63.0282   -7.5061  -67.9071 O   0  0  0  0  0  0  0  0  0  0  0  0
   68.7731   -3.3235  -66.5195 O   0  0  0  0  0  0  0  0  0  0  0  0
   61.1967   -9.7837  -68.3768 O   0  0  0  0  0  0  0  0  0  0  0  0
   66.7346   -4.3261  -66.8391 O   0  0  0  0  0  0  0  0  0  0  0  0
   67.2279   -4.4276  -67.6748 C   0  0  0  0  0  0  0  0  0  0  0  0
   71.0005   -2.8677  -64.9794 O   0  0  0  0  0  0  0  0  0  0  0  0
   62.4969   -9.4282  -68.8412 C   0  0  0  0  0  0  0  0  0  0  0  0
   64.4556   -5.7121  -67.3173 O   0  0  0  0  0  0  0  0  0  0  0  0
   63.3420   -8.1974  -68.5018 C   0  0  0  0  0  0  0  0  0  0  0  0
  5  1  1  0
  6  2  1  0
  6  3  1  0
  8  4  1  0
  9  3  1  0
  9  8  1  0
 10  2  1  0
 11  7  1  0
 12  1  1  0
 12  4  1  0
 13  5  1  0
 13 11  2  3
M  END
>  <ID>  (1) 
conformer_0

$$$$
