
     RDKit          3D

 13 12  0  0  0  0  0  0  0  0999 V2000
   62.3781   -9.6131  -68.7349 C   0  0  0  0  0  0  0  0  0  0  0  0
   68.7464   -3.1601  -66.7862 C   0  0  0  0  0  0  0  0  0  0  0  0
   65.5286   -5.3809  -67.6318 C   0  0  0  0  0  0  0  0  0  0  0  0
   64.2438   -6.7137  -67.3025 C   0  0  0  0  0  0  0  0  0  0  0  0
   63.0869   -7.3816  -68.3367 O   0  0  0  0  0  0  0  0  0  0  0  0
   71.0476   -2.8702  -65.1708 O   0  0  0  0  0  0  0  0  0  0  0  0
   60.9883   -9.9628  -68.0685 O   0  0  0  0  0  0  0  0  0  0  0  0
   68.3687   -3.2739  -66.4636 O   0  0  0  0  0  0  0  0  0  0  0  0
   66.9824   -4.7082  -67.1253 O   0  0  0  0  0  0  0  0  0  0  0  0
   66.9513   -4.1904  -67.5191 C   0  0  0  0  0  0  0  0  0  0  0  0
   63.2333   -8.3485  -68.5201 C   0  0  0  0  0  0  0  0  0  0  0  0
   64.6860   -5.9905  -67.8966 O   0  0  0  0  0  0  0  0  0  0  0  0
   70.0282   -2.4714  -65.9960 C   0  0  0  0  0  0  0  0  0  0  0  0
  5  4  1  0
  7  1  1  0
  8  2  1  0
  9  3  1  0
 10  2  1  0
 10  9  1  0
 11  1  1  0
 11  5  1  0
 12  3  1  0
 12  4  1  0
 13  2  1  0
 13  6  1  0
M  END
>  <ID>  (1) 
conformer_0

$$$$
