
     RDKit          3D

 14 13  0  0  0  0  0  0  0  0999 V2000
   63.3055   -8.2637  -68.4856 C   0  0  0  0  0  0  0  0  0  0  0  0
   64.0409   -7.0558  -66.8729 C   0  0  0  0  0  0  0  0  0  0  0  0
   70.5432   -2.7795  -66.0161 C   0  0  0  0  0  0  0  0  0  0  0  0
   66.2280   -4.5682  -67.7034 C   0  0  0  0  0  0  0  0  0  0  0  0
   63.1114   -7.1486  -67.8859 O   0  0  0  0  0  0  0  0  0  0  0  0
   61.2727   -9.4631  -68.8594 O   0  0  0  0  0  0  0  0  0  0  0  0
   67.3793   -4.1796  -67.0154 O   0  0  0  0  0  0  0  0  0  0  0  0
   70.8186   -2.5327  -64.9168 O   0  0  0  0  0  0  0  0  0  0  0  0
   65.4660   -5.8019  -67.3326 O   0  0  0  0  0  0  0  0  0  0  0  0
   64.8119   -5.7300  -67.7103 C   0  0  0  0  0  0  0  0  0  0  0  0
   69.6806   -3.4871  -65.9963 O   0  0  0  0  0  0  0  0  0  0  0  0
   62.3238   -8.5522  -69.4764 C   0  0  0  0  0  0  0  0  0  0  0  0
   68.1334   -4.0906  -67.6302 C   0  0  0  0  0  0  0  0  0  0  0  0
   68.7651   -2.7720  -66.2593 C   0  0  0  0  0  0  0  0  0  0  0  0
  5  1  1  0
  5  2  1  0
  7  4  1  0
  8  3  1  0
  9  4  1  0
 10  2  1  0
 10  9  1  0
 11  3  1  0
 12  1  1  0
 12  6  1  0
 13  7  1  0
 14 11  1  0
 14 13  1  0
M  END
>  <ID>  (1) 
conformer_0

$$$$
