
     RDKit          3D

 13 12  0  0  0  0  0  0  0  0999 V2000
   64.0232   -6.7034  -66.5872 C   0  0  0  0  0  0  0  0  0  0  0  0
   68.5397   -3.0692  -66.9313 C   0  0  0  0  0  0  0  0  0  0  0  0
   62.9817   -8.3892  -69.5134 C   0  0  0  0  0  0  0  0  0  0  0  0
   70.3878   -2.8780  -66.2944 C   0  0  0  0  0  0  0  0  0  0  0  0
   63.3779   -6.5947  -67.9305 O   0  0  0  0  0  0  0  0  0  0  0  0
   69.1989   -2.9828  -66.1750 O   0  0  0  0  0  0  0  0  0  0  0  0
   71.2874   -3.0303  -65.2282 O   0  0  0  0  0  0  0  0  0  0  0  0
   65.6762   -5.7113  -67.4744 O   0  0  0  0  0  0  0  0  0  0  0  0
   65.4931   -5.7357  -67.4049 C   0  0  0  0  0  0  0  0  0  0  0  0
   67.2833   -4.3068  -67.5691 C   0  0  0  0  0  0  0  0  0  0  0  0
   67.5581   -4.3557  -66.8890 O   0  0  0  0  0  0  0  0  0  0  0  0
   62.4823   -8.2223  -68.1943 O   0  0  0  0  0  0  0  0  0  0  0  0
   63.5207   -7.6823  -68.0013 C   0  0  0  0  0  0  0  0  0  0  0  0
  5  1  1  0
  6  2  1  0
  6  4  1  0
  7  4  1  0
  9  1  1  0
  9  8  2  0
 10  9  1  0
 11  2  1  0
 11 10  1  0
 12  3  1  0
 13  5  1  0
 13 12  1  0
M  END
>  <ID>  (1) 
conformer_0

$$$$
