
     RDKit          3D

  9  8  0  0  0  0  0  0  0  0999 V2000
   65.7026   -4.9207  -67.5339 C   0  0  0  0  0  0  0  0  0  0  0  0
   62.8998   -8.8706  -68.8265 C   0  0  0  0  0  0  0  0  0  0  0  0
   63.9250   -6.6123  -67.3540 C   0  0  0  0  0  0  0  0  0  0  0  0
   67.8427   -3.6898  -67.2751 C   0  0  0  0  0  0  0  0  0  0  0  0
   61.2301   -9.3935  -68.2291 O   0  0  0  0  0  0  0  0  0  0  0  0
   63.5707   -7.5627  -68.1291 O   0  0  0  0  0  0  0  0  0  0  0  0
   68.6920   -3.3412  -66.0632 O   0  0  0  0  0  0  0  0  0  0  0  0
   65.8311   -5.3195  -67.0847 O   0  0  0  0  0  0  0  0  0  0  0  0
   69.7016   -2.7103  -66.1971 C   0  0  0  0  0  0  0  0  0  0  0  0
  4  1  1  0
  5  2  1  0
  6  2  1  0
  6  3  1  0
  7  4  1  0
  8  1  1  0
  8  3  1  0
  9  7  1  0
M  END
>  <ID>  (1) 
conformer_0

$$$$
