
     RDKit          3D

 15 14  0  0  0  0  0  0  0  0999 V2000
   63.9984   -6.0789  -66.9800 C   0  0  0  0  0  0  0  0  0  0  0  0
   70.4968   -2.6953  -66.0558 C   0  0  0  0  0  0  0  0  0  0  0  0
   62.4047   -9.7371  -68.5660 C   0  0  0  0  0  0  0  0  0  0  0  0
   68.4573   -3.8955  -67.5041 C   0  0  0  0  0  0  0  0  0  0  0  0
   63.0220   -7.9163  -68.1134 O   0  0  0  0  0  0  0  0  0  0  0  0
   71.0159   -2.7294  -64.7714 O   0  0  0  0  0  0  0  0  0  0  0  0
   68.6641   -3.5289  -66.3870 O   0  0  0  0  0  0  0  0  0  0  0  0
   66.9779   -4.7421  -66.9471 O   0  0  0  0  0  0  0  0  0  0  0  0
   66.6770   -4.4228  -67.6275 C   0  0  0  0  0  0  0  0  0  0  0  0
   60.8716   -9.6590  -68.3449 O   0  0  0  0  0  0  0  0  0  0  0  0
   65.4500   -5.5545  -67.8334 C   0  0  0  0  0  0  0  0  0  0  0  0
   65.2244   -6.3219  -66.9345 O   0  0  0  0  0  0  0  0  0  0  0  0
   63.9144   -7.7837  -67.4206 C   0  0  0  0  0  0  0  0  0  0  0  0
   62.4337   -8.4163  -69.4837 C   0  0  0  0  0  0  0  0  0  0  0  0
   68.7818   -2.6745  -66.0059 C   0  0  0  0  0  0  0  0  0  0  0  0
  6  2  1  0
  7  4  1  0
  9  4  1  0
  9  8  1  0
 10  3  1  0
 11  9  1  0
 12  1  1  0
 12 11  1  0
 13  1  1  0
 13  5  1  0
 14  3  1  0
 14  5  1  0
 15  2  1  0
 15  7  1  0
M  END
>  <ID>  (1) 
conformer_0

$$$$
