
     RDKit          3D

 13 12  0  0  0  0  0  0  0  0999 V2000
   63.2929   -8.4281  -69.0804 C   0  0  0  0  0  0  0  0  0  0  0  0
   63.9361   -6.6366  -67.0364 C   0  0  0  0  0  0  0  0  0  0  0  0
   70.1915   -2.3830  -66.0983 C   0  0  0  0  0  0  0  0  0  0  0  0
   68.5218   -3.1180  -67.0046 C   0  0  0  0  0  0  0  0  0  0  0  0
   71.0184   -2.7262  -64.8941 O   0  0  0  0  0  0  0  0  0  0  0  0
   63.3770   -7.7018  -67.5409 O   0  0  0  0  0  0  0  0  0  0  0  0
   68.8153   -3.0161  -66.3341 O   0  0  0  0  0  0  0  0  0  0  0  0
   61.6412   -9.9595  -69.5976 O   0  0  0  0  0  0  0  0  0  0  0  0
   67.1687   -4.2644  -66.8673 O   0  0  0  0  0  0  0  0  0  0  0  0
   64.9184   -5.1360  -67.3071 C   0  0  0  0  0  0  0  0  0  0  0  0
   66.7067   -4.2382  -67.4291 C   0  0  0  0  0  0  0  0  0  0  0  0
   62.7996   -9.6053  -68.4671 C   0  0  0  0  0  0  0  0  0  0  0  0
   65.4964   -5.8747  -67.2958 O   0  0  0  0  0  0  0  0  0  0  0  0
  5  3  1  0
  6  1  1  0
  6  2  1  0
  7  3  1  0
  7  4  1  0
  9  4  1  0
 10  2  1  0
 11  9  1  0
 11 10  1  0
 12  1  1  0
 12  8  1  0
 13 10  1  0
M  END
>  <ID>  (1) 
conformer_0

$$$$
