
     RDKit          3D

 12 11  0  0  0  0  0  0  0  0999 V2000
   63.8288   -7.4669  -67.3284 C   0  0  0  0  0  0  0  0  0  0  0  0
   69.8980   -2.4610  -66.0844 C   0  0  0  0  0  0  0  0  0  0  0  0
   64.9280   -5.7949  -67.4078 C   0  0  0  0  0  0  0  0  0  0  0  0
   62.6060   -8.7833  -68.8093 C   0  0  0  0  0  0  0  0  0  0  0  0
   62.8780   -7.4585  -68.1904 O   0  0  0  0  0  0  0  0  0  0  0  0
   61.2857   -9.6010  -68.1643 O   0  0  0  0  0  0  0  0  0  0  0  0
   70.8728   -2.8578  -65.1259 O   0  0  0  0  0  0  0  0  0  0  0  0
   68.6819   -3.3909  -66.4978 O   0  0  0  0  0  0  0  0  0  0  0  0
   67.1583   -4.8411  -67.0060 O   0  0  0  0  0  0  0  0  0  0  0  0
   68.2986   -3.5371  -67.0702 C   0  0  0  0  0  0  0  0  0  0  0  0
   66.6599   -4.6549  -67.6507 C   0  0  0  0  0  0  0  0  0  0  0  0
   64.9858   -6.1288  -67.4325 O   0  0  0  0  0  0  0  0  0  0  0  0
  5  1  1  0
  5  4  1  0
  6  4  1  0
  7  2  1  0
  8  2  1  0
 10  8  1  0
 10  9  1  0
 11  3  1  0
 11  9  1  0
 12  1  1  0
 12  3  1  0
M  END
>  <ID>  (1) 
conformer_0

$$$$
