
     RDKit          3D

 13 12  0  0  0  0  0  0  0  0999 V2000
   70.3889   -2.6853  -65.7679 C   0  0  0  0  0  0  0  0  0  0  0  0
   68.9600   -3.0502  -66.6023 C   0  0  0  0  0  0  0  0  0  0  0  0
   64.1795   -6.2885  -67.1218 C   0  0  0  0  0  0  0  0  0  0  0  0
   63.3989   -7.8288  -67.9665 C   0  0  0  0  0  0  0  0  0  0  0  0
   71.0012   -3.0556  -64.7470 O   0  0  0  0  0  0  0  0  0  0  0  0
   60.9545   -9.4340  -68.2212 O   0  0  0  0  0  0  0  0  0  0  0  0
   68.6860   -3.6262  -66.6361 O   0  0  0  0  0  0  0  0  0  0  0  0
   62.8228   -7.6319  -68.1492 O   0  0  0  0  0  0  0  0  0  0  0  0
   66.7848   -4.6846  -66.8877 O   0  0  0  0  0  0  0  0  0  0  0  0
   65.9377   -5.0529  -67.6641 C   0  0  0  0  0  0  0  0  0  0  0  0
   67.6089   -4.0745  -67.7589 C   0  0  0  0  0  0  0  0  0  0  0  0
   64.8755   -5.9693  -67.4007 O   0  0  0  0  0  0  0  0  0  0  0  0
   62.2533   -9.1455  -69.0479 C   0  0  0  0  0  0  0  0  0  0  0  0
  2  1  1  0
  4  3  1  0
  5  1  1  0
  7  2  1  0
  8  4  1  0
 10  9  1  0
 11  7  1  0
 11  9  1  0
 12  3  1  0
 12 10  1  0
 13  6  1  0
 13  8  1  0
M  END
>  <ID>  (1) 
conformer_0

$$$$
