
     RDKit          3D

 12 11  0  0  0  0  0  0  0  0999 V2000
   63.8780   -7.6524  -67.8475 C   0  0  0  0  0  0  0  0  0  0  0  0
   69.7864   -2.2413  -66.2107 C   0  0  0  0  0  0  0  0  0  0  0  0
   65.0043   -6.1136  -67.1478 C   0  0  0  0  0  0  0  0  0  0  0  0
   68.1468   -3.2819  -67.3053 C   0  0  0  0  0  0  0  0  0  0  0  0
   68.4682   -2.9365  -66.5621 O   0  0  0  0  0  0  0  0  0  0  0  0
   63.3031   -8.0075  -67.6677 O   0  0  0  0  0  0  0  0  0  0  0  0
   61.1000   -9.5746  -68.5912 O   0  0  0  0  0  0  0  0  0  0  0  0
   66.9967   -4.2956  -66.8810 O   0  0  0  0  0  0  0  0  0  0  0  0
   66.4539   -4.6563  -67.7892 C   0  0  0  0  0  0  0  0  0  0  0  0
   70.4124   -1.9632  -65.3134 O   0  0  0  0  0  0  0  0  0  0  0  0
   62.5625   -9.2509  -68.6305 C   0  0  0  0  0  0  0  0  0  0  0  0
   65.3740   -6.1903  -67.3371 O   0  0  0  0  0  0  0  0  0  0  0  0
  3  1  1  0
  5  2  1  0
  5  4  1  0
  6  1  1  0
  8  4  1  0
  9  8  1  0
 10  2  1  0
 11  6  1  0
 11  7  1  0
 12  3  1  0
 12  9  1  0
M  END
>  <ID>  (1) 
conformer_0

$$$$
