
     RDKit          3D

 14 13  0  0  0  0  0  0  0  0999 V2000
   64.0884   -6.0885  -67.0097 C   0  0  0  0  0  0  0  0  0  0  0  0
   70.0880   -2.3289  -65.9781 C   0  0  0  0  0  0  0  0  0  0  0  0
   63.3490   -7.8474  -68.1564 C   0  0  0  0  0  0  0  0  0  0  0  0
   65.4033   -5.1269  -67.3817 C   0  0  0  0  0  0  0  0  0  0  0  0
   71.0465   -3.0671  -64.7621 O   0  0  0  0  0  0  0  0  0  0  0  0
   62.7758   -7.7323  -68.0120 O   0  0  0  0  0  0  0  0  0  0  0  0
   68.7296   -3.3549  -66.2626 O   0  0  0  0  0  0  0  0  0  0  0  0
   61.3737   -9.7541  -68.7605 O   0  0  0  0  0  0  0  0  0  0  0  0
   68.5716   -2.9516  -66.6746 C   0  0  0  0  0  0  0  0  0  0  0  0
   63.8245   -9.6717  -69.1929 C   0  0  0  0  0  0  0  0  0  0  0  0
   66.5961   -4.7634  -67.1708 O   0  0  0  0  0  0  0  0  0  0  0  0
   62.6399   -8.9811  -69.1342 C   0  0  0  0  0  0  0  0  0  0  0  0
   67.2075   -4.3284  -67.4337 C   0  0  0  0  0  0  0  0  0  0  0  0
   63.5980   -6.0708  -67.9896 O   0  0  0  0  0  0  0  0  0  0  0  0
  4  1  1  0
  5  2  1  0
  6  3  1  0
  9  2  1  0
  9  7  1  0
 11  4  1  0
 12  3  1  0
 12  8  1  0
 12 10  1  0
 13  9  1  0
 13 11  1  0
 14  1  1  0
 14  3  1  0
M  END
>  <ID>  (1) 
conformer_0

$$$$
