
     RDKit          3D

 14 13  0  0  0  0  0  0  0  0999 V2000
   69.2362   -3.0045  -66.6725 C   0  0  0  0  0  0  0  0  0  0  0  0
   63.5546   -6.5070  -67.0076 C   0  0  0  0  0  0  0  0  0  0  0  0
   65.2049   -6.3831  -67.2852 C   0  0  0  0  0  0  0  0  0  0  0  0
   66.3191   -4.9409  -67.5154 C   0  0  0  0  0  0  0  0  0  0  0  0
   60.9360   -9.4014  -68.1999 O   0  0  0  0  0  0  0  0  0  0  0  0
   62.7640   -7.4767  -68.4014 O   0  0  0  0  0  0  0  0  0  0  0  0
   71.1905   -3.2552  -65.0320 O   0  0  0  0  0  0  0  0  0  0  0  0
   68.6881   -3.4926  -66.4428 O   0  0  0  0  0  0  0  0  0  0  0  0
   67.7638   -3.8246  -67.3114 C   0  0  0  0  0  0  0  0  0  0  0  0
   66.8124   -4.9377  -66.8360 O   0  0  0  0  0  0  0  0  0  0  0  0
   64.2513   -6.1612  -67.5145 O   0  0  0  0  0  0  0  0  0  0  0  0
   63.3120   -8.5298  -68.1792 C   0  0  2  0  0  0  0  0  0  0  0  0
   70.6992   -2.7670  -66.0687 C   0  0  0  0  0  0  0  0  0  0  0  0
   62.2659   -8.9896  -69.1988 C   0  0  0  0  0  0  0  0  0  0  0  0
  4  3  1  0
  8  1  1  0
  9  8  1  0
 10  4  1  0
 10  9  1  0
 11  2  1  0
 11  3  1  0
 12  2  1  0
 12  6  1  6
 13  1  2  3
 13  7  1  0
 14  5  1  0
 14 12  1  0
M  END
>  <ID>  (1) 
conformer_0

$$$$
