
     RDKit          3D

 11 10  0  0  0  0  0  0  0  0999 V2000
   66.5060   -4.5539  -67.4064 C   0  0  0  0  0  0  0  0  0  0  0  0
   63.9133   -7.7472  -67.8231 C   0  0  0  0  0  0  0  0  0  0  0  0
   62.5681   -9.2756  -68.7850 C   0  0  0  0  0  0  0  0  0  0  0  0
   70.0759   -2.7116  -66.2126 C   0  0  0  0  0  0  0  0  0  0  0  0
   63.2264   -7.6470  -68.0584 O   0  0  0  0  0  0  0  0  0  0  0  0
   69.1304   -3.1363  -66.0290 O   0  0  0  0  0  0  0  0  0  0  0  0
   61.1565   -9.6207  -69.0969 O   0  0  0  0  0  0  0  0  0  0  0  0
   67.0953   -4.1244  -66.5524 O   0  0  0  0  0  0  0  0  0  0  0  0
   68.2347   -3.4406  -67.1027 C   0  0  0  0  0  0  0  0  0  0  0  0
   64.7043   -5.8715  -67.1479 C   0  0  0  0  0  0  0  0  0  0  0  0
   65.2415   -5.8385  -67.3985 O   0  0  0  0  0  0  0  0  0  0  0  0
  5  2  1  0
  5  3  1  0
  6  4  1  0
  7  3  1  0
  8  1  1  0
  9  6  1  0
  9  8  1  0
 10  2  1  0
 11  1  1  0
 11 10  1  0
M  END
>  <ID>  (1) 
conformer_0

$$$$
