
     RDKit          3D

 11 10  0  0  0  0  0  0  0  0999 V2000
   70.3957   -2.6698  -65.8919 C   0  0  0  0  0  0  0  0  0  0  0  0
   63.7161   -7.2641  -67.9328 C   0  0  0  0  0  0  0  0  0  0  0  0
   62.2209   -8.9314  -68.8047 C   0  0  0  0  0  0  0  0  0  0  0  0
   68.5343   -3.0614  -66.7806 C   0  0  0  0  0  0  0  0  0  0  0  0
   63.2363   -7.4778  -68.1109 O   0  0  0  0  0  0  0  0  0  0  0  0
   69.4675   -2.8732  -65.8606 O   0  0  0  0  0  0  0  0  0  0  0  0
   65.4818   -5.7345  -67.3661 O   0  0  0  0  0  0  0  0  0  0  0  0
   61.0062   -9.6890  -69.1646 O   0  0  0  0  0  0  0  0  0  0  0  0
   65.0305   -5.7103  -67.5514 C   0  0  0  0  0  0  0  0  0  0  0  0
   66.9680   -4.3641  -67.4980 C   0  0  0  0  0  0  0  0  0  0  0  0
   67.4366   -4.3329  -66.7126 O   0  0  0  0  0  0  0  0  0  0  0  0
  5  2  1  0
  5  3  1  0
  6  1  1  0
  6  4  1  0
  8  3  1  0
  9  2  2  3
  9  7  1  0
 10  7  1  0
 11  4  1  0
 11 10  1  0
M  END
>  <ID>  (1) 
conformer_0

$$$$
