
     RDKit          3D

 13 12  0  0  0  0  0  0  0  0999 V2000
   63.6575   -7.9667  -67.6476 C   0  0  0  0  0  0  0  0  0  0  0  0
   68.7492   -3.1763  -66.9220 C   0  0  0  0  0  0  0  0  0  0  0  0
   62.5882   -9.3143  -68.8462 C   0  0  0  0  0  0  0  0  0  0  0  0
   70.3665   -2.5814  -66.1501 C   0  0  0  0  0  0  0  0  0  0  0  0
   62.9649   -7.9642  -68.1038 O   0  0  0  0  0  0  0  0  0  0  0  0
   61.2545   -9.4046  -69.2977 O   0  0  0  0  0  0  0  0  0  0  0  0
   71.0133   -2.8736  -65.0258 O   0  0  0  0  0  0  0  0  0  0  0  0
   68.9204   -3.4337  -66.7029 O   0  0  0  0  0  0  0  0  0  0  0  0
   64.1976   -6.4008  -66.7856 C   0  0  0  0  0  0  0  0  0  0  0  0
   66.4827   -4.3430  -66.8557 O   0  0  0  0  0  0  0  0  0  0  0  0
   64.2933   -5.9434  -67.7952 O   0  0  0  0  0  0  0  0  0  0  0  0
   65.2136   -5.0421  -67.2963 C   0  0  0  0  0  0  0  0  0  0  0  0
   67.2534   -4.1652  -67.5871 C   0  0  0  0  0  0  0  0  0  0  0  0
  5  1  1  0
  5  3  1  0
  6  3  1  0
  7  4  1  0
  8  2  1  0
  8  4  1  0
  9  1  1  0
 11  9  1  0
 12 10  1  0
 12 11  1  0
 13  2  1  0
 13 10  1  0
M  END
>  <ID>  (1) 
conformer_0

$$$$
