
     RDKit          3D

 13 12  0  0  0  0  0  0  0  0999 V2000
   62.6495   -9.3218  -69.1077 C   0  0  0  0  0  0  0  0  0  0  0  0
   63.2395   -7.9896  -68.3461 C   0  0  0  0  0  0  0  0  0  0  0  0
   70.1219   -2.5399  -65.9991 C   0  0  0  0  0  0  0  0  0  0  0  0
   68.6633   -3.1045  -66.9594 C   0  0  0  0  0  0  0  0  0  0  0  0
   70.8286   -2.9421  -64.9429 O   0  0  0  0  0  0  0  0  0  0  0  0
   61.2880   -9.3618  -69.1910 O   0  0  0  0  0  0  0  0  0  0  0  0
   68.6241   -3.0177  -66.2865 O   0  0  0  0  0  0  0  0  0  0  0  0
   63.0763   -7.0569  -67.8303 O   0  0  0  0  0  0  0  0  0  0  0  0
   67.2386   -4.6253  -66.8601 O   0  0  0  0  0  0  0  0  0  0  0  0
   67.1150   -4.1037  -67.6311 C   0  0  0  0  0  0  0  0  0  0  0  0
   64.1930   -6.7880  -66.9573 C   0  0  0  0  0  0  0  0  0  0  0  0
   65.4497   -5.5120  -67.3750 C   0  0  0  0  0  0  0  0  0  0  0  0
   65.4279   -5.8115  -67.2964 O   0  0  0  0  0  0  0  0  0  0  0  0
  2  1  1  0
  5  3  1  0
  6  1  1  0
  7  3  1  0
  7  4  1  0
  8  2  1  0
 10  4  1  0
 10  9  1  0
 11  8  1  0
 12  9  1  0
 13 11  1  0
 13 12  1  0
M  END
>  <ID>  (1) 
conformer_0

$$$$
