
     RDKit          3D

 13 12  0  0  0  0  0  0  0  0999 V2000
   69.0032   -3.2029  -66.8311 C   0  0  0  0  0  0  0  0  0  0  0  0
   63.3030   -8.2423  -68.2139 C   0  0  0  0  0  0  0  0  0  0  0  0
   64.1544   -6.4205  -67.3406 C   0  0  0  0  0  0  0  0  0  0  0  0
   67.3637   -4.2883  -67.5676 C   0  0  0  0  0  0  0  0  0  0  0  0
   71.1288   -3.0825  -64.7570 O   0  0  0  0  0  0  0  0  0  0  0  0
   63.1259   -7.7457  -67.9498 O   0  0  0  0  0  0  0  0  0  0  0  0
   60.7830   -9.4771  -67.8077 O   0  0  0  0  0  0  0  0  0  0  0  0
   68.5888   -3.2033  -66.4240 O   0  0  0  0  0  0  0  0  0  0  0  0
   65.5318   -5.2304  -67.7482 C   0  0  0  0  0  0  0  0  0  0  0  0
   66.7343   -4.2818  -67.0196 O   0  0  0  0  0  0  0  0  0  0  0  0
   62.1222   -9.7200  -68.7576 C   0  0  0  0  0  0  0  0  0  0  0  0
   70.2260   -2.5721  -65.8395 C   0  0  0  0  0  0  0  0  0  0  0  0
   65.0481   -6.0132  -67.4457 O   0  0  0  0  0  0  0  0  0  0  0  0
  4  1  1  0
  6  2  1  0
  6  3  1  0
  8  1  1  0
 10  4  1  0
 10  9  1  0
 11  2  1  0
 11  7  1  0
 12  1  1  0
 12  5  1  0
 13  3  1  0
 13  9  1  0
M  END
>  <ID>  (1) 
conformer_0

$$$$
