
     RDKit          3D

 12 11  0  0  0  0  0  0  0  0999 V2000
   63.6290   -7.5009  -67.4933 C   0  0  0  0  0  0  0  0  0  0  0  0
   69.7830   -2.4879  -65.8835 C   0  0  0  0  0  0  0  0  0  0  0  0
   62.6572   -9.2383  -68.9176 C   0  0  0  0  0  0  0  0  0  0  0  0
   68.1562   -3.3135  -67.0698 C   0  0  0  0  0  0  0  0  0  0  0  0
   62.9561   -7.6817  -68.1062 O   0  0  0  0  0  0  0  0  0  0  0  0
   70.5258   -2.1332  -64.7776 O   0  0  0  0  0  0  0  0  0  0  0  0
   61.1506   -9.6965  -69.1343 O   0  0  0  0  0  0  0  0  0  0  0  0
   68.8682   -3.4836  -66.4748 O   0  0  0  0  0  0  0  0  0  0  0  0
   66.7255   -4.5168  -67.0381 O   0  0  0  0  0  0  0  0  0  0  0  0
   64.4592   -5.7663  -67.2356 C   0  0  0  0  0  0  0  0  0  0  0  0
   66.2950   -4.4420  -67.6136 C   0  0  0  0  0  0  0  0  0  0  0  0
   64.7659   -5.8681  -67.7527 O   0  0  0  0  0  0  0  0  0  0  0  0
  5  1  1  0
  5  3  1  0
  6  2  1  0
  7  3  1  0
  8  2  1  0
  8  4  1  0
  9  4  1  0
 10  1  1  0
 11  9  1  0
 11 10  1  0
 12 10  1  0
M  END
>  <ID>  (1) 
conformer_0

$$$$
