
     RDKit          3D

 14 13  0  0  0  0  0  0  0  0999 V2000
   64.2834   -6.0616  -67.2787 C   0  0  0  0  0  0  0  0  0  0  0  0
   64.5286   -7.5115  -66.8038 C   0  0  0  0  0  0  0  0  0  0  0  0
   67.3386   -4.3108  -67.6422 C   0  0  0  0  0  0  0  0  0  0  0  0
   65.5559   -4.8284  -67.7298 C   0  0  0  0  0  0  0  0  0  0  0  0
   63.0315   -7.5671  -68.0709 O   0  0  0  0  0  0  0  0  0  0  0  0
   70.8064   -2.8173  -64.7655 O   0  0  0  0  0  0  0  0  0  0  0  0
   69.0187   -3.0789  -66.1654 O   0  0  0  0  0  0  0  0  0  0  0  0
   65.6701   -5.8614  -67.1395 O   0  0  0  0  0  0  0  0  0  0  0  0
   68.6982   -3.1139  -67.0421 C   0  0  0  0  0  0  0  0  0  0  0  0
   60.9404   -9.5533  -68.2770 O   0  0  0  0  0  0  0  0  0  0  0  0
   70.2820   -2.6526  -66.0322 C   0  0  0  0  0  0  0  0  0  0  0  0
   62.1461   -9.5547  -69.1223 C   0  0  0  0  0  0  0  0  0  0  0  0
   67.2875   -4.3597  -66.8811 O   0  0  0  0  0  0  0  0  0  0  0  0
   63.0650   -8.2281  -68.5563 C   0  0  0  0  0  0  0  0  0  0  0  0
  2  1  1  0
  4  3  1  0
  5  2  1  0
  8  1  1  0
  8  4  1  0
  9  3  1  0
  9  7  1  0
 11  6  1  0
 11  7  1  0
 12 10  1  0
 13  3  1  0
 14  5  1  0
 14 12  1  0
M  END
>  <ID>  (1) 
conformer_0

$$$$
