
     RDKit          3D

 13 12  0  0  0  0  0  0  0  0999 V2000
   68.7035   -3.1456  -66.7993 C   0  0  0  0  0  0  0  0  0  0  0  0
   64.5978   -6.7278  -67.0393 C   0  0  0  0  0  0  0  0  0  0  0  0
   67.0254   -4.1993  -67.5089 C   0  0  0  0  0  0  0  0  0  0  0  0
   65.3172   -5.0209  -67.4706 C   0  0  0  0  0  0  0  0  0  0  0  0
   71.0833   -3.1227  -65.0121 O   0  0  0  0  0  0  0  0  0  0  0  0
   62.8499   -8.0388  -68.1306 O   0  0  0  0  0  0  0  0  0  0  0  0
   61.0719   -9.3197  -69.2049 O   0  0  0  0  0  0  0  0  0  0  0  0
   67.6893   -3.2863  -66.4803 O   0  0  0  0  0  0  0  0  0  0  0  0
   70.0177   -2.6973  -65.9038 C   0  0  0  0  0  0  0  0  0  0  0  0
   66.4519   -5.0719  -66.9702 O   0  0  0  0  0  0  0  0  0  0  0  0
   63.6035   -8.3874  -68.1339 C   0  0  0  0  0  0  0  0  0  0  0  0
   64.4988   -6.7760  -67.6154 O   0  0  0  0  0  0  0  0  0  0  0  0
   62.3870   -9.2347  -69.0649 C   0  0  0  0  0  0  0  0  0  0  0  0
  4  2  1  0
  8  1  1  0
  8  3  1  0
  9  1  1  0
  9  5  1  0
 10  3  1  0
 10  4  1  0
 11  6  1  0
 12  2  1  0
 12 11  1  0
 13  6  1  0
 13  7  1  0
M  END
>  <ID>  (1) 
conformer_0

$$$$
