
     RDKit          3D

 12 11  0  0  0  0  0  0  0  0999 V2000
   67.3582   -4.0426  -67.2917 C   0  0  0  0  0  0  0  0  0  0  0  0
   63.3058   -8.2860  -68.3047 C   0  0  0  0  0  0  0  0  0  0  0  0
   65.7153   -5.0976  -67.4936 C   0  0  0  0  0  0  0  0  0  0  0  0
   64.3694   -6.6379  -67.4366 C   0  0  0  0  0  0  0  0  0  0  0  0
   63.2487   -7.0973  -67.6605 O   0  0  0  0  0  0  0  0  0  0  0  0
   60.9250   -9.7631  -67.9256 O   0  0  0  0  0  0  0  0  0  0  0  0
   71.5441   -2.6762  -65.9139 O   0  0  0  0  0  0  0  0  0  0  0  0
   67.9748   -3.7530  -66.5141 O   0  0  0  0  0  0  0  0  0  0  0  0
   65.5566   -5.2725  -67.0923 O   0  0  0  0  0  0  0  0  0  0  0  0
   68.9789   -3.0440  -66.4955 C   0  0  0  0  0  0  0  0  0  0  0  0
   62.1894   -9.4411  -68.8157 C   0  0  0  0  0  0  0  0  0  0  0  0
   70.3763   -2.5388  -66.0556 C   0  0  0  0  0  0  0  0  0  0  0  0
  3  1  1  0
  5  2  1  0
  5  4  1  0
  8  1  1  0
  9  3  1  0
  9  4  1  0
 10  8  1  0
 11  2  1  0
 11  6  1  0
 12  7  1  0
 12 10  1  0
M  END
>  <ID>  (1) 
conformer_0

$$$$
