
     RDKit          3D

 13 12  0  0  0  0  0  0  0  0999 V2000
   64.0644   -6.4921  -67.1371 C   0  0  0  0  0  0  0  0  0  0  0  0
   68.7153   -2.9693  -66.7138 C   0  0  0  0  0  0  0  0  0  0  0  0
   65.4474   -5.1584  -67.6428 C   0  0  0  0  0  0  0  0  0  0  0  0
   63.2910   -7.9093  -68.1382 C   0  0  0  0  0  0  0  0  0  0  0  0
   71.0842   -2.8606  -64.5797 O   0  0  0  0  0  0  0  0  0  0  0  0
   62.8042   -6.9068  -68.2096 O   0  0  0  0  0  0  0  0  0  0  0  0
   61.1535   -9.4038  -68.7943 O   0  0  0  0  0  0  0  0  0  0  0  0
   69.3687   -3.6108  -66.4966 O   0  0  0  0  0  0  0  0  0  0  0  0
   67.2239   -4.2621  -67.7235 C   0  0  0  0  0  0  0  0  0  0  0  0
   64.5189   -5.6011  -67.9018 O   0  0  0  0  0  0  0  0  0  0  0  0
   70.3947   -2.5120  -65.9000 C   0  0  0  0  0  0  0  0  0  0  0  0
   62.4914   -9.0480  -69.1967 C   0  0  0  0  0  0  0  0  0  0  0  0
   67.3995   -4.5909  -67.1354 O   0  0  0  0  0  0  0  0  0  0  0  0
  6  1  1  0
  6  4  1  0
  8  2  1  0
  9  2  1  0
  9  3  1  0
 10  1  1  0
 10  3  1  0
 11  5  1  0
 11  8  1  0
 12  4  1  0
 12  7  1  0
 13  9  1  0
M  END
>  <ID>  (1) 
conformer_0

$$$$
