
     RDKit          3D

 11 10  0  0  0  0  0  0  0  0999 V2000
   63.3934   -7.8925  -68.1331 C   0  0  0  0  0  0  0  0  0  0  0  0
   66.1424   -4.6146  -67.3821 C   0  0  0  0  0  0  0  0  0  0  0  0
   70.0265   -2.7978  -66.1121 C   0  0  0  0  0  0  0  0  0  0  0  0
   63.3121   -7.1073  -67.7504 O   0  0  0  0  0  0  0  0  0  0  0  0
   68.1736   -3.2058  -66.3306 O   0  0  0  0  0  0  0  0  0  0  0  0
   68.3636   -3.6770  -67.1736 C   0  0  0  0  0  0  0  0  0  0  0  0
   70.8296   -3.0523  -64.6090 O   0  0  0  0  0  0  0  0  0  0  0  0
   61.1171   -9.6767  -68.8862 O   0  0  0  0  0  0  0  0  0  0  0  0
   64.6462   -5.9255  -67.2698 C   0  0  0  0  0  0  0  0  0  0  0  0
   66.6676   -4.7823  -66.9985 O   0  0  0  0  0  0  0  0  0  0  0  0
   62.3291   -9.1405  -69.0889 C   0  0  0  0  0  0  0  0  0  0  0  0
  4  1  1  0
  5  3  1  0
  6  5  1  0
  7  3  1  0
  9  2  1  0
  9  4  1  0
 10  2  1  0
 10  6  1  0
 11  1  1  0
 11  8  1  0
M  END
>  <ID>  (1) 
conformer_0

$$$$
