
     RDKit          3D

 14 13  0  0  0  0  0  0  0  0999 V2000
   62.5036   -9.3820  -68.5786 C   0  0  0  0  0  0  0  0  0  0  0  0
   70.3451   -2.3641  -65.7945 C   0  0  0  0  0  0  0  0  0  0  0  0
   66.4516   -4.9619  -67.6031 C   0  0  0  0  0  0  0  0  0  0  0  0
   63.0432   -7.9801  -68.8932 C   0  0  0  0  0  0  0  0  0  0  0  0
   69.1860   -3.3944  -66.6337 O   0  0  0  0  0  0  0  0  0  0  0  0
   63.0859   -7.1327  -67.6893 O   0  0  0  0  0  0  0  0  0  0  0  0
   61.2140   -9.6018  -68.7206 O   0  0  0  0  0  0  0  0  0  0  0  0
   70.1441   -1.4180  -65.1402 O   0  0  0  0  0  0  0  0  0  0  0  0
   65.2384   -5.8031  -67.5092 O   0  0  0  0  0  0  0  0  0  0  0  0
   64.1672   -7.6806  -67.2592 C   0  0  0  0  0  0  0  0  0  0  0  0
   64.4926   -5.9247  -67.4109 C   0  0  0  0  0  0  0  0  0  0  0  0
   67.1543   -4.3520  -66.9216 O   0  0  0  0  0  0  0  0  0  0  0  0
   68.0426   -4.1253  -67.6096 C   0  0  0  0  0  0  0  0  0  0  0  0
   69.0309   -2.4953  -66.7934 C   0  0  0  0  0  0  0  0  0  0  0  0
  4  1  1  0
  6  4  1  0
  7  1  1  0
  8  2  1  0
  9  3  1  0
 10  6  1  0
 11  9  1  0
 11 10  1  0
 12  3  1  0
 13  5  1  0
 13 12  1  0
 14  2  1  0
 14  5  1  0
M  END
>  <ID>  (1) 
conformer_0

$$$$
