
     RDKit          3D

 13 12  0  0  0  0  0  0  0  0999 V2000
   63.7487   -6.3139  -66.8237 C   0  0  0  0  0  0  0  0  0  0  0  0
   62.9895   -9.1403  -69.4252 C   0  0  0  0  0  0  0  0  0  0  0  0
   70.1498   -2.6881  -65.8447 C   0  0  0  0  0  0  0  0  0  0  0  0
   68.5989   -3.1871  -66.9116 C   0  0  0  0  0  0  0  0  0  0  0  0
   70.9839   -3.1214  -64.8828 O   0  0  0  0  0  0  0  0  0  0  0  0
   63.1524   -7.7762  -67.9269 O   0  0  0  0  0  0  0  0  0  0  0  0
   68.6661   -3.5027  -66.4934 O   0  0  0  0  0  0  0  0  0  0  0  0
   64.8864   -5.8478  -67.5049 O   0  0  0  0  0  0  0  0  0  0  0  0
   61.3335   -9.3162  -68.6649 O   0  0  0  0  0  0  0  0  0  0  0  0
   67.1044   -4.2632  -67.9538 C   0  0  0  0  0  0  0  0  0  0  0  0
   65.2360   -5.2045  -67.5178 C   0  0  0  0  0  0  0  0  0  0  0  0
   66.7027   -4.6855  -67.0263 O   0  0  0  0  0  0  0  0  0  0  0  0
   63.3358   -7.7636  -68.4671 C   0  0  0  0  0  0  0  0  0  0  0  0
  5  3  1  0
  6  1  1  0
  7  3  1  0
  7  4  1  0
  8  1  1  0
  9  2  1  0
 10  4  1  0
 11  8  1  0
 12 10  1  0
 12 11  1  0
 13  2  1  0
 13  6  1  0
M  END
>  <ID>  (1) 
conformer_0

$$$$
