
     RDKit          3D

 12 11  0  0  0  0  0  0  0  0999 V2000
   64.7001   -5.9850  -67.2316 C   0  0  0  0  0  0  0  0  0  0  0  0
   70.1598   -2.8309  -66.0913 C   0  0  0  0  0  0  0  0  0  0  0  0
   66.0392   -4.4608  -67.7490 C   0  0  0  0  0  0  0  0  0  0  0  0
   63.8241   -7.7036  -67.3233 C   0  0  0  0  0  0  0  0  0  0  0  0
   63.0483   -7.0293  -67.9371 O   0  0  0  0  0  0  0  0  0  0  0  0
   71.0941   -2.8955  -64.8909 O   0  0  0  0  0  0  0  0  0  0  0  0
   68.5910   -3.0403  -66.0398 O   0  0  0  0  0  0  0  0  0  0  0  0
   61.2317   -9.4169  -69.0278 O   0  0  0  0  0  0  0  0  0  0  0  0
   68.1661   -3.3261  -67.1200 C   0  0  0  0  0  0  0  0  0  0  0  0
   66.9529   -4.0454  -66.8124 O   0  0  0  0  0  0  0  0  0  0  0  0
   62.6288   -8.9548  -68.8984 C   0  0  0  0  0  0  0  0  0  0  0  0
   65.1898   -5.7467  -67.3323 O   0  0  0  0  0  0  0  0  0  0  0  0
  4  1  1  0
  5  4  1  0
  6  2  1  0
  7  2  1  0
  9  7  1  0
 10  3  1  0
 10  9  1  0
 11  4  1  0
 11  8  1  0
 12  1  1  0
 12  3  1  0
M  END
>  <ID>  (1) 
conformer_0

$$$$
