
     RDKit          3D

 14 14  0  0  0  0  0  0  0  0999 V2000
   69.2069   -3.0104  -66.7802 C   0  0  0  0  0  0  0  0  0  0  0  0
   64.4528   -5.9010  -67.5244 C   0  0  0  0  0  0  0  0  0  0  0  0
   63.2039   -8.4007  -68.2641 C   0  0  0  0  0  0  0  0  0  0  0  0
   66.0453   -4.8282  -67.7942 C   0  0  0  0  0  0  0  0  0  0  0  0
   68.5334   -3.3385  -66.5390 O   0  0  0  0  0  0  0  0  0  0  0  0
   70.9162   -2.9522  -64.9609 O   0  0  0  0  0  0  0  0  0  0  0  0
   62.1530   -9.9956  -68.1688 O   0  0  0  0  0  0  0  0  0  0  0  0
   63.0224   -7.3700  -68.3198 O   0  0  0  0  0  0  0  0  0  0  0  0
   67.6847   -4.2145  -67.4841 C   0  0  0  0  0  0  0  0  0  0  0  0
   66.5028   -3.9144  -67.0078 O   0  0  0  0  0  0  0  0  0  0  0  0
   70.1630   -2.3521  -65.9092 C   0  0  0  0  0  0  0  0  0  0  0  0
   62.5597   -8.8274  -69.5745 C   0  0  0  0  0  0  0  0  0  0  0  0
   64.8548   -5.7269  -67.4770 O   0  0  0  0  0  0  0  0  0  0  0  0
   64.1781   -7.5020  -66.7811 C   0  0  0  0  0  0  0  0  0  0  0  0
  5  1  1  0
  8  3  1  0
  9  4  1  0
  9  5  1  0
 10  4  1  0
 10  9  1  0
 11  1  1  0
 11  6  1  0
 12  3  1  0
 12  7  1  0
 13  2  1  0
 13  4  1  0
 14  2  1  0
 14  3  1  0
M  END
>  <ID>  (1) 
conformer_0

$$$$
