
     RDKit          3D

 14 13  0  0  0  0  0  0  0  0999 V2000
   63.9019   -7.3754  -66.9819 C   0  0  0  0  0  0  0  0  0  0  0  0
   69.1754   -3.1253  -66.8182 C   0  0  0  0  0  0  0  0  0  0  0  0
   66.1660   -4.7383  -67.8034 C   0  0  0  0  0  0  0  0  0  0  0  0
   64.6086   -5.7735  -67.1188 C   0  0  0  0  0  0  0  0  0  0  0  0
   62.9490   -7.7257  -68.0114 O   0  0  0  0  0  0  0  0  0  0  0  0
   71.0824   -2.9458  -65.0678 O   0  0  0  0  0  0  0  0  0  0  0  0
   68.8504   -3.2614  -66.6957 O   0  0  0  0  0  0  0  0  0  0  0  0
   61.0687   -9.5873  -68.6203 O   0  0  0  0  0  0  0  0  0  0  0  0
   67.4964   -3.8413  -67.9212 C   0  0  0  0  0  0  0  0  0  0  0  0
   64.5883   -5.9276  -67.7492 O   0  0  0  0  0  0  0  0  0  0  0  0
   62.5783   -9.7445  -68.4843 C   0  0  0  0  0  0  0  0  0  0  0  0
   66.9524   -4.0865  -66.9947 O   0  0  0  0  0  0  0  0  0  0  0  0
   70.4435   -2.7102  -65.8297 C   0  0  0  0  0  0  0  0  0  0  0  0
   63.1250   -8.4593  -68.8633 C   0  0  0  0  0  0  0  0  0  0  0  0
  4  1  1  0
  4  3  1  0
  5  1  1  0
  7  2  2  0
  9  2  1  0
 10  4  1  0
 11  8  1  0
 12  3  1  0
 12  9  1  0
 13  2  1  0
 13  6  1  0
 14  5  1  0
 14 11  1  0
M  END
>  <ID>  (1) 
conformer_0

$$$$
