
     RDKit          3D

 13 12  0  0  0  0  0  0  0  0999 V2000
   62.4418   -8.9898  -69.3599 C   0  0  0  0  0  0  0  0  0  0  0  0
   70.0543   -2.6345  -65.9689 C   0  0  0  0  0  0  0  0  0  0  0  0
   65.8154   -5.6449  -67.7296 C   0  0  0  0  0  0  0  0  0  0  0  0
   63.3526   -8.2634  -68.1687 C   0  0  0  0  0  0  0  0  0  0  0  0
   61.2614   -8.7831  -69.8590 O   0  0  0  0  0  0  0  0  0  0  0  0
   70.8137   -2.4898  -64.7343 O   0  0  0  0  0  0  0  0  0  0  0  0
   67.1011   -4.4123  -66.8883 O   0  0  0  0  0  0  0  0  0  0  0  0
   65.0930   -5.8230  -67.3055 O   0  0  0  0  0  0  0  0  0  0  0  0
   63.4270   -7.4158  -68.2240 O   0  0  0  0  0  0  0  0  0  0  0  0
   68.5296   -3.0364  -66.6780 C   0  0  0  0  0  0  0  0  0  0  0  0
   67.2046   -4.3244  -67.7087 C   0  0  0  0  0  0  0  0  0  0  0  0
   64.2109   -6.9614  -66.8360 C   0  0  0  0  0  0  0  0  0  0  0  0
   69.0405   -3.6071  -66.4139 O   0  0  0  0  0  0  0  0  0  0  0  0
  4  1  1  0
  5  1  1  0
  6  2  1  0
  8  3  1  0
  9  4  1  0
 11  3  1  0
 11  7  1  0
 11 10  1  0
 12  8  1  0
 12  9  1  0
 13  2  1  0
 13 10  1  0
M  END
>  <ID>  (1) 
conformer_0

$$$$
