
     RDKit          3D

 11 10  0  0  0  0  0  0  0  0999 V2000
   63.9105   -8.0198  -67.1074 C   0  0  0  0  0  0  0  0  0  0  0  0
   69.7350   -2.2242  -66.2208 C   0  0  0  0  0  0  0  0  0  0  0  0
   64.6548   -6.3697  -67.2257 C   0  0  0  0  0  0  0  0  0  0  0  0
   62.6493   -8.8480  -68.9528 C   0  0  0  0  0  0  0  0  0  0  0  0
   62.6621   -8.3287  -68.0467 O   0  0  0  0  0  0  0  0  0  0  0  0
   70.7284   -2.6194  -65.1712 O   0  0  0  0  0  0  0  0  0  0  0  0
   68.4962   -3.2638  -66.5600 O   0  0  0  0  0  0  0  0  0  0  0  0
   64.9132   -6.4733  -67.6413 O   0  0  0  0  0  0  0  0  0  0  0  0
   68.0896   -3.3995  -67.3092 C   0  0  0  0  0  0  0  0  0  0  0  0
   66.5282   -4.9701  -67.8726 C   0  0  0  0  0  0  0  0  0  0  0  0
   66.6033   -4.8049  -67.0453 O   0  0  0  0  0  0  0  0  0  0  0  0
  3  1  1  0
  5  1  1  0
  5  4  1  0
  6  2  1  0
  7  2  1  0
  8  3  1  0
  9  7  1  0
 10  3  1  0
 11  9  1  0
 11 10  1  0
M  END
>  <ID>  (1) 
conformer_0

$$$$
