
     RDKit          3D

 13 12  0  0  0  0  0  0  0  0999 V2000
   62.5550   -9.4595  -68.6590 C   0  0  0  0  0  0  0  0  0  0  0  0
   69.9885   -2.3950  -65.9525 C   0  0  0  0  0  0  0  0  0  0  0  0
   63.1262   -7.9375  -68.4456 C   0  0  0  0  0  0  0  0  0  0  0  0
   68.6172   -3.1658  -67.2311 C   0  0  0  0  0  0  0  0  0  0  0  0
   63.1012   -7.2939  -67.5308 O   0  0  0  0  0  0  0  0  0  0  0  0
   61.1691   -9.4995  -68.7691 O   0  0  0  0  0  0  0  0  0  0  0  0
   68.9220   -3.2678  -66.5164 O   0  0  0  0  0  0  0  0  0  0  0  0
   66.9110   -4.2479  -67.1205 O   0  0  0  0  0  0  0  0  0  0  0  0
   70.4625   -2.1891  -64.8198 O   0  0  0  0  0  0  0  0  0  0  0  0
   64.8357   -5.5422  -67.6865 C   0  0  0  0  0  0  0  0  0  0  0  0
   66.7846   -4.2728  -67.6112 C   0  0  0  0  0  0  0  0  0  0  0  0
   64.5374   -7.2554  -66.8767 C   0  0  0  0  0  0  0  0  0  0  0  0
   65.0714   -5.8651  -67.1289 O   0  0  0  0  0  0  0  0  0  0  0  0
  3  1  1  0
  5  3  1  0
  6  1  1  0
  7  2  1  0
  7  4  1  0
  8  4  1  0
  9  2  1  0
 11  8  1  0
 11 10  1  0
 12  5  1  0
 13 10  1  0
 13 12  1  0
M  END
>  <ID>  (1) 
conformer_0

$$$$
