
     RDKit          3D

 13 12  0  0  0  0  0  0  0  0999 V2000
   70.1748   -2.5756  -65.7008 C   0  0  0  0  0  0  0  0  0  0  0  0
   62.5760   -9.2790  -69.0326 C   0  0  0  0  0  0  0  0  0  0  0  0
   64.3357   -6.4367  -67.1642 C   0  0  0  0  0  0  0  0  0  0  0  0
   67.3459   -4.1951  -67.5227 C   0  0  0  0  0  0  0  0  0  0  0  0
   61.1553   -9.3381  -68.5508 O   0  0  0  0  0  0  0  0  0  0  0  0
   63.0053   -7.9764  -67.9503 O   0  0  0  0  0  0  0  0  0  0  0  0
   70.2876   -1.8729  -64.9247 O   0  0  0  0  0  0  0  0  0  0  0  0
   68.2494   -3.6264  -66.5557 O   0  0  0  0  0  0  0  0  0  0  0  0
   66.5909   -5.0089  -67.0753 O   0  0  0  0  0  0  0  0  0  0  0  0
   68.9120   -3.0738  -66.7228 C   0  0  0  0  0  0  0  0  0  0  0  0
   65.5404   -5.0638  -67.5483 C   0  0  0  0  0  0  0  0  0  0  0  0
   64.6814   -6.4304  -67.7001 O   0  0  0  0  0  0  0  0  0  0  0  0
   63.7265   -8.2788  -68.0603 C   0  0  0  0  0  0  0  0  0  0  0  0
  5  2  1  0
  7  1  1  0
  8  4  1  0
  9  4  1  0
 10  1  1  0
 10  8  1  0
 11  9  1  0
 12  3  1  0
 12 11  1  0
 13  2  1  0
 13  3  1  0
 13  6  1  0
M  END
>  <ID>  (1) 
conformer_0

$$$$
