
     RDKit          3D

  9  8  0  0  0  0  0  0  0  0999 V2000
   62.8076   -9.0603  -68.9191 C   0  0  0  0  0  0  0  0  0  0  0  0
   69.7280   -2.4321  -65.9165 C   0  0  0  0  0  0  0  0  0  0  0  0
   68.3106   -3.6883  -67.0932 C   0  0  0  0  0  0  0  0  0  0  0  0
   63.6646   -7.7859  -67.6166 C   0  0  0  0  0  0  0  0  0  0  0  0
   61.3218   -9.4263  -69.4066 O   0  0  0  0  0  0  0  0  0  0  0  0
   63.5638   -6.9297  -68.2663 O   0  0  0  0  0  0  0  0  0  0  0  0
   67.9106   -3.4714  -66.4640 O   0  0  0  0  0  0  0  0  0  0  0  0
   66.3824   -4.6614  -67.6344 C   0  0  0  0  0  0  0  0  0  0  0  0
   64.7206   -5.9219  -67.2871 C   0  0  0  0  0  0  0  0  0  0  0  0
  3  2  1  0
  4  1  1  0
  5  1  1  0
  6  4  1  0
  7  3  1  0
  8  3  1  0
  9  6  1  0
  9  8  1  0
M  END
>  <ID>  (1) 
conformer_0

$$$$
