
     RDKit          3D

 13 12  0  0  0  0  0  0  0  0999 V2000
   68.9636   -3.0782  -66.7574 C   0  0  0  0  0  0  0  0  0  0  0  0
   65.8590   -5.3540  -67.6386 C   0  0  0  0  0  0  0  0  0  0  0  0
   64.1931   -6.2584  -67.3246 C   0  0  0  0  0  0  0  0  0  0  0  0
   67.6495   -4.2687  -67.5195 C   0  0  0  0  0  0  0  0  0  0  0  0
   61.1507   -9.4645  -68.2530 O   0  0  0  0  0  0  0  0  0  0  0  0
   71.0272   -3.3671  -64.9443 O   0  0  0  0  0  0  0  0  0  0  0  0
   67.9544   -3.5763  -66.5409 O   0  0  0  0  0  0  0  0  0  0  0  0
   63.0540   -8.0348  -68.3688 O   0  0  0  0  0  0  0  0  0  0  0  0
   66.2739   -4.7530  -67.1265 O   0  0  0  0  0  0  0  0  0  0  0  0
   70.1458   -2.7538  -65.7234 C   0  0  0  0  0  0  0  0  0  0  0  0
   63.5753   -7.9647  -67.9534 C   0  0  0  0  0  0  0  0  0  0  0  0
   64.6781   -6.4516  -67.3000 O   0  0  0  0  0  0  0  0  0  0  0  0
   62.4064   -9.4817  -69.1016 C   0  0  0  0  0  0  0  0  0  0  0  0
  7  1  1  0
  7  4  1  0
  9  2  1  0
  9  4  1  0
 10  1  1  0
 10  6  1  0
 11  3  1  0
 11  8  1  0
 12  2  1  0
 12  3  1  0
 13  5  1  0
 13  8  1  0
M  END
>  <ID>  (1) 
conformer_0

$$$$
