
     RDKit          3D

 14 13  0  0  0  0  0  0  0  0999 V2000
   63.3801   -8.3479  -68.9702 C   0  0  0  0  0  0  0  0  0  0  0  0
   70.2652   -2.6309  -65.8672 C   0  0  0  0  0  0  0  0  0  0  0  0
   66.0270   -4.7514  -67.6250 C   0  0  0  0  0  0  0  0  0  0  0  0
   68.9582   -2.9352  -66.6484 C   0  0  0  0  0  0  0  0  0  0  0  0
   61.0810   -9.5868  -68.1457 O   0  0  0  0  0  0  0  0  0  0  0  0
   63.0385   -7.7268  -68.0902 O   0  0  0  0  0  0  0  0  0  0  0  0
   70.8966   -2.6371  -65.0706 O   0  0  0  0  0  0  0  0  0  0  0  0
   68.5261   -3.4160  -66.4014 O   0  0  0  0  0  0  0  0  0  0  0  0
   67.5434   -3.7804  -67.4690 C   0  0  0  0  0  0  0  0  0  0  0  0
   64.6130   -6.1590  -67.7793 O   0  0  0  0  0  0  0  0  0  0  0  0
   62.1553   -9.3156  -68.9930 C   0  0  0  0  0  0  0  0  0  0  0  0
   66.9472   -4.7073  -67.1552 O   0  0  0  0  0  0  0  0  0  0  0  0
   63.8984   -7.5089  -66.9920 C   0  0  0  0  0  0  0  0  0  0  0  0
   64.6683   -6.0311  -67.2366 C   0  0  0  0  0  0  0  0  0  0  0  0
  4  2  1  0
  6  1  1  0
  7  2  1  0
  8  4  1  0
  9  8  1  0
 11  1  1  0
 11  5  1  0
 12  3  1  0
 12  9  1  0
 13  6  1  0
 14  3  1  0
 14 10  1  0
 14 13  1  0
M  END
>  <ID>  (1) 
conformer_0

$$$$
