
     RDKit          3D

 14 13  0  0  0  0  0  0  0  0999 V2000
   63.0888   -8.1164  -68.1818 C   0  0  0  0  0  0  0  0  0  0  0  0
   70.7090   -2.7120  -65.6820 C   0  0  0  0  0  0  0  0  0  0  0  0
   67.9455   -3.8295  -67.5271 C   0  0  0  0  0  0  0  0  0  0  0  0
   62.5195   -9.4190  -69.2313 C   0  0  0  0  0  0  0  0  0  0  0  0
   71.2245   -3.1965  -64.6789 O   0  0  0  0  0  0  0  0  0  0  0  0
   64.7547   -5.4893  -67.2885 O   0  0  0  0  0  0  0  0  0  0  0  0
   69.2350   -3.6837  -66.5470 O   0  0  0  0  0  0  0  0  0  0  0  0
   63.9559   -7.0713  -66.8340 C   0  0  0  0  0  0  0  0  0  0  0  0
   62.8231   -7.3728  -68.3754 O   0  0  0  0  0  0  0  0  0  0  0  0
   61.2431   -9.4917  -68.0683 O   0  0  0  0  0  0  0  0  0  0  0  0
   69.3143   -2.8878  -66.6241 C   0  0  0  0  0  0  0  0  0  0  0  0
   66.9416   -4.5952  -66.9770 O   0  0  0  0  0  0  0  0  0  0  0  0
   66.1244   -4.6903  -67.6696 C   0  0  0  0  0  0  0  0  0  0  0  0
   64.0836   -5.7974  -67.9136 C   0  0  0  0  0  0  0  0  0  0  0  0
  4  1  1  0
  5  2  1  0
  7  3  1  0
  8  1  1  0
  9  1  2  0
 10  4  1  0
 11  2  1  0
 11  7  1  0
 12  3  1  0
 13  6  1  0
 13 12  1  0
 14  6  1  0
 14  8  1  0
M  END
>  <ID>  (1) 
conformer_0

$$$$
