
     RDKit          3D

 14 13  0  0  0  0  0  0  0  0999 V2000
   62.6838   -9.7724  -68.5845 C   0  0  0  0  0  0  0  0  0  0  0  0
   69.5575   -2.8712  -66.4958 C   0  0  0  0  0  0  0  0  0  0  0  0
   64.7930   -5.4225  -67.2861 C   0  0  0  0  0  0  0  0  0  0  0  0
   64.1548   -7.1142  -67.1240 C   0  0  0  0  0  0  0  0  0  0  0  0
   62.8273   -7.3900  -68.5913 O   0  0  0  0  0  0  0  0  0  0  0  0
   61.2920   -9.5739  -69.0106 O   0  0  0  0  0  0  0  0  0  0  0  0
   71.3357   -3.0496  -64.6805 O   0  0  0  0  0  0  0  0  0  0  0  0
   66.7862   -4.1840  -66.8412 O   0  0  0  0  0  0  0  0  0  0  0  0
   67.7830   -3.7817  -67.5305 C   0  0  0  0  0  0  0  0  0  0  0  0
   66.1372   -4.5552  -67.8133 C   0  0  0  0  0  0  0  0  0  0  0  0
   68.9238   -3.5415  -66.5732 O   0  0  0  0  0  0  0  0  0  0  0  0
   64.0090   -5.8250  -68.1776 O   0  0  0  0  0  0  0  0  0  0  0  0
   63.3616   -8.7236  -67.9627 C   0  0  0  0  0  0  0  0  0  0  0  0
   70.6624   -2.8119  -65.6103 C   0  0  0  0  0  0  0  0  0  0  0  0
  6  1  1  0
  9  8  1  0
 10  3  1  0
 10  8  1  0
 11  2  1  0
 11  9  1  0
 12  3  1  0
 12  4  1  0
 13  1  1  0
 13  4  1  0
 13  5  1  0
 14  2  1  0
 14  7  1  0
M  END
>  <ID>  (1) 
conformer_0

$$$$
