
     RDKit          3D

 12 11  0  0  0  0  0  0  0  0999 V2000
   62.7386   -8.7134  -69.0401 C   0  0  0  0  0  0  0  0  0  0  0  0
   63.8416   -7.6112  -67.7885 C   0  0  0  0  0  0  0  0  0  0  0  0
   70.0651   -2.4000  -66.2303 C   0  0  0  0  0  0  0  0  0  0  0  0
   68.2145   -3.2735  -66.8676 C   0  0  0  0  0  0  0  0  0  0  0  0
   63.1752   -7.4652  -67.9513 O   0  0  0  0  0  0  0  0  0  0  0  0
   61.2312   -9.3260  -68.3698 O   0  0  0  0  0  0  0  0  0  0  0  0
   70.8562   -2.9138  -64.9443 O   0  0  0  0  0  0  0  0  0  0  0  0
   69.0555   -3.1239  -66.1587 O   0  0  0  0  0  0  0  0  0  0  0  0
   66.9696   -4.2657  -66.7373 O   0  0  0  0  0  0  0  0  0  0  0  0
   66.4167   -4.5990  -67.4975 C   0  0  0  0  0  0  0  0  0  0  0  0
   64.7961   -5.8599  -67.4275 C   0  0  0  0  0  0  0  0  0  0  0  0
   65.2505   -5.9836  -67.3826 O   0  0  0  0  0  0  0  0  0  0  0  0
  5  1  1  0
  5  2  1  0
  6  1  1  0
  7  3  1  0
  8  3  1  0
  8  4  1  0
  9  4  1  0
 10  9  1  0
 11  2  1  0
 12 10  1  0
 12 11  1  0
M  END
>  <ID>  (1) 
conformer_0

$$$$
