
     RDKit          3D

 14 14  0  0  0  0  0  0  0  0999 V2000
   64.2366   -7.3076  -67.2190 C   0  0  0  0  0  0  0  0  0  0  0  0
   70.2004   -2.3323  -65.6845 C   0  0  0  0  0  0  0  0  0  0  0  0
   67.7706   -4.0604  -67.6463 C   0  0  0  0  0  0  0  0  0  0  0  0
   69.2133   -2.9006  -66.6940 C   0  0  0  0  0  0  0  0  0  0  0  0
   61.3283   -9.5294  -67.9925 O   0  0  0  0  0  0  0  0  0  0  0  0
   70.8788   -2.7072  -64.7574 O   0  0  0  0  0  0  0  0  0  0  0  0
   68.7070   -3.1690  -66.4502 O   0  0  0  0  0  0  0  0  0  0  0  0
   63.0506   -7.1663  -68.0107 O   0  0  0  0  0  0  0  0  0  0  0  0
   63.4164   -8.7656  -68.0402 C   0  0  0  0  0  0  0  0  0  0  0  0
   65.1684   -6.2261  -67.3336 O   0  0  0  0  0  0  0  0  0  0  0  0
   62.5146   -8.7201  -69.1208 C   0  0  0  0  0  0  0  0  0  0  0  0
   67.0712   -4.4110  -67.0853 O   0  0  0  0  0  0  0  0  0  0  0  0
   64.5936   -5.5150  -67.5384 C   0  0  0  0  0  0  0  0  0  0  0  0
   66.0401   -4.4018  -67.6728 C   0  0  0  0  0  0  0  0  0  0  0  0
  4  2  1  0
  6  2  1  0
  7  3  1  0
  7  4  1  0
  8  1  1  0
  9  1  1  0
  9  8  1  0
 10  1  1  0
 11  5  1  0
 11  9  1  0
 12  3  1  0
 13 10  1  0
 14 12  1  0
 14 13  1  0
M  END
>  <ID>  (1) 
conformer_0

$$$$
