
     RDKit          3D

 13 12  0  0  0  0  0  0  0  0999 V2000
   64.0951   -7.2827  -66.6932 C   0  0  0  0  0  0  0  0  0  0  0  0
   68.3164   -2.2945  -66.2282 C   0  0  0  0  0  0  0  0  0  0  0  0
   63.1961   -8.4579  -68.3501 C   0  0  0  0  0  0  0  0  0  0  0  0
   67.5678   -3.5363  -67.5220 C   0  0  0  0  0  0  0  0  0  0  0  0
   68.6744   -3.3162  -66.5772 O   0  0  0  0  0  0  0  0  0  0  0  0
   63.3437   -8.0511  -68.1823 O   0  0  0  0  0  0  0  0  0  0  0  0
   66.8197   -4.5783  -66.8267 O   0  0  0  0  0  0  0  0  0  0  0  0
   70.3760   -1.8675  -64.9119 O   0  0  0  0  0  0  0  0  0  0  0  0
   66.2443   -4.6045  -67.5956 C   0  0  0  0  0  0  0  0  0  0  0  0
   64.9199   -6.1517  -67.3411 C   0  0  0  0  0  0  0  0  0  0  0  0
   64.9570   -5.9933  -67.2525 O   0  0  0  0  0  0  0  0  0  0  0  0
   62.4918   -9.9981  -68.7823 C   0  0  0  0  0  0  0  0  0  0  0  0
   69.9664   -2.2700  -65.8421 C   0  0  0  0  0  0  0  0  0  0  0  0
  5  2  1  0
  5  4  1  0
  6  1  1  0
  6  3  1  0
  7  4  1  0
  9  7  1  0
 10  1  1  0
 10  9  1  0
 11 10  1  0
 12  3  1  0
 13  2  1  0
 13  8  1  0
M  END
>  <ID>  (1) 
conformer_0

$$$$
