
     RDKit          3D

 13 12  0  0  0  0  0  0  0  0999 V2000
   63.9859   -6.5837  -67.4529 C   0  0  1  0  0  0  0  0  0  0  0  0
   68.5969   -3.2363  -67.0494 C   0  0  0  0  0  0  0  0  0  0  0  0
   65.1269   -5.1635  -67.5705 C   0  0  0  0  0  0  0  0  0  0  0  0
   67.0145   -4.4903  -67.8757 C   0  0  0  0  0  0  0  0  0  0  0  0
   70.7524   -3.0311  -64.9119 O   0  0  0  0  0  0  0  0  0  0  0  0
   63.4209   -6.1922  -68.1657 O   0  0  0  0  0  0  0  0  0  0  0  0
   61.1681   -9.1836  -68.2454 O   0  0  0  0  0  0  0  0  0  0  0  0
   66.1606   -5.5648  -67.2480 O   0  0  0  0  0  0  0  0  0  0  0  0
   62.5500   -8.6251  -68.9686 C   0  0  0  0  0  0  0  0  0  0  0  0
   68.4086   -4.0172  -66.9350 O   0  0  0  0  0  0  0  0  0  0  0  0
   69.9840   -2.4382  -65.9222 C   0  0  0  0  0  0  0  0  0  0  0  0
   64.0894   -8.3834  -67.4446 C   0  0  0  0  0  0  0  0  0  0  0  0
   62.8382   -8.0442  -68.3292 O   0  0  0  0  0  0  0  0  0  0  0  0
  3  1  1  0
  1  6  1  6
  8  3  1  0
  8  4  1  0
  9  7  1  0
 10  2  1  0
 10  4  1  0
 11  2  2  3
 11  5  1  0
 12  1  1  0
 13  9  1  0
 13 12  1  0
M  END
>  <ID>  (1) 
conformer_0

$$$$
