
     RDKit          3D

 12 11  0  0  0  0  0  0  0  0999 V2000
   70.2219   -2.5509  -66.0524 C   0  0  0  0  0  0  0  0  0  0  0  0
   62.2807   -9.1103  -68.7329 C   0  0  0  0  0  0  0  0  0  0  0  0
   68.3854   -3.4941  -67.1866 C   0  0  0  0  0  0  0  0  0  0  0  0
   63.4833   -7.5786  -68.1836 C   0  0  0  0  0  0  0  0  0  0  0  0
   60.8174   -9.9775  -67.7838 O   0  0  0  0  0  0  0  0  0  0  0  0
   62.9698   -7.5043  -68.0201 O   0  0  0  0  0  0  0  0  0  0  0  0
   68.8766   -3.4355  -66.5287 O   0  0  0  0  0  0  0  0  0  0  0  0
   70.7717   -2.4545  -64.7019 O   0  0  0  0  0  0  0  0  0  0  0  0
   65.1185   -6.2150  -67.7696 O   0  0  0  0  0  0  0  0  0  0  0  0
   66.5610   -4.6684  -67.8725 C   0  0  0  0  0  0  0  0  0  0  0  0
   64.6899   -5.8417  -67.6166 C   0  0  0  0  0  0  0  0  0  0  0  0
   66.9552   -4.5689  -67.0184 O   0  0  0  0  0  0  0  0  0  0  0  0
  5  2  1  0
  6  2  1  0
  6  4  1  0
  7  1  1  0
  7  3  1  0
  8  1  1  0
 10  9  1  0
 11  4  1  0
 11  9  1  0
 12  3  1  0
 12 10  1  0
M  END
>  <ID>  (1) 
conformer_0

$$$$
