
     RDKit          3D

 13 12  0  0  0  0  0  0  0  0999 V2000
   69.3036   -3.0882  -66.6657 C   0  0  0  0  0  0  0  0  0  0  0  0
   63.0932   -8.1426  -68.3136 C   0  0  0  0  0  0  0  0  0  0  0  0
   63.8937   -6.2144  -67.5196 C   0  0  0  0  0  0  0  0  0  0  0  0
   65.6714   -5.3075  -67.4760 C   0  0  0  0  0  0  0  0  0  0  0  0
   62.7880   -7.7397  -67.8633 O   0  0  0  0  0  0  0  0  0  0  0  0
   71.3578   -3.1605  -64.7401 O   0  0  0  0  0  0  0  0  0  0  0  0
   68.7159   -3.4449  -66.6447 O   0  0  0  0  0  0  0  0  0  0  0  0
   67.5356   -4.3653  -67.4304 C   0  0  0  0  0  0  0  0  0  0  0  0
   60.9376   -9.5984  -68.6223 O   0  0  0  0  0  0  0  0  0  0  0  0
   64.0591   -6.0148  -67.3828 O   0  0  0  0  0  0  0  0  0  0  0  0
   62.3823   -9.7770  -68.8887 C   0  0  0  0  0  0  0  0  0  0  0  0
   66.5059   -4.2715  -67.1845 O   0  0  0  0  0  0  0  0  0  0  0  0
   70.5585   -2.6752  -65.8079 C   0  0  0  0  0  0  0  0  0  0  0  0
  5  2  1  0
  5  3  1  0
  7  1  1  0
  8  7  1  0
 10  3  1  0
 10  4  1  0
 11  2  1  0
 11  9  1  0
 12  4  1  0
 12  8  1  0
 13  1  1  0
 13  6  1  0
M  END
>  <ID>  (1) 
conformer_0

$$$$
