
     RDKit          3D

 13 12  0  0  0  0  0  0  0  0999 V2000
   63.3538   -8.1156  -68.0478 C   0  0  0  0  0  0  0  0  0  0  0  0
   62.1430   -9.1202  -68.9755 C   0  0  0  0  0  0  0  0  0  0  0  0
   70.4514   -2.7624  -66.0480 C   0  0  0  0  0  0  0  0  0  0  0  0
   68.9660   -3.3320  -67.1376 C   0  0  0  0  0  0  0  0  0  0  0  0
   62.9318   -7.5308  -67.8026 O   0  0  0  0  0  0  0  0  0  0  0  0
   71.0122   -3.0168  -64.8875 O   0  0  0  0  0  0  0  0  0  0  0  0
   68.7921   -3.4569  -66.4757 O   0  0  0  0  0  0  0  0  0  0  0  0
   64.2081   -6.6804  -66.8336 C   0  0  0  0  0  0  0  0  0  0  0  0
   60.9397   -9.3243  -68.6867 O   0  0  0  0  0  0  0  0  0  0  0  0
   66.8686   -4.5519  -67.1592 O   0  0  0  0  0  0  0  0  0  0  0  0
   67.1763   -4.1724  -67.7471 C   0  0  0  0  0  0  0  0  0  0  0  0
   65.1714   -5.2388  -67.3733 C   0  0  0  0  0  0  0  0  0  0  0  0
   64.7464   -5.9204  -67.5486 O   0  0  0  0  0  0  0  0  0  0  0  0
  2  1  1  0
  4  3  1  0
  5  1  1  0
  6  3  1  0
  7  4  1  0
  8  5  1  0
  9  2  1  0
 11  4  1  0
 11 10  1  0
 12 10  1  0
 13  8  1  0
 13 12  1  0
M  END
>  <ID>  (1) 
conformer_0

$$$$
