
     RDKit          3D

 12 11  0  0  0  0  0  0  0  0999 V2000
   63.0339   -8.7825  -68.1664 C   0  0  0  0  0  0  0  0  0  0  0  0
   67.3849   -4.6649  -67.7988 C   0  0  0  0  0  0  0  0  0  0  0  0
   65.6831   -5.1109  -67.5579 C   0  0  0  0  0  0  0  0  0  0  0  0
   64.1368   -6.5221  -67.4077 C   0  0  0  0  0  0  0  0  0  0  0  0
   61.3185   -9.5287  -68.6139 O   0  0  0  0  0  0  0  0  0  0  0  0
   63.8119   -7.0642  -67.9878 O   0  0  0  0  0  0  0  0  0  0  0  0
   70.7098   -2.3643  -64.6361 O   0  0  0  0  0  0  0  0  0  0  0  0
   66.9698   -4.0319  -67.0703 O   0  0  0  0  0  0  0  0  0  0  0  0
   62.8152   -8.2827  -69.3444 C   0  0  0  0  0  0  0  0  0  0  0  0
   69.5939   -2.4813  -65.6361 C   0  0  0  0  0  0  0  0  0  0  0  0
   68.7044   -3.7328  -66.1801 O   0  0  0  0  0  0  0  0  0  0  0  0
   68.8374   -3.3860  -66.5912 C   0  0  0  0  0  0  0  0  0  0  0  0
  3  2  1  0
  4  3  1  0
  5  1  1  0
  6  1  1  0
  6  4  1  0
  8  2  1  0
  9  1  1  0
 10  7  1  0
 12  2  1  0
 12 10  1  0
 12 11  2  0
M  END
>  <ID>  (1) 
conformer_0

$$$$
