
     RDKit          3D

 13 12  0  0  0  0  0  0  0  0999 V2000
   63.3591   -8.3251  -68.2913 C   0  0  0  0  0  0  0  0  0  0  0  0
   68.4604   -2.8604  -66.5845 C   0  0  0  0  0  0  0  0  0  0  0  0
   67.0088   -4.0660  -67.4601 C   0  0  0  0  0  0  0  0  0  0  0  0
   64.1609   -6.6702  -67.1262 C   0  0  0  0  0  0  0  0  0  0  0  0
   71.0499   -3.0302  -64.8160 O   0  0  0  0  0  0  0  0  0  0  0  0
   63.0143   -7.8426  -68.3203 O   0  0  0  0  0  0  0  0  0  0  0  0
   66.8807   -4.6393  -66.8971 O   0  0  0  0  0  0  0  0  0  0  0  0
   65.0601   -6.2724  -67.4283 O   0  0  0  0  0  0  0  0  0  0  0  0
   61.1861   -9.7554  -68.1742 O   0  0  0  0  0  0  0  0  0  0  0  0
   65.3991   -5.2122  -67.6997 C   0  0  0  0  0  0  0  0  0  0  0  0
   68.7134   -3.1346  -66.4911 O   0  0  0  0  0  0  0  0  0  0  0  0
   62.3980   -9.4987  -69.1844 C   0  0  0  0  0  0  0  0  0  0  0  0
   70.0440   -2.5119  -65.7011 C   0  0  0  0  0  0  0  0  0  0  0  0
  3  2  1  0
  4  1  1  0
  6  1  1  0
  7  3  1  0
  8  4  1  0
 10  7  1  0
 10  8  1  0
 11  2  1  0
 12  1  1  0
 12  9  1  0
 13  5  1  0
 13 11  1  0
M  END
>  <ID>  (1) 
conformer_0

$$$$
