
     RDKit          3D

 13 12  0  0  0  0  0  0  0  0999 V2000
   62.7469   -9.3452  -69.0358 C   0  0  0  0  0  0  0  0  0  0  0  0
   70.1784   -2.4195  -65.8839 C   0  0  0  0  0  0  0  0  0  0  0  0
   64.1821   -6.4963  -67.1120 C   0  0  0  0  0  0  0  0  0  0  0  0
   68.8695   -3.0101  -66.8785 C   0  0  0  0  0  0  0  0  0  0  0  0
   61.3522   -9.2865  -68.0154 O   0  0  0  0  0  0  0  0  0  0  0  0
   63.1142   -7.2218  -67.8928 O   0  0  0  0  0  0  0  0  0  0  0  0
   68.7633   -3.3431  -66.6194 O   0  0  0  0  0  0  0  0  0  0  0  0
   71.0980   -3.0507  -65.4280 O   0  0  0  0  0  0  0  0  0  0  0  0
   65.2157   -6.0089  -67.5398 O   0  0  0  0  0  0  0  0  0  0  0  0
   65.4823   -5.0808  -67.3756 C   0  0  0  0  0  0  0  0  0  0  0  0
   67.1999   -4.0900  -67.6122 C   0  0  0  0  0  0  0  0  0  0  0  0
   63.6814   -8.3818  -68.0492 C   0  0  0  0  0  0  0  0  0  0  0  0
   67.0995   -4.6689  -66.8781 O   0  0  0  0  0  0  0  0  0  0  0  0
  4  2  1  0
  5  1  1  0
  6  3  1  0
  7  4  1  0
  8  2  1  0
  9  3  1  0
 10  9  1  0
 11  4  1  0
 12  1  1  0
 12  6  1  0
 13 10  1  0
 13 11  1  0
M  END
>  <ID>  (1) 
conformer_0

$$$$
