
     RDKit          3D

 12 11  0  0  0  0  0  0  0  0999 V2000
   62.3914   -9.1941  -68.9094 C   0  0  0  0  0  0  0  0  0  0  0  0
   64.1652   -6.6185  -67.1456 C   0  0  0  0  0  0  0  0  0  0  0  0
   69.0176   -3.1696  -66.9088 C   0  0  0  0  0  0  0  0  0  0  0  0
   67.2349   -4.2833  -67.5227 C   0  0  0  0  0  0  0  0  0  0  0  0
   63.3229   -7.0410  -67.2940 O   0  0  0  0  0  0  0  0  0  0  0  0
   61.1822   -9.8188  -68.6610 O   0  0  0  0  0  0  0  0  0  0  0  0
   71.0481   -2.9187  -64.9377 O   0  0  0  0  0  0  0  0  0  0  0  0
   68.2842   -3.4567  -66.7562 O   0  0  0  0  0  0  0  0  0  0  0  0
   65.3623   -5.3028  -67.3869 C   0  0  0  0  0  0  0  0  0  0  0  0
   66.0119   -5.2779  -66.9834 O   0  0  0  0  0  0  0  0  0  0  0  0
   63.2357   -8.2776  -68.2341 C   0  0  0  0  0  0  0  0  0  0  0  0
   70.1550   -2.4971  -65.7458 C   0  0  0  0  0  0  0  0  0  0  0  0
  5  2  1  0
  6  1  1  0
  8  3  1  0
  8  4  1  0
  9  2  2  3
 10  4  1  0
 10  9  1  0
 11  1  1  0
 11  5  1  0
 12  3  1  0
 12  7  1  0
M  END
>  <ID>  (1) 
conformer_0

$$$$
