
     RDKit          3D

 14 14  0  0  0  0  0  0  0  0999 V2000
   69.1002   -2.7230  -66.5637 C   0  0  0  0  0  0  0  0  0  0  0  0
   62.3233   -9.7800  -68.8721 C   0  0  0  0  0  0  0  0  0  0  0  0
   67.8377   -3.8966  -67.5834 C   0  0  0  0  0  0  0  0  0  0  0  0
   63.5128   -8.8003  -68.2382 C   0  0  0  0  0  0  0  0  0  0  0  0
   68.7687   -3.1908  -66.3630 O   0  0  0  0  0  0  0  0  0  0  0  0
   64.9666   -5.6775  -67.2231 O   0  0  0  0  0  0  0  0  0  0  0  0
   63.3719   -7.6676  -68.1550 O   0  0  0  0  0  0  0  0  0  0  0  0
   66.2849   -4.6521  -67.7166 C   0  0  0  0  0  0  0  0  0  0  0  0
   61.3233   -9.6639  -68.4831 O   0  0  0  0  0  0  0  0  0  0  0  0
   70.2655   -1.5725  -65.2019 O   0  0  0  0  0  0  0  0  0  0  0  0
   64.4096   -5.5596  -67.2131 C   0  0  0  0  0  0  0  0  0  0  0  0
   66.9088   -3.9679  -66.6486 O   0  0  0  0  0  0  0  0  0  0  0  0
   70.3190   -2.4853  -65.7163 C   0  0  0  0  0  0  0  0  0  0  0  0
   63.8509   -7.1763  -66.9137 C   0  0  0  0  0  0  0  0  0  0  0  0
  4  2  1  0
  5  1  1  0
  5  3  1  0
  7  4  1  0
  8  3  1  0
  8  6  1  0
  9  2  1  0
 11  6  1  0
 12  3  1  0
 12  8  1  0
 13  1  1  0
 13 10  1  0
 14  7  1  0
 14 11  1  0
M  END
>  <ID>  (1) 
conformer_0

$$$$
