
     RDKit          3D

 14 13  0  0  0  0  0  0  0  0999 V2000
   62.1635   -9.6387  -68.7677 C   0  0  0  0  0  0  0  0  0  0  0  0
   67.9285   -4.2130  -67.5477 C   0  0  0  0  0  0  0  0  0  0  0  0
   62.9972   -8.2908  -68.5965 C   0  0  0  0  0  0  0  0  0  0  0  0
   70.5331   -2.7308  -65.6160 C   0  0  0  0  0  0  0  0  0  0  0  0
   62.9832   -7.4646  -68.0400 O   0  0  0  0  0  0  0  0  0  0  0  0
   69.1677   -3.3475  -66.4672 O   0  0  0  0  0  0  0  0  0  0  0  0
   60.9502   -9.4031  -68.5375 O   0  0  0  0  0  0  0  0  0  0  0  0
   66.1261   -4.5791  -67.4890 C   0  0  0  0  0  0  0  0  0  0  0  0
   70.9120   -2.7310  -64.8230 O   0  0  0  0  0  0  0  0  0  0  0  0
   67.1461   -4.2782  -66.8158 O   0  0  0  0  0  0  0  0  0  0  0  0
   64.9824   -5.8415  -67.4014 O   0  0  0  0  0  0  0  0  0  0  0  0
   64.0789   -7.5239  -66.9110 C   0  0  0  0  0  0  0  0  0  0  0  0
   64.4767   -5.6844  -67.3549 C   0  0  0  0  0  0  0  0  0  0  0  0
   69.0407   -2.7062  -66.6462 C   0  0  0  0  0  0  0  0  0  0  0  0
  3  1  1  0
  5  3  1  0
  7  1  1  0
  9  4  1  0
 10  2  1  0
 10  8  1  0
 11  8  1  0
 12  5  1  0
 13 11  1  0
 13 12  1  0
 14  2  1  0
 14  4  1  0
 14  6  1  0
M  END
>  <ID>  (1) 
conformer_0

$$$$
