
     RDKit          3D

 10  9  0  0  0  0  0  0  0  0999 V2000
   62.3320   -8.7370  -68.9704 C   0  0  0  0  0  0  0  0  0  0  0  0
   67.9327   -4.0487  -67.4520 C   0  0  0  0  0  0  0  0  0  0  0  0
   64.1921   -7.2123  -67.2007 C   0  0  0  0  0  0  0  0  0  0  0  0
   69.9754   -2.6708  -66.2346 C   0  0  0  0  0  0  0  0  0  0  0  0
   62.7750   -7.8470  -68.3115 O   0  0  0  0  0  0  0  0  0  0  0  0
   69.4437   -2.8226  -65.7638 O   0  0  0  0  0  0  0  0  0  0  0  0
   65.7848   -5.2631  -67.6511 C   0  0  0  0  0  0  0  0  0  0  0  0
   67.7995   -3.7698  -66.7654 O   0  0  0  0  0  0  0  0  0  0  0  0
   63.7461   -6.6691  -67.3189 O   0  0  0  0  0  0  0  0  0  0  0  0
   66.0921   -5.4391  -67.1348 O   0  0  0  0  0  0  0  0  0  0  0  0
  5  1  1  0
  5  3  1  0
  6  4  1  0
  7  3  1  0
  8  2  1  0
  8  6  1  0
  9  3  1  0
 10  2  1  0
 10  7  1  0
M  END
>  <ID>  (1) 
conformer_0

$$$$
