
     RDKit          3D

 13 12  0  0  0  0  0  0  0  0999 V2000
   63.0055   -9.1973  -68.2069 C   0  0  0  0  0  0  0  0  0  0  0  0
   64.0704   -7.5823  -66.9617 C   0  0  0  0  0  0  0  0  0  0  0  0
   70.5250   -2.0337  -66.0433 C   0  0  0  0  0  0  0  0  0  0  0  0
   69.5713   -3.2143  -66.8488 C   0  0  0  0  0  0  0  0  0  0  0  0
   63.8116   -7.1908  -67.4914 O   0  0  0  0  0  0  0  0  0  0  0  0
   60.6280  -10.1803  -68.1292 O   0  0  0  0  0  0  0  0  0  0  0  0
   68.1311   -3.2239  -66.9638 O   0  0  0  0  0  0  0  0  0  0  0  0
   67.8154   -3.9542  -67.7292 C   0  0  0  0  0  0  0  0  0  0  0  0
   66.2782   -5.1922  -67.1083 O   0  0  0  0  0  0  0  0  0  0  0  0
   61.8229   -9.9952  -68.8157 C   0  0  0  0  0  0  0  0  0  0  0  0
   62.2658   -8.4214  -68.5247 O   0  0  0  0  0  0  0  0  0  0  0  0
   64.5214   -6.0301  -67.0621 C   0  0  0  0  0  0  0  0  0  0  0  0
   66.0794   -4.6962  -67.6862 C   0  0  0  0  0  0  0  0  0  0  0  0
  2  1  1  0
  4  3  1  0
  5  2  1  0
  7  4  1  0
  8  7  1  0
 10  1  1  0
 10  6  1  0
 11  1  1  0
 12  5  1  0
 12  9  1  0
 13  8  1  0
 13  9  1  0
M  END
>  <ID>  (1) 
conformer_0

$$$$
