
     RDKit          3D

 10  9  0  0  0  0  0  0  0  0999 V2000
   70.0394   -2.8910  -65.6722 C   0  0  0  0  0  0  0  0  0  0  0  0
   68.4229   -3.3910  -67.1212 C   0  0  0  0  0  0  0  0  0  0  0  0
   63.8954   -7.3417  -67.6088 C   0  0  0  0  0  0  0  0  0  0  0  0
   62.8321   -8.8092  -68.9459 C   0  0  0  0  0  0  0  0  0  0  0  0
   68.2135   -3.3672  -66.3896 O   0  0  0  0  0  0  0  0  0  0  0  0
   63.5774   -6.9213  -67.8875 O   0  0  0  0  0  0  0  0  0  0  0  0
   70.7778   -2.6611  -64.9741 O   0  0  0  0  0  0  0  0  0  0  0  0
   65.9812   -4.9580  -67.0339 O   0  0  0  0  0  0  0  0  0  0  0  0
   65.0359   -5.6153  -67.3522 C   0  0  0  0  0  0  0  0  0  0  0  0
   66.7118   -4.2925  -67.4961 C   0  0  0  0  0  0  0  0  0  0  0  0
  4  3  1  0
  5  1  1  0
  5  2  1  0
  6  3  1  0
  7  1  1  0
  9  3  1  0
  9  8  1  0
 10  2  1  0
 10  8  1  0
M  END
>  <ID>  (1) 
conformer_0

$$$$
