
     RDKit          3D

 12 11  0  0  0  0  0  0  0  0999 V2000
   63.2900   -8.3851  -68.4003 C   0  0  0  0  0  0  0  0  0  0  0  0
   68.6970   -3.2561  -66.6310 C   0  0  0  0  0  0  0  0  0  0  0  0
   65.2759   -5.1831  -67.8166 C   0  0  0  0  0  0  0  0  0  0  0  0
   64.2251   -6.6800  -67.1093 C   0  0  0  0  0  0  0  0  0  0  0  0
   63.3188   -7.5739  -67.9964 O   0  0  0  0  0  0  0  0  0  0  0  0
   70.9946   -2.6447  -64.7336 O   0  0  0  0  0  0  0  0  0  0  0  0
   61.1493   -9.8229  -68.4220 O   0  0  0  0  0  0  0  0  0  0  0  0
   67.5762   -3.7733  -66.6986 O   0  0  0  0  0  0  0  0  0  0  0  0
   67.0127   -4.3352  -67.6517 C   0  0  0  0  0  0  0  0  0  0  0  0
   65.5684   -5.5995  -67.1315 O   0  0  0  0  0  0  0  0  0  0  0  0
   62.3249   -9.1632  -69.3390 C   0  0  0  0  0  0  0  0  0  0  0  0
   69.9655   -2.6561  -65.6786 C   0  0  0  0  0  0  0  0  0  0  0  0
  5  1  1  0
  5  4  1  0
  8  2  1  0
  9  3  1  0
  9  8  1  0
 10  3  1  0
 10  4  1  0
 11  1  1  0
 11  7  1  0
 12  2  1  0
 12  6  1  0
M  END
>  <ID>  (1) 
conformer_0

$$$$
