
     RDKit          3D

 12 11  0  0  0  0  0  0  0  0999 V2000
   63.1244   -8.5087  -68.1147 C   0  0  0  0  0  0  0  0  0  0  0  0
   70.0128   -2.4954  -66.1498 C   0  0  0  0  0  0  0  0  0  0  0  0
   63.8179   -6.6099  -66.9459 C   0  0  0  0  0  0  0  0  0  0  0  0
   65.2272   -5.5412  -67.4894 C   0  0  0  0  0  0  0  0  0  0  0  0
   63.2073   -7.3401  -67.9053 O   0  0  0  0  0  0  0  0  0  0  0  0
   70.9610   -2.8517  -65.4055 O   0  0  0  0  0  0  0  0  0  0  0  0
   67.6037   -4.2224  -66.7512 O   0  0  0  0  0  0  0  0  0  0  0  0
   60.9719   -9.7852  -68.2522 O   0  0  0  0  0  0  0  0  0  0  0  0
   68.6925   -3.1376  -66.8228 C   0  0  0  0  0  0  0  0  0  0  0  0
   65.7373   -5.7139  -67.1712 O   0  0  0  0  0  0  0  0  0  0  0  0
   62.1684   -9.4134  -68.8565 C   0  0  0  0  0  0  0  0  0  0  0  0
   67.0270   -4.5824  -67.6691 C   0  0  0  0  0  0  0  0  0  0  0  0
  4  3  1  0
  5  1  1  0
  5  3  1  0
  6  2  1  0
  9  2  1  0
  9  7  1  0
 10  4  1  0
 11  1  1  0
 11  8  1  0
 12  7  1  0
 12 10  1  0
M  END
>  <ID>  (1) 
conformer_0

$$$$
