
     RDKit          3D

 10  9  0  0  0  0  0  0  0  0999 V2000
   62.5530   -8.9527  -68.7626 C   0  0  0  0  0  0  0  0  0  0  0  0
   63.7689   -7.3303  -67.4933 C   0  0  0  0  0  0  0  0  0  0  0  0
   70.0375   -3.1150  -65.9064 C   0  0  0  0  0  0  0  0  0  0  0  0
   66.6192   -4.4120  -67.6298 C   0  0  0  0  0  0  0  0  0  0  0  0
   71.0506   -3.3767  -64.5617 O   0  0  0  0  0  0  0  0  0  0  0  0
   63.3585   -7.0463  -67.9073 O   0  0  0  0  0  0  0  0  0  0  0  0
   68.5454   -3.6888  -66.2725 O   0  0  0  0  0  0  0  0  0  0  0  0
   64.5850   -5.3558  -67.5334 C   0  0  0  0  0  0  0  0  0  0  0  0
   65.9806   -4.9622  -67.1784 O   0  0  0  0  0  0  0  0  0  0  0  0
   68.1980   -3.3928  -66.7419 C   0  0  0  0  0  0  0  0  0  0  0  0
  2  1  1  0
  5  3  1  0
  6  2  1  0
  7  3  1  0
  8  2  1  0
  9  4  1  0
  9  8  1  0
 10  4  1  0
 10  7  1  0
M  END
>  <ID>  (1) 
conformer_0

$$$$
