
     RDKit          3D

 13 12  0  0  0  0  0  0  0  0999 V2000
   63.5135   -7.9731  -68.1895 C   0  0  0  0  0  0  0  0  0  0  0  0
   67.1391   -4.1039  -67.6104 C   0  0  0  0  0  0  0  0  0  0  0  0
   65.7570   -5.5378  -67.5745 C   0  0  0  0  0  0  0  0  0  0  0  0
   70.2949   -2.8872  -65.6563 C   0  0  0  0  0  0  0  0  0  0  0  0
   68.8068   -3.2007  -66.0534 O   0  0  0  0  0  0  0  0  0  0  0  0
   63.1494   -7.2213  -67.7127 O   0  0  0  0  0  0  0  0  0  0  0  0
   61.1863   -9.4828  -68.4363 O   0  0  0  0  0  0  0  0  0  0  0  0
   65.3610   -5.7494  -67.7506 O   0  0  0  0  0  0  0  0  0  0  0  0
   70.9322   -2.6233  -65.0754 O   0  0  0  0  0  0  0  0  0  0  0  0
   68.7324   -3.2037  -66.8294 C   0  0  0  0  0  0  0  0  0  0  0  0
   62.4590   -9.0860  -69.0289 C   0  0  0  0  0  0  0  0  0  0  0  0
   67.1708   -4.2300  -67.0170 O   0  0  0  0  0  0  0  0  0  0  0  0
   64.1519   -6.3927  -67.0081 C   0  0  0  0  0  0  0  0  0  0  0  0
  3  2  1  0
  5  4  1  0
  6  1  1  0
  8  3  1  0
  9  4  1  0
 10  5  1  0
 11  1  1  0
 11  7  1  0
 12  2  1  0
 12 10  1  0
 13  6  1  0
 13  8  1  0
M  END
>  <ID>  (1) 
conformer_0

$$$$
