
     RDKit          3D

 11 10  0  0  0  0  0  0  0  0999 V2000
   63.3837   -8.3193  -67.6469 C   0  0  0  0  0  0  0  0  0  0  0  0
   70.0335   -2.5627  -66.0731 C   0  0  0  0  0  0  0  0  0  0  0  0
   68.3112   -3.6801  -67.3460 C   0  0  0  0  0  0  0  0  0  0  0  0
   64.4862   -6.2297  -66.9602 C   0  0  0  0  0  0  0  0  0  0  0  0
   60.6538   -9.6639  -67.9252 O   0  0  0  0  0  0  0  0  0  0  0  0
   63.0194   -7.2922  -67.3771 O   0  0  0  0  0  0  0  0  0  0  0  0
   71.1686   -2.9576  -64.8569 O   0  0  0  0  0  0  0  0  0  0  0  0
   66.1894   -4.5950  -67.7005 C   0  0  0  0  0  0  0  0  0  0  0  0
   69.0946   -3.5940  -66.5645 O   0  0  0  0  0  0  0  0  0  0  0  0
   66.7195   -4.6510  -67.1762 O   0  0  0  0  0  0  0  0  0  0  0  0
   62.2245   -9.7049  -68.5617 C   0  0  0  0  0  0  0  0  0  0  0  0
  6  1  1  0
  6  4  1  0
  7  2  1  0
  8  4  1  0
  9  2  1  0
  9  3  1  0
 10  3  1  0
 10  8  1  0
 11  1  1  0
 11  5  1  0
M  END
>  <ID>  (1) 
conformer_0

$$$$
