
     RDKit          3D

 13 12  0  0  0  0  0  0  0  0999 V2000
   63.8730   -7.1646  -66.7548 C   0  0  0  0  0  0  0  0  0  0  0  0
   69.3274   -3.2673  -66.6771 C   0  0  0  0  0  0  0  0  0  0  0  0
   65.7560   -4.5691  -67.7044 C   0  0  0  0  0  0  0  0  0  0  0  0
   63.5363   -8.4926  -68.2022 C   0  0  0  0  0  0  0  0  0  0  0  0
   62.9981   -7.8593  -68.3502 O   0  0  0  0  0  0  0  0  0  0  0  0
   67.6096   -4.2186  -67.7083 C   0  0  0  0  0  0  0  0  0  0  0  0
   66.6444   -4.0627  -66.8761 O   0  0  0  0  0  0  0  0  0  0  0  0
   71.2904   -2.9450  -65.1317 O   0  0  0  0  0  0  0  0  0  0  0  0
   64.8836   -6.0722  -67.5266 O   0  0  0  0  0  0  0  0  0  0  0  0
   64.2960   -5.6746  -67.1934 C   0  0  0  0  0  0  0  0  0  0  0  0
   68.6879   -3.2238  -66.7706 O   0  0  0  0  0  0  0  0  0  0  0  0
   70.5851   -2.6813  -66.0796 C   0  0  0  0  0  0  0  0  0  0  0  0
   62.1562   -9.2780  -69.2489 C   0  0  0  0  0  0  0  0  0  0  0  0
  4  1  1  0
  5  4  1  0
  7  3  1  0
  7  6  1  0
 10  1  1  0
 10  3  1  0
 10  9  1  0
 11  2  1  0
 11  6  1  0
 12  2  1  0
 12  8  1  0
 13  4  1  0
M  END
>  <ID>  (1) 
conformer_0

$$$$
