
     RDKit          3D

 13 12  0  0  0  0  0  0  0  0999 V2000
   69.7049   -2.3490  -65.6674 C   0  0  0  0  0  0  0  0  0  0  0  0
   63.9390   -8.3848  -67.8306 C   0  0  0  0  0  0  0  0  0  0  0  0
   63.0067   -9.1505  -69.2049 C   0  0  0  0  0  0  0  0  0  0  0  0
   70.8636   -2.8895  -64.9984 O   0  0  0  0  0  0  0  0  0  0  0  0
   68.6082   -3.0305  -66.9426 C   0  0  0  0  0  0  0  0  0  0  0  0
   63.1364   -7.7515  -68.0538 O   0  0  0  0  0  0  0  0  0  0  0  0
   61.5224   -9.1424  -68.9249 O   0  0  0  0  0  0  0  0  0  0  0  0
   66.6771   -4.5239  -67.0323 O   0  0  0  0  0  0  0  0  0  0  0  0
   65.0969   -6.3713  -67.4844 O   0  0  0  0  0  0  0  0  0  0  0  0
   64.4179   -6.6570  -67.0222 C   0  0  0  0  0  0  0  0  0  0  0  0
   68.1774   -2.9881  -66.3642 O   0  0  0  0  0  0  0  0  0  0  0  0
   65.1556   -4.9371  -67.4872 C   0  0  0  0  0  0  0  0  0  0  0  0
   66.9289   -4.0048  -67.5940 C   0  0  0  0  0  0  0  0  0  0  0  0
  3  2  1  0
  4  1  1  0
  5  1  1  0
  6  2  1  0
  7  3  1  0
 10  2  1  0
 10  9  1  0
 11  5  1  0
 12  8  1  0
 12  9  1  0
 13  5  1  0
 13  8  1  0
M  END
>  <ID>  (1) 
conformer_0

$$$$
