
     RDKit          3D

 13 12  0  0  0  0  0  0  0  0999 V2000
   63.4516   -8.2363  -68.2640 C   0  0  0  0  0  0  0  0  0  0  0  0
   68.5341   -3.0207  -66.9960 C   0  0  0  0  0  0  0  0  0  0  0  0
   64.1462   -6.5885  -67.2179 C   0  0  0  0  0  0  0  0  0  0  0  0
   70.0876   -2.4600  -65.6205 C   0  0  0  0  0  0  0  0  0  0  0  0
   61.1084   -9.6711  -67.9564 O   0  0  0  0  0  0  0  0  0  0  0  0
   71.0880   -2.9181  -64.7271 O   0  0  0  0  0  0  0  0  0  0  0  0
   63.0775   -7.3432  -68.3062 O   0  0  0  0  0  0  0  0  0  0  0  0
   68.9822   -3.1602  -66.2977 O   0  0  0  0  0  0  0  0  0  0  0  0
   67.1481   -4.5687  -66.7440 O   0  0  0  0  0  0  0  0  0  0  0  0
   65.6449   -5.4235  -67.6704 C   0  0  0  0  0  0  0  0  0  0  0  0
   67.2351   -4.1657  -67.6527 C   0  0  0  0  0  0  0  0  0  0  0  0
   65.1379   -5.8154  -67.6669 O   0  0  0  0  0  0  0  0  0  0  0  0
   62.3633   -9.4471  -68.9053 C   0  0  0  0  0  0  0  0  0  0  0  0
  6  4  1  0
  7  1  1  0
  7  3  1  0
  8  2  1  0
  8  4  1  0
 11  2  1  0
 11  9  1  0
 11 10  1  0
 12  3  1  0
 12 10  1  0
 13  1  1  0
 13  5  1  0
M  END
>  <ID>  (1) 
conformer_0

$$$$
