
     RDKit          3D

 13 12  0  0  0  0  0  0  0  0999 V2000
   69.1674   -3.4173  -66.7763 C   0  0  0  0  0  0  0  0  0  0  0  0
   63.1443   -8.0820  -68.3198 C   0  0  0  0  0  0  0  0  0  0  0  0
   63.9003   -6.4177  -67.0986 C   0  0  0  0  0  0  0  0  0  0  0  0
   67.3149   -4.3602  -67.5439 C   0  0  0  0  0  0  0  0  0  0  0  0
   71.2753   -3.2369  -64.9358 O   0  0  0  0  0  0  0  0  0  0  0  0
   62.7010   -7.4661  -68.1838 O   0  0  0  0  0  0  0  0  0  0  0  0
   60.9057   -9.5940  -68.0223 O   0  0  0  0  0  0  0  0  0  0  0  0
   68.8917   -3.5310  -66.7377 O   0  0  0  0  0  0  0  0  0  0  0  0
   65.2392   -5.0120  -67.4332 C   0  0  0  0  0  0  0  0  0  0  0  0
   64.0037   -5.9292  -67.6326 O   0  0  0  0  0  0  0  0  0  0  0  0
   62.1424   -9.4792  -68.8225 C   0  0  0  0  0  0  0  0  0  0  0  0
   66.7987   -4.7089  -67.0697 O   0  0  0  0  0  0  0  0  0  0  0  0
   70.6941   -2.8232  -66.0562 C   0  0  0  0  0  0  0  0  0  0  0  0
  6  2  1  0
  6  3  1  0
  8  1  1  0
  8  4  1  0
 10  3  1  0
 10  9  1  0
 11  2  1  0
 11  7  1  0
 12  4  1  0
 12  9  1  0
 13  1  1  0
 13  5  1  0
M  END
>  <ID>  (1) 
conformer_0

$$$$
