
     RDKit          3D

 12 11  0  0  0  0  0  0  0  0999 V2000
   68.7366   -3.0825  -66.9055 C   0  0  0  0  0  0  0  0  0  0  0  0
   64.1551   -6.7335  -66.9405 C   0  0  0  0  0  0  0  0  0  0  0  0
   63.3674   -8.3465  -68.2347 C   0  0  0  0  0  0  0  0  0  0  0  0
   67.0897   -4.4365  -67.6713 C   0  0  0  0  0  0  0  0  0  0  0  0
   70.9311   -3.0130  -65.3445 O   0  0  0  0  0  0  0  0  0  0  0  0
   61.1195   -9.8411  -68.3211 O   0  0  0  0  0  0  0  0  0  0  0  0
   63.1531   -7.2148  -67.8282 O   0  0  0  0  0  0  0  0  0  0  0  0
   68.0352   -3.6334  -66.7372 O   0  0  0  0  0  0  0  0  0  0  0  0
   65.2492   -5.4336  -67.2617 C   0  0  0  0  0  0  0  0  0  0  0  0
   66.1199   -5.3636  -67.2017 O   0  0  0  0  0  0  0  0  0  0  0  0
   62.1478   -9.1336  -69.1776 C   0  0  0  0  0  0  0  0  0  0  0  0
   69.9028   -2.2406  -66.0832 C   0  0  0  0  0  0  0  0  0  0  0  0
  7  2  1  0
  7  3  1  0
  8  1  1  0
  8  4  1  0
  9  2  1  0
 10  4  1  0
 10  9  1  0
 11  3  1  0
 11  6  1  0
 12  1  1  0
 12  5  1  0
M  END
>  <ID>  (1) 
conformer_0

$$$$
