
     RDKit          3D

 12 11  0  0  0  0  0  0  0  0999 V2000
   62.7102   -9.1108  -68.4205 C   0  0  0  0  0  0  0  0  0  0  0  0
   65.3036   -5.3902  -67.6316 C   0  0  0  0  0  0  0  0  0  0  0  0
   64.1208   -6.9078  -67.2778 C   0  0  0  0  0  0  0  0  0  0  0  0
   68.5839   -3.2925  -66.8734 C   0  0  0  0  0  0  0  0  0  0  0  0
   70.7448   -2.8483  -64.8761 O   0  0  0  0  0  0  0  0  0  0  0  0
   63.5275   -6.4759  -67.8883 O   0  0  0  0  0  0  0  0  0  0  0  0
   61.3623   -9.3967  -68.7485 O   0  0  0  0  0  0  0  0  0  0  0  0
   68.5518   -3.7353  -66.4297 O   0  0  0  0  0  0  0  0  0  0  0  0
   67.1464   -4.5372  -67.4616 C   0  0  0  0  0  0  0  0  0  0  0  0
   66.3440   -5.1288  -67.1645 O   0  0  0  0  0  0  0  0  0  0  0  0
   70.1186   -2.5776  -65.8918 C   0  0  0  0  0  0  0  0  0  0  0  0
   63.1550   -7.8945  -68.6777 C   0  0  0  0  0  0  0  0  0  0  0  0
  3  2  1  0
  6  3  1  0
  7  1  1  0
  8  4  1  0
  9  4  1  0
 10  2  1  0
 10  9  1  0
 11  4  1  0
 11  5  1  0
 12  1  1  0
 12  6  1  0
M  END
>  <ID>  (1) 
conformer_0

$$$$
