
     RDKit          3D

 13 12  0  0  0  0  0  0  0  0999 V2000
   62.9431   -8.8559  -69.0945 C   0  0  0  0  0  0  0  0  0  0  0  0
   64.3597   -6.8215  -66.8321 C   0  0  0  0  0  0  0  0  0  0  0  0
   68.4261   -3.0417  -66.7949 C   0  0  0  0  0  0  0  0  0  0  0  0
   65.6783   -5.6657  -67.1278 C   0  0  0  0  0  0  0  0  0  0  0  0
   61.4855   -9.3249  -68.4591 O   0  0  0  0  0  0  0  0  0  0  0  0
   63.1346   -7.1340  -67.6371 O   0  0  0  0  0  0  0  0  0  0  0  0
   69.1714   -3.2701  -66.9066 O   0  0  0  0  0  0  0  0  0  0  0  0
   70.5909   -2.3093  -65.0147 O   0  0  0  0  0  0  0  0  0  0  0  0
   67.1566   -4.3881  -67.4875 C   0  0  0  0  0  0  0  0  0  0  0  0
   67.1926   -4.2851  -66.7044 O   0  0  0  0  0  0  0  0  0  0  0  0
   63.4196   -8.1879  -68.1870 C   0  0  0  0  0  0  0  0  0  0  0  0
   65.3290   -6.1732  -67.6094 O   0  0  0  0  0  0  0  0  0  0  0  0
   69.9858   -2.5498  -65.9192 C   0  0  0  0  0  0  0  0  0  0  0  0
  5  1  1  0
  6  2  1  0
  7  3  1  0
  9  4  1  0
 10  3  1  0
 10  9  1  0
 11  1  1  0
 11  6  1  0
 12  2  1  0
 12  4  1  0
 13  7  1  0
 13  8  1  0
M  END
>  <ID>  (1) 
conformer_0

$$$$
