
     RDKit          3D

 10  9  0  0  0  0  0  0  0  0999 V2000
   63.8693   -7.6481  -67.4588 C   0  0  0  0  0  0  0  0  0  0  0  0
   62.3334   -8.8518  -68.9416 C   0  0  0  0  0  0  0  0  0  0  0  0
   68.2571   -3.2614  -66.9972 C   0  0  0  0  0  0  0  0  0  0  0  0
   70.1786   -2.8531  -65.8379 C   0  0  0  0  0  0  0  0  0  0  0  0
   63.2615   -7.3575  -68.0272 O   0  0  0  0  0  0  0  0  0  0  0  0
   68.7782   -3.5747  -66.5535 O   0  0  0  0  0  0  0  0  0  0  0  0
   60.9279   -8.9129  -69.5019 O   0  0  0  0  0  0  0  0  0  0  0  0
   66.1492   -5.1548  -66.8825 O   0  0  0  0  0  0  0  0  0  0  0  0
   64.8706   -6.0471  -67.1747 C   0  0  0  0  0  0  0  0  0  0  0  0
   66.6717   -4.4928  -67.5872 C   0  0  0  0  0  0  0  0  0  0  0  0
  5  1  1  0
  5  2  1  0
  6  3  1  0
  6  4  1  0
  7  2  1  0
  9  1  1  0
  9  8  1  0
 10  3  1  0
 10  8  1  0
M  END
>  <ID>  (1) 
conformer_0

$$$$
