
     RDKit          3D

 13 12  0  0  0  0  0  0  0  0999 V2000
   62.3657   -9.5125  -68.9383 C   0  0  0  0  0  0  0  0  0  0  0  0
   64.1177   -6.7778  -67.1282 C   0  0  0  0  0  0  0  0  0  0  0  0
   68.5484   -3.3988  -67.0657 C   0  0  0  0  0  0  0  0  0  0  0  0
   70.0200   -2.4778  -66.0082 C   0  0  0  0  0  0  0  0  0  0  0  0
   63.2645   -7.8053  -67.9281 O   0  0  0  0  0  0  0  0  0  0  0  0
   68.8427   -3.2403  -66.1517 O   0  0  0  0  0  0  0  0  0  0  0  0
   61.0767   -9.3313  -69.0601 O   0  0  0  0  0  0  0  0  0  0  0  0
   70.6115   -2.5702  -64.7678 O   0  0  0  0  0  0  0  0  0  0  0  0
   67.0552   -4.3411  -66.6205 O   0  0  0  0  0  0  0  0  0  0  0  0
   67.0098   -4.4301  -67.4745 C   0  0  0  0  0  0  0  0  0  0  0  0
   65.0648   -5.2545  -67.4513 C   0  0  0  0  0  0  0  0  0  0  0  0
   65.4275   -5.9319  -67.2223 O   0  0  0  0  0  0  0  0  0  0  0  0
   63.1525   -8.0988  -68.6594 C   0  0  0  0  0  0  0  0  0  0  0  0
  5  2  1  0
  6  3  1  0
  6  4  1  0
  7  1  1  0
  8  4  1  0
 10  3  1  0
 10  9  1  0
 11 10  1  0
 12  2  1  0
 12 11  1  0
 13  1  1  0
 13  5  1  0
M  END
>  <ID>  (1) 
conformer_0

$$$$
