
     RDKit          3D

 12 11  0  0  0  0  0  0  0  0999 V2000
   63.7680   -7.6626  -67.5663 C   0  0  0  0  0  0  0  0  0  0  0  0
   70.0501   -2.3602  -66.0325 C   0  0  0  0  0  0  0  0  0  0  0  0
   64.6936   -5.6169  -67.4255 C   0  0  0  0  0  0  0  0  0  0  0  0
   66.2677   -4.3324  -67.7512 C   0  0  0  0  0  0  0  0  0  0  0  0
   61.0264   -9.8620  -68.0519 O   0  0  0  0  0  0  0  0  0  0  0  0
   63.2424   -7.4532  -68.2148 O   0  0  0  0  0  0  0  0  0  0  0  0
   68.8235   -3.1834  -66.2548 O   0  0  0  0  0  0  0  0  0  0  0  0
   70.5562   -1.6251  -64.9793 O   0  0  0  0  0  0  0  0  0  0  0  0
   68.3543   -3.3225  -67.1553 C   0  0  0  0  0  0  0  0  0  0  0  0
   65.0784   -5.9960  -67.7089 O   0  0  0  0  0  0  0  0  0  0  0  0
   66.8451   -3.8467  -67.0477 O   0  0  0  0  0  0  0  0  0  0  0  0
   62.8417   -9.1848  -68.5067 C   0  0  0  0  0  0  0  0  0  0  0  0
  3  1  1  0
  4  3  1  0
  6  1  1  0
  7  2  1  0
  8  2  1  0
  9  7  1  0
 10  3  1  0
 11  4  1  0
 11  9  1  0
 12  5  1  0
 12  6  1  0
M  END
>  <ID>  (1) 
conformer_0

$$$$
