
     RDKit          3D

 11 10  0  0  0  0  0  0  0  0999 V2000
   62.6911   -9.0237  -68.7410 C   0  0  0  0  0  0  0  0  0  0  0  0
   66.6884   -4.8949  -67.5488 C   0  0  0  0  0  0  0  0  0  0  0  0
   63.5355   -7.5386  -67.7568 C   0  0  0  0  0  0  0  0  0  0  0  0
   70.1267   -2.6889  -66.1006 C   0  0  0  0  0  0  0  0  0  0  0  0
   69.2054   -3.1863  -65.9911 O   0  0  0  0  0  0  0  0  0  0  0  0
   63.0349   -7.0361  -67.8882 O   0  0  0  0  0  0  0  0  0  0  0  0
   67.4910   -4.3395  -66.6443 O   0  0  0  0  0  0  0  0  0  0  0  0
   61.4722   -9.3324  -68.8470 O   0  0  0  0  0  0  0  0  0  0  0  0
   68.3693   -3.6036  -67.1664 C   0  0  0  0  0  0  0  0  0  0  0  0
   64.5596   -5.6436  -67.3004 C   0  0  0  0  0  0  0  0  0  0  0  0
   65.3512   -5.7451  -67.3042 O   0  0  0  0  0  0  0  0  0  0  0  0
  3  1  1  0
  5  4  1  0
  6  3  1  0
  7  2  1  0
  8  1  1  0
  9  5  1  0
  9  7  1  0
 10  3  1  0
 11  2  1  0
 11 10  1  0
M  END
>  <ID>  (1) 
conformer_0

$$$$
