
     RDKit          3D

 13 12  0  0  0  0  0  0  0  0999 V2000
   64.3394   -6.6333  -66.9078 C   0  0  0  0  0  0  0  0  0  0  0  0
   65.4207   -5.2097  -67.4848 C   0  0  0  0  0  0  0  0  0  0  0  0
   69.9556   -2.7039  -66.0486 C   0  0  0  0  0  0  0  0  0  0  0  0
   63.6722   -8.2268  -67.8397 C   0  0  0  0  0  0  0  0  0  0  0  0
   63.0050   -7.6061  -68.1074 O   0  0  0  0  0  0  0  0  0  0  0  0
   61.1573   -9.5422  -68.2137 O   0  0  0  0  0  0  0  0  0  0  0  0
   66.7281   -4.2496  -66.8685 O   0  0  0  0  0  0  0  0  0  0  0  0
   65.2842   -6.2914  -67.6371 O   0  0  0  0  0  0  0  0  0  0  0  0
   70.4572   -2.5479  -65.0986 O   0  0  0  0  0  0  0  0  0  0  0  0
   68.5047   -3.4684  -67.1294 C   0  0  0  0  0  0  0  0  0  0  0  0
   67.0323   -4.4632  -67.8544 C   0  0  0  0  0  0  0  0  0  0  0  0
   68.5610   -3.2392  -66.4763 O   0  0  0  0  0  0  0  0  0  0  0  0
   62.5478   -9.2513  -68.7932 C   0  0  0  0  0  0  0  0  0  0  0  0
  4  1  1  0
  5  4  1  0
  8  1  1  0
  8  2  1  0
  9  3  1  0
 11  2  1  0
 11  7  1  0
 11 10  1  0
 12  3  1  0
 12 10  1  0
 13  4  1  0
 13  6  1  0
M  END
>  <ID>  (1) 
conformer_0

$$$$
