
     RDKit          3D

 11 10  0  0  0  0  0  0  0  0999 V2000
   62.5287   -9.2534  -68.6295 C   0  0  0  0  0  0  0  0  0  0  0  0
   63.5906   -7.8110  -67.9646 C   0  0  0  0  0  0  0  0  0  0  0  0
   68.5689   -3.4395  -67.2217 C   0  0  0  0  0  0  0  0  0  0  0  0
   70.4035   -2.6200  -66.1284 C   0  0  0  0  0  0  0  0  0  0  0  0
   60.9594   -9.6268  -67.8780 O   0  0  0  0  0  0  0  0  0  0  0  0
   63.2727   -7.1326  -67.6509 O   0  0  0  0  0  0  0  0  0  0  0  0
   69.3259   -2.6732  -66.2656 O   0  0  0  0  0  0  0  0  0  0  0  0
   67.4862   -3.8725  -66.8384 O   0  0  0  0  0  0  0  0  0  0  0  0
   66.6221   -4.4428  -67.5851 C   0  0  0  0  0  0  0  0  0  0  0  0
   64.6617   -5.9905  -67.2028 C   0  0  0  0  0  0  0  0  0  0  0  0
   65.6086   -5.5461  -67.2952 O   0  0  0  0  0  0  0  0  0  0  0  0
  2  1  1  0
  5  1  1  0
  6  2  1  0
  7  3  1  0
  7  4  1  0
  8  3  1  0
  9  8  1  0
 10  6  1  0
 11  9  1  0
 11 10  1  0
M  END
>  <ID>  (1) 
conformer_0

$$$$
