
     RDKit          3D

 22 24  0  0  0  0  0  0  0  0999 V2000
  102.8824    4.2733  -91.8011 C   0  0  0  0  0  0  0  0  0  0  0  0
  100.0864    7.9184  -90.7708 C   0  0  0  0  0  0  0  0  0  0  0  0
  101.9909    3.8229  -92.7000 C   0  0  0  0  0  0  0  0  0  0  0  0
  102.0519    7.9962  -91.2760 C   0  0  0  0  0  0  0  0  0  0  0  0
  101.2887    9.5643  -91.1316 N   0  0  0  0  0  0  0  0  0  0  0  0
  102.1886    5.2398  -90.7771 O   0  0  0  0  0  0  0  0  0  0  0  0
   97.9496    9.6350  -90.5225 N   0  0  0  0  0  0  0  0  0  0  0  0
   99.1510   11.4349  -91.2012 N   0  0  0  0  0  0  0  0  0  0  0  0
  105.4713    1.9430  -93.4991 O   0  0  0  0  0  0  0  0  0  0  0  0
  105.2324    2.8374  -92.3869 P   0  0  0  0  0  0  0  0  0  0  0  0
  100.9627    7.2227  -90.9511 N   0  0  0  0  0  0  0  0  0  0  0  0
   99.1051    4.2666  -90.9646 O   0  0  0  0  0  0  0  0  0  0  0  0
  104.0755    3.6160  -92.2969 O   0  0  0  0  0  0  0  0  0  0  0  0
   97.8269    8.3257  -90.2495 C   0  0  0  0  0  0  0  0  0  0  0  0
  100.9149    5.4994  -91.0575 C   0  0  0  0  0  0  0  0  0  0  0  0
   98.5186    7.5866  -90.3709 N   0  0  0  0  0  0  0  0  0  0  0  0
  106.3241    3.5367  -92.5161 O   0  0  0  0  0  0  0  0  0  0  0  0
   99.9368    3.3669  -92.7192 O   0  0  0  0  0  0  0  0  0  0  0  0
  105.0685    2.2682  -91.1346 O   0  0  0  0  0  0  0  0  0  0  0  0
  100.4060    4.7148  -92.1154 C   0  0  0  0  0  0  0  0  0  0  0  0
  100.3634    9.4378  -90.9760 C   0  0  0  0  0  0  0  0  0  0  0  0
   99.0041   10.0776  -90.8741 C   0  0  0  0  0  0  0  0  0  0  0  0
  3  1  1  0
  5  4  2  0
  6  1  1  0
 10  9  1  0
 11  2  1  0
 11  4  1  0
 13  1  1  0
 14  7  1  0
 15  6  1  0
 15 11  1  0
 16  2  1  0
 16 14  2  0
 17 10  1  0
 19  1  1  0
 19 10  1  0
 20  3  1  0
 20 12  1  0
 20 15  1  0
 20 18  1  0
 21  2  2  0
 21  5  1  0
 22  7  2  0
 22  8  1  0
 22 21  1  0
M  END
>  <ID>  (1) 
conformer_0

$$$$
