
     RDKit          3D

 23 25  0  0  0  0  0  0  0  0999 V2000
  103.2770    4.1036  -92.1056 C   0  0  0  0  0  0  0  0  0  0  0  0
  100.2701    9.3915  -91.0339 C   0  0  0  0  0  0  0  0  0  0  0  0
  101.8914    3.9565  -92.8409 C   0  0  0  0  0  0  0  0  0  0  0  0
  101.3250    9.4775  -91.2569 N   0  0  0  0  0  0  0  0  0  0  0  0
  101.8175    7.9512  -91.2870 C   0  0  0  0  0  0  0  0  0  0  0  0
  102.0713    5.2874  -90.8086 O   0  0  0  0  0  0  0  0  0  0  0  0
   98.0167   10.0080  -90.6236 N   0  0  0  0  0  0  0  0  0  0  0  0
  106.5767    4.1435  -92.1095 O   0  0  0  0  0  0  0  0  0  0  0  0
  100.0916    4.6445  -92.0351 C   0  0  0  0  0  0  0  0  0  0  0  0
  105.6432    2.9997  -92.1579 P   0  0  0  0  0  0  0  0  0  0  0  0
  100.6379    7.2677  -90.8607 N   0  0  0  0  0  0  0  0  0  0  0  0
   99.3722   11.6342  -91.2108 N   0  0  0  0  0  0  0  0  0  0  0  0
  104.3256    3.6146  -91.8799 O   0  0  0  0  0  0  0  0  0  0  0  0
   99.0027    4.2527  -90.8959 O   0  0  0  0  0  0  0  0  0  0  0  0
   99.7889    7.9378  -90.7915 C   0  0  0  0  0  0  0  0  0  0  0  0
  100.0343    3.3066  -92.8912 O   0  0  0  0  0  0  0  0  0  0  0  0
  106.0386    2.6820  -93.3238 O   0  0  0  0  0  0  0  0  0  0  0  0
   98.3067    7.9334  -90.4119 N   0  0  0  0  0  0  0  0  0  0  0  0
  100.2629    5.6928  -90.6548 C   0  0  0  0  0  0  0  0  0  0  0  0
  105.6237    1.9238  -91.4250 O   0  0  0  0  0  0  0  0  0  0  0  0
   97.6692    8.7679  -90.3134 C   0  0  0  0  0  0  0  0  0  0  0  0
   99.0929   10.2967  -90.9936 C   0  0  0  0  0  0  0  0  0  0  0  0
  101.5532    4.8770  -91.7350 C   0  0  0  0  0  0  0  0  0  0  0  0
  3  1  1  0
  4  2  1  0
  5  4  2  0
 10  8  1  0
 11  5  1  0
 13  1  1  0
 14  9  1  0
 15  2  2  0
 15 11  1  0
 16  9  1  0
 17 10  1  0
 18 15  1  0
 19  9  1  0
 19 11  1  0
 20  1  1  0
 20 10  1  0
 21  7  1  0
 21 18  2  0
 22  2  1  0
 22  7  2  0
 22 12  1  0
 23  3  1  0
 23  6  1  0
 23  9  1  0
 23 19  1  0
M  END
>  <ID>  (1) 
conformer_0

$$$$
