
     RDKit          3D

 23 25  0  0  0  0  0  0  0  0999 V2000
  102.4690    3.8375  -91.8368 C   0  0  0  0  0  0  0  0  0  0  0  0
  100.4061    9.2900  -91.1088 C   0  0  0  0  0  0  0  0  0  0  0  0
   99.8195    4.5854  -91.5565 C   0  0  0  0  0  0  0  0  0  0  0  0
  101.7801    7.7951  -91.5504 C   0  0  0  0  0  0  0  0  0  0  0  0
  101.4789    9.2713  -91.4497 N   0  0  0  0  0  0  0  0  0  0  0  0
   97.9735    9.9314  -90.5804 N   0  0  0  0  0  0  0  0  0  0  0  0
  105.6677    2.8400  -91.9581 P   0  0  0  0  0  0  0  0  0  0  0  0
  101.9380    5.1480  -91.1262 O   0  0  0  0  0  0  0  0  0  0  0  0
  106.7672    3.6903  -92.3804 O   0  0  0  0  0  0  0  0  0  0  0  0
  100.7317    7.1643  -91.2738 N   0  0  0  0  0  0  0  0  0  0  0  0
  100.5893    5.5465  -91.0964 C   0  0  0  0  0  0  0  0  0  0  0  0
   99.5835   11.5777  -91.1401 N   0  0  0  0  0  0  0  0  0  0  0  0
  105.7932    1.8320  -90.9255 O   0  0  0  0  0  0  0  0  0  0  0  0
   98.5412    4.2238  -91.1068 O   0  0  0  0  0  0  0  0  0  0  0  0
   99.2106   10.2045  -90.9956 C   0  0  0  0  0  0  0  0  0  0  0  0
  104.4995    3.5041  -91.6241 O   0  0  0  0  0  0  0  0  0  0  0  0
   98.5266    7.7914  -90.3048 N   0  0  0  0  0  0  0  0  0  0  0  0
  105.5294    2.2072  -93.3488 O   0  0  0  0  0  0  0  0  0  0  0  0
  103.5707    4.3535  -92.0858 C   0  0  0  0  0  0  0  0  0  0  0  0
   97.7923    8.6700  -90.1379 C   0  0  0  0  0  0  0  0  0  0  0  0
   99.7454    3.0302  -92.4473 O   0  0  0  0  0  0  0  0  0  0  0  0
  101.0842    3.9227  -92.4923 C   0  0  0  0  0  0  0  0  0  0  0  0
   99.8025    7.9638  -90.9814 C   0  0  0  0  0  0  0  0  0  0  0  0
  5  2  1  0
  5  4  2  0
  8  1  1  0
  9  7  1  0
 10  4  1  0
 11  3  1  0
 11  8  1  0
 11 10  1  0
 14  3  1  0
 15  2  2  0
 15  6  1  0
 15 12  1  0
 16  7  1  0
 18  7  1  0
 19  1  1  0
 19 13  1  0
 19 16  1  0
 20  6  2  0
 20 17  1  0
 22  1  1  0
 22  3  1  0
 22 21  1  0
 23  2  1  0
 23 10  1  0
 23 17  2  0
M  END
>  <ID>  (1) 
conformer_0

$$$$
