
     RDKit          3D

 22 24  0  0  0  0  0  0  0  0999 V2000
  100.3374    4.5153  -91.9951 C   0  0  0  0  0  0  0  0  0  0  0  0
   99.7500    7.8309  -90.7976 C   0  0  0  0  0  0  0  0  0  0  0  0
  101.6584    3.7670  -92.9252 C   0  0  0  0  0  0  0  0  0  0  0  0
  101.7498    7.7976  -91.3802 C   0  0  0  0  0  0  0  0  0  0  0  0
  101.2472    9.3301  -91.2798 N   0  0  0  0  0  0  0  0  0  0  0  0
   97.9104    9.9462  -90.5382 N   0  0  0  0  0  0  0  0  0  0  0  0
  105.6293    2.3217  -93.4226 O   0  0  0  0  0  0  0  0  0  0  0  0
  105.5626    3.1924  -91.9718 P   0  0  0  0  0  0  0  0  0  0  0  0
   99.5291   11.4746  -91.0967 N   0  0  0  0  0  0  0  0  0  0  0  0
  100.4242    5.3109  -91.1257 C   0  0  0  0  0  0  0  0  0  0  0  0
  104.5007    3.9600  -91.7594 O   0  0  0  0  0  0  0  0  0  0  0  0
  101.9292    5.2269  -91.9488 O   0  0  0  0  0  0  0  0  0  0  0  0
   99.0031    4.0631  -90.8554 O   0  0  0  0  0  0  0  0  0  0  0  0
  100.6388    7.1409  -91.1132 N   0  0  0  0  0  0  0  0  0  0  0  0
  100.1625    9.2568  -90.9797 C   0  0  0  0  0  0  0  0  0  0  0  0
   98.3196    7.6746  -90.1943 N   0  0  0  0  0  0  0  0  0  0  0  0
  105.7257    2.0061  -91.0589 O   0  0  0  0  0  0  0  0  0  0  0  0
  106.7398    3.8354  -92.4200 O   0  0  0  0  0  0  0  0  0  0  0  0
  100.4217    2.7499  -92.5407 O   0  0  0  0  0  0  0  0  0  0  0  0
  102.6198    4.1346  -92.3980 C   0  0  0  0  0  0  0  0  0  0  0  0
   97.7233    8.4965  -90.1006 C   0  0  0  0  0  0  0  0  0  0  0  0
   98.9835   10.1569  -90.9333 C   0  0  0  0  0  0  0  0  0  0  0  0
  3  1  1  0
  5  4  2  0
  8  7  1  0
 10  1  1  0
 11  8  1  0
 12 10  1  0
 13  1  1  0
 14  2  1  0
 14  4  1  0
 14 10  1  0
 15  2  2  0
 15  5  1  0
 16  2  1  0
 18  8  1  0
 19  3  1  0
 20  3  1  0
 20 11  1  0
 20 12  1  0
 20 17  1  0
 21  6  1  0
 21 16  2  0
 22  6  2  0
 22  9  1  0
 22 15  1  0
M  END
>  <ID>  (1) 
conformer_0

$$$$
