
     RDKit          3D

 20 21  0  0  0  0  0  0  0  0999 V2000
  101.9914    4.0099  -92.3923 C   0  0  0  0  0  0  0  0  0  0  0  0
   99.9562    8.6562  -90.9406 C   0  0  0  0  0  0  0  0  0  0  0  0
  103.1969    4.0798  -91.8296 C   0  0  2  0  0  0  0  0  0  0  0  0
  101.2721    7.9864  -91.1674 C   0  0  0  0  0  0  0  0  0  0  0  0
   97.7873    9.5913  -90.4227 N   0  0  0  0  0  0  0  0  0  0  0  0
  101.0272    9.3910  -91.3375 N   0  0  0  0  0  0  0  0  0  0  0  0
  102.3315    5.3142  -90.9915 O   0  0  0  0  0  0  0  0  0  0  0  0
  105.5820    2.9674  -92.0532 P   0  0  0  0  0  0  0  0  0  0  0  0
  105.5118    2.2766  -93.5799 O   0  0  0  0  0  0  0  0  0  0  0  0
  100.7630    7.1872  -90.9807 N   0  0  0  0  0  0  0  0  0  0  0  0
   99.1970   11.5190  -91.0496 N   0  0  0  0  0  0  0  0  0  0  0  0
  105.7632    1.7629  -91.1381 O   0  0  0  0  0  0  0  0  0  0  0  0
  100.6930    4.8324  -92.0458 C   0  0  1  0  0  0  0  0  0  0  0  0
   99.7270    3.7768  -92.1851 O   0  0  0  0  0  0  0  0  0  0  0  0
   99.2212   10.1520  -90.9723 C   0  0  0  0  0  0  0  0  0  0  0  0
   98.6533    7.5717  -90.1386 N   0  0  0  0  0  0  0  0  0  0  0  0
  104.5542    3.5422  -91.6241 O   0  0  0  0  0  0  0  0  0  0  0  0
  106.6849    3.6189  -92.4146 O   0  0  0  0  0  0  0  0  0  0  0  0
  101.0304    5.4027  -90.8765 C   0  0  1  0  0  0  0  0  0  0  0  0
   98.2605    8.3643  -90.2536 C   0  0  0  0  0  0  0  0  0  0  0  0
  3  1  1  0
  4  2  1  0
  6  2  1  0
  6  4  2  0
  7  3  1  0
  9  8  1  0
 10  4  1  0
  3 12  1  1
 13  1  1  0
 13 14  1  1
 15  2  1  0
 15  5  1  0
 15 11  2  3
 17  3  1  0
 17  8  1  0
 18  8  1  0
 19  7  1  0
 19 10  1  6
 19 13  1  0
 20  5  1  0
 20 16  3  0
M  END
>  <ID>  (1) 
conformer_0

$$$$
