
     RDKit          3D

 22 23  0  0  0  0  0  0  0  0999 V2000
  100.9598    5.3023  -90.9418 C   0  0  2  0  0  0  0  0  0  0  0  0
   98.2467    8.6219  -90.4033 C   0  0  0  0  0  0  0  0  0  0  0  0
  100.1452    4.9214  -92.1194 C   0  0  1  0  0  0  0  0  0  0  0  0
   99.3640    9.9679  -90.9066 C   0  0  0  0  0  0  0  0  0  0  0  0
  101.3850    9.2656  -91.2125 N   0  0  0  0  0  0  0  0  0  0  0  0
  105.6318    2.0890  -93.6666 O   0  0  0  0  0  0  0  0  0  0  0  0
   97.5572    9.7128  -90.3629 N   0  0  0  0  0  0  0  0  0  0  0  0
   99.1793   11.3980  -90.9894 N   0  0  0  0  0  0  0  0  0  0  0  0
  105.6597    2.9637  -92.0223 P   0  0  0  0  0  0  0  0  0  0  0  0
  104.6327    4.2194  -91.6481 O   0  0  0  0  0  0  0  0  0  0  0  0
  100.9188    7.0533  -91.0065 N   0  0  0  0  0  0  0  0  0  0  0  0
  101.0988    3.8606  -92.6443 C   0  0  2  0  0  0  0  0  0  0  0  0
   99.0536    4.1599  -91.2282 O   0  0  0  0  0  0  0  0  0  0  0  0
  102.0151    5.2102  -91.5755 O   0  0  0  0  0  0  0  0  0  0  0  0
   99.9438    8.4570  -90.8700 C   0  0  0  0  0  0  0  0  0  0  0  0
   98.4142    7.4535  -90.2749 N   0  0  0  0  0  0  0  0  0  0  0  0
  106.5932    3.1495  -91.8935 O   0  0  0  0  0  0  0  0  0  0  0  0
  102.5043    3.9696  -93.0702 C   0  0  0  0  0  0  0  0  0  0  0  0
   99.8378    3.2681  -93.0074 O   0  0  0  0  0  0  0  0  0  0  0  0
  101.4891    7.8933  -91.1500 C   0  0  0  0  0  0  0  0  0  0  0  0
  104.8106    2.3399  -91.7936 O   0  0  0  0  0  0  0  0  0  0  0  0
  103.0306    4.0781  -91.6484 C   0  0  2  0  0  0  0  0  0  0  0  0
  3  1  1  0
  4  2  1  0
  7  2  2  3
  8  4  1  0
  9  6  1  0
  1 11  1  6
 12  3  1  0
  3 13  1  1
 14  1  1  0
 15  4  2  3
 15  5  1  0
 16  2  1  0
 17  9  1  0
 18 12  1  0
 12 19  1  6
 20  5  2  0
 20 11  1  0
 20 15  1  0
 21  9  1  0
 22 10  1  6
 22 14  1  0
 22 18  1  0
 22 21  1  0
M  END
>  <ID>  (1) 
conformer_0

$$$$
