
     RDKit          3D

 22 24  0  0  0  0  0  0  0  0999 V2000
   97.4286    8.6652  -89.9796 C   0  0  0  0  0  0  0  0  0  0  0  0
  100.6166    5.4603  -91.0296 C   0  0  0  0  0  0  0  0  0  0  0  0
  100.5033    4.5597  -91.9512 C   0  0  0  0  0  0  0  0  0  0  0  0
  101.5989    7.8131  -91.2060 C   0  0  0  0  0  0  0  0  0  0  0  0
  101.1021    9.2673  -91.3145 N   0  0  0  0  0  0  0  0  0  0  0  0
   97.7732   10.0835  -90.4385 N   0  0  0  0  0  0  0  0  0  0  0  0
  105.3497    1.9920  -93.6696 O   0  0  0  0  0  0  0  0  0  0  0  0
  100.7954    7.2543  -90.9992 N   0  0  0  0  0  0  0  0  0  0  0  0
  105.4440    2.8358  -92.4534 P   0  0  0  0  0  0  0  0  0  0  0  0
  102.1410    5.3614  -91.3262 O   0  0  0  0  0  0  0  0  0  0  0  0
  101.8721    4.0495  -92.4353 C   0  0  0  0  0  0  0  0  0  0  0  0
   99.6314   11.5500  -90.8929 N   0  0  0  0  0  0  0  0  0  0  0  0
  104.3738    3.5196  -92.0230 O   0  0  0  0  0  0  0  0  0  0  0  0
  100.1309    3.2659  -93.0386 O   0  0  0  0  0  0  0  0  0  0  0  0
  106.5598    3.7699  -92.7598 O   0  0  0  0  0  0  0  0  0  0  0  0
   98.3018    7.8024  -90.1071 N   0  0  0  0  0  0  0  0  0  0  0  0
   98.7924   10.1698  -90.8695 C   0  0  0  0  0  0  0  0  0  0  0  0
   99.0995    4.4005  -91.1682 O   0  0  0  0  0  0  0  0  0  0  0  0
  105.9761    2.3301  -91.0643 O   0  0  0  0  0  0  0  0  0  0  0  0
  102.9715    4.1316  -91.8712 C   0  0  0  0  0  0  0  0  0  0  0  0
   99.4570    8.0406  -90.5731 C   0  0  0  0  0  0  0  0  0  0  0  0
  100.0999    9.3572  -90.9421 C   0  0  0  0  0  0  0  0  0  0  0  0
  3  2  1  0
  5  4  2  0
  6  1  2  0
  8  2  1  0
  8  4  1  0
  9  7  1  0
 10  2  1  0
 11  3  1  0
 13  9  1  0
 14  3  1  0
 15  9  1  0
 16  1  1  0
 17  6  1  0
 17 12  1  0
 18  3  1  0
 20 10  1  0
 20 11  1  0
 20 13  1  0
 20 19  1  0
 21  8  1  0
 21 16  2  0
 22  5  1  0
 22 17  2  0
 22 21  1  0
M  END
>  <ID>  (1) 
conformer_0

$$$$
