
     RDKit          3D

 21 23  0  0  0  0  0  0  0  0999 V2000
  100.0169    8.4593  -90.7888 C   0  0  0  0  0  0  0  0  0  0  0  0
  100.5923    4.7888  -92.0897 C   0  0  0  0  0  0  0  0  0  0  0  0
  103.2990    4.3411  -91.7375 C   0  0  0  0  0  0  0  0  0  0  0  0
  101.7200    7.8953  -91.2353 C   0  0  0  0  0  0  0  0  0  0  0  0
   97.7592    9.7003  -90.4300 N   0  0  0  0  0  0  0  0  0  0  0  0
  101.3657    9.2496  -91.2718 N   0  0  0  0  0  0  0  0  0  0  0  0
  105.6914    3.2531  -91.9967 P   0  0  0  0  0  4  0  0  0  0  0  0
  102.1624    5.0633  -91.0849 O   0  0  0  0  0  0  0  0  0  0  0  0
   99.5388   11.3671  -91.0580 N   0  0  0  0  0  0  0  0  0  0  0  0
  101.1381    7.1711  -91.0057 N   0  0  0  0  0  0  0  0  0  0  0  0
   99.2870    4.0516  -91.7243 O   0  0  0  0  0  0  0  0  0  0  0  0
   98.6309    7.5608  -90.1973 N   0  0  0  0  0  2  0  0  0  0  0  0
  101.0373    5.5218  -90.9179 C   0  0  0  0  0  0  0  0  0  0  0  0
  104.4400    3.4881  -92.0522 O   0  0  0  0  0  0  0  0  0  0  0  0
  106.2486    3.0420  -92.7485 O   0  0  0  0  0  0  0  0  0  0  0  0
   99.4253    9.8319  -90.8894 C   0  0  0  0  0  0  0  0  0  0  0  0
   97.8743    8.4630  -90.1029 C   0  0  0  0  0  0  0  0  0  0  0  0
  100.5670    2.5414  -93.0239 O   0  0  0  0  0  0  0  0  0  0  0  0
  106.0803    2.8897  -90.8159 O   0  0  0  0  0  1  0  0  0  0  0  0
  101.2573    3.6878  -92.6391 C   0  0  0  0  0  0  0  0  0  0  0  0
  102.6668    3.4181  -92.8071 C   0  0  0  0  0  0  0  0  0  0  0  0
  6  1  1  0
  6  4  2  0
  8  3  1  0
 10  1  1  0
 10  4  1  0
 11  2  1  0
 12  1  1  0
 13  2  1  0
 13  8  1  0
 13 10  1  0
 14  3  1  0
 14  7  1  0
 15  7  1  0
 16  1  1  0
 16  5  1  0
 16  9  1  0
 17  5  2  0
 17 12  1  0
 19  7  1  0
 20  2  1  0
 20 18  1  0
 21  3  1  0
 21 20  1  0
M  RAD  3   7   2  12   2  19   2
M  END
>  <ID>  (1) 
conformer_0

$$$$
