
     RDKit          3D

 22 24  0  0  0  0  0  0  0  0999 V2000
  100.3146    4.3476  -92.3849 C   0  0  0  0  0  0  0  0  0  0  0  0
   99.8752    7.9211  -90.7523 C   0  0  0  0  0  0  0  0  0  0  0  0
  101.7798    3.9667  -92.3221 C   0  0  0  0  0  0  0  0  0  0  0  0
  100.1748    9.3859  -90.8584 C   0  0  0  0  0  0  0  0  0  0  0  0
  101.3069    9.3675  -91.2825 N   0  0  0  0  0  0  0  0  0  0  0  0
   97.8565    9.9291  -90.3990 N   0  0  0  0  0  0  0  0  0  0  0  0
  101.8949    5.1783  -91.0673 O   0  0  0  0  0  0  0  0  0  0  0  0
  105.3993    3.1666  -92.1279 P   0  0  0  0  0  0  0  0  0  0  0  0
   99.5282   11.4675  -91.0930 N   0  0  0  0  0  0  0  0  0  0  0  0
  105.3601    2.3270  -93.4703 O   0  0  0  0  0  0  0  0  0  0  0  0
  100.8288    7.1827  -91.0637 N   0  0  0  0  0  0  0  0  0  0  0  0
  104.4506    3.8632  -91.5697 O   0  0  0  0  0  0  0  0  0  0  0  0
  102.9784    4.3707  -91.7889 C   0  0  0  0  0  0  0  0  0  0  0  0
   99.0394    4.2392  -90.9216 O   0  0  0  0  0  0  0  0  0  0  0  0
  101.8122    7.8823  -91.3002 C   0  0  0  0  0  0  0  0  0  0  0  0
  106.6378    3.8605  -92.4971 O   0  0  0  0  0  0  0  0  0  0  0  0
   98.3837    7.7738  -90.2749 N   0  0  0  0  0  0  0  0  0  0  0  0
  100.5866    5.4268  -91.4204 C   0  0  0  0  0  0  0  0  0  0  0  0
   99.9513    3.0258  -92.6287 O   0  0  0  0  0  0  0  0  0  0  0  0
  105.4132    2.1614  -91.0949 O   0  0  0  0  0  0  0  0  0  0  0  0
   97.7132    8.4573  -90.1037 C   0  0  0  0  0  0  0  0  0  0  0  0
   99.0561   10.1709  -90.8481 C   0  0  0  0  0  0  0  0  0  0  0  0
  3  1  1  0
  4  2  2  0
  5  4  1  0
 10  8  1  0
 11  2  1  0
 12  8  1  0
 13  3  1  0
 13  7  1  0
 13 12  1  0
 14  1  1  0
 15  5  2  0
 15 11  1  0
 16  8  1  0
 17  2  1  0
 18  1  1  0
 18  7  1  0
 18 11  1  0
 19  1  1  0
 20 13  1  0
 21  6  1  0
 21 17  2  0
 22  4  1  0
 22  6  2  0
 22  9  1  0
M  END
>  <ID>  (1) 
conformer_0

$$$$
