
     RDKit          3D

 22 24  0  0  0  0  0  0  0  0999 V2000
  103.1432    4.0107  -91.6192 C   0  0  0  0  0  0  0  0  0  0  0  0
   99.9619    8.5845  -90.8485 C   0  0  0  0  0  0  0  0  0  0  0  0
  100.4416    5.1090  -92.0057 C   0  0  0  0  0  0  0  0  0  0  0  0
  101.3848    7.9742  -91.3058 C   0  0  0  0  0  0  0  0  0  0  0  0
  101.3369    9.2379  -91.4183 N   0  0  0  0  0  0  0  0  0  0  0  0
   97.9706   10.1314  -90.5622 N   0  0  0  0  0  0  0  0  0  0  0  0
  105.8366    2.0827  -93.2132 O   0  0  0  0  0  0  0  0  0  0  0  0
  105.6881    3.0854  -92.0225 P   0  0  0  0  0  0  0  0  0  0  0  0
  102.1192    5.0858  -90.8083 O   0  0  0  0  0  0  0  0  0  0  0  0
  100.8776    7.1508  -91.0599 N   0  0  0  0  0  0  0  0  0  0  0  0
   99.5808   11.5740  -91.1003 N   0  0  0  0  0  0  0  0  0  0  0  0
   99.2991    3.9715  -91.0346 O   0  0  0  0  0  0  0  0  0  0  0  0
  101.0101    5.4353  -90.7115 C   0  0  0  0  0  0  0  0  0  0  0  0
  104.3343    3.6588  -91.9642 O   0  0  0  0  0  0  0  0  0  0  0  0
   98.5828    7.8580  -90.2346 N   0  0  0  0  0  2  0  0  0  0  0  0
   97.9486    8.7694  -90.1816 C   0  0  0  0  0  0  0  0  0  0  0  0
  106.5496    3.7940  -92.4398 O   0  0  0  0  0  0  0  0  0  0  0  0
  105.6658    2.3187  -90.8466 O   0  0  0  0  0  0  0  0  0  0  0  0
   99.5227   10.0817  -91.0078 C   0  0  0  0  0  0  0  0  0  0  0  0
  100.9688    3.8159  -92.4234 C   0  0  0  0  0  0  0  0  0  0  0  0
   99.9928    3.2970  -93.0133 O   0  0  0  0  0  0  0  0  0  0  0  0
  102.4691    3.7605  -92.9316 C   0  0  0  0  0  0  0  0  0  0  0  0
  4  2  1  0
  5  2  1  0
  5  4  2  0
  8  7  1  0
  9  1  1  0
 10  4  1  0
 12  3  1  0
 13  3  1  0
 13  9  1  0
 13 10  1  0
 14  1  1  0
 15  2  1  0
 16  6  2  0
 16 15  1  0
 17  8  1  0
 18  1  1  0
 18  8  1  0
 19  2  1  0
 19  6  1  0
 19 11  1  0
 20  3  1  0
 21 20  1  0
 22  1  1  0
 22 20  1  0
M  RAD  1  15   2
M  END
>  <ID>  (1) 
conformer_0

$$$$
