
     RDKit          3D

 23 26  0  0  0  0  0  0  0  0999 V2000
  100.8780    5.3742  -90.9484 C   0  0  0  0  0  0  0  0  0  0  0  0
  100.2892    9.2736  -91.0317 C   0  0  0  0  0  0  0  0  0  0  0  0
  101.1375    3.9690  -92.2401 C   0  0  0  0  0  0  0  0  0  0  0  0
   99.3127   10.1759  -90.9310 C   0  0  0  0  0  0  0  0  0  0  0  0
   97.8670    9.9354  -90.6000 N   0  0  0  0  0  0  0  0  0  0  0  0
  101.6059    9.0643  -91.3434 N   0  0  0  0  0  0  0  0  0  0  0  0
  105.6755    2.6898  -92.1211 P   0  0  0  0  0  0  0  0  0  0  0  0
   99.7747   11.3395  -91.1157 N   0  0  0  0  0  0  0  0  0  0  0  0
  105.6640    1.8081  -93.3280 O   0  0  0  0  0  0  0  0  0  0  0  0
  102.1636    4.9787  -91.0495 O   0  0  0  0  0  0  0  0  0  0  0  0
  102.5374    4.1683  -92.6700 C   0  0  0  0  0  0  0  0  0  0  0  0
  104.5124    3.3340  -91.9101 O   0  0  0  0  0  0  0  0  0  0  0  0
  101.0502    7.0123  -90.9849 N   0  0  0  0  0  0  0  0  0  0  0  0
   98.5549    7.6938  -90.3404 N   0  0  0  0  0  0  0  0  0  0  0  0
  101.9743    7.6775  -91.2976 C   0  0  0  0  0  0  0  0  0  0  0  0
   98.7502    4.2504  -91.4139 O   0  0  0  0  0  0  0  0  0  0  0  0
  106.7318    3.5581  -92.5989 O   0  0  0  0  0  0  0  0  0  0  0  0
  105.8316    2.1993  -90.8393 O   0  0  0  0  0  0  0  0  0  0  0  0
  103.4169    3.9007  -91.7218 C   0  0  0  0  0  0  0  0  0  0  0  0
   98.0650    8.5915  -90.4016 C   0  0  0  0  0  0  0  0  0  0  0  0
  100.3720    3.0382  -92.7275 O   0  0  0  0  0  0  0  0  0  0  0  0
  100.1218    7.8046  -90.8096 C   0  0  0  0  0  0  0  0  0  0  0  0
   99.9685    4.8544  -92.0043 C   0  0  0  0  0  0  0  0  0  0  0  0
  3  1  1  0
  4  2  2  0
  5  4  1  0
  6  2  1  0
  8  4  1  0
  9  7  1  0
 10  1  1  0
 11  3  1  0
 12  7  1  0
 13  1  1  0
 15  6  2  0
 15 13  1  0
 17  7  1  0
 19 10  1  0
 19 11  1  0
 19 12  1  0
 19 18  1  0
 20  5  2  0
 20 14  1  0
 21  3  1  0
 22  2  1  0
 22 13  1  0
 22 14  2  0
 23  1  1  0
 23  3  1  0
 23 16  1  0
M  END
>  <ID>  (1) 
conformer_0

$$$$
