
     RDKit          3D

 24 26  0  0  0  0  0  0  0  0999 V2000
  101.0506    5.1918  -90.7641 C   0  0  0  0  0  0  0  0  0  0  0  0
  100.3135    9.3828  -91.0434 C   0  0  0  0  0  0  0  0  0  0  0  0
   99.9915    5.3418  -91.7048 C   0  0  0  0  0  0  0  0  0  0  0  0
  100.1117    7.9528  -90.8193 C   0  0  0  0  0  0  0  0  0  0  0  0
   97.9471    9.6833  -90.5768 N   0  0  0  0  0  0  0  0  0  0  0  0
  106.4909    3.3969  -92.2319 O   0  0  0  0  0  0  0  0  0  0  0  0
  100.8747    7.1800  -91.0968 N   0  0  0  0  0  0  0  0  0  0  0  0
  101.3582    9.3654  -91.3022 N   0  0  0  0  0  0  0  0  0  0  0  0
  105.5994    2.9847  -92.1099 P   0  0  0  0  0  0  0  0  0  0  0  0
  103.1922    4.0497  -91.3914 C   0  0  0  0  0  0  0  0  0  0  0  0
   99.2680   11.5652  -90.9971 N   0  0  0  0  0  0  0  0  0  0  0  0
  104.3952    3.8348  -92.0722 O   0  0  0  0  0  0  0  0  0  0  0  0
  102.1592    5.3407  -91.3405 O   0  0  0  0  0  0  0  0  0  0  0  0
  100.2683    3.6312  -93.3253 O   0  0  0  0  0  0  0  0  0  0  0  0
   99.9480    4.0348  -89.9198 O   0  0  0  0  0  0  0  0  0  0  0  0
  101.8480    7.8729  -91.5240 C   0  0  0  0  0  3  0  0  0  0  0  0
   98.0314    8.7446  -90.3271 C   0  0  0  0  0  0  0  0  0  0  0  0
   98.6068    7.7319  -90.3119 N   0  0  0  0  0  0  0  0  0  0  0  0
  100.7690    4.1283  -92.1604 C   0  0  0  0  0  0  0  0  0  0  0  0
  105.7100    2.0799  -93.5334 O   0  0  0  0  0  0  0  0  0  0  0  0
   98.8200    5.0222  -92.4673 O   0  0  0  0  0  0  0  0  0  0  0  0
  105.0876    2.1896  -91.3251 O   0  0  0  0  0  0  0  0  0  0  0  0
  102.4381    3.8976  -92.5555 C   0  0  0  0  0  0  0  0  0  0  0  0
   99.2580   10.3454  -90.9647 C   0  0  0  0  0  0  0  0  0  0  0  0
  3  1  1  0
  4  2  1  0
  7  4  2  0
  8  2  2  0
  9  6  1  0
 12 10  1  0
 13  1  1  0
 13 10  1  0
 15  1  1  0
 16  7  1  0
 16  8  1  0
 17  5  1  0
 18  4  1  0
 18 17  2  0
 19  3  1  0
 19 14  1  0
 19 16  1  0
 20  9  1  0
 21  3  1  0
 22  9  1  0
 22 10  1  0
 23 10  1  0
 23 19  1  0
 24  2  1  0
 24  5  2  0
 24 11  1  0
M  RAD  1  16   2
M  END
>  <ID>  (1) 
conformer_0

$$$$
