
     RDKit          3D

 21 22  0  0  0  0  0  0  0  0999 V2000
  101.7882    3.9034  -92.4983 C   0  0  0  0  0  0  0  0  0  0  0  0
   99.9263    8.4612  -90.9648 C   0  0  2  0  0  0  0  0  0  0  0  0
  100.3359    4.4003  -92.2798 C   0  0  0  0  0  0  0  0  0  0  0  0
   99.4552   10.1141  -91.0354 C   0  0  0  0  0  0  0  0  0  0  0  0
  101.2604    9.3801  -91.2675 N   0  0  0  0  0  0  0  0  0  0  0  0
   97.9350    9.7113  -90.4845 N   0  0  0  0  0  0  0  0  0  0  0  0
  105.5954    2.3690  -93.4622 O   0  0  0  0  0  0  0  0  0  0  0  0
  105.5321    3.0747  -92.1400 P   0  0  0  0  0  0  0  0  0  0  0  0
  100.7380    7.2022  -91.1606 N   0  0  0  0  0  0  0  0  0  0  0  0
   99.1738   11.4276  -91.0979 N   0  0  0  0  0  0  0  0  0  0  0  0
  102.8024    4.1961  -91.6874 C   0  0  2  0  0  0  0  0  0  0  0  0
  101.8800    5.2380  -90.9707 O   0  0  0  0  0  0  0  0  0  0  0  0
   99.0006    3.8968  -91.5121 O   0  0  0  0  0  0  0  0  0  0  0  0
  104.1151    3.6252  -91.8597 O   0  0  0  0  0  0  0  0  0  0  0  0
  101.3910    8.0118  -91.2685 C   0  0  0  0  0  0  0  0  0  0  0  0
  106.2864    4.0910  -92.1581 O   0  0  0  0  0  0  0  0  0  0  0  0
  100.4175    2.5847  -92.9628 O   0  0  0  0  0  0  0  0  0  0  0  0
  105.5749    2.0928  -91.1781 O   0  0  0  0  0  0  0  0  0  0  0  0
   98.4021    7.6609  -90.3921 N   0  0  0  0  0  0  0  0  0  0  0  0
  100.5105    5.3260  -91.4020 C   0  0  2  0  0  0  0  0  0  0  0  0
   98.1068    8.7923  -90.3876 C   0  0  0  0  0  0  0  0  0  0  0  0
  3  1  1  0
  4  2  1  0
  5  2  1  0
  6  4  1  0
  8  7  1  0
  2  9  1  6
 10  4  2  3
 11  1  1  0
 12 11  1  0
 13  3  1  0
 11 14  1  6
 15  5  2  0
 15  9  1  0
 16  8  1  0
 17  3  1  0
 18  8  1  0
 18 11  1  0
 20  3  1  0
 20  9  1  6
 20 12  1  0
 21  6  1  0
 21 19  3  0
M  END
>  <ID>  (1) 
conformer_0

$$$$
