
     RDKit          3D

 23 25  0  0  0  0  0  0  0  0999 V2000
   97.6539    8.8396  -90.2040 C   0  0  0  0  0  0  0  0  0  0  0  0
  103.5716    3.9831  -91.9729 C   0  0  0  0  0  0  0  0  0  0  0  0
  102.2100    3.5106  -92.6888 C   0  0  0  0  0  0  0  0  0  0  0  0
   99.0158   10.2777  -91.0007 C   0  0  0  0  0  0  0  0  0  0  0  0
   97.9531   10.1010  -90.6424 N   0  0  0  0  0  0  0  0  0  0  0  0
  105.6529    2.7755  -92.1887 P   0  0  0  0  0  0  0  0  0  0  0  0
  105.7349    1.9541  -93.3451 O   0  0  0  0  0  0  0  0  0  0  0  0
  102.0803    5.0111  -91.1175 O   0  0  0  0  0  0  0  0  0  0  0  0
  101.4938    4.3045  -91.7851 C   0  0  0  0  0  0  0  0  0  0  0  0
  100.8975    7.1534  -90.9318 N   0  0  0  0  0  0  0  0  0  0  0  0
  101.4096    9.1085  -91.3214 N   0  0  0  0  0  0  0  0  0  0  0  0
   99.5976   11.5137  -91.2098 N   0  0  0  0  0  0  0  0  0  0  0  0
  105.6570    1.8563  -90.8606 O   0  0  0  0  0  0  0  0  0  0  0  0
   98.9737    4.2963  -91.3449 O   0  0  0  0  0  0  0  0  0  0  0  0
   98.4835    7.8548  -90.2878 N   0  0  0  0  0  0  0  0  0  0  0  0
  100.3317    2.8972  -93.0355 O   0  0  0  0  0  0  0  0  0  0  0  0
  101.8325    7.6920  -91.2879 C   0  0  0  0  0  0  0  0  0  0  0  0
  106.6229    3.6295  -92.3804 O   0  0  0  0  0  0  0  0  0  0  0  0
  100.1423    4.4902  -92.1206 C   0  0  0  0  0  0  0  0  0  0  0  0
  104.3882    3.2396  -91.9776 O   0  0  0  0  0  0  0  0  0  0  0  0
   99.8539    7.9998  -90.7199 C   0  0  0  0  0  0  0  0  0  0  0  0
  100.2115    9.3245  -91.0625 C   0  0  0  0  0  0  0  0  0  0  0  0
  100.4538    5.6150  -90.8718 C   0  0  0  0  0  0  0  0  0  0  0  0
  3  2  1  0
  5  1  2  0
  5  4  1  0
  7  6  1  0
  9  3  1  0
  9  8  1  0
 12  4  1  0
 13  2  1  0
 15  1  1  0
 17 10  1  0
 17 11  2  0
 18  6  1  0
 19  9  1  0
 19 14  1  0
 19 16  1  0
 20  2  1  0
 20  6  1  0
 21 10  1  0
 21 15  2  0
 22  4  2  0
 22 11  1  0
 22 21  1  0
 23  8  1  0
 23 10  1  0
 23 19  1  0
M  END
>  <ID>  (1) 
conformer_0

$$$$
