
     RDKit          3D

 22 24  0  0  0  0  0  0  0  0999 V2000
  100.4467    4.6102  -92.0621 C   0  0  0  0  0  0  0  0  0  0  0  0
   99.7932    8.2000  -90.7667 C   0  0  0  0  0  0  0  0  0  0  0  0
  100.5683    5.4852  -91.2931 C   0  0  0  0  0  0  0  0  0  0  0  0
   99.9833    9.7357  -90.9238 C   0  0  0  0  0  0  0  0  0  0  0  0
  101.0990    9.5058  -91.3387 N   0  0  0  0  0  0  0  0  0  0  0  0
   97.6952    9.9487  -90.4648 N   0  0  0  0  0  0  0  0  0  0  0  0
  100.7099    7.3276  -91.0911 N   0  0  0  0  0  0  0  0  0  0  0  0
   99.2080   11.7546  -90.8029 N   0  0  0  0  0  0  0  0  0  0  0  0
  105.5461    1.9393  -92.8163 O   0  0  0  0  0  0  0  0  0  0  0  0
  105.6741    2.9779  -91.9917 P   0  0  0  0  0  0  0  0  0  0  0  0
  102.0483    5.4834  -91.7326 O   0  0  0  0  0  0  0  0  0  0  0  0
   99.9050    3.1298  -92.9348 O   0  0  0  0  0  0  0  0  0  0  0  0
  104.3064    3.8462  -91.8122 O   0  0  0  0  0  0  0  0  0  0  0  0
  102.7819    4.1118  -91.4339 C   0  0  0  0  0  0  0  0  0  0  0  0
  101.5493    8.0856  -91.2968 C   0  0  0  0  0  0  0  0  0  0  0  0
   99.3673    4.2120  -90.6762 O   0  0  0  0  0  0  0  0  0  0  0  0
  106.7772    3.7206  -92.5627 O   0  0  0  0  0  0  0  0  0  0  0  0
   98.4087    7.8253  -90.0904 N   0  0  0  0  0  0  0  0  0  0  0  0
  105.8645    2.6837  -90.8059 O   0  0  0  0  0  0  0  0  0  0  0  0
  101.6985    3.8699  -92.5168 C   0  0  0  0  0  0  0  0  0  0  0  0
   97.8851    8.7772  -90.1302 C   0  0  0  0  0  0  0  0  0  0  0  0
   98.8177   10.4949  -90.8326 C   0  0  0  0  0  0  0  0  0  0  0  0
  3  1  1  0
  4  2  2  0
  5  4  1  0
  7  2  1  0
  7  3  1  0
 10  9  1  0
 11  3  1  0
 12  1  1  0
 14 11  1  0
 14 13  1  0
 15  5  2  0
 15  7  1  0
 16  1  1  0
 17 10  1  0
 18  2  1  0
 19 10  1  0
 19 14  1  0
 20  1  1  0
 20 14  1  0
 21  6  1  0
 21 18  1  0
 22  4  1  0
 22  6  1  0
 22  8  1  0
M  END
>  <ID>  (1) 
conformer_0

$$$$
