
     RDKit          3D

 22 24  0  0  0  0  0  0  0  0999 V2000
  101.7636    3.9377  -92.5624 C   0  0  0  0  0  0  0  0  0  0  0  0
   97.8192    8.4328  -90.1813 C   0  0  0  0  0  0  0  0  0  0  0  0
  102.9359    3.8753  -92.4312 C   0  0  0  0  0  0  0  0  0  0  0  0
   98.9579   10.0912  -90.8846 C   0  0  0  0  0  0  0  0  0  0  0  0
  101.4528    9.1522  -91.3001 N   0  0  0  0  0  0  0  0  0  0  0  0
   97.9448    9.7979  -90.5674 N   0  0  0  0  0  0  0  0  0  0  0  0
  106.3372    3.9915  -92.0292 O   0  0  0  0  0  0  0  0  0  0  0  0
  105.4683    3.1085  -92.1776 P   0  0  0  0  0  0  0  0  0  0  0  0
  105.3986    1.7927  -91.1525 O   0  0  0  0  0  0  0  0  0  0  0  0
   99.5743   11.2923  -91.1254 N   0  0  0  0  0  0  0  0  0  0  0  0
  101.0516    7.1061  -90.8898 N   0  0  0  0  0  0  0  0  0  0  0  0
  100.4029    4.6703  -92.0127 C   0  0  0  0  0  0  0  0  0  0  0  0
   98.9720    4.3702  -91.4393 O   0  0  0  0  0  0  0  0  0  0  0  0
  102.1937    5.1807  -91.5014 O   0  0  0  0  0  0  0  0  0  0  0  0
  102.2325    7.5891  -91.1795 C   0  0  0  0  0  0  0  0  0  0  0  0
  104.3195    3.6522  -92.1085 O   0  0  0  0  0  0  0  0  0  0  0  0
   98.5293    7.6758  -90.2794 N   0  0  0  0  0  0  0  0  0  0  0  0
  105.7578    2.4244  -93.4435 O   0  0  0  0  0  0  0  0  0  0  0  0
  100.2929    2.8852  -92.7936 O   0  0  0  0  0  0  0  0  0  0  0  0
  100.5789    5.3785  -91.0991 C   0  0  0  0  0  0  0  0  0  0  0  0
  100.3174    9.2972  -90.9475 C   0  0  0  0  0  0  0  0  0  0  0  0
  100.1450    7.8212  -90.7456 C   0  0  0  0  0  0  0  0  0  0  0  0
  3  1  1  0
  6  2  2  0
  6  4  1  0
  8  7  1  0
  9  3  1  0
 10  4  1  0
 12  1  1  0
 13 12  1  0
 14  1  1  0
 15  5  2  0
 15 11  1  0
 16  3  1  0
 16  8  1  0
 17  2  1  0
 18  8  1  0
 19  1  1  0
 20 11  1  0
 20 12  1  0
 20 14  1  0
 21  4  2  0
 21  5  1  0
 22 11  1  0
 22 17  2  0
 22 21  1  0
M  END
>  <ID>  (1) 
conformer_0

$$$$
