
     RDKit          3D

 23 25  0  0  0  0  0  0  0  0999 V2000
  100.9162    5.5006  -91.0298 C   0  0  0  0  0  0  0  0  0  0  0  0
   99.9207    9.2886  -90.9758 C   0  0  0  0  0  0  0  0  0  0  0  0
  100.0486    4.6152  -91.5601 C   0  0  0  0  0  0  0  0  0  0  0  0
  100.0456    8.0193  -90.8213 C   0  0  0  0  0  0  0  0  0  0  0  0
  101.2814    9.3268  -91.4897 N   0  0  0  0  0  0  0  0  0  0  0  0
   98.3500    7.9079  -90.0273 N   0  0  0  0  0  0  0  0  0  0  0  0
   99.1950   11.4984  -91.2550 N   0  0  0  0  0  0  0  0  0  0  0  0
  101.0922    7.2114  -91.1183 N   0  0  0  0  0  0  0  0  0  0  0  0
  102.3005    5.1651  -91.2090 O   0  0  0  0  0  0  0  0  0  0  0  0
  101.2779    4.2751  -92.6016 C   0  0  0  0  0  0  0  0  0  0  0  0
  106.0089    2.9808  -92.0731 P   0  0  0  0  0  0  0  0  0  0  0  0
  107.1281    3.9148  -92.4164 O   0  0  0  0  0  0  0  0  0  0  0  0
  101.9944    7.8646  -91.4699 C   0  0  0  0  0  0  0  0  0  0  0  0
  104.7435    3.5560  -92.0013 O   0  0  0  0  0  0  0  0  0  0  0  0
  100.0987    3.2539  -92.9103 O   0  0  0  0  0  0  0  0  0  0  0  0
   97.5397    9.9269  -90.4149 N   0  0  0  0  0  0  0  0  0  0  0  0
  105.9772    2.1510  -93.3251 O   0  0  0  0  0  0  0  0  0  0  0  0
   98.9549    4.2827  -90.8539 O   0  0  0  0  0  0  0  0  0  0  0  0
   97.5511    8.6092  -89.8683 C   0  0  0  0  0  0  0  0  0  0  0  0
  106.0916    2.2422  -90.8342 O   0  0  0  0  0  0  0  0  0  0  0  0
  102.4378    3.7005  -92.0720 C   0  0  0  0  0  0  0  0  0  0  0  0
  103.6641    4.0653  -92.0281 C   0  0  0  0  0  0  0  0  0  0  0  0
   98.7658   10.0717  -90.8723 C   0  0  0  0  0  0  0  0  0  0  0  0
  3  1  1  0
  4  2  2  0
  5  2  1  0
  6  4  1  0
  8  1  1  0
  8  4  1  0
  9  1  1  0
 10  3  1  0
 12 11  1  0
 13  5  2  0
 13  8  1  0
 14 11  1  0
 15 10  1  0
 17 11  1  0
 18  3  1  0
 19  6  2  0
 19 16  1  0
 21  9  1  0
 21 10  1  0
 22 14  1  0
 22 20  1  0
 22 21  1  0
 23  2  1  0
 23  7  1  0
 23 16  2  0
M  END
>  <ID>  (1) 
conformer_0

$$$$
