
     RDKit          3D

 23 26  0  0  0  0  0  0  0  0999 V2000
   97.9431    8.4584  -90.1520 C   0  0  0  0  0  0  0  0  0  0  0  0
   99.8693    5.0369  -91.4702 C   0  0  0  0  0  0  0  0  0  0  0  0
  101.2006    5.5244  -91.2679 C   0  0  0  0  0  0  0  0  0  0  0  0
  102.1519    8.1270  -91.4698 C   0  0  0  0  0  0  0  0  0  0  0  0
  101.6962    9.4862  -91.4173 N   0  0  0  0  0  0  0  0  0  0  0  0
   98.7612    7.6101  -90.2534 N   0  0  0  0  0  0  0  0  0  0  0  0
  105.6726    2.8896  -92.1483 P   0  0  0  0  0  0  0  0  0  0  0  0
  102.2082    5.2639  -90.9488 O   0  0  0  0  0  0  0  0  0  0  0  0
   99.4610   11.6568  -91.0137 N   0  0  0  0  0  0  0  0  0  0  0  0
  101.0279    7.3454  -91.1043 N   0  0  0  0  0  0  0  0  0  0  0  0
  104.5437    3.5153  -91.3555 O   0  0  0  0  0  0  0  0  0  0  0  0
  103.2411    3.9469  -91.1976 C   0  0  0  0  0  0  0  0  0  0  0  0
   99.1878   10.1541  -90.8957 C   0  0  0  0  0  0  0  0  0  0  0  0
  100.1982    3.7660  -93.2118 O   0  0  0  0  0  0  0  0  0  0  0  0
  105.6124    1.2869  -92.3009 O   0  0  0  0  0  0  0  0  0  0  0  0
   99.1927    4.1801  -90.8205 O   0  0  0  0  0  0  0  0  0  0  0  0
  106.6390    3.6260  -92.1086 O   0  0  0  0  0  0  0  0  0  0  0  0
   98.1004    9.6841  -90.5464 N   0  0  0  0  0  0  0  0  0  0  0  0
  100.4418    9.5486  -91.1003 C   0  0  0  0  0  0  0  0  0  0  0  0
  102.7551    3.8831  -92.4654 C   0  0  0  0  0  0  0  0  0  0  0  0
  105.2560    2.9460  -93.1084 O   0  0  0  0  0  0  0  0  0  0  0  0
  101.0270    4.0944  -92.1858 C   0  0  0  0  0  0  0  0  0  0  0  0
  100.2035    8.0036  -90.8971 C   0  0  0  0  0  0  0  0  0  0  0  0
  3  2  1  0
  5  4  2  0
  6  1  2  0
  8  3  1  0
 10  3  1  0
 10  4  1  0
 12  8  1  0
 12 11  1  0
 13  9  1  0
 15  7  1  0
 16  2  1  0
 17  7  1  0
 18  1  1  0
 18 13  2  0
 19  5  1  0
 19 13  1  0
 20 12  1  0
 21  7  1  0
 21 20  1  0
 22  2  1  0
 22  3  1  0
 22 14  1  0
 22 20  1  0
 23  6  1  0
 23 10  1  0
 23 19  2  0
M  END
>  <ID>  (1) 
conformer_0

$$$$
