
     RDKit          3D

 23 26  0  0  0  0  0  0  0  0999 V2000
  100.4776    9.3916  -91.0255 C   0  0  0  0  0  0  0  0  0  0  0  0
  100.9982    3.9602  -92.1186 C   0  0  0  0  0  0  0  0  0  0  0  0
  100.8217    5.4801  -90.9402 C   0  0  0  0  0  0  0  0  0  0  0  0
  102.0054    7.8453  -91.3774 C   0  0  0  0  0  0  0  0  0  0  0  0
  101.7005    9.2518  -91.3678 N   0  0  0  0  0  0  0  0  0  0  0  0
   98.1562    9.8899  -90.6647 N   0  0  0  0  0  0  0  0  0  0  0  0
  105.4067    1.8638  -93.4479 O   0  0  0  0  0  0  0  0  0  0  0  0
  105.4959    2.6344  -92.1355 P   0  0  0  0  0  0  0  0  0  0  0  0
  102.0536    5.1216  -90.8716 O   0  0  0  0  0  0  0  0  0  0  0  0
   99.9187   11.4661  -90.8903 N   0  0  0  0  0  0  0  0  0  0  0  0
  102.4572    4.3512  -92.5486 C   0  0  0  0  0  0  0  0  0  0  0  0
  104.3148    3.3366  -91.8318 O   0  0  0  0  0  0  0  0  0  0  0  0
  100.8941    7.1771  -91.0693 N   0  0  0  0  0  0  0  0  0  0  0  0
   99.2990   10.0752  -90.8798 C   0  0  0  0  0  0  0  0  0  0  0  0
   98.8881    4.2920  -91.8890 O   0  0  0  0  0  0  0  0  0  0  0  0
   98.5638    7.6835  -90.4133 N   0  0  0  0  0  0  0  0  0  0  0  0
  106.5413    3.4582  -92.6623 O   0  0  0  0  0  0  0  0  0  0  0  0
  105.7681    2.0371  -90.9096 O   0  0  0  0  0  0  0  0  0  0  0  0
   97.8400    8.5150  -90.2833 C   0  0  0  0  0  0  0  0  0  0  0  0
  103.1832    3.9058  -91.3375 C   0  0  0  0  0  0  0  0  0  0  0  0
  100.3901    3.0374  -92.9738 O   0  0  0  0  0  0  0  0  0  0  0  0
  100.0638    7.8782  -90.9040 C   0  0  0  0  0  0  0  0  0  0  0  0
  100.0022    5.1129  -92.0634 C   0  0  0  0  0  0  0  0  0  0  0  0
  3  2  1  0
  5  1  1  0
  5  4  2  0
  8  7  1  0
  9  3  1  0
 11  2  1  0
 13  3  1  0
 13  4  1  0
 14  1  2  0
 14  6  1  0
 14 10  1  0
 17  8  1  0
 18  8  1  0
 19  6  2  0
 19 16  1  0
 20  9  1  0
 20 11  1  0
 20 12  1  0
 20 18  1  0
 21  2  1  0
 22  1  1  0
 22 13  1  0
 22 16  2  0
 23  2  1  0
 23  3  1  0
 23 15  1  0
M  END
>  <ID>  (1) 
conformer_0

$$$$
