
     RDKit          3D

 22 24  0  0  0  0  0  0  0  0999 V2000
  102.9043    4.1200  -91.8312 C   0  0  0  0  0  0  0  0  0  0  0  0
   97.7713    8.5347  -90.0837 C   0  0  0  0  0  0  0  0  0  0  0  0
  101.9695    3.8300  -92.7516 C   0  0  0  0  0  0  0  0  0  0  0  0
  101.6614    8.0655  -91.4597 C   0  0  0  0  0  0  0  0  0  0  0  0
  101.2113    9.5454  -91.2227 N   0  0  0  0  0  0  0  0  0  0  0  0
   97.7640    9.7839  -90.3405 N   0  0  0  0  0  0  0  0  0  0  0  0
  100.6143    7.2840  -91.0817 N   0  0  0  0  0  0  0  0  0  0  0  0
  101.8753    5.5116  -91.6291 O   0  0  0  0  0  0  0  0  0  0  0  0
  105.4061    1.7799  -93.3901 O   0  0  0  0  0  0  0  0  0  0  0  0
  106.5518    1.8092  -91.2415 O   0  0  0  0  0  1  0  0  0  0  0  0
  105.5902    2.5274  -92.3531 P   0  0  0  0  0  4  0  0  0  0  0  0
   99.1172   11.5886  -90.9851 N   0  0  0  0  0  0  0  0  0  0  0  0
   98.9651    4.3556  -91.1770 O   0  0  0  0  0  0  0  0  0  0  0  0
  104.4852    3.0229  -91.9658 O   0  0  0  0  0  0  0  0  0  0  0  0
  100.6262    5.5780  -91.1483 C   0  0  0  0  0  0  0  0  0  0  0  0
   99.8071    7.9390  -90.7589 C   0  0  0  0  0  0  0  0  0  0  0  0
  106.5777    3.6141  -92.7358 O   0  0  0  0  0  0  0  0  0  0  0  0
   98.3089    7.7782  -90.2165 N   0  0  0  0  0  0  0  0  0  0  0  0
  100.0422    3.1819  -92.7148 O   0  0  0  0  0  0  0  0  0  0  0  0
  100.4006    4.6287  -92.0377 C   0  0  0  0  0  0  0  0  0  0  0  0
   98.9606   10.2351  -90.9032 C   0  0  0  0  0  0  0  0  0  0  0  0
  100.1138    9.4471  -90.9082 C   0  0  0  0  0  0  0  0  0  0  0  0
  3  1  1  0
  5  4  2  0
  6  2  2  0
  7  4  1  0
  8  1  1  0
 11  9  1  0
 11 10  1  0
 14  1  1  0
 14 11  1  0
 15  7  1  0
 15  8  1  0
 16  7  1  0
 17 11  1  0
 18  2  1  0
 18 16  2  0
 20  3  1  0
 20 13  1  0
 20 15  1  0
 20 19  1  0
 21  6  1  0
 21 12  1  0
 22  5  1  0
 22 16  1  0
 22 21  2  0
M  RAD  2  10   2  11   2
M  END
>  <ID>  (1) 
conformer_0

$$$$
