
     RDKit          3D

 23 25  0  0  0  0  0  0  0  0999 V2000
  100.7346    5.5779  -91.0623 C   0  0  0  0  0  0  0  0  0  0  0  0
   99.9445    9.3426  -90.9984 C   0  0  0  0  0  0  0  0  0  0  0  0
  100.0711    4.4865  -91.8699 C   0  0  0  0  0  0  0  0  0  0  0  0
  101.2504    9.3410  -91.3568 N   0  0  0  0  0  0  0  0  0  0  0  0
  101.6131    7.8849  -91.4359 C   0  0  0  0  0  0  0  0  0  0  0  0
   97.6424   10.0183  -90.4359 N   0  0  0  0  0  0  0  0  0  0  0  0
  107.1010    3.4220  -92.0968 O   0  0  0  0  0  0  0  0  0  0  0  0
   99.3807   11.5059  -91.1434 N   0  0  0  0  0  0  0  0  0  0  0  0
  100.7278    7.1745  -91.1209 N   0  0  0  0  0  0  0  0  0  0  0  0
  106.0110    2.5576  -91.9194 P   0  0  0  0  0  0  0  0  0  0  0  0
  102.1134    5.1984  -91.1391 O   0  0  0  0  0  0  0  0  0  0  0  0
  105.8489    1.4175  -91.0120 O   0  0  0  0  0  0  0  0  0  0  0  0
  103.7496    4.1323  -91.7186 C   0  0  0  0  0  0  0  0  0  0  0  0
   98.9881    4.0538  -91.5112 O   0  0  0  0  0  0  0  0  0  0  0  0
   98.3239    7.7987  -90.1753 N   0  0  0  0  0  0  0  0  0  0  0  0
   99.6832    7.9756  -90.7374 C   0  0  0  0  0  0  0  0  0  0  0  0
  105.8101    2.2296  -93.3754 O   0  0  0  0  0  0  0  0  0  0  0  0
  104.7741    3.1761  -91.5032 O   0  0  0  0  0  0  0  0  0  0  0  0
  100.2854    3.3909  -93.3497 O   0  0  0  0  0  0  0  0  0  0  0  0
   98.8450   10.1578  -90.8819 C   0  0  0  0  0  0  0  0  0  0  0  0
  102.1294    3.9194  -91.8712 C   0  0  0  0  0  0  0  0  0  0  0  0
   97.4763    8.6529  -89.9998 C   0  0  0  0  0  0  0  0  0  0  0  0
  101.5616    4.1101  -92.9768 C   0  0  0  0  0  0  0  0  0  0  0  0
  3  1  1  0
  4  2  1  0
  5  4  2  0
  9  1  1  0
  9  5  1  0
 10  7  1  0
 11  1  1  0
 13 12  1  0
 14  3  1  0
 16  2  2  0
 16  9  1  0
 16 15  1  0
 17 10  1  0
 18 10  1  0
 18 13  1  0
 20  2  1  0
 20  6  2  0
 20  8  1  0
 21 11  1  0
 21 13  1  0
 22  6  1  0
 22 15  2  0
 23  3  1  0
 23 19  1  0
 23 21  1  0
M  END
>  <ID>  (1) 
conformer_0

$$$$
