
     RDKit          3D

 21 22  0  0  0  0  0  0  0  0999 V2000
   98.1976    8.8494  -90.4414 C   0  0  0  0  0  0  0  0  0  0  0  0
  100.5558    4.5968  -92.2748 C   0  0  2  0  0  0  0  0  0  0  0  0
  101.8003    3.8669  -92.5436 C   0  0  0  0  0  0  0  0  0  0  0  0
  100.0573    8.5395  -90.9021 C   0  0  2  0  0  0  0  0  0  0  0  0
  101.4685    9.1797  -91.3540 N   0  0  0  0  0  0  0  0  0  0  0  0
   97.9095   10.2079  -90.6127 N   0  0  0  0  0  0  0  0  0  0  0  0
  101.0181    7.1324  -91.0419 N   0  0  0  0  0  0  0  0  0  0  0  0
  106.6306    3.4941  -92.3833 O   0  0  0  0  0  0  0  0  0  0  0  0
  103.1037    3.9539  -91.7643 C   0  0  1  0  0  0  0  0  0  0  0  0
  105.5795    2.6712  -92.0196 P   0  0  0  0  0  0  0  0  0  0  0  0
   99.6746   11.5693  -91.1096 N   0  0  0  0  0  0  0  0  0  0  0  0
  104.3020    3.5327  -91.8275 O   0  0  0  0  0  0  0  0  0  0  0  0
  101.5864    7.8490  -91.2455 C   0  0  0  0  0  0  0  0  0  0  0  0
   99.0522    4.5927  -90.8969 O   0  0  0  0  0  0  0  0  0  0  0  0
   98.4775    7.9024  -90.3203 N   0  0  0  0  0  0  0  0  0  0  0  0
  102.1096    5.0342  -91.2669 O   0  0  0  0  0  0  0  0  0  0  0  0
  105.6395    2.1860  -93.3709 O   0  0  0  0  0  0  0  0  0  0  0  0
   99.5923   10.0580  -91.0272 C   0  0  0  0  0  0  0  0  0  0  0  0
  100.6655    5.2693  -91.2569 C   0  0  1  0  0  0  0  0  0  0  0  0
   99.6434    3.4232  -92.6464 O   0  0  0  0  0  0  0  0  0  0  0  0
  105.2850    1.8225  -91.1634 O   0  0  0  0  0  0  0  0  0  0  0  0
  3  2  1  0
  5  4  1  0
  6  1  1  0
  9  3  1  0
 10  8  1  0
  9 12  1  6
 13  4  1  0
 13  5  2  0
 13  7  1  0
 15  1  3  0
 16  9  1  0
 17 10  1  0
  4 18  1  6
 18  6  1  0
 18 11  2  3
 19  2  1  0
 19  7  1  0
 19 14  1  1
 19 16  1  0
  2 20  1  1
 21  9  1  0
 21 10  1  0
M  END
>  <ID>  (1) 
conformer_0

$$$$
