
     RDKit          3D

 22 24  0  0  0  0  0  0  0  0999 V2000
  101.8654    3.8188  -92.4320 C   0  0  0  0  0  0  0  0  0  0  0  0
  101.0164    8.3853  -91.1659 C   0  0  0  0  0  0  0  0  0  0  0  0
  103.0169    4.0105  -92.0584 C   0  0  0  0  0  0  0  0  0  0  0  0
  102.4303    7.5131  -91.3494 C   0  0  0  0  0  0  0  0  0  0  0  0
   98.6891    7.6986  -90.3062 N   0  0  0  0  0  0  0  0  0  0  0  0
  101.7986    9.1584  -91.4145 N   0  0  0  0  0  0  0  0  0  0  0  0
  105.6036    2.1578  -93.4132 O   0  0  0  0  0  0  0  0  0  0  0  0
  105.4550    2.9663  -92.2880 P   0  0  0  0  0  0  0  0  0  0  0  0
   99.7999   11.3200  -91.1033 N   0  0  0  0  0  0  0  0  0  0  0  0
   97.5924    8.7358  -90.1498 C   0  0  0  0  0  0  0  0  0  0  0  0
  101.2067    7.1368  -91.1363 N   0  0  0  0  0  0  0  0  0  0  0  0
  100.2649    4.5527  -92.0714 C   0  0  0  0  0  0  0  0  0  0  0  0
  104.2908    3.6996  -92.1386 O   0  0  0  0  0  0  0  0  0  0  0  0
  102.0391    5.1293  -91.3141 O   0  0  0  0  0  0  0  0  0  0  0  0
   98.9917    4.3632  -90.7759 O   0  0  0  0  0  0  0  0  0  0  0  0
   98.0556    9.8128  -90.6597 N   0  0  0  0  0  0  0  0  0  0  0  0
   99.5913   10.0811  -91.0127 C   0  0  0  0  0  0  0  0  0  0  0  0
  106.5913    3.5989  -92.4528 O   0  0  0  0  0  0  0  0  0  0  0  0
   99.6239    3.1405  -92.3722 O   0  0  0  0  0  0  0  0  0  0  0  0
  100.6713    5.2680  -91.2132 C   0  0  0  0  0  0  0  0  0  0  0  0
  105.2255    2.2617  -91.0772 O   0  0  0  0  0  0  0  0  0  0  0  0
   99.6148    8.4464  -90.7953 C   0  0  0  0  0  0  0  0  0  0  0  0
  3  1  1  0
  4  2  1  0
  6  2  1  0
  8  7  1  0
 10  5  2  0
 11  2  1  0
 11  4  1  0
 12  1  1  0
 13  3  1  0
 13  8  1  0
 14  3  1  0
 15 12  1  0
 16 10  1  0
 17  9  1  0
 17 16  2  0
 18  8  1  0
 19 12  1  0
 20 11  1  0
 20 12  1  0
 20 14  1  0
 21  3  1  0
 22  2  1  0
 22  5  1  0
 22 17  1  0
M  END
>  <ID>  (1) 
conformer_0

$$$$
