
     RDKit          3D

 21 22  0  0  0  0  0  0  0  0999 V2000
   99.9623    8.6848  -90.9897 C   0  0  2  0  0  0  0  0  0  0  0  0
  101.7885    4.1231  -92.4318 C   0  0  1  0  0  0  0  0  0  0  0  0
  100.4223    4.6866  -92.0230 C   0  0  1  0  0  0  0  0  0  0  0  0
  101.4980    8.2702  -91.3765 C   0  0  0  0  0  0  0  0  0  0  0  0
  101.2507    9.6196  -91.4004 N   0  0  0  0  0  0  0  0  0  0  0  0
   97.6512    9.7372  -90.4678 N   0  0  0  0  0  0  0  0  0  0  0  0
  102.0769    5.3723  -91.1500 O   0  0  0  0  0  0  0  0  0  0  0  0
  105.6584    2.9830  -91.9332 P   0  0  0  0  0  0  0  0  0  0  0  0
  106.7504    3.8463  -92.3175 O   0  0  0  0  0  0  0  0  0  0  0  0
  100.7474    7.4772  -91.0806 N   0  0  0  0  0  0  0  0  0  0  0  0
  102.9893    4.2507  -91.9901 C   0  0  2  0  0  0  0  0  0  0  0  0
   99.1335   11.5821  -91.0839 N   0  0  0  0  0  0  0  0  0  0  0  0
  105.8403    1.9782  -90.9950 O   0  0  0  0  0  0  0  0  0  0  0  0
   97.9149    8.5138  -90.2202 C   0  0  0  0  0  0  0  0  0  0  0  0
   98.9918    4.3946  -91.1145 O   0  0  0  0  0  0  0  0  0  0  0  0
   98.4231    7.7539  -90.2648 N   0  0  0  0  0  0  0  0  0  0  0  0
  104.4669    3.5398  -91.6993 O   0  0  0  0  0  0  0  0  0  0  0  0
  100.4387    2.9910  -92.6221 O   0  0  0  0  0  0  0  0  0  0  0  0
  105.7457    2.3659  -93.3377 O   0  0  0  0  0  0  0  0  0  0  0  0
   99.1853   10.0905  -90.9791 C   0  0  0  0  0  0  0  0  0  0  0  0
  100.4930    5.6180  -91.1181 C   0  0  1  0  0  0  0  0  0  0  0  0
  3  2  1  0
  5  1  1  0
  5  4  2  0
  9  8  1  0
  1 10  1  6
 10  4  1  0
 11  2  1  0
 11  7  1  0
 11 13  1  1
 14  6  1  0
  3 15  1  1
 16 14  2  3
 17  8  1  0
 17 11  1  0
  2 18  1  1
 19  8  1  0
 20  1  1  0
 20  6  1  0
 20 12  2  3
 21  3  1  0
 21  7  1  0
 21 10  1  6
M  END
>  <ID>  (1) 
conformer_0

$$$$
