
     RDKit          3D

 22 23  0  0  0  0  0  0  0  0999 V2000
  100.0051    4.7313  -92.2020 C   0  0  2  0  0  0  0  0  0  0  0  0
   99.9761    8.3646  -90.8432 C   0  0  2  0  0  0  0  0  0  0  0  0
  101.9072    3.8157  -92.6122 C   0  0  1  0  0  0  0  0  0  0  0  0
  101.6951    7.9875  -91.2468 C   0  0  0  0  0  0  0  0  0  0  0  0
  101.3118    9.3681  -91.2799 N   0  0  0  0  0  0  0  0  0  0  0  0
   97.7244    9.9291  -90.5185 N   0  0  0  0  0  0  0  0  0  0  0  0
  100.8848    7.1973  -90.9910 N   0  0  0  0  0  0  0  0  0  0  0  0
   99.2861   11.4175  -91.2577 N   0  0  0  0  0  0  0  0  0  0  0  0
  105.7937    2.5580  -92.2708 P   0  0  0  0  0  0  0  0  0  0  0  0
  106.8567    3.3419  -92.0817 O   0  0  0  0  0  0  0  0  0  0  0  0
  103.4987    3.9891  -92.2259 C   0  0  2  0  0  0  0  0  0  0  0  0
  102.1019    5.0950  -91.0765 O   0  0  0  0  0  0  0  0  0  0  0  0
  104.5716    3.4753  -92.1903 O   0  0  0  0  0  0  0  0  0  0  0  0
   99.3701    9.8066  -90.9539 C   0  0  0  0  0  0  0  0  0  0  0  0
   99.0363    4.6505  -92.1310 O   0  0  0  0  0  0  0  0  0  0  0  0
  105.8533    1.7674  -93.7115 O   0  0  0  0  0  0  0  0  0  0  0  0
  101.0778    2.6219  -92.4835 O   0  0  0  0  0  0  0  0  0  0  0  0
   98.2005    7.8709  -90.1581 N   0  0  0  0  0  0  0  0  0  0  0  0
   97.7879    8.6243  -90.1187 C   0  0  0  0  0  0  0  0  0  0  0  0
  105.5536    1.6948  -91.4326 O   0  0  0  0  0  0  0  0  0  0  0  0
  101.6670    5.0187  -91.7901 C   0  0  1  0  0  0  0  0  0  0  0  0
  100.2958    5.5898  -90.8144 C   0  0  2  0  0  0  0  0  0  0  0  0
  5  2  1  0
  5  4  2  0
  2  7  1  6
  7  4  1  0
 10  9  1  0
 11  3  1  0
 11 13  1  6
 14  2  1  0
 14  6  1  0
 14  8  2  3
  1 15  1  1
 16  9  1  0
  3 17  1  1
 19  6  1  0
 19 18  2  3
 20  9  1  0
 20 11  1  0
 21  1  1  0
 21  3  1  0
 21 12  1  1
 22  1  1  0
 22  7  1  6
 22 21  1  0
M  END
>  <ID>  (1) 
conformer_0

$$$$
