
     RDKit          3D

 23 26  0  0  0  0  0  0  0  0999 V2000
  101.0700    4.1894  -92.1771 C   0  0  0  0  0  0  0  0  0  0  0  0
   99.8543    7.8927  -90.8460 C   0  0  0  0  0  0  0  0  0  0  0  0
  102.4349    4.2179  -92.5436 C   0  0  0  0  0  0  0  0  0  0  0  0
  101.9055    7.9929  -91.3928 C   0  0  0  0  0  0  0  0  0  0  0  0
  101.3181    9.4273  -91.3248 N   0  0  0  0  0  0  0  0  0  0  0  0
   97.8438    9.6396  -90.5471 N   0  0  0  0  0  0  0  0  0  0  0  0
  102.0669    5.3803  -90.9408 O   0  0  0  0  0  0  0  0  0  0  0  0
  105.4154    1.9745  -93.8427 O   0  0  0  0  0  0  0  0  0  0  0  0
  106.0193    1.7640  -91.2503 O   0  0  0  0  0  0  0  0  0  0  0  0
  100.8774    5.5511  -91.0101 C   0  0  0  0  0  0  0  0  0  0  0  0
   99.0895   11.5091  -90.8864 N   0  0  0  0  0  0  0  0  0  0  0  0
  100.6666    7.3527  -91.0103 N   0  0  0  0  0  0  0  0  0  0  0  0
  105.5075    2.4895  -92.4712 P   0  0  0  0  0  0  0  0  0  0  0  0
  100.0475    3.2604  -92.7884 O   0  0  0  0  0  0  0  0  0  0  0  0
  104.3779    3.3733  -92.1726 O   0  0  0  0  0  0  0  0  0  0  0  0
  106.6708    3.5035  -92.7084 O   0  0  0  0  0  0  0  0  0  0  0  0
  100.2028    9.3574  -91.0106 C   0  0  0  0  0  0  0  0  0  0  0  0
   98.2862    7.7598  -90.2709 N   0  0  0  0  0  0  0  0  0  0  0  0
  103.4055    4.2205  -91.5173 C   0  0  0  0  0  0  0  0  0  0  0  0
   99.2789    4.1755  -90.9445 O   0  0  0  0  0  0  0  0  0  0  0  0
   98.9406   10.1718  -90.8027 C   0  0  0  0  0  0  0  0  0  0  0  0
   97.6951    8.5612  -90.1604 C   0  0  0  0  0  0  0  0  0  0  0  0
   99.9236    5.2800  -92.1242 C   0  0  0  0  0  0  0  0  0  0  0  0
  3  1  1  0
  5  4  2  0
 10  1  1  0
 10  7  1  0
 12  2  1  0
 12  4  1  0
 12 10  1  0
 13  8  1  0
 14  1  1  0
 15 13  1  0
 16 13  1  0
 17  2  2  0
 17  5  1  0
 18  2  1  0
 19  3  1  0
 19  7  1  0
 19  9  1  0
 19 15  1  0
 21  6  2  0
 21 11  1  0
 21 17  1  0
 22  6  1  0
 22 18  2  0
 23  1  1  0
 23 10  1  0
 23 20  1  0
M  END
>  <ID>  (1) 
conformer_0

$$$$
