
     RDKit          3D

 22 24  0  0  0  0  0  0  0  0999 V2000
  100.0853    4.8305  -92.0894 C   0  0  1  0  0  0  0  0  0  0  0  0
  100.0154    8.4954  -90.9519 C   0  0  0  0  0  0  0  0  0  0  0  0
  101.5048    3.8902  -92.8091 C   0  0  2  0  0  0  0  0  0  0  0  0
  101.5750    7.9781  -91.2597 C   0  0  0  0  0  0  0  0  0  0  0  0
  101.4979    9.2758  -91.3363 N   0  0  0  0  0  0  0  0  0  0  0  0
  106.4779    3.5158  -92.2905 O   0  0  0  0  0  0  0  0  0  0  0  0
   98.0336   10.1618  -90.6911 N   0  0  0  0  0  0  0  0  0  0  0  0
  105.4450    2.7709  -92.2103 P   0  0  0  0  0  0  0  0  0  0  0  0
  100.8585    7.2615  -91.0680 N   0  0  0  0  0  0  0  0  0  0  0  0
   99.4432    4.1785  -90.6055 O   0  0  0  0  0  0  0  0  0  0  0  0
   99.7975   11.5920  -90.8772 N   0  0  0  0  0  0  0  0  0  0  0  0
  103.2104    3.8817  -92.3895 C   0  0  1  0  0  0  0  0  0  0  0  0
  104.1987    3.4896  -92.2396 O   0  0  0  0  0  0  0  0  0  0  0  0
  102.1449    5.2882  -91.2188 O   0  0  0  0  0  0  0  0  0  0  0  0
  100.2218    2.9296  -92.6280 O   0  0  0  0  0  0  0  0  0  0  0  0
   97.9979    9.0202  -90.4667 C   0  0  0  0  0  0  0  0  0  0  0  0
   98.3911    7.9091  -90.4047 N   0  0  0  0  0  0  0  0  0  0  0  0
  105.7281    2.0945  -93.5177 O   0  0  0  0  0  0  0  0  0  0  0  0
  105.0512    1.9198  -91.2256 O   0  0  0  0  0  0  0  0  0  0  0  0
   99.7052   10.0588  -90.9691 C   0  0  0  0  0  0  0  0  0  0  0  0
  101.9683    4.3560  -91.3870 C   0  0  1  0  0  0  0  0  0  0  0  0
  100.6665    5.6749  -90.9672 C   0  0  2  0  0  0  0  0  0  0  0  0
  3  1  1  0
  5  2  1  0
  5  4  2  0
  8  6  1  0
  9  2  1  0
  9  4  1  0
  1 10  1  1
 12  3  1  0
 12 13  1  6
  3 15  1  6
 16  7  1  0
 17 16  3  0
 18  8  1  0
 19  8  1  0
 19 12  1  0
 20  2  1  0
 20  7  1  0
 20 11  2  3
 21  3  1  0
 21 12  1  0
 21 14  1  6
 22  1  1  0
 22  9  1  6
 22 14  1  0
M  END
>  <ID>  (1) 
conformer_0

$$$$
