
     RDKit          3D

 21 23  0  0  0  0  0  0  0  0999 V2000
  100.4859    4.3266  -92.2546 C   0  0  0  0  0  0  0  0  0  0  0  0
   97.9789    8.6679  -90.2978 C   0  0  0  0  0  0  0  0  0  0  0  0
  101.9147    3.6555  -92.6173 C   0  0  0  0  0  0  0  0  0  0  0  0
   99.8815    8.3775  -90.8202 C   0  0  0  0  0  0  0  0  0  0  0  0
   97.8006    9.9063  -90.5809 N   0  0  0  0  0  0  0  0  0  0  0  0
  105.9831    2.4616  -93.1602 O   0  0  0  0  0  0  0  0  0  0  0  0
  100.9125    7.0727  -91.1706 N   0  0  0  0  0  0  0  0  0  0  0  0
  101.1910    9.1218  -91.3052 N   0  0  0  0  0  0  0  0  0  0  0  0
  105.7802    3.5201  -91.9877 P   0  0  0  0  0  0  0  0  0  0  0  0
   99.4791   11.4732  -91.0240 N   0  0  0  0  0  0  0  0  0  0  0  0
  101.8933    5.2516  -91.6163 O   0  0  0  0  0  0  0  0  0  0  0  0
   99.0193    4.2847  -91.3062 O   0  0  0  0  0  0  0  0  0  0  0  0
  102.9902    3.9189  -92.0050 C   0  0  0  0  0  0  0  0  0  0  0  0
  106.0399    2.9019  -90.7079 O   0  0  0  0  0  0  0  0  0  0  0  0
   98.5406    7.6723  -90.2035 N   0  0  0  0  0  0  0  0  0  0  0  0
   99.3403    9.9674  -90.9831 C   0  0  0  0  0  3  0  0  0  0  0  0
  100.1261    2.9302  -93.0486 O   0  0  0  0  0  0  0  0  0  0  0  0
  104.4511    3.9436  -91.9689 O   0  0  0  0  0  0  0  0  0  0  0  0
  106.6640    4.3366  -92.4287 O   0  0  0  0  0  0  0  0  0  0  0  0
  100.7604    5.3907  -91.3622 C   0  0  0  0  0  0  0  0  0  0  0  0
  101.4050    7.8109  -91.3589 C   0  0  0  0  0  0  0  0  0  0  0  0
  3  1  1  0
  5  2  2  0
  8  4  1  0
  9  6  1  0
 12  1  1  0
 13  3  1  0
 13 11  1  0
 14 13  1  0
 15  2  1  0
 15  4  1  0
 16  4  1  0
 16  5  1  0
 16 10  1  0
 17  1  1  0
 18  9  1  0
 18 13  1  0
 19  9  1  0
 20  1  1  0
 20  7  1  0
 20 11  1  0
 21  4  1  0
 21  7  1  0
 21  8  2  0
M  RAD  1  16   2
M  END
>  <ID>  (1) 
conformer_0

$$$$
