
     RDKit          3D

 22 23  0  0  0  0  0  0  0  0999 V2000
   97.7609    8.8229  -90.1322 C   0  0  0  0  0  0  0  0  0  0  0  0
  101.2441    5.5458  -91.3531 C   0  0  0  0  0  0  0  0  0  0  0  0
  102.3290    3.6922  -92.5922 C   0  0  0  0  0  0  0  0  0  0  0  0
   99.2082   10.0678  -90.8490 C   0  0  0  0  0  0  0  0  0  0  0  0
  101.1491    9.4523  -91.2213 N   0  0  0  0  0  0  0  0  0  0  0  0
   97.4687    9.9598  -90.4121 N   0  0  0  0  0  0  0  0  0  0  0  0
  100.9661    7.2688  -91.0693 N   0  0  0  0  0  0  0  0  0  0  0  0
  105.9087    2.6903  -92.1534 P   0  0  0  0  0  0  0  0  0  0  0  0
  105.9025    1.8186  -93.3656 O   0  0  0  0  0  0  0  0  0  0  0  0
   99.1574   11.5467  -91.0934 N   0  0  0  0  0  0  0  0  0  0  0  0
   99.2576    4.1514  -91.0191 O   0  0  0  0  0  0  0  0  0  0  0  0
  103.4206    3.9631  -91.8876 C   0  0  0  0  0  0  0  0  0  0  0  0
  102.0798    5.2972  -91.6377 O   0  0  0  0  0  0  0  0  0  0  0  0
  101.4515    8.0649  -91.2191 C   0  0  0  0  0  0  0  0  0  0  0  0
  104.5382    3.4647  -92.1852 O   0  0  0  0  0  0  0  0  0  0  0  0
   98.3403    7.7843  -90.1851 N   0  0  0  0  0  0  0  0  0  0  0  0
  106.9320    3.5683  -92.2555 O   0  0  0  0  0  0  0  0  0  0  0  0
   99.7873    8.6291  -90.7101 C   0  0  0  0  0  0  0  0  0  0  0  0
  105.5967    2.1725  -90.9197 O   0  0  0  0  0  0  0  0  0  0  0  0
  100.9235    4.0394  -92.6121 C   0  0  0  0  0  0  0  0  0  0  0  0
   99.9336    5.1903  -91.9016 C   0  0  0  0  0  0  0  0  0  0  0  0
   99.7670    3.2877  -92.8069 O   0  0  0  0  0  0  0  0  0  0  0  0
  6  1  1  0
  6  4  2  0
  7  2  1  0
  9  8  1  0
 10  4  1  0
 12  3  1  0
 13  2  2  0
 14  5  2  0
 14  7  1  0
 15 12  1  0
 16  1  1  0
 17  8  1  0
 18  4  1  0
 18  5  1  0
 18 14  1  0
 18 16  1  0
 19  8  1  0
 19 12  1  0
 20  3  1  0
 21  2  1  0
 21 11  1  0
 21 20  1  0
 22 20  1  0
M  END
>  <ID>  (1) 
conformer_0

$$$$
