
     RDKit          3D

 21 22  0  0  0  0  0  0  0  0999 V2000
   99.5523   10.2584  -91.0365 C   0  0  0  0  0  0  0  0  0  0  0  0
  100.3664    4.8118  -91.9062 C   0  0  0  0  0  0  0  0  0  0  0  0
  100.4261    5.6539  -91.0686 C   0  0  1  0  0  0  0  0  0  0  0  0
  101.5349    8.1155  -91.2130 C   0  0  0  0  0  0  0  0  0  0  0  0
  101.4511    9.4758  -91.3823 N   0  0  0  0  0  0  0  0  0  0  0  0
  101.9746    5.2602  -91.1594 O   0  0  0  0  0  0  0  0  0  0  0  0
  105.4476    2.0125  -93.5150 O   0  0  0  0  0  0  0  0  0  0  0  0
   98.0480    9.9164  -90.5724 N   0  0  0  0  0  0  0  0  0  0  0  0
  105.4381    3.0131  -92.1843 P   0  0  0  0  0  0  0  0  0  0  0  0
  101.6127    4.0953  -92.4477 C   0  0  0  0  0  0  0  0  0  0  0  0
   99.3345   11.6830  -91.2742 N   0  0  0  0  0  0  0  0  0  0  0  0
  100.8919    7.3490  -90.9021 N   0  0  0  0  0  0  0  0  0  0  0  0
  104.4337    4.0704  -91.7893 O   0  0  0  0  0  0  0  0  0  0  0  0
   98.1569    8.7604  -90.3060 C   0  0  0  0  0  0  0  0  0  0  0  0
   98.7178    4.6309  -91.0235 O   0  0  0  0  0  0  0  0  0  0  0  0
  106.5591    3.6184  -92.6407 O   0  0  0  0  0  0  0  0  0  0  0  0
  105.6021    2.3973  -91.0769 O   0  0  0  0  0  0  0  0  0  0  0  0
   98.6251    7.8338  -90.1919 N   0  0  0  0  0  0  0  0  0  0  0  0
   99.8253    3.3447  -92.6094 O   0  0  0  0  0  0  0  0  0  0  0  0
  102.8282    4.0793  -92.2515 C   0  0  0  0  0  0  0  0  0  0  0  0
  100.0960    8.7863  -90.8658 C   0  0  1  0  0  0  0  0  0  0  0  0
  3  2  1  0
  5  4  2  0
  6  3  1  0
  8  1  1  0
  9  7  1  0
 10  2  1  0
 10  6  1  0
 11  1  2  3
  3 12  1  6
 12  4  1  0
 14  8  1  0
 15  2  1  0
 16  9  1  0
 17  9  1  0
 18 14  3  0
 19  2  1  0
 20 10  1  0
 20 13  2  0
 20 17  1  0
 21  1  1  6
 21  4  1  0
 21  5  1  0
M  END
>  <ID>  (1) 
conformer_0

$$$$
