
     RDKit          3D

 23 24  0  0  0  0  0  0  0  0999 V2000
   98.1777    8.9631  -90.5248 C   0  0  0  0  0  0  0  0  0  0  0  0
  102.6285    4.1829  -91.3404 C   0  0  0  0  0  0  0  0  0  0  0  0
   99.9501    4.8401  -91.7456 C   0  0  0  0  0  0  0  0  0  0  0  0
  101.3763    8.1540  -91.4222 C   0  0  0  0  0  0  0  0  0  0  0  0
  101.4200    9.5246  -91.2318 N   0  0  0  0  0  0  0  0  0  0  0  0
   97.8659    9.9808  -90.4411 N   0  0  0  0  0  0  0  0  0  0  0  0
  105.6508    2.1915  -93.4568 O   0  0  0  0  0  0  0  0  0  0  0  0
  100.6818    7.3435  -91.1944 N   0  0  0  0  0  0  0  0  0  0  0  0
  105.5736    3.1814  -92.1200 P   0  0  0  0  0  0  0  0  0  0  0  0
  101.9634    5.3098  -91.2502 O   0  0  0  0  0  0  0  0  0  0  0  0
  104.3486    3.8313  -92.2003 O   0  0  0  0  0  0  0  0  0  0  0  0
   99.1687   11.5291  -91.1629 N   0  0  0  0  0  0  0  0  0  0  0  0
  100.7582    5.5275  -90.8350 C   0  0  2  0  0  0  0  0  0  0  0  0
   98.7536    3.9594  -92.0294 O   0  0  0  0  0  0  0  0  0  0  0  0
  100.5310    2.7663  -93.2356 O   0  0  0  0  0  0  0  0  0  0  0  0
   99.9523    8.5696  -90.9083 C   0  0  2  0  0  0  0  0  0  0  0  0
  106.6954    3.9697  -92.1405 O   0  0  0  0  0  0  0  0  0  0  0  0
   98.2554    7.8811  -90.4937 N   0  0  0  0  0  0  0  0  0  0  0  0
  105.2994    2.2831  -91.0716 O   0  0  0  0  0  0  0  0  0  0  0  0
  100.7891    3.8296  -92.4830 C   0  0  1  0  0  0  0  0  0  0  0  0
  102.5172    4.0107  -92.6763 C   0  0  1  0  0  0  0  0  0  0  0  0
   99.5482   10.2189  -91.0218 C   0  0  0  0  0  0  0  0  0  0  0  0
   99.4456    4.2439  -90.0387 O   0  0  0  0  0  0  0  0  0  0  0  0
  5  4  2  0
  6  1  1  0
  8  4  1  0
  9  7  1  0
 10  2  1  0
 11  9  1  0
 13  3  1  0
 13  8  1  6
 13 10  1  0
 14  3  1  0
 16  5  1  0
 16  8  1  6
 17  9  1  0
 18  1  3  0
 19  2  2  0
 20  3  1  0
 20 15  1  6
 21  2  1  0
 21 11  1  1
 21 20  1  0
 22  6  1  0
 22 12  2  3
 22 16  1  0
 23  3  1  0
M  END
>  <ID>  (1) 
conformer_0

$$$$
