
     RDKit          3D

 21 23  0  0  0  0  0  0  0  0999 V2000
   97.9321    8.8549  -90.2901 C   0  0  0  0  0  0  0  0  0  0  0  0
  100.4038    4.5423  -91.8589 C   0  0  0  0  0  0  0  0  0  0  0  0
  100.6925    5.4984  -90.9516 C   0  0  0  0  0  0  0  0  0  0  0  0
   99.6654    8.6281  -90.7714 C   0  0  0  0  0  0  0  0  0  0  0  0
   98.2579    7.8187  -90.3292 N   0  0  0  0  0  0  0  0  0  0  0  0
  101.0313    9.6320  -91.2018 N   0  0  0  0  0  0  0  0  0  0  0  0
  102.1527    5.5835  -91.3257 O   0  0  0  0  0  0  0  0  0  0  0  0
  105.4949    1.9212  -93.9538 O   0  0  0  0  0  0  0  0  0  0  0  0
  100.6698    7.3792  -91.0276 N   0  0  0  0  0  0  0  0  0  0  0  0
  105.3379    2.5120  -92.5073 P   0  0  0  0  0  0  0  0  0  0  0  0
   99.3294   11.6091  -91.0512 N   0  0  0  0  0  0  0  0  0  0  0  0
  105.1527    1.7411  -91.3457 O   0  0  0  0  0  0  0  0  0  0  0  0
  102.9259    4.3921  -91.8722 C   0  0  0  0  0  0  0  0  0  0  0  0
   99.0912    4.1272  -90.5545 O   0  0  0  0  0  0  0  0  0  0  0  0
   99.2985   10.3193  -90.9236 C   0  0  0  0  0  0  0  0  0  0  0  0
   99.9876    3.3526  -92.8924 O   0  0  0  0  0  0  0  0  0  0  0  0
   97.7984   10.0003  -90.4147 N   0  0  0  0  0  0  0  0  0  0  0  0
  106.5022    3.2855  -92.6141 O   0  0  0  0  0  0  0  0  0  0  0  0
  104.1966    3.4112  -92.3019 O   0  0  0  0  0  0  0  0  0  0  0  0
  101.9518    4.1338  -92.7731 C   0  0  0  0  0  0  0  0  0  0  0  0
  101.1396    8.2784  -91.1505 C   0  0  0  0  0  0  0  0  0  0  0  0
  3  2  1  0
  5  1  1  0
  5  4  2  0
  7  3  1  0
  9  3  1  0
 10  8  1  0
 12 10  1  0
 13  7  1  0
 13 12  1  0
 14  2  1  0
 15  4  1  0
 15  6  1  0
 15 11  1  0
 16  2  1  0
 17  1  1  0
 17 15  1  0
 18 10  1  0
 19 13  1  0
 20  2  1  0
 20 13  1  0
 21  4  1  0
 21  6  2  0
 21  9  1  0
M  END
>  <ID>  (1) 
conformer_0

$$$$
