
     RDKit          3D

 23 26  0  0  0  0  0  0  0  0999 V2000
  103.5305    4.0413  -92.1711 C   0  0  0  0  0  0  0  0  0  0  0  0
   97.3894    8.5904  -90.0667 C   0  0  0  0  0  0  0  0  0  0  0  0
  102.1044    3.4669  -92.8825 C   0  0  0  0  0  0  0  0  0  0  0  0
   99.8535    9.3436  -90.9925 C   0  0  0  0  0  0  0  0  0  0  0  0
  101.1495    9.4036  -91.2348 N   0  0  0  0  0  0  0  0  0  0  0  0
   97.5805    9.8839  -90.4456 N   0  0  0  0  0  0  0  0  0  0  0  0
  100.7259    7.2481  -91.0627 N   0  0  0  0  0  0  0  0  0  0  0  0
  106.6092    3.5417  -92.5210 O   0  0  0  0  0  0  0  0  0  0  0  0
   99.2231   11.5117  -91.0930 N   0  0  0  0  0  0  0  0  0  0  0  0
  105.5464    2.6471  -92.3534 P   0  0  0  0  0  0  0  0  0  0  0  0
  102.0057    5.3165  -91.7692 O   0  0  0  0  0  0  0  0  0  0  0  0
  105.6021    1.6535  -91.2679 O   0  0  0  0  0  0  0  0  0  0  0  0
   99.0602    4.2293  -91.8865 O   0  0  0  0  0  0  0  0  0  0  0  0
  101.8239    4.5560  -91.9061 C   0  0  0  0  0  0  0  0  0  0  0  0
  101.7521    7.8661  -91.3451 C   0  0  0  0  0  0  0  0  0  0  0  0
   98.2248    7.6943  -90.3022 N   0  0  0  0  0  0  0  0  0  0  0  0
  105.6828    1.8890  -93.8388 O   0  0  0  0  0  0  0  0  0  0  0  0
  104.3530    3.3102  -92.2278 O   0  0  0  0  0  0  0  0  0  0  0  0
  100.7013    2.6883  -92.7592 O   0  0  0  0  0  0  0  0  0  0  0  0
   98.5968   10.1094  -90.8440 C   0  0  0  0  0  0  0  0  0  0  0  0
  100.2782    4.2727  -92.0565 C   0  0  0  0  0  0  0  0  0  0  0  0
  100.4698    5.6042  -90.9998 C   0  0  0  0  0  0  0  0  0  0  0  0
   99.7420    7.9209  -90.7479 C   0  0  0  0  0  0  0  0  0  0  0  0
  3  1  1  0
  5  4  1  0
  6  2  2  0
 10  8  1  0
 12  1  1  0
 14  1  1  0
 14  3  1  0
 14 11  1  0
 15  5  2  0
 15  7  1  0
 16  2  1  0
 17 10  1  0
 18  1  1  0
 18 10  1  0
 19  3  1  0
 20  4  2  0
 20  6  1  0
 20  9  1  0
 21 13  1  0
 21 14  1  0
 22  7  1  0
 22 11  1  0
 22 21  1  0
 23  4  1  0
 23  7  1  0
 23 16  2  0
M  END
>  <ID>  (1) 
conformer_0

$$$$
