
     RDKit          3D

 21 22  0  0  0  0  0  0  0  0999 V2000
  101.9219    4.1547  -92.3235 C   0  0  0  0  0  0  0  0  0  0  0  0
  101.2703    7.9526  -91.1719 C   0  0  0  0  0  0  0  0  0  0  0  0
  103.1910    4.2592  -91.8778 C   0  0  0  0  0  0  0  0  0  0  0  0
   98.2402    8.5502  -90.3145 C   0  0  0  0  0  0  0  0  0  0  0  0
   97.8824    9.7317  -90.4487 N   0  0  0  0  0  0  0  0  0  0  0  0
  101.2974    9.3017  -91.2763 N   0  0  0  0  0  0  0  0  0  0  0  0
  105.6262    1.9436  -93.3059 O   0  0  0  0  0  0  0  0  0  0  0  0
  105.6775    2.8346  -92.3877 P   0  0  0  0  0  0  0  0  0  0  0  0
   99.2886   11.4182  -91.1062 N   0  0  0  0  0  0  0  0  0  0  0  0
  102.0638    5.2367  -90.9004 O   0  0  0  0  0  0  0  0  0  0  0  0
  100.9000    7.1630  -90.9293 N   0  0  0  0  0  0  0  0  0  0  0  0
  100.3425    4.4238  -92.0518 C   0  0  0  0  0  0  0  0  0  0  0  0
  104.3300    3.7011  -92.3640 O   0  0  0  0  0  0  0  0  0  0  0  0
  100.2799    3.0376  -93.1242 O   0  0  0  0  0  0  0  0  0  0  0  0
   98.5455    7.6099  -90.1790 N   0  0  0  0  0  0  0  0  0  0  0  0
  106.7935    3.6450  -92.5329 O   0  0  0  0  0  0  0  0  0  0  0  0
  100.0008    8.5494  -90.6875 C   0  0  1  0  0  0  0  0  0  0  0  0
   99.4454   10.0859  -90.9352 C   0  0  0  0  0  0  0  0  0  0  0  0
   98.9242    4.0124  -91.5851 O   0  0  0  0  0  0  0  0  0  0  0  0
  100.6768    5.3496  -91.0975 C   0  0  1  0  0  0  0  0  0  0  0  0
  105.6315    2.6160  -91.0228 O   0  0  0  0  0  0  0  0  0  0  0  0
  3  1  1  0
  5  4  1  0
  6  2  2  0
  8  7  1  0
 10  3  1  0
 11  2  1  0
 12  1  1  0
 13  3  1  0
 14 12  1  0
 15  4  3  0
 16  8  1  0
 17  2  1  0
 17  6  1  0
 18  5  1  0
 18  9  2  3
 17 18  1  6
 19 12  1  0
 20 10  1  0
 20 11  1  6
 20 12  1  0
 21  3  1  0
 21  8  1  0
M  END
>  <ID>  (1) 
conformer_0

$$$$
