
     RDKit          3D

 22 23  0  0  0  0  0  0  0  0999 V2000
  103.0893    3.7404  -92.0913 C   0  0  0  0  0  0  0  0  0  0  0  0
   99.6003    7.9103  -90.7984 C   0  0  0  0  0  0  0  0  0  0  0  0
  101.9147    3.7232  -92.4468 C   0  0  0  0  0  0  0  0  0  0  0  0
  101.6906    7.8098  -91.2330 C   0  0  0  0  0  0  0  0  0  0  0  0
   97.9326   10.0890  -90.6543 N   0  0  0  0  0  0  0  0  0  0  0  0
  101.2080    9.2953  -91.2482 N   0  0  0  0  0  0  0  0  0  0  0  0
  105.7736    2.9931  -92.1759 P   0  0  0  0  0  0  0  0  0  0  0  0
  100.7027    7.1591  -91.0035 N   0  0  0  0  0  0  0  0  0  0  0  0
  106.7359    3.8018  -92.2981 O   0  0  0  0  0  0  0  0  0  0  0  0
  102.1235    5.1730  -91.2885 O   0  0  0  0  0  0  0  0  0  0  0  0
  100.5100    4.7216  -92.1020 C   0  0  0  0  0  0  0  0  0  0  0  0
   99.1852    4.3006  -91.0504 O   0  0  0  0  0  0  0  0  0  0  0  0
   99.6119   11.5283  -90.9527 N   0  0  0  0  0  0  0  0  0  0  0  0
  105.8722    1.9606  -90.9831 O   0  0  0  0  0  0  0  0  0  0  0  0
   98.2493    7.8057  -90.2818 N   0  0  0  0  0  0  0  0  0  0  0  0
  100.1532    9.2865  -91.0158 C   0  0  0  0  0  0  0  0  0  0  0  0
  105.8625    2.1331  -93.4427 O   0  0  0  0  0  0  0  0  0  0  0  0
  104.4810    3.3856  -92.0444 O   0  0  0  0  0  0  0  0  0  0  0  0
  100.0493    3.2824  -92.8240 O   0  0  0  0  0  0  0  0  0  0  0  0
  100.7357    5.3999  -91.1895 C   0  0  0  0  0  0  0  0  0  0  0  0
   98.9724   10.2117  -90.9126 C   0  0  0  0  0  0  0  0  0  0  0  0
   97.5777    8.7088  -90.2123 C   0  0  0  0  0  0  0  0  0  0  0  0
  3  1  1  0
  6  4  2  0
  8  2  1  0
  8  4  1  0
  9  7  1  0
 11  3  1  0
 12 11  1  0
 14  1  1  0
 15  2  1  0
 16  2  2  0
 16  6  1  0
 17  7  1  0
 18  1  1  0
 18  7  1  0
 19 11  1  0
 20  8  1  0
 20 10  1  0
 20 11  1  0
 21  5  2  0
 21 13  1  0
 21 16  1  0
 22  5  1  0
 22 15  2  0
M  END
>  <ID>  (1) 
conformer_0

$$$$
