
     RDKit          3D

 23 24  0  0  0  0  0  0  0  0999 V2000
  100.0803    4.4616  -92.2007 C   0  0  0  0  0  0  0  0  0  0  0  0
   97.8836    8.6006  -90.2698 C   0  0  0  0  0  0  0  0  0  0  0  0
  101.8294    3.7527  -92.9436 C   0  0  0  0  0  0  0  0  0  0  0  0
  100.0080    7.8708  -90.8151 C   0  0  0  0  0  0  0  0  0  0  0  0
   97.7386    9.9797  -90.5339 N   0  0  0  0  0  0  0  0  0  0  0  0
  101.4368    9.2617  -91.3002 N   0  0  0  0  0  0  0  0  0  0  0  0
  106.5375    3.1693  -91.8989 O   0  0  0  0  0  0  0  0  0  0  0  0
  105.6967    2.7697  -92.0998 P   0  0  0  0  0  0  0  0  0  0  0  0
  100.9429    7.1045  -91.0412 N   0  0  0  0  0  0  0  0  0  0  0  0
  101.9432    5.0940  -91.0218 O   0  0  0  0  0  0  0  0  0  0  0  0
   99.4141   11.5414  -91.0386 N   0  0  0  0  0  0  0  0  0  0  0  0
   98.5483    7.7739  -90.2758 N   0  0  0  0  0  0  0  0  0  0  0  0
   99.1113    3.9144  -91.3096 O   0  0  0  0  0  0  0  0  0  0  0  0
  103.5624    3.9513  -91.8716 C   0  0  0  0  0  0  0  0  0  0  0  0
  104.2742    3.5115  -92.2117 O   0  0  0  0  0  0  0  0  0  0  0  0
  101.9276    7.8250  -91.3317 C   0  0  0  0  0  0  0  0  0  0  0  0
  105.7353    2.1767  -93.5597 O   0  0  0  0  0  0  0  0  0  0  0  0
  100.7393    5.5755  -91.1589 C   0  0  0  0  0  0  0  0  0  0  0  0
   99.0576   10.2486  -90.9135 C   0  0  0  0  0  0  0  0  0  0  0  0
  100.0184    2.7621  -92.8477 O   0  0  0  0  0  0  0  0  0  0  0  0
  104.9583    1.8847  -91.3221 O   0  0  0  0  0  0  0  0  0  0  0  0
  100.1904    9.2958  -90.9922 C   0  0  0  0  0  0  0  0  0  0  0  0
  101.8247    4.0499  -91.5343 C   0  0  0  0  0  0  0  0  0  0  0  0
  5  2  2  0
  8  7  1  0
  9  4  1  0
 12  2  1  0
 12  4  2  0
 13  1  1  0
 15 14  1  0
 16  6  2  0
 16  9  1  0
 17  8  1  0
 18  1  1  0
 18  9  1  0
 18 10  1  0
 19  5  1  0
 19 11  1  0
 20  1  1  0
 21  8  1  0
 21 14  1  0
 22  4  1  0
 22  6  1  0
 22 19  2  0
 23  3  1  0
 23 10  1  0
 23 14  1  0
M  END
>  <ID>  (1) 
conformer_0

$$$$
