
     RDKit          3D

 23 25  0  0  0  0  0  0  0  0999 V2000
   97.6119    8.7325  -90.1322 C   0  0  0  0  0  0  0  0  0  0  0  0
  100.0659    4.6566  -91.6330 C   0  0  0  0  0  0  0  0  0  0  0  0
  100.5293    5.6460  -90.7002 C   0  0  0  0  0  0  0  0  0  0  0  0
  101.7861    8.0644  -91.3622 C   0  0  0  0  0  0  0  0  0  0  0  0
  101.2239    9.4857  -91.2643 N   0  0  0  0  0  0  0  0  0  0  0  0
   97.8113   10.0375  -90.4763 N   0  0  0  0  0  0  0  0  0  0  0  0
  101.3698    4.3983  -92.8681 C   0  0  0  0  0  0  0  0  0  0  0  0
  106.6351    3.6269  -92.4731 O   0  0  0  0  0  0  0  0  0  0  0  0
  105.5607    2.7546  -92.3035 P   0  0  0  0  0  0  0  0  0  0  0  0
  102.0218    5.3218  -90.9094 O   0  0  0  0  0  0  0  0  0  0  0  0
   99.4194   11.5778  -91.0833 N   0  0  0  0  0  0  0  0  0  0  0  0
  100.7892    7.3359  -91.0106 N   0  0  0  0  0  0  0  0  0  0  0  0
  104.3622    3.6128  -91.9159 O   0  0  0  0  0  0  0  0  0  0  0  0
   98.9887    4.1277  -90.7250 O   0  0  0  0  0  0  0  0  0  0  0  0
   99.7545    7.9456  -90.6725 C   0  0  0  0  0  0  0  0  0  0  0  0
  100.1460    3.2346  -92.9629 O   0  0  0  0  0  0  0  0  0  0  0  0
   98.2770    7.8795  -90.1876 N   0  0  0  0  0  0  0  0  0  0  0  0
  105.5488    2.1389  -93.4404 O   0  0  0  0  0  0  0  0  0  0  0  0
  102.0624    4.1776  -91.8398 C   0  0  0  0  0  0  0  0  0  0  0  0
  105.2205    1.8315  -91.1777 O   0  0  0  0  0  0  0  0  0  0  0  0
  100.1450    9.3675  -90.9833 C   0  0  0  0  0  0  0  0  0  0  0  0
   98.9999   10.2611  -90.8982 C   0  0  0  0  0  0  0  0  0  0  0  0
  103.3991    4.1794  -91.7323 C   0  0  0  0  0  0  0  0  0  0  0  0
  3  2  1  0
  5  4  2  0
  6  1  2  0
  7  2  1  0
  9  8  1  0
 10  3  1  0
 12  3  1  0
 12  4  1  0
 14  2  1  0
 15 12  1  0
 16  7  1  0
 17  1  1  0
 17 15  2  0
 18  9  1  0
 19  7  1  0
 19 10  1  0
 20  9  1  0
 21  5  1  0
 21 15  1  0
 22  6  1  0
 22 11  1  0
 22 21  2  0
 23 13  1  0
 23 19  1  0
 23 20  1  0
M  END
>  <ID>  (1) 
conformer_0

$$$$
