
     RDKit          3D

 23 25  0  0  0  0  0  0  0  0999 V2000
  100.7992    3.9343  -92.1250 C   0  0  0  0  0  0  0  0  0  0  0  0
   99.1808   10.2906  -90.9422 C   0  0  0  0  0  0  0  0  0  0  0  0
  100.6776    5.4915  -90.9162 C   0  0  0  0  0  0  0  0  0  0  0  0
  101.6818    7.7862  -91.2906 C   0  0  0  0  0  0  0  0  0  0  0  0
  105.7248    2.2808  -93.3289 O   0  0  0  0  0  0  0  0  0  0  0  0
   98.0014    9.9400  -90.5931 N   0  0  0  0  0  0  0  0  0  0  0  0
  101.3782    9.2926  -91.2127 N   0  0  0  0  0  0  0  0  0  0  0  0
  105.6377    3.1917  -91.9687 P   0  0  0  0  0  0  0  0  0  0  0  0
   99.5010   11.5208  -91.1428 N   0  0  0  0  0  0  0  0  0  0  0  0
  100.7261    7.1468  -91.0451 N   0  0  0  0  0  0  0  0  0  0  0  0
  104.5527    4.0180  -91.7699 O   0  0  0  0  0  0  0  0  0  0  0  0
  102.2121    4.1252  -92.6402 C   0  0  0  0  0  0  0  0  0  0  0  0
  102.0612    5.2718  -91.3262 O   0  0  0  0  0  0  0  0  0  0  0  0
   98.9960    4.2673  -90.8432 O   0  0  0  0  0  0  0  0  0  0  0  0
   97.7477    8.6046  -90.3265 C   0  0  0  0  0  0  0  0  0  0  0  0
  100.0553    3.1526  -92.9734 O   0  0  0  0  0  0  0  0  0  0  0  0
  105.5998    2.1231  -90.9469 O   0  0  0  0  0  0  0  0  0  0  0  0
   98.3801    7.7379  -90.3729 N   0  0  0  0  0  0  0  0  0  0  0  0
  106.8200    3.7531  -92.3581 O   0  0  0  0  0  0  0  0  0  0  0  0
  102.9728    4.0368  -91.5174 C   0  0  0  0  0  0  0  0  0  0  0  0
   99.7428    7.9384  -90.7871 C   0  0  0  0  0  0  0  0  0  0  0  0
  100.3814    9.3933  -90.9967 C   0  0  0  0  0  0  0  0  0  0  0  0
   99.8851    5.1566  -92.1173 C   0  0  0  0  0  0  0  0  0  0  0  0
  6  2  2  0
  7  4  2  0
  8  5  1  0
  9  2  1  0
 10  3  1  0
 10  4  1  0
 11  8  1  0
 12  1  1  0
 13  3  1  0
 15  6  1  0
 16  1  1  0
 18 15  2  0
 19  8  1  0
 20 11  1  0
 20 12  1  0
 20 13  1  0
 20 17  1  0
 21 10  1  0
 21 18  1  0
 22  2  1  0
 22  7  1  0
 22 21  2  0
 23  1  1  0
 23  3  1  0
 23 14  1  0
M  END
>  <ID>  (1) 
conformer_0

$$$$
