
     RDKit          3D

 22 23  0  0  0  0  0  0  0  0999 V2000
   99.8317    5.0640  -91.9058 C   0  0  2  0  0  0  0  0  0  0  0  0
   98.0841    8.8088  -90.2700 C   0  0  0  0  0  0  0  0  0  0  0  0
  102.3959    4.1594  -92.6102 C   0  0  0  0  0  0  0  0  0  0  0  0
  100.0947    8.5133  -90.8606 C   0  0  2  0  0  0  0  0  0  0  0  0
   97.9629   10.0687  -90.5907 N   0  0  0  0  0  0  0  0  0  0  0  0
  101.4523    9.3671  -91.3808 N   0  0  0  0  0  0  0  0  0  0  0  0
  105.5254    2.6649  -92.2589 P   0  0  0  0  0  0  0  0  0  0  0  0
  100.9940    7.2919  -91.1019 N   0  0  0  0  0  0  0  0  0  0  0  0
  105.4349    2.0614  -93.6621 O   0  0  0  0  0  0  0  0  0  0  0  0
   99.6999   11.4875  -91.0976 N   0  0  0  0  0  0  0  0  0  0  0  0
  104.2859    3.4047  -91.9941 O   0  0  0  0  0  0  0  0  0  0  0  0
  103.0360    4.0469  -91.3879 C   0  0  1  0  0  0  0  0  0  0  0  0
   99.0427    4.3076  -90.8116 O   0  0  0  0  0  0  0  0  0  0  0  0
  102.0787    5.2364  -91.1315 O   0  0  0  0  0  0  0  0  0  0  0  0
   99.6228   10.0643  -91.0125 C   0  0  0  0  0  0  0  0  0  0  0  0
  100.3350    2.8948  -92.7002 O   0  0  0  0  0  0  0  0  0  0  0  0
   98.4225    7.8913  -90.2175 N   0  0  0  0  0  0  0  0  0  0  0  0
  106.5885    3.4428  -92.3692 O   0  0  0  0  0  0  0  0  0  0  0  0
  105.4193    1.6603  -91.3489 O   0  0  0  0  0  0  0  0  0  0  0  0
  101.5981    8.0108  -91.2542 C   0  0  0  0  0  0  0  0  0  0  0  0
  100.8381    3.9931  -92.0868 C   0  0  2  0  0  0  0  0  0  0  0  0
  100.8112    5.5484  -90.8658 C   0  0  2  0  0  0  0  0  0  0  0  0
  5  2  1  0
  6  4  1  0
  4  8  1  6
  9  7  1  0
 12  3  1  0
 12 11  1  6
  1 13  1  1
 14 12  1  0
 15  4  1  0
 15  5  1  0
 15 10  2  3
 17  2  3  0
 18  7  1  0
 19  7  1  0
 19 12  1  0
 20  6  2  0
 20  8  1  0
 21  1  1  0
 21  3  1  0
 21 16  1  6
 22  1  1  0
 22  8  1  6
 22 14  1  0
M  END
>  <ID>  (1) 
conformer_0

$$$$
