
     RDKit          3D

 22 23  0  0  0  0  0  0  0  0999 V2000
  102.2443    3.7432  -92.8341 C   0  0  0  0  0  0  0  0  0  0  0  0
   98.1269    8.7319  -90.3945 C   0  0  0  0  0  0  0  0  0  0  0  0
  101.0065    5.6202  -91.0688 C   0  0  2  0  0  0  0  0  0  0  0  0
  100.0844    8.4849  -90.8766 C   0  0  2  0  0  0  0  0  0  0  0  0
  101.4222    9.4100  -91.2848 N   0  0  0  0  0  0  0  0  0  0  0  0
   97.8990    9.9145  -90.6353 N   0  0  0  0  0  0  0  0  0  0  0  0
  106.5300    3.5199  -92.1669 O   0  0  0  0  0  0  0  0  0  0  0  0
  100.9368    7.2010  -91.1416 N   0  0  0  0  0  0  0  0  0  0  0  0
   99.5172   11.5095  -91.1226 N   0  0  0  0  0  0  0  0  0  0  0  0
  105.5789    2.7204  -92.0245 P   0  0  0  0  0  0  0  0  0  0  0  0
  101.9395    5.1941  -91.4555 O   0  0  0  0  0  0  0  0  0  0  0  0
  105.4205    1.5719  -91.0452 O   0  0  0  0  0  0  0  0  0  0  0  0
  103.0906    3.9972  -91.8235 C   0  0  1  0  0  0  0  0  0  0  0  0
   99.0908    4.3617  -90.5860 O   0  0  0  0  0  0  0  0  0  0  0  0
  101.5451    8.0375  -91.3248 C   0  0  0  0  0  0  0  0  0  0  0  0
   98.4714    7.7156  -90.2772 N   0  0  0  0  0  0  0  0  0  0  0  0
  104.3363    3.3319  -91.8504 O   0  0  0  0  0  0  0  0  0  0  0  0
  105.7282    2.0913  -93.4927 O   0  0  0  0  0  0  0  0  0  0  0  0
   99.6118    3.4548  -92.5327 O   0  0  0  0  0  0  0  0  0  0  0  0
   99.5732   10.0055  -90.9866 C   0  0  0  0  0  0  0  0  0  0  0  0
  100.8697    3.7685  -92.5293 C   0  0  0  0  0  0  0  0  0  0  0  0
  100.0421    4.8425  -91.4981 C   0  0  2  0  0  0  0  0  0  0  0  0
  5  4  1  0
  6  2  1  0
  3  8  1  6
 10  7  1  0
 11  3  1  0
 13  1  1  0
 13 11  1  0
 13 12  1  1
 15  4  1  0
 15  5  2  0
 15  8  1  0
 16  2  3  0
 17 10  1  0
 17 13  1  0
 18 10  1  0
  4 20  1  6
 20  6  1  0
 20  9  2  3
 21  1  1  0
 21 19  1  0
 22  3  1  0
 22 14  1  1
 22 21  1  0
M  END
>  <ID>  (1) 
conformer_0

$$$$
