
     RDKit          3D

 19 20  0  0  0  0  0  0  0  0999 V2000
   99.6781    9.9499  -90.9442 C   0  0  0  0  0  0  0  0  0  0  0  0
  101.1223    4.4416  -92.1080 C   0  0  1  0  0  0  0  0  0  0  0  0
  102.5125    3.9991  -92.4042 C   0  0  0  0  0  0  0  0  0  0  0  0
  100.2795    8.4712  -90.8522 C   0  0  0  0  0  0  0  0  0  0  0  0
  101.5999    9.3094  -91.3636 N   0  0  0  0  0  0  0  0  0  0  0  0
   98.0250    9.7043  -90.6278 N   0  0  0  0  0  0  0  0  0  0  0  0
  106.0713    2.6280  -93.3679 O   0  0  0  0  0  0  0  0  0  0  0  0
  102.0869    5.0688  -91.0518 O   0  0  0  0  0  0  0  0  0  0  0  0
  105.4044    2.8860  -92.2504 P   0  0  0  0  0  0  0  0  0  0  0  0
  101.1278    7.2279  -90.8762 N   0  0  0  0  0  0  0  0  0  0  0  0
   99.5395   11.5067  -90.9801 N   0  0  0  0  0  0  0  0  0  0  0  0
  100.4767    5.2431  -91.3070 C   0  0  1  0  0  0  0  0  0  0  0  0
  104.4824    3.5101  -92.0632 O   0  0  0  0  0  0  0  0  0  0  0  0
   98.7817    4.5219  -91.3035 O   0  0  0  0  0  0  0  0  0  0  0  0
   98.1473    8.6001  -90.3367 C   0  0  0  0  0  0  0  0  0  0  0  0
  100.0218    3.1978  -92.8470 O   0  0  0  0  0  0  0  0  0  0  0  0
   98.6262    7.7456  -90.2352 N   0  0  0  0  0  0  0  0  0  0  0  0
  105.4452    1.7950  -91.5935 O   0  0  0  0  0  0  0  0  0  0  0  0
  101.9658    7.9053  -91.1596 C   0  0  0  0  0  0  0  0  0  0  0  0
  3  2  1  0
  4  1  1  0
  5  4  1  0
  6  1  1  0
  8  2  1  0
  9  7  1  0
 10  4  1  0
 11  1  2  3
 12  2  1  0
 12  8  1  0
 12 10  1  0
 13  3  1  0
 13  9  1  0
 12 14  1  1
 15  6  1  0
  2 16  1  1
 17 15  3  0
 18  9  1  0
 19  5  2  0
 19 10  1  0
M  END
>  <ID>  (1) 
conformer_0

$$$$
