
     RDKit          3D

 23 26  0  0  0  0  0  0  0  0999 V2000
   99.3209   10.0840  -90.8394 C   0  0  0  0  0  0  0  0  0  0  0  0
  101.5172    3.5172  -92.7837 C   0  0  0  0  0  0  0  0  0  0  0  0
  103.1818    4.1384  -92.3765 C   0  0  0  0  0  0  0  0  0  0  0  0
  100.4492    9.2299  -90.9975 C   0  0  0  0  0  0  0  0  0  0  0  0
   98.7291    7.6137  -90.2143 N   0  0  0  0  0  0  0  0  0  0  0  0
  101.7934    8.9722  -91.3774 N   0  0  0  0  0  0  0  0  0  0  0  0
  105.5974    2.1937  -93.5726 O   0  0  0  0  0  0  0  0  0  0  0  0
   99.9965    4.4334  -91.6609 C   0  0  0  0  0  0  0  0  0  0  0  0
  105.6305    3.1624  -92.2563 P   0  0  0  0  0  0  0  0  0  0  0  0
   99.4777   11.3690  -90.8689 N   0  0  0  0  0  0  0  0  0  0  0  0
  104.6058    4.1712  -92.0889 O   0  0  0  0  0  0  0  0  0  0  0  0
  101.2108    7.0429  -90.9904 N   0  0  0  0  0  0  0  0  0  0  0  0
   98.8135    4.2850  -90.7467 O   0  0  0  0  0  0  0  0  0  0  0  0
  102.1137    4.9961  -91.1086 O   0  0  0  0  0  0  0  0  0  0  0  0
  102.1601    7.6257  -91.3008 C   0  0  0  0  0  0  0  0  0  0  0  0
   99.9423    3.1914  -92.8834 O   0  0  0  0  0  0  0  0  0  0  0  0
  106.8302    3.5252  -92.3857 O   0  0  0  0  0  0  0  0  0  0  0  0
  105.2337    2.2839  -91.2479 O   0  0  0  0  0  0  0  0  0  0  0  0
  100.4556    5.4872  -90.6669 C   0  0  0  0  0  0  0  0  0  0  0  0
   98.0691    9.4967  -90.5186 N   0  0  0  0  0  0  0  0  0  0  0  0
   97.9819    8.6041  -90.2592 C   0  0  0  0  0  0  0  0  0  0  0  0
  100.1850    7.8293  -90.8340 C   0  0  0  0  0  0  0  0  0  0  0  0
  101.6180    4.5801  -91.7121 C   0  0  0  0  0  0  0  0  0  0  0  0
  3  2  1  0
  4  1  2  0
  6  4  1  0
  9  7  1  0
 10  1  1  0
 11  3  1  0
 13  8  1  0
 15  6  2  0
 15 12  1  0
 16  2  1  0
 17  9  1  0
 18  3  1  0
 18  9  1  0
 19  8  1  0
 19 12  1  0
 19 14  1  0
 20  1  1  0
 21  5  1  0
 21 20  2  0
 22  4  1  0
 22  5  2  0
 22 12  1  0
 23  2  1  0
 23  3  1  0
 23  8  1  0
 23 14  1  0
M  END
>  <ID>  (1) 
conformer_0

$$$$
