
     RDKit          3D

 21 21  0  0  0  0  0  0  0  0999 V2000
   98.0319    8.5875  -90.4309 C   0  0  0  0  0  0  0  0  0  0  0  0
  100.4871    5.3869  -90.9309 C   0  0  1  0  0  0  0  0  0  0  0  0
  100.0937    4.6817  -91.7675 C   0  0  1  0  0  0  0  0  0  0  0  0
  101.7596    8.2609  -91.3096 C   0  0  0  0  0  0  0  0  0  0  0  0
  101.4106    9.4069  -91.2960 N   0  0  0  0  0  0  0  0  0  0  0  0
   98.0476    9.7211  -90.6358 N   0  0  0  0  0  0  0  0  0  0  0  0
  105.5425    2.1927  -93.6932 O   0  0  0  0  0  0  0  0  0  0  0  0
  105.5651    2.9918  -92.2376 P   0  0  0  0  0  0  0  0  0  0  0  0
  101.6987    4.0719  -92.0107 C   0  0  2  0  0  0  0  0  0  0  0  0
  102.0186    5.5187  -91.4581 O   0  0  0  0  0  0  0  0  0  0  0  0
  100.6446    7.3386  -91.0774 N   0  0  0  0  0  0  0  0  0  0  0  0
  104.3519    3.6134  -92.0105 O   0  0  0  0  0  0  0  0  0  0  0  0
   99.3984   11.4762  -91.1243 N   0  0  0  0  0  0  0  0  0  0  0  0
   98.9756    3.9913  -92.0453 O   0  0  0  0  0  0  0  0  0  0  0  0
  100.1704    8.4111  -90.9887 C   0  0  0  0  0  0  0  0  0  0  0  0
  100.1870    3.9248  -89.6725 O   0  0  0  0  0  0  0  0  0  0  0  0
  106.6025    3.8653  -92.4209 O   0  0  0  0  0  0  0  0  0  0  0  0
  105.8796    2.0255  -91.1660 O   0  0  0  0  0  0  0  0  0  0  0  0
   98.3343    7.7473  -90.4372 N   0  0  0  0  0  0  0  0  0  0  0  0
  102.8832    4.1178  -92.0854 C   0  0  2  0  0  0  0  0  0  0  0  0
   99.5444    9.9490  -91.0357 C   0  0  0  0  0  0  0  0  0  0  0  0
  3  2  1  0
  5  4  2  3
  6  1  1  0
  8  7  1  0
  9  3  1  0
 10  2  1  0
  9 10  1  1
 11  2  1  0
 11  4  1  0
 12  8  1  0
  3 14  1  1
 15 11  1  0
  2 16  1  1
 17  8  1  0
 19  1  3  0
 20  9  1  0
 20 12  1  0
 20 18  1  1
 21  6  1  0
 21 13  2  3
 21 15  1  0
M  END
>  <ID>  (1) 
conformer_0

$$$$
