
     RDKit          3D

 21 22  0  0  0  0  0  0  0  0999 V2000
  100.3759    4.5957  -92.1739 C   0  0  2  0  0  0  0  0  0  0  0  0
   97.8739    8.6245  -90.2224 C   0  0  0  0  0  0  0  0  0  0  0  0
  102.9947    3.9982  -91.8146 C   0  0  1  0  0  0  0  0  0  0  0  0
   99.9872    8.5339  -90.7610 C   0  0  2  0  0  0  0  0  0  0  0  0
  101.2402    9.5359  -91.3294 N   0  0  0  0  0  0  0  0  0  0  0  0
   97.7856    9.6624  -90.4682 N   0  0  0  0  0  0  0  0  0  0  0  0
  105.6831    2.0075  -93.5830 O   0  0  0  0  0  0  0  0  0  0  0  0
  105.6129    2.8005  -92.1938 P   0  0  0  0  0  0  0  0  0  0  0  0
  100.8974    7.3450  -91.0680 N   0  0  0  0  0  0  0  0  0  0  0  0
   99.2227   11.4339  -90.9680 N   0  0  0  0  0  0  0  0  0  0  0  0
  105.9602    2.0083  -91.0228 O   0  0  0  0  0  0  0  0  0  0  0  0
  100.8105    5.4295  -91.2335 C   0  0  2  0  0  0  0  0  0  0  0  0
   99.1649    4.3368  -91.0559 O   0  0  0  0  0  0  0  0  0  0  0  0
  102.0165    5.3668  -91.5228 O   0  0  0  0  0  0  0  0  0  0  0  0
  100.3951    2.7107  -92.7601 O   0  0  0  0  0  0  0  0  0  0  0  0
  101.5532    8.1159  -91.3002 C   0  0  0  0  0  0  0  0  0  0  0  0
  104.3846    3.3392  -92.1295 O   0  0  0  0  0  0  0  0  0  0  0  0
  106.6402    3.7031  -92.5713 O   0  0  0  0  0  0  0  0  0  0  0  0
   98.4782    7.6900  -90.1577 N   0  0  0  0  0  0  0  0  0  0  0  0
   99.3897    9.9319  -90.8974 C   0  0  0  0  0  0  0  0  0  0  0  0
  101.8893    3.8096  -92.4321 C   0  0  1  0  0  0  0  0  0  0  0  0
  5  4  1  0
  6  2  2  3
  8  7  1  0
  4  9  1  6
  3 11  1  1
 12  1  1  0
 12  9  1  6
  1 13  1  1
 14  3  1  0
 14 12  1  0
 16  5  2  0
 16  9  1  0
 17  3  1  0
 17  8  1  0
 18  8  1  0
 19  2  1  0
 20  4  1  0
 20  6  1  0
 20 10  2  3
 21  1  1  0
 21  3  1  0
 21 15  1  1
M  END
>  <ID>  (1) 
conformer_0

$$$$
