
     RDKit          3D

 22 24  0  0  0  0  0  0  0  0999 V2000
  103.3539    4.2089  -91.7255 C   0  0  2  0  0  0  0  0  0  0  0  0
  100.1818    8.3528  -91.0135 C   0  0  1  0  0  0  0  0  0  0  0  0
  102.2641    3.9632  -92.8511 C   0  0  0  0  0  0  0  0  0  0  0  0
  101.8774    8.1663  -91.2403 C   0  0  0  0  0  0  0  0  0  0  0  0
  101.3566    9.5552  -91.1486 N   0  0  0  0  0  0  0  0  0  0  0  0
   97.7453    9.1662  -90.3250 N   0  0  0  0  0  0  0  0  0  0  0  0
  105.4982    2.2139  -93.6647 O   0  0  0  0  0  0  0  0  0  0  0  0
  105.4876    2.8539  -92.2449 P   0  0  0  0  0  0  0  0  0  0  0  0
  102.0788    5.1912  -91.3215 O   0  0  0  0  0  0  0  0  0  0  0  0
   98.6699   11.1005  -90.8911 N   0  0  0  0  0  0  0  0  0  0  0  0
  105.5271    1.8333  -91.1547 O   0  0  0  0  0  0  0  0  0  0  0  0
  100.8980    7.3277  -91.1980 N   0  0  0  0  0  0  0  0  0  0  0  0
  101.0243    3.8046  -92.1913 C   0  0  2  0  0  0  0  0  0  0  0  0
   99.1425    4.1170  -91.2000 O   0  0  0  0  0  0  0  0  0  0  0  0
   97.8368    8.2518  -90.3676 C   0  0  0  0  0  0  0  0  0  0  0  0
  106.6011    3.6289  -92.5248 O   0  0  0  0  0  0  0  0  0  0  0  0
  100.1832    3.3668  -93.2413 O   0  0  0  0  0  0  0  0  0  0  0  0
  104.2127    3.3360  -92.0404 O   0  0  0  0  0  0  0  0  0  0  0  0
   99.2953    9.6871  -90.8358 C   0  0  0  0  0  0  0  0  0  0  0  0
   98.4045    7.3417  -90.6111 N   0  0  0  0  0  0  0  0  0  0  0  0
  100.8995    5.5892  -91.3051 C   0  0  1  0  0  0  0  0  0  0  0  0
   99.9868    5.2023  -92.1683 C   0  0  1  0  0  0  0  0  0  0  0  0
  3  1  1  0
  4  2  1  0
  5  2  1  0
  5  4  2  0
  8  7  1  0
  9  1  1  0
  1 11  1  1
  2 12  1  6
 12  4  1  0
 13  3  1  0
 15  6  2  3
 16  8  1  0
 13 17  1  6
 18  1  1  0
 18  8  1  0
 19  2  1  0
 19  6  1  0
 19 10  2  3
 20 15  1  0
 21  9  1  0
 21 12  1  6
 22 13  1  0
 22 14  1  1
 22 21  1  0
M  END
>  <ID>  (1) 
conformer_0

$$$$
