
     RDKit          3D

 23 25  0  0  0  0  0  0  0  0999 V2000
   99.8452    7.7297  -90.8992 C   0  0  0  0  0  0  0  0  0  0  0  0
  101.8983    4.2117  -92.7740 C   0  0  0  0  0  0  0  0  0  0  0  0
  103.7204    3.7312  -91.6344 C   0  0  0  0  0  0  0  0  0  0  0  0
  101.8695    7.7813  -91.4837 C   0  0  0  0  0  0  0  0  0  0  0  0
   97.7134    9.3575  -90.3255 N   0  0  0  0  0  0  0  0  0  0  0  0
  101.3507    9.1931  -91.4362 N   0  0  0  0  0  0  0  0  0  0  0  0
  105.6083    2.0167  -93.6564 O   0  0  0  0  0  0  0  0  0  0  0  0
  101.9044    5.0105  -90.7264 O   0  0  0  0  0  0  0  0  0  0  0  0
   98.9945   11.3160  -90.9810 N   0  0  0  0  0  0  0  0  0  0  0  0
  105.8150    2.7346  -92.3523 P   0  0  0  0  0  0  0  0  0  0  0  0
  106.5028    1.8874  -91.2484 O   0  0  0  0  0  0  0  0  0  0  0  0
  102.1170    3.9831  -91.4758 C   0  0  0  0  0  0  0  0  0  0  0  0
  106.6765    3.8483  -92.5870 O   0  0  0  0  0  0  0  0  0  0  0  0
   99.0260    4.0574  -91.4159 O   0  0  0  0  0  0  0  0  0  0  0  0
  100.7903    7.1315  -91.1101 N   0  0  0  0  0  0  0  0  0  0  0  0
   98.6894    9.8804  -90.8246 C   0  0  0  0  0  0  0  0  0  0  0  0
  104.6234    3.3762  -91.7328 O   0  0  0  0  0  0  0  0  0  0  0  0
   98.4662    7.4195  -90.1436 N   0  0  0  0  0  0  0  0  0  0  0  0
  100.0443    9.1592  -91.0765 C   0  0  0  0  0  0  0  0  0  0  0  0
  100.1765    4.6548  -92.0209 C   0  0  0  0  0  0  0  0  0  0  0  0
  100.4484    3.2065  -92.6899 O   0  0  0  0  0  0  0  0  0  0  0  0
  100.5212    5.4498  -90.9198 C   0  0  0  0  0  0  0  0  0  0  0  0
   97.6700    8.1938  -89.9306 C   0  0  0  0  0  0  0  0  0  0  0  0
  6  4  2  0
 10  7  1  0
 11  3  1  0
 12  2  1  0
 12  3  1  0
 12  8  1  0
 13 10  1  0
 15  1  1  0
 15  4  1  0
 16  5  2  0
 16  9  1  0
 17  3  1  0
 17 10  1  0
 18  1  1  0
 19  1  2  0
 19  6  1  0
 19 16  1  0
 20  2  1  0
 20 14  1  0
 21 20  1  0
 22  8  1  0
 22 15  1  0
 22 20  1  0
 23  5  1  0
 23 18  2  0
M  END
>  <ID>  (1) 
conformer_0

$$$$
