
     RDKit          3D

 23 26  0  0  0  0  0  0  0  0999 V2000
  101.1653    4.0850  -92.0823 C   0  0  0  0  0  0  0  0  0  0  0  0
  100.0238    9.5109  -90.9981 C   0  0  0  0  0  0  0  0  0  0  0  0
  100.1612    5.0435  -91.8631 C   0  0  0  0  0  0  0  0  0  0  0  0
   99.9451    8.0639  -90.7387 C   0  0  0  0  0  0  0  0  0  0  0  0
   97.6491   10.0351  -90.4424 N   0  0  0  0  0  0  0  0  0  0  0  0
  101.1949    9.4253  -91.3034 N   0  0  0  0  0  0  0  0  0  0  0  0
  100.8468    7.3907  -90.9624 N   0  0  0  0  0  0  0  0  0  0  0  0
  102.0628    5.2877  -90.7040 O   0  0  0  0  0  0  0  0  0  0  0  0
  106.8123    3.9070  -92.4524 O   0  0  0  0  0  0  0  0  0  0  0  0
   99.2374   11.5407  -91.1271 N   0  0  0  0  0  0  0  0  0  0  0  0
  105.6348    3.1051  -92.2373 P   0  0  0  0  0  0  0  0  0  0  0  0
  104.3784    3.7046  -92.0614 O   0  0  0  0  0  0  0  0  0  0  0  0
  100.9029    5.4836  -90.7748 C   0  0  0  0  0  0  0  0  0  0  0  0
   98.9006    4.5131  -91.4704 O   0  0  0  0  0  0  0  0  0  0  0  0
  101.8630    7.9661  -91.3339 C   0  0  0  0  0  0  0  0  0  0  0  0
   98.3614    8.0124  -90.1936 N   0  0  0  0  0  0  0  0  0  0  0  0
  105.7442    2.3138  -93.4741 O   0  0  0  0  0  0  0  0  0  0  0  0
  105.5996    2.1793  -91.0939 O   0  0  0  0  0  0  0  0  0  0  0  0
  100.2490    2.9704  -92.7387 O   0  0  0  0  0  0  0  0  0  0  0  0
  103.2877    4.3663  -91.2324 C   0  0  0  0  0  0  0  0  0  0  0  0
   97.6171    8.6129  -90.0996 C   0  0  0  0  0  0  0  0  0  0  0  0
   98.7957   10.2670  -90.8776 C   0  0  0  0  0  0  0  0  0  0  0  0
  102.6758    4.0448  -92.6015 C   0  0  0  0  0  0  0  0  0  0  0  0
  3  1  1  0
  4  2  1  0
  6  2  1  0
  7  4  1  0
 11  9  1  0
 12 11  1  0
 13  1  1  0
 13  3  1  0
 13  7  1  0
 13  8  1  0
 14  3  1  0
 15  6  2  0
 15  7  1  0
 16  4  2  0
 17 11  1  0
 19  1  1  0
 20  8  1  0
 20 12  1  0
 20 18  1  0
 21  5  2  0
 21 16  1  0
 22  2  2  0
 22  5  1  0
 22 10  1  0
 23  1  1  0
 23 20  1  0
M  END
>  <ID>  (1) 
conformer_0

$$$$
