
     RDKit          3D

 22 23  0  0  0  0  0  0  0  0999 V2000
  101.1464    3.8661  -92.4550 C   0  0  2  0  0  0  0  0  0  0  0  0
   97.9005    8.9159  -90.2694 C   0  0  0  0  0  0  0  0  0  0  0  0
  100.0655    4.9454  -91.9470 C   0  0  2  0  0  0  0  0  0  0  0  0
   99.5767   10.0186  -91.0036 C   0  0  0  0  0  0  0  0  0  0  0  0
   97.9836   10.1446  -90.6467 N   0  0  0  0  0  0  0  0  0  0  0  0
  101.3743    9.4100  -91.3060 N   0  0  0  0  0  0  0  0  0  0  0  0
  105.6190    3.1823  -92.2575 P   0  0  0  0  0  0  0  0  0  0  0  0
  106.6771    3.8896  -91.9251 O   0  0  0  0  0  0  0  0  0  0  0  0
  100.7813    7.2533  -91.0964 N   0  0  0  0  0  0  0  0  0  0  0  0
  100.4547    5.6969  -90.9602 C   0  0  2  0  0  0  0  0  0  0  0  0
   99.5895   11.5461  -91.2125 N   0  0  0  0  0  0  0  0  0  0  0  0
  105.7419    2.1836  -93.5038 O   0  0  0  0  0  0  0  0  0  0  0  0
  104.4207    3.9335  -92.3471 O   0  0  0  0  0  0  0  0  0  0  0  0
   98.8421    4.2077  -91.4846 O   0  0  0  0  0  0  0  0  0  0  0  0
  101.8426    5.2685  -90.9717 O   0  0  0  0  0  0  0  0  0  0  0  0
  101.5572    7.9887  -91.3110 C   0  0  0  0  0  0  0  0  0  0  0  0
   98.2399    8.0127  -90.2973 N   0  0  0  0  0  0  0  0  0  0  0  0
  105.1691    2.1996  -91.3935 O   0  0  0  0  0  0  0  0  0  0  0  0
  100.0063    8.5369  -90.8679 C   0  0  2  0  0  0  0  0  0  0  0  0
  100.4125    2.8264  -92.5068 O   0  0  0  0  0  0  0  0  0  0  0  0
  102.3201    4.3901  -91.5837 C   0  0  2  0  0  0  0  0  0  0  0  0
  103.2109    3.9637  -92.4103 C   0  0  1  0  0  0  0  0  0  0  0  0
  3  1  1  0
  5  2  1  0
  5  4  1  0
  8  7  1  0
 10  3  1  0
 10  9  1  6
 11  4  2  3
 12  7  1  0
  3 14  1  1
 15 10  1  0
 16  6  2  0
 16  9  1  0
 17  2  2  3
 18  7  1  0
 19  4  1  0
 19  6  1  0
 19  9  1  6
  1 20  1  1
 21  1  1  0
 21 15  1  6
 22 13  1  1
 22 18  1  0
 22 21  1  0
M  END
>  <ID>  (1) 
conformer_0

$$$$
