
     RDKit          3D

 23 25  0  0  0  0  0  0  0  0999 V2000
   99.9481    7.9152  -90.7232 C   0  0  0  0  0  0  0  0  0  0  0  0
  102.4038    3.6935  -91.9008 C   0  0  0  0  0  0  0  0  0  0  0  0
  100.9844    4.2605  -92.2843 C   0  0  0  0  0  0  0  0  0  0  0  0
  101.8559    7.9799  -91.3448 C   0  0  0  0  0  0  0  0  0  0  0  0
  101.3135    9.4825  -91.2882 N   0  0  0  0  0  0  0  0  0  0  0  0
   97.9274    9.9683  -90.6645 N   0  0  0  0  0  0  0  0  0  0  0  0
  102.3034    5.3424  -91.2374 O   0  0  0  0  0  0  0  0  0  0  0  0
  105.4979    2.0733  -93.4481 O   0  0  0  0  0  0  0  0  0  0  0  0
  105.4946    2.7753  -92.2522 P   0  0  0  0  0  0  0  0  0  0  0  0
  100.8924    7.2820  -91.0086 N   0  0  0  0  0  0  0  0  0  0  0  0
   99.9014    5.0480  -91.4191 C   0  0  0  0  0  0  0  0  0  0  0  0
   99.3748   11.7296  -91.1206 N   0  0  0  0  0  0  0  0  0  0  0  0
   98.8711    4.4841  -90.8953 O   0  0  0  0  0  0  0  0  0  0  0  0
  105.7834    2.0217  -90.9722 O   0  0  0  0  0  0  0  0  0  0  0  0
   97.8005    8.6504  -90.2091 C   0  0  0  0  0  0  0  0  0  0  0  0
   98.5561    7.8893  -90.1993 N   0  0  0  0  0  0  0  0  0  0  0  0
  106.6420    3.6352  -92.6011 O   0  0  0  0  0  0  0  0  0  0  0  0
   99.9982    3.2040  -92.5866 O   0  0  0  0  0  0  0  0  0  0  0  0
  104.4407    3.4247  -91.8536 O   0  0  0  0  0  0  0  0  0  0  0  0
  103.5145    4.2625  -91.9676 C   0  0  0  0  0  0  0  0  0  0  0  0
  100.2341    9.3560  -91.0709 C   0  0  0  0  0  0  0  0  0  0  0  0
   99.1221   10.3173  -90.9403 C   0  0  0  0  0  0  0  0  0  0  0  0
  101.0509    5.4508  -90.8243 C   0  0  0  0  0  0  0  0  0  0  0  0
  3  2  1  0
  5  4  2  0
  9  8  1  0
 10  1  1  0
 10  4  1  0
 11  3  1  0
 13 11  1  0
 15  6  1  0
 16  1  1  0
 16 15  2  0
 17  9  1  0
 18  3  1  0
 19  9  1  0
 20  2  1  0
 20  7  1  0
 20 14  1  0
 20 19  1  0
 21  1  2  0
 21  5  1  0
 22  6  2  0
 22 12  1  0
 22 21  1  0
 23  7  1  0
 23 10  1  0
 23 11  1  0
M  END
>  <ID>  (1) 
conformer_0

$$$$
