
     RDKit          3D

 23 24  0  0  0  0  0  0  0  0999 V2000
  100.5480    5.6622  -91.2148 C   0  0  0  0  0  0  0  0  0  0  0  0
   99.6775    7.9589  -90.8692 C   0  0  0  0  0  0  0  0  0  0  0  0
   99.8748    4.7816  -91.8954 C   0  0  0  0  0  0  0  0  0  0  0  0
  101.8292    7.9302  -91.2634 C   0  0  0  0  0  0  0  0  0  0  0  0
  101.3573    9.5096  -91.2197 N   0  0  0  0  0  0  0  0  0  0  0  0
   98.2050    7.7261  -90.4060 N   0  0  0  0  0  0  0  0  0  0  0  0
  106.7132    3.8908  -91.9852 O   0  0  0  0  0  0  0  0  0  0  0  0
  105.7755    3.0451  -91.9294 P   0  0  0  0  0  0  0  0  0  0  0  0
   99.4310   11.6166  -91.0452 N   0  0  0  0  0  0  0  0  0  0  0  0
  102.0961    5.2639  -91.3984 O   0  0  0  0  0  0  0  0  0  0  0  0
  100.6908    7.3110  -91.0759 N   0  0  0  0  0  0  0  0  0  0  0  0
  101.5657    4.3897  -92.8644 C   0  0  0  0  0  0  0  0  0  0  0  0
  104.4412    3.5648  -91.8823 O   0  0  0  0  0  0  0  0  0  0  0  0
   98.8881    4.2282  -91.5773 O   0  0  0  0  0  0  0  0  0  0  0  0
  100.1831    9.4060  -91.0443 C   0  0  0  0  0  0  0  0  0  0  0  0
   97.7947    9.9117  -90.5477 N   0  0  0  0  0  0  0  0  0  0  0  0
  105.8394    1.9326  -90.9109 O   0  0  0  0  0  0  0  0  0  0  0  0
  105.8540    2.3060  -93.3835 O   0  0  0  0  0  0  0  0  0  0  0  0
  100.3156    3.3399  -93.0918 O   0  0  0  0  0  0  0  0  0  0  0  0
   97.4919    8.5770  -90.2418 C   0  0  0  0  0  0  0  0  0  0  0  0
   98.9337   10.1495  -90.9178 C   0  0  0  0  0  0  0  0  0  0  0  0
  101.9569    3.8493  -91.6943 C   0  0  0  0  0  0  0  0  0  0  0  0
  103.3797    4.0598  -92.1440 C   0  0  0  0  0  0  0  0  0  0  0  0
  3  1  1  0
  5  4  2  0
  6  2  1  0
  8  7  1  0
 10  1  1  0
 11  1  1  0
 11  2  1  0
 11  4  1  0
 13  8  1  0
 14  3  1  0
 15  2  2  0
 15  5  1  0
 18  8  1  0
 19 12  1  0
 20  6  2  0
 20 16  1  0
 21  9  1  0
 21 15  1  0
 21 16  2  0
 22 10  1  0
 22 12  1  0
 23 13  1  0
 23 17  1  0
 23 22  1  0
M  END
>  <ID>  (1) 
conformer_0

$$$$
