
     RDKit          3D

 23 24  0  0  0  0  0  0  0  0999 V2000
  101.7092    4.3641  -92.9779 C   0  0  0  0  0  0  0  0  0  0  0  0
  100.1778    9.5151  -90.9596 C   0  0  0  0  0  0  0  0  0  0  0  0
  103.4895    4.0224  -92.1629 C   0  0  0  0  0  0  0  0  0  0  0  0
  101.6800    7.9671  -91.5076 C   0  0  0  0  0  0  0  0  0  0  0  0
   98.3956    7.6335  -90.2324 N   0  0  0  0  0  0  0  0  0  0  0  0
  101.2984    9.4448  -91.4050 N   0  0  0  0  0  0  0  0  0  0  0  0
  105.8905    2.7440  -91.9567 P   0  0  0  0  0  0  0  0  0  0  0  0
  105.9286    1.9815  -93.2566 O   0  0  0  0  0  0  0  0  0  0  0  0
  102.0309    5.2391  -91.0817 O   0  0  0  0  0  0  0  0  0  0  0  0
  101.8181    4.0520  -91.7110 C   0  0  0  0  0  0  0  0  0  0  0  0
   99.4973   11.4797  -90.8082 N   0  0  0  0  0  0  0  0  0  0  0  0
  105.7571    1.9188  -90.7392 O   0  0  0  0  0  0  0  0  0  0  0  0
  100.7392    7.2884  -91.2158 N   0  0  0  0  0  0  0  0  0  0  0  0
   99.0833    3.9277  -91.1604 O   0  0  0  0  0  0  0  0  0  0  0  0
   99.8079    7.9974  -90.8711 C   0  0  0  0  0  0  0  0  0  0  0  0
   97.8305    9.8107  -90.4705 N   0  0  0  0  0  0  0  0  0  0  0  0
  100.7198    2.9796  -93.1586 O   0  0  0  0  0  0  0  0  0  0  0  0
  104.4998    3.3755  -91.8920 O   0  0  0  0  0  0  0  0  0  0  0  0
  106.8705    3.5946  -92.3220 O   0  0  0  0  0  0  0  0  0  0  0  0
   97.6625    8.5356  -90.0971 C   0  0  0  0  0  0  0  0  0  0  0  0
   99.9323    4.6476  -92.0773 C   0  0  0  0  0  0  0  0  0  0  0  0
  100.5299    5.5794  -91.1668 C   0  0  0  0  0  0  0  0  0  0  0  0
   98.8939   10.0867  -90.7930 C   0  0  0  0  0  0  0  0  0  0  0  0
  6  2  1  0
  6  4  2  0
  8  7  1  0
 10  1  1  0
 10  3  1  0
 10  9  1  0
 12  3  1  0
 12  7  1  0
 13  4  1  0
 15  2  2  0
 15  5  1  0
 15 13  1  0
 17  1  1  0
 18  3  1  0
 19  7  1  0
 20  5  2  0
 20 16  1  0
 21 14  1  0
 22  9  1  0
 22 13  1  0
 22 21  1  0
 23  2  1  0
 23 11  1  0
 23 16  2  0
M  END
>  <ID>  (1) 
conformer_0

$$$$
