
     RDKit          3D

 21 22  0  0  0  0  0  0  0  0999 V2000
  100.5356    4.5591  -92.0247 C   0  0  0  0  0  0  0  0  0  0  0  0
  100.0769    8.5189  -90.9239 C   0  0  0  0  0  0  0  0  0  0  0  0
  101.9446    3.9070  -92.3219 C   0  0  0  0  0  0  0  0  0  0  0  0
  101.5884    7.7723  -91.1717 C   0  0  0  0  0  0  0  0  0  0  0  0
   97.9863    9.9318  -90.6849 N   0  0  0  0  0  0  0  0  0  0  0  0
  101.4088    9.1708  -91.3690 N   0  0  0  0  0  0  0  0  0  0  0  0
  103.1961    3.9084  -92.0972 C   0  0  0  0  0  0  0  0  0  0  0  0
   99.6228   11.5885  -91.0959 N   0  0  0  0  0  0  0  0  0  0  0  0
  105.9501    1.7855  -91.5652 O   0  0  0  0  0  1  0  0  0  0  0  0
  101.0835    7.0758  -91.0116 N   0  0  0  0  0  0  0  0  0  0  0  0
  105.5482    2.7559  -92.3350 P   0  0  0  0  0  4  0  0  0  0  0  0
  105.9315    3.0164  -92.9470 O   0  0  0  0  0  0  0  0  0  0  0  0
  102.3480    4.9113  -91.0693 O   0  0  0  0  0  0  0  0  0  0  0  0
   99.0360    4.6098  -90.5635 O   0  0  0  0  0  0  0  0  0  0  0  0
   97.9948    8.6396  -90.2872 C   0  0  0  0  0  0  0  0  0  0  0  0
   98.6271    7.8335  -90.2745 N   0  0  0  0  0  2  0  0  0  0  0  0
  101.6168    2.2822  -92.9505 O   0  0  0  0  0  0  0  0  0  0  0  0
  100.6658    5.2366  -91.0560 C   0  0  0  0  0  0  0  0  0  0  0  0
  104.5838    3.2851  -91.5894 O   0  0  0  0  0  0  0  0  0  0  0  0
   99.4923   10.0145  -91.0178 C   0  0  0  0  0  0  0  0  0  0  0  0
   99.5084    3.3805  -92.3676 O   0  0  0  0  0  0  0  0  0  0  0  0
  3  1  1  0
  4  2  1  0
  6  2  1  0
  6  4  2  0
  7  3  1  0
 10  4  1  0
 11  9  1  0
 12 11  1  0
 13  3  1  0
 15  5  2  0
 16  2  1  0
 16 15  1  0
 17  3  1  0
 18  1  1  0
 18 10  1  0
 18 14  1  0
 19  7  1  0
 19 11  1  0
 20  2  1  0
 20  5  1  0
 20  8  1  0
 21  1  1  0
M  RAD  3   9   2  11   2  16   2
M  END
>  <ID>  (1) 
conformer_0

$$$$
