
     RDKit          3D

 23 26  0  0  0  0  0  0  0  0999 V2000
   99.9210    4.4431  -91.8949 C   0  0  0  0  0  0  0  0  0  0  0  0
   97.6570    8.8490  -90.1901 C   0  0  0  0  0  0  0  0  0  0  0  0
  101.5112    4.0777  -92.9895 C   0  0  0  0  0  0  0  0  0  0  0  0
  101.9517    7.7257  -91.4540 C   0  0  0  0  0  0  0  0  0  0  0  0
   98.5444    7.8598  -90.4541 N   0  0  0  0  0  0  0  0  0  0  0  0
  105.6988    2.0560  -93.3547 O   0  0  0  0  0  0  0  0  0  0  0  0
  101.3062    9.2850  -91.4021 N   0  0  0  0  0  0  0  0  0  0  0  0
   99.1690   11.5504  -91.2328 N   0  0  0  0  0  0  0  0  0  0  0  0
  105.6735    2.8595  -92.0112 P   0  0  0  0  0  0  0  0  0  0  0  0
  100.8689    7.2604  -91.2379 N   0  0  0  0  0  0  0  0  0  0  0  0
  105.9011    1.9753  -90.8101 O   0  0  0  0  0  0  0  0  0  0  0  0
  100.5331    5.5964  -91.2605 C   0  0  0  0  0  0  0  0  0  0  0  0
  100.1577    2.8315  -92.9268 O   0  0  0  0  0  0  0  0  0  0  0  0
  104.3684    3.6387  -91.6774 O   0  0  0  0  0  0  0  0  0  0  0  0
  100.0027    8.0021  -90.9352 C   0  0  0  0  0  0  0  0  0  0  0  0
   99.9031    9.4138  -91.0190 C   0  0  0  0  0  3  0  0  0  0  0  0
  106.5595    3.7465  -92.4237 O   0  0  0  0  0  0  0  0  0  0  0  0
  102.2015    5.1885  -91.5683 O   0  0  0  0  0  0  0  0  0  0  0  0
   99.2990    3.7659  -90.8982 O   0  0  0  0  0  0  0  0  0  0  0  0
   97.6992    9.6652  -90.4859 N   0  0  0  0  0  0  0  0  0  0  0  0
  101.7543    3.8096  -91.6886 C   0  0  0  0  0  0  0  0  0  0  0  0
  103.1770    4.1203  -92.0836 C   0  0  0  0  0  0  0  0  0  0  0  0
   98.7424   10.3864  -90.9922 C   0  0  0  0  0  0  0  0  0  0  0  0
  5  2  2  0
  7  4  1  0
  9  6  1  0
 10  4  1  0
 11  9  1  0
 12  1  1  0
 12 10  1  0
 13  3  1  0
 15  5  1  0
 15  7  1  0
 15 10  1  0
 16  7  1  0
 16 15  1  0
 17  9  1  0
 19  1  1  0
 20  2  1  0
 21  1  1  0
 21  3  1  0
 21 18  1  0
 22 11  1  0
 22 14  1  0
 22 18  1  0
 22 21  1  0
 23  8  1  0
 23 16  1  0
 23 20  2  0
M  RAD  1  16   2
M  END
>  <ID>  (1) 
conformer_0

$$$$
