
     RDKit          3D

 22 21  0  0  0  0  0  0  0  0999 V2000
   97.8905    8.6426  -90.3431 C   0  0  0  0  0  0  0  0  0  0  0  0
  100.7835    5.0505  -90.8260 C   0  0  0  0  0  0  0  0  0  0  0  0
  102.0112    3.9979  -92.2028 C   0  0  2  0  0  0  0  0  0  0  0  0
   99.2381    9.8450  -91.0495 C   0  0  0  0  0  0  0  0  0  0  0  0
  101.2957    9.1380  -91.3898 N   0  0  0  0  0  0  0  0  0  0  0  0
   98.3529    7.5972  -90.3354 N   0  0  0  0  0  0  0  0  0  0  0  0
  105.7873    2.4478  -92.2037 P   0  0  0  0  0  0  0  0  0  0  0  0
   99.2520   11.3669  -91.1644 N   0  0  0  0  0  0  0  0  0  0  0  0
  105.6920    1.7123  -93.3556 O   0  0  0  0  0  0  0  0  0  0  0  0
  100.8105    7.1398  -91.1454 N   0  0  0  0  0  0  0  0  0  0  0  0
  106.4127    2.1941  -90.7859 O   0  0  0  0  0  0  0  0  0  0  0  0
  103.1714    3.8699  -91.6067 C   0  0  1  0  0  0  0  0  0  0  0  0
  100.3608    3.8640  -89.5050 O   0  0  0  0  0  0  0  0  0  0  0  0
  101.5016    7.8162  -91.3176 C   0  0  0  0  0  0  0  0  0  0  0  0
  100.6094    3.5481  -93.3174 O   0  0  0  0  0  0  0  0  0  0  0  0
  106.7774    3.5546  -92.6501 O   0  0  0  0  0  0  0  0  0  0  0  0
  102.1313    5.2562  -91.3229 O   0  0  0  0  0  0  0  0  0  0  0  0
   97.6509    9.7547  -90.5916 N   0  0  0  0  0  0  0  0  0  0  0  0
  104.6467    3.0248  -91.7532 O   0  0  0  0  0  0  0  0  0  0  0  0
   99.8123    8.2657  -91.0591 C   0  0  0  0  0  0  0  0  0  0  0  0
  100.4727    4.7050  -91.9730 C   0  0  0  0  0  0  0  0  0  0  0  0
   99.2029    4.0265  -91.4008 O   0  0  0  0  0  0  0  0  0  0  0  0
  6  1  3  0
  8  4  2  3
  9  7  1  0
 12  3  1  0
 12 11  1  1
 13  2  1  0
 14  3  1  0
 14  5  2  3
 14 10  1  0
 16  7  1  0
 17  2  1  0
 18  1  1  0
 18  4  1  0
 19  7  1  0
 19 12  1  0
 20  4  1  0
 20 10  1  0
 21  2  1  0
  3 21  1  1
 21 15  1  0
 22 21  1  0
M  END
>  <ID>  (1) 
conformer_0

$$$$
