
     RDKit          3D

 21 22  0  0  0  0  0  0  0  0999 V2000
  100.0786    8.4396  -90.9542 C   0  0  2  0  0  0  0  0  0  0  0  0
  102.9117    4.0920  -92.0106 C   0  0  2  0  0  0  0  0  0  0  0  0
  101.9190    3.9848  -92.4743 C   0  0  1  0  0  0  0  0  0  0  0  0
  101.5615    8.0803  -91.3829 C   0  0  0  0  0  0  0  0  0  0  0  0
  101.3409    9.4263  -91.3557 N   0  0  0  0  0  0  0  0  0  0  0  0
   97.9214    9.6897  -90.6057 N   0  0  0  0  0  0  0  0  0  0  0  0
  105.4086    2.0402  -93.6712 O   0  0  0  0  0  0  0  0  0  0  0  0
  105.3687    2.7290  -92.2556 P   0  0  0  0  0  0  0  0  0  0  0  0
  105.4449    1.7771  -91.0830 O   0  0  0  0  0  0  0  0  0  0  0  0
  100.8807    7.2829  -91.1274 N   0  0  0  0  0  0  0  0  0  0  0  0
   99.4356   11.5421  -91.0233 N   0  0  0  0  0  0  0  0  0  0  0  0
  101.9525    5.3486  -91.1626 O   0  0  0  0  0  0  0  0  0  0  0  0
  100.7054    5.4958  -90.9377 C   0  0  2  0  0  0  0  0  0  0  0  0
   99.0334    4.1814  -91.2023 O   0  0  0  0  0  0  0  0  0  0  0  0
   97.9307    8.5157  -90.3244 C   0  0  0  0  0  0  0  0  0  0  0  0
   98.5437    7.5796  -90.2320 N   0  0  0  0  0  0  0  0  0  0  0  0
  104.2634    3.4501  -92.0365 O   0  0  0  0  0  0  0  0  0  0  0  0
  100.5965    2.7495  -92.4249 O   0  0  0  0  0  0  0  0  0  0  0  0
  106.4865    3.4645  -92.5345 O   0  0  0  0  0  0  0  0  0  0  0  0
  100.3982    4.6658  -91.7580 C   0  0  2  0  0  0  0  0  0  0  0  0
   99.4296    9.9853  -90.9809 C   0  0  0  0  0  0  0  0  0  0  0  0
  3  2  1  0
  5  1  1  0
  5  4  2  0
  8  7  1  0
  2  9  1  1
  1 10  1  6
 10  4  1  0
 12  2  1  0
 13 10  1  6
 13 12  1  0
 15  6  1  0
 16 15  2  3
 17  2  1  0
 17  8  1  0
  3 18  1  1
 19  8  1  0
 20  3  1  0
 20 13  1  0
 20 14  1  1
 21  1  1  0
 21  6  1  0
 21 11  2  3
M  END
>  <ID>  (1) 
conformer_0

$$$$
