
     RDKit          3D

 20 21  0  0  0  0  0  0  0  0999 V2000
  103.0572    4.1879  -91.8931 C   0  0  2  0  0  0  0  0  0  0  0  0
   97.9362    8.7056  -90.2282 C   0  0  0  0  0  0  0  0  0  0  0  0
  100.3384    4.3829  -91.9865 C   0  0  1  0  0  0  0  0  0  0  0  0
   99.3617    9.9122  -90.9770 C   0  0  0  0  0  0  0  0  0  0  0  0
  101.2608    9.3383  -91.4292 N   0  0  0  0  0  0  0  0  0  0  0  0
   97.7299    9.8310  -90.4911 N   0  0  0  0  0  0  0  0  0  0  0  0
  105.6079    1.8403  -93.4423 O   0  0  0  0  0  0  0  0  0  0  0  0
  101.9757    5.1449  -91.0290 O   0  0  0  0  0  0  0  0  0  0  0  0
  105.5059    2.8088  -92.3010 P   0  0  0  0  0  0  0  0  0  0  0  0
  100.8455    7.2207  -91.0611 N   0  0  0  0  0  0  0  0  0  0  0  0
   99.3176   11.4720  -91.0114 N   0  0  0  0  0  0  0  0  0  0  0  0
   99.2549    3.7408  -91.3968 O   0  0  0  0  0  0  0  0  0  0  0  0
  104.1282    3.3312  -92.2726 O   0  0  0  0  0  0  0  0  0  0  0  0
  100.6110    5.3527  -91.2028 C   0  0  1  0  0  0  0  0  0  0  0  0
   99.9766    8.4275  -90.8698 C   0  0  2  0  0  0  0  0  0  0  0  0
   98.4205    7.7505  -90.1635 N   0  0  0  0  0  0  0  0  0  0  0  0
  101.5615    7.9641  -91.3429 C   0  0  0  0  0  0  0  0  0  0  0  0
  106.3404    3.4816  -92.6276 O   0  0  0  0  0  0  0  0  0  0  0  0
  102.0740    3.7937  -92.3650 C   0  0  0  0  0  0  0  0  0  0  0  0
  105.5588    2.4863  -90.9898 O   0  0  0  0  0  0  0  0  0  0  0  0
  6  2  1  0
  6  4  1  0
  8  1  1  0
  9  7  1  0
 11  4  2  3
  3 12  1  1
  1 13  1  1
 14  3  1  0
 14  8  1  0
 14 10  1  6
 15  4  1  0
 15  5  1  0
 15 10  1  6
 16  2  3  0
 17  5  2  0
 17 10  1  0
 18  9  1  0
 19  1  1  0
 19  3  1  0
 20  1  1  0
 20  9  1  0
M  END
>  <ID>  (1) 
conformer_0

$$$$
