
     RDKit          3D

 22 23  0  0  0  0  0  0  0  0999 V2000
  100.8585    4.3940  -92.4573 C   0  0  0  0  0  0  0  0  0  0  0  0
   97.8562    9.2893  -90.3464 C   0  0  0  0  0  0  0  0  0  0  0  0
  101.2486    4.8660  -90.5490 C   0  0  0  0  0  0  0  0  0  0  0  0
  101.0483    8.2666  -91.1643 C   0  0  0  0  0  0  0  0  0  0  0  0
   98.4241    7.9578  -90.3525 N   0  0  0  0  0  0  0  0  0  0  0  0
  105.2423    1.2511  -93.4213 O   0  0  0  0  0  0  0  0  0  0  0  0
  105.2824    2.2923  -92.5784 P   0  0  0  0  0  0  0  0  0  0  0  0
  100.6732    7.2041  -91.0736 N   0  0  0  0  0  0  0  0  0  0  0  0
  103.1072    3.9994  -91.4185 C   0  0  0  0  0  0  0  0  0  0  0  0
  104.1777    3.1893  -92.5720 O   0  0  0  0  0  0  0  0  0  0  0  0
  100.0329    3.2012  -92.7509 O   0  0  0  0  0  0  0  0  0  0  0  0
  100.9773    9.2927  -91.3773 N   0  0  0  0  0  0  0  0  0  0  0  0
   99.7411    4.0537  -90.1706 O   0  0  0  0  0  0  0  0  0  0  0  0
  102.2485    4.0256  -92.9289 C   0  0  0  0  0  0  0  0  0  0  0  0
  102.2992    5.2566  -91.3647 O   0  0  0  0  0  0  0  0  0  0  0  0
   98.1327   10.2327  -90.6572 N   0  0  0  0  0  0  0  0  0  0  0  0
   99.6488    8.3059  -90.7815 C   0  0  0  0  0  0  0  0  0  0  0  0
   99.7304   11.7819  -91.2008 N   0  0  0  0  0  0  0  0  0  0  0  0
  106.4428    3.2526  -92.6824 O   0  0  0  0  0  0  0  0  0  0  0  0
  105.1472    1.9523  -91.2101 O   0  0  0  0  0  0  0  0  0  0  0  0
   99.4625   10.1397  -91.0841 C   0  0  0  0  0  3  0  0  0  0  0  0
  100.1232    5.5039  -91.2558 C   0  0  0  0  0  0  0  0  0  0  0  0
  5  2  1  0
  7  6  1  0
  8  4  1  0
 10  9  1  0
 11  1  1  0
 12  4  2  0
 13  3  1  0
 14  1  1  0
 14  9  1  0
 15  3  1  0
 15  9  1  0
 16  2  2  0
 17  4  1  0
 17  5  1  0
 19  7  1  0
 20  7  1  0
 20  9  1  0
 21 12  1  0
 21 16  1  0
 21 18  1  0
 22  1  1  0
 22  3  1  0
 22  8  1  0
M  RAD  1  21   2
M  END
>  <ID>  (1) 
conformer_0

$$$$
