
     RDKit          3D

 22 23  0  0  0  0  0  0  0  0999 V2000
  102.4900    3.6595  -92.6099 C   0  0  0  0  0  0  0  0  0  0  0  0
   98.0026    8.8653  -90.2240 C   0  0  0  0  0  0  0  0  0  0  0  0
  103.3967    4.0586  -91.6623 C   0  0  1  0  0  0  0  0  0  0  0  0
  100.1292    8.5215  -90.9127 C   0  0  0  0  0  0  0  0  0  0  0  0
  101.3266    9.4068  -91.4248 N   0  0  0  0  0  0  0  0  0  0  0  0
  102.2648    5.2035  -91.1734 O   0  0  0  0  0  0  0  0  0  0  0  0
   98.7628    7.9018  -90.3182 N   0  0  0  0  0  0  0  0  0  0  0  0
  101.0233    7.4012  -91.1234 N   0  0  0  0  0  0  0  0  0  0  0  0
  105.5034    2.3021  -93.6669 O   0  0  0  0  0  0  0  0  0  0  0  0
  101.1115    3.7824  -92.4774 C   0  0  2  0  0  0  0  0  0  0  0  0
  105.6097    2.7454  -92.0138 P   0  0  0  0  0  0  0  0  0  0  0  0
   99.3239   11.5579  -91.0758 N   0  0  0  0  0  0  0  0  0  0  0  0
  105.5664    1.5487  -91.3799 O   0  0  0  0  0  0  0  0  0  0  0  0
   99.1006    4.2672  -91.4530 O   0  0  0  0  0  0  0  0  0  0  0  0
  101.7119    8.0835  -91.4763 C   0  0  0  0  0  0  0  0  0  0  0  0
  100.3368    2.8168  -93.0432 O   0  0  0  0  0  0  0  0  0  0  0  0
  104.6362    3.4892  -91.5680 O   0  0  0  0  0  0  0  0  0  0  0  0
   97.9757    9.8567  -90.5312 N   0  0  0  0  0  0  0  0  0  0  0  0
  100.3198    4.8430  -92.1243 C   0  0  1  0  0  0  0  0  0  0  0  0
   99.3618   10.0929  -91.0340 C   0  0  0  0  0  0  0  0  0  0  0  0
  106.5683    3.3032  -92.4070 O   0  0  0  0  0  0  0  0  0  0  0  0
  101.0986    5.6716  -91.2155 C   0  0  1  0  0  0  0  0  0  0  0  0
  3  1  1  0
  5  4  2  0
  6  3  1  0
  7  2  1  0
  7  4  1  0
  8  4  1  0
 10  1  1  0
 11  9  1  0
  3 13  1  1
 15  5  1  0
 15  8  1  0
 10 16  1  6
 17  3  1  0
 17 11  1  0
 18  2  2  3
 19 10  1  0
 19 14  1  1
 20 12  1  0
 20 18  1  0
 21 11  1  0
 22  6  1  0
 22  8  1  6
 22 19  1  0
M  END
>  <ID>  (1) 
conformer_0

$$$$
