
     RDKit          3D

 21 24  0  0  0  0  0  0  0  0999 V2000
  100.0927    8.3841  -90.8135 C   0  0  0  0  0  0  0  0  0  0  0  0
  103.2383    4.1841  -92.0218 C   0  0  0  0  0  0  0  0  0  0  0  0
  101.9279    3.9861  -92.5901 C   0  0  0  0  0  0  0  0  0  0  0  0
   99.6798   10.0272  -90.9910 C   0  0  0  0  0  0  0  0  0  0  0  0
  101.3805    9.2366  -91.2103 N   0  0  0  0  0  0  0  0  0  0  0  0
  105.6164    2.1516  -93.3515 O   0  0  0  0  0  0  0  0  0  0  0  0
  105.7967    3.0084  -92.0662 P   0  0  0  0  0  0  0  0  0  0  0  0
   98.0625    9.9188  -90.5514 N   0  0  0  0  0  0  0  0  0  0  0  0
   99.5668   11.4451  -91.1735 N   0  0  0  0  0  0  0  0  0  0  0  0
  102.0737    5.2228  -91.3101 O   0  0  0  0  0  0  0  0  0  0  0  0
  100.4697    4.3978  -92.2257 C   0  0  0  0  0  0  0  0  0  0  0  0
  100.7386    7.0109  -90.9499 N   0  0  0  0  0  0  0  0  0  0  0  0
   98.8022    4.4717  -91.6115 O   0  0  0  0  0  0  0  0  0  0  0  0
  105.8517    2.1531  -90.8231 O   0  0  0  0  0  0  0  0  0  0  0  0
  101.4904    7.9361  -91.1480 C   0  0  0  0  0  0  0  0  0  0  0  0
   98.4886    7.6015  -90.2649 N   0  0  0  0  0  0  0  0  0  0  0  0
  106.9224    3.5836  -92.5204 O   0  0  0  0  0  0  0  0  0  0  0  0
  104.6481    3.7373  -91.8671 O   0  0  0  0  0  0  0  0  0  0  0  0
  100.6380    5.3008  -91.1680 C   0  0  0  0  0  0  0  0  0  0  0  0
  100.0328    3.1628  -92.7945 O   0  0  0  0  0  0  0  0  0  0  0  0
   98.3361    8.6659  -90.4440 C   0  0  0  0  0  0  0  0  0  0  0  0
  3  2  1  0
  4  1  1  0
  5  1  1  0
  5  4  1  0
  7  6  1  0
  8  4  1  0
  9  4  1  0
 10  2  1  0
 11  3  1  0
 12  1  1  0
 13 11  1  0
 14  2  1  0
 15  1  1  0
 15  5  1  0
 15 12  1  0
 17  7  1  0
 18  2  1  0
 18  7  1  0
 19 10  1  0
 19 11  1  0
 19 12  1  0
 20 11  1  0
 21  8  1  0
 21 16  3  0
M  END
>  <ID>  (1) 
conformer_0

$$$$
