
     RDKit          3D

 21 22  0  0  0  0  0  0  0  0999 V2000
  100.4521    4.7385  -92.0805 C   0  0  2  0  0  0  0  0  0  0  0  0
  100.1848    8.3857  -90.9765 C   0  0  2  0  0  0  0  0  0  0  0  0
  100.5526    5.3564  -91.1744 C   0  0  2  0  0  0  0  0  0  0  0  0
  101.7940    8.0530  -91.2927 C   0  0  0  0  0  0  0  0  0  0  0  0
  101.5602    9.4719  -91.2389 N   0  0  0  0  0  0  0  0  0  0  0  0
   97.9611    9.7427  -90.5573 N   0  0  0  0  0  0  0  0  0  0  0  0
  106.7219    3.6092  -92.0762 O   0  0  0  0  0  0  0  0  0  0  0  0
   99.3083   11.4195  -91.1735 N   0  0  0  0  0  0  0  0  0  0  0  0
  105.6730    2.9453  -91.9939 P   0  0  0  0  0  0  0  0  0  0  0  0
  100.8592    7.3441  -91.1327 N   0  0  0  0  0  0  0  0  0  0  0  0
  102.1259    5.1878  -91.1442 O   0  0  0  0  0  0  0  0  0  0  0  0
  103.0629    4.0574  -91.8350 C   0  0  1  0  0  0  0  0  0  0  0  0
  104.3948    3.7038  -91.9065 O   0  0  0  0  0  0  0  0  0  0  0  0
   98.0362    8.6651  -90.4142 C   0  0  0  0  0  0  0  0  0  0  0  0
   99.1399    4.2597  -90.8828 O   0  0  0  0  0  0  0  0  0  0  0  0
  100.0197    3.4684  -92.9704 O   0  0  0  0  0  0  0  0  0  0  0  0
  105.3760    1.8971  -90.9942 O   0  0  0  0  0  0  0  0  0  0  0  0
  105.7248    2.2064  -93.3743 O   0  0  0  0  0  0  0  0  0  0  0  0
   98.4478    7.7672  -90.4151 N   0  0  0  0  0  0  0  0  0  0  0  0
   99.5764    9.9522  -91.0087 C   0  0  0  0  0  0  0  0  0  0  0  0
  101.7857    4.0201  -92.3746 C   0  0  0  0  0  0  0  0  0  0  0  0
  3  1  1  0
  5  2  1  0
  5  4  2  0
  9  7  1  0
  2 10  1  6
 10  3  1  0
 10  4  1  0
 11  3  1  0
 12 11  1  0
 12 13  1  6
 14  6  1  0
  3 15  1  1
  1 16  1  1
 17  9  1  0
 17 12  1  0
 18  9  1  0
 19 14  3  0
 20  2  1  0
 20  6  1  0
 20  8  2  3
 21  1  1  0
 21 12  1  0
M  END
>  <ID>  (1) 
conformer_0

$$$$
