
     RDKit          3D

 23 24  0  0  0  0  0  0  0  0999 V2000
  101.2057    3.7717  -92.2924 C   0  0  0  0  0  0  0  0  0  0  0  0
   98.4962    9.9124  -90.6807 C   0  0  0  0  0  0  0  0  0  0  0  0
  102.3599    4.0394  -92.8210 C   0  0  0  0  0  0  0  0  0  0  0  0
   99.9061    7.9605  -90.7762 C   0  0  0  0  0  0  0  0  0  0  0  0
   97.5053    9.3741  -90.1365 N   0  0  0  0  0  0  0  0  0  0  0  0
  106.7105    3.7013  -92.2394 O   0  0  0  0  0  0  0  0  0  0  0  0
  101.0070    9.4128  -91.5069 N   0  0  0  0  0  0  0  0  0  0  0  0
  100.9299    7.3279  -91.1480 N   0  0  0  0  0  0  0  0  0  0  0  0
  105.8337    2.8092  -92.0519 P   0  0  0  0  0  0  0  0  0  0  0  0
   98.6975   11.3031  -90.8868 N   0  0  0  0  0  0  0  0  0  0  0  0
  102.0741    5.2883  -91.3413 O   0  0  0  0  0  0  0  0  0  0  0  0
  105.9624    1.6841  -91.0485 O   0  0  0  0  0  0  0  0  0  0  0  0
  103.3873    3.7497  -91.7630 C   0  0  0  0  0  0  0  0  0  0  0  0
  100.4686    2.8686  -93.2067 O   0  0  0  0  0  0  0  0  0  0  0  0
  101.7237    8.0555  -91.6050 C   0  0  0  0  0  0  0  0  0  0  0  0
   98.6055    7.5321  -89.8534 N   0  0  0  0  0  0  0  0  0  0  0  0
  104.5614    3.3210  -91.7484 O   0  0  0  0  0  0  0  0  0  0  0  0
   99.3222    3.8436  -91.4852 O   0  0  0  0  0  0  0  0  0  0  0  0
  105.7783    2.2457  -93.4997 O   0  0  0  0  0  0  0  0  0  0  0  0
   99.7475    9.3510  -90.8821 C   0  0  0  0  0  0  0  0  0  0  0  0
  101.0885    5.6418  -90.9463 C   0  0  0  0  0  0  0  0  0  0  0  0
   97.6459    8.2097  -89.6240 C   0  0  0  0  0  0  0  0  0  0  0  0
  100.0780    4.8115  -91.8133 C   0  0  0  0  0  0  0  0  0  0  0  0
  3  1  1  0
  5  2  2  0
  8  4  1  0
  9  6  1  0
 10  2  1  0
 13  3  1  0
 13 12  1  0
 14  1  1  0
 15  7  2  0
 15  8  1  0
 16  4  1  0
 17  9  1  0
 17 13  1  0
 19  9  1  0
 20  2  1  0
 20  4  2  0
 20  7  1  0
 21  8  1  0
 21 11  1  0
 22  5  1  0
 22 16  2  0
 23  1  1  0
 23 18  1  0
 23 21  1  0
M  END
>  <ID>  (1) 
conformer_0

$$$$
