
     RDKit          3D

 23 26  0  0  0  0  0  0  0  0999 V2000
   98.9539    9.9980  -90.7922 C   0  0  0  0  0  0  0  0  0  0  0  0
  100.7038    4.0172  -92.5559 C   0  0  0  0  0  0  0  0  0  0  0  0
  102.3382    3.7993  -92.4724 C   0  0  0  0  0  0  0  0  0  0  0  0
  101.7410    7.7965  -91.3022 C   0  0  0  0  0  0  0  0  0  0  0  0
  101.4082    9.1121  -91.3842 N   0  0  0  0  0  0  0  0  0  0  0  0
  105.4366    1.4222  -92.7941 O   0  0  0  0  0  0  0  0  0  0  0  0
   97.7926    9.6351  -90.4007 N   0  0  0  0  0  0  0  0  0  0  0  0
  105.6220    2.7552  -92.2562 P   0  0  0  0  0  0  0  0  0  0  0  0
   99.4839   11.2914  -90.8840 N   0  0  0  0  0  0  0  0  0  0  0  0
  102.1693    5.1169  -91.1083 O   0  0  0  0  0  0  0  0  0  0  0  0
  100.9686    7.0720  -91.0354 N   0  0  0  0  0  0  0  0  0  0  0  0
   98.9130    4.3303  -90.7929 O   0  0  0  0  0  0  0  0  0  0  0  0
  103.5320    4.4136  -92.1107 C   0  0  0  0  0  0  0  0  0  0  0  0
  104.4185    3.5335  -91.8605 O   0  0  0  0  0  0  0  0  0  0  0  0
  100.2216    9.2997  -90.9118 C   0  0  0  0  0  0  0  0  0  0  0  0
   98.5452    7.4800  -90.1639 N   0  0  0  0  0  0  0  0  0  0  0  0
  106.2041    2.7117  -90.8601 O   0  0  0  0  0  0  0  0  0  0  0  0
   99.5020    3.3173  -92.4788 O   0  0  0  0  0  0  0  0  0  0  0  0
  106.1922    3.1312  -93.1212 O   0  0  0  0  0  0  0  0  0  0  0  0
  101.3591    5.4240  -91.4655 C   0  0  0  0  0  0  0  0  0  0  0  0
   97.6839    8.2987  -90.0032 C   0  0  0  0  0  0  0  0  0  0  0  0
   99.7485    7.8508  -90.7023 C   0  0  0  0  0  0  0  0  0  0  0  0
   99.9053    4.9966  -91.5517 C   0  0  0  0  0  0  0  0  0  0  0  0
  3  2  1  0
  5  4  2  0
  7  1  2  0
  8  6  1  0
  9  1  1  0
 11  4  1  0
 13  3  1  0
 13 10  1  0
 14  8  1  0
 14 13  1  0
 15  1  1  0
 15  5  1  0
 17 13  1  0
 18  2  1  0
 19  8  1  0
 20  2  1  0
 20 10  1  0
 20 11  1  0
 21  7  1  0
 21 16  2  0
 22 11  1  0
 22 15  2  0
 22 16  1  0
 23  2  1  0
 23 12  1  0
 23 20  1  0
M  END
>  <ID>  (1) 
conformer_0

$$$$
