
     RDKit          3D

 21 23  0  0  0  0  0  0  0  0999 V2000
  102.2067    3.8533  -92.7340 C   0  0  0  0  0  0  0  0  0  0  0  0
   99.9491    7.9274  -90.8611 C   0  0  0  0  0  0  0  0  0  0  0  0
  100.7264    4.5871  -92.3969 C   0  0  0  0  0  0  0  0  0  0  0  0
  100.1341    9.4127  -90.7954 C   0  0  0  0  0  0  0  0  0  0  0  0
  101.2865    9.4458  -91.3268 N   0  0  0  0  0  0  0  0  0  0  0  0
   97.6357    9.8874  -90.2036 N   0  0  0  0  0  0  0  0  0  0  0  0
  105.4727    2.9300  -92.0115 P   0  0  0  0  0  0  0  0  0  0  0  0
  102.1111    5.4577  -91.3103 O   0  0  0  0  0  0  0  0  0  0  0  0
  106.6252    3.6879  -92.1522 O   0  0  0  0  0  0  0  0  0  0  0  0
  100.7756    7.2574  -91.2126 N   0  0  0  0  0  0  0  0  0  0  0  0
  105.2635    1.7324  -91.2074 O   0  0  0  0  0  0  0  0  0  0  0  0
   99.3253   11.4335  -90.9072 N   0  0  0  0  0  0  0  0  0  0  0  0
   99.2957    3.9009  -91.8645 O   0  0  0  0  0  0  0  0  0  0  0  0
  100.5099    5.4388  -91.6159 C   0  0  0  0  0  0  0  0  0  0  0  0
  101.7775    8.0526  -91.5412 C   0  0  0  0  0  0  0  0  0  0  0  0
  104.3366    3.6629  -91.8768 O   0  0  0  0  0  0  0  0  0  0  0  0
  105.6314    2.3077  -93.5236 O   0  0  0  0  0  0  0  0  0  0  0  0
   98.3344    7.9168  -90.1776 N   0  0  0  0  0  0  0  0  0  0  0  0
  103.0951    4.5877  -91.9456 C   0  0  0  0  0  0  0  0  0  0  0  0
   97.8441    8.5682  -90.1041 C   0  0  0  0  0  0  0  0  0  0  0  0
   99.0270   10.1898  -90.8720 C   0  0  0  0  0  0  0  0  0  0  0  0
  3  1  1  0
  4  2  2  0
  5  4  1  0
  9  7  1  0
 10  2  1  0
 13  3  1  0
 14  3  1  0
 14  8  1  0
 14 10  1  0
 15  5  2  0
 15 10  1  0
 16  7  1  0
 17  7  1  0
 18  2  1  0
 19  1  1  0
 19  8  1  0
 19 11  1  0
 19 16  1  0
 20  6  1  0
 20 18  2  0
 21  4  1  0
 21  6  2  0
 21 12  1  0
M  END
>  <ID>  (1) 
conformer_0

$$$$
