
     RDKit          3D

 21 23  0  0  0  0  0  0  0  0999 V2000
  100.1926    8.6478  -90.9575 C   0  0  1  0  0  0  0  0  0  0  0  0
  100.5015    4.6457  -92.0448 C   0  0  0  0  0  0  0  0  0  0  0  0
  101.8412    3.8492  -92.3530 C   0  0  1  0  0  0  0  0  0  0  0  0
  101.4411    7.9722  -91.3011 C   0  0  0  0  0  0  0  0  0  0  0  0
  101.4795    9.3652  -91.3326 N   0  0  0  0  0  0  0  0  0  0  0  0
  105.7317    3.1317  -92.0322 P   0  0  0  0  0  0  0  0  0  0  0  0
  105.9154    2.3225  -93.0273 O   0  0  0  0  0  0  0  0  0  0  0  0
   98.2714   10.0240  -90.5309 N   0  0  0  0  0  0  0  0  0  0  0  0
  100.3496    5.4091  -91.3109 C   0  0  2  0  0  0  0  0  0  0  0  0
  100.6467    7.2254  -91.1331 N   0  0  0  0  0  0  0  0  0  0  0  0
  102.0854    5.1548  -91.1414 O   0  0  0  0  0  0  0  0  0  0  0  0
   99.5689   11.5921  -91.1884 N   0  0  0  0  0  0  0  0  0  0  0  0
  104.3230    3.5668  -91.8735 O   0  0  0  0  0  0  0  0  0  0  0  0
  100.2516    3.1644  -93.1204 O   0  0  0  0  0  0  0  0  0  0  0  0
   98.3327    8.9800  -90.4366 C   0  0  0  0  0  0  0  0  0  0  0  0
   98.9441    4.3603  -91.3065 O   0  0  0  0  0  0  0  0  0  0  0  0
  106.6716    4.0223  -92.4555 O   0  0  0  0  0  0  0  0  0  0  0  0
  103.0569    3.7501  -91.8001 C   0  0  2  0  0  0  0  0  0  0  0  0
   98.5412    7.9295  -90.3693 N   0  0  0  0  0  0  0  0  0  0  0  0
  105.8835    2.6856  -90.7681 O   0  0  0  0  0  0  0  0  0  0  0  0
   99.8248   10.2536  -91.0694 C   0  0  2  0  0  0  0  0  0  0  0  0
  3  2  1  0
  4  1  1  0
  1  5  1  1
  5  4  1  0
  7  6  1  0
  9  2  1  0
 10  4  2  3
 10  9  1  0
  3 11  1  6
  9 11  1  1
 14  2  1  0
 15  8  1  0
 16  2  1  0
 17  6  1  0
 18  3  1  0
 18 13  1  6
 19 15  3  0
 20  6  1  0
 20 18  1  0
 21  1  1  0
 21  5  1  0
 21  8  1  0
 21 12  1  6
M  END
>  <ID>  (1) 
conformer_0

$$$$
