
     RDKit          3D

 21 22  0  0  0  0  0  0  0  0999 V2000
  101.9890    3.8765  -92.4937 C   0  0  0  0  0  0  0  0  0  0  0  0
   99.9310    8.4592  -90.9627 C   0  0  0  0  0  0  0  0  0  0  0  0
  103.1154    4.2522  -91.7281 C   0  0  2  0  0  0  0  0  0  0  0  0
   99.6907   10.1503  -91.0356 C   0  0  0  0  0  0  0  0  0  0  0  0
   97.9598   10.2292  -90.6589 N   0  0  0  0  0  0  0  0  0  0  0  0
  105.5095    2.0460  -93.4177 O   0  0  0  0  0  0  0  0  0  0  0  0
  105.4367    2.7544  -92.2043 P   0  0  0  0  0  0  0  0  0  0  0  0
  101.4516    9.2403  -91.2176 N   0  0  0  0  0  0  0  0  0  0  0  0
   99.7575   11.5645  -91.1273 N   0  0  0  0  0  0  0  0  0  0  0  0
  100.8953    7.1302  -91.2208 N   0  0  0  0  0  0  0  0  0  0  0  0
  102.1917    5.2454  -91.1321 O   0  0  0  0  0  0  0  0  0  0  0  0
   98.8657    4.2060  -91.6187 O   0  0  0  0  0  0  0  0  0  0  0  0
  104.4119    3.5051  -91.8783 O   0  0  0  0  0  0  0  0  0  0  0  0
  100.8375    5.2999  -91.2522 C   0  0  2  0  0  0  0  0  0  0  0  0
   98.4398    7.8342  -90.4328 N   0  0  0  0  0  0  0  0  0  0  0  0
  101.3432    7.9412  -91.2625 C   0  0  0  0  0  0  0  0  0  0  0  0
  100.1342    3.1742  -93.0776 O   0  0  0  0  0  0  0  0  0  0  0  0
  106.6421    3.3950  -92.6201 O   0  0  0  0  0  0  0  0  0  0  0  0
  100.3287    4.3948  -91.9539 C   0  0  0  0  0  0  0  0  0  0  0  0
   98.2331    8.9932  -90.5063 C   0  0  0  0  0  0  0  0  0  0  0  0
  105.4351    2.0823  -90.9981 O   0  0  0  0  0  0  0  0  0  0  0  0
  3  1  1  0
  4  2  2  0
  5  4  1  0
  7  6  1  0
  9  4  1  0
 11  3  1  0
 13  3  1  0
 13  7  1  0
 14 10  1  6
 14 11  1  0
 15  2  1  0
 16  2  1  0
 16  8  2  3
 16 10  1  0
 18  7  1  0
 19  1  1  0
 19 12  1  0
 19 14  1  0
 19 17  1  0
 20  5  1  0
 20 15  1  0
  3 21  1  6
M  END
>  <ID>  (1) 
conformer_0

$$$$
