
     RDKit          3D

 22 23  0  0  0  0  0  0  0  0999 V2000
  100.9966    5.6915  -90.9462 C   0  0  0  0  0  0  0  0  0  0  0  0
  100.3292    9.4714  -91.0716 C   0  0  0  0  0  0  0  0  0  0  0  0
  101.0503    4.2221  -92.6138 C   0  0  0  0  0  0  0  0  0  0  0  0
  102.0626    8.0732  -91.4075 C   0  0  0  0  0  0  0  0  0  0  0  0
  101.5731    9.5539  -91.3740 N   0  0  0  0  0  0  0  0  0  0  0  0
   97.8019    9.7499  -90.5111 N   0  0  0  0  0  0  0  0  0  0  0  0
  102.0580    5.1303  -90.8473 O   0  0  0  0  0  0  0  0  0  0  0  0
  105.6193    2.0662  -93.6898 O   0  0  0  0  0  0  0  0  0  0  0  0
  105.6528    2.6002  -92.1656 P   0  0  0  0  0  0  0  0  0  0  0  0
  101.0229    7.3436  -91.0608 N   0  0  0  0  0  0  0  0  0  0  0  0
  102.3914    3.6817  -92.4510 C   0  0  0  0  0  0  0  0  0  0  0  0
   99.5824   11.4025  -91.2460 N   0  0  0  0  0  0  0  0  0  0  0  0
   99.0913    3.9606  -91.2763 O   0  0  0  0  0  0  0  0  0  0  0  0
  105.8104    1.5830  -91.1765 O   0  0  0  0  0  0  0  0  0  0  0  0
   99.9805    8.0272  -90.8840 C   0  0  0  0  0  0  0  0  0  0  0  0
  106.7211    3.5296  -92.4609 O   0  0  0  0  0  0  0  0  0  0  0  0
   98.5168    7.7350  -90.2440 N   0  0  0  0  0  0  0  0  0  0  0  0
  104.4248    3.1536  -91.8661 O   0  0  0  0  0  0  0  0  0  0  0  0
  100.0669    4.7781  -91.6181 C   0  0  0  0  0  0  0  0  0  0  0  0
   97.7704    8.4798  -90.1168 C   0  0  0  0  0  0  0  0  0  0  0  0
   99.0116   10.1214  -90.9996 C   0  0  0  0  0  0  0  0  0  0  0  0
  103.5319    4.4377  -91.8047 C   0  0  0  0  0  0  0  0  0  0  0  0
  5  2  1  0
  5  4  2  0
  7  1  2  0
  9  8  1  0
 10  1  1  0
 10  4  1  0
 11  3  1  0
 15  2  2  0
 15 10  1  0
 16  9  1  0
 17 15  1  0
 18  9  1  0
 19  1  1  0
 19  3  1  0
 19 13  1  0
 20  6  1  0
 20 17  2  0
 21  2  1  0
 21  6  2  0
 21 12  1  0
 22 11  1  0
 22 14  1  0
 22 18  1  0
M  END
>  <ID>  (1) 
conformer_0

$$$$
