
     RDKit          3D

 23 25  0  0  0  0  0  0  0  0999 V2000
  102.3750    3.8688  -92.8974 C   0  0  0  0  0  0  0  0  0  0  0  0
  100.1622    7.8623  -90.9068 C   0  0  0  0  0  0  0  0  0  0  0  0
  103.4152    4.3446  -91.8733 C   0  0  0  0  0  0  0  0  0  0  0  0
  102.0815    7.5325  -91.3191 C   0  0  0  0  0  0  0  0  0  0  0  0
  101.7307    9.0081  -91.3867 N   0  0  0  0  0  0  0  0  0  0  0  0
  106.6813    3.6683  -92.3742 O   0  0  0  0  0  0  0  0  0  0  0  0
  105.5036    3.1467  -92.1283 P   0  0  0  0  0  0  0  0  0  0  0  0
   98.6709    7.9078  -90.4054 N   0  0  0  0  0  0  0  0  0  0  0  0
   99.9668   11.3709  -91.0013 N   0  0  0  0  0  0  0  0  0  0  0  0
  100.8497    5.2944  -91.2050 C   0  0  0  0  0  0  0  0  0  0  0  0
  101.9869    4.9878  -91.2882 O   0  0  0  0  0  0  0  0  0  0  0  0
  100.9987    6.9988  -91.1159 N   0  0  0  0  0  0  0  0  0  0  0  0
  104.4223    3.8459  -91.8981 O   0  0  0  0  0  0  0  0  0  0  0  0
   99.1826    4.2396  -90.3869 O   0  0  0  0  0  0  0  0  0  0  0  0
  100.5104    9.2631  -90.9587 C   0  0  0  0  0  0  0  0  0  0  0  0
   98.2585   10.1830  -90.6110 N   0  0  0  0  0  0  0  0  0  0  0  0
  105.2309    1.9605  -91.1512 O   0  0  0  0  0  0  0  0  0  0  0  0
  105.6047    2.4400  -93.3440 O   0  0  0  0  0  0  0  0  0  0  0  0
   97.8535    8.9785  -90.3448 C   0  0  0  0  0  0  0  0  0  0  0  0
  101.0864    3.7669  -92.4393 C   0  0  0  0  0  0  0  0  0  0  0  0
   99.7247    3.2209  -92.3872 O   0  0  0  0  0  0  0  0  0  0  0  0
   99.8684    4.7595  -92.0304 C   0  0  0  0  0  0  0  0  0  0  0  0
   99.4765   10.1515  -90.9387 C   0  0  0  0  0  0  0  0  0  0  0  0
  3  1  1  0
  5  4  2  0
  7  6  1  0
  8  2  1  0
 11  3  1  0
 11 10  1  0
 12  2  1  0
 12  4  1  0
 12 10  1  0
 13  3  1  0
 13  7  1  0
 15  2  2  0
 15  5  1  0
 17  3  1  0
 18  7  1  0
 19  8  2  0
 19 16  1  0
 20  1  1  0
 21 20  1  0
 22 10  1  0
 22 14  1  0
 22 20  1  0
 23  9  1  0
 23 15  1  0
 23 16  2  0
M  END
>  <ID>  (1) 
conformer_0

$$$$
