
     RDKit          3D

 24 26  0  0  0  0  0  0  0  0999 V2000
  100.3249    9.2468  -90.9653 C   0  0  0  0  0  0  0  0  0  0  0  0
  100.2123    4.4529  -91.9724 C   0  0  0  0  0  0  0  0  0  0  0  0
  101.3466    3.3362  -93.0623 C   0  0  0  0  0  0  0  0  0  0  0  0
  100.1722    7.9270  -90.7490 C   0  0  0  0  0  0  0  0  0  0  0  0
  102.2726    3.7348  -92.2294 C   0  0  0  0  0  0  0  0  0  0  0  0
   97.8944    9.9648  -90.6368 N   0  0  0  0  0  0  0  0  0  0  0  0
  101.4787    9.2880  -91.2991 N   0  0  0  0  0  0  0  0  0  0  0  0
  106.6892    3.7991  -92.4818 O   0  0  0  0  0  0  0  0  0  0  0  0
  101.2239    7.0629  -91.0714 N   0  0  0  0  0  0  0  0  0  0  0  0
  105.5485    3.1473  -92.1259 P   0  0  0  0  0  0  0  0  0  0  0  0
   99.4850   11.6095  -90.9367 N   0  0  0  0  0  0  0  0  0  0  0  0
  102.1214    5.0889  -91.1037 O   0  0  0  0  0  0  0  0  0  0  0  0
  105.5431    2.1311  -91.0512 O   0  0  0  0  0  0  0  0  0  0  0  0
  101.9777    7.8160  -91.4125 C   0  0  0  0  0  0  0  0  0  0  0  0
   99.1653    4.4944  -90.5411 O   0  0  0  0  0  0  0  0  0  0  0  0
  101.1913    1.8110  -93.4703 O   0  0  0  0  0  0  0  0  0  0  0  0
   98.6176    7.8511  -90.2636 N   0  0  0  0  0  0  0  0  0  0  0  0
  100.9031    5.3558  -91.2014 C   0  0  0  0  0  0  0  0  0  0  0  0
   98.1005    8.7622  -90.3268 C   0  0  0  0  0  0  0  0  0  0  0  0
  105.5246    2.4588  -93.3853 O   0  0  0  0  0  0  0  0  0  0  0  0
   99.3753    3.3465  -92.4758 O   0  0  0  0  0  0  0  0  0  0  0  0
  104.4358    3.7673  -91.6888 O   0  0  0  0  0  0  0  0  0  0  0  0
  103.5944    4.8118  -91.5317 C   0  0  0  0  0  0  0  0  0  0  0  0
   99.3659   10.2840  -90.8837 C   0  0  0  0  0  0  0  0  0  0  0  0
  3  2  1  0
  4  1  1  0
  5  3  1  0
  7  1  1  0
  9  4  1  0
 10  8  1  0
 14  7  2  0
 14  9  1  0
 15  2  1  0
 16  3  1  0
 17  4  2  0
 18  2  1  0
 18  9  1  0
 18 12  1  0
 19  6  2  0
 19 17  1  0
 20 10  1  0
 21  2  1  0
 22 10  1  0
 23  5  1  0
 23 12  1  0
 23 13  1  0
 23 22  1  0
 24  1  2  0
 24  6  1  0
 24 11  1  0
M  END
>  <ID>  (1) 
conformer_0

$$$$
