
     RDKit          3D

 23 25  0  0  0  0  0  0  0  0999 V2000
   97.7018    8.4555  -90.1860 C   0  0  0  0  0  0  0  0  0  0  0  0
  102.5148    3.8241  -92.8512 C   0  0  0  0  0  0  0  0  0  0  0  0
  101.0726    5.6210  -91.2559 C   0  0  0  0  0  0  0  0  0  0  0  0
  100.1498    9.5193  -90.9833 C   0  0  0  0  0  0  0  0  0  0  0  0
  101.3431    9.4852  -91.1740 N   0  0  0  0  0  0  0  0  0  0  0  0
   98.4567    7.6343  -90.2570 N   0  0  0  0  0  0  0  0  0  0  0  0
  105.6471    2.8191  -92.2935 P   0  0  0  0  0  0  0  0  0  0  0  0
  106.7445    3.8008  -92.5195 O   0  0  0  0  0  0  0  0  0  0  0  0
  100.9614    7.2711  -91.1598 N   0  0  0  0  0  0  0  0  0  0  0  0
   99.3919   11.4456  -90.9581 N   0  0  0  0  0  0  0  0  0  0  0  0
  105.8127    2.1457  -90.9801 O   0  0  0  0  0  0  0  0  0  0  0  0
  103.1502    4.0653  -91.8050 C   0  0  0  0  0  0  0  0  0  0  0  0
   99.8569    3.0536  -92.6883 O   0  0  0  0  0  0  0  0  0  0  0  0
  102.0456    5.4207  -91.8902 O   0  0  0  0  0  0  0  0  0  0  0  0
   98.8597   10.1647  -90.7784 C   0  0  0  0  0  0  0  0  0  0  0  0
  105.7711    1.9871  -93.6348 O   0  0  0  0  0  0  0  0  0  0  0  0
   97.8479    9.9829  -90.5868 N   0  0  0  0  0  0  0  0  0  0  0  0
   99.3618    4.2264  -90.6384 O   0  0  0  0  0  0  0  0  0  0  0  0
  104.3492    3.2406  -92.2470 O   0  0  0  0  0  0  0  0  0  0  0  0
  101.7935    8.0577  -91.2877 C   0  0  0  0  0  0  0  0  0  0  0  0
   99.9390    5.0509  -91.8301 C   0  0  0  0  0  0  0  0  0  0  0  0
  100.9419    3.9263  -92.2655 C   0  0  0  0  0  0  0  0  0  0  0  0
   99.8883    8.0271  -90.7580 C   0  0  0  0  0  0  0  0  0  0  0  0
  5  4  1  0
  6  1  2  0
  8  7  1  0
  9  3  1  0
 12  2  1  0
 12 11  1  0
 14  3  1  0
 14 12  1  0
 15  4  1  0
 15 10  1  0
 16  7  1  0
 17  1  1  0
 17 15  2  0
 19  7  1  0
 19 12  1  0
 20  5  2  0
 20  9  1  0
 21  3  1  0
 21 18  1  0
 22  2  1  0
 22 13  1  0
 22 21  1  0
 23  4  2  0
 23  6  1  0
 23  9  1  0
M  END
>  <ID>  (1) 
conformer_0

$$$$
