
     RDKit          3D

 20 23  0  0  0  0  0  0  0  0999 V2000
  100.2152    8.4039  -90.8873 C   0  0  0  0  0  0  0  0  0  0  0  0
  100.1597    5.5365  -91.0903 C   0  0  1  0  0  0  0  0  0  0  0  0
   99.9059    4.8829  -92.1248 C   0  0  2  0  0  0  0  0  0  0  0  0
  101.6935    8.0491  -91.2645 C   0  0  0  0  0  0  0  0  0  0  0  0
  101.4124    9.3542  -91.2968 N   0  0  0  0  0  0  0  0  0  0  0  0
   98.3924    8.7191  -90.5890 N   0  0  0  0  0  0  0  0  0  0  0  0
  105.6899    2.0009  -93.6977 O   0  0  0  0  0  0  0  0  0  0  0  0
  101.7886    5.3294  -91.1330 O   0  0  0  0  0  0  0  0  0  0  0  0
  105.6040    2.8183  -92.1859 P   0  0  0  0  0  0  0  0  0  0  0  0
  102.8805    4.1924  -92.1503 C   0  0  2  0  0  0  0  0  0  0  0  0
  100.6532    7.2337  -90.9467 N   0  0  0  0  0  0  0  0  0  0  0  0
  104.3128    3.4964  -92.1887 O   0  0  0  0  0  0  0  0  0  0  0  0
   98.6833    4.2248  -91.8556 O   0  0  0  0  0  0  0  0  0  0  0  0
   99.1861   11.5291  -90.9633 N   0  0  0  0  0  0  0  0  0  0  0  0
  106.7756    3.5664  -92.3824 O   0  0  0  0  0  0  0  0  0  0  0  0
   98.2124    9.0993  -90.5071 C   0  0  0  0  0  0  0  0  0  0  0  0
  105.4744    2.0432  -91.1224 O   0  0  0  0  0  0  0  0  0  0  0  0
   99.8375   10.0543  -90.9850 C   0  0  0  0  0  0  0  0  0  0  0  0
  101.3843    4.3123  -92.2801 C   0  0  2  0  0  0  0  0  0  0  0  0
  100.1417    3.0246  -92.9270 O   0  0  0  0  0  0  0  0  0  0  0  0
  3  2  1  0
  4  1  1  0
  5  1  1  0
  5  4  1  0
  8  2  1  0
  9  7  1  0
 11  1  1  0
  2 11  1  6
 11  4  1  0
 10 12  1  6
  3 13  1  1
 15  9  1  0
 16  6  2  3
 17  9  1  0
 17 10  1  0
 18  1  1  0
 18  5  1  0
 18 14  1  0
 18 16  1  0
 19  3  1  0
 19  8  1  0
 19 10  1  0
 19 20  1  1
M  END
>  <ID>  (1) 
conformer_0

$$$$
