
     RDKit          3D

 21 23  0  0  0  0  0  0  0  0999 V2000
   98.0224    8.5251  -90.4655 C   0  0  0  0  0  0  0  0  0  0  0  0
  103.1956    4.2476  -91.8213 C   0  0  2  0  0  0  0  0  0  0  0  0
  102.0129    3.9981  -92.3251 C   0  0  0  0  0  0  0  0  0  0  0  0
  101.5159    8.1889  -91.3223 C   0  0  0  0  0  0  0  0  0  0  0  0
  101.1941    9.5515  -91.2873 N   0  0  0  0  0  0  0  0  0  0  0  0
   97.7848    9.6919  -90.5849 N   0  0  0  0  0  0  0  0  0  0  0  0
  101.9617    5.2267  -90.8424 O   0  0  0  0  0  0  0  0  0  0  0  0
  105.6005    1.9515  -93.5351 O   0  0  0  0  0  0  0  0  0  0  0  0
  105.6410    2.6845  -92.0801 P   0  0  0  0  0  0  0  0  0  0  0  0
  100.6332    7.3502  -91.0907 N   0  0  0  0  0  0  0  0  0  0  0  0
   99.0037   11.6176  -91.1392 N   0  0  0  0  0  0  0  0  0  0  0  0
  105.4931    2.0205  -90.9216 O   0  0  0  0  0  0  0  0  0  0  0  0
  100.5861    4.6610  -92.0056 C   0  0  0  0  0  0  0  0  0  0  0  0
   98.8311    4.3641  -91.3762 O   0  0  0  0  0  0  0  0  0  0  0  0
   99.3116   10.0706  -91.0266 C   0  0  0  0  0  0  0  0  0  0  0  0
  106.6642    3.4203  -92.4149 O   0  0  0  0  0  0  0  0  0  0  0  0
  100.3120    3.0824  -92.7317 O   0  0  0  0  0  0  0  0  0  0  0  0
   98.3375    7.6530  -90.3903 N   0  0  0  0  0  0  0  0  0  0  0  0
  100.4919    5.5731  -91.1668 C   0  0  1  0  0  0  0  0  0  0  0  0
  104.3599    3.4354  -91.8752 O   0  0  0  0  0  0  0  0  0  0  0  0
   99.9576    8.5209  -91.0612 C   0  0  2  0  0  0  0  0  0  0  0  0
  3  2  1  0
  5  4  2  0
  6  1  1  0
  7  2  1  0
  9  8  1  0
 10  4  1  0
 12  2  1  0
 12  9  1  0
 13  3  1  0
 14 13  1  0
 15  6  1  0
 15 11  2  3
 16  9  1  0
 17 13  1  0
 18  1  3  0
 19  7  1  0
 19 10  1  6
 19 13  1  0
  2 20  1  6
 21  4  1  0
 21  5  1  0
 21 10  1  1
 21 15  1  0
M  END
>  <ID>  (1) 
conformer_0

$$$$
