
     RDKit          3D

 23 26  0  0  0  0  0  0  0  0999 V2000
  100.1924    7.8772  -90.8981 C   0  0  0  0  0  0  0  0  0  0  0  0
  102.4892    3.7996  -92.4268 C   0  0  0  0  0  0  0  0  0  0  0  0
  100.9591    3.8795  -92.1678 C   0  0  0  0  0  0  0  0  0  0  0  0
  102.1410    7.7828  -91.2726 C   0  0  0  0  0  0  0  0  0  0  0  0
  101.5914    9.3546  -91.3221 N   0  0  0  0  0  0  0  0  0  0  0  0
   97.9663    9.9711  -90.5562 N   0  0  0  0  0  0  0  0  0  0  0  0
  105.2423    1.9261  -93.7277 O   0  0  0  0  0  0  0  0  0  0  0  0
  105.3654    2.7508  -92.5489 P   0  0  0  0  0  0  0  0  0  0  0  0
  101.0992    7.1945  -91.0979 N   0  0  0  0  0  0  0  0  0  0  0  0
  105.9881    2.1223  -91.2344 O   0  0  0  0  0  0  0  0  0  0  0  0
  102.2633    5.1595  -91.0138 O   0  0  0  0  0  0  0  0  0  0  0  0
   99.6990   11.3648  -91.0082 N   0  0  0  0  0  0  0  0  0  0  0  0
   98.8859    4.3121  -91.1990 O   0  0  0  0  0  0  0  0  0  0  0  0
  103.4727    4.1713  -91.3722 C   0  0  0  0  0  0  0  0  0  0  0  0
   97.8749    8.4084  -90.3815 C   0  0  0  0  0  0  0  0  0  0  0  0
  104.2861    3.4676  -92.1696 O   0  0  0  0  0  0  0  0  0  0  0  0
  106.3578    3.5682  -92.8892 O   0  0  0  0  0  0  0  0  0  0  0  0
   98.6268    7.8577  -90.4469 N   0  0  0  0  0  0  0  0  0  0  0  0
  101.1846    5.5092  -91.2495 C   0  0  0  0  0  0  0  0  0  0  0  0
   99.8919    3.0777  -92.5917 O   0  0  0  0  0  0  0  0  0  0  0  0
  100.4761    9.3491  -91.0567 C   0  0  0  0  0  0  0  0  0  0  0  0
   99.8318    4.9936  -91.8305 C   0  0  0  0  0  0  0  0  0  0  0  0
   99.1653   10.0187  -90.7943 C   0  0  0  0  0  0  0  0  0  0  0  0
  3  2  1  0
  5  4  2  0
  8  7  1  0
  9  1  1  0
  9  4  1  0
 14  2  1  0
 14 10  1  0
 14 11  1  0
 15  6  1  0
 16  8  1  0
 16 14  1  0
 17  8  1  0
 18  1  1  0
 18 15  2  0
 19  3  1  0
 19  9  1  0
 19 11  1  0
 20  3  1  0
 21  1  2  0
 21  5  1  0
 22  3  1  0
 22 13  1  0
 22 19  1  0
 23  6  2  0
 23 12  1  0
 23 21  1  0
M  END
>  <ID>  (1) 
conformer_0

$$$$
