
     RDKit          3D

 23 26  0  0  0  0  0  0  0  0999 V2000
  102.7901    3.9175  -92.5299 C   0  0  0  0  0  0  0  0  0  0  0  0
  100.0966    8.0234  -90.9950 C   0  0  0  0  0  0  0  0  0  0  0  0
  103.3839    3.7600  -91.4958 C   0  0  0  0  0  0  0  0  0  0  0  0
  102.2272    7.8656  -91.4552 C   0  0  0  0  0  0  0  0  0  0  0  0
  101.4028    9.4288  -91.3179 N   0  0  0  0  0  0  0  0  0  0  0  0
  102.2859    5.1804  -90.9840 O   0  0  0  0  0  0  0  0  0  0  0  0
   97.9037    9.8811  -90.5294 N   0  0  0  0  0  0  0  0  0  0  0  0
  105.8188    2.8933  -92.1721 P   0  0  0  0  0  0  0  0  0  0  0  0
  101.1406    7.3868  -91.1557 N   0  0  0  0  0  0  0  0  0  0  0  0
  106.9289    4.0302  -92.3640 O   0  0  0  0  0  0  0  0  0  0  0  0
  101.1161    4.2167  -92.3058 C   0  0  0  0  0  0  0  0  0  0  0  0
  104.5745    3.3881  -92.2010 O   0  0  0  0  0  0  0  0  0  0  0  0
   97.7487    8.4685  -90.4015 C   0  0  0  0  0  0  0  0  0  0  0  0
   99.2819   11.4587  -91.3543 N   0  0  0  0  0  0  0  0  0  0  0  0
   98.7850    4.5274  -91.2864 O   0  0  0  0  0  0  0  0  0  0  0  0
   98.5428    7.7100  -90.5130 N   0  0  0  0  0  0  0  0  0  0  0  0
  100.1822    3.3458  -92.5638 O   0  0  0  0  0  0  0  0  0  0  0  0
  100.4189    9.3593  -91.1279 C   0  0  0  0  0  0  0  0  0  0  0  0
  106.0972    2.2954  -93.1649 O   0  0  0  0  0  0  0  0  0  0  0  0
  101.1993    5.5616  -91.0803 C   0  0  0  0  0  0  0  0  0  0  0  0
  105.7393    2.3462  -91.0602 O   0  0  0  0  0  0  0  0  0  0  0  0
   98.9678   10.1126  -90.9633 C   0  0  0  0  0  0  0  0  0  0  0  0
   99.9947    5.0523  -91.6884 C   0  0  0  0  0  0  0  0  0  0  0  0
  3  1  1  0
  5  4  2  0
  6  3  1  0
  9  2  1  0
  9  4  1  0
 10  8  1  0
 11  1  1  0
 12  3  1  0
 13  7  1  0
 16  2  1  0
 16 13  2  0
 17 11  1  0
 18  2  2  0
 18  5  1  0
 19  8  1  0
 20  6  1  0
 20  9  1  0
 20 11  1  0
 21  3  1  0
 21  8  1  0
 22  7  2  0
 22 14  1  0
 22 18  1  0
 23 11  1  0
 23 15  1  0
 23 20  1  0
M  END
>  <ID>  (1) 
conformer_0

$$$$
