
     RDKit          3D

 22 23  0  0  0  0  0  0  0  0999 V2000
  101.9202    3.9046  -92.4733 C   0  0  0  0  0  0  0  0  0  0  0  0
   97.9566    7.8129  -90.3428 C   0  0  0  0  0  0  0  0  0  0  0  0
  103.0862    4.0083  -92.0199 C   0  0  0  0  0  0  0  0  0  0  0  0
  101.3826    9.3101  -91.3063 N   0  0  0  0  0  0  0  0  0  0  0  0
  101.8578    7.9866  -91.3715 C   0  0  0  0  0  0  0  0  0  0  0  0
  105.6414    2.1043  -93.9321 O   0  0  0  0  0  0  0  0  0  0  0  0
  101.8692    5.0291  -90.6598 O   0  0  0  0  0  0  0  0  0  0  0  0
   97.8375    9.2346  -90.4053 N   0  0  0  0  0  0  0  0  0  0  0  0
  105.7314    2.8919  -92.3077 P   0  0  0  0  0  0  0  0  0  0  0  0
   98.6500   11.1967  -90.9860 N   0  0  0  0  0  0  0  0  0  0  0  0
   99.0047    3.8015  -91.6794 O   0  0  0  0  0  0  0  0  0  0  0  0
  100.6490    7.0042  -90.9889 N   0  0  0  0  0  0  0  0  0  0  0  0
  104.4451    3.1948  -91.8587 O   0  0  0  0  0  0  0  0  0  0  0  0
  100.4041    4.2939  -91.9678 C   0  0  0  0  0  0  0  0  0  0  0  0
   99.9456    7.6411  -90.9145 C   0  0  0  0  0  0  0  0  0  0  0  0
  100.7531    2.5749  -92.7443 O   0  0  0  0  0  0  0  0  0  0  0  0
   98.3540    7.2141  -90.3629 N   0  0  0  0  0  0  0  0  0  0  0  0
  106.3986    3.7953  -91.9478 O   0  0  0  0  0  0  0  0  0  0  0  0
  100.7394    5.3303  -90.9502 C   0  0  0  0  0  0  0  0  0  0  0  0
   98.8810    9.8683  -90.8051 C   0  0  0  0  0  0  0  0  0  0  0  0
  100.1817    9.3325  -91.0152 C   0  0  0  0  0  0  0  0  0  0  0  0
  106.1864    1.9583  -92.2152 O   0  0  0  0  0  0  0  0  0  0  0  0
  3  1  1  0
  5  4  2  0
  8  2  2  0
  9  6  1  0
 12  5  1  0
 13  3  1  0
 14  1  1  0
 14 11  1  0
 15 12  1  0
 16  1  1  0
 17  2  1  0
 17 15  2  0
 18  3  1  0
 18  9  1  0
 19  7  1  0
 19 12  1  0
 19 14  1  0
 20  8  1  0
 20 10  1  0
 21  4  1  0
 21 15  1  0
 21 20  2  0
 22  9  1  0
M  END
>  <ID>  (1) 
conformer_0

$$$$
