
     RDKit          3D

 23 25  0  0  0  0  0  0  0  0999 V2000
  102.3107    4.5704  -92.5829 C   0  0  0  0  0  0  0  0  0  0  0  0
  100.0628    9.1931  -90.9306 C   0  0  0  0  0  0  0  0  0  0  0  0
  101.2876    3.5624  -92.2957 C   0  0  0  0  0  0  0  0  0  0  0  0
   99.8722    7.8379  -90.7759 C   0  0  0  0  0  0  0  0  0  0  0  0
   97.7651    9.8228  -90.4396 N   0  0  0  0  0  0  0  0  0  0  0  0
  101.4101    9.1392  -91.4101 N   0  0  0  0  0  0  0  0  0  0  0  0
  106.6715    4.2191  -92.1686 O   0  0  0  0  0  0  0  0  0  0  0  0
  105.7781    3.1683  -91.9291 P   0  0  0  0  0  0  0  0  0  0  0  0
   99.4829   11.3755  -91.1459 N   0  0  0  0  0  0  0  0  0  0  0  0
  101.9076    5.0331  -90.9625 O   0  0  0  0  0  0  0  0  0  0  0  0
  106.2577    2.0162  -91.0389 O   0  0  0  0  0  0  0  0  0  0  0  0
  103.2518    3.9425  -91.7277 C   0  0  0  0  0  0  0  0  0  0  0  0
  100.8553    7.0386  -91.0775 N   0  0  0  0  0  0  0  0  0  0  0  0
   98.7749    3.8729  -91.1693 O   0  0  0  0  0  0  0  0  0  0  0  0
  101.7614    7.7053  -91.3538 C   0  0  0  0  0  0  0  0  0  0  0  0
  104.5425    3.5121  -91.5932 O   0  0  0  0  0  0  0  0  0  0  0  0
   98.4623    7.6792  -90.0721 N   0  0  0  0  0  0  0  0  0  0  0  0
  105.6922    2.4909  -93.3669 O   0  0  0  0  0  0  0  0  0  0  0  0
  100.3358    3.0347  -93.0089 O   0  0  0  0  0  0  0  0  0  0  0  0
  100.5933    5.4108  -91.1274 C   0  0  0  0  0  0  0  0  0  0  0  0
   97.7051    8.5468  -90.0039 C   0  0  0  0  0  0  0  0  0  0  0  0
   99.0194   10.0738  -90.9244 C   0  0  0  0  0  0  0  0  0  0  0  0
   99.8670    4.4539  -91.9171 C   0  0  0  0  0  0  0  0  0  0  0  0
  3  1  1  0
  4  2  1  0
  6  2  1  0
  8  7  1  0
 10  1  1  0
 12  1  1  0
 12 11  1  0
 13  4  1  0
 15  6  2  0
 15 13  1  0
 16  8  1  0
 16 12  1  0
 17  4  2  0
 18  8  1  0
 19  3  1  0
 20 10  1  0
 20 13  1  0
 21  5  2  0
 21 17  1  0
 22  2  2  0
 22  5  1  0
 22  9  1  0
 23  3  1  0
 23 14  1  0
 23 20  1  0
M  END
>  <ID>  (1) 
conformer_0

$$$$
