
     RDKit          3D

 22 24  0  0  0  0  0  0  0  0999 V2000
   97.7260    8.9343  -90.1991 C   0  0  0  0  0  0  0  0  0  0  0  0
  103.0634    3.7967  -91.9391 C   0  0  0  0  0  0  0  0  0  0  0  0
  101.8920    3.8555  -92.7366 C   0  0  0  0  0  0  0  0  0  0  0  0
   99.9377    8.1751  -90.7294 C   0  0  0  0  0  0  0  0  0  0  0  0
   97.8911   10.3416  -90.6035 N   0  0  0  0  0  0  0  0  0  0  0  0
  101.4754    9.3534  -91.3129 N   0  0  0  0  0  0  0  0  0  0  0  0
  100.4117    4.5206  -92.1747 C   0  0  0  0  0  0  0  0  0  0  0  0
   99.4381   11.7218  -91.1398 N   0  0  0  0  0  0  0  0  0  0  0  0
  105.6565    2.3426  -92.3833 P   0  0  0  0  0  0  0  0  0  0  0  0
  105.6353    1.8036  -93.9157 O   0  0  0  0  0  0  0  0  0  0  0  0
  100.9571    7.2544  -90.9696 N   0  0  0  0  0  0  0  0  0  0  0  0
  102.0980    4.9718  -91.0572 O   0  0  0  0  0  0  0  0  0  0  0  0
  105.8507    1.1641  -91.6022 O   0  0  0  0  0  0  0  0  0  0  0  0
   98.9906    4.3621  -90.8203 O   0  0  0  0  0  0  0  0  0  0  0  0
  101.9093    7.7568  -91.2848 C   0  0  0  0  0  0  0  0  0  0  0  0
   98.4403    8.0096  -90.2159 N   0  0  0  0  0  0  0  0  0  0  0  0
  106.5786    3.4181  -92.3905 O   0  0  0  0  0  0  0  0  0  0  0  0
  100.1270    2.9956  -93.0932 O   0  0  0  0  0  0  0  0  0  0  0  0
  100.5319    5.2791  -91.1688 C   0  0  0  0  0  0  0  0  0  0  0  0
  104.4132    2.8340  -91.9150 O   0  0  0  0  0  0  0  0  0  0  0  0
  100.1823    9.4400  -90.9917 C   0  0  0  0  0  0  0  0  0  0  0  0
   99.0679   10.4125  -90.9613 C   0  0  0  0  0  0  0  0  0  0  0  0
  3  2  1  0
  5  1  2  0
  7  3  1  0
 10  9  1  0
 11  4  1  0
 12  2  1  0
 13  2  1  0
 15  6  2  0
 15 11  1  0
 16  1  1  0
 16  4  2  0
 17  9  1  0
 18  7  1  0
 19  7  1  0
 19 11  1  0
 19 12  1  0
 19 14  1  0
 20  2  1  0
 20  9  1  0
 21  4  1  0
 21  6  1  0
 22  5  1  0
 22  8  1  0
 22 21  2  0
M  END
>  <ID>  (1) 
conformer_0

$$$$
