
     RDKit          3D

 22 24  0  0  0  0  0  0  0  0999 V2000
   97.6190    8.5741  -90.1939 C   0  0  0  0  0  0  0  0  0  0  0  0
  103.0651    4.1712  -92.0552 C   0  0  0  0  0  0  0  0  0  0  0  0
  100.6065    4.3933  -92.1860 C   0  0  0  0  0  0  0  0  0  0  0  0
   98.9041   10.1414  -90.7933 C   0  0  0  0  0  0  0  0  0  0  0  0
  101.3112    9.1742  -91.2160 N   0  0  0  0  0  0  0  0  0  0  0  0
   98.2716    7.5429  -90.5090 N   0  0  0  0  0  0  0  0  0  0  0  0
  105.7046    3.2391  -92.0120 P   0  0  0  0  0  0  0  0  0  0  0  0
  106.6105    4.2332  -92.2000 O   0  0  0  0  0  0  0  0  0  0  0  0
  100.7383    7.0674  -91.2393 N   0  0  0  0  0  0  0  0  0  0  0  0
  102.1511    5.1430  -91.3139 O   0  0  0  0  0  0  0  0  0  0  0  0
   99.1054    4.0986  -91.5068 O   0  0  0  0  0  0  0  0  0  0  0  0
   99.5028   11.4825  -90.9172 N   0  0  0  0  0  0  0  0  0  0  0  0
  100.5560    5.3844  -91.5684 C   0  0  0  0  0  0  0  0  0  0  0  0
  104.3880    3.6089  -91.8049 O   0  0  0  0  0  0  0  0  0  0  0  0
   97.7031    9.9901  -90.3329 N   0  0  0  0  0  0  0  0  0  0  0  0
  100.0792    9.3350  -90.8792 C   0  0  0  0  0  0  0  0  0  0  0  0
  106.0049    2.2231  -90.8886 O   0  0  0  0  0  0  0  0  0  0  0  0
  105.8958    2.4111  -93.2541 O   0  0  0  0  0  0  0  0  0  0  0  0
  101.6754    7.7971  -91.3222 C   0  0  0  0  0  0  0  0  0  0  0  0
  102.0586    3.6577  -92.5787 C   0  0  0  0  0  0  0  0  0  0  0  0
  100.1101    3.3843  -93.2036 O   0  0  0  0  0  0  0  0  0  0  0  0
   99.6461    7.8715  -90.8040 C   0  0  0  0  0  0  0  0  0  0  0  0
  6  1  2  0
  8  7  1  0
 10  2  1  0
 11  3  1  0
 12  4  1  0
 13  3  1  0
 13  9  1  0
 13 10  1  0
 14  2  1  0
 14  7  1  0
 15  1  1  0
 15  4  2  0
 16  4  1  0
 16  5  1  0
 17  2  1  0
 18  7  1  0
 19  5  2  0
 19  9  1  0
 20  2  1  0
 20  3  1  0
 21  3  1  0
 22  6  1  0
 22  9  1  0
 22 16  2  0
M  END
>  <ID>  (1) 
conformer_0

$$$$
