
     RDKit          3D

 23 24  0  0  0  0  0  0  0  0999 V2000
  100.9551    3.5817  -92.3158 C   0  0  0  0  0  0  0  0  0  0  0  0
   98.4855    8.4373  -90.4734 C   0  0  0  0  0  0  0  0  0  0  0  0
  100.9007    5.5578  -90.9838 C   0  0  2  0  0  0  0  0  0  0  0  0
   99.1225   10.2041  -90.9407 C   0  0  0  0  0  0  0  0  0  0  0  0
  106.5136    3.7361  -92.4679 O   0  0  0  0  0  0  0  0  0  0  0  0
  100.9160    7.1579  -91.1330 N   0  0  0  0  0  0  0  0  0  0  0  0
  105.5561    2.9388  -92.0959 P   0  0  0  0  0  0  0  0  0  0  0  0
  101.2551    9.2208  -91.3788 N   0  0  0  0  0  0  0  0  0  0  0  0
  103.0960    4.0713  -91.4995 C   0  0  2  0  0  0  0  0  0  0  0  0
  102.0999    5.0741  -91.0160 O   0  0  0  0  0  0  0  0  0  0  0  0
   97.8985    9.9006  -90.5098 N   0  0  0  0  0  0  0  0  0  0  0  0
  105.6885    1.9998  -91.0093 O   0  0  0  0  0  0  0  0  0  0  0  0
   99.2238    4.5626  -90.4616 O   0  0  0  0  0  0  0  0  0  0  0  0
   99.0170   11.4612  -90.9653 N   0  0  0  0  0  0  0  0  0  0  0  0
   99.5437    3.4490  -92.6512 O   0  0  0  0  0  0  0  0  0  0  0  0
  100.2378    8.9159  -91.0095 C   0  0  0  0  0  0  0  0  0  0  0  0
  101.5516    1.8544  -92.8685 O   0  0  0  0  0  0  0  0  0  0  0  0
  104.3192    3.4926  -91.7906 O   0  0  0  0  0  0  0  0  0  0  0  0
  105.6398    2.2286  -93.4813 O   0  0  0  0  0  0  0  0  0  0  0  0
  102.4093    3.7528  -92.6616 C   0  0  0  0  0  0  0  0  0  0  0  0
   98.6140    7.7541  -90.4302 N   0  0  0  0  0  0  0  0  0  0  0  0
  101.3876    7.7881  -91.3394 C   0  0  0  0  0  0  0  0  0  0  0  0
  100.1594    4.7081  -91.7167 C   0  0  2  0  0  0  0  0  0  0  0  0
  6  3  1  0
  7  5  1  0
  3 10  1  6
 10  9  1  0
 11  2  1  0
 11  4  1  0
  9 12  1  1
 14  4  1  0
 15  1  1  0
 16  2  1  0
 16  4  2  0
 16  8  1  0
 17  1  1  0
 18  7  1  0
 18  9  1  0
 19  7  1  0
 20  1  1  0
 20  9  1  0
 21  2  2  3
 22  6  2  3
 22  8  1  0
 23  1  1  0
 23  3  1  0
 23 13  1  1
M  END
>  <ID>  (1) 
conformer_0

$$$$
