
     RDKit          3D

 21 22  0  0  0  0  0  0  0  0999 V2000
  100.7367    5.4488  -91.0521 C   0  0  2  0  0  0  0  0  0  0  0  0
   99.8523    8.5336  -90.9693 C   0  0  2  0  0  0  0  0  0  0  0  0
  101.8516    3.8500  -92.3898 C   0  0  1  0  0  0  0  0  0  0  0  0
  101.4120    8.1185  -91.4959 C   0  0  0  0  0  0  0  0  0  0  0  0
   97.4852    9.5932  -90.2786 N   0  0  0  0  0  0  0  0  0  0  0  0
  101.0516    9.5354  -91.4381 N   0  0  0  0  0  0  0  0  0  0  0  0
  100.7803    7.3779  -91.1885 N   0  0  0  0  0  0  0  0  0  0  0  0
  105.4745    2.0762  -93.5361 O   0  0  0  0  0  0  0  0  0  0  0  0
  102.0120    5.2543  -90.9674 O   0  0  0  0  0  0  0  0  0  0  0  0
  105.5401    2.9966  -92.2339 P   0  0  0  0  0  0  0  0  0  0  0  0
   98.8935   11.2648  -91.2246 N   0  0  0  0  0  0  0  0  0  0  0  0
  102.9842    4.2064  -92.0387 C   0  0  2  0  0  0  0  0  0  0  0  0
  105.6216    2.1756  -90.9924 O   0  0  0  0  0  0  0  0  0  0  0  0
   99.0986    3.9457  -91.3641 O   0  0  0  0  0  0  0  0  0  0  0  0
   97.7397    8.4325  -90.0323 C   0  0  0  0  0  0  0  0  0  0  0  0
  106.7068    3.6756  -92.4544 O   0  0  0  0  0  0  0  0  0  0  0  0
  101.2579    2.3328  -92.5464 O   0  0  0  0  0  0  0  0  0  0  0  0
   98.4497    7.6418  -90.1195 N   0  0  0  0  0  0  0  0  0  0  0  0
  104.3644    3.6845  -92.0838 O   0  0  0  0  0  0  0  0  0  0  0  0
   99.0352    9.8597  -90.9357 C   0  0  0  0  0  0  0  0  0  0  0  0
  100.3585    4.4364  -91.8598 C   0  0  1  0  0  0  0  0  0  0  0  0
  6  2  1  0
  6  4  2  0
  1  7  1  6
  2  7  1  6
  7  4  1  0
  9  1  1  0
 10  8  1  0
 12  3  1  0
 12  9  1  0
 12 13  1  1
 15  5  1  0
 16 10  1  0
  3 17  1  1
 18 15  2  3
 19 10  1  0
 19 12  1  0
 20  2  1  0
 20  5  1  0
 20 11  2  3
 21  1  1  0
 21  3  1  0
 21 14  1  1
M  END
>  <ID>  (1) 
conformer_0

$$$$
