
     RDKit          3D

 22 24  0  0  0  0  0  0  0  0999 V2000
  100.0410    9.3820  -90.9934 C   0  0  0  0  0  0  0  0  0  0  0  0
  102.1726    4.1745  -92.6545 C   0  0  0  0  0  0  0  0  0  0  0  0
  102.9988    3.9777  -91.6648 C   0  0  0  0  0  0  0  0  0  0  0  0
   99.8053    7.8183  -90.8475 C   0  0  0  0  0  0  0  0  0  0  0  0
  101.3121    9.2523  -91.1940 N   0  0  0  0  0  0  0  0  0  0  0  0
   98.2973    7.4113  -90.3083 N   0  0  0  0  0  0  0  0  0  0  0  0
  105.5758    2.0403  -93.2708 O   0  0  0  0  0  0  0  0  0  0  0  0
  105.7887    2.8397  -92.0012 P   0  0  0  0  0  0  0  0  0  0  0  0
  100.6728    7.0732  -91.0837 N   0  0  0  0  0  0  0  0  0  0  0  0
  100.6642    4.3325  -92.1693 C   0  0  0  0  0  0  0  0  0  0  0  0
  104.5997    3.7329  -91.8460 O   0  0  0  0  0  0  0  0  0  0  0  0
   99.2374   11.4798  -90.9157 N   0  0  0  0  0  0  0  0  0  0  0  0
   99.0021    4.2851  -92.3450 O   0  0  0  0  0  0  0  0  0  0  0  0
  102.0175    5.2547  -91.4079 O   0  0  0  0  0  0  0  0  0  0  0  0
  101.7197    7.9023  -91.2843 C   0  0  0  0  0  0  0  0  0  0  0  0
  106.9163    3.6992  -92.4400 O   0  0  0  0  0  0  0  0  0  0  0  0
  106.0964    2.1571  -90.7742 O   0  0  0  0  0  0  0  0  0  0  0  0
  100.6598    2.8538  -93.0233 O   0  0  0  0  0  0  0  0  0  0  0  0
   97.7967    9.5725  -90.5388 N   0  0  0  0  0  0  0  0  0  0  0  0
  100.5865    5.2618  -91.2148 C   0  0  0  0  0  0  0  0  0  0  0  0
   98.8860   10.2421  -90.8191 C   0  0  0  0  0  0  0  0  0  0  0  0
   98.0368    8.4364  -90.4148 C   0  0  0  0  0  0  0  0  0  0  0  0
  3  2  1  0
  4  1  2  0
  5  1  1  0
  6  4  1  0
  8  7  1  0
  9  4  1  0
 10  2  1  0
 11  3  1  0
 13 10  1  0
 14  3  1  0
 15  5  2  0
 15  9  1  0
 16  8  1  0
 17  3  1  0
 17  8  1  0
 18 10  1  0
 20  9  1  0
 20 10  1  0
 20 14  1  0
 21  1  1  0
 21 12  1  0
 21 19  2  0
 22  6  2  0
 22 19  1  0
M  END
>  <ID>  (1) 
conformer_0

$$$$
