
     RDKit          3D

 23 25  0  0  0  0  0  0  0  0999 V2000
  100.7554    5.6085  -90.9616 C   0  0  0  0  0  0  0  0  0  0  0  0
  100.3574    9.6402  -91.0250 C   0  0  0  0  0  0  0  0  0  0  0  0
  100.2260    5.2184  -92.2264 C   0  0  0  0  0  0  0  0  0  0  0  0
  101.9342    8.0845  -91.3794 C   0  0  0  0  0  0  0  0  0  0  0  0
  101.4958    9.5767  -91.2253 N   0  0  0  0  0  0  0  0  0  0  0  0
   98.6386    7.5652  -90.3758 N   0  0  0  0  0  0  0  0  0  0  0  0
  101.9954    5.3125  -91.2824 O   0  0  0  0  0  0  0  0  0  0  0  0
  100.9024    7.3950  -91.0509 N   0  0  0  0  0  0  0  0  0  0  0  0
  105.6576    2.1601  -93.3329 O   0  0  0  0  0  0  0  0  0  0  0  0
  105.5388    3.0200  -92.0314 P   0  0  0  0  0  0  0  0  0  0  0  0
   99.4409   11.4820  -91.0945 N   0  0  0  0  0  0  0  0  0  0  0  0
  102.3844    3.9509  -92.6241 C   0  0  0  0  0  0  0  0  0  0  0  0
  105.6188    2.0812  -90.9044 O   0  0  0  0  0  0  0  0  0  0  0  0
   99.1376    4.2099  -91.0741 O   0  0  0  0  0  0  0  0  0  0  0  0
   97.8072    8.3397  -90.3122 C   0  0  0  0  0  0  0  0  0  0  0  0
   98.0200    9.7113  -90.5400 N   0  0  0  0  0  0  0  0  0  0  0  0
  106.3981    3.9296  -92.4052 O   0  0  0  0  0  0  0  0  0  0  0  0
  104.2861    3.4844  -91.7599 O   0  0  0  0  0  0  0  0  0  0  0  0
  102.9994    3.8824  -91.2421 C   0  0  0  0  0  0  0  0  0  0  0  0
   99.0144   10.0940  -90.8289 C   0  0  0  0  0  0  0  0  0  0  0  0
  100.0996    3.1198  -92.7668 O   0  0  0  0  0  0  0  0  0  0  0  0
  100.9436    3.9451  -92.3131 C   0  0  0  0  0  0  0  0  0  0  0  0
  100.1055    8.1221  -90.7945 C   0  0  0  0  0  0  0  0  0  0  0  0
  3  1  1  0
  5  2  1  0
  5  4  2  0
  7  1  1  0
  8  1  1  0
  8  4  1  0
 10  9  1  0
 14  3  1  0
 15  6  1  0
 16 15  2  0
 17 10  1  0
 18 10  1  0
 19  7  1  0
 19 12  1  0
 19 13  1  0
 19 18  1  0
 20  2  2  0
 20 11  1  0
 20 16  1  0
 22  3  1  0
 22 12  1  0
 22 21  1  0
 23  2  1  0
 23  6  2  0
 23  8  1  0
M  END
>  <ID>  (1) 
conformer_0

$$$$
