
     RDKit          3D

 21 22  0  0  0  0  0  0  0  0999 V2000
  101.9435    3.9689  -92.3208 C   0  0  1  0  0  0  0  0  0  0  0  0
  100.0931    8.4103  -90.9267 C   0  0  2  0  0  0  0  0  0  0  0  0
  103.2078    3.9836  -91.9488 C   0  0  1  0  0  0  0  0  0  0  0  0
  101.6162    7.8033  -91.2137 C   0  0  0  0  0  0  0  0  0  0  0  0
   97.9554   10.1239  -90.6108 N   0  0  0  0  0  0  0  0  0  0  0  0
  101.6033    9.1877  -91.2444 N   0  0  0  0  0  0  0  0  0  0  0  0
  105.7324    2.7935  -92.1862 P   0  0  0  0  0  0  0  0  0  0  0  0
  105.7407    2.0461  -93.4029 O   0  0  0  0  0  0  0  0  0  0  0  0
   99.7359   11.5171  -91.0766 N   0  0  0  0  0  0  0  0  0  0  0  0
  101.7543    5.1226  -91.4283 O   0  0  0  0  0  0  0  0  0  0  0  0
  100.7805    7.0513  -91.1495 N   0  0  0  0  0  0  0  0  0  0  0  0
  100.3325    5.2288  -91.3286 C   0  0  1  0  0  0  0  0  0  0  0  0
   98.8404    3.7236  -91.5316 O   0  0  0  0  0  0  0  0  0  0  0  0
  105.7124    2.4947  -90.8671 O   0  0  0  0  0  0  0  0  0  0  0  0
   98.3301    7.8153  -90.4322 N   0  0  0  0  0  0  0  0  0  0  0  0
   99.6603   10.0367  -90.9687 C   0  0  0  0  0  0  0  0  0  0  0  0
  100.8552    2.5202  -92.7463 O   0  0  0  0  0  0  0  0  0  0  0  0
  106.9127    3.5954  -92.5477 O   0  0  0  0  0  0  0  0  0  0  0  0
   98.1848    8.7886  -90.4517 C   0  0  0  0  0  0  0  0  0  0  0  0
  100.2950    4.2660  -92.0714 C   0  0  2  0  0  0  0  0  0  0  0  0
  104.4569    3.2799  -92.0862 O   0  0  0  0  0  0  0  0  0  0  0  0
  3  1  1  0
  6  2  1  0
  6  4  2  0
  8  7  1  0
 10  1  1  0
  2 11  1  6
 11  4  1  0
 12 10  1  0
 12 11  1  6
 14  3  1  0
 14  7  1  0
 16  2  1  0
 16  5  1  0
 16  9  2  3
  1 17  1  1
 18  7  1  0
 19  5  1  0
 19 15  3  0
 20  1  1  0
 20 12  1  0
 20 13  1  1
  3 21  1  6
M  END
>  <ID>  (1) 
conformer_0

$$$$
