
     RDKit          3D

 21 22  0  0  0  0  0  0  0  0999 V2000
  102.1629    3.7397  -92.3000 C   0  0  1  0  0  0  0  0  0  0  0  0
   98.0283    9.0340  -90.4988 C   0  0  0  0  0  0  0  0  0  0  0  0
  103.4168    3.9902  -92.0216 C   0  0  1  0  0  0  0  0  0  0  0  0
   99.9722    8.5633  -90.9635 C   0  0  1  0  0  0  0  0  0  0  0  0
   98.0100   10.2333  -90.6444 N   0  0  0  0  0  0  0  0  0  0  0  0
  105.6576    2.1457  -93.5495 O   0  0  0  0  0  0  0  0  0  0  0  0
  101.5147    9.1899  -91.3526 N   0  0  0  0  0  0  0  0  0  0  0  0
  105.8717    2.8354  -92.0266 P   0  0  0  0  0  0  0  0  0  0  0  0
  100.6018    4.1890  -92.0795 C   0  0  1  0  0  0  0  0  0  0  0  0
  100.7261    7.1198  -91.2468 N   0  0  0  0  0  0  0  0  0  0  0  0
   99.8464   11.5507  -90.9546 N   0  0  0  0  0  0  0  0  0  0  0  0
  106.0143    1.7583  -91.0733 O   0  0  0  0  0  0  0  0  0  0  0  0
  102.1132    5.1765  -91.5039 O   0  0  0  0  0  0  0  0  0  0  0  0
   99.0078    3.7976  -91.5480 O   0  0  0  0  0  0  0  0  0  0  0  0
   99.7042   10.1174  -90.9803 C   0  0  0  0  0  0  0  0  0  0  0  0
  101.1705    2.3785  -92.8387 O   0  0  0  0  0  0  0  0  0  0  0  0
   98.3824    7.8848  -90.5405 N   0  0  0  0  0  0  0  0  0  0  0  0
  104.9351    3.6023  -91.6418 O   0  0  0  0  0  0  0  0  0  0  0  0
  100.4022    5.1960  -91.4426 C   0  0  2  0  0  0  0  0  0  0  0  0
  106.8941    3.3635  -92.5285 O   0  0  0  0  0  0  0  0  0  0  0  0
  101.3203    7.8518  -91.3695 C   0  0  0  0  0  0  0  0  0  0  0  0
  3  1  1  0
  5  2  1  0
  7  4  1  0
  8  6  1  0
  9  1  1  0
  3 12  1  1
 13  1  1  0
  9 14  1  1
  4 15  1  6
 15  5  1  0
 15 11  2  3
  1 16  1  6
 17  2  3  0
 18  3  1  0
 18  8  1  0
 19  9  1  0
 19 10  1  6
 19 13  1  0
 20  8  1  0
 21  4  1  0
 21  7  2  0
 21 10  1  0
M  END
>  <ID>  (1) 
conformer_0

$$$$
