
     RDKit          3D

 21 23  0  0  0  0  0  0  0  0999 V2000
  101.7073    4.0473  -92.2929 C   0  0  1  0  0  0  0  0  0  0  0  0
   98.3043    8.3891  -90.4129 C   0  0  0  0  0  0  0  0  0  0  0  0
  100.2486    4.7307  -92.0573 C   0  0  0  0  0  0  0  0  0  0  0  0
  101.6495    8.0233  -91.3231 C   0  0  0  0  0  0  0  0  0  0  0  0
  101.4206    9.4531  -91.3682 N   0  0  0  0  0  0  0  0  0  0  0  0
   98.5791    7.5266  -90.3409 N   0  0  0  0  0  0  0  0  0  0  0  0
  105.3490    1.7738  -93.2750 O   0  0  0  0  0  0  0  0  0  0  0  0
   98.9479   11.3472  -91.1164 N   0  0  0  0  0  0  0  0  0  0  0  0
  100.8671    7.2224  -91.1119 N   0  0  0  0  0  0  0  0  0  0  0  0
  105.3941    2.5523  -92.1148 P   0  0  0  0  0  0  0  0  0  0  0  0
  102.0815    5.2564  -91.4286 O   0  0  0  0  0  0  0  0  0  0  0  0
  106.0366    1.9264  -90.8860 O   0  0  0  0  0  0  0  0  0  0  0  0
  100.0993    3.2578  -92.8657 O   0  0  0  0  0  0  0  0  0  0  0  0
  102.8624    3.8784  -91.7567 C   0  0  1  0  0  0  0  0  0  0  0  0
   99.4323    4.1159  -90.6199 O   0  0  0  0  0  0  0  0  0  0  0  0
  100.2589    8.5155  -91.0386 C   0  0  0  0  0  0  0  0  0  0  0  0
  104.2710    3.3033  -91.7120 O   0  0  0  0  0  0  0  0  0  0  0  0
  106.4075    3.4310  -92.7425 O   0  0  0  0  0  0  0  0  0  0  0  0
   99.4395    9.9474  -90.9942 C   0  0  0  0  0  0  0  0  0  0  0  0
   97.9709    9.3921  -90.5726 N   0  0  0  0  0  0  0  0  0  0  0  0
  100.6910    5.4608  -91.1676 C   0  0  2  0  0  0  0  0  0  0  0  0
  3  1  1  0
  5  4  2  0
  6  2  3  0
  9  4  1  0
 10  7  1  0
  1 11  1  6
 13  3  1  0
 14  1  1  0
 14 12  1  1
 15  3  1  0
 16  4  1  0
 16  5  1  0
 16  9  1  0
 17 10  1  0
 17 14  1  0
 18 10  1  0
 19  8  2  3
 19 16  1  0
 20  2  1  0
 20 19  1  0
 21  3  1  0
 21  9  1  6
 21 11  1  0
M  END
>  <ID>  (1) 
conformer_0

$$$$
