
     RDKit          3D

 21 22  0  0  0  0  0  0  0  0999 V2000
  100.5369    4.4734  -92.0338 C   0  0  2  0  0  0  0  0  0  0  0  0
   98.2292    8.6835  -90.2331 C   0  0  0  0  0  0  0  0  0  0  0  0
  103.1624    4.0380  -91.9216 C   0  0  2  0  0  0  0  0  0  0  0  0
  101.3175    8.0749  -91.4302 C   0  0  0  0  0  0  0  0  0  0  0  0
  101.4000    9.4236  -91.3993 N   0  0  0  0  0  0  0  0  0  0  0  0
  105.7664    3.1354  -91.9257 P   0  0  0  0  0  0  0  0  0  0  0  0
   97.8731    9.8381  -90.3081 N   0  0  0  0  0  0  0  0  0  0  0  0
  102.2285    5.1980  -91.3137 O   0  0  0  0  0  0  0  0  0  0  0  0
  106.8065    3.9038  -92.2110 O   0  0  0  0  0  0  0  0  0  0  0  0
   99.2643   11.5616  -91.0954 N   0  0  0  0  0  0  0  0  0  0  0  0
  100.7966    7.1519  -91.3160 N   0  0  0  0  0  0  0  0  0  0  0  0
  100.4619    5.4461  -91.4812 C   0  0  1  0  0  0  0  0  0  0  0  0
   98.9991    4.1973  -91.5732 O   0  0  0  0  0  0  0  0  0  0  0  0
  105.9797    2.1564  -90.7832 O   0  0  0  0  0  0  0  0  0  0  0  0
  100.1131    8.6910  -91.0000 C   0  0  1  0  0  0  0  0  0  0  0  0
   99.5001   10.1862  -90.9809 C   0  0  0  0  0  0  0  0  0  0  0  0
  100.5949    2.7436  -92.8514 O   0  0  0  0  0  0  0  0  0  0  0  0
   98.5183    7.8292  -90.3698 N   0  0  0  0  0  0  0  0  0  0  0  0
  104.5099    3.5791  -91.6814 O   0  0  0  0  0  0  0  0  0  0  0  0
  105.8388    2.3376  -93.2768 O   0  0  0  0  0  0  0  0  0  0  0  0
  102.0927    3.6358  -92.4745 C   0  0  1  0  0  0  0  0  0  0  0  0
  5  4  2  0
  7  2  1  0
  8  3  1  0
  9  6  1  0
 11  4  1  0
 12  1  1  0
 12  8  1  0
 12 11  1  6
  1 13  1  1
  3 14  1  1
 15  4  1  0
 15  5  1  0
 16  7  1  0
 16 10  2  3
 15 16  1  6
 18  2  3  0
 19  3  1  0
 19  6  1  0
 20  6  1  0
 21  1  1  0
 21  3  1  0
 21 17  1  1
M  END
>  <ID>  (1) 
conformer_0

$$$$
