
     RDKit          3D

 23 25  0  0  0  0  0  0  0  0999 V2000
  101.9769    4.2124  -92.3925 C   0  0  0  0  0  0  0  0  0  0  0  0
   99.9907    9.6106  -91.0428 C   0  0  0  0  0  0  0  0  0  0  0  0
  100.5646    4.4763  -92.2133 C   0  0  0  0  0  0  0  0  0  0  0  0
  101.2607    9.3691  -91.2724 N   0  0  0  0  0  0  0  0  0  0  0  0
  101.6911    8.2412  -91.3254 C   0  0  0  0  0  0  0  0  0  0  0  0
   97.7547    9.7932  -90.5612 N   0  0  0  0  0  0  0  0  0  0  0  0
  102.2619    5.3528  -91.0460 O   0  0  0  0  0  0  0  0  0  0  0  0
  107.1901    3.2580  -91.8468 O   0  0  0  0  0  0  0  0  0  0  0  0
  106.0287    3.0194  -91.6821 P   0  0  0  0  0  0  0  0  0  0  0  0
   99.0829   11.6787  -91.0707 N   0  0  0  0  0  0  0  0  0  0  0  0
  103.2795    4.1963  -91.7126 C   0  0  0  0  0  0  0  0  0  0  0  0
  100.6060    7.2537  -91.0250 N   0  0  0  0  0  0  0  0  0  0  0  0
  105.0340    3.9390  -91.2694 O   0  0  0  0  0  0  0  0  0  0  0  0
   99.1890    4.1691  -90.7708 O   0  0  0  0  0  0  0  0  0  0  0  0
  100.0971    2.8354  -92.8588 O   0  0  0  0  0  0  0  0  0  0  0  0
  105.6207    1.7450  -91.0823 O   0  0  0  0  0  0  0  0  0  0  0  0
   99.8643    7.9716  -90.8655 C   0  0  0  0  0  0  0  0  0  0  0  0
  101.6223    4.3075  -94.0617 O   0  0  0  0  0  0  0  0  0  0  0  0
   98.3465    7.7884  -90.4635 N   0  0  0  0  0  0  0  0  0  0  0  0
  100.5162    5.4889  -91.2776 C   0  0  0  0  0  0  0  0  0  0  0  0
  105.9422    2.5634  -93.2388 O   0  0  0  0  0  0  0  0  0  0  0  0
   97.7906    8.5118  -90.3303 C   0  0  0  0  0  0  0  0  0  0  0  0
   98.8684   10.3405  -90.9103 C   0  0  0  0  0  0  0  0  0  0  0  0
  3  1  1  0
  4  2  1  0
  5  4  2  0
  9  8  1  0
 11  1  1  0
 11  7  1  0
 12  5  1  0
 13  9  1  0
 13 11  1  0
 15  3  1  0
 16 11  1  0
 17  2  2  0
 17 12  1  0
 18  1  1  0
 19 17  1  0
 20  3  1  0
 20  7  1  0
 20 12  1  0
 20 14  1  0
 21  9  1  0
 22  6  1  0
 22 19  2  0
 23  2  1  0
 23  6  2  0
 23 10  1  0
M  END
>  <ID>  (1) 
conformer_0

$$$$
