
     RDKit          3D

 22 23  0  0  0  0  0  0  0  0999 V2000
  101.9211    4.0833  -92.5846 C   0  0  0  0  0  0  0  0  0  0  0  0
   99.7706    7.9166  -90.8025 C   0  0  0  0  0  0  0  0  0  0  0  0
  100.4590    5.5091  -91.0459 C   0  0  0  0  0  0  0  0  0  0  0  0
  101.6471    7.9974  -91.4497 C   0  0  0  0  0  0  0  0  0  0  0  0
  101.2506    9.4832  -91.3059 N   0  0  0  0  0  0  0  0  0  0  0  0
   98.2699    7.7466  -90.1724 N   0  0  0  0  0  0  0  0  0  0  0  0
  101.8682    5.2263  -91.0064 O   0  0  0  0  0  0  0  0  0  0  0  0
  106.6415    3.2868  -91.8462 O   0  0  0  0  0  0  0  0  0  0  0  0
  105.7497    2.4666  -92.0927 P   0  0  0  0  0  4  0  0  0  0  0  0
  100.6478    7.1643  -91.0877 N   0  0  0  0  0  0  0  0  0  0  0  0
   99.2118   11.6076  -91.0790 N   0  0  0  0  0  0  0  0  0  0  0  0
   98.7630    4.4167  -91.1214 O   0  0  0  0  0  0  0  0  0  0  0  0
  103.0580    4.0811  -92.0268 C   0  0  0  0  0  0  0  0  0  0  0  0
  104.3353    3.0375  -91.9150 O   0  0  0  0  0  0  0  0  0  0  0  0
  100.1112    9.3947  -91.0134 C   0  0  0  0  0  0  0  0  0  0  0  0
   97.8049    9.8992  -90.5458 N   0  0  0  0  0  0  0  0  0  0  0  0
  105.8387    2.2799  -93.5218 O   0  0  0  0  0  0  0  0  0  0  0  0
   99.9373    3.4178  -92.9710 O   0  0  0  0  0  0  0  0  0  0  0  0
  105.9067    1.1230  -91.7832 O   0  0  0  0  0  1  0  0  0  0  0  0
  100.3609    4.6324  -92.0415 C   0  0  0  0  0  0  0  0  0  0  0  0
   97.7973    8.6349  -90.2304 C   0  0  0  0  0  0  0  0  0  0  0  0
   99.0163   10.2491  -90.9456 C   0  0  0  0  0  0  0  0  0  0  0  0
  5  4  2  0
  6  2  1  0
  7  3  1  0
  9  8  1  0
 10  2  1  0
 10  3  1  0
 10  4  1  0
 13  1  1  0
 14  9  1  0
 14 13  1  0
 15  2  2  0
 15  5  1  0
 17  9  1  0
 19  9  1  0
 20  1  1  0
 20  3  1  0
 20 12  1  0
 20 18  1  0
 21  6  2  0
 21 16  1  0
 22 11  1  0
 22 15  1  0
 22 16  2  0
M  RAD  2   9   2  19   2
M  END
>  <ID>  (1) 
conformer_0

$$$$
