
     RDKit          3D

 21 22  0  0  0  0  0  0  0  0999 V2000
   99.8545    8.6583  -90.8600 C   0  0  1  0  0  0  0  0  0  0  0  0
  100.9622    5.4184  -91.0592 C   0  0  1  0  0  0  0  0  0  0  0  0
  102.1174    3.8802  -92.4381 C   0  0  0  0  0  0  0  0  0  0  0  0
  101.4299    8.1381  -91.2761 C   0  0  0  0  0  0  0  0  0  0  0  0
  101.3342    9.5150  -91.3415 N   0  0  0  0  0  0  0  0  0  0  0  0
   97.7732   10.0488  -90.5221 N   0  0  0  0  0  0  0  0  0  0  0  0
  105.5189    1.8547  -93.7791 O   0  0  0  0  0  0  0  0  0  0  0  0
  100.9758    7.3557  -91.0941 N   0  0  0  0  0  0  0  0  0  0  0  0
  102.2317    5.3045  -91.4369 O   0  0  0  0  0  0  0  0  0  0  0  0
   98.5264    7.6836  -90.1810 N   0  0  0  0  0  0  0  0  0  0  0  0
  105.6169    2.4322  -92.4054 P   0  0  0  0  0  0  0  0  0  0  0  0
   99.3569   11.5635  -91.3506 N   0  0  0  0  0  0  0  0  0  0  0  0
  106.1533    1.8422  -91.1619 O   0  0  0  0  0  0  0  0  0  0  0  0
  103.1629    3.9138  -91.7350 C   0  0  0  0  0  0  0  0  0  0  0  0
   99.3735    4.2831  -90.3684 O   0  0  0  0  0  0  0  0  0  0  0  0
   99.2942   10.0451  -91.0147 C   0  0  0  0  0  0  0  0  0  0  0  0
  106.6080    3.4992  -92.7635 O   0  0  0  0  0  0  0  0  0  0  0  0
  104.4886    3.1543  -91.9485 O   0  0  0  0  0  0  0  0  0  0  0  0
   97.7963    8.6372  -90.1136 C   0  0  0  0  0  0  0  0  0  0  0  0
  100.6830    4.3647  -92.0454 C   0  0  1  0  0  0  0  0  0  0  0  0
   99.7073    3.4588  -92.2558 O   0  0  0  0  0  0  0  0  0  0  0  0
  4  1  1  0
  5  1  1  0
  5  4  2  0
  8  2  1  0
  8  4  1  0
  9  2  1  0
 11  7  1  0
 14  3  1  0
 14  9  1  0
 14 13  1  0
  2 15  1  1
  1 16  1  6
 16  6  1  0
 16 12  2  3
 17 11  1  0
 18 11  1  0
 18 14  1  0
 19  6  1  0
 19 10  2  3
 20  2  1  0
 20  3  1  0
 20 21  1  1
M  END
>  <ID>  (1) 
conformer_0

$$$$
