
     RDKit          3D

 22 23  0  0  0  0  0  0  0  0999 V2000
   99.9578    4.6535  -92.0628 C   0  0  0  0  0  0  0  0  0  0  0  0
  100.1603    8.5577  -91.0088 C   0  0  0  0  0  0  0  0  0  0  0  0
  102.0638    3.9980  -92.4367 C   0  0  0  0  0  0  0  0  0  0  0  0
  101.5430    7.9571  -91.2645 C   0  0  0  0  0  0  0  0  0  0  0  0
  101.3551    9.3142  -91.3420 N   0  0  0  0  0  0  0  0  0  0  0  0
   98.4523    7.9600  -90.4693 N   0  0  0  0  0  0  0  0  0  0  0  0
  105.2556    1.7961  -93.3721 O   0  0  0  0  0  0  0  0  0  0  0  0
  101.9471    5.2206  -90.6253 O   0  0  0  0  0  0  0  0  0  0  0  0
  100.7119    7.2554  -90.9839 N   0  0  0  0  0  0  0  0  0  0  0  0
   99.4701   11.7372  -91.0824 N   0  0  0  0  0  0  0  0  0  0  0  0
  105.4592    2.5366  -92.1885 P   0  0  0  0  0  0  0  0  0  0  0  0
  103.5572    4.0258  -91.5270 C   0  0  2  0  0  0  0  0  0  0  0  0
  104.3707    3.2974  -91.6602 O   0  0  0  0  0  0  0  0  0  0  0  0
   98.5897    4.4569  -91.4924 O   0  0  0  0  0  0  0  0  0  0  0  0
   99.5499   10.2779  -91.0765 C   0  0  0  0  0  0  0  0  0  0  0  0
  106.2791    1.8845  -91.1638 O   0  0  0  0  0  0  0  0  0  0  0  0
   98.0034    9.9807  -90.6969 N   0  0  0  0  0  0  0  0  0  0  0  0
   98.2884    8.8855  -90.5471 C   0  0  0  0  0  0  0  0  0  0  0  0
  106.2833    3.3609  -92.9158 O   0  0  0  0  0  0  0  0  0  0  0  0
  100.0107    3.2155  -92.5154 O   0  0  0  0  0  0  0  0  0  0  0  0
  101.4393    4.6728  -91.3119 C   0  0  2  0  0  0  0  0  0  0  0  0
  100.1054    5.6930  -90.9076 C   0  0  2  0  0  0  0  0  0  0  0  0
  5  2  1  0
  5  4  2  0
  9  2  1  0
  9  4  1  0
 11  7  1  0
 12  3  1  0
 13 11  1  0
 13 12  1  0
 14  1  1  0
 15  2  1  0
 15 10  2  3
 12 16  1  1
 17 15  1  0
 18  6  3  0
 18 17  1  0
 19 11  1  0
 20  1  1  0
 21  1  1  0
 21  3  1  0
 21  8  1  6
 22  1  1  0
 22  9  1  6
 22 21  1  0
M  END
>  <ID>  (1) 
conformer_0

$$$$
