
     RDKit          3D

 23 26  0  0  0  0  0  0  0  0999 V2000
  101.6008    4.0187  -92.7749 C   0  0  0  0  0  0  0  0  0  0  0  0
  100.3105    9.3432  -91.0111 C   0  0  0  0  0  0  0  0  0  0  0  0
  103.2704    3.9477  -91.8976 C   0  0  0  0  0  0  0  0  0  0  0  0
   99.3181   10.2628  -90.9590 C   0  0  0  0  0  0  0  0  0  0  0  0
  105.5250    2.0464  -93.4648 O   0  0  0  0  0  0  0  0  0  0  0  0
  101.5528    9.3182  -91.2321 N   0  0  0  0  0  0  0  0  0  0  0  0
   98.3745    7.8234  -90.5923 N   0  0  0  0  0  0  0  0  0  0  0  0
  105.6380    2.7497  -92.1522 P   0  0  0  0  0  0  0  0  0  0  0  0
   99.6762   11.4914  -91.0160 N   0  0  0  0  0  0  0  0  0  0  0  0
  100.6900    7.1925  -91.1683 N   0  0  0  0  0  0  0  0  0  0  0  0
  102.0559    5.3095  -91.1366 O   0  0  0  0  0  0  0  0  0  0  0  0
   99.4082    4.0684  -90.2550 O   0  0  0  0  0  0  0  0  0  0  0  0
  105.8479    1.9310  -90.9117 O   0  0  0  0  0  0  0  0  0  0  0  0
   99.8765    4.4955  -91.9800 C   0  0  0  0  0  0  0  0  0  0  0  0
   99.7713    3.2037  -92.6149 O   0  0  0  0  0  0  0  0  0  0  0  0
  101.7947    7.8990  -91.3599 C   0  0  0  0  0  0  0  0  0  0  0  0
   98.0665    9.9963  -90.6726 N   0  0  0  0  0  0  0  0  0  0  0  0
  104.5080    3.5902  -91.7565 O   0  0  0  0  0  0  0  0  0  0  0  0
  106.6245    3.3099  -92.5994 O   0  0  0  0  0  0  0  0  0  0  0  0
   97.8449    8.6959  -90.5069 C   0  0  0  0  0  0  0  0  0  0  0  0
  101.7764    4.3267  -91.2139 C   0  0  0  0  0  0  0  0  0  0  0  0
  100.3385    5.6685  -91.1797 C   0  0  0  0  0  0  0  0  0  0  0  0
   99.8211    7.8747  -91.0303 C   0  0  0  0  0  0  0  0  0  0  0  0
  3  1  1  0
  4  2  2  0
  6  2  1  0
  8  5  1  0
  9  4  1  0
 13  3  1  0
 14  1  1  0
 14 12  1  0
 15 14  1  0
 16  6  2  0
 16 10  1  0
 17  4  1  0
 18  3  1  0
 18  8  1  0
 19  8  1  0
 20  7  1  0
 20 17  2  0
 21  1  1  0
 21  3  1  0
 21 11  1  0
 22 10  1  0
 22 11  1  0
 22 14  1  0
 23  2  1  0
 23  7  2  0
 23 10  1  0
M  END
>  <ID>  (1) 
conformer_0

$$$$
