
     RDKit          3D

 23 25  0  0  0  0  0  0  0  0999 V2000
  103.5098    4.1764  -91.6476 C   0  0  0  0  0  0  0  0  0  0  0  0
   99.8473    7.9928  -90.8993 C   0  0  0  0  0  0  0  0  0  0  0  0
  101.5697    4.0661  -91.6801 C   0  0  0  0  0  0  0  0  0  0  0  0
  101.7519    7.8350  -91.4767 C   0  0  0  0  0  0  0  0  0  0  0  0
  101.3544    9.2980  -91.3972 N   0  0  0  0  0  0  0  0  0  0  0  0
   97.9811   10.0510  -90.6238 N   0  0  0  0  0  0  0  0  0  0  0  0
  105.5989    2.2206  -93.3813 O   0  0  0  0  0  0  0  0  0  0  0  0
  105.5876    2.8747  -91.9953 P   0  0  0  0  0  0  0  0  0  0  0  0
  100.7703    7.1895  -91.2234 N   0  0  0  0  0  0  0  0  0  0  0  0
   99.6365   11.6611  -91.1052 N   0  0  0  0  0  0  0  0  0  0  0  0
  101.9877    5.2581  -91.3048 O   0  0  0  0  0  0  0  0  0  0  0  0
  100.0132    4.4793  -91.9453 C   0  0  0  0  0  0  0  0  0  0  0  0
  105.9077    1.8648  -90.8739 O   0  0  0  0  0  0  0  0  0  0  0  0
   99.0130    3.9671  -91.5011 O   0  0  0  0  0  0  0  0  0  0  0  0
  100.2012    9.3447  -91.0752 C   0  0  0  0  0  0  0  0  0  0  0  0
   98.4826    7.8705  -90.2185 N   0  0  0  0  0  0  0  0  0  0  0  0
  104.3259    3.3391  -91.7808 O   0  0  0  0  0  0  0  0  0  0  0  0
  100.4440    2.7799  -93.0075 O   0  0  0  0  0  0  0  0  0  0  0  0
  106.4182    3.7422  -92.2510 O   0  0  0  0  0  0  0  0  0  0  0  0
  102.1526    3.6594  -92.7387 C   0  0  0  0  0  0  0  0  0  0  0  0
   97.8134    8.8046  -90.1971 C   0  0  0  0  0  0  0  0  0  0  0  0
   99.1660   10.3569  -91.0072 C   0  0  0  0  0  0  0  0  0  0  0  0
  100.5215    5.6811  -91.1569 C   0  0  0  0  0  0  0  0  0  0  0  0
  5  4  2  0
  8  7  1  0
  9  2  1  0
  9  4  1  0
 11  3  1  0
 12  3  1  0
 13  1  1  0
 14 12  1  0
 15  2  2  0
 15  5  1  0
 16  2  1  0
 17  1  1  0
 17  8  1  0
 19  8  1  0
 20  1  1  0
 20  3  1  0
 20 18  1  0
 21  6  1  0
 21 16  2  0
 22  6  2  0
 22 10  1  0
 22 15  1  0
 23  9  1  0
 23 11  1  0
 23 12  1  0
M  END
>  <ID>  (1) 
conformer_0

$$$$
