
     RDKit          3D

 21 21  0  0  0  0  0  0  0  0999 V2000
   98.0873    9.0254  -90.5002 C   0  0  0  0  0  0  0  0  0  0  0  0
  100.3306    4.5803  -91.9923 C   0  0  0  0  0  0  0  0  0  0  0  0
  101.8943    4.1443  -92.3245 C   0  0  0  0  0  0  0  0  0  0  0  0
  101.3991    8.1285  -91.3435 C   0  0  0  0  0  0  0  0  0  0  0  0
  101.2457    9.4757  -91.3996 N   0  0  0  0  0  0  0  0  0  0  0  0
   97.7011   10.1735  -90.5898 N   0  0  0  0  0  0  0  0  0  0  0  0
  101.8817    5.1631  -90.7238 O   0  0  0  0  0  0  0  0  0  0  0  0
  105.7196    1.9964  -93.5832 O   0  0  0  0  0  0  0  0  0  0  0  0
  100.7747    7.2599  -91.0062 N   0  0  0  0  0  0  0  0  0  0  0  0
  105.8523    2.5484  -92.0824 P   0  0  0  0  0  4  0  0  0  0  0  0
  103.1053    4.0719  -91.8904 C   0  0  0  0  0  0  0  0  0  0  0  0
  106.1384    1.5103  -91.2100 O   0  0  0  0  0  1  0  0  0  0  0  0
   99.1409   11.7349  -91.1370 N   0  0  0  0  0  0  0  0  0  0  0  0
  100.1464    3.1879  -92.9474 O   0  0  0  0  0  0  0  0  0  0  0  0
  104.4837    3.1620  -91.8653 O   0  0  0  0  0  0  0  0  0  0  0  0
   98.6607    4.7755  -91.0832 O   0  0  0  0  0  0  0  0  0  0  0  0
   99.9618    8.5703  -90.9276 C   0  0  0  0  0  3  0  0  0  0  0  0
  106.7868    3.5788  -92.2270 O   0  0  0  0  0  0  0  0  0  0  0  0
  100.4569    5.5213  -91.0667 C   0  0  1  0  0  0  0  0  0  0  0  0
   99.4438   10.2147  -91.0512 C   0  0  0  0  0  0  0  0  0  0  0  0
   98.5709    8.2924  -90.4435 N   0  0  0  0  0  0  0  0  0  0  0  0
  3  2  1  0
  5  4  2  0
  6  1  1  0
  9  4  1  0
 10  8  1  0
 11  3  1  0
 12 10  1  0
 14  2  1  0
 15 10  1  0
 15 11  1  0
 16  2  1  0
 17  4  1  0
 17  5  1  0
 18 10  1  0
 19  2  1  0
 19  7  1  1
 19  9  1  0
 20  6  2  3
 20 13  1  0
 21  1  1  0
 21 17  1  0
M  RAD  3  10   2  12   2  17   2
M  END
>  <ID>  (1) 
conformer_0

$$$$
