
     RDKit          3D

 22 23  0  0  0  0  0  0  0  0999 V2000
   98.4331    8.6824  -90.4740 C   0  0  0  0  0  0  0  0  0  0  0  0
  102.1291    3.8049  -92.7412 C   0  0  0  0  0  0  0  0  0  0  0  0
  100.9599    5.7390  -91.0775 C   0  0  0  0  0  0  0  0  0  0  0  0
  101.6417    8.1703  -91.2212 C   0  0  0  0  0  0  0  0  0  0  0  0
  101.4388    9.6125  -91.1640 N   0  0  0  0  0  0  0  0  0  0  0  0
   98.5861    7.7304  -90.3421 N   0  0  0  0  0  0  0  0  0  0  0  0
  106.6635    3.5942  -92.3522 O   0  0  0  0  0  0  0  0  0  0  0  0
  101.9006    5.2210  -91.1148 O   0  0  0  0  0  0  0  0  0  0  0  0
  100.8532    7.3172  -90.9673 N   0  0  0  0  0  0  0  0  0  0  0  0
  105.6899    2.6726  -92.1196 P   0  0  0  0  0  0  0  0  0  0  0  0
   99.2513   11.6980  -90.9381 N   0  0  0  0  0  0  0  0  0  0  0  0
  105.7788    1.6920  -91.1223 O   0  0  0  0  0  0  0  0  0  0  0  0
  103.2037    3.7483  -92.0162 C   0  0  1  0  0  0  0  0  0  0  0  0
   98.6972    4.4952  -91.4968 O   0  0  0  0  0  0  0  0  0  0  0  0
  100.8534    3.1981  -93.9148 O   0  0  0  0  0  0  0  0  0  0  0  0
  100.3883    8.7744  -90.8732 C   0  0  0  0  0  0  0  0  0  0  0  0
   99.5656   10.2221  -90.9162 C   0  0  0  0  0  0  0  0  0  0  0  0
  105.7943    2.0531  -93.5343 O   0  0  0  0  0  0  0  0  0  0  0  0
  104.3385    3.2460  -92.0235 O   0  0  0  0  0  0  0  0  0  0  0  0
   98.0836    9.8108  -90.6075 N   0  0  0  0  0  0  0  0  0  0  0  0
  100.6638    4.1476  -92.4441 C   0  0  2  0  0  0  0  0  0  0  0  0
   99.7906    4.9725  -91.4925 C   0  0  2  0  0  0  0  0  0  0  0  0
  5  4  2  0
  6  1  3  0
  8  3  2  0
  9  3  1  0
  9  4  1  0
 10  7  1  0
 12 10  1  0
 13  2  1  0
 13 12  1  0
 16  4  1  0
 16  5  1  0
 16  9  1  0
 17 11  2  3
 17 16  1  0
 18 10  1  0
 13 19  1  6
 20  1  1  0
 20 17  1  0
 21  2  1  0
 21 15  1  6
 22  3  1  0
 22 14  1  1
 22 21  1  0
M  END
>  <ID>  (1) 
conformer_0

$$$$
