
     RDKit          3D

 23 25  0  0  0  0  0  0  0  0999 V2000
  103.1185    4.5607  -91.4719 C   0  0  0  0  0  0  0  0  0  0  0  0
   99.6907    8.0217  -90.5570 C   0  0  0  0  0  0  0  0  0  0  0  0
  102.4825    4.0557  -92.6337 C   0  0  0  0  0  0  0  0  0  0  0  0
  101.6417    7.9170  -91.1693 C   0  0  0  0  0  0  0  0  0  0  0  0
  101.9750    5.2652  -90.7272 O   0  0  0  0  0  0  0  0  0  0  0  0
  101.0588    9.3796  -91.1854 N   0  0  0  0  0  0  0  0  0  0  0  0
   97.8022    9.9536  -90.5254 N   0  0  0  0  0  0  0  0  0  0  0  0
  100.7363    7.2782  -90.8265 N   0  0  0  0  0  0  0  0  0  0  0  0
  105.7256    2.0638  -93.3664 O   0  0  0  0  0  0  0  0  0  0  0  0
   99.2339   11.5398  -91.3034 N   0  0  0  0  0  0  0  0  0  0  0  0
  101.0348    4.1854  -92.2243 C   0  0  0  0  0  0  0  0  0  0  0  0
  105.5781    3.1912  -92.2917 P   0  0  0  0  0  0  0  0  0  0  0  0
  104.3586    3.9135  -92.2399 O   0  0  0  0  0  0  0  0  0  0  0  0
   98.7838    4.4052  -91.7817 O   0  0  0  0  0  0  0  0  0  0  0  0
   97.4669    8.7106  -90.0512 C   0  0  0  0  0  0  0  0  0  0  0  0
  106.7478    3.8780  -92.4435 O   0  0  0  0  0  0  0  0  0  0  0  0
   98.3854    7.8421  -90.2448 N   0  0  0  0  0  0  0  0  0  0  0  0
  105.3714    2.5832  -91.0500 O   0  0  0  0  0  0  0  0  0  0  0  0
  100.2720    3.1118  -92.8745 O   0  0  0  0  0  0  0  0  0  0  0  0
  100.6852    5.7401  -90.5559 C   0  0  0  0  0  0  0  0  0  0  0  0
   99.9886    9.4529  -91.0423 C   0  0  0  0  0  0  0  0  0  0  0  0
   98.7883   10.2589  -90.9375 C   0  0  0  0  0  0  0  0  0  0  0  0
  100.0563    4.8192  -91.4717 C   0  0  0  0  0  0  0  0  0  0  0  0
  3  1  1  0
  5  1  1  0
  6  4  2  0
  8  2  1  0
  8  4  1  0
 11  3  1  0
 12  9  1  0
 13  1  1  0
 15  7  1  0
 16 12  1  0
 17  2  1  0
 17 15  2  0
 18  1  1  0
 18 12  1  0
 19 11  1  0
 20  5  1  0
 20  8  1  0
 21  2  2  0
 21  6  1  0
 22  7  2  0
 22 10  1  0
 22 21  1  0
 23 11  2  0
 23 14  1  0
 23 20  1  0
M  END
>  <ID>  (1) 
conformer_0

$$$$
