
     RDKit          3D

 23 25  0  0  0  0  0  0  0  0999 V2000
  100.8141    5.5226  -91.1614 C   0  0  0  0  0  0  0  0  0  0  0  0
  100.2370    9.2027  -90.9253 C   0  0  0  0  0  0  0  0  0  0  0  0
  103.0537    4.4061  -92.6125 C   0  0  0  0  0  0  0  0  0  0  0  0
  100.0253    7.8273  -90.8467 C   0  0  0  0  0  0  0  0  0  0  0  0
   97.9506    9.9532  -90.5364 N   0  0  0  0  0  0  0  0  0  0  0  0
  101.5491    9.1437  -91.3776 N   0  0  0  0  0  0  0  0  0  0  0  0
  105.4928    2.3260  -93.5714 O   0  0  0  0  0  0  0  0  0  0  0  0
  105.4219    2.9946  -92.1644 P   0  0  0  0  0  0  0  0  0  0  0  0
   99.6401   11.3788  -91.1407 N   0  0  0  0  0  0  0  0  0  0  0  0
  105.5547    2.0164  -91.0824 O   0  0  0  0  0  0  0  0  0  0  0  0
  102.2929    3.7882  -91.8638 C   0  0  0  0  0  0  0  0  0  0  0  0
  100.9946    7.0548  -91.0771 N   0  0  0  0  0  0  0  0  0  0  0  0
   98.5854    7.7042  -90.2571 N   0  0  0  0  0  0  0  0  0  0  0  0
   99.2041   10.0562  -90.9423 C   0  0  0  0  0  0  0  0  0  0  0  0
   98.9194    4.0943  -91.5346 O   0  0  0  0  0  0  0  0  0  0  0  0
  101.8594    5.1879  -91.4823 O   0  0  0  0  0  0  0  0  0  0  0  0
  106.4584    3.9184  -92.3575 O   0  0  0  0  0  0  0  0  0  0  0  0
  100.4487    2.8269  -92.9245 O   0  0  0  0  0  0  0  0  0  0  0  0
  104.2571    3.4675  -91.9622 O   0  0  0  0  0  0  0  0  0  0  0  0
   97.7445    8.4741  -90.1512 C   0  0  0  0  0  0  0  0  0  0  0  0
  101.0090    4.3675  -92.7915 C   0  0  0  0  0  0  0  0  0  0  0  0
   99.9450    4.4170  -91.6706 C   0  0  0  0  0  0  0  0  0  0  0  0
  102.0117    7.7153  -91.4040 C   0  0  0  0  0  0  0  0  0  0  0  0
  4  2  2  0
  6  2  1  0
  8  7  1  0
 10  3  1  0
 11  3  1  0
 12  1  1  0
 12  4  1  0
 13  4  1  0
 14  2  1  0
 14  5  2  0
 14  9  1  0
 16  1  1  0
 16 11  1  0
 17  8  1  0
 19  3  1  0
 19  8  1  0
 20  5  1  0
 20 13  2  0
 21 11  1  0
 21 18  1  0
 22  1  1  0
 22 15  1  0
 22 21  1  0
 23  6  2  0
 23 12  1  0
M  END
>  <ID>  (1) 
conformer_0

$$$$
