
     RDKit          3D

 23 25  0  0  0  0  0  0  0  0999 V2000
  100.5627    4.0203  -92.3139 C   0  0  0  0  0  0  0  0  0  0  0  0
  100.1204    7.8618  -90.8552 C   0  0  0  0  0  0  0  0  0  0  0  0
  102.2733    3.8357  -92.6400 C   0  0  0  0  0  0  0  0  0  0  0  0
   99.2541   10.4690  -90.9857 C   0  0  0  0  0  0  0  0  0  0  0  0
  101.3996    9.3794  -91.2154 N   0  0  0  0  0  0  0  0  0  0  0  0
  105.7085    2.2165  -93.6244 O   0  0  0  0  0  0  0  0  0  0  0  0
  105.5974    2.7519  -92.1657 P   0  0  0  0  0  0  0  0  0  0  0  0
   97.9200    9.8501  -90.7014 N   0  0  0  0  0  0  0  0  0  0  0  0
   99.1403   11.6352  -91.0852 N   0  0  0  0  0  0  0  0  0  0  0  0
  100.9925    7.0986  -91.0921 N   0  0  0  0  0  0  0  0  0  0  0  0
  102.1158    5.2202  -91.2445 O   0  0  0  0  0  0  0  0  0  0  0  0
  105.5938    1.6712  -91.1739 O   0  0  0  0  0  0  0  0  0  0  0  0
  103.1762    4.0895  -91.7542 C   0  0  0  0  0  0  0  0  0  0  0  0
   99.0344    4.2865  -90.2773 O   0  0  0  0  0  0  0  0  0  0  0  0
  101.8424    7.8858  -91.3746 C   0  0  0  0  0  0  0  0  0  0  0  0
  106.7036    3.6596  -92.4203 O   0  0  0  0  0  0  0  0  0  0  0  0
  104.4261    3.2782  -91.8359 O   0  0  0  0  0  0  0  0  0  0  0  0
   99.2484    3.5753  -92.3969 O   0  0  0  0  0  0  0  0  0  0  0  0
   98.5388    7.7499  -90.4051 N   0  0  0  0  0  0  0  0  0  0  0  0
   99.6901    4.9664  -91.5319 C   0  0  0  0  0  0  0  0  0  0  0  0
   98.3791    8.8199  -90.5224 C   0  0  0  0  0  0  0  0  0  0  0  0
  101.2149    5.4789  -91.1407 C   0  0  0  0  0  0  0  0  0  0  0  0
  100.3321    9.3839  -91.0226 C   0  0  0  0  0  0  0  0  0  0  0  0
  3  1  1  0
  7  6  1  0
  8  4  2  0
  9  4  1  0
 10  2  1  0
 13  3  1  0
 13 11  1  0
 13 12  1  0
 15  5  2  0
 15 10  1  0
 16  7  1  0
 17  7  1  0
 17 13  1  0
 18  1  1  0
 19  2  1  0
 20  1  1  0
 20 14  1  0
 21  8  1  0
 21 19  1  0
 22 10  1  0
 22 11  1  0
 22 20  1  0
 23  2  2  0
 23  4  1  0
 23  5  1  0
M  END
>  <ID>  (1) 
conformer_0

$$$$
