
     RDKit          3D

 23 25  0  0  0  0  0  0  0  0999 V2000
  100.1769    4.4680  -92.3215 C   0  0  0  0  0  0  0  0  0  0  0  0
  100.3033    9.3582  -91.0266 C   0  0  0  0  0  0  0  0  0  0  0  0
  102.0393    3.5384  -92.7164 C   0  0  0  0  0  0  0  0  0  0  0  0
  101.8052    7.8871  -91.4306 C   0  0  0  0  0  0  0  0  0  0  0  0
  101.3088    9.3275  -91.3839 N   0  0  0  0  0  0  0  0  0  0  0  0
   97.9536    9.6797  -90.4985 N   0  0  0  0  0  0  0  0  0  0  0  0
  105.7572    3.0751  -91.9370 P   0  0  0  0  0  0  0  0  0  0  0  0
  106.5437    4.0089  -91.9202 O   0  0  0  0  0  0  0  0  0  0  0  0
  102.2626    5.1825  -91.0065 O   0  0  0  0  0  0  0  0  0  0  0  0
   99.2867   11.4641  -91.0912 N   0  0  0  0  0  0  0  0  0  0  0  0
  100.8761    7.1813  -91.0862 N   0  0  0  0  0  0  0  0  0  0  0  0
  105.6748    1.8319  -91.0415 O   0  0  0  0  0  0  0  0  0  0  0  0
  103.5204    3.9115  -91.7151 C   0  0  0  0  0  0  0  0  0  0  0  0
   99.3986    4.0584  -90.6850 O   0  0  0  0  0  0  0  0  0  0  0  0
   97.8826    8.4792  -90.0343 C   0  0  0  0  0  0  0  0  0  0  0  0
  105.9140    2.4993  -93.3131 O   0  0  0  0  0  0  0  0  0  0  0  0
   98.6144    7.6348  -90.2264 N   0  0  0  0  0  0  0  0  0  0  0  0
  100.0066    3.2701  -92.9567 O   0  0  0  0  0  0  0  0  0  0  0  0
  104.4029    3.4236  -91.6743 O   0  0  0  0  0  0  0  0  0  0  0  0
   99.0557   10.1531  -90.9819 C   0  0  0  0  0  0  0  0  0  0  0  0
  101.7118    4.5945  -91.7560 C   0  0  0  0  0  0  0  0  0  0  0  0
  100.5899    5.5682  -90.9650 C   0  0  0  0  0  0  0  0  0  0  0  0
   99.9463    7.8317  -90.8027 C   0  0  0  0  0  0  0  0  0  0  0  0
  5  2  1  0
  5  4  2  0
  8  7  1  0
 11  4  1  0
 13  3  1  0
 13 12  1  0
 14  1  1  0
 15  6  2  0
 16  7  1  0
 17 15  1  0
 18  1  1  0
 19  7  1  0
 19 13  1  0
 20  2  2  0
 20  6  1  0
 20 10  1  0
 21  1  1  0
 21  3  1  0
 21  9  1  0
 22  1  1  0
 22 11  1  0
 22 21  1  0
 23  2  1  0
 23 11  1  0
 23 17  2  0
M  END
>  <ID>  (1) 
conformer_0

$$$$
