
     RDKit          3D

 22 24  0  0  0  0  0  0  0  0999 V2000
   98.0668    8.5004  -90.1644 C   0  0  0  0  0  0  0  0  0  0  0  0
  100.4188    4.3186  -92.1878 C   0  0  0  0  0  0  0  0  0  0  0  0
  101.9300    3.8752  -92.4324 C   0  0  0  0  0  0  0  0  0  0  0  0
  101.7333    7.9645  -91.4998 C   0  0  0  0  0  0  0  0  0  0  0  0
  101.5159    9.3390  -91.3591 N   0  0  0  0  0  0  0  0  0  0  0  0
   97.9029    9.8271  -90.2799 N   0  0  0  0  0  0  0  0  0  0  0  0
  105.4660    2.6025  -92.2163 P   0  0  0  0  0  0  0  0  0  0  0  0
  101.9003    5.3175  -91.5083 O   0  0  0  0  0  0  0  0  0  0  0  0
  103.0163    3.9348  -91.7183 C   0  0  0  0  0  0  0  0  0  0  0  0
  105.5185    2.0684  -93.5825 O   0  0  0  0  0  0  0  0  0  0  0  0
   99.4280   11.4644  -91.0082 N   0  0  0  0  0  0  0  0  0  0  0  0
  100.6163    7.1458  -91.1687 N   0  0  0  0  0  0  0  0  0  0  0  0
  100.3532    2.6450  -92.9337 O   0  0  0  0  0  0  0  0  0  0  0  0
  105.5024    1.8198  -91.1065 O   0  0  0  0  0  0  0  0  0  0  0  0
  100.2660    9.5353  -90.8782 C   0  0  0  0  0  0  0  0  0  0  0  0
   99.1907   10.1964  -90.8682 C   0  0  0  0  0  0  0  0  0  0  0  0
   99.1642    3.9030  -91.1966 O   0  0  0  0  0  0  0  0  0  0  0  0
  106.5274    3.5417  -92.5092 O   0  0  0  0  0  0  0  0  0  0  0  0
  100.4394    5.3495  -91.3990 C   0  0  0  0  0  0  0  0  0  0  0  0
  104.2463    3.1626  -91.9801 O   0  0  0  0  0  0  0  0  0  0  0  0
   98.4412    7.7455  -90.2146 N   0  0  0  0  0  0  0  0  0  0  0  0
   99.9837    7.9321  -90.8549 C   0  0  0  0  0  0  0  0  0  0  0  0
  3  2  1  0
  5  4  2  0
  6  1  1  0
  8  3  1  0
  9  3  1  0
 10  7  1  0
 12  4  1  0
 13  2  1  0
 14  7  1  0
 14  9  1  0
 15  5  1  0
 16  6  1  0
 16 11  1  0
 16 15  1  0
 17  2  1  0
 18  7  1  0
 19  2  1  0
 19  8  1  0
 19 12  1  0
 20  9  1  0
 21  1  1  0
 22 12  1  0
 22 15  2  0
 22 21  1  0
M  END
>  <ID>  (1) 
conformer_0

$$$$
