
     RDKit          3D

 22 25  0  0  0  0  0  0  0  0999 V2000
  102.1246    7.9940  -91.4284 C   0  0  0  0  0  0  0  0  0  0  0  0
  102.6883    3.7376  -92.3176 C   0  0  0  0  0  0  0  0  0  0  0  0
   99.7671    4.8130  -91.9224 C   0  0  0  0  0  0  0  0  0  0  0  0
   98.5403    8.5906  -90.3711 C   0  0  0  0  0  0  0  0  0  0  0  0
  101.7562    9.4147  -91.3497 N   0  0  0  0  0  0  0  0  0  0  0  0
   98.7897    7.5612  -90.2074 N   0  0  0  0  0  0  0  0  0  0  0  0
  105.5826    2.7167  -92.3253 P   0  0  0  0  0  0  0  0  0  0  0  0
  102.2233    5.1968  -91.2584 O   0  0  0  0  0  0  0  0  0  0  0  0
  105.5590    1.8493  -93.5180 O   0  0  0  0  0  0  0  0  0  0  0  0
  103.5578    4.2392  -91.4040 C   0  0  0  0  0  0  0  0  0  0  0  0
   99.4169   11.4671  -90.8864 N   0  0  0  0  0  0  0  0  0  0  0  0
  104.7319    3.0755  -91.8329 O   0  0  0  0  0  0  0  0  0  0  0  0
  101.0559    7.0969  -91.1379 N   0  0  0  0  0  0  0  0  0  0  0  0
   99.3609   10.1899  -90.8461 C   0  0  0  0  0  0  0  0  0  0  0  0
   98.9676    4.0386  -91.0329 O   0  0  0  0  0  0  0  0  0  0  0  0
  106.6525    3.4718  -92.3563 O   0  0  0  0  0  0  0  0  0  0  0  0
  100.3875    2.7249  -92.7559 O   0  0  0  0  0  0  0  0  0  0  0  0
  101.0603    3.8867  -92.2760 C   0  0  0  0  0  0  0  0  0  0  0  0
  101.0849    5.4317  -91.1614 C   0  0  0  0  0  0  0  0  0  0  0  0
  100.5694    9.5094  -91.0272 C   0  0  0  0  0  0  0  0  0  0  0  0
   97.9718    9.3045  -90.4792 N   0  0  0  0  0  0  0  0  0  0  0  0
  100.3040    7.8918  -90.9409 C   0  0  0  0  0  0  0  0  0  0  0  0
  5  1  2  0
  6  4  1  0
  9  7  1  0
 10  2  1  0
 10  8  1  0
 12  7  1  0
 12 10  1  0
 13  1  1  0
 14 11  1  0
 15  3  1  0
 16  7  1  0
 18  2  1  0
 18  3  1  0
 18 17  1  0
 19  3  1  0
 19  8  1  0
 19 13  1  0
 19 18  1  0
 20  5  1  0
 20 14  1  0
 21  4  1  0
 21 14  2  0
 22  6  1  0
 22 13  1  0
 22 20  2  0
M  END
>  <ID>  (1) 
conformer_0

$$$$
