
     RDKit          3D

 22 24  0  0  0  0  0  0  0  0999 V2000
  100.7188    5.1280  -91.2276 C   0  0  0  0  0  0  0  0  0  0  0  0
  100.0510    7.8868  -91.0068 C   0  0  0  0  0  0  0  0  0  0  0  0
  100.3764    4.5412  -92.2898 C   0  0  0  0  0  0  0  0  0  0  0  0
  101.4981    9.3328  -91.3027 N   0  0  0  0  0  0  0  0  0  0  0  0
  102.0087    7.8904  -91.3196 C   0  0  0  0  0  0  0  0  0  0  0  0
  105.6983    2.2377  -93.6209 O   0  0  0  0  0  0  0  0  0  0  0  0
   97.8187    9.9103  -90.4952 N   0  0  0  0  0  0  0  0  0  0  0  0
  105.8141    2.9381  -92.0530 P   0  0  0  0  0  0  0  0  0  0  0  0
  100.9088    7.1654  -91.1773 N   0  0  0  0  0  0  0  0  0  0  0  0
  103.1321    4.3960  -91.0313 C   0  0  0  0  0  0  0  0  0  0  0  0
  104.5607    3.5877  -91.8375 O   0  0  0  0  0  0  0  0  0  0  0  0
   99.5556   11.4665  -90.9957 N   0  0  0  0  0  0  0  0  0  0  0  0
   98.7111    4.2740  -91.7699 O   0  0  0  0  0  0  0  0  0  0  0  0
  100.2296    9.3935  -91.0363 C   0  0  0  0  0  0  0  0  0  0  0  0
  106.8739    3.7098  -92.0559 O   0  0  0  0  0  0  0  0  0  0  0  0
  105.6112    1.6510  -91.2119 O   0  0  0  0  0  0  0  0  0  0  0  0
  100.1985    2.9656  -93.0384 O   0  0  0  0  0  0  0  0  0  0  0  0
  102.0346    5.3258  -91.4949 O   0  0  0  0  0  0  0  0  0  0  0  0
   98.4802    7.6720  -90.4381 N   0  0  0  0  0  0  0  0  0  0  0  0
  102.0778    4.0475  -92.3626 C   0  0  0  0  0  0  0  0  0  0  0  0
   97.8982    8.4828  -90.3604 C   0  0  0  0  0  0  0  0  0  0  0  0
   99.0362   10.1731  -90.9367 C   0  0  0  0  0  0  0  0  0  0  0  0
  3  1  1  0
  5  4  2  0
  8  6  1  0
  9  1  1  0
  9  2  1  0
  9  5  1  0
 11  8  1  0
 11 10  1  0
 13  3  1  0
 14  2  2  0
 14  4  1  0
 15  8  1  0
 16 10  1  0
 17  3  1  0
 18  1  1  0
 18 10  1  0
 19  2  1  0
 20  3  1  0
 20 10  1  0
 21  7  1  0
 21 19  2  0
 22  7  2  0
 22 12  1  0
 22 14  1  0
M  END
>  <ID>  (1) 
conformer_0

$$$$
