
     RDKit          3D

 11 12  0  0  0  0  0  0  0  0999 V2000
   -6.7721   34.7811   -1.5715 C   0  0  0  0  0  0  0  0  0  0  0  0
   -7.7075   35.2660   -0.7777 C   0  0  0  0  0  0  0  0  0  0  0  0
   -8.8183   34.6853   -0.4389 C   0  0  0  0  0  0  0  0  0  0  0  0
   -9.1167   33.4830   -0.7547 C   0  0  0  0  0  0  0  0  0  0  0  0
   -9.9569   35.4444    0.3327 C   0  0  0  0  0  0  0  0  0  0  0  0
  -10.9976   34.6772    0.8272 C   0  0  0  0  0  0  0  0  0  0  0  0
  -10.1432   32.6747   -0.2378 C   0  0  0  0  0  0  0  0  0  0  0  0
   -8.4044   32.7068   -1.4070 C   0  0  0  0  0  0  0  0  0  0  0  0
  -11.2106   33.4069    0.6540 C   0  0  0  0  0  0  0  0  0  0  0  0
  -12.2548   32.7408    1.0819 O   0  0  0  0  0  0  0  0  0  0  0  0
   -7.2171   33.1714   -1.9273 C   0  0  0  0  0  0  0  0  0  0  0  0
  1  2  1  0
  2  3  2  0
  3  4  1  0
  3  5  1  0
  5  6  2  0
  4  7  1  0
  4  8  2  0
  6  9  1  0
  7  9  2  0
  9 10  1  0
  1 11  2  0
  8 11  1  0
M  END
>  <ID>  (1) 
conformer_0

$$$$
