
     RDKit          3D

 27 30  0  0  0  0  0  0  0  0999 V2000
  -11.2014   31.9010   -2.5285 O   0  0  0  0  0  0  0  0  0  0  0  0
  -10.0315   31.6327   -1.9780 C   0  0  0  0  0  0  0  0  0  0  0  0
   -9.0842   30.9730   -2.8007 C   0  0  0  0  0  0  0  0  0  0  0  0
   -9.5488   30.0527   -3.8707 C   0  0  0  0  0  0  0  0  0  0  0  0
   -7.7309   30.9017   -2.5720 C   0  0  0  0  0  0  0  0  0  0  0  0
   -6.8405   30.1996   -3.2688 C   0  0  0  0  0  0  0  0  0  0  0  0
   -9.7469   32.0248   -0.8233 O   0  0  0  0  0  0  0  0  0  0  0  0
  -10.9685   29.9572   -4.2131 O   0  0  0  0  0  0  0  0  0  0  0  0
  -10.6031   32.8147   -0.0126 C   0  0  0  0  0  0  0  0  0  0  0  0
   -5.4595   30.2464   -2.9561 N   0  0  0  0  0  0  0  0  0  0  0  0
  -10.5048   34.0347    0.2039 C   0  0  0  0  0  0  0  0  0  0  0  0
   -4.6100   29.5168   -3.7994 C   0  0  0  0  0  0  0  0  0  0  0  0
   -5.1236   28.8166   -4.9396 C   0  0  0  0  0  0  0  0  0  0  0  0
  -11.6011   32.1813    0.6963 C   0  0  0  0  0  0  0  0  0  0  0  0
   -4.9553   31.2333   -2.2324 C   0  0  0  0  0  0  0  0  0  0  0  0
   -3.2840   29.5088   -3.5723 C   0  0  0  0  0  0  0  0  0  0  0  0
   -6.2506   28.0754   -4.8892 O   0  0  0  0  0  0  0  0  0  0  0  0
   -8.5994   29.2523   -4.5834 C   0  0  0  0  0  0  0  0  0  0  0  0
  -11.7923   30.8514    0.5759 O   0  0  0  0  0  0  0  0  0  0  0  0
  -11.2765   34.8503    0.9400 C   0  0  0  0  0  0  0  0  0  0  0  0
   -3.6010   30.9930   -2.0846 C   0  0  0  0  0  0  0  0  0  0  0  0
  -12.3011   32.8754    1.7319 C   0  0  0  0  0  0  0  0  0  0  0  0
   -3.0636   31.9015   -0.9418 F   0  0  0  0  0  0  0  0  0  0  0  0
   -4.6639   28.4756   -6.1030 O   0  0  0  0  0  0  0  0  0  0  0  0
   -7.2635   29.1964   -4.2432 C   0  0  0  0  0  0  0  0  0  0  0  0
  -12.2243   34.2537    1.8312 C   0  0  0  0  0  0  0  0  0  0  0  0
   -2.7556   30.2766   -2.6923 C   0  0  0  0  0  0  0  0  0  0  0  0
  1  2  2  0
  2  3  1  0
  3  4  1  0
  3  5  2  0
  5  6  1  0
  2  7  1  0
  4  8  1  0
  7  9  1  0
  6 10  1  0
  9 11  1  0
 10 12  1  0
 12 13  1  0
  9 14  2  0
 10 15  1  0
 12 16  2  0
 13 17  1  0
  4 18  2  0
 14 19  1  0
 11 20  2  0
 15 21  2  0
 14 22  1  0
 21 23  1  0
 13 24  2  0
  6 25  2  0
 17 25  1  0
 18 25  1  0
 20 26  1  0
 22 26  2  0
 16 27  1  0
 21 27  1  0
M  END
>  <ID>  (1) 
conformer_0

$$$$
