
     RDKit          3D

  6  6  0  0  0  0  0  0  0  0999 V2000
   -2.2427   29.6761   -1.8475 N   0  0  0  0  0  0  0  0  0  0  0  0
   -3.0137   30.4410   -1.2100 C   0  0  0  0  0  0  0  0  0  0  0  0
   -4.0429   31.0562   -1.8963 C   0  0  0  0  0  0  0  0  0  0  0  0
   -4.4461   30.6218   -3.1319 C   0  0  0  0  0  0  0  0  0  0  0  0
   -2.7792   29.3050   -3.1547 C   0  0  0  0  0  0  0  0  0  0  0  0
   -3.7459   29.7342   -3.7957 C   0  0  0  0  0  0  0  0  0  0  0  0
  1  2  1  0
  2  3  1  0
  3  4  2  0
  1  5  2  0
  4  6  1  0
  5  6  1  0
M  END
>  <ID>  (1) 
conformer_0

$$$$
