
     RDKit          3D

 25 29  0  0  0  0  0  0  0  0999 V2000
   -6.9842   34.5810   -1.8638 C   0  0  0  0  0  0  0  0  0  0  0  0
   -7.4207   35.3763   -0.9490 C   0  0  0  0  0  0  0  0  0  0  0  0
   -5.6502   34.4416   -2.0488 C   0  0  0  0  0  0  0  0  0  0  0  0
   -8.5375   35.4286   -0.3607 C   0  0  0  0  0  0  0  0  0  0  0  0
   -7.8489   33.5102   -2.0198 C   0  0  0  0  0  0  0  0  0  0  0  0
   -9.0208   36.4125    0.4624 C   0  0  0  0  0  0  0  0  0  0  0  0
   -5.0868   33.1569   -2.1521 C   0  0  0  0  0  0  0  0  0  0  0  0
   -7.4800   32.4357   -2.9637 C   0  0  0  0  0  0  0  0  0  0  0  0
   -3.8429   32.9859   -2.2954 N   0  0  0  0  0  0  0  0  0  0  0  0
   -8.1618   31.4382   -3.4306 C   0  0  0  0  0  0  0  0  0  0  0  0
   -7.7502   30.3402   -4.0948 C   0  0  0  0  0  0  0  0  0  0  0  0
   -3.3641   31.7431   -1.7169 C   0  0  0  0  0  0  0  0  0  0  0  0
   -9.6688   31.3435   -2.8362 C   0  0  0  0  0  0  0  0  0  0  0  0
   -3.4033   31.5444   -0.4367 N   0  0  0  0  0  0  0  0  0  0  0  0
  -10.0813   31.7269   -1.7362 N   0  0  0  0  0  0  0  0  0  0  0  0
   -9.7024   32.2974   -0.6838 C   0  0  0  0  0  0  0  0  0  0  0  0
   -8.8064   33.1534   -0.9158 C   0  0  0  0  0  0  0  0  0  0  0  0
   -9.2907   34.1708   -0.1289 C   0  0  0  0  0  0  0  0  0  0  0  0
   -6.1193   32.6293   -3.1144 C   0  0  0  0  0  0  0  0  0  0  0  0
  -10.2316   33.7123    0.6220 C   0  0  0  0  0  0  0  0  0  0  0  0
  -10.5755   32.5020    0.2160 N   0  0  0  0  0  0  0  0  0  0  0  0
  -10.2122   30.3905   -3.7239 N   0  0  0  0  0  0  0  0  0  0  0  0
  -10.8238   34.2609    1.6795 O   0  0  0  0  0  0  0  0  0  0  0  0
   -8.9527   29.6078   -4.5454 N   0  0  0  0  0  0  0  0  0  0  0  0
   -2.8019   30.6833   -2.4425 N   0  0  0  0  0  0  0  0  0  0  0  0
  1  2  1  0
  1  3  1  0
  2  4  2  0
  1  5  2  0
  4  6  1  0
  3  7  1  0
  5  8  1  0
  7  9  1  0
  8 10  2  0
 10 11  1  0
  9 12  1  0
 10 13  1  0
 12 14  2  0
 13 15  1  0
 15 16  1  0
  5 17  1  0
 16 17  1  0
  4 18  1  0
 17 18  2  0
  7 19  1  0
  8 19  1  0
 18 20  1  0
 16 21  2  0
 20 21  1  0
 13 22  2  0
 20 23  2  0
 11 24  2  0
 22 24  1  0
 12 25  1  0
M  END
>  <ID>  (1) 
conformer_0

$$$$
