
     RDKit          3D

 26 29  0  0  0  0  0  0  0  0999 V2000
  -11.2014   31.9010   -2.5285 O   0  0  0  0  0  0  0  0  0  0  0  0
  -10.0315   31.6327   -1.9780 C   0  0  0  0  0  0  0  0  0  0  0  0
   -9.0842   30.9730   -2.8007 C   0  0  0  0  0  0  0  0  0  0  0  0
   -9.5488   30.0527   -3.8707 C   0  0  0  0  0  0  0  0  0  0  0  0
   -7.7309   30.9017   -2.5720 C   0  0  0  0  0  0  0  0  0  0  0  0
   -6.8405   30.1996   -3.2688 C   0  0  0  0  0  0  0  0  0  0  0  0
   -9.7469   32.0248   -0.8233 O   0  0  0  0  0  0  0  0  0  0  0  0
  -10.9685   29.9572   -4.2131 O   0  0  0  0  0  0  0  0  0  0  0  0
  -10.6031   32.8147   -0.0126 C   0  0  0  0  0  0  0  0  0  0  0  0
   -5.4595   30.2464   -2.9561 N   0  0  0  0  0  0  0  0  0  0  0  0
  -10.5048   34.0347    0.2039 C   0  0  0  0  0  0  0  0  0  0  0  0
   -4.6100   29.5168   -3.7994 C   0  0  0  0  0  0  0  0  0  0  0  0
   -5.1236   28.8166   -4.9396 C   0  0  0  0  0  0  0  0  0  0  0  0
  -11.6011   32.1813    0.6963 C   0  0  0  0  0  0  0  0  0  0  0  0
  -12.5110   32.9396    1.4451 C   0  0  0  0  0  0  0  0  0  0  0  0
   -9.3474   34.7387   -0.6140 C   0  0  0  0  0  0  0  0  0  0  0  0
   -4.9490   31.2319   -2.2320 C   0  0  0  0  0  0  0  0  0  0  0  0
   -3.5373   30.9892   -2.0627 C   0  0  0  0  0  0  0  0  0  0  0  0
   -7.5196   29.2848   -4.2720 C   0  0  0  0  0  0  0  0  0  0  0  0
   -3.2222   29.5234   -3.5804 C   0  0  0  0  0  0  0  0  0  0  0  0
   -8.7074   29.1936   -4.5461 C   0  0  0  0  0  0  0  0  0  0  0  0
   -6.4111   28.4932   -4.9612 C   0  0  0  0  0  0  0  0  0  0  0  0
  -11.2970   34.8474    0.8896 C   0  0  0  0  0  0  0  0  0  0  0  0
   -2.8234   30.2758   -2.4944 N   0  0  0  0  0  0  0  0  0  0  0  0
  -12.3106   34.2878    1.6423 C   0  0  0  0  0  0  0  0  0  0  0  0
   -6.8201   27.5714   -5.8682 O   0  0  0  0  0  0  0  0  0  0  0  0
  1  2  2  0
  2  3  1  0
  3  4  1  0
  3  5  2  0
  5  6  1  0
  2  7  1  0
  4  8  1  0
  7  9  1  0
  6 10  1  0
  9 11  1  0
 10 12  1  0
 12 13  1  0
  9 14  2  0
 14 15  1  0
 11 16  1  0
 10 17  1  0
 17 18  1  0
  6 19  2  0
 12 20  2  0
  4 21  2  0
 19 21  1  0
 13 22  1  0
 19 22  1  0
 11 23  2  0
 18 24  2  0
 20 24  1  0
 15 25  2  0
 23 25  1  0
 22 26  2  0
M  END
>  <ID>  (1) 
conformer_0

$$$$
