
     RDKit          3D

  9 10  0  0  0  0  0  0  0  0999 V2000
   -2.2427   29.6761   -1.8475 N   0  0  0  0  0  0  0  0  0  0  0  0
   -3.0137   30.4410   -1.2100 C   0  0  0  0  0  0  0  0  0  0  0  0
   -2.6024   29.2481   -3.1674 C   0  0  0  0  0  0  0  0  0  0  0  0
   -4.1276   30.9885   -1.9009 C   0  0  0  0  0  0  0  0  0  0  0  0
   -4.3160   30.4539   -3.2361 C   0  0  0  0  0  0  0  0  0  0  0  0
   -1.6645   28.2769   -3.7575 O   0  0  0  0  0  0  0  0  0  0  0  0
   -2.1336   28.1022   -5.1002 C   0  0  0  0  0  0  0  0  0  0  0  0
   -3.5671   29.6917   -3.8410 C   0  0  0  0  0  0  0  0  0  0  0  0
   -3.6606   29.1000   -5.2057 C   0  0  0  0  0  0  0  0  0  0  0  0
  1  2  1  0
  1  3  2  0
  2  4  2  0
  4  5  1  0
  3  6  1  0
  6  7  1  0
  3  8  1  0
  5  8  2  0
  7  9  2  0
  8  9  1  0
M  END
>  <ID>  (1) 
conformer_0

$$$$
