
     RDKit          3D

  9 10  0  0  0  0  0  0  0  0999 V2000
   -2.6216   29.8347   -1.3198 N   0  0  0  0  0  0  0  0  0  0  0  0
   -2.6853   29.5343   -2.5678 C   0  0  0  0  0  0  0  0  0  0  0  0
   -1.9315   28.5989   -3.1419 N   0  0  0  0  0  0  0  0  0  0  0  0
   -3.5105   30.7903   -0.9078 C   0  0  0  0  0  0  0  0  0  0  0  0
   -3.7523   30.0045   -3.3685 C   0  0  0  0  0  0  0  0  0  0  0  0
   -4.5088   30.7734   -2.9638 C   0  0  0  0  0  0  0  0  0  0  0  0
   -4.5141   31.2699   -1.6502 C   0  0  0  0  0  0  0  0  0  0  0  0
   -3.7536   29.4596   -4.7416 C   0  0  0  0  0  0  0  0  0  0  0  0
   -2.6949   28.4383   -4.8297 C   0  0  0  0  0  0  0  0  0  0  0  0
  1  2  1  0
  2  3  2  0
  1  4  2  0
  2  5  1  0
  5  6  1  0
  4  7  1  0
  6  7  2  0
  5  8  2  0
  3  9  1  0
  8  9  1  0
M  END
>  <ID>  (1) 
conformer_0

$$$$
