
     RDKit          3D

 27 30  0  0  0  0  0  0  0  0999 V2000
  -11.2014   31.9010   -2.5285 O   0  0  0  0  0  0  0  0  0  0  0  0
  -10.0315   31.6327   -1.9780 C   0  0  0  0  0  0  0  0  0  0  0  0
   -9.0842   30.9730   -2.8007 C   0  0  0  0  0  0  0  0  0  0  0  0
   -9.5488   30.0527   -3.8707 C   0  0  0  0  0  0  0  0  0  0  0  0
   -7.7309   30.9017   -2.5720 C   0  0  0  0  0  0  0  0  0  0  0  0
   -6.8405   30.1996   -3.2688 C   0  0  0  0  0  0  0  0  0  0  0  0
   -9.7469   32.0248   -0.8233 O   0  0  0  0  0  0  0  0  0  0  0  0
  -10.9685   29.9572   -4.2131 O   0  0  0  0  0  0  0  0  0  0  0  0
  -10.6031   32.8147   -0.0126 C   0  0  0  0  0  0  0  0  0  0  0  0
   -5.4595   30.2464   -2.9561 N   0  0  0  0  0  0  0  0  0  0  0  0
  -10.5048   34.0347    0.2039 C   0  0  0  0  0  0  0  0  0  0  0  0
   -4.6100   29.5168   -3.7994 C   0  0  0  0  0  0  0  0  0  0  0  0
   -5.1236   28.8166   -4.9396 C   0  0  0  0  0  0  0  0  0  0  0  0
  -11.6011   32.1813    0.6963 C   0  0  0  0  0  0  0  0  0  0  0  0
   -8.7825   29.2041   -4.6393 C   0  0  0  0  0  0  0  0  0  0  0  0
   -9.2839   34.7467   -0.5907 C   0  0  0  0  0  0  0  0  0  0  0  0
   -7.3467   29.2856   -4.2933 C   0  0  0  0  0  0  0  0  0  0  0  0
   -6.3759   28.5222   -5.0486 C   0  0  0  0  0  0  0  0  0  0  0  0
   -3.2858   29.7546   -3.5475 N   0  0  0  0  0  0  0  0  0  0  0  0
   -2.9619   30.5492   -2.4481 C   0  0  0  0  0  0  0  0  0  0  0  0
   -5.0712   31.0840   -2.0147 C   0  0  0  0  0  0  0  0  0  0  0  0
   -1.5624   30.5361   -2.2372 N   0  0  0  0  0  0  0  0  0  0  0  0
   -3.8000   31.1683   -1.7082 C   0  0  0  0  0  0  0  0  0  0  0  0
   -5.9898   31.7421   -1.3042 O   0  0  0  0  0  0  0  0  0  0  0  0
   -6.6759   27.4509   -5.7274 O   0  0  0  0  0  0  0  0  0  0  0  0
  -12.3021   33.2491    1.4265 C   0  0  0  0  0  0  0  0  0  0  0  0
  -11.4861   34.4574    0.9919 N   0  0  0  0  0  0  0  0  0  0  0  0
  1  2  2  0
  2  3  1  0
  3  4  1  0
  3  5  2  0
  5  6  1  0
  2  7  1  0
  4  8  1  0
  7  9  1  0
  6 10  1  0
  9 11  1  0
 10 12  1  0
 12 13  1  0
  9 14  2  0
  4 15  2  0
 11 16  1  0
  6 17  2  0
 15 17  1  0
 13 18  1  0
 17 18  1  0
 12 19  2  0
 19 20  1  0
 10 21  1  0
 20 22  1  0
 20 23  1  0
 21 23  1  0
 21 24  2  0
 18 25  2  0
 14 26  1  0
 11 27  2  0
 26 27  1  0
M  END
>  <ID>  (1) 
conformer_0

$$$$
