
     RDKit          3D

 10 10  0  0  0  0  0  0  0  0999 V2000
   -2.6012   29.8758   -1.6554 N   0  0  0  0  0  0  0  0  0  0  0  0
   -2.8878   29.5108   -2.9353 C   0  0  0  0  0  0  0  0  0  0  0  0
   -3.9819   30.0434   -3.6049 N   0  0  0  0  0  0  0  0  0  0  0  0
   -4.4513   29.5401   -4.8256 C   0  0  0  0  0  0  0  0  0  0  0  0
   -3.8185   28.4399   -5.4174 C   0  0  0  0  0  0  0  0  0  0  0  0
   -2.6971   27.9813   -4.7158 C   0  0  0  0  0  0  0  0  0  0  0  0
   -3.1288   30.6143   -0.8693 C   0  0  0  0  0  0  0  0  0  0  0  0
   -2.2168   28.5813   -3.5427 C   0  0  0  0  0  0  0  0  0  0  0  0
   -3.9161   31.7395   -1.2849 N   0  0  0  0  0  0  0  0  0  0  0  0
   -3.3480   30.2694    0.4408 O   0  0  0  0  0  0  0  0  0  0  0  0
  1  2  1  0
  2  3  2  0
  3  4  1  0
  4  5  2  0
  5  6  1  0
  1  7  1  0
  2  8  1  0
  6  8  2  0
  7  9  1  0
  7 10  2  0
M  END
>  <ID>  (1) 
conformer_0

$$$$
