
     RDKit          3D

 25 28  0  0  0  0  0  0  0  0999 V2000
   -2.5216   29.5424   -2.2338 C   0  0  0  0  0  0  0  0  0  0  0  0
   -3.4391   29.6814   -3.2824 C   0  0  0  0  0  0  0  0  0  0  0  0
   -3.4754   28.7618   -4.4319 C   0  0  0  0  0  0  0  0  0  0  0  0
   -4.4290   30.6307   -3.1430 C   0  0  0  0  0  0  0  0  0  0  0  0
   -5.5629   30.6490   -3.9892 C   0  0  0  0  0  0  0  0  0  0  0  0
   -2.4875   30.2416   -1.1707 N   0  0  0  0  0  0  0  0  0  0  0  0
   -4.3708   31.3097   -1.8430 C   0  0  0  0  0  0  0  0  0  0  0  0
   -5.4538   32.2764   -1.5719 C   0  0  0  0  0  0  0  0  0  0  0  0
   -5.5081   29.8007   -5.0874 C   0  0  0  0  0  0  0  0  0  0  0  0
   -6.7050   31.8531   -1.4516 C   0  0  0  0  0  0  0  0  0  0  0  0
   -7.1240   30.5896   -1.6811 C   0  0  0  0  0  0  0  0  0  0  0  0
   -7.7472   32.7214   -1.0538 C   0  0  0  0  0  0  0  0  0  0  0  0
   -2.4251   27.9400   -4.6651 O   0  0  0  0  0  0  0  0  0  0  0  0
   -9.0082   32.2817   -0.8738 C   0  0  0  0  0  0  0  0  0  0  0  0
   -7.6360   33.8821   -1.7516 C   0  0  0  0  0  0  0  0  0  0  0  0
   -9.3485   31.2224   -1.6584 C   0  0  0  0  0  0  0  0  0  0  0  0
  -10.0580   32.7997   -0.0351 C   0  0  0  0  0  0  0  0  0  0  0  0
   -7.0993   35.0496   -1.1412 C   0  0  0  0  0  0  0  0  0  0  0  0
   -8.4112   30.3204   -2.0544 C   0  0  0  0  0  0  0  0  0  0  0  0
   -9.9241   33.5433    0.8478 N   0  0  0  0  0  0  0  0  0  0  0  0
   -3.4045   31.1650   -0.9794 C   0  0  0  0  0  0  0  0  0  0  0  0
  -11.2992   32.5078   -0.2628 N   0  0  0  0  0  0  0  0  0  0  0  0
  -11.0451   33.9111    1.4407 N   0  0  0  0  0  0  0  0  0  0  0  0
  -11.9733   33.2323    0.6464 N   0  0  0  0  0  0  0  0  0  0  0  0
   -4.3573   28.8081   -5.1219 C   0  0  0  0  0  0  0  0  0  0  0  0
  1  2  1  0
  2  3  1  0
  2  4  2  0
  4  5  1  0
  1  6  2  0
  4  7  1  0
  7  8  1  0
  5  9  2  0
  8 10  2  3
 10 11  1  0
 10 12  1  0
  3 13  1  0
 12 14  1  0
 12 15  1  0
 14 16  2  0
 14 17  1  0
 15 18  1  0
 11 19  2  0
 16 19  1  0
 17 20  1  0
  6 21  1  0
  7 21  2  0
 17 22  2  0
 20 23  1  0
 22 24  1  0
 23 24  2  0
  3 25  2  0
  9 25  1  0
M  END
>  <ID>  (1) 
conformer_0

$$$$
