
     RDKit          3D

  7  7  0  0  0  0  0  0  0  0999 V2000
   -2.6012   29.8758   -1.6554 C   0  0  0  0  0  0  0  0  0  0  0  0
   -2.6634   29.4802   -2.8427 C   0  0  0  0  0  0  0  0  0  0  0  0
   -1.8302   28.3981   -3.4172 O   0  0  0  0  0  0  0  0  0  0  0  0
   -3.7890   29.9006   -3.6808 C   0  0  0  0  0  0  0  0  0  0  0  0
   -4.6302   30.7689   -3.0389 C   0  0  0  0  0  0  0  0  0  0  0  0
   -4.5184   31.1555   -1.8692 C   0  0  0  0  0  0  0  0  0  0  0  0
   -3.3972   30.7786   -1.0402 C   0  0  0  0  0  0  0  0  0  0  0  0
  1  2  1  0
  2  3  1  0
  2  4  2  0
  4  5  1  0
  5  6  2  0
  1  7  2  0
  6  7  1  0
M  END
>  <ID>  (1) 
conformer_0

$$$$
