
     RDKit          3D

 19 22  0  0  0  0  0  0  0  0999 V2000
   -2.6012   29.8758   -1.6554 N   0  0  0  0  0  0  0  0  0  0  0  0
   -2.8878   29.5108   -2.9353 C   0  0  0  0  0  0  0  0  0  0  0  0
   -3.5152   30.7625   -1.2214 C   0  0  0  0  0  0  0  0  0  0  0  0
   -4.5097   31.0778   -2.2113 C   0  0  0  0  0  0  0  0  0  0  0  0
   -5.6639   31.7379   -2.0591 C   0  0  0  0  0  0  0  0  0  0  0  0
   -2.2703   28.5675   -3.7496 C   0  0  0  0  0  0  0  0  0  0  0  0
   -5.5948   32.9380   -1.4384 C   0  0  0  0  0  0  0  0  0  0  0  0
   -4.1127   30.2206   -3.2862 C   0  0  0  0  0  0  0  0  0  0  0  0
   -6.7397   33.7418   -1.3541 C   0  0  0  0  0  0  0  0  0  0  0  0
   -2.7493   28.3757   -5.0197 C   0  0  0  0  0  0  0  0  0  0  0  0
   -4.5405   29.9121   -4.6108 C   0  0  0  0  0  0  0  0  0  0  0  0
   -5.7489   30.4382   -5.0471 O   0  0  0  0  0  0  0  0  0  0  0  0
   -7.9180   33.1426   -1.6592 C   0  0  0  0  0  0  0  0  0  0  0  0
   -6.8529   30.0858   -4.2506 C   0  0  0  0  0  0  0  0  0  0  0  0
   -6.7700   30.9914   -2.4302 C   0  0  0  0  0  0  0  0  0  0  0  0
   -3.9242   28.9513   -5.4101 C   0  0  0  0  0  0  0  0  0  0  0  0
   -6.6930   35.0496   -1.0093 C   0  0  0  0  0  0  0  0  0  0  0  0
   -7.9844   31.8680   -2.3833 C   0  0  0  0  0  0  0  0  0  0  0  0
   -6.8129   29.9209   -3.0839 O   0  0  0  0  0  0  0  0  0  0  0  0
  1  2  1  0
  1  3  2  0
  3  4  1  0
  4  5  1  0
  2  6  2  0
  5  7  1  0
  2  8  1  0
  4  8  2  0
  7  9  2  0
  6 10  1  0
  8 11  1  0
 11 12  1  0
  9 13  1  0
 12 14  1  0
  5 15  2  0
 10 16  2  0
 11 16  2  0
  9 17  1  0
 13 18  2  0
 15 18  1  0
 14 19  1  0
 15 19  1  0
M  END
>  <ID>  (1) 
conformer_0

$$$$
