
     RDKit          3D

 28 31  0  0  0  0  0  0  0  0999 V2000
  -11.2014   31.9010   -2.5285 O   0  0  0  0  0  0  0  0  0  0  0  0
  -10.0315   31.6327   -1.9780 C   0  0  0  0  0  0  0  0  0  0  0  0
   -9.0842   30.9730   -2.8007 C   0  0  0  0  0  0  0  0  0  0  0  0
   -9.5488   30.0527   -3.8707 C   0  0  0  0  0  0  0  0  0  0  0  0
   -7.7309   30.9017   -2.5720 C   0  0  0  0  0  0  0  0  0  0  0  0
   -6.8405   30.1996   -3.2688 C   0  0  0  0  0  0  0  0  0  0  0  0
   -9.7469   32.0248   -0.8233 O   0  0  0  0  0  0  0  0  0  0  0  0
  -10.9685   29.9572   -4.2131 O   0  0  0  0  0  0  0  0  0  0  0  0
  -10.6031   32.8147   -0.0126 C   0  0  0  0  0  0  0  0  0  0  0  0
   -5.4595   30.2464   -2.9561 N   0  0  0  0  0  0  0  0  0  0  0  0
  -10.5048   34.0347    0.2039 C   0  0  0  0  0  0  0  0  0  0  0  0
   -4.6100   29.5168   -3.7994 C   0  0  0  0  0  0  0  0  0  0  0  0
   -5.1236   28.8166   -4.9396 C   0  0  0  0  0  0  0  0  0  0  0  0
  -11.6011   32.1813    0.6963 C   0  0  0  0  0  0  0  0  0  0  0  0
  -12.5110   32.9396    1.4451 C   0  0  0  0  0  0  0  0  0  0  0  0
   -9.3474   34.7387   -0.6140 C   0  0  0  0  0  0  0  0  0  0  0  0
   -8.5939   29.2740   -4.6198 C   0  0  0  0  0  0  0  0  0  0  0  0
  -12.1806   34.1325    1.5457 C   0  0  0  0  0  0  0  0  0  0  0  0
   -6.5408   28.6253   -5.0889 N   0  0  0  0  0  0  0  0  0  0  0  0
   -7.3045   29.3601   -4.2993 C   0  0  0  0  0  0  0  0  0  0  0  0
   -8.9753   35.9460   -0.0674 C   0  0  0  0  0  0  0  0  0  0  0  0
   -6.9473   27.7064   -6.1317 C   0  0  0  0  0  0  0  0  0  0  0  0
   -3.2828   29.7391   -3.5021 C   0  0  0  0  0  0  0  0  0  0  0  0
   -3.0026   30.4259   -2.2513 C   0  0  0  0  0  0  0  0  0  0  0  0
   -5.1137   31.0225   -1.9449 C   0  0  0  0  0  0  0  0  0  0  0  0
   -4.2297   27.9294   -5.5096 O   0  0  0  0  0  0  0  0  0  0  0  0
   -3.7941   30.9267   -1.5081 C   0  0  0  0  0  0  0  0  0  0  0  0
  -11.2433   34.8084    0.9551 C   0  0  0  0  0  0  0  0  0  0  0  0
  1  2  2  0
  2  3  1  0
  3  4  1  0
  3  5  2  0
  5  6  1  0
  2  7  1  0
  4  8  1  0
  7  9  1  0
  6 10  1  0
  9 11  1  0
 10 12  1  0
 12 13  1  0
  9 14  2  0
 14 15  1  0
 11 16  1  0
  4 17  2  0
 15 18  2  0
 13 19  1  0
  6 20  2  0
 17 20  1  0
 19 20  1  0
 16 21  1  0
 19 22  1  0
 12 23  2  0
 23 24  1  0
 10 25  1  0
 13 26  2  0
 24 27  2  0
 25 27  1  0
 11 28  2  0
 18 28  1  0
M  END
>  <ID>  (1) 
conformer_0

$$$$
