
     RDKit          3D

  5  4  0  0  0  0  0  0  0  0999 V2000
   -9.9534   31.6747    2.5451 C   0  0  0  0  0  0  0  0  0  0  0  0
  -10.8739   32.6591    2.0422 C   0  0  0  0  0  0  0  0  0  0  0  0
  -11.1594   32.5669    0.7193 N   0  0  0  0  0  0  0  0  0  0  0  0
  -10.8551   33.9242    2.4474 O   0  0  0  0  0  0  0  0  0  0  0  0
  -12.3739   32.8538    0.3631 O   0  0  0  0  0  0  0  0  0  0  0  0
  1  2  1  0
  2  3  1  0
  2  4  2  0
  3  5  1  0
M  END
>  <ID>  (1) 
conformer_0

$$$$
