
     RDKit          3D

  9  9  0  0  0  0  0  0  0  0999 V2000
   -2.6012   29.8758   -1.6554 N   0  0  0  0  0  0  0  0  0  0  0  0
   -3.6422   30.1955   -2.3827 C   0  0  0  0  0  0  0  0  0  0  0  0
   -3.8694   29.5686   -3.6511 N   0  0  0  0  0  0  0  0  0  0  0  0
   -3.0705   28.6770   -4.2398 C   0  0  0  0  0  0  0  0  0  0  0  0
   -4.5289   31.0524   -1.8751 N   0  0  0  0  0  0  0  0  0  0  0  0
   -5.1574   29.9730   -4.0523 C   0  0  0  0  0  0  0  0  0  0  0  0
   -3.2663   28.2084   -5.3426 O   0  0  0  0  0  0  0  0  0  0  0  0
   -1.8355   28.3259   -3.6249 O   0  0  0  0  0  0  0  0  0  0  0  0
   -5.5746   30.9647   -3.0883 C   0  0  0  0  0  0  0  0  0  0  0  0
  1  2  1  0
  2  3  1  0
  3  4  1  0
  2  5  2  0
  3  6  1  0
  4  7  2  0
  4  8  1  0
  5  9  1  0
  6  9  2  0
M  END
>  <ID>  (1) 
conformer_0

$$$$
