
     RDKit          3D

 10 11  0  0  0  0  0  0  0  0999 V2000
   -2.6012   29.8758   -1.6554 N   0  0  0  0  0  0  0  0  0  0  0  0
   -3.2890   30.6438   -1.0027 C   0  0  0  0  0  0  0  0  0  0  0  0
   -3.1237   30.9250    0.3731 O   0  0  0  0  0  0  0  0  0  0  0  0
   -3.1212   29.6672   -2.9672 C   0  0  0  0  0  0  0  0  0  0  0  0
   -2.4143   28.7422   -3.8551 C   0  0  0  0  0  0  0  0  0  0  0  0
   -4.5455   31.3021   -1.5117 C   0  0  0  0  0  0  0  0  0  0  0  0
   -4.9142   31.0927   -2.7721 C   0  0  0  0  0  0  0  0  0  0  0  0
   -4.1909   30.2751   -3.4768 C   0  0  0  0  0  0  0  0  0  0  0  0
   -3.1445   28.7600   -5.0564 C   0  0  0  0  0  0  0  0  0  0  0  0
   -4.4690   29.8637   -4.8562 C   0  0  0  0  0  0  0  0  0  0  0  0
  1  2  2  0
  2  3  1  0
  1  4  1  0
  4  5  2  0
  2  6  1  0
  6  7  2  0
  4  8  1  0
  7  8  1  0
  5  9  1  0
  8 10  2  0
  9 10  2  0
M  END
>  <ID>  (1) 
conformer_0

$$$$
