
     RDKit          3D

  7  6  0  0  0  0  0  0  0  0999 V2000
  -12.4237   32.7693    0.5854 O   0  0  0  0  0  0  0  0  0  0  0  0
  -11.4961   33.2171    1.1601 C   0  0  0  0  0  0  0  0  0  0  0  0
  -10.2537   33.1458    0.7453 C   0  0  0  0  0  0  0  0  0  0  0  0
  -10.1447   32.5679   -0.5960 C   0  0  0  0  0  0  0  0  0  0  0  0
  -11.8476   34.1743    2.0950 O   0  0  0  0  0  0  0  0  0  0  0  0
  -10.6101   31.5565   -1.1959 O   0  0  0  0  0  0  0  0  0  0  0  0
   -9.2412   33.2347   -1.4349 O   0  0  0  0  0  0  0  0  0  0  0  0
  1  2  2  0
  2  3  1  0
  3  4  1  0
  2  5  1  0
  4  6  2  0
  4  7  1  0
M  END
>  <ID>  (1) 
conformer_0

$$$$
