
     RDKit          3D

 11 12  0  0  0  0  0  0  0  0999 V2000
   -2.6012   29.8758   -1.6554 N   0  0  0  0  0  0  0  0  0  0  0  0
   -3.2890   30.6438   -1.0027 C   0  0  0  0  0  0  0  0  0  0  0  0
   -3.1237   30.9250    0.3731 O   0  0  0  0  0  0  0  0  0  0  0  0
   -3.1212   29.6672   -2.9672 C   0  0  0  0  0  0  0  0  0  0  0  0
   -2.4143   28.7422   -3.8551 C   0  0  0  0  0  0  0  0  0  0  0  0
   -3.0398   28.5299   -5.1335 C   0  0  0  0  0  0  0  0  0  0  0  0
   -4.2614   30.2444   -3.2876 C   0  0  0  0  0  0  0  0  0  0  0  0
   -2.4669   27.6311   -6.0733 O   0  0  0  0  0  0  0  0  0  0  0  0
   -4.5686   31.0686   -2.2433 C   0  0  0  0  0  0  0  0  0  0  0  0
   -4.2974   29.1631   -5.3568 C   0  0  0  0  0  0  0  0  0  0  0  0
   -4.8193   30.0117   -4.4389 C   0  0  0  0  0  0  0  0  0  0  0  0
  1  2  2  0
  2  3  1  0
  1  4  1  0
  4  5  2  0
  5  6  1  0
  4  7  1  0
  6  8  1  0
  2  9  1  0
  7  9  2  0
  6 10  2  0
  7 11  1  0
 10 11  1  0
M  END
>  <ID>  (1) 
conformer_0

$$$$
