
     RDKit          3D

  4  3  0  0  0  0  0  0  0  0999 V2000
  -10.3881   34.4647    0.8738 C   0  0  0  0  0  0  0  0  0  0  0  0
  -11.3422   33.6038    0.7621 C   0  0  0  0  0  0  0  0  0  0  0  0
  -11.8736   32.9207    1.7917 O   0  0  0  0  0  0  0  0  0  0  0  0
  -11.6252   32.8829   -0.2798 O   0  0  0  0  0  0  0  0  0  0  0  0
  1  2  1  0
  2  3  1  0
  2  4  2  0
M  END
>  <ID>  (1) 
conformer_0

$$$$
