
     RDKit          3D

 27 30  0  0  0  0  0  0  0  0999 V2000
   -6.9842   34.5810   -1.8638 C   0  0  0  0  0  0  0  0  0  0  0  0
   -7.4207   35.3763   -0.9490 C   0  0  0  0  0  0  0  0  0  0  0  0
   -5.6502   34.4416   -2.0488 C   0  0  0  0  0  0  0  0  0  0  0  0
   -8.5375   35.4286   -0.3607 C   0  0  0  0  0  0  0  0  0  0  0  0
   -7.8489   33.5102   -2.0198 C   0  0  0  0  0  0  0  0  0  0  0  0
   -9.0208   36.4125    0.4624 C   0  0  0  0  0  0  0  0  0  0  0  0
   -5.0868   33.1569   -2.1521 C   0  0  0  0  0  0  0  0  0  0  0  0
   -7.4800   32.4357   -2.9637 C   0  0  0  0  0  0  0  0  0  0  0  0
   -3.8429   32.9859   -2.2954 N   0  0  0  0  0  0  0  0  0  0  0  0
   -8.1618   31.4382   -3.4306 C   0  0  0  0  0  0  0  0  0  0  0  0
   -7.7502   30.3402   -4.0948 C   0  0  0  0  0  0  0  0  0  0  0  0
   -3.3641   31.7431   -1.7169 C   0  0  0  0  0  0  0  0  0  0  0  0
   -9.6688   31.3435   -2.8362 C   0  0  0  0  0  0  0  0  0  0  0  0
   -3.4033   31.5444   -0.4367 N   0  0  0  0  0  0  0  0  0  0  0  0
  -10.0813   31.7269   -1.7362 N   0  0  0  0  0  0  0  0  0  0  0  0
   -9.7024   32.2974   -0.6838 C   0  0  0  0  0  0  0  0  0  0  0  0
   -8.6172   29.4121   -4.6427 C   0  0  0  0  0  0  0  0  0  0  0  0
  -10.2584   32.2451    0.4301 N   0  0  0  0  0  0  0  0  0  0  0  0
   -9.9333   29.4143   -4.3985 C   0  0  0  0  0  0  0  0  0  0  0  0
  -11.2048   33.0896    0.8971 C   0  0  0  0  0  0  0  0  0  0  0  0
   -5.9808   32.2233   -3.0237 C   0  0  0  0  0  0  0  0  0  0  0  0
  -10.4388   30.3225   -3.5121 C   0  0  0  0  0  0  0  0  0  0  0  0
   -9.0961   33.6216   -1.3774 C   0  0  0  0  0  0  0  0  0  0  0  0
  -11.0230   33.9797    1.4211 O   0  0  0  0  0  0  0  0  0  0  0  0
   -2.5386   30.8211   -2.3877 N   0  0  0  0  0  0  0  0  0  0  0  0
   -9.3844   34.3115   -0.5312 C   0  0  0  0  0  0  0  0  0  0  0  0
  -12.3667   32.7461    0.4023 O   0  0  0  0  0  0  0  0  0  0  0  0
  1  2  1  0
  1  3  1  0
  2  4  2  0
  1  5  2  0
  4  6  1  0
  3  7  1  0
  5  8  1  0
  7  9  1  0
  8 10  2  0
 10 11  1  0
  9 12  1  0
 10 13  1  0
 12 14  2  0
 13 15  1  0
 15 16  1  0
 11 17  2  0
 16 18  1  0
 17 19  1  0
 18 20  1  0
  7 21  1  0
  8 21  1  0
 13 22  1  0
 19 22  2  0
  5 23  1  0
 16 23  1  0
 20 24  1  0
 12 25  1  0
  4 26  1  0
 23 26  1  0
 20 27  2  0
M  END
>  <ID>  (1) 
conformer_0

$$$$
