
     RDKit          3D

  7  7  0  0  0  0  0  0  0  0999 V2000
   -2.6012   29.8758   -1.6554 C   0  0  0  0  0  0  0  0  0  0  0  0
   -3.1847   30.5968   -0.8860 N   0  0  0  0  0  0  0  0  0  0  0  0
   -4.2166   31.3445   -1.3660 C   0  0  0  0  0  0  0  0  0  0  0  0
   -2.9859   29.5422   -2.9952 C   0  0  0  0  0  0  0  0  0  0  0  0
   -4.9334   32.2464   -0.4906 N   0  0  0  0  0  0  0  0  0  0  0  0
   -4.1466   30.4121   -3.4007 C   0  0  0  0  0  0  0  0  0  0  0  0
   -4.7593   31.1410   -2.6300 C   0  0  0  0  0  0  0  0  0  0  0  0
  1  2  1  0
  2  3  2  0
  1  4  2  0
  3  5  1  0
  4  6  1  0
  3  7  1  0
  6  7  2  0
M  END
>  <ID>  (1) 
conformer_0

$$$$
