
     RDKit          3D

 11 12  0  0  0  0  0  0  0  0999 V2000
   -2.5216   29.5424   -2.2338 C   0  0  0  0  0  0  0  0  0  0  0  0
   -3.4391   29.6814   -3.2824 C   0  0  0  0  0  0  0  0  0  0  0  0
   -3.4754   28.7618   -4.4319 C   0  0  0  0  0  0  0  0  0  0  0  0
   -4.4290   30.6307   -3.1430 C   0  0  0  0  0  0  0  0  0  0  0  0
   -2.7539   30.3387   -1.2073 N   0  0  0  0  0  0  0  0  0  0  0  0
   -4.6378   28.7102   -5.2115 C   0  0  0  0  0  0  0  0  0  0  0  0
   -5.5584   29.7468   -5.0245 C   0  0  0  0  0  0  0  0  0  0  0  0
   -3.8734   31.1562   -1.6688 N   0  0  0  0  0  0  0  0  0  0  0  0
   -5.5241   30.7266   -3.8544 C   0  0  0  0  0  0  0  0  0  0  0  0
   -4.6350   32.0321   -0.8581 C   0  0  0  0  0  0  0  0  0  0  0  0
   -4.6877   27.8782   -6.5119 C   0  0  0  0  0  0  0  0  0  0  0  0
  1  2  1  0
  2  3  1  0
  2  4  2  0
  1  5  2  0
  3  6  2  0
  6  7  1  0
  4  8  1  0
  5  8  1  0
  4  9  1  0
  7  9  2  0
  8 10  1  0
  6 11  1  0
M  END
>  <ID>  (1) 
conformer_0

$$$$
