
     RDKit          3D

 27 30  0  0  0  0  0  0  0  0999 V2000
  -11.2014   31.9010   -2.5285 O   0  0  0  0  0  0  0  0  0  0  0  0
  -10.0315   31.6327   -1.9780 C   0  0  0  0  0  0  0  0  0  0  0  0
   -9.0842   30.9730   -2.8007 C   0  0  0  0  0  0  0  0  0  0  0  0
   -9.5488   30.0527   -3.8707 C   0  0  0  0  0  0  0  0  0  0  0  0
   -7.7309   30.9017   -2.5720 C   0  0  0  0  0  0  0  0  0  0  0  0
   -6.8405   30.1996   -3.2688 C   0  0  0  0  0  0  0  0  0  0  0  0
  -10.9821   29.9110   -4.0969 O   0  0  0  0  0  0  0  0  0  0  0  0
   -5.4925   30.2196   -2.9430 N   0  0  0  0  0  0  0  0  0  0  0  0
   -4.5835   29.5554   -3.7735 C   0  0  0  0  0  0  0  0  0  0  0  0
   -9.7071   32.0512   -0.8618 O   0  0  0  0  0  0  0  0  0  0  0  0
   -7.5524   29.3448   -4.1528 C   0  0  0  0  0  0  0  0  0  0  0  0
   -3.2515   29.6713   -3.4712 C   0  0  0  0  0  0  0  0  0  0  0  0
  -10.5334   32.8951   -0.0297 C   0  0  0  0  0  0  0  0  0  0  0  0
   -6.4696   28.4374   -4.9117 C   0  0  0  0  0  0  0  0  0  0  0  0
  -10.2962   34.1533    0.1649 C   0  0  0  0  0  0  0  0  0  0  0  0
   -2.8055   30.3558   -2.2253 C   0  0  0  0  0  0  0  0  0  0  0  0
   -8.7647   29.2017   -4.4935 C   0  0  0  0  0  0  0  0  0  0  0  0
   -3.6004   31.2467   -1.6016 C   0  0  0  0  0  0  0  0  0  0  0  0
   -6.7373   27.6277   -5.8756 O   0  0  0  0  0  0  0  0  0  0  0  0
   -9.0723   34.8023   -0.4724 C   0  0  0  0  0  0  0  0  0  0  0  0
  -11.0782   34.7855    0.9706 C   0  0  0  0  0  0  0  0  0  0  0  0
   -3.3693   31.8819   -0.4345 O   0  0  0  0  0  0  0  0  0  0  0  0
   -5.1613   28.8381   -4.7675 N   0  0  0  0  0  0  0  0  0  0  0  0
  -12.1308   34.1226    1.5378 C   0  0  0  0  0  0  0  0  0  0  0  0
  -12.4331   32.8958    1.3160 C   0  0  0  0  0  0  0  0  0  0  0  0
   -4.9557   31.0626   -2.0567 C   0  0  0  0  0  0  0  0  0  0  0  0
  -11.5245   32.1360    0.5168 C   0  0  0  0  0  0  0  0  0  0  0  0
  1  2  2  0
  2  3  1  0
  3  4  1  0
  3  5  2  0
  5  6  1  0
  4  7  1  0
  6  8  1  0
  8  9  1  0
  2 10  1  0
  6 11  2  0
  9 12  2  0
 10 13  1  0
 11 14  1  0
 13 15  1  0
 12 16  1  0
  4 17  2  0
 11 17  1  0
 16 18  2  0
 14 19  2  0
 15 20  1  0
 15 21  2  0
 18 22  1  0
  9 23  1  0
 14 23  1  0
 21 24  1  0
 24 25  2  0
  8 26  1  0
 18 26  1  0
 13 27  2  0
 25 27  1  0
M  END
>  <ID>  (1) 
conformer_0

$$$$
