
     RDKit          3D

 24 26  0  0  0  0  0  0  0  0999 V2000
   -2.5216   29.5424   -2.2338 C   0  0  0  0  0  0  0  0  0  0  0  0
   -3.4391   29.6814   -3.2824 C   0  0  0  0  0  0  0  0  0  0  0  0
   -3.4754   28.7618   -4.4319 C   0  0  0  0  0  0  0  0  0  0  0  0
   -4.4290   30.6307   -3.1430 C   0  0  0  0  0  0  0  0  0  0  0  0
   -5.5629   30.6490   -3.9892 C   0  0  0  0  0  0  0  0  0  0  0  0
   -2.4875   30.2416   -1.1707 N   0  0  0  0  0  0  0  0  0  0  0  0
   -4.3708   31.3097   -1.8430 C   0  0  0  0  0  0  0  0  0  0  0  0
   -5.4538   32.2764   -1.5719 C   0  0  0  0  0  0  0  0  0  0  0  0
   -5.5081   29.8007   -5.0874 C   0  0  0  0  0  0  0  0  0  0  0  0
   -6.7050   31.8531   -1.4516 C   0  0  0  0  0  0  0  0  0  0  0  0
   -7.1240   30.5896   -1.6811 C   0  0  0  0  0  0  0  0  0  0  0  0
   -7.7472   32.7214   -1.0538 C   0  0  0  0  0  0  0  0  0  0  0  0
   -2.4251   27.9400   -4.6651 O   0  0  0  0  0  0  0  0  0  0  0  0
   -9.0082   32.2817   -0.8738 C   0  0  0  0  0  0  0  0  0  0  0  0
   -7.6360   33.8821   -1.7516 C   0  0  0  0  0  0  0  0  0  0  0  0
   -9.3485   31.2224   -1.6584 C   0  0  0  0  0  0  0  0  0  0  0  0
  -10.0580   32.7997   -0.0351 C   0  0  0  0  0  0  0  0  0  0  0  0
  -11.2112   32.6116   -0.2582 O   0  0  0  0  0  0  0  0  0  0  0  0
   -3.5156   31.1529   -1.0690 C   0  0  0  0  0  0  0  0  0  0  0  0
   -6.9604   35.0537   -1.1763 C   0  0  0  0  0  0  0  0  0  0  0  0
   -4.4416   28.8452   -5.2902 C   0  0  0  0  0  0  0  0  0  0  0  0
  -10.6690   30.8845   -2.0610 O   0  0  0  0  0  0  0  0  0  0  0  0
   -9.7292   33.1925    1.1497 O   0  0  0  0  0  0  0  0  0  0  0  0
   -8.4457   30.3072   -2.0257 C   0  0  0  0  0  0  0  0  0  0  0  0
  1  2  1  0
  2  3  1  0
  2  4  2  0
  4  5  1  0
  1  6  2  0
  4  7  1  0
  7  8  1  0
  5  9  2  0
  8 10  2  3
 10 11  1  0
 10 12  1  0
  3 13  1  0
 12 14  1  0
 12 15  1  0
 14 16  2  0
 14 17  1  0
 17 18  2  0
  6 19  1  0
  7 19  2  0
 15 20  1  0
  3 21  2  0
  9 21  1  0
 16 22  1  0
 17 23  1  0
 11 24  2  0
 16 24  1  0
M  END
>  <ID>  (1) 
conformer_0

$$$$
