
     RDKit          3D

  7  7  0  0  0  0  0  0  0  0999 V2000
   -2.6959   30.0149   -1.2197 N   0  0  0  0  0  0  0  0  0  0  0  0
   -3.5750   30.4194   -2.0464 C   0  0  0  0  0  0  0  0  0  0  0  0
   -3.5885   29.9987   -3.2594 C   0  0  0  0  0  0  0  0  0  0  0  0
   -4.7126   30.2841   -4.1175 C   0  0  0  0  0  0  0  0  0  0  0  0
   -5.8521   30.7951   -3.5151 C   0  0  0  0  0  0  0  0  0  0  0  0
   -5.8795   30.8913   -2.2748 C   0  0  0  0  0  0  0  0  0  0  0  0
   -4.7310   30.8044   -1.3384 C   0  0  0  0  0  0  0  0  0  0  0  0
  1  2  1  0
  2  3  1  0
  3  4  2  0
  4  5  1  0
  5  6  2  0
  2  7  2  0
  6  7  1  0
M  END
>  <ID>  (1) 
conformer_0

$$$$
