
     RDKit          3D

 29 33  0  0  0  0  0  0  0  0999 V2000
   -6.9842   34.5810   -1.8638 C   0  0  0  0  0  0  0  0  0  0  0  0
   -7.4207   35.3763   -0.9490 C   0  0  0  0  0  0  0  0  0  0  0  0
   -5.6502   34.4416   -2.0488 C   0  0  0  0  0  0  0  0  0  0  0  0
   -8.5375   35.4286   -0.3607 C   0  0  0  0  0  0  0  0  0  0  0  0
   -7.8489   33.5102   -2.0198 C   0  0  0  0  0  0  0  0  0  0  0  0
   -9.0208   36.4125    0.4624 C   0  0  0  0  0  0  0  0  0  0  0  0
   -5.0868   33.1569   -2.1521 C   0  0  0  0  0  0  0  0  0  0  0  0
   -7.4800   32.4357   -2.9637 C   0  0  0  0  0  0  0  0  0  0  0  0
   -3.8429   32.9859   -2.2954 N   0  0  0  0  0  0  0  0  0  0  0  0
   -8.1618   31.4382   -3.4306 C   0  0  0  0  0  0  0  0  0  0  0  0
   -7.7502   30.3402   -4.0948 C   0  0  0  0  0  0  0  0  0  0  0  0
   -3.3641   31.7431   -1.7169 C   0  0  0  0  0  0  0  0  0  0  0  0
   -9.6688   31.3435   -2.8362 C   0  0  0  0  0  0  0  0  0  0  0  0
   -8.5637   29.2362   -4.3897 N   0  0  0  0  0  0  0  0  0  0  0  0
   -2.9471   30.7402   -2.5804 C   0  0  0  0  0  0  0  0  0  0  0  0
   -3.4392   31.4725   -0.4595 N   0  0  0  0  0  0  0  0  0  0  0  0
  -10.0721   31.7544   -1.7513 N   0  0  0  0  0  0  0  0  0  0  0  0
  -10.7443   32.6249   -1.1625 C   0  0  0  0  0  0  0  0  0  0  0  0
   -8.0590   28.2822   -5.3259 C   0  0  0  0  0  0  0  0  0  0  0  0
   -9.1891   34.0560   -0.6260 C   0  0  0  0  0  0  0  0  0  0  0  0
  -10.3440   30.5786   -3.7937 N   0  0  0  0  0  0  0  0  0  0  0  0
  -12.0273   32.6407   -1.2774 O   0  0  0  0  0  0  0  0  0  0  0  0
   -2.8896   30.1111   -0.3970 N   0  0  0  0  0  0  0  0  0  0  0  0
   -9.8812   29.5824   -4.5746 C   0  0  0  0  0  0  0  0  0  0  0  0
  -10.7889   28.8770   -5.0370 O   0  0  0  0  0  0  0  0  0  0  0  0
   -5.9210   32.1867   -2.9479 C   0  0  0  0  0  0  0  0  0  0  0  0
   -9.1942   33.1743   -1.3213 C   0  0  0  0  0  0  0  0  0  0  0  0
   -2.6953   29.6985   -1.6563 N   0  0  0  0  0  0  0  0  0  0  0  0
   -2.2505   28.4661   -2.0749 C   0  0  0  0  0  0  0  0  0  0  0  0
  1  2  1  0
  1  3  1  0
  2  4  2  0
  1  5  2  0
  4  6  1  0
  3  7  1  0
  5  8  1  0
  7  9  1  0
  8 10  2  0
 10 11  1  0
  9 12  1  0
 10 13  1  0
 11 14  1  0
 12 15  1  0
 12 16  2  0
 13 17  1  0
 17 18  1  0
 14 19  1  0
  4 20  1  0
 13 21  2  0
 18 22  2  0
 16 23  1  0
 14 24  1  0
 21 24  1  0
 24 25  2  0
  7 26  2  0
  8 26  1  0
  5 27  1  0
 18 27  1  0
 20 27  2  0
 15 28  1  0
 23 28  1  0
 28 29  1  0
M  END
>  <ID>  (1) 
conformer_0

$$$$
