
     RDKit          3D

 23 24  0  0  0  0  0  0  0  0999 V2000
  -11.2014   31.9010   -2.5285 O   0  0  0  0  0  0  0  0  0  0  0  0
  -10.0315   31.6327   -1.9780 C   0  0  0  0  0  0  0  0  0  0  0  0
   -9.0842   30.9730   -2.8007 C   0  0  0  0  0  0  0  0  0  0  0  0
   -9.5488   30.0527   -3.8707 C   0  0  0  0  0  0  0  0  0  0  0  0
   -7.7309   30.9017   -2.5720 C   0  0  0  0  0  0  0  0  0  0  0  0
   -6.8405   30.1996   -3.2688 C   0  0  0  0  0  0  0  0  0  0  0  0
   -9.7469   32.0248   -0.8233 O   0  0  0  0  0  0  0  0  0  0  0  0
  -10.9685   29.9572   -4.2131 O   0  0  0  0  0  0  0  0  0  0  0  0
  -10.6031   32.8147   -0.0126 C   0  0  0  0  0  0  0  0  0  0  0  0
   -5.4595   30.2464   -2.9561 N   0  0  0  0  0  0  0  0  0  0  0  0
  -10.5048   34.0347    0.2039 C   0  0  0  0  0  0  0  0  0  0  0  0
   -4.6100   29.5168   -3.7994 C   0  0  0  0  0  0  0  0  0  0  0  0
   -8.7514   29.1941   -4.6094 C   0  0  0  0  0  0  0  0  0  0  0  0
   -9.1541   28.2727   -5.6569 C   0  0  0  0  0  0  0  0  0  0  0  0
   -9.2342   34.7017   -0.4809 C   0  0  0  0  0  0  0  0  0  0  0  0
   -4.6184   30.8588   -2.1244 C   0  0  0  0  0  0  0  0  0  0  0  0
   -3.2700   30.6778   -2.2472 N   0  0  0  0  0  0  0  0  0  0  0  0
   -3.2580   29.8002   -3.3553 C   0  0  0  0  0  0  0  0  0  0  0  0
   -8.1215   27.9619   -6.5756 C   0  0  0  0  0  0  0  0  0  0  0  0
   -7.2037   29.2677   -4.2996 C   0  0  0  0  0  0  0  0  0  0  0  0
   -8.8626   35.7597   -0.1059 O   0  0  0  0  0  0  0  0  0  0  0  0
   -8.6034   34.1077   -1.4395 O   0  0  0  0  0  0  0  0  0  0  0  0
  -11.9459   32.4351   -0.0453 O   0  0  0  0  0  0  0  0  0  0  0  0
  1  2  2  0
  2  3  1  0
  3  4  1  0
  3  5  2  0
  5  6  1  0
  2  7  1  0
  4  8  1  0
  7  9  1  0
  6 10  1  0
  9 11  1  0
 10 12  1  0
  4 13  2  0
 13 14  1  0
 11 15  1  0
 10 16  1  0
 16 17  2  0
 12 18  2  0
 17 18  1  0
 14 19  1  0
  6 20  2  0
 13 20  1  0
 15 21  2  0
 15 22  1  0
  9 23  1  0
M  END
>  <ID>  (1) 
conformer_0

$$$$
