
     RDKit          3D

 11 12  0  0  0  0  0  0  0  0999 V2000
   -2.6012   29.8758   -1.6554 C   0  0  0  0  0  0  0  0  0  0  0  0
   -3.3723   29.9872   -2.8266 C   0  0  0  0  0  0  0  0  0  0  0  0
   -3.0744   30.5569   -0.6231 N   0  0  0  0  0  0  0  0  0  0  0  0
   -4.3813   30.9853   -2.5411 C   0  0  0  0  0  0  0  0  0  0  0  0
   -3.1572   29.4210   -4.0804 C   0  0  0  0  0  0  0  0  0  0  0  0
   -4.1864   29.1666   -4.9215 C   0  0  0  0  0  0  0  0  0  0  0  0
   -5.4766   31.3066   -3.3495 C   0  0  0  0  0  0  0  0  0  0  0  0
   -2.0871   28.4399   -4.0197 O   0  0  0  0  0  0  0  0  0  0  0  0
   -6.0764   30.1448   -4.0555 N   0  0  0  0  0  0  0  0  0  0  0  0
   -4.1770   31.4207   -1.0613 N   0  0  0  0  0  0  0  0  0  0  0  0
   -5.3678   29.2874   -4.5684 N   0  0  0  0  0  0  0  0  0  0  0  0
  1  2  1  0
  1  3  2  0
  2  4  2  0
  2  5  1  0
  5  6  1  0
  4  7  1  0
  5  8  1  0
  7  9  1  0
  3 10  1  0
  4 10  1  0
  6 11  1  0
  9 11  2  0
M  END
>  <ID>  (1) 
conformer_0

$$$$
