
     RDKit          3D

  8  8  0  0  0  0  0  0  0  0999 V2000
   -2.6012   29.8758   -1.6554 C   0  0  0  0  0  0  0  0  0  0  0  0
   -3.3723   29.9872   -2.8266 C   0  0  0  0  0  0  0  0  0  0  0  0
   -3.2110   29.2406   -4.0084 C   0  0  0  0  0  0  0  0  0  0  0  0
   -3.0663   28.0618   -4.0850 O   0  0  0  0  0  0  0  0  0  0  0  0
   -3.1019   30.7030   -0.6843 N   0  0  0  0  0  0  0  0  0  0  0  0
   -4.4378   30.9807   -2.5618 C   0  0  0  0  0  0  0  0  0  0  0  0
   -3.7911   29.8673   -5.1561 O   0  0  0  0  0  0  0  0  0  0  0  0
   -4.1592   31.4379   -1.0725 C   0  0  0  0  0  0  0  0  0  0  0  0
  1  2  2  0
  2  3  1  0
  3  4  2  0
  1  5  1  0
  2  6  1  0
  3  7  1  0
  5  8  2  0
  6  8  1  0
M  END
>  <ID>  (1) 
conformer_0

$$$$
