
     RDKit          3D

  7  7  0  0  0  0  0  0  0  0999 V2000
   -2.2427   29.6761   -1.8475 N   0  0  0  0  0  0  0  0  0  0  0  0
   -3.4119   30.2747   -2.1760 C   0  0  0  0  0  0  0  0  0  0  0  0
   -4.2439   30.0190   -3.2305 N   0  0  0  0  0  0  0  0  0  0  0  0
   -5.3854   30.7996   -3.1078 C   0  0  0  0  0  0  0  0  0  0  0  0
   -4.0213   31.0854   -1.1985 C   0  0  0  0  0  0  0  0  0  0  0  0
   -5.0855   31.5990   -1.2749 C   0  0  0  0  0  0  0  0  0  0  0  0
   -5.8333   31.3441   -2.2586 N   0  0  0  0  0  0  0  0  0  0  0  0
  1  2  1  0
  2  3  2  0
  3  4  1  0
  2  5  1  0
  5  6  2  0
  4  7  2  0
  6  7  1  0
M  END
>  <ID>  (1) 
conformer_0

$$$$
