
     RDKit          3D

 14 15  0  0  0  0  0  0  0  0999 V2000
   -2.6012   29.8758   -1.6554 C   0  0  0  0  0  0  0  0  0  0  0  0
   -3.3723   29.9872   -2.8266 C   0  0  0  0  0  0  0  0  0  0  0  0
   -4.4901   30.8844   -2.7518 C   0  0  0  0  0  0  0  0  0  0  0  0
   -5.3958   30.9306   -3.8646 O   0  0  0  0  0  0  0  0  0  0  0  0
   -2.9599   30.4226   -0.5083 N   0  0  0  0  0  0  0  0  0  0  0  0
   -4.8185   31.4486   -1.5006 C   0  0  0  0  0  0  0  0  0  0  0  0
   -6.3045   29.9225   -3.9779 C   0  0  0  0  0  0  0  0  0  0  0  0
   -7.2065   29.7013   -3.1248 C   0  0  0  0  0  0  0  0  0  0  0  0
   -6.1199   29.2270   -5.2147 C   0  0  0  0  0  0  0  0  0  0  0  0
   -8.2529   28.7215   -3.3976 C   0  0  0  0  0  0  0  0  0  0  0  0
   -8.1128   27.9393   -4.5731 C   0  0  0  0  0  0  0  0  0  0  0  0
   -7.0658   28.1675   -5.4523 C   0  0  0  0  0  0  0  0  0  0  0  0
   -4.0970   31.3350   -0.5083 C   0  0  0  0  0  0  0  0  0  0  0  0
   -6.8526   27.3021   -6.7995 Cl  0  0  0  0  0  0  0  0  0  0  0  0
  1  2  1  0
  2  3  2  0
  3  4  1  0
  1  5  2  0
  3  6  1  0
  4  7  1  0
  7  8  2  0
  7  9  1  0
  8 10  1  0
 10 11  2  0
  9 12  2  0
 11 12  1  0
  5 13  1  0
  6 13  2  0
 12 14  1  0
M  END
>  <ID>  (1) 
conformer_0

$$$$
