
     RDKit          3D

  8  8  0  0  0  0  0  0  0  0999 V2000
   -2.6012   29.8758   -1.6554 N   0  0  0  0  0  0  0  0  0  0  0  0
   -2.8878   29.5108   -2.9353 C   0  0  0  0  0  0  0  0  0  0  0  0
   -3.5152   30.7625   -1.2214 C   0  0  0  0  0  0  0  0  0  0  0  0
   -4.6100   31.2869   -1.8208 C   0  0  0  0  0  0  0  0  0  0  0  0
   -2.0831   28.4711   -3.5742 O   0  0  0  0  0  0  0  0  0  0  0  0
   -3.9151   29.9809   -3.8744 C   0  0  0  0  0  0  0  0  0  0  0  0
   -4.8034   30.8536   -3.1985 C   0  0  0  0  0  0  0  0  0  0  0  0
   -3.9353   29.7505   -5.0181 O   0  0  0  0  0  0  0  0  0  0  0  0
  1  2  1  0
  1  3  2  0
  3  4  1  0
  2  5  2  0
  2  6  1  0
  4  7  2  0
  6  7  1  0
  6  8  2  0
M  END
>  <ID>  (1) 
conformer_0

$$$$
