
     RDKit          3D

 12 13  0  0  0  0  0  0  0  0999 V2000
   -2.2427   29.6761   -1.8475 N   0  0  0  0  0  0  0  0  0  0  0  0
   -3.0137   30.4410   -1.2100 C   0  0  0  0  0  0  0  0  0  0  0  0
   -2.6024   29.2481   -3.1674 C   0  0  0  0  0  0  0  0  0  0  0  0
   -4.1276   30.9885   -1.9009 C   0  0  0  0  0  0  0  0  0  0  0  0
   -4.3160   30.4539   -3.2361 C   0  0  0  0  0  0  0  0  0  0  0  0
   -3.6126   29.7022   -3.7107 N   0  0  0  0  0  0  0  0  0  0  0  0
   -5.6643   30.9765   -3.7166 N   0  0  0  0  0  0  0  0  0  0  0  0
   -5.0258   31.9902   -1.3603 C   0  0  0  0  0  0  0  0  0  0  0  0
   -2.7553   30.8106    0.0899 O   0  0  0  0  0  0  0  0  0  0  0  0
   -4.6812   32.8951   -0.7336 O   0  0  0  0  0  0  0  0  0  0  0  0
   -6.3428   31.8746   -1.9867 N   0  0  0  0  0  0  0  0  0  0  0  0
   -6.5511   31.3837   -3.1713 C   0  0  0  0  0  0  0  0  0  0  0  0
  1  2  1  0
  1  3  2  0
  2  4  2  0
  4  5  1  0
  3  6  1  0
  5  6  2  0
  5  7  1  0
  4  8  1  0
  2  9  1  0
  8 10  2  0
  8 11  1  0
  7 12  2  0
 11 12  2  0
M  END
>  <ID>  (1) 
conformer_0

$$$$
