
     RDKit          3D

 25 28  0  0  0  0  0  0  0  0999 V2000
  -11.2014   31.9010   -2.5285 O   0  0  0  0  0  0  0  0  0  0  0  0
  -10.0315   31.6327   -1.9780 C   0  0  0  0  0  0  0  0  0  0  0  0
   -9.0842   30.9730   -2.8007 C   0  0  0  0  0  0  0  0  0  0  0  0
   -9.5488   30.0527   -3.8707 C   0  0  0  0  0  0  0  0  0  0  0  0
   -7.7309   30.9017   -2.5720 C   0  0  0  0  0  0  0  0  0  0  0  0
   -6.8405   30.1996   -3.2688 C   0  0  0  0  0  0  0  0  0  0  0  0
   -9.7469   32.0248   -0.8233 O   0  0  0  0  0  0  0  0  0  0  0  0
  -10.9685   29.9572   -4.2131 O   0  0  0  0  0  0  0  0  0  0  0  0
  -10.6031   32.8147   -0.0126 C   0  0  0  0  0  0  0  0  0  0  0  0
   -5.4595   30.2464   -2.9561 N   0  0  0  0  0  0  0  0  0  0  0  0
  -10.5048   34.0347    0.2039 C   0  0  0  0  0  0  0  0  0  0  0  0
   -4.6100   29.5168   -3.7994 C   0  0  0  0  0  0  0  0  0  0  0  0
   -5.1236   28.8166   -4.9396 C   0  0  0  0  0  0  0  0  0  0  0  0
  -11.6011   32.1813    0.6963 C   0  0  0  0  0  0  0  0  0  0  0  0
   -8.7825   29.2041   -4.6393 C   0  0  0  0  0  0  0  0  0  0  0  0
   -9.2839   34.7467   -0.5907 C   0  0  0  0  0  0  0  0  0  0  0  0
   -7.3467   29.2856   -4.2933 C   0  0  0  0  0  0  0  0  0  0  0  0
   -6.3759   28.5222   -5.0486 C   0  0  0  0  0  0  0  0  0  0  0  0
   -3.2858   29.7546   -3.5475 N   0  0  0  0  0  0  0  0  0  0  0  0
   -3.8243   28.1786   -5.4406 N   0  0  0  0  0  0  0  0  0  0  0  0
   -6.7685   27.6750   -6.0523 O   0  0  0  0  0  0  0  0  0  0  0  0
  -11.2918   34.7222    0.8802 C   0  0  0  0  0  0  0  0  0  0  0  0
   -2.5209   28.9151   -4.4879 S   0  0  0  0  0  0  0  0  0  0  0  0
  -12.3987   33.1034    1.5226 C   0  0  0  0  0  0  0  0  0  0  0  0
  -12.2562   34.3140    1.5881 N   0  0  0  0  0  0  0  0  0  0  0  0
  1  2  2  0
  2  3  1  0
  3  4  1  0
  3  5  2  0
  5  6  1  0
  2  7  1  0
  4  8  1  0
  7  9  1  0
  6 10  1  0
  9 11  1  0
 10 12  1  0
 12 13  1  0
  9 14  2  0
  4 15  2  0
 11 16  1  0
  6 17  2  0
 15 17  1  0
 13 18  1  0
 17 18  1  0
 12 19  2  0
 13 20  2  0
 18 21  2  0
 11 22  2  0
 19 23  1  0
 20 23  1  0
 14 24  1  0
 22 25  1  0
 24 25  2  0
M  END
>  <ID>  (1) 
conformer_0

$$$$
