
     RDKit          3D

 22 24  0  0  0  0  0  0  0  0999 V2000
   -2.6959   30.0149   -1.2197 N   0  0  0  0  0  0  0  0  0  0  0  0
   -3.5522   30.8732   -0.8719 C   0  0  0  0  0  0  0  0  0  0  0  0
   -4.4231   31.2047   -1.8843 C   0  0  0  0  0  0  0  0  0  0  0  0
   -5.5516   32.0593   -1.7133 C   0  0  0  0  0  0  0  0  0  0  0  0
   -6.7919   31.7062   -2.1347 C   0  0  0  0  0  0  0  0  0  0  0  0
   -4.1917   30.3086   -2.8877 C   0  0  0  0  0  0  0  0  0  0  0  0
   -7.0646   30.3405   -2.7038 C   0  0  0  0  0  0  0  0  0  0  0  0
   -7.8862   32.6388   -2.0274 C   0  0  0  0  0  0  0  0  0  0  0  0
   -9.1469   32.2958   -1.9500 C   0  0  0  0  0  0  0  0  0  0  0  0
   -8.1934   30.2676   -3.5301 C   0  0  0  0  0  0  0  0  0  0  0  0
   -3.0077   29.5526   -2.5788 N   0  0  0  0  0  0  0  0  0  0  0  0
  -10.1643   32.9949   -1.6037 C   0  0  0  0  0  0  0  0  0  0  0  0
  -10.9566   32.6857   -0.6140 C   0  0  0  0  0  0  0  0  0  0  0  0
   -7.4825   33.7541   -1.7381 C   0  0  0  0  0  0  0  0  0  0  0  0
  -11.7644   33.3542    0.1262 N   0  0  0  0  0  0  0  0  0  0  0  0
   -9.3989   30.9973   -2.8496 C   0  0  0  0  0  0  0  0  0  0  0  0
   -5.4016   33.2932   -1.0100 C   0  0  0  0  0  0  0  0  0  0  0  0
  -11.4341   34.3715    0.8144 C   0  0  0  0  0  0  0  0  0  0  0  0
   -6.1863   34.1310   -1.2853 C   0  0  0  0  0  0  0  0  0  0  0  0
   -2.2941   28.8575   -3.4825 C   0  0  0  0  0  0  0  0  0  0  0  0
  -13.1670   32.9771    0.2251 O   0  0  0  0  0  0  0  0  0  0  0  0
  -10.8710   31.4787   -0.4247 O   0  0  0  0  0  0  0  0  0  0  0  0
  1  2  2  0
  2  3  1  0
  3  4  1  0
  4  5  2  0
  3  6  2  0
  5  7  1  0
  5  8  1  0
  8  9  1  0
  7 10  1  0
  1 11  1  0
  6 11  1  0
  9 12  1  0
 12 13  1  0
  8 14  2  0
 13 15  1  0
  9 16  1  0
 10 16  1  0
  4 17  1  0
 15 18  1  0
 14 19  1  0
 17 19  2  0
 11 20  1  0
 15 21  1  0
 13 22  2  0
M  END
>  <ID>  (1) 
conformer_0

$$$$
