
     RDKit          3D

 24 27  0  0  0  0  0  0  0  0999 V2000
   -6.9842   34.5810   -1.8638 C   0  0  0  0  0  0  0  0  0  0  0  0
   -7.4207   35.3763   -0.9490 C   0  0  0  0  0  0  0  0  0  0  0  0
   -5.6502   34.4416   -2.0488 C   0  0  0  0  0  0  0  0  0  0  0  0
   -8.5375   35.4286   -0.3607 C   0  0  0  0  0  0  0  0  0  0  0  0
   -7.8489   33.5102   -2.0198 C   0  0  0  0  0  0  0  0  0  0  0  0
   -9.0208   36.4125    0.4624 C   0  0  0  0  0  0  0  0  0  0  0  0
   -5.0868   33.1569   -2.1521 C   0  0  0  0  0  0  0  0  0  0  0  0
   -7.4800   32.4357   -2.9637 C   0  0  0  0  0  0  0  0  0  0  0  0
   -3.8429   32.9859   -2.2954 N   0  0  0  0  0  0  0  0  0  0  0  0
   -8.1618   31.4382   -3.4306 C   0  0  0  0  0  0  0  0  0  0  0  0
   -7.7502   30.3402   -4.0948 C   0  0  0  0  0  0  0  0  0  0  0  0
   -3.3641   31.7431   -1.7169 C   0  0  0  0  0  0  0  0  0  0  0  0
   -9.6688   31.3435   -2.8362 C   0  0  0  0  0  0  0  0  0  0  0  0
   -3.4033   31.5444   -0.4367 N   0  0  0  0  0  0  0  0  0  0  0  0
  -10.0813   31.7269   -1.7362 N   0  0  0  0  0  0  0  0  0  0  0  0
   -9.7024   32.2974   -0.6838 C   0  0  0  0  0  0  0  0  0  0  0  0
   -2.9520   30.6227   -2.4899 C   0  0  0  0  0  0  0  0  0  0  0  0
   -5.8490   32.3094   -3.1951 C   0  0  0  0  0  0  0  0  0  0  0  0
   -2.9824   30.1869   -0.2886 N   0  0  0  0  0  0  0  0  0  0  0  0
   -9.1039   33.5777   -1.3176 C   0  0  0  0  0  0  0  0  0  0  0  0
  -10.0544   32.2495    0.4479 O   0  0  0  0  0  0  0  0  0  0  0  0
   -2.7077   29.6788   -1.4617 C   0  0  0  0  0  0  0  0  0  0  0  0
  -10.4379   31.2547   -3.8828 O   0  0  0  0  0  0  0  0  0  0  0  0
   -9.4260   34.3635   -0.3647 C   0  0  0  0  0  0  0  0  0  0  0  0
  1  2  1  0
  1  3  1  0
  2  4  2  0
  1  5  2  0
  4  6  1  0
  3  7  1  0
  5  8  1  0
  7  9  1  0
  8 10  2  0
 10 11  1  0
  9 12  1  0
 10 13  1  0
 12 14  2  0
 13 15  1  0
 15 16  1  0
 12 17  1  0
  7 18  1  0
  8 18  1  0
 14 19  1  0
  5 20  1  0
 16 20  1  0
 16 21  2  0
 17 22  1  0
 19 22  2  0
 13 23  2  0
  4 24  1  0
 20 24  2  0
M  END
>  <ID>  (1) 
conformer_0

$$$$
