
     RDKit          3D

 22 25  0  0  0  0  0  0  0  0999 V2000
   -2.5216   29.5424   -2.2338 C   0  0  0  0  0  0  0  0  0  0  0  0
   -3.4391   29.6814   -3.2824 C   0  0  0  0  0  0  0  0  0  0  0  0
   -3.4754   28.7618   -4.4319 C   0  0  0  0  0  0  0  0  0  0  0  0
   -4.4290   30.6307   -3.1430 C   0  0  0  0  0  0  0  0  0  0  0  0
   -5.5629   30.6490   -3.9892 C   0  0  0  0  0  0  0  0  0  0  0  0
   -2.4875   30.2416   -1.1707 N   0  0  0  0  0  0  0  0  0  0  0  0
   -6.6196   31.4277   -3.6051 C   0  0  0  0  0  0  0  0  0  0  0  0
   -3.6190   31.1825   -1.1749 C   0  0  0  0  0  0  0  0  0  0  0  0
   -4.5811   28.4754   -5.1171 C   0  0  0  0  0  0  0  0  0  0  0  0
   -4.5218   31.2913   -1.9983 C   0  0  0  0  0  0  0  0  0  0  0  0
   -6.5880   32.1504   -2.4413 C   0  0  0  0  0  0  0  0  0  0  0  0
   -7.7124   33.1447   -2.1940 C   0  0  0  0  0  0  0  0  0  0  0  0
   -9.0155   32.6718   -2.0674 C   0  0  0  0  0  0  0  0  0  0  0  0
   -5.5500   32.1856   -1.7049 C   0  0  0  0  0  0  0  0  0  0  0  0
   -7.3515   34.4537   -1.9947 C   0  0  0  0  0  0  0  0  0  0  0  0
   -8.3240   35.3337   -1.4977 C   0  0  0  0  0  0  0  0  0  0  0  0
   -9.6341   34.7344   -1.1198 C   0  0  0  0  0  0  0  0  0  0  0  0
   -9.9168   33.4773   -1.4995 C   0  0  0  0  0  0  0  0  0  0  0  0
  -11.1772   32.8351   -1.1284 C   0  0  0  0  0  0  0  0  0  0  0  0
   -5.6139   29.5172   -4.9954 C   0  0  0  0  0  0  0  0  0  0  0  0
  -11.2963   31.7062   -0.9168 O   0  0  0  0  0  0  0  0  0  0  0  0
  -12.1706   33.6869   -0.5955 O   0  0  0  0  0  0  0  0  0  0  0  0
  1  2  1  0
  2  3  1  0
  2  4  2  0
  4  5  1  0
  1  6  2  0
  5  7  2  0
  6  8  1  0
  3  9  2  0
  4 10  1  0
  8 10  2  0
  7 11  1  0
 11 12  1  0
 12 13  2  0
 10 14  1  0
 11 14  2  0
 12 15  1  0
 15 16  2  0
 16 17  1  0
 13 18  1  0
 17 18  2  0
 18 19  1  0
  5 20  1  0
  9 20  1  0
 19 21  2  0
 19 22  1  0
M  END
>  <ID>  (1) 
conformer_0

$$$$
