
     RDKit          3D

 29 32  0  0  0  0  0  0  0  0999 V2000
   -7.5413   34.8604   -1.2408 C   0  0  0  0  0  0  0  0  0  0  0  0
   -8.2628   35.2471   -0.4398 C   0  0  0  0  0  0  0  0  0  0  0  0
   -6.2906   35.3012   -1.5508 F   0  0  0  0  0  0  0  0  0  0  0  0
   -7.6533   33.5678   -1.7231 C   0  0  0  0  0  0  0  0  0  0  0  0
   -9.3756   34.7838   -0.0776 C   0  0  0  0  0  0  0  0  0  0  0  0
   -6.8023   32.8864   -2.6972 C   0  0  0  0  0  0  0  0  0  0  0  0
   -6.6605   31.4754   -2.5805 C   0  0  0  0  0  0  0  0  0  0  0  0
   -6.5810   30.6659   -3.5785 N   0  0  0  0  0  0  0  0  0  0  0  0
   -7.7490   30.2984   -4.3211 C   0  0  0  0  0  0  0  0  0  0  0  0
   -5.4991   29.9454   -3.9240 C   0  0  0  0  0  0  0  0  0  0  0  0
   -9.5252   33.3909   -0.4789 C   0  0  0  0  0  0  0  0  0  0  0  0
   -6.4242   30.9611   -1.3262 O   0  0  0  0  0  0  0  0  0  0  0  0
   -5.6948   28.9199   -4.8482 C   0  0  0  0  0  0  0  0  0  0  0  0
   -8.7325   32.8332   -1.2894 C   0  0  0  0  0  0  0  0  0  0  0  0
  -10.7685   32.7632    0.0511 C   0  0  0  0  0  0  0  0  0  0  0  0
   -4.5621   28.1309   -5.2905 C   0  0  0  0  0  0  0  0  0  0  0  0
   -7.7377   29.3188   -5.1458 C   0  0  0  0  0  0  0  0  0  0  0  0
   -4.2200   30.2535   -3.4871 C   0  0  0  0  0  0  0  0  0  0  0  0
   -3.9181   31.2990   -2.5897 C   0  0  0  0  0  0  0  0  0  0  0  0
   -3.1103   29.4719   -3.9236 C   0  0  0  0  0  0  0  0  0  0  0  0
   -1.7589   29.8235   -3.4043 C   0  0  0  0  0  0  0  0  0  0  0  0
   -2.7104   31.4246   -1.9756 C   0  0  0  0  0  0  0  0  0  0  0  0
   -0.6241   28.9760   -3.8312 C   0  0  0  0  0  0  0  0  0  0  0  0
   -3.2641   28.4946   -4.8282 C   0  0  0  0  0  0  0  0  0  0  0  0
   -6.7942   28.5113   -5.3973 C   0  0  0  0  0  0  0  0  0  0  0  0
  -10.9317   32.3410    1.1421 O   0  0  0  0  0  0  0  0  0  0  0  0
   -1.7171   30.6486   -2.3809 C   0  0  0  0  0  0  0  0  0  0  0  0
  -11.7839   32.6843   -0.8559 O   0  0  0  0  0  0  0  0  0  0  0  0
   -8.8553   30.9680   -3.9330 O   0  0  0  0  0  0  0  0  0  0  0  0
  1  2  1  0
  1  3  1  0
  1  4  2  0
  2  5  2  0
  4  6  1  0
  6  7  1  0
  7  8  1  0
  8  9  1  0
  8 10  1  0
  5 11  1  0
  7 12  2  0
 10 13  2  0
  4 14  1  0
 11 14  2  0
 11 15  1  0
 13 16  1  0
  9 17  1  0
 10 18  1  0
 18 19  1  0
 18 20  2  0
 20 21  1  0
 19 22  2  0
 21 23  1  0
 16 24  2  0
 20 24  1  0
 13 25  1  0
 17 25  2  0
 15 26  2  0
 21 27  2  0
 22 27  1  0
 15 28  1  0
  9 29  2  0
M  END
>  <ID>  (1) 
conformer_0

$$$$
