
     RDKit          3D

 16 18  0  0  0  0  0  0  0  0999 V2000
   -6.5328   27.0822   -6.7842 C   0  0  0  0  0  0  0  0  0  0  0  0
   -7.3098   27.6304   -5.9691 N   0  0  0  0  0  0  0  0  0  0  0  0
   -6.8421   28.5606   -5.0342 C   0  0  0  0  0  0  0  0  0  0  0  0
   -7.8003   29.2283   -4.2688 N   0  0  0  0  0  0  0  0  0  0  0  0
   -7.2132   30.0796   -3.3541 C   0  0  0  0  0  0  0  0  0  0  0  0
   -9.1607   28.8937   -4.1568 C   0  0  0  0  0  0  0  0  0  0  0  0
   -9.8534   29.6140   -5.2646 C   0  0  0  0  0  0  0  0  0  0  0  0
   -9.7363   29.5524   -2.9612 C   0  0  0  0  0  0  0  0  0  0  0  0
   -5.6320   28.7069   -4.9233 N   0  0  0  0  0  0  0  0  0  0  0  0
   -5.3809   29.6629   -3.8468 C   0  0  0  0  0  0  0  0  0  0  0  0
   -6.0598   30.4024   -3.2401 C   0  0  0  0  0  0  0  0  0  0  0  0
   -3.7697   29.8245   -3.8862 C   0  0  0  0  0  0  0  0  0  0  0  0
   -3.2852   30.7166   -2.9343 C   0  0  0  0  0  0  0  0  0  0  0  0
   -5.4967   31.2939   -2.2292 C   0  0  0  0  0  0  0  0  0  0  0  0
   -4.1188   31.4171   -2.1228 C   0  0  0  0  0  0  0  0  0  0  0  0
   -8.3894   30.6149   -2.6860 C   0  0  0  0  0  0  0  0  0  0  0  0
  1  2  1  0
  2  3  1  0
  3  4  1  0
  4  5  1  0
  4  6  1  0
  6  7  1  0
  6  8  1  0
  3  9  2  0
  9 10  1  0
  5 11  1  0
 10 11  2  0
 10 12  1  0
 12 13  2  0
 11 14  1  0
 13 15  1  0
 14 15  2  0
  5 16  1  0
  8 16  1  0
M  END
>  <ID>  (1) 
conformer_0

$$$$
