
     RDKit          3D

  6  6  0  0  0  0  0  0  0  0999 V2000
   -2.6012   29.8758   -1.6554 N   0  0  0  0  0  0  0  0  0  0  0  0
   -2.8878   29.5108   -2.9353 C   0  0  0  0  0  0  0  0  0  0  0  0
   -3.5152   30.7625   -1.2214 C   0  0  0  0  0  0  0  0  0  0  0  0
   -4.5097   31.0778   -2.2113 C   0  0  0  0  0  0  0  0  0  0  0  0
   -3.5132   31.1983    0.0712 N   0  0  0  0  0  0  0  0  0  0  0  0
   -4.0789   30.2435   -3.3058 C   0  0  0  0  0  0  0  0  0  0  0  0
  1  2  1  0
  1  3  2  0
  3  4  1  0
  3  5  1  0
  2  6  2  0
  4  6  2  0
M  END
>  <ID>  (1) 
conformer_0

$$$$
