
     RDKit          3D

 18 20  0  0  0  0  0  0  0  0999 V2000
  -11.2014   31.9010   -2.5285 O   0  0  0  0  0  0  0  0  0  0  0  0
  -10.0315   31.6327   -1.9780 C   0  0  0  0  0  0  0  0  0  0  0  0
   -9.0842   30.9730   -2.8007 C   0  0  0  0  0  0  0  0  0  0  0  0
   -9.5488   30.0527   -3.8707 C   0  0  0  0  0  0  0  0  0  0  0  0
   -7.7309   30.9017   -2.5720 C   0  0  0  0  0  0  0  0  0  0  0  0
   -6.8405   30.1996   -3.2688 C   0  0  0  0  0  0  0  0  0  0  0  0
  -10.9821   29.9110   -4.0969 O   0  0  0  0  0  0  0  0  0  0  0  0
   -5.4925   30.2196   -2.9430 N   0  0  0  0  0  0  0  0  0  0  0  0
   -4.5835   29.5554   -3.7735 C   0  0  0  0  0  0  0  0  0  0  0  0
   -9.7071   32.0512   -0.8618 O   0  0  0  0  0  0  0  0  0  0  0  0
   -7.5524   29.3448   -4.1528 C   0  0  0  0  0  0  0  0  0  0  0  0
   -3.2515   29.6713   -3.4712 N   0  0  0  0  0  0  0  0  0  0  0  0
   -3.4282   30.3630   -2.2594 C   0  0  0  0  0  0  0  0  0  0  0  0
   -2.4066   30.7595   -1.3063 N   0  0  0  0  0  0  0  0  0  0  0  0
   -4.7275   30.8496   -2.0301 C   0  0  0  0  0  0  0  0  0  0  0  0
   -3.3091   31.4650   -0.3423 N   0  0  0  0  0  0  0  0  0  0  0  0
   -4.5688   31.5354   -0.8100 C   0  0  0  0  0  0  0  0  0  0  0  0
   -8.7145   29.1950   -4.5089 C   0  0  0  0  0  0  0  0  0  0  0  0
  1  2  2  0
  2  3  1  0
  3  4  1  0
  3  5  2  0
  5  6  1  0
  4  7  1  0
  6  8  1  0
  8  9  1  0
  2 10  1  0
  6 11  2  0
  9 12  2  0
 12 13  1  0
 13 14  2  0
  8 15  1  0
 13 15  1  0
 14 16  1  0
 15 17  2  0
 16 17  1  0
  4 18  2  0
 11 18  1  0
M  END
>  <ID>  (1) 
conformer_0

$$$$
