
     RDKit          3D

 10 11  0  0  0  0  0  0  0  0999 V2000
   -2.5216   29.5424   -2.2338 C   0  0  0  0  0  0  0  0  0  0  0  0
   -2.9578   30.3169   -1.4148 N   0  0  0  0  0  0  0  0  0  0  0  0
   -4.0333   31.0675   -1.8168 C   0  0  0  0  0  0  0  0  0  0  0  0
   -4.5717   32.0279   -0.8723 C   0  0  0  0  0  0  0  0  0  0  0  0
   -3.3378   29.5312   -3.4131 N   0  0  0  0  0  0  0  0  0  0  0  0
   -4.3570   30.4796   -3.0524 C   0  0  0  0  0  0  0  0  0  0  0  0
   -5.9182   32.2934   -1.2599 C   0  0  0  0  0  0  0  0  0  0  0  0
   -5.5745   30.4772   -3.6872 C   0  0  0  0  0  0  0  0  0  0  0  0
   -6.6112   31.1823   -3.1524 C   0  0  0  0  0  0  0  0  0  0  0  0
   -6.7469   31.8599   -2.1120 C   0  0  0  0  0  0  0  0  0  0  0  0
  1  2  1  0
  2  3  2  0
  3  4  1  0
  1  5  2  0
  3  6  1  0
  5  6  1  0
  4  7  1  0
  6  8  2  0
  8  9  1  0
  7 10  2  0
  9 10  2  0
M  END
>  <ID>  (1) 
conformer_0

$$$$
