
     RDKit          3D

 24 27  0  0  0  0  0  0  0  0999 V2000
   -2.6959   30.0149   -1.2197 N   0  0  0  0  0  0  0  0  0  0  0  0
   -3.5522   30.8732   -0.8719 C   0  0  0  0  0  0  0  0  0  0  0  0
   -4.4231   31.2047   -1.8843 C   0  0  0  0  0  0  0  0  0  0  0  0
   -5.5516   32.0593   -1.7133 C   0  0  0  0  0  0  0  0  0  0  0  0
   -6.7919   31.7062   -2.1347 C   0  0  0  0  0  0  0  0  0  0  0  0
   -4.1917   30.3086   -2.8877 C   0  0  0  0  0  0  0  0  0  0  0  0
   -7.0646   30.3405   -2.7038 C   0  0  0  0  0  0  0  0  0  0  0  0
   -7.8862   32.6388   -2.0274 C   0  0  0  0  0  0  0  0  0  0  0  0
   -9.1469   32.2958   -1.9500 C   0  0  0  0  0  0  0  0  0  0  0  0
   -8.1934   30.2676   -3.5301 C   0  0  0  0  0  0  0  0  0  0  0  0
   -3.0077   29.5526   -2.5788 N   0  0  0  0  0  0  0  0  0  0  0  0
  -10.1643   32.9949   -1.6037 C   0  0  0  0  0  0  0  0  0  0  0  0
  -10.9566   32.6857   -0.6140 C   0  0  0  0  0  0  0  0  0  0  0  0
   -7.4825   33.7541   -1.7381 C   0  0  0  0  0  0  0  0  0  0  0  0
  -11.7644   33.3542    0.1262 N   0  0  0  0  0  0  0  0  0  0  0  0
   -8.2411   34.9327   -1.2690 C   0  0  0  0  0  0  0  0  0  0  0  0
  -10.6785   31.7348    0.3154 O   0  0  0  0  0  0  0  0  0  0  0  0
   -9.6559   31.1679   -2.9124 C   0  0  0  0  0  0  0  0  0  0  0  0
   -9.6062   34.3457   -0.9470 C   0  0  0  0  0  0  0  0  0  0  0  0
  -11.4614   34.4951    0.7261 C   0  0  0  0  0  0  0  0  0  0  0  0
  -10.3771   35.3771   -0.4331 C   0  0  0  0  0  0  0  0  0  0  0  0
  -13.1182   32.9703    0.1290 O   0  0  0  0  0  0  0  0  0  0  0  0
   -2.2271   28.8551   -3.4155 C   0  0  0  0  0  0  0  0  0  0  0  0
   -8.6937   28.8983   -3.6114 C   0  0  0  0  0  0  0  0  0  0  0  0
  1  2  2  0
  2  3  1  0
  3  4  1  0
  4  5  2  3
  3  6  2  0
  5  7  1  0
  5  8  1  0
  8  9  1  0
  7 10  1  0
  1 11  1  0
  6 11  1  0
  9 12  1  0
 12 13  1  0
  8 14  2  0
 13 15  1  0
 14 16  1  0
 13 17  2  0
  9 18  2  0
 10 18  1  0
 12 19  1  0
 16 19  1  0
 15 20  1  0
 19 21  1  0
 20 21  1  0
 15 22  1  0
 11 23  1  0
 10 24  1  0
M  END
>  <ID>  (1) 
conformer_0

$$$$
