
     RDKit          3D

 29 33  0  0  0  0  0  0  0  0999 V2000
  -11.2014   31.9010   -2.5285 O   0  0  0  0  0  0  0  0  0  0  0  0
  -10.0315   31.6327   -1.9780 C   0  0  0  0  0  0  0  0  0  0  0  0
   -9.0842   30.9730   -2.8007 C   0  0  0  0  0  0  0  0  0  0  0  0
   -9.5488   30.0527   -3.8707 C   0  0  0  0  0  0  0  0  0  0  0  0
   -7.7309   30.9017   -2.5720 C   0  0  0  0  0  0  0  0  0  0  0  0
   -6.8405   30.1996   -3.2688 C   0  0  0  0  0  0  0  0  0  0  0  0
   -9.7469   32.0248   -0.8233 O   0  0  0  0  0  0  0  0  0  0  0  0
  -10.9685   29.9572   -4.2131 O   0  0  0  0  0  0  0  0  0  0  0  0
  -10.6031   32.8147   -0.0126 C   0  0  0  0  0  0  0  0  0  0  0  0
   -5.4595   30.2464   -2.9561 N   0  0  0  0  0  0  0  0  0  0  0  0
  -10.5048   34.0347    0.2039 C   0  0  0  0  0  0  0  0  0  0  0  0
   -4.6100   29.5168   -3.7994 C   0  0  0  0  0  0  0  0  0  0  0  0
   -5.1236   28.8166   -4.9396 C   0  0  0  0  0  0  0  0  0  0  0  0
  -11.6011   32.1813    0.6963 C   0  0  0  0  0  0  0  0  0  0  0  0
   -4.9553   31.2333   -2.2324 C   0  0  0  0  0  0  0  0  0  0  0  0
   -3.2840   29.5088   -3.5723 C   0  0  0  0  0  0  0  0  0  0  0  0
   -6.2506   28.0754   -4.8892 O   0  0  0  0  0  0  0  0  0  0  0  0
   -8.7800   29.1906   -4.5609 C   0  0  0  0  0  0  0  0  0  0  0  0
   -3.5768   31.1634   -1.9730 C   0  0  0  0  0  0  0  0  0  0  0  0
   -2.3753   28.6575   -4.3984 C   0  0  0  0  0  0  0  0  0  0  0  0
  -11.7800   30.8482    0.5752 O   0  0  0  0  0  0  0  0  0  0  0  0
   -3.0033   27.8800   -5.3754 C   0  0  0  0  0  0  0  0  0  0  0  0
   -5.6113   32.0383   -1.6245 O   0  0  0  0  0  0  0  0  0  0  0  0
   -4.3338   27.9285   -5.6462 C   0  0  0  0  0  0  0  0  0  0  0  0
  -11.1970   34.7406    0.9580 C   0  0  0  0  0  0  0  0  0  0  0  0
   -2.7664   30.3409   -2.5615 C   0  0  0  0  0  0  0  0  0  0  0  0
  -12.4339   32.8862    1.5612 C   0  0  0  0  0  0  0  0  0  0  0  0
   -7.2330   29.1531   -4.2385 C   0  0  0  0  0  0  0  0  0  0  0  0
  -12.1364   34.1352    1.7143 C   0  0  0  0  0  0  0  0  0  0  0  0
  1  2  2  0
  2  3  1  0
  3  4  1  0
  3  5  2  0
  5  6  1  0
  2  7  1  0
  4  8  1  0
  7  9  1  0
  6 10  1  0
  9 11  1  0
 10 12  1  0
 12 13  1  0
  9 14  2  0
 10 15  1  0
 12 16  2  0
 13 17  1  0
  4 18  2  0
 15 19  1  0
 16 20  1  0
 14 21  1  0
 20 22  2  0
 15 23  2  0
 13 24  2  0
 22 24  1  0
 11 25  2  0
 16 26  1  0
 19 26  2  0
 14 27  1  0
  6 28  2  0
 17 28  1  0
 18 28  1  0
 25 29  1  0
 27 29  2  0
M  END
>  <ID>  (1) 
conformer_0

$$$$
