
     RDKit          3D

 29 34  0  0  0  0  0  0  0  0999 V2000
   -6.9842   34.5810   -1.8638 C   0  0  0  0  0  0  0  0  0  0  0  0
   -7.4207   35.3763   -0.9490 C   0  0  0  0  0  0  0  0  0  0  0  0
   -5.6502   34.4416   -2.0488 C   0  0  0  0  0  0  0  0  0  0  0  0
   -8.5375   35.4286   -0.3607 C   0  0  0  0  0  0  0  0  0  0  0  0
   -7.8489   33.5102   -2.0198 C   0  0  0  0  0  0  0  0  0  0  0  0
   -9.0208   36.4125    0.4624 C   0  0  0  0  0  0  0  0  0  0  0  0
   -5.0868   33.1569   -2.1521 C   0  0  0  0  0  0  0  0  0  0  0  0
   -7.4800   32.4357   -2.9637 C   0  0  0  0  0  0  0  0  0  0  0  0
   -3.8429   32.9859   -2.2954 N   0  0  0  0  0  0  0  0  0  0  0  0
   -8.1618   31.4382   -3.4306 C   0  0  0  0  0  0  0  0  0  0  0  0
   -7.7502   30.3402   -4.0948 C   0  0  0  0  0  0  0  0  0  0  0  0
   -3.3641   31.7431   -1.7169 C   0  0  0  0  0  0  0  0  0  0  0  0
   -9.6688   31.3435   -2.8362 C   0  0  0  0  0  0  0  0  0  0  0  0
   -3.4033   31.5444   -0.4367 N   0  0  0  0  0  0  0  0  0  0  0  0
  -10.0813   31.7269   -1.7362 N   0  0  0  0  0  0  0  0  0  0  0  0
   -9.7024   32.2974   -0.6838 C   0  0  0  0  0  0  0  0  0  0  0  0
   -8.8064   33.1534   -0.9158 C   0  0  0  0  0  0  0  0  0  0  0  0
   -9.2907   34.1708   -0.1289 C   0  0  0  0  0  0  0  0  0  0  0  0
   -6.3589   30.1981   -4.2770 C   0  0  0  0  0  0  0  0  0  0  0  0
  -10.4801   31.1332   -3.7800 O   0  0  0  0  0  0  0  0  0  0  0  0
   -5.5637   30.8834   -3.4508 C   0  0  0  0  0  0  0  0  0  0  0  0
   -6.0107   32.0691   -2.7002 C   0  0  0  0  0  0  0  0  0  0  0  0
   -3.0598   30.3733    0.0515 N   0  0  0  0  0  0  0  0  0  0  0  0
   -9.8050   31.8191    0.4097 O   0  0  0  0  0  0  0  0  0  0  0  0
   -5.8849   29.1042   -4.8418 N   0  0  0  0  0  0  0  0  0  0  0  0
   -2.6579   29.6597   -0.9976 N   0  0  0  0  0  0  0  0  0  0  0  0
   -7.0556   28.5200   -5.3528 N   0  0  0  0  0  0  0  0  0  0  0  0
   -8.0779   29.2312   -4.9674 C   0  0  0  0  0  0  0  0  0  0  0  0
   -2.9000   30.4647   -2.1295 N   0  0  0  0  0  0  0  0  0  0  0  0
  1  2  1  0
  1  3  1  0
  2  4  2  0
  1  5  2  0
  4  6  1  0
  3  7  1  0
  5  8  1  0
  7  9  1  0
  8 10  2  0
 10 11  1  0
  9 12  1  0
 10 13  1  0
 12 14  2  0
 13 15  1  0
 15 16  1  0
  5 17  1  0
 16 17  1  0
  4 18  1  0
 17 18  2  0
 11 19  1  0
 13 20  2  0
 19 21  1  0
  7 22  1  0
  8 22  1  0
 21 22  2  0
 14 23  1  0
 16 24  2  0
 19 25  2  0
 23 26  2  0
 25 27  1  0
 11 28  2  0
 27 28  2  0
 12 29  1  0
 26 29  1  0
M  END
>  <ID>  (1) 
conformer_0

$$$$
