
     RDKit          3D

  8  8  0  0  0  0  0  0  0  0999 V2000
   -2.2427   29.6761   -1.8475 N   0  0  0  0  0  0  0  0  0  0  0  0
   -3.4119   30.2747   -2.1760 C   0  0  0  0  0  0  0  0  0  0  0  0
   -4.0325   29.9837   -3.4259 N   0  0  0  0  0  0  0  0  0  0  0  0
   -4.0158   30.9788   -1.2457 C   0  0  0  0  0  0  0  0  0  0  0  0
   -5.2366   30.5752   -3.7007 C   0  0  0  0  0  0  0  0  0  0  0  0
   -3.4041   31.1659    0.0440 N   0  0  0  0  0  0  0  0  0  0  0  0
   -5.8634   31.1919   -2.4858 N   0  0  0  0  0  0  0  0  0  0  0  0
   -5.2951   31.4756   -1.4530 C   0  0  0  0  0  0  0  0  0  0  0  0
  1  2  1  0
  2  3  1  0
  2  4  2  0
  3  5  2  0
  4  6  1  0
  5  7  1  0
  4  8  1  0
  7  8  2  0
M  END
>  <ID>  (1) 
conformer_0

$$$$
