
     RDKit          3D

 10 11  0  0  0  0  0  0  0  0999 V2000
   -2.2427   29.6761   -1.8475 N   0  0  0  0  0  0  0  0  0  0  0  0
   -2.6674   29.3944   -3.1694 C   0  0  0  0  0  0  0  0  0  0  0  0
   -2.9465   30.3417   -1.0592 N   0  0  0  0  0  0  0  0  0  0  0  0
   -3.9110   30.0630   -3.2331 C   0  0  0  0  0  0  0  0  0  0  0  0
   -4.0463   30.7367   -1.9149 C   0  0  0  0  0  0  0  0  0  0  0  0
   -4.9212   30.1707   -4.2147 C   0  0  0  0  0  0  0  0  0  0  0  0
   -5.1545   31.5137   -1.6343 C   0  0  0  0  0  0  0  0  0  0  0  0
   -5.3368   32.2339   -0.4539 C   0  0  0  0  0  0  0  0  0  0  0  0
   -6.1720   31.7237   -2.7544 C   0  0  0  0  0  0  0  0  0  0  0  0
   -6.0030   30.9276   -3.8998 C   0  0  0  0  0  0  0  0  0  0  0  0
  1  2  1  0
  1  3  2  0
  2  4  2  0
  3  5  1  0
  4  5  1  0
  4  6  1  0
  5  7  2  0
  7  8  1  0
  7  9  1  0
  6 10  2  0
  9 10  2  0
M  END
>  <ID>  (1) 
conformer_0

$$$$
