
     RDKit          3D

  6  6  0  0  0  0  0  0  0  0999 V2000
   -2.6216   29.8347   -1.3198 N   0  0  0  0  0  0  0  0  0  0  0  0
   -3.3962   30.7379   -0.9032 C   0  0  0  0  0  0  0  0  0  0  0  0
   -2.8295   29.5952   -2.7018 C   0  0  0  0  0  0  0  0  0  0  0  0
   -4.3055   31.2202   -1.8580 C   0  0  0  0  0  0  0  0  0  0  0  0
   -4.1526   30.6285   -3.1596 S   0  0  0  0  0  0  0  0  0  0  0  0
   -2.0593   28.6531   -3.4555 N   0  0  0  0  0  0  0  0  0  0  0  0
  1  2  1  0
  1  3  2  0
  2  4  2  0
  3  5  1  0
  4  5  1  0
  3  6  1  0
M  END
>  <ID>  (1) 
conformer_0

$$$$
