
     RDKit          3D

 12 12  0  0  0  0  0  0  0  0999 V2000
   -2.2427   29.6761   -1.8475 N   0  0  0  0  0  0  0  0  0  0  0  0
   -3.4119   30.2747   -2.1760 C   0  0  0  0  0  0  0  0  0  0  0  0
   -4.0325   29.9837   -3.4259 N   0  0  0  0  0  0  0  0  0  0  0  0
   -5.2668   30.5454   -3.5218 C   0  0  0  0  0  0  0  0  0  0  0  0
   -6.0714   30.2026   -4.5904 N   0  0  0  0  0  0  0  0  0  0  0  0
   -4.0968   31.0224   -1.2599 N   0  0  0  0  0  0  0  0  0  0  0  0
   -6.4784   28.7837   -4.7060 C   0  0  0  0  0  0  0  0  0  0  0  0
   -5.2452   31.6026   -1.4432 C   0  0  0  0  0  0  0  0  0  0  0  0
   -5.8160   32.4571   -0.5016 N   0  0  0  0  0  0  0  0  0  0  0  0
   -5.9155   31.3812   -2.5759 C   0  0  0  0  0  0  0  0  0  0  0  0
   -7.4690   28.6166   -5.8339 C   0  0  0  0  0  0  0  0  0  0  0  0
   -8.6868   28.7455   -5.3620 O   0  0  0  0  0  0  0  0  0  0  0  0
  1  2  1  0
  2  3  1  0
  3  4  2  0
  4  5  1  0
  2  6  2  0
  5  7  1  0
  6  8  1  0
  8  9  1  0
  4 10  1  0
  8 10  2  0
  7 11  1  0
 11 12  1  0
M  END
>  <ID>  (1) 
conformer_0

$$$$
