
     RDKit          3D

  6  5  0  0  0  0  0  0  0  0999 V2000
  -12.1544   32.5516   -0.3898 O   0  0  0  0  0  0  0  0  0  0  0  0
  -11.7773   33.1998    0.6365 C   0  0  0  0  0  0  0  0  0  0  0  0
  -12.4661   34.0404    1.2768 O   0  0  0  0  0  0  0  0  0  0  0  0
  -10.5124   32.7009    1.2760 C   0  0  0  0  0  0  0  0  0  0  0  0
  -10.5578   32.6083    2.6443 C   0  0  0  0  0  0  0  0  0  0  0  0
   -9.7306   31.5392    3.0620 C   0  0  0  0  0  0  0  0  0  0  0  0
  1  2  2  0
  2  3  1  0
  2  4  1  0
  4  5  1  0
  5  6  1  0
M  END
>  <ID>  (1) 
conformer_0

$$$$
