
     RDKit          3D

  6  6  0  0  0  0  0  0  0  0999 V2000
  -12.1544   32.5516   -0.3898 O   0  0  0  0  0  0  0  0  0  0  0  0
  -11.7773   33.1998    0.6365 C   0  0  0  0  0  0  0  0  0  0  0  0
  -10.5145   33.1232    1.0039 C   0  0  0  0  0  0  0  0  0  0  0  0
  -12.6013   33.6808    1.5177 N   0  0  0  0  0  0  0  0  0  0  0  0
  -11.7542   34.0780    2.5727 C   0  0  0  0  0  0  0  0  0  0  0  0
  -10.4605   33.6801    2.2583 C   0  0  0  0  0  0  0  0  0  0  0  0
  1  2  2  0
  2  3  1  0
  2  4  1  0
  4  5  1  0
  3  6  1  0
  5  6  1  0
M  END
>  <ID>  (1) 
conformer_0

$$$$
