
     RDKit          3D

 11 12  0  0  0  0  0  0  0  0999 V2000
   -2.6012   29.8758   -1.6554 N   0  0  0  0  0  0  0  0  0  0  0  0
   -3.2890   30.6438   -1.0027 C   0  0  0  0  0  0  0  0  0  0  0  0
   -3.1237   30.9250    0.3731 O   0  0  0  0  0  0  0  0  0  0  0  0
   -3.1212   29.6672   -2.9672 C   0  0  0  0  0  0  0  0  0  0  0  0
   -2.4143   28.7422   -3.8551 C   0  0  0  0  0  0  0  0  0  0  0  0
   -4.1713   30.3721   -3.5369 C   0  0  0  0  0  0  0  0  0  0  0  0
   -3.0638   28.7495   -5.1609 C   0  0  0  0  0  0  0  0  0  0  0  0
   -4.5229   31.5245   -1.5960 C   0  0  0  0  0  0  0  0  0  0  0  0
   -4.7649   31.0871   -2.6869 C   0  0  0  0  0  0  0  0  0  0  0  0
   -4.4086   29.8211   -4.8271 C   0  0  0  0  0  0  0  0  0  0  0  0
   -3.6083   27.6606   -5.7135 O   0  0  0  0  0  0  0  0  0  0  0  0
  1  2  2  0
  2  3  1  0
  1  4  1  0
  4  5  2  0
  4  6  1  0
  5  7  1  0
  2  8  1  0
  6  9  1  0
  8  9  2  0
  6 10  1  0
  7 10  1  0
  7 11  1  0
M  END
>  <ID>  (1) 
conformer_0

$$$$
