
     RDKit          3D

 11 12  0  0  0  0  0  0  0  0999 V2000
   -2.6216   29.8347   -1.3198 N   0  0  0  0  0  0  0  0  0  0  0  0
   -2.6853   29.5343   -2.5678 C   0  0  0  0  0  0  0  0  0  0  0  0
   -1.9315   28.5989   -3.1419 N   0  0  0  0  0  0  0  0  0  0  0  0
   -3.5105   30.7903   -0.9078 C   0  0  0  0  0  0  0  0  0  0  0  0
   -3.5430   31.2438    0.4130 N   0  0  0  0  0  0  0  0  0  0  0  0
   -4.5148   31.0967   -1.9643 C   0  0  0  0  0  0  0  0  0  0  0  0
   -3.8238   30.0669   -3.2311 C   0  0  0  0  0  0  0  0  0  0  0  0
   -3.9889   29.7870   -4.5438 C   0  0  0  0  0  0  0  0  0  0  0  0
   -2.3608   28.4945   -4.5751 C   0  0  0  0  0  0  0  0  0  0  0  0
   -1.4364   27.5672   -5.2808 O   0  0  0  0  0  0  0  0  0  0  0  0
   -3.3458   28.9588   -5.1782 C   0  0  0  0  0  0  0  0  0  0  0  0
  1  2  1  0
  2  3  2  0
  1  4  2  0
  4  5  1  0
  4  6  1  0
  2  7  1  0
  6  7  2  0
  7  8  1  0
  3  9  1  0
  9 10  2  0
  8 11  2  0
  9 11  1  0
M  END
>  <ID>  (1) 
conformer_0

$$$$
