
     RDKit          3D

  9  9  0  0  0  0  0  0  0  0999 V2000
  -12.4852   33.3596    0.2430 O   0  0  0  0  0  0  0  0  0  0  0  0
  -11.4287   32.8521    0.2360 C   0  0  0  0  0  0  0  0  0  0  0  0
  -10.7791   32.4540   -0.7547 C   0  0  0  0  0  0  0  0  0  0  0  0
  -11.3955   32.3368   -2.1195 O   0  0  0  0  0  0  0  0  0  0  0  0
  -10.6522   31.8285   -3.1626 C   0  0  0  0  0  0  0  0  0  0  0  0
  -10.8608   32.6719    1.6315 C   0  0  0  0  0  0  0  0  0  0  0  0
   -9.6034   32.0305    1.7316 C   0  0  0  0  0  0  0  0  0  0  0  0
   -8.9872   31.5061    0.6266 C   0  0  0  0  0  0  0  0  0  0  0  0
   -9.4553   31.6660   -0.7346 C   0  0  0  0  0  0  0  0  0  0  0  0
  1  2  1  0
  2  3  2  0
  3  4  1  0
  4  5  1  0
  2  6  1  0
  6  7  2  0
  7  8  1  0
  3  9  1  0
  8  9  2  0
M  END
>  <ID>  (1) 
conformer_0

$$$$
