
     RDKit          3D

 14 15  0  0  0  0  0  0  0  0999 V2000
   -2.6216   29.8347   -1.3198 N   0  0  0  0  0  0  0  0  0  0  0  0
   -2.6853   29.5343   -2.5678 C   0  0  0  0  0  0  0  0  0  0  0  0
   -3.6250   30.0104   -3.3145 C   0  0  0  0  0  0  0  0  0  0  0  0
   -3.8320   29.4926   -4.6742 C   0  0  0  0  0  0  0  0  0  0  0  0
   -3.5817   30.7753   -1.0414 N   0  0  0  0  0  0  0  0  0  0  0  0
   -5.0530   28.9878   -4.9356 N   0  0  0  0  0  0  0  0  0  0  0  0
   -3.0302   29.8118   -5.5773 O   0  0  0  0  0  0  0  0  0  0  0  0
   -5.2341   27.8368   -5.5659 C   0  0  0  0  0  0  0  0  0  0  0  0
   -6.2055   29.7575   -4.6250 C   0  0  0  0  0  0  0  0  0  0  0  0
   -4.2436   30.8390   -2.2946 C   0  0  0  0  0  0  0  0  0  0  0  0
   -6.4624   27.8071   -6.4919 C   0  0  0  0  0  0  0  0  0  0  0  0
   -7.4033   28.9285   -4.8778 C   0  0  0  0  0  0  0  0  0  0  0  0
   -6.4853   26.7301   -7.3068 O   0  0  0  0  0  0  0  0  0  0  0  0
   -7.6687   28.0247   -5.7810 C   0  0  0  0  0  0  0  0  0  0  0  0
  1  2  2  0
  2  3  1  0
  3  4  1  0
  1  5  1  0
  4  6  1  0
  4  7  2  0
  6  8  1  0
  6  9  1  0
  3 10  2  0
  5 10  2  0
  8 11  1  0
  9 12  1  0
 11 13  1  0
 11 14  1  0
 12 14  1  0
M  END
>  <ID>  (1) 
conformer_0

$$$$
