
     RDKit          3D

 15 15  0  0  0  0  0  0  0  0999 V2000
  -10.8718   31.7785   -2.3215 N   0  0  0  0  0  0  0  0  0  0  0  0
  -10.4208   31.3283   -3.4771 C   0  0  0  0  0  0  0  0  0  0  0  0
  -10.0942   32.2248   -1.4600 C   0  0  0  0  0  0  0  0  0  0  0  0
  -10.3886   31.9105   -0.0506 O   0  0  0  0  0  0  0  0  0  0  0  0
  -10.8108   32.9135    0.8918 C   0  0  0  0  0  0  0  0  0  0  0  0
   -9.1355   30.6208   -3.3637 C   0  0  0  0  0  0  0  0  0  0  0  0
   -8.8824   29.5759   -4.3902 C   0  0  0  0  0  0  0  0  0  0  0  0
  -10.9589   31.3517   -4.6439 O   0  0  0  0  0  0  0  0  0  0  0  0
  -12.1401   33.2946    0.5922 C   0  0  0  0  0  0  0  0  0  0  0  0
   -8.0200   31.0963   -2.6656 C   0  0  0  0  0  0  0  0  0  0  0  0
   -9.8703   28.9765   -5.1902 C   0  0  0  0  0  0  0  0  0  0  0  0
  -12.3593   34.6158    0.7701 O   0  0  0  0  0  0  0  0  0  0  0  0
   -6.7932   30.6920   -2.7365 C   0  0  0  0  0  0  0  0  0  0  0  0
   -6.5006   29.5880   -3.6040 C   0  0  0  0  0  0  0  0  0  0  0  0
   -7.3630   29.0234   -4.4524 C   0  0  0  0  0  0  0  0  0  0  0  0
  1  2  1  0
  1  3  1  0
  3  4  1  0
  4  5  1  0
  2  6  1  0
  6  7  2  0
  2  8  2  0
  5  9  1  0
  6 10  1  0
  7 11  1  0
  9 12  1  0
 10 13  2  0
 13 14  1  0
  7 15  1  0
 14 15  2  0
M  END
>  <ID>  (1) 
conformer_0

$$$$
