
     RDKit          3D

 10 11  0  0  0  0  0  0  0  0999 V2000
   -2.6012   29.8758   -1.6554 C   0  0  0  0  0  0  0  0  0  0  0  0
   -3.3723   29.9872   -2.8266 C   0  0  0  0  0  0  0  0  0  0  0  0
   -3.2930   29.1966   -3.9868 N   0  0  0  0  0  0  0  0  0  0  0  0
   -4.3815   31.0049   -2.8188 C   0  0  0  0  0  0  0  0  0  0  0  0
   -2.3906   28.3448   -4.2625 C   0  0  0  0  0  0  0  0  0  0  0  0
   -2.9760   30.5851   -0.5821 N   0  0  0  0  0  0  0  0  0  0  0  0
   -5.2004   30.9394   -3.9687 N   0  0  0  0  0  0  0  0  0  0  0  0
   -4.1424   31.5054   -0.9238 C   0  0  0  0  0  0  0  0  0  0  0  0
   -5.0045   32.0570   -0.3203 N   0  0  0  0  0  0  0  0  0  0  0  0
   -4.3905   29.7062   -4.8962 S   0  0  0  0  0  0  0  0  0  0  0  0
  1  2  1  0
  2  3  1  0
  2  4  2  0
  3  5  1  0
  1  6  2  0
  4  7  1  0
  4  8  1  0
  6  8  1  0
  8  9  1  0
  3 10  1  0
  7 10  2  0
M  END
>  <ID>  (1) 
conformer_0

$$$$
