
     RDKit          3D

 12 13  0  0  0  0  0  0  0  0999 V2000
   -2.6012   29.8758   -1.6554 N   0  0  0  0  0  0  0  0  0  0  0  0
   -3.2890   30.6438   -1.0027 C   0  0  0  0  0  0  0  0  0  0  0  0
   -3.2534   29.7679   -2.9328 C   0  0  0  0  0  0  0  0  0  0  0  0
   -2.7869   28.8374   -3.9595 N   0  0  0  0  0  0  0  0  0  0  0  0
   -4.3593   30.5242   -3.0063 C   0  0  0  0  0  0  0  0  0  0  0  0
   -3.1450   31.0229    0.3288 N   0  0  0  0  0  0  0  0  0  0  0  0
   -4.4762   31.1356   -1.7120 N   0  0  0  0  0  0  0  0  0  0  0  0
   -1.6164   28.0995   -3.8128 O   0  0  0  0  0  0  0  0  0  0  0  0
   -5.2708   30.4324   -4.0277 C   0  0  0  0  0  0  0  0  0  0  0  0
   -3.6122   28.5322   -4.9808 C   0  0  0  0  0  0  0  0  0  0  0  0
   -3.4223   27.8003   -5.9425 O   0  0  0  0  0  0  0  0  0  0  0  0
   -4.9334   29.4659   -5.0536 C   0  0  0  0  0  0  0  0  0  0  0  0
  1  2  2  0
  1  3  1  0
  3  4  1  0
  3  5  2  0
  2  6  1  0
  2  7  1  0
  5  7  1  0
  4  8  1  0
  5  9  1  0
  4 10  1  0
 10 11  2  0
  9 12  2  0
 10 12  1  0
M  END
>  <ID>  (1) 
conformer_0

$$$$
