
     RDKit          3D

 24 29  0  0  0  0  0  0  0  0999 V2000
   -2.6012   29.8758   -1.6554 N   0  0  0  0  0  0  0  0  0  0  0  0
   -2.8878   29.5108   -2.9353 C   0  0  0  0  0  0  0  0  0  0  0  0
   -3.5152   30.7625   -1.2214 C   0  0  0  0  0  0  0  0  0  0  0  0
   -4.5097   31.0778   -2.2113 C   0  0  0  0  0  0  0  0  0  0  0  0
   -5.6639   31.7379   -2.0591 C   0  0  0  0  0  0  0  0  0  0  0  0
   -2.2703   28.5675   -3.7496 C   0  0  0  0  0  0  0  0  0  0  0  0
   -5.5948   32.9380   -1.4384 C   0  0  0  0  0  0  0  0  0  0  0  0
   -4.1127   30.2206   -3.2862 C   0  0  0  0  0  0  0  0  0  0  0  0
   -6.7397   33.7418   -1.3541 C   0  0  0  0  0  0  0  0  0  0  0  0
   -2.7493   28.3757   -5.0197 C   0  0  0  0  0  0  0  0  0  0  0  0
   -4.5405   29.9121   -4.6108 C   0  0  0  0  0  0  0  0  0  0  0  0
   -5.7489   30.4382   -5.0471 O   0  0  0  0  0  0  0  0  0  0  0  0
   -6.8329   29.9880   -4.2585 C   0  0  0  0  0  0  0  0  0  0  0  0
   -7.4094   30.6753   -3.3760 N   0  0  0  0  0  0  0  0  0  0  0  0
   -6.6675   35.2218   -0.9295 C   0  0  0  0  0  0  0  0  0  0  0  0
   -3.9912   28.9283   -5.4312 C   0  0  0  0  0  0  0  0  0  0  0  0
   -6.8519   31.4214   -2.5561 C   0  0  0  0  0  0  0  0  0  0  0  0
   -8.8122   30.4858   -3.0777 C   0  0  0  0  0  0  0  0  0  0  0  0
   -7.7449   29.2383   -5.1531 C   0  0  0  0  0  0  0  0  0  0  0  0
   -9.5664   29.6107   -3.9765 N   0  0  0  0  0  0  0  0  0  0  0  0
   -9.3868   31.1126   -2.0605 C   0  0  0  0  0  0  0  0  0  0  0  0
   -8.1623   32.1677   -1.9176 C   0  0  0  0  0  0  0  0  0  0  0  0
   -7.9581   33.2630   -1.2907 C   0  0  0  0  0  0  0  0  0  0  0  0
   -9.0200   29.0808   -4.9202 C   0  0  0  0  0  0  0  0  0  0  0  0
  1  2  1  0
  1  3  2  0
  3  4  1  0
  4  5  1  0
  2  6  2  0
  5  7  1  0
  2  8  1  0
  4  8  2  0
  7  9  2  0
  6 10  1  0
  8 11  1  0
 11 12  1  0
 12 13  1  0
 13 14  1  0
  9 15  1  0
 10 16  1  0
 11 16  2  0
  5 17  2  0
 14 17  1  0
 14 18  1  0
 13 19  1  0
 18 20  2  0
 18 21  1  0
 17 22  1  0
 21 22  1  0
  9 23  1  0
 22 23  2  0
 19 24  2  0
 20 24  1  0
M  END
>  <ID>  (1) 
conformer_0

$$$$
