
     RDKit          3D

 12 13  0  0  0  0  0  0  0  0999 V2000
   -2.2427   29.6761   -1.8475 N   0  0  0  0  0  0  0  0  0  0  0  0
   -3.0137   30.4410   -1.2100 C   0  0  0  0  0  0  0  0  0  0  0  0
   -4.1987   31.0061   -1.8277 C   0  0  0  0  0  0  0  0  0  0  0  0
   -4.5804   30.3997   -2.8759 C   0  0  0  0  0  0  0  0  0  0  0  0
   -3.8664   29.4416   -3.3781 C   0  0  0  0  0  0  0  0  0  0  0  0
   -5.8371   30.7507   -3.4873 N   0  0  0  0  0  0  0  0  0  0  0  0
   -4.7761   32.0224   -1.4365 N   0  0  0  0  0  0  0  0  0  0  0  0
   -4.4334   28.7196   -4.6141 C   0  0  0  0  0  0  0  0  0  0  0  0
   -6.3296   30.0632   -4.4460 C   0  0  0  0  0  0  0  0  0  0  0  0
   -5.6048   29.0550   -5.1017 N   0  0  0  0  0  0  0  0  0  0  0  0
   -2.5493   29.0311   -2.8677 C   0  0  0  0  0  0  0  0  0  0  0  0
   -2.7395   31.1514   -0.0284 O   0  0  0  0  0  0  0  0  0  0  0  0
  1  2  1  0
  2  3  1  0
  3  4  1  0
  4  5  2  0
  4  6  1  0
  3  7  2  0
  5  8  1  0
  6  9  2  0
  8 10  2  0
  9 10  1  0
  1 11  2  0
  5 11  1  0
  2 12  2  0
M  END
>  <ID>  (1) 
conformer_0

$$$$
