
     RDKit          3D

  9 10  0  0  0  0  0  0  0  0999 V2000
   -2.6216   29.8347   -1.3198 N   0  0  0  0  0  0  0  0  0  0  0  0
   -3.3962   30.7379   -0.9032 C   0  0  0  0  0  0  0  0  0  0  0  0
   -2.8894   29.6394   -2.7055 C   0  0  0  0  0  0  0  0  0  0  0  0
   -2.1668   28.6646   -3.4493 N   0  0  0  0  0  0  0  0  0  0  0  0
   -4.3483   31.2661   -1.8309 N   0  0  0  0  0  0  0  0  0  0  0  0
   -3.9368   30.4683   -2.9667 C   0  0  0  0  0  0  0  0  0  0  0  0
   -2.7091   28.6230   -4.7338 C   0  0  0  0  0  0  0  0  0  0  0  0
   -4.3859   30.2817   -4.2860 C   0  0  0  0  0  0  0  0  0  0  0  0
   -3.7767   29.3827   -5.1313 N   0  0  0  0  0  0  0  0  0  0  0  0
  1  2  2  0
  1  3  1  0
  3  4  1  0
  2  5  1  0
  3  6  2  0
  5  6  1  0
  4  7  2  0
  6  8  1  0
  7  9  1  0
  8  9  2  0
M  END
>  <ID>  (1) 
conformer_0

$$$$
