
     RDKit          3D

 24 26  0  0  0  0  0  0  0  0999 V2000
  -11.2014   31.9010   -2.5285 O   0  0  0  0  0  0  0  0  0  0  0  0
  -10.0315   31.6327   -1.9780 C   0  0  0  0  0  0  0  0  0  0  0  0
   -9.0842   30.9730   -2.8007 C   0  0  0  0  0  0  0  0  0  0  0  0
   -9.5488   30.0527   -3.8707 C   0  0  0  0  0  0  0  0  0  0  0  0
   -7.7309   30.9017   -2.5720 C   0  0  0  0  0  0  0  0  0  0  0  0
   -6.8405   30.1996   -3.2688 C   0  0  0  0  0  0  0  0  0  0  0  0
   -9.7469   32.0248   -0.8233 O   0  0  0  0  0  0  0  0  0  0  0  0
  -10.9685   29.9572   -4.2131 O   0  0  0  0  0  0  0  0  0  0  0  0
  -10.6031   32.8147   -0.0126 C   0  0  0  0  0  0  0  0  0  0  0  0
   -5.4595   30.2464   -2.9561 N   0  0  0  0  0  0  0  0  0  0  0  0
  -10.5048   34.0347    0.2039 C   0  0  0  0  0  0  0  0  0  0  0  0
   -8.5867   29.2489   -4.5817 C   0  0  0  0  0  0  0  0  0  0  0  0
  -11.6460   32.1966    0.6984 C   0  0  0  0  0  0  0  0  0  0  0  0
   -4.6208   29.5899   -3.7957 C   0  0  0  0  0  0  0  0  0  0  0  0
  -12.4339   33.1311    1.4131 C   0  0  0  0  0  0  0  0  0  0  0  0
  -12.3181   34.3641    1.5780 C   0  0  0  0  0  0  0  0  0  0  0  0
   -3.1955   29.5525   -3.6949 C   0  0  0  0  0  0  0  0  0  0  0  0
   -5.1243   28.7944   -4.9359 C   0  0  0  0  0  0  0  0  0  0  0  0
   -2.6690   29.5109   -2.5616 O   0  0  0  0  0  0  0  0  0  0  0  0
  -10.9340   34.9236    0.8398 C   0  0  0  0  0  0  0  0  0  0  0  0
   -7.2750   29.3402   -4.2622 C   0  0  0  0  0  0  0  0  0  0  0  0
   -6.4403   28.6577   -5.1206 N   0  0  0  0  0  0  0  0  0  0  0  0
   -4.0959   28.1582   -5.5910 O   0  0  0  0  0  0  0  0  0  0  0  0
   -2.4073   30.0494   -4.5852 O   0  0  0  0  0  0  0  0  0  0  0  0
  1  2  2  0
  2  3  1  0
  3  4  1  0
  3  5  2  0
  5  6  1  0
  2  7  1  0
  4  8  1  0
  7  9  1  0
  6 10  1  0
  9 11  1  0
  4 12  2  0
  9 13  2  0
 10 14  2  0
 13 15  1  0
 15 16  2  0
 14 17  1  0
 14 18  1  0
 17 19  1  0
 11 20  2  0
 16 20  1  0
  6 21  2  0
 12 21  1  0
 18 22  1  0
 21 22  1  0
 18 23  2  0
 17 24  2  0
M  END
>  <ID>  (1) 
conformer_0

$$$$
