
     RDKit          3D

  3  2  0  0  0  0  0  0  0  0999 V2000
   -7.3318   34.7758   -1.4073 C   0  0  0  0  0  0  0  0  0  0  0  0
   -8.0285   35.1951   -0.5622 C   0  0  0  0  0  0  0  0  0  0  0  0
   -9.0207   35.6657    0.1872 C   0  0  0  0  0  0  0  0  0  0  0  0
  1  2  3  0
  2  3  1  0
M  END
>  <ID>  (1) 
conformer_0

$$$$
