
     RDKit          3D

 11 12  0  0  0  0  0  0  0  0999 V2000
   -2.6959   30.0149   -1.2197 N   0  0  0  0  0  0  0  0  0  0  0  0
   -3.5750   30.4194   -2.0464 C   0  0  0  0  0  0  0  0  0  0  0  0
   -3.5885   29.9987   -3.2594 N   0  0  0  0  0  0  0  0  0  0  0  0
   -2.6769   29.1433   -3.8120 C   0  0  0  0  0  0  0  0  0  0  0  0
   -3.1657   28.3753   -4.8863 C   0  0  0  0  0  0  0  0  0  0  0  0
   -4.6133   31.1901   -1.4996 N   0  0  0  0  0  0  0  0  0  0  0  0
   -4.4368   29.1032   -5.2318 C   0  0  0  0  0  0  0  0  0  0  0  0
   -4.5682   31.5950   -0.2542 C   0  0  0  0  0  0  0  0  0  0  0  0
   -3.5957   31.2146    0.6056 N   0  0  0  0  0  0  0  0  0  0  0  0
   -4.5272   30.2877   -4.3016 C   0  0  0  0  0  0  0  0  0  0  0  0
   -2.7066   30.3685    0.0999 C   0  0  0  0  0  0  0  0  0  0  0  0
  1  2  1  0
  2  3  1  0
  3  4  1  0
  4  5  2  0
  2  6  2  0
  5  7  1  0
  6  8  1  0
  8  9  2  0
  3 10  1  0
  7 10  2  0
  1 11  2  0
  9 11  1  0
M  END
>  <ID>  (1) 
conformer_0

$$$$
