
     RDKit          3D

 16 17  0  0  0  0  0  0  0  0999 V2000
  -11.2014   31.9010   -2.5285 O   0  0  0  0  0  0  0  0  0  0  0  0
  -10.0315   31.6327   -1.9780 C   0  0  0  0  0  0  0  0  0  0  0  0
   -9.0842   30.9730   -2.8007 C   0  0  0  0  0  0  0  0  0  0  0  0
   -9.5488   30.0527   -3.8707 C   0  0  0  0  0  0  0  0  0  0  0  0
   -7.7309   30.9017   -2.5720 C   0  0  0  0  0  0  0  0  0  0  0  0
   -6.8405   30.1996   -3.2688 C   0  0  0  0  0  0  0  0  0  0  0  0
  -10.9821   29.9110   -4.0969 O   0  0  0  0  0  0  0  0  0  0  0  0
   -5.4925   30.2196   -2.9430 N   0  0  0  0  0  0  0  0  0  0  0  0
   -4.5835   29.5554   -3.7735 C   0  0  0  0  0  0  0  0  0  0  0  0
   -9.7071   32.0512   -0.8618 O   0  0  0  0  0  0  0  0  0  0  0  0
   -8.6211   29.2005   -4.5551 C   0  0  0  0  0  0  0  0  0  0  0  0
   -4.6419   30.7582   -2.0357 C   0  0  0  0  0  0  0  0  0  0  0  0
   -7.2482   29.2897   -4.2115 C   0  0  0  0  0  0  0  0  0  0  0  0
   -3.3645   30.4957   -2.2985 N   0  0  0  0  0  0  0  0  0  0  0  0
   -3.2060   29.6547   -3.2778 N   0  0  0  0  0  0  0  0  0  0  0  0
   -5.1578   31.8957   -1.2391 N   0  0  0  0  0  0  0  0  0  0  0  0
  1  2  2  0
  2  3  1  0
  3  4  1  0
  3  5  2  0
  5  6  1  0
  4  7  1  0
  6  8  1  0
  8  9  1  0
  2 10  1  0
  4 11  2  0
  8 12  1  0
  6 13  2  0
 11 13  1  0
 12 14  2  0
  9 15  2  0
 14 15  1  0
 12 16  1  0
M  END
>  <ID>  (1) 
conformer_0

$$$$
