
     RDKit          3D

  5  5  0  0  0  0  0  0  0  0999 V2000
   -2.6216   29.8347   -1.3198 N   0  0  0  0  0  0  0  0  0  0  0  0
   -2.6853   29.5343   -2.5678 C   0  0  0  0  0  0  0  0  0  0  0  0
   -3.5225   30.8311   -0.9880 N   0  0  0  0  0  0  0  0  0  0  0  0
   -4.3814   31.3131   -1.7168 C   0  0  0  0  0  0  0  0  0  0  0  0
   -3.8072   30.3237   -3.2317 S   0  0  0  0  0  0  0  0  0  0  0  0
  1  2  2  0
  1  3  1  0
  3  4  2  0
  2  5  1  0
  4  5  1  0
M  END
>  <ID>  (1) 
conformer_0

$$$$
