
     RDKit          3D

 11 12  0  0  0  0  0  0  0  0999 V2000
   -2.6012   29.8758   -1.6554 N   0  0  0  0  0  0  0  0  0  0  0  0
   -3.2890   30.6438   -1.0027 C   0  0  0  0  0  0  0  0  0  0  0  0
   -3.1237   30.9250    0.3731 O   0  0  0  0  0  0  0  0  0  0  0  0
   -3.1212   29.6672   -2.9672 C   0  0  0  0  0  0  0  0  0  0  0  0
   -2.4143   28.7422   -3.8551 C   0  0  0  0  0  0  0  0  0  0  0  0
   -3.0398   28.5299   -5.1335 C   0  0  0  0  0  0  0  0  0  0  0  0
   -4.2614   30.2444   -3.2876 C   0  0  0  0  0  0  0  0  0  0  0  0
   -4.9768   29.8077   -4.2272 C   0  0  0  0  0  0  0  0  0  0  0  0
   -2.4863   27.6711   -6.0736 O   0  0  0  0  0  0  0  0  0  0  0  0
   -4.4175   28.8741   -5.2263 C   0  0  0  0  0  0  0  0  0  0  0  0
   -4.6369   31.1420   -1.8137 C   0  0  0  0  0  0  0  0  0  0  0  0
  1  2  2  0
  2  3  1  0
  1  4  1  0
  4  5  2  0
  5  6  1  0
  4  7  1  0
  7  8  2  0
  6  9  1  0
  6 10  2  0
  8 10  1  0
  2 11  1  0
  7 11  1  0
M  END
>  <ID>  (1) 
conformer_0

$$$$
