
     RDKit          3D

 21 23  0  0  0  0  0  0  0  0999 V2000
   -2.2427   29.6761   -1.8475 N   0  0  0  0  0  0  0  0  0  0  0  0
   -2.6674   29.3944   -3.1694 C   0  0  0  0  0  0  0  0  0  0  0  0
   -3.1053   30.4589   -1.2593 C   0  0  0  0  0  0  0  0  0  0  0  0
   -3.8001   29.7521   -3.7780 C   0  0  0  0  0  0  0  0  0  0  0  0
   -4.2286   29.2035   -5.0972 C   0  0  0  0  0  0  0  0  0  0  0  0
   -4.6062   30.5455   -2.8526 C   0  0  0  0  0  0  0  0  0  0  0  0
   -5.9636   30.7954   -3.3951 N   0  0  0  0  0  0  0  0  0  0  0  0
   -5.3132   28.3401   -5.0764 N   0  0  0  0  0  0  0  0  0  0  0  0
   -6.7952   31.5202   -2.5358 C   0  0  0  0  0  0  0  0  0  0  0  0
   -3.2677   29.1531   -5.8599 O   0  0  0  0  0  0  0  0  0  0  0  0
   -8.1945   31.7220   -2.8720 C   0  0  0  0  0  0  0  0  0  0  0  0
   -8.9274   32.6796   -2.3792 C   0  0  0  0  0  0  0  0  0  0  0  0
   -8.7265   30.6135   -3.6870 C   0  0  0  0  0  0  0  0  0  0  0  0
   -8.0315   29.4449   -4.2814 C   0  0  0  0  0  0  0  0  0  0  0  0
   -5.7296   27.7234   -6.2774 C   0  0  0  0  0  0  0  0  0  0  0  0
   -8.6556   28.5485   -4.9640 N   0  0  0  0  0  0  0  0  0  0  0  0
   -7.0819   27.4728   -6.2550 C   0  0  0  0  0  0  0  0  0  0  0  0
   -8.3783   28.4269   -6.3117 C   0  0  0  0  0  0  0  0  0  0  0  0
   -4.2895   30.9038   -1.6757 C   0  0  0  0  0  0  0  0  0  0  0  0
  -10.2887   32.4956   -2.4461 C   0  0  0  0  0  0  0  0  0  0  0  0
  -10.2702   30.7095   -3.5580 C   0  0  0  0  0  0  0  0  0  0  0  0
  1  2  1  0
  1  3  2  0
  2  4  2  0
  4  5  1  0
  4  6  1  0
  6  7  1  0
  5  8  1  0
  7  9  2  0
  5 10  2  0
  9 11  1  0
 11 12  1  0
 11 13  2  0
 13 14  1  0
  8 15  1  0
 14 16  1  0
 15 17  1  0
 16 18  1  0
 17 18  1  0
  3 19  1  0
  6 19  2  0
 12 20  2  0
 13 21  1  0
 20 21  1  0
M  END
>  <ID>  (1) 
conformer_0

$$$$
