
     RDKit          3D

 11 11  0  0  0  0  0  0  0  0999 V2000
   -2.6959   30.0149   -1.2197 N   0  0  0  0  0  0  0  0  0  0  0  0
   -3.5750   30.4194   -2.0464 C   0  0  0  0  0  0  0  0  0  0  0  0
   -3.7551   29.7883   -3.2852 C   0  0  0  0  0  0  0  0  0  0  0  0
   -2.8136   28.9997   -3.8431 C   0  0  0  0  0  0  0  0  0  0  0  0
   -4.4878   31.4236   -1.5587 C   0  0  0  0  0  0  0  0  0  0  0  0
   -4.3624   32.1043   -0.3938 C   0  0  0  0  0  0  0  0  0  0  0  0
   -4.9139   30.0761   -4.0228 C   0  0  0  0  0  0  0  0  0  0  0  0
   -1.5495   29.1317   -3.4389 O   0  0  0  0  0  0  0  0  0  0  0  0
   -3.0708   28.1709   -4.7872 N   0  0  0  0  0  0  0  0  0  0  0  0
   -5.5981   31.4080   -2.2714 C   0  0  0  0  0  0  0  0  0  0  0  0
   -5.7581   30.7943   -3.4940 N   0  0  0  0  0  0  0  0  0  0  0  0
  1  2  1  0
  2  3  2  0
  3  4  1  0
  2  5  1  0
  5  6  1  0
  3  7  1  0
  4  8  2  0
  4  9  1  0
  5 10  2  0
  7 11  2  0
 10 11  1  0
M  END
>  <ID>  (1) 
conformer_0

$$$$
