
     RDKit          3D

 22 26  0  0  0  0  0  0  0  0999 V2000
   -2.6012   29.8758   -1.6554 N   0  0  0  0  0  0  0  0  0  0  0  0
   -2.8878   29.5108   -2.9353 C   0  0  0  0  0  0  0  0  0  0  0  0
   -3.5152   30.7625   -1.2214 C   0  0  0  0  0  0  0  0  0  0  0  0
   -4.5097   31.0778   -2.2113 C   0  0  0  0  0  0  0  0  0  0  0  0
   -5.6639   31.7379   -2.0591 C   0  0  0  0  0  0  0  0  0  0  0  0
   -2.2703   28.5675   -3.7496 C   0  0  0  0  0  0  0  0  0  0  0  0
   -5.5948   32.9380   -1.4384 C   0  0  0  0  0  0  0  0  0  0  0  0
   -4.1127   30.2206   -3.2862 C   0  0  0  0  0  0  0  0  0  0  0  0
   -6.7397   33.7418   -1.3541 C   0  0  0  0  0  0  0  0  0  0  0  0
   -2.7493   28.3757   -5.0197 C   0  0  0  0  0  0  0  0  0  0  0  0
   -4.5405   29.9121   -4.6108 C   0  0  0  0  0  0  0  0  0  0  0  0
   -5.7489   30.4382   -5.0471 O   0  0  0  0  0  0  0  0  0  0  0  0
   -6.8329   29.9880   -4.2585 C   0  0  0  0  0  0  0  0  0  0  0  0
   -7.4094   30.6753   -3.3760 N   0  0  0  0  0  0  0  0  0  0  0  0
   -6.6675   35.2218   -0.9295 C   0  0  0  0  0  0  0  0  0  0  0  0
   -3.9912   28.9283   -5.4312 C   0  0  0  0  0  0  0  0  0  0  0  0
   -7.5686   28.9424   -4.8823 C   0  0  0  0  0  0  0  0  0  0  0  0
   -7.8738   33.1284   -2.0197 C   0  0  0  0  0  0  0  0  0  0  0  0
   -7.0316   31.4613   -2.5210 C   0  0  0  0  0  0  0  0  0  0  0  0
   -8.7866   28.9667   -4.1057 C   0  0  0  0  0  0  0  0  0  0  0  0
   -9.0300   33.1457   -2.1392 O   0  0  0  0  0  0  0  0  0  0  0  0
   -8.7903   30.0561   -2.9942 C   0  0  0  0  0  0  0  0  0  0  0  0
  1  2  1  0
  1  3  2  0
  3  4  1  0
  4  5  1  0
  2  6  2  0
  5  7  1  0
  2  8  1  0
  4  8  2  0
  7  9  2  0
  6 10  1  0
  8 11  1  0
 11 12  1  0
 12 13  1  0
 13 14  1  0
  9 15  1  0
 10 16  1  0
 11 16  2  0
 13 17  2  0
  9 18  1  0
  5 19  2  0
 14 19  1  0
 18 19  1  0
 17 20  1  0
 18 21  2  0
 14 22  1  0
 20 22  2  0
M  END
>  <ID>  (1) 
conformer_0

$$$$
