
     RDKit          3D

 28 33  0  0  0  0  0  0  0  0999 V2000
   -6.9842   34.5810   -1.8638 C   0  0  0  0  0  0  0  0  0  0  0  0
   -7.4207   35.3763   -0.9490 C   0  0  0  0  0  0  0  0  0  0  0  0
   -5.6502   34.4416   -2.0488 C   0  0  0  0  0  0  0  0  0  0  0  0
   -8.5375   35.4286   -0.3607 C   0  0  0  0  0  0  0  0  0  0  0  0
   -7.8489   33.5102   -2.0198 C   0  0  0  0  0  0  0  0  0  0  0  0
   -9.0208   36.4125    0.4624 C   0  0  0  0  0  0  0  0  0  0  0  0
   -5.0868   33.1569   -2.1521 C   0  0  0  0  0  0  0  0  0  0  0  0
   -7.4800   32.4357   -2.9637 C   0  0  0  0  0  0  0  0  0  0  0  0
   -3.8429   32.9859   -2.2954 N   0  0  0  0  0  0  0  0  0  0  0  0
   -8.1618   31.4382   -3.4306 C   0  0  0  0  0  0  0  0  0  0  0  0
   -7.7502   30.3402   -4.0948 C   0  0  0  0  0  0  0  0  0  0  0  0
   -3.3641   31.7431   -1.7169 C   0  0  0  0  0  0  0  0  0  0  0  0
   -9.6688   31.3435   -2.8362 C   0  0  0  0  0  0  0  0  0  0  0  0
   -3.4033   31.5444   -0.4367 N   0  0  0  0  0  0  0  0  0  0  0  0
  -10.0813   31.7269   -1.7362 N   0  0  0  0  0  0  0  0  0  0  0  0
   -9.7024   32.2974   -0.6838 C   0  0  0  0  0  0  0  0  0  0  0  0
   -2.9520   30.6227   -2.4899 C   0  0  0  0  0  0  0  0  0  0  0  0
   -5.8490   32.3094   -3.1951 C   0  0  0  0  0  0  0  0  0  0  0  0
   -2.9824   30.1869   -0.2886 N   0  0  0  0  0  0  0  0  0  0  0  0
   -6.3957   30.1043   -4.2330 C   0  0  0  0  0  0  0  0  0  0  0  0
   -9.4170   34.3130   -0.5711 C   0  0  0  0  0  0  0  0  0  0  0  0
   -2.7208   29.6744   -1.4590 N   0  0  0  0  0  0  0  0  0  0  0  0
   -8.9202   33.2758   -1.0451 C   0  0  0  0  0  0  0  0  0  0  0  0
   -5.5002   31.1433   -3.8295 C   0  0  0  0  0  0  0  0  0  0  0  0
  -10.5145   34.2022    0.0894 C   0  0  0  0  0  0  0  0  0  0  0  0
  -10.5551   32.5226    0.1031 N   0  0  0  0  0  0  0  0  0  0  0  0
  -10.9668   32.0656    1.2369 O   0  0  0  0  0  0  0  0  0  0  0  0
  -10.5833   31.2454   -3.8168 O   0  0  0  0  0  0  0  0  0  0  0  0
  1  2  1  0
  1  3  1  0
  2  4  2  0
  1  5  2  0
  4  6  1  0
  3  7  1  0
  5  8  1  0
  7  9  1  0
  8 10  2  0
 10 11  1  0
  9 12  1  0
 10 13  1  0
 12 14  2  0
 13 15  1  0
 15 16  1  0
 12 17  1  0
  7 18  1  0
  8 18  1  0
 14 19  1  0
 11 20  2  0
  4 21  1  0
 17 22  1  0
 19 22  1  0
  5 23  1  0
 16 23  1  0
 21 23  1  0
 18 24  2  0
 20 24  1  0
 21 25  2  0
 16 26  1  0
 25 26  1  0
 26 27  1  0
 13 28  2  0
M  END
>  <ID>  (1) 
conformer_0

$$$$
