
     RDKit          3D

 18 20  0  0  0  0  0  0  0  0999 V2000
  -10.8718   31.7785   -2.3215 N   0  0  0  0  0  0  0  0  0  0  0  0
  -10.4208   31.3283   -3.4771 C   0  0  0  0  0  0  0  0  0  0  0  0
  -11.0094   31.2450   -4.6300 N   0  0  0  0  0  0  0  0  0  0  0  0
   -8.9678   30.8356   -3.3994 C   0  0  0  0  0  0  0  0  0  0  0  0
   -8.2377   31.3820   -2.4380 C   0  0  0  0  0  0  0  0  0  0  0  0
   -8.8277   31.9625   -1.3339 C   0  0  0  0  0  0  0  0  0  0  0  0
  -10.0235   30.4039   -5.3233 C   0  0  0  0  0  0  0  0  0  0  0  0
  -10.1620   32.1937   -1.2609 C   0  0  0  0  0  0  0  0  0  0  0  0
   -8.8616   30.2813   -4.6837 C   0  0  0  0  0  0  0  0  0  0  0  0
  -10.8217   32.7763   -0.1643 C   0  0  0  0  0  0  0  0  0  0  0  0
  -10.4368   33.7231    0.5250 O   0  0  0  0  0  0  0  0  0  0  0  0
   -7.7308   29.3627   -4.9492 C   0  0  0  0  0  0  0  0  0  0  0  0
  -12.1294   32.5266    0.1071 O   0  0  0  0  0  0  0  0  0  0  0  0
   -7.9722   28.2874   -5.7324 C   0  0  0  0  0  0  0  0  0  0  0  0
   -6.5693   29.4959   -4.4150 C   0  0  0  0  0  0  0  0  0  0  0  0
   -5.6951   28.4496   -5.0254 C   0  0  0  0  0  0  0  0  0  0  0  0
   -6.4131   27.5473   -5.8390 N   0  0  0  0  0  0  0  0  0  0  0  0
   -4.5130   28.2309   -4.8890 O   0  0  0  0  0  0  0  0  0  0  0  0
  1  2  1  0
  2  3  2  0
  2  4  1  0
  4  5  1  0
  5  6  2  0
  3  7  1  0
  1  8  2  0
  6  8  1  0
  4  9  1  0
  7  9  2  0
  8 10  1  0
 10 11  1  0
  9 12  1  0
 10 13  2  0
 12 14  1  0
 12 15  2  0
 15 16  1  0
 14 17  1  0
 16 17  1  0
 16 18  2  0
M  END
>  <ID>  (1) 
conformer_0

$$$$
