
     RDKit          3D

 18 21  0  0  0  0  0  0  0  0999 V2000
  -21.0134   35.0309  -45.8384 C   0  0  0  0  0  0  0  0  0  0  0  0
  -22.1335   35.5984  -46.1438 C   0  0  0  0  0  0  0  0  0  0  0  0
  -23.3375   35.3031  -45.5276 C   0  0  0  0  0  0  0  0  0  0  0  0
  -23.3482   34.3559  -44.5019 C   0  0  0  0  0  0  0  0  0  0  0  0
  -24.6298   33.9653  -43.8682 C   0  0  0  0  0  0  0  0  0  0  0  0
  -22.2454   36.6734  -47.3474 C   0  0  0  0  0  0  0  0  0  0  0  0
  -24.7048   35.8148  -45.8514 C   0  0  0  0  0  0  0  0  0  0  0  0
  -22.1541   33.6337  -44.3551 C   0  0  0  0  0  0  0  0  0  0  0  0
  -24.8251   32.6954  -43.5675 O   0  0  0  0  0  0  0  0  0  0  0  0
  -25.6279   31.8573  -44.2535 C   0  0  0  0  0  0  0  0  0  0  0  0
  -26.9097   32.3178  -44.5757 C   0  0  0  0  0  0  0  0  0  0  0  0
  -22.9163   37.6256  -47.2969 C   0  0  0  0  0  0  0  0  0  0  0  0
  -25.8421   34.3727  -44.5965 N   0  0  0  0  0  0  0  0  0  0  0  0
  -25.7541   35.5767  -45.1437 C   0  0  0  0  0  0  0  0  0  0  0  0
  -24.5601   37.2998  -46.2732 C   0  0  0  0  0  0  0  0  0  0  0  0
  -27.0027   33.6482  -44.4555 C   0  0  0  0  0  0  0  0  0  0  0  0
  -21.0045   34.1899  -44.9600 C   0  0  0  0  0  0  0  0  0  0  0  0
  -27.6549   34.1732  -43.3279 C   0  0  0  0  0  0  0  0  0  0  0  0
  1  2  1  0
  2  3  2  0
  3  4  1  0
  4  5  1  0
  2  6  1  0
  3  7  1  0
  4  8  2  0
  5  9  1  0
  9 10  1  0
 10 11  1  0
  6 12  1  0
  5 13  1  0
  7 14  1  0
 13 14  1  0
  7 15  1  0
 12 15  1  0
 11 16  1  0
 13 16  1  0
  1 17  2  0
  8 17  1  0
 16 18  1  0
M  END
>  <ID>  (1) 
conformer_0

$$$$
