
     RDKit          3D

 20 23  0  0  0  0  0  0  0  0999 V2000
  -22.4781   33.8251  -43.9795 C   0  0  0  0  0  0  0  0  0  0  0  0
  -23.5878   34.1695  -44.5460 C   0  0  0  0  0  0  0  0  0  0  0  0
  -22.2819   32.6837  -43.3356 C   0  0  0  0  0  0  0  0  0  0  0  0
  -21.3857   34.7901  -44.2424 C   0  0  0  0  0  0  0  0  0  0  0  0
  -24.7424   33.2406  -44.2756 C   0  0  0  0  0  0  0  0  0  0  0  0
  -26.0380   33.5798  -44.8007 C   0  0  0  0  0  0  0  0  0  0  0  0
  -20.9024   32.3260  -42.9425 C   0  0  0  0  0  0  0  0  0  0  0  0
  -24.6242   32.0407  -43.5616 C   0  0  0  0  0  0  0  0  0  0  0  0
  -23.3251   31.7922  -43.1022 C   0  0  0  0  0  0  0  0  0  0  0  0
  -26.2946   35.0938  -44.8356 C   0  0  0  0  0  0  0  0  0  0  0  0
  -25.7364   35.7567  -45.9120 N   0  0  0  0  0  0  0  0  0  0  0  0
  -21.2285   35.3763  -45.6223 C   0  0  0  0  0  0  0  0  0  0  0  0
  -22.3869   36.3143  -45.8063 C   0  0  0  0  0  0  0  0  0  0  0  0
  -27.3497   33.1498  -44.0984 C   0  0  0  0  0  0  0  0  0  0  0  0
  -22.4865   36.9608  -47.0424 C   0  0  0  0  0  0  0  0  0  0  0  0
  -24.4790   36.1288  -45.9855 C   0  0  0  0  0  0  0  0  0  0  0  0
  -27.9604   34.1287  -43.5572 O   0  0  0  0  0  0  0  0  0  0  0  0
  -23.5666   35.3965  -45.4567 C   0  0  0  0  0  0  0  0  0  0  0  0
  -27.6660   31.9594  -44.0135 O   0  0  0  0  0  0  0  0  0  0  0  0
  -24.0483   37.0457  -47.0407 C   0  0  0  0  0  0  0  0  0  0  0  0
  1  2  1  0
  1  3  2  0
  1  4  1  0
  2  5  2  0
  5  6  1  0
  3  7  1  0
  5  8  1  0
  3  9  1  0
  8  9  2  0
  6 10  1  0
 10 11  1  0
  4 12  1  0
 12 13  1  0
  6 14  1  0
 13 15  1  0
 11 16  1  0
 14 17  1  0
  2 18  1  0
 13 18  1  0
 16 18  2  0
 14 19  2  0
 15 20  1  0
 16 20  1  0
M  END
>  <ID>  (1) 
conformer_0

$$$$
