
     RDKit          3D

 19 21  0  0  0  0  0  0  0  0999 V2000
  -27.2611   33.1359  -43.6119 C   0  0  0  0  0  0  0  0  0  0  0  0
  -26.5699   34.0310  -43.9319 C   0  0  0  0  0  0  0  0  0  0  0  0
  -25.2505   33.6721  -44.2917 C   0  0  0  0  0  0  0  0  0  0  0  0
  -24.3037   34.7207  -44.7091 C   0  0  0  0  0  0  0  0  0  0  0  0
  -24.6943   35.9123  -45.2565 C   0  0  0  0  0  0  0  0  0  0  0  0
  -22.8987   34.4333  -44.7807 C   0  0  0  0  0  0  0  0  0  0  0  0
  -27.1508   31.7596  -43.9165 C   0  0  0  0  0  0  0  0  0  0  0  0
  -22.4226   33.2226  -44.0746 C   0  0  0  0  0  0  0  0  0  0  0  0
  -23.9192   36.8110  -45.8803 C   0  0  0  0  0  0  0  0  0  0  0  0
  -21.1406   33.3076  -43.6548 C   0  0  0  0  0  0  0  0  0  0  0  0
  -26.0544   31.3133  -44.1816 O   0  0  0  0  0  0  0  0  0  0  0  0
  -27.0249   35.5112  -44.2173 C   0  0  0  0  0  0  0  0  0  0  0  0
  -28.1323   30.8862  -43.5412 O   0  0  0  0  0  0  0  0  0  0  0  0
  -20.4833   34.4989  -44.3692 C   0  0  0  0  0  0  0  0  0  0  0  0
  -24.3359   37.9349  -46.5019 O   0  0  0  0  0  0  0  0  0  0  0  0
  -22.4646   36.5912  -45.8024 O   0  0  0  0  0  0  0  0  0  0  0  0
  -26.1281   36.3698  -44.8298 N   0  0  0  0  0  0  0  0  0  0  0  0
  -22.0255   35.3055  -45.4255 C   0  0  0  0  0  0  0  0  0  0  0  0
  -20.8299   35.3191  -45.1135 C   0  0  0  0  0  0  0  0  0  0  0  0
  1  2  1  0
  2  3  2  0
  3  4  1  0
  4  5  2  0
  4  6  1  0
  1  7  1  0
  6  8  1  0
  5  9  1  0
  8 10  2  0
  7 11  2  0
  2 12  1  0
  7 13  1  0
 10 14  1  0
  9 15  2  0
  9 16  1  0
  5 17  1  0
 12 17  2  0
  6 18  2  0
 16 18  1  0
 14 19  2  0
 18 19  1  0
M  END
>  <ID>  (1) 
conformer_0

$$$$
