
     RDKit          3D

 10 10  0  0  0  0  0  0  0  0999 V2000
  -21.4143   35.6354  -47.1048 C   0  0  0  0  0  0  0  0  0  0  0  0
  -21.8365   35.3178  -45.9313 C   0  0  0  0  0  0  0  0  0  0  0  0
  -22.2659   36.3252  -48.0093 C   0  0  0  0  0  0  0  0  0  0  0  0
  -20.9660   34.5601  -44.9695 C   0  0  0  0  0  0  0  0  0  0  0  0
  -23.0526   35.9948  -45.4186 C   0  0  0  0  0  0  0  0  0  0  0  0
  -21.7652   36.5509  -49.3053 F   0  0  0  0  0  0  0  0  0  0  0  0
  -23.3930   36.8001  -47.6149 C   0  0  0  0  0  0  0  0  0  0  0  0
  -24.2697   37.5384  -48.6275 C   0  0  0  0  0  0  0  0  0  0  0  0
  -23.4877   35.7286  -44.1465 O   0  0  0  0  0  0  0  0  0  0  0  0
  -23.8485   36.6133  -46.3244 C   0  0  0  0  0  0  0  0  0  0  0  0
  1  2  2  0
  1  3  1  0
  2  4  1  0
  2  5  1  0
  3  6  1  0
  3  7  2  0
  7  8  1  0
  5  9  1  0
  5 10  2  0
  7 10  1  0
M  END
>  <ID>  (1) 
conformer_0

$$$$
