
     RDKit          3D

 18 20  0  0  0  0  0  0  0  0999 V2000
  -20.7968   34.1089  -44.8143 C   0  0  0  0  0  0  0  0  0  0  0  0
  -21.1908   35.2040  -45.6969 C   0  0  0  0  0  0  0  0  0  0  0  0
  -22.5600   35.6361  -45.7018 C   0  0  0  0  0  0  0  0  0  0  0  0
  -23.5521   35.0919  -45.1410 C   0  0  0  0  0  0  0  0  0  0  0  0
  -23.3612   33.9588  -44.2811 C   0  0  0  0  0  0  0  0  0  0  0  0
  -22.9494   36.8273  -46.6329 C   0  0  0  0  0  0  0  0  0  0  0  0
  -24.3839   33.2697  -43.7626 C   0  0  0  0  0  0  0  0  0  0  0  0
  -24.2277   32.0424  -43.1723 C   0  0  0  0  0  0  0  0  0  0  0  0
  -25.5861   31.2248  -43.2436 C   0  0  0  0  0  0  0  0  0  0  0  0
  -24.2825   37.1522  -46.3710 C   0  0  0  0  0  0  0  0  0  0  0  0
  -26.7049   31.9813  -43.8021 C   0  0  0  0  0  0  0  0  0  0  0  0
  -24.8302   35.7126  -45.3656 C   0  0  0  0  0  0  0  0  0  0  0  0
  -26.2039   33.4493  -43.7810 C   0  0  0  0  0  0  0  0  0  0  0  0
  -22.7655   36.5722  -48.1060 C   0  0  0  0  0  0  0  0  0  0  0  0
  -22.0275   33.5350  -44.0553 C   0  0  0  0  0  0  0  0  0  0  0  0
  -27.9507   31.8521  -43.2784 C   0  0  0  0  0  0  0  0  0  0  0  0
  -26.8737   31.4749  -45.2653 O   0  0  0  0  0  0  0  0  0  0  0  0
  -22.4635   38.0307  -46.3639 C   0  0  0  0  0  0  0  0  0  0  0  0
  1  2  1  0
  2  3  1  0
  3  4  2  0
  4  5  1  0
  3  6  1  0
  5  7  2  3
  7  8  1  0
  8  9  1  0
  6 10  1  0
  9 11  1  0
  4 12  1  0
 10 12  1  0
  7 13  1  0
 11 13  1  0
  6 14  1  0
  1 15  2  0
  5 15  1  0
 11 16  1  0
 11 17  1  0
  6 18  1  0
M  END
>  <ID>  (1) 
conformer_0

$$$$
