
     RDKit          3D

 19 21  0  0  0  0  0  0  0  0999 V2000
  -20.7968   34.1089  -44.8143 C   0  0  0  0  0  0  0  0  0  0  0  0
  -21.7331   33.4374  -44.1913 C   0  0  0  0  0  0  0  0  0  0  0  0
  -21.4588   34.8901  -45.8894 C   0  0  0  0  0  0  0  0  0  0  0  0
  -23.0761   33.6262  -44.2469 C   0  0  0  0  0  0  0  0  0  0  0  0
  -24.0067   32.8849  -43.4182 C   0  0  0  0  0  0  0  0  0  0  0  0
  -23.6168   34.6020  -45.0090 C   0  0  0  0  0  0  0  0  0  0  0  0
  -22.7368   35.3246  -45.9664 C   0  0  0  0  0  0  0  0  0  0  0  0
  -24.9495   35.0245  -45.0602 C   0  0  0  0  0  0  0  0  0  0  0  0
  -25.8526   34.1055  -44.2789 N   0  0  0  0  0  0  0  0  0  0  0  0
  -27.2002   34.3035  -44.3347 C   0  0  0  0  0  0  0  0  0  0  0  0
  -25.3161   32.9322  -43.8704 C   0  0  0  0  0  0  0  0  0  0  0  0
  -27.9177   33.2193  -43.7778 C   0  0  0  0  0  0  0  0  0  0  0  0
  -23.1840   36.3553  -46.8065 C   0  0  0  0  0  0  0  0  0  0  0  0
  -23.6408   37.4660  -46.4289 C   0  0  0  0  0  0  0  0  0  0  0  0
  -27.1497   31.8687  -44.1057 C   0  0  0  0  0  0  0  0  0  0  0  0
  -27.9773   30.6498  -43.8052 C   0  0  0  0  0  0  0  0  0  0  0  0
  -25.9773   31.9057  -43.3758 C   0  0  0  0  0  0  0  0  0  0  0  0
  -22.1154   36.5121  -47.6981 C   0  0  0  0  0  0  0  0  0  0  0  0
  -24.2745   35.7708  -47.8528 C   0  0  0  0  0  0  0  0  0  0  0  0
  1  2  1  0
  1  3  2  0
  2  4  2  0
  4  5  1  0
  4  6  1  0
  3  7  1  0
  6  7  2  0
  6  8  1  0
  8  9  1  0
  9 10  1  0
  5 11  1  0
  9 11  1  0
 10 12  1  0
  7 13  1  0
 13 14  1  0
 12 15  1  0
 15 16  1  0
 11 17  1  0
 15 17  1  0
 13 18  1  0
 13 19  1  0
M  END
>  <ID>  (1) 
conformer_0

$$$$
