
     RDKit          3D

 10 11  0  0  0  0  0  0  0  0999 V2000
  -21.3144   35.1732  -46.4036 C   0  0  0  0  0  0  0  0  0  0  0  0
  -21.7283   34.6778  -45.2677 C   0  0  0  0  0  0  0  0  0  0  0  0
  -20.8107   34.0584  -44.4058 C   0  0  0  0  0  0  0  0  0  0  0  0
  -22.3125   36.0063  -47.2048 C   0  0  0  0  0  0  0  0  0  0  0  0
  -21.9344   36.6398  -48.3993 C   0  0  0  0  0  0  0  0  0  0  0  0
  -23.6069   36.0606  -46.7007 C   0  0  0  0  0  0  0  0  0  0  0  0
  -23.2325   34.8527  -44.7856 C   0  0  0  0  0  0  0  0  0  0  0  0
  -24.0193   35.5320  -45.5419 N   0  0  0  0  0  0  0  0  0  0  0  0
  -23.1917   37.3251  -48.9079 C   0  0  0  0  0  0  0  0  0  0  0  0
  -24.3535   37.1383  -47.9286 C   0  0  0  0  0  0  0  0  0  0  0  0
  1  2  2  0
  2  3  1  0
  1  4  1  0
  4  5  2  0
  4  6  1  0
  2  7  1  0
  6  8  1  0
  7  8  2  0
  5  9  1  0
  6 10  2  0
  9 10  2  0
M  END
>  <ID>  (1) 
conformer_0

$$$$
