
     RDKit          3D

 19 22  0  0  0  0  0  0  0  0999 V2000
  -27.3772   32.0496  -44.0779 C   0  0  0  0  0  0  0  0  0  0  0  0
  -27.3672   33.3825  -44.0564 C   0  0  0  0  0  0  0  0  0  0  0  0
  -26.1560   33.9633  -44.3413 C   0  0  0  0  0  0  0  0  0  0  0  0
  -25.0184   33.2691  -44.2573 C   0  0  0  0  0  0  0  0  0  0  0  0
  -28.6435   31.4190  -43.9079 O   0  0  0  0  0  0  0  0  0  0  0  0
  -23.7640   33.9421  -44.4044 C   0  0  0  0  0  0  0  0  0  0  0  0
  -26.2749   31.3100  -43.9448 C   0  0  0  0  0  0  0  0  0  0  0  0
  -23.6953   35.1174  -45.0766 C   0  0  0  0  0  0  0  0  0  0  0  0
  -26.0923   35.5062  -44.6370 C   0  0  0  0  0  0  0  0  0  0  0  0
  -24.8887   35.8209  -45.2990 N   0  0  0  0  0  0  0  0  0  0  0  0
  -22.6855   33.0375  -44.4873 C   0  0  0  0  0  0  0  0  0  0  0  0
  -21.3885   33.5743  -44.8330 C   0  0  0  0  0  0  0  0  0  0  0  0
  -21.3691   34.8590  -45.3218 C   0  0  0  0  0  0  0  0  0  0  0  0
  -25.0184   36.7880  -46.4066 C   0  0  0  0  0  0  0  0  0  0  0  0
  -23.8963   36.8835  -47.2333 C   0  0  0  0  0  0  0  0  0  0  0  0
  -22.5061   35.6490  -45.5843 C   0  0  0  0  0  0  0  0  0  0  0  0
  -22.5816   36.8838  -46.3014 C   0  0  0  0  0  0  0  0  0  0  0  0
  -25.0275   31.9796  -44.1222 C   0  0  0  0  0  0  0  0  0  0  0  0
  -27.2691   35.8992  -45.2990 C   0  0  0  0  0  0  0  0  0  0  0  0
  1  2  1  0
  2  3  2  0
  3  4  1  0
  1  5  1  0
  4  6  1  0
  1  7  2  0
  6  8  1  0
  3  9  1  0
  8 10  1  0
  9 10  1  0
  6 11  2  0
 11 12  1  0
 12 13  2  0
 10 14  1  0
 14 15  1  0
  8 16  2  0
 13 16  1  0
 15 17  1  0
 16 17  1  0
  4 18  2  0
  7 18  1  0
  9 19  1  0
M  END
>  <ID>  (1) 
conformer_0

$$$$
