
     RDKit          3D

 19 22  0  0  0  0  0  0  0  0999 V2000
  -27.6359   34.9419  -44.1961 C   0  0  0  0  0  0  0  0  0  0  0  0
  -26.6776   35.7029  -44.6906 N   0  0  0  0  0  0  0  0  0  0  0  0
  -25.3647   35.3637  -44.4379 C   0  0  0  0  0  0  0  0  0  0  0  0
  -24.4501   35.9375  -45.3081 C   0  0  0  0  0  0  0  0  0  0  0  0
  -27.3388   33.5358  -44.0076 C   0  0  0  0  0  0  0  0  0  0  0  0
  -28.2589   32.5694  -43.8540 C   0  0  0  0  0  0  0  0  0  0  0  0
  -25.0868   34.0401  -44.0186 C   0  0  0  0  0  0  0  0  0  0  0  0
  -23.1851   35.5405  -45.4212 C   0  0  0  0  0  0  0  0  0  0  0  0
  -24.9541   37.1523  -45.8572 C   0  0  0  0  0  0  0  0  0  0  0  0
  -23.6588   33.7719  -43.6320 C   0  0  0  0  0  0  0  0  0  0  0  0
  -26.2833   37.3341  -46.1352 C   0  0  0  0  0  0  0  0  0  0  0  0
  -27.1092   36.7044  -45.3699 N   0  0  0  0  0  0  0  0  0  0  0  0
  -26.0465   33.0967  -43.6838 C   0  0  0  0  0  0  0  0  0  0  0  0
  -22.7632   34.2936  -44.8124 N   0  0  0  0  0  0  0  0  0  0  0  0
  -27.9451   31.1880  -43.7827 C   0  0  0  0  0  0  0  0  0  0  0  0
  -22.1189   36.3552  -45.6930 O   0  0  0  0  0  0  0  0  0  0  0  0
  -25.7096   31.7502  -43.5468 C   0  0  0  0  0  0  0  0  0  0  0  0
  -21.5646   33.6466  -44.9285 C   0  0  0  0  0  0  0  0  0  0  0  0
  -26.7453   30.8287  -43.5311 C   0  0  0  0  0  0  0  0  0  0  0  0
  1  2  1  0
  2  3  1  0
  3  4  1  0
  1  5  1  0
  5  6  1  0
  3  7  2  0
  4  8  1  0
  4  9  2  0
  7 10  1  0
  9 11  1  0
  2 12  1  0
 11 12  2  0
  5 13  2  0
  7 13  1  0
  8 14  1  0
 10 14  1  0
  6 15  2  0
  8 16  2  0
 13 17  1  0
 14 18  1  0
 15 19  1  0
 17 19  2  0
M  END
>  <ID>  (1) 
conformer_0

$$$$
