
     RDKit          3D

 16 17  0  0  0  0  0  0  0  0999 V2000
  -22.4781   33.8251  -43.9795 C   0  0  0  0  0  0  0  0  0  0  0  0
  -21.6598   34.4935  -44.6785 C   0  0  0  0  0  0  0  0  0  0  0  0
  -23.8725   33.9438  -44.3390 C   0  0  0  0  0  0  0  0  0  0  0  0
  -24.3184   34.9631  -45.2161 C   0  0  0  0  0  0  0  0  0  0  0  0
  -23.4170   35.6574  -45.9243 C   0  0  0  0  0  0  0  0  0  0  0  0
  -25.7847   35.0202  -45.5519 C   0  0  0  0  0  0  0  0  0  0  0  0
  -20.2825   34.3866  -44.4699 F   0  0  0  0  0  0  0  0  0  0  0  0
  -23.8728   36.5698  -47.0007 C   0  0  0  0  0  0  0  0  0  0  0  0
  -26.6510   34.6126  -44.4143 C   0  0  0  0  0  0  0  0  0  0  0  0
  -26.0060   36.5858  -45.6814 C   0  0  0  0  0  0  0  0  0  0  0  0
  -27.0929   33.2731  -44.5544 C   0  0  0  0  0  0  0  0  0  0  0  0
  -26.4480   32.2946  -44.7931 O   0  0  0  0  0  0  0  0  0  0  0  0
  -21.9868   35.4586  -45.7083 C   0  0  0  0  0  0  0  0  0  0  0  0
  -28.4240   33.0527  -44.1147 O   0  0  0  0  0  0  0  0  0  0  0  0
  -22.9972   37.2930  -47.5746 O   0  0  0  0  0  0  0  0  0  0  0  0
  -25.2081   37.0014  -46.9484 N   0  0  0  0  0  0  0  0  0  0  0  0
  1  2  1  0
  1  3  2  0
  3  4  1  0
  4  5  2  0
  4  6  1  0
  2  7  1  0
  5  8  1  0
  6  9  1  0
  6 10  1  0
  9 11  1  0
 11 12  2  0
  2 13  2  0
  5 13  1  0
 11 14  1  0
  8 15  2  0
  8 16  1  0
 10 16  1  0
M  END
>  <ID>  (1) 
conformer_0

$$$$
