
     RDKit          3D

 10 11  0  0  0  0  0  0  0  0999 V2000
  -27.6359   34.9419  -44.1961 C   0  0  0  0  0  0  0  0  0  0  0  0
  -27.4004   33.6789  -44.1144 C   0  0  0  0  0  0  0  0  0  0  0  0
  -28.1996   32.7035  -43.9317 C   0  0  0  0  0  0  0  0  0  0  0  0
  -27.7145   31.3984  -43.6761 C   0  0  0  0  0  0  0  0  0  0  0  0
  -25.9542   33.4421  -44.1030 C   0  0  0  0  0  0  0  0  0  0  0  0
  -26.4167   31.0312  -43.6665 C   0  0  0  0  0  0  0  0  0  0  0  0
  -26.6004   35.8777  -44.5547 C   0  0  0  0  0  0  0  0  0  0  0  0
  -25.5180   32.0175  -43.7877 C   0  0  0  0  0  0  0  0  0  0  0  0
  -25.3572   35.6857  -44.3859 C   0  0  0  0  0  0  0  0  0  0  0  0
  -25.0279   34.3733  -44.1817 C   0  0  0  0  0  0  0  0  0  0  0  0
  1  2  1  0
  2  3  1  0
  3  4  2  0
  2  5  2  0
  4  6  1  0
  1  7  2  0
  5  8  1  0
  6  8  2  0
  7  9  1  0
  5 10  1  0
  9 10  2  0
M  END
>  <ID>  (1) 
conformer_0

$$$$
