
     RDKit          3D

 16 18  0  0  0  0  0  0  0  0999 V2000
  -27.9780   32.8289  -43.8762 C   0  0  0  0  0  0  0  0  0  0  0  0
  -27.5339   31.6061  -44.0129 C   0  0  0  0  0  0  0  0  0  0  0  0
  -27.0186   33.8146  -43.9767 C   0  0  0  0  0  0  0  0  0  0  0  0
  -27.5301   35.2137  -43.9783 C   0  0  0  0  0  0  0  0  0  0  0  0
  -25.7297   33.5774  -44.3807 C   0  0  0  0  0  0  0  0  0  0  0  0
  -27.7147   35.8309  -45.3537 C   0  0  0  0  0  0  0  0  0  0  0  0
  -26.5291   36.6524  -45.6964 C   0  0  0  0  0  0  0  0  0  0  0  0
  -24.8028   34.6291  -44.5051 C   0  0  0  0  0  0  0  0  0  0  0  0
  -25.3962   32.3079  -44.5349 C   0  0  0  0  0  0  0  0  0  0  0  0
  -23.9959   31.9657  -44.7558 C   0  0  0  0  0  0  0  0  0  0  0  0
  -23.0246   32.9642  -44.7448 C   0  0  0  0  0  0  0  0  0  0  0  0
  -23.4451   34.2856  -44.7451 C   0  0  0  0  0  0  0  0  0  0  0  0
  -25.1517   35.9727  -45.3470 N   0  0  0  0  0  0  0  0  0  0  0  0
  -24.2077   36.9203  -45.2394 C   0  0  0  0  0  0  0  0  0  0  0  0
  -26.2583   31.2411  -44.3268 C   0  0  0  0  0  0  0  0  0  0  0  0
  -21.5547   32.6908  -44.6850 C   0  0  0  0  0  0  0  0  0  0  0  0
  1  2  1  0
  1  3  2  0
  3  4  1  0
  3  5  1  0
  4  6  1  0
  6  7  1  0
  5  8  1  0
  5  9  2  0
  9 10  1  0
 10 11  2  0
  8 12  2  0
 11 12  1  0
  7 13  1  0
  8 13  1  0
 13 14  1  0
  2 15  2  0
  9 15  1  0
 11 16  1  0
M  END
>  <ID>  (1) 
conformer_0

$$$$
