
     RDKit          3D

 19 21  0  0  0  0  0  0  0  0999 V2000
  -27.8801   31.9033  -43.9581 C   0  0  0  0  0  0  0  0  0  0  0  0
  -27.0536   31.2535  -44.2656 C   0  0  0  0  0  0  0  0  0  0  0  0
  -25.8041   31.5159  -44.3516 C   0  0  0  0  0  0  0  0  0  0  0  0
  -25.4001   32.8692  -44.1963 C   0  0  0  0  0  0  0  0  0  0  0  0
  -24.0755   33.3262  -44.2365 C   0  0  0  0  0  0  0  0  0  0  0  0
  -23.7482   34.4679  -44.8923 C   0  0  0  0  0  0  0  0  0  0  0  0
  -27.5688   33.3864  -43.6796 C   0  0  0  0  0  0  0  0  0  0  0  0
  -26.3531   33.7371  -43.7464 C   0  0  0  0  0  0  0  0  0  0  0  0
  -24.7822   35.3667  -45.4940 C   0  0  0  0  0  0  0  0  0  0  0  0
  -22.4396   34.9260  -44.9547 C   0  0  0  0  0  0  0  0  0  0  0  0
  -21.4471   34.0348  -44.3390 C   0  0  0  0  0  0  0  0  0  0  0  0
  -24.3770   36.4729  -46.1124 C   0  0  0  0  0  0  0  0  0  0  0  0
  -25.3928   37.2996  -46.7200 O   0  0  0  0  0  0  0  0  0  0  0  0
  -23.0542   32.5624  -43.7209 C   0  0  0  0  0  0  0  0  0  0  0  0
  -23.0763   36.9026  -46.2814 C   0  0  0  0  0  0  0  0  0  0  0  0
  -26.5852   36.7067  -46.8982 C   0  0  0  0  0  0  0  0  0  0  0  0
  -20.1101   34.4177  -44.4626 F   0  0  0  0  0  0  0  0  0  0  0  0
  -21.7616   33.0221  -43.8005 C   0  0  0  0  0  0  0  0  0  0  0  0
  -22.0491   36.0696  -45.7058 C   0  0  0  0  0  0  0  0  0  0  0  0
  1  2  2  0
  2  3  1  0
  3  4  2  0
  4  5  1  0
  5  6  1  0
  1  7  1  0
  4  8  1  0
  7  8  2  0
  6  9  1  0
  6 10  2  0
 10 11  1  0
  9 12  2  0
 12 13  1  0
  5 14  2  0
 12 15  1  0
 13 16  1  0
 11 17  1  0
 11 18  2  0
 14 18  1  0
 10 19  1  0
 15 19  2  0
M  END
>  <ID>  (1) 
conformer_0

$$$$
