
     RDKit          3D

 14 15  0  0  0  0  0  0  0  0999 V2000
  -25.3733   36.5524  -47.5734 C   0  0  0  0  0  0  0  0  0  0  0  0
  -25.6254   36.1083  -46.4516 C   0  0  0  0  0  0  0  0  0  0  0  0
  -24.6374   35.7227  -45.5943 C   0  0  0  0  0  0  0  0  0  0  0  0
  -24.9879   35.1497  -44.2882 C   0  0  0  0  0  0  0  0  0  0  0  0
  -24.0569   36.7405  -48.0932 C   0  0  0  0  0  0  0  0  0  0  0  0
  -25.7862   34.0037  -44.3963 N   0  0  0  0  0  0  0  0  0  0  0  0
  -27.0686   34.0235  -43.8680 C   0  0  0  0  0  0  0  0  0  0  0  0
  -22.9466   36.3746  -47.1555 C   0  0  0  0  0  0  0  0  0  0  0  0
  -23.3136   35.8498  -45.9683 C   0  0  0  0  0  0  0  0  0  0  0  0
  -25.1557   32.8224  -44.2674 C   0  0  0  0  0  0  0  0  0  0  0  0
  -21.5351   36.4938  -47.7083 F   0  0  0  0  0  0  0  0  0  0  0  0
  -26.0499   31.7139  -44.2316 C   0  0  0  0  0  0  0  0  0  0  0  0
  -27.8189   32.8566  -44.1470 C   0  0  0  0  0  0  0  0  0  0  0  0
  -27.2136   31.7302  -43.5919 C   0  0  0  0  0  0  0  0  0  0  0  0
  1  2  1  0
  2  3  2  0
  3  4  1  0
  1  5  2  0
  4  6  1  0
  6  7  1  0
  5  8  1  0
  3  9  1  0
  8  9  2  0
  6 10  1  0
  8 11  1  0
 10 12  1  0
  7 13  1  0
 12 14  1  0
 13 14  1  0
M  END
>  <ID>  (1) 
conformer_0

$$$$
