
     RDKit          3D

 18 20  0  0  0  0  0  0  0  0999 V2000
  -26.0683   35.9115  -46.4960 C   0  0  0  0  0  0  0  0  0  0  0  0
  -25.4063   35.4844  -45.4028 C   0  0  0  0  0  0  0  0  0  0  0  0
  -24.0284   35.4199  -45.2920 C   0  0  0  0  0  0  0  0  0  0  0  0
  -23.4174   34.8541  -44.1211 O   0  0  0  0  0  0  0  0  0  0  0  0
  -23.5137   33.4988  -44.0420 C   0  0  0  0  0  0  0  0  0  0  0  0
  -24.6615   32.9319  -43.9280 C   0  0  0  0  0  0  0  0  0  0  0  0
  -26.2758   34.5449  -44.4145 C   0  0  0  0  0  0  0  0  0  0  0  0
  -22.6195   32.8920  -45.0581 C   0  0  0  0  0  0  0  0  0  0  0  0
  -25.1509   36.7744  -47.2830 C   0  0  0  0  0  0  0  0  0  0  0  0
  -25.8047   33.4571  -44.3601 N   0  0  0  0  0  0  0  0  0  0  0  0
  -26.8229   32.3719  -44.7076 C   0  0  0  0  0  0  0  0  0  0  0  0
  -26.4604   35.2018  -43.1929 C   0  0  0  0  0  0  0  0  0  0  0  0
  -23.7498   36.7929  -47.0186 C   0  0  0  0  0  0  0  0  0  0  0  0
  -28.0783   32.8821  -44.1677 C   0  0  0  0  0  0  0  0  0  0  0  0
  -23.1360   36.1314  -46.1800 C   0  0  0  0  0  0  0  0  0  0  0  0
  -27.7566   34.3206  -44.9936 C   0  0  0  0  0  0  0  0  0  0  0  0
  -24.8980   32.0444  -42.9596 O   0  0  0  0  0  0  0  0  0  0  0  0
  -22.8044   37.7168  -48.1941 Cl  0  0  0  0  0  0  0  0  0  0  0  0
  1  2  1  0
  2  3  2  0
  3  4  1  0
  4  5  1  0
  5  6  1  0
  2  7  1  0
  5  8  1  0
  1  9  2  0
  6 10  1  0
  7 10  1  0
 10 11  1  0
  7 12  1  0
  9 13  1  0
 11 14  1  0
  3 15  1  0
 13 15  2  0
  7 16  1  0
 14 16  1  0
  6 17  2  0
 13 18  1  0
M  END
>  <ID>  (1) 
conformer_0

$$$$
