
     RDKit          3D

 17 20  0  0  0  0  0  0  0  0999 V2000
  -21.0283   34.8948  -45.6022 C   0  0  0  0  0  0  0  0  0  0  0  0
  -22.0201   35.6513  -46.0726 C   0  0  0  0  0  0  0  0  0  0  0  0
  -23.2434   35.4811  -45.4691 C   0  0  0  0  0  0  0  0  0  0  0  0
  -23.1885   34.4447  -44.4554 C   0  0  0  0  0  0  0  0  0  0  0  0
  -24.4391   34.1512  -43.8303 C   0  0  0  0  0  0  0  0  0  0  0  0
  -24.6876   32.8181  -43.5788 C   0  0  0  0  0  0  0  0  0  0  0  0
  -21.9209   36.6759  -47.1706 O   0  0  0  0  0  0  0  0  0  0  0  0
  -25.5596   34.6262  -44.7637 C   0  0  0  0  0  0  0  0  0  0  0  0
  -24.3938   36.1150  -45.9712 C   0  0  0  0  0  0  0  0  0  0  0  0
  -26.9390   34.2516  -43.9909 C   0  0  0  0  0  0  0  0  0  0  0  0
  -22.9367   37.5214  -47.4503 C   0  0  0  0  0  0  0  0  0  0  0  0
  -25.7368   32.0277  -44.2564 C   0  0  0  0  0  0  0  0  0  0  0  0
  -25.5580   35.9049  -45.2249 C   0  0  0  0  0  0  0  0  0  0  0  0
  -24.1815   37.2534  -46.9240 C   0  0  0  0  0  0  0  0  0  0  0  0
  -27.0904   32.7077  -44.1558 C   0  0  0  0  0  0  0  0  0  0  0  0
  -22.0982   33.9147  -44.1785 C   0  0  0  0  0  0  0  0  0  0  0  0
  -20.9405   34.2138  -44.7951 C   0  0  0  0  0  0  0  0  0  0  0  0
  1  2  1  0
  2  3  2  0
  3  4  1  0
  4  5  1  0
  5  6  1  0
  2  7  1  0
  5  8  1  0
  3  9  1  0
  8 10  1  0
  7 11  1  0
  6 12  1  0
  8 13  1  0
  9 13  1  0
  9 14  1  0
 11 14  1  0
 10 15  1  0
 12 15  1  0
  4 16  2  0
  1 17  2  0
 16 17  1  0
M  END
>  <ID>  (1) 
conformer_0

$$$$
