
     RDKit          3D

 14 15  0  0  0  0  0  0  0  0999 V2000
  -27.4726   34.4287  -43.3715 C   0  0  0  0  0  0  0  0  0  0  0  0
  -27.2371   33.3326  -44.1968 C   0  0  0  0  0  0  0  0  0  0  0  0
  -27.5087   35.6652  -44.1884 C   0  0  0  0  0  0  0  0  0  0  0  0
  -25.8972   33.2820  -44.6726 C   0  0  0  0  0  0  0  0  0  0  0  0
  -25.5745   34.4776  -45.4817 C   0  0  0  0  0  0  0  0  0  0  0  0
  -24.1402   34.7293  -45.7116 N   0  0  0  0  0  0  0  0  0  0  0  0
  -27.5908   31.9775  -43.5834 C   0  0  0  0  0  0  0  0  0  0  0  0
  -26.2211   35.7189  -44.7711 C   0  0  0  0  0  0  0  0  0  0  0  0
  -27.1614   30.8958  -44.4556 C   0  0  0  0  0  0  0  0  0  0  0  0
  -23.2150   34.0301  -44.9649 C   0  0  0  0  0  0  0  0  0  0  0  0
  -21.8700   34.3828  -45.1144 C   0  0  0  0  0  0  0  0  0  0  0  0
  -21.9278   35.6643  -45.9845 C   0  0  0  0  0  0  0  0  0  0  0  0
  -23.6707   35.7466  -46.5002 C   0  0  0  0  0  0  0  0  0  0  0  0
  -23.9989   36.5216  -47.3203 O   0  0  0  0  0  0  0  0  0  0  0  0
  1  2  1  0
  1  3  1  0
  2  4  1  0
  4  5  1  0
  5  6  1  0
  2  7  1  0
  3  8  1  0
  5  8  1  0
  7  9  1  0
  6 10  1  0
 10 11  2  0
 11 12  1  0
  6 13  1  0
 12 13  1  0
 13 14  2  0
M  END
>  <ID>  (1) 
conformer_0

$$$$
