
     RDKit          3D

 18 20  0  0  0  0  0  0  0  0999 V2000
  -27.9780   32.8289  -43.8762 C   0  0  0  0  0  0  0  0  0  0  0  0
  -27.5339   31.6061  -44.0129 C   0  0  0  0  0  0  0  0  0  0  0  0
  -27.0186   33.8146  -43.9767 C   0  0  0  0  0  0  0  0  0  0  0  0
  -27.5301   35.2137  -43.9783 C   0  0  0  0  0  0  0  0  0  0  0  0
  -25.7297   33.5774  -44.3807 C   0  0  0  0  0  0  0  0  0  0  0  0
  -27.7147   35.8309  -45.3537 C   0  0  0  0  0  0  0  0  0  0  0  0
  -26.5291   36.6524  -45.6964 C   0  0  0  0  0  0  0  0  0  0  0  0
  -24.8028   34.6291  -44.5051 C   0  0  0  0  0  0  0  0  0  0  0  0
  -23.4854   34.4096  -44.7370 C   0  0  0  0  0  0  0  0  0  0  0  0
  -25.4236   32.2536  -44.3911 C   0  0  0  0  0  0  0  0  0  0  0  0
  -25.1744   36.0510  -45.0961 C   0  0  0  0  0  0  0  0  0  0  0  0
  -22.5117   35.3686  -45.0691 C   0  0  0  0  0  0  0  0  0  0  0  0
  -24.2133   36.7772  -45.8045 C   0  0  0  0  0  0  0  0  0  0  0  0
  -24.5410   37.8126  -46.4732 O   0  0  0  0  0  0  0  0  0  0  0  0
  -21.0169   34.8522  -45.0709 C   0  0  0  0  0  0  0  0  0  0  0  0
  -22.8708   36.3897  -45.7912 C   0  0  0  0  0  0  0  0  0  0  0  0
  -28.4568   30.4999  -43.8956 O   0  0  0  0  0  0  0  0  0  0  0  0
  -26.2580   31.2710  -44.2794 C   0  0  0  0  0  0  0  0  0  0  0  0
  1  2  1  0
  1  3  2  0
  3  4  1  0
  3  5  1  0
  4  6  1  0
  6  7  1  0
  5  8  1  0
  8  9  2  0
  5 10  2  0
  7 11  1  0
  8 11  1  0
  9 12  1  0
 11 13  1  0
 13 14  2  0
 12 15  1  0
 12 16  2  0
 13 16  1  0
  2 17  1  0
  2 18  2  0
 10 18  1  0
M  END
>  <ID>  (1) 
conformer_0

$$$$
