
     RDKit          3D

 19 22  0  0  0  0  0  0  0  0999 V2000
  -27.6359   34.9419  -44.1961 C   0  0  0  0  0  0  0  0  0  0  0  0
  -26.6776   35.7029  -44.6906 N   0  0  0  0  0  0  0  0  0  0  0  0
  -25.3647   35.3637  -44.4379 C   0  0  0  0  0  0  0  0  0  0  0  0
  -24.4501   35.9375  -45.3081 C   0  0  0  0  0  0  0  0  0  0  0  0
  -27.3388   33.5358  -44.0076 C   0  0  0  0  0  0  0  0  0  0  0  0
  -28.2589   32.5694  -43.8540 C   0  0  0  0  0  0  0  0  0  0  0  0
  -25.0868   34.0401  -44.0186 C   0  0  0  0  0  0  0  0  0  0  0  0
  -23.1851   35.5405  -45.4212 C   0  0  0  0  0  0  0  0  0  0  0  0
  -24.9541   37.1523  -45.8572 C   0  0  0  0  0  0  0  0  0  0  0  0
  -23.6588   33.7719  -43.6320 C   0  0  0  0  0  0  0  0  0  0  0  0
  -26.1224   33.2242  -43.6244 C   0  0  0  0  0  0  0  0  0  0  0  0
  -22.7087   34.4934  -44.5617 C   0  0  0  0  0  0  0  0  0  0  0  0
  -27.8164   31.2055  -43.8263 C   0  0  0  0  0  0  0  0  0  0  0  0
  -25.7803   31.6468  -43.4143 C   0  0  0  0  0  0  0  0  0  0  0  0
  -26.7649   30.9165  -43.5293 C   0  0  0  0  0  0  0  0  0  0  0  0
  -24.3269   38.0381  -46.6476 C   0  0  0  0  0  0  0  0  0  0  0  0
  -23.1529   37.7402  -47.3286 C   0  0  0  0  0  0  0  0  0  0  0  0
  -22.1829   36.1373  -46.2859 C   0  0  0  0  0  0  0  0  0  0  0  0
  -22.1976   36.9813  -47.0983 C   0  0  0  0  0  0  0  0  0  0  0  0
  1  2  1  0
  2  3  1  0
  3  4  1  0
  1  5  1  0
  5  6  1  0
  3  7  2  0
  4  8  1  0
  4  9  2  0
  7 10  1  0
  5 11  2  0
  7 11  1  0
  8 12  1  0
 10 12  2  0
  6 13  2  0
 11 14  1  0
 13 15  1  0
 14 15  2  0
  9 16  1  0
 16 17  2  0
  8 18  1  0
 17 19  1  0
 18 19  2  0
M  END
>  <ID>  (1) 
conformer_0

$$$$
