
     RDKit          3D

 19 22  0  0  0  0  0  0  0  0999 V2000
  -27.6359   34.9419  -44.1961 C   0  0  0  0  0  0  0  0  0  0  0  0
  -26.6776   35.7029  -44.6906 N   0  0  0  0  0  0  0  0  0  0  0  0
  -25.3647   35.3637  -44.4379 C   0  0  0  0  0  0  0  0  0  0  0  0
  -24.4501   35.9375  -45.3081 C   0  0  0  0  0  0  0  0  0  0  0  0
  -27.3388   33.5358  -44.0076 C   0  0  0  0  0  0  0  0  0  0  0  0
  -28.2589   32.5694  -43.8540 C   0  0  0  0  0  0  0  0  0  0  0  0
  -25.0868   34.0401  -44.0186 C   0  0  0  0  0  0  0  0  0  0  0  0
  -23.1851   35.5405  -45.4212 C   0  0  0  0  0  0  0  0  0  0  0  0
  -24.9541   37.1523  -45.8572 C   0  0  0  0  0  0  0  0  0  0  0  0
  -23.6588   33.7719  -43.6320 C   0  0  0  0  0  0  0  0  0  0  0  0
  -26.1224   33.2242  -43.6244 C   0  0  0  0  0  0  0  0  0  0  0  0
  -25.8153   31.9093  -43.0475 C   0  0  0  0  0  0  0  0  0  0  0  0
  -22.1812   36.2789  -46.2980 C   0  0  0  0  0  0  0  0  0  0  0  0
  -26.5590   30.9303  -43.5130 C   0  0  0  0  0  0  0  0  0  0  0  0
  -22.6612   34.5419  -44.5838 C   0  0  0  0  0  0  0  0  0  0  0  0
  -21.3303   34.0678  -44.5495 C   0  0  0  0  0  0  0  0  0  0  0  0
  -28.0159   31.2453  -43.3830 C   0  0  0  0  0  0  0  0  0  0  0  0
  -24.0431   38.0544  -46.6497 C   0  0  0  0  0  0  0  0  0  0  0  0
  -22.7696   37.3713  -47.1000 C   0  0  0  0  0  0  0  0  0  0  0  0
  1  2  1  0
  2  3  1  0
  3  4  1  0
  1  5  1  0
  5  6  1  0
  3  7  2  0
  4  8  1  0
  4  9  2  0
  7 10  1  0
  5 11  2  0
  7 11  1  0
 11 12  1  0
  8 13  1  0
 12 14  1  0
  8 15  2  0
 10 15  1  0
 15 16  1  0
  6 17  1  0
 14 17  1  0
  9 18  1  0
 13 19  1  0
 18 19  2  0
M  END
>  <ID>  (1) 
conformer_0

$$$$
