
     RDKit          3D

 18 21  0  0  0  0  0  0  0  0999 V2000
  -27.6359   34.9419  -44.1961 C   0  0  0  0  0  0  0  0  0  0  0  0
  -26.6776   35.7029  -44.6906 N   0  0  0  0  0  0  0  0  0  0  0  0
  -25.3647   35.3637  -44.4379 C   0  0  0  0  0  0  0  0  0  0  0  0
  -24.4501   35.9375  -45.3081 C   0  0  0  0  0  0  0  0  0  0  0  0
  -27.3388   33.5358  -44.0076 C   0  0  0  0  0  0  0  0  0  0  0  0
  -28.2589   32.5694  -43.8540 C   0  0  0  0  0  0  0  0  0  0  0  0
  -25.0868   34.0401  -44.0186 C   0  0  0  0  0  0  0  0  0  0  0  0
  -23.1851   35.5405  -45.4212 C   0  0  0  0  0  0  0  0  0  0  0  0
  -24.9541   37.1523  -45.8572 C   0  0  0  0  0  0  0  0  0  0  0  0
  -27.7494   31.1297  -43.8812 C   0  0  0  0  0  0  0  0  0  0  0  0
  -26.4475   30.9043  -43.8798 C   0  0  0  0  0  0  0  0  0  0  0  0
  -24.1043   38.0889  -46.5129 C   0  0  0  0  0  0  0  0  0  0  0  0
  -25.6504   31.8118  -43.7917 C   0  0  0  0  0  0  0  0  0  0  0  0
  -22.8999   37.6648  -46.9412 C   0  0  0  0  0  0  0  0  0  0  0  0
  -22.7085   34.3851  -44.9377 C   0  0  0  0  0  0  0  0  0  0  0  0
  -25.9891   33.1598  -43.8737 C   0  0  0  0  0  0  0  0  0  0  0  0
  -22.3819   36.3875  -46.3230 C   0  0  0  0  0  0  0  0  0  0  0  0
  -23.7069   33.6655  -44.1496 C   0  0  0  0  0  0  0  0  0  0  0  0
  1  2  1  0
  2  3  1  0
  3  4  1  0
  1  5  1  0
  5  6  1  0
  3  7  2  0
  4  8  1  0
  4  9  2  0
  6 10  2  0
 10 11  1  0
  9 12  1  0
 11 13  2  0
 12 14  2  0
  8 15  1  0
  5 16  2  0
  7 16  1  0
 13 16  1  0
  8 17  2  0
 14 17  1  0
  7 18  1  0
 15 18  2  0
M  END
>  <ID>  (1) 
conformer_0

$$$$
