
     RDKit          3D

 16 18  0  0  0  0  0  0  0  0999 V2000
  -21.0134   35.0309  -45.8384 C   0  0  0  0  0  0  0  0  0  0  0  0
  -22.1335   35.5984  -46.1438 C   0  0  0  0  0  0  0  0  0  0  0  0
  -23.3375   35.3031  -45.5276 C   0  0  0  0  0  0  0  0  0  0  0  0
  -23.3482   34.3559  -44.5019 C   0  0  0  0  0  0  0  0  0  0  0  0
  -24.6298   33.9653  -43.8682 C   0  0  0  0  0  0  0  0  0  0  0  0
  -24.6434   35.8304  -45.9168 C   0  0  0  0  0  0  0  0  0  0  0  0
  -25.7989   34.5271  -44.4461 C   0  0  0  0  0  0  0  0  0  0  0  0
  -25.7116   35.4834  -45.2657 N   0  0  0  0  0  0  0  0  0  0  0  0
  -24.8830   32.4428  -43.8491 C   0  0  0  0  0  0  0  0  0  0  0  0
  -21.0399   34.1042  -44.7446 C   0  0  0  0  0  0  0  0  0  0  0  0
  -26.7941   33.5115  -44.5751 N   0  0  0  0  0  0  0  0  0  0  0  0
  -22.1920   33.7571  -44.0541 C   0  0  0  0  0  0  0  0  0  0  0  0
  -26.3693   32.2916  -44.0204 C   0  0  0  0  0  0  0  0  0  0  0  0
  -27.0937   31.9747  -42.9434 C   0  0  0  0  0  0  0  0  0  0  0  0
  -26.5028   31.1459  -45.0456 C   0  0  0  0  0  0  0  0  0  0  0  0
  -24.6601   36.5766  -47.1036 O   0  0  0  0  0  0  0  0  0  0  0  0
  1  2  1  0
  2  3  2  0
  3  4  1  0
  4  5  1  0
  3  6  1  0
  5  7  1  0
  6  8  1  0
  7  8  1  0
  5  9  1  0
  1 10  2  0
  7 11  1  0
  4 12  2  0
 10 12  1  0
  9 13  1  0
 11 13  1  0
 13 14  1  0
 13 15  1  0
  6 16  2  0
M  END
>  <ID>  (1) 
conformer_0

$$$$
