
     RDKit          3D

 17 19  0  0  0  0  0  0  0  0999 V2000
  -27.3772   32.0496  -44.0779 C   0  0  0  0  0  0  0  0  0  0  0  0
  -27.3672   33.3825  -44.0564 C   0  0  0  0  0  0  0  0  0  0  0  0
  -26.1560   33.9633  -44.3413 C   0  0  0  0  0  0  0  0  0  0  0  0
  -25.0184   33.2691  -44.2573 C   0  0  0  0  0  0  0  0  0  0  0  0
  -28.6435   31.4190  -43.9079 O   0  0  0  0  0  0  0  0  0  0  0  0
  -23.7640   33.9421  -44.4044 C   0  0  0  0  0  0  0  0  0  0  0  0
  -26.2749   31.3100  -43.9448 C   0  0  0  0  0  0  0  0  0  0  0  0
  -23.6953   35.1174  -45.0766 C   0  0  0  0  0  0  0  0  0  0  0  0
  -26.0923   35.5062  -44.6370 C   0  0  0  0  0  0  0  0  0  0  0  0
  -24.8887   35.8209  -45.2990 N   0  0  0  0  0  0  0  0  0  0  0  0
  -22.6855   33.0375  -44.4873 C   0  0  0  0  0  0  0  0  0  0  0  0
  -22.4408   35.3852  -45.5379 C   0  0  0  0  0  0  0  0  0  0  0  0
  -21.3431   34.7297  -45.3621 C   0  0  0  0  0  0  0  0  0  0  0  0
  -21.3886   33.6747  -44.8466 C   0  0  0  0  0  0  0  0  0  0  0  0
  -25.0116   31.9600  -44.1148 C   0  0  0  0  0  0  0  0  0  0  0  0
  -26.9919   36.1812  -44.6332 O   0  0  0  0  0  0  0  0  0  0  0  0
  -24.8393   37.1839  -45.8291 C   0  0  0  0  0  0  0  0  0  0  0  0
  1  2  1  0
  2  3  2  0
  3  4  1  0
  1  5  1  0
  4  6  1  0
  1  7  2  0
  6  8  1  0
  3  9  1  0
  8 10  1  0
  9 10  1  0
  6 11  2  0
  8 12  2  0
 12 13  1  0
 11 14  1  0
 13 14  2  0
  4 15  2  0
  7 15  1  0
  9 16  2  0
 10 17  1  0
M  END
>  <ID>  (1) 
conformer_0

$$$$
