
     RDKit          3D

 19 22  0  0  0  0  0  0  0  0999 V2000
  -21.0283   34.8948  -45.6022 C   0  0  0  0  0  0  0  0  0  0  0  0
  -22.0201   35.6513  -46.0726 C   0  0  0  0  0  0  0  0  0  0  0  0
  -23.2434   35.4811  -45.4691 C   0  0  0  0  0  0  0  0  0  0  0  0
  -23.1885   34.4447  -44.4554 C   0  0  0  0  0  0  0  0  0  0  0  0
  -24.4391   34.1512  -43.8303 C   0  0  0  0  0  0  0  0  0  0  0  0
  -24.6876   32.8181  -43.5788 C   0  0  0  0  0  0  0  0  0  0  0  0
  -22.1010   33.7520  -44.0935 C   0  0  0  0  0  0  0  0  0  0  0  0
  -25.5144   34.9933  -43.8026 C   0  0  0  0  0  0  0  0  0  0  0  0
  -26.8183   34.6271  -43.7518 C   0  0  0  0  0  0  0  0  0  0  0  0
  -27.0746   33.2663  -43.3514 C   0  0  0  0  0  0  0  0  0  0  0  0
  -23.7281   31.8484  -43.5440 C   0  0  0  0  0  0  0  0  0  0  0  0
  -21.0191   34.1090  -44.6432 C   0  0  0  0  0  0  0  0  0  0  0  0
  -22.1548   36.6279  -47.1585 O   0  0  0  0  0  0  0  0  0  0  0  0
  -24.2248   36.2367  -46.1794 C   0  0  0  0  0  0  0  0  0  0  0  0
  -26.0741   32.2522  -43.4133 C   0  0  0  0  0  0  0  0  0  0  0  0
  -22.3805   32.5703  -43.2887 C   0  0  0  0  0  0  0  0  0  0  0  0
  -26.4469   30.9137  -43.1820 C   0  0  0  0  0  0  0  0  0  0  0  0
  -23.5229   36.9316  -47.1590 C   0  0  0  0  0  0  0  0  0  0  0  0
  -24.0908   37.9645  -48.2083 C   0  0  0  0  0  0  0  0  0  0  0  0
  1  2  1  0
  2  3  2  0
  3  4  1  0
  4  5  1  0
  5  6  1  0
  4  7  2  0
  5  8  2  0
  8  9  1  0
  9 10  2  0
  6 11  1  0
  1 12  2  0
  7 12  1  0
  2 13  1  0
  3 14  1  0
  6 15  2  0
 10 15  1  0
  7 16  1  0
 11 16  1  0
 15 17  1  0
 13 18  1  0
 14 18  2  0
 18 19  1  0
M  END
>  <ID>  (1) 
conformer_0

$$$$
