
     RDKit          3D

 19 22  0  0  0  0  0  0  0  0999 V2000
  -27.6359   34.9419  -44.1961 C   0  0  0  0  0  0  0  0  0  0  0  0
  -26.6776   35.7029  -44.6906 N   0  0  0  0  0  0  0  0  0  0  0  0
  -25.3647   35.3637  -44.4379 C   0  0  0  0  0  0  0  0  0  0  0  0
  -24.4501   35.9375  -45.3081 C   0  0  0  0  0  0  0  0  0  0  0  0
  -27.3388   33.5358  -44.0076 C   0  0  0  0  0  0  0  0  0  0  0  0
  -28.2589   32.5694  -43.8540 C   0  0  0  0  0  0  0  0  0  0  0  0
  -25.0868   34.0401  -44.0186 C   0  0  0  0  0  0  0  0  0  0  0  0
  -23.1851   35.5405  -45.4212 C   0  0  0  0  0  0  0  0  0  0  0  0
  -24.9541   37.1523  -45.8572 C   0  0  0  0  0  0  0  0  0  0  0  0
  -27.7494   31.1297  -43.8812 C   0  0  0  0  0  0  0  0  0  0  0  0
  -23.6950   33.8293  -43.6051 C   0  0  0  0  0  0  0  0  0  0  0  0
  -22.1858   36.2633  -46.3277 C   0  0  0  0  0  0  0  0  0  0  0  0
  -22.7612   34.1647  -44.6638 C   0  0  0  0  0  0  0  0  0  0  0  0
  -21.6443   35.4477  -47.1475 O   0  0  0  0  0  0  0  0  0  0  0  0
  -25.9990   33.1252  -43.9172 C   0  0  0  0  0  0  0  0  0  0  0  0
  -22.3868   37.5023  -46.4162 C   0  0  0  0  0  0  0  0  0  0  0  0
  -23.8563   38.0080  -46.6902 C   0  0  0  0  0  0  0  0  0  0  0  0
  -25.6867   31.6007  -43.7108 C   0  0  0  0  0  0  0  0  0  0  0  0
  -26.5298   30.8432  -43.7477 C   0  0  0  0  0  0  0  0  0  0  0  0
  1  2  1  0
  2  3  1  0
  3  4  1  0
  1  5  1  0
  5  6  1  0
  3  7  2  0
  4  8  1  0
  4  9  2  0
  6 10  2  0
  7 11  1  0
  8 12  1  0
  8 13  1  0
 11 13  1  0
 12 14  2  0
  5 15  2  0
  7 15  1  0
 12 16  1  0
  9 17  1  0
 16 17  1  0
 15 18  1  0
 10 19  1  0
 18 19  2  0
M  END
>  <ID>  (1) 
conformer_0

$$$$
