
     RDKit          3D

 19 21  0  0  0  0  0  0  0  0999 V2000
  -20.7968   34.1089  -44.8143 C   0  0  0  0  0  0  0  0  0  0  0  0
  -21.7331   33.4374  -44.1913 C   0  0  0  0  0  0  0  0  0  0  0  0
  -21.4588   34.8901  -45.8894 C   0  0  0  0  0  0  0  0  0  0  0  0
  -23.0761   33.6262  -44.2469 C   0  0  0  0  0  0  0  0  0  0  0  0
  -24.0067   32.8849  -43.4182 C   0  0  0  0  0  0  0  0  0  0  0  0
  -23.6168   34.6020  -45.0090 C   0  0  0  0  0  0  0  0  0  0  0  0
  -22.7493   35.2778  -45.8898 C   0  0  0  0  0  0  0  0  0  0  0  0
  -25.0542   34.7195  -45.1310 C   0  0  0  0  0  0  0  0  0  0  0  0
  -23.2233   36.2528  -46.8819 C   0  0  0  0  0  0  0  0  0  0  0  0
  -23.6835   37.3871  -46.5473 C   0  0  0  0  0  0  0  0  0  0  0  0
  -25.5556   35.8008  -45.7943 C   0  0  0  0  0  0  0  0  0  0  0  0
  -23.4276   38.5041  -47.2471 C   0  0  0  0  0  0  0  0  0  0  0  0
  -23.4459   37.6976  -45.1006 C   0  0  0  0  0  0  0  0  0  0  0  0
  -26.8729   35.9074  -45.6444 O   0  0  0  0  0  0  0  0  0  0  0  0
  -25.3349   33.0303  -43.4581 C   0  0  0  0  0  0  0  0  0  0  0  0
  -25.9357   33.9608  -44.3445 C   0  0  0  0  0  0  0  0  0  0  0  0
  -27.3146   33.9220  -44.2849 O   0  0  0  0  0  0  0  0  0  0  0  0
  -25.1543   36.9088  -46.5081 C   0  0  0  0  0  0  0  0  0  0  0  0
  -27.9431   34.0895  -43.2248 C   0  0  0  0  0  0  0  0  0  0  0  0
  1  2  1  0
  1  3  2  0
  2  4  2  0
  4  5  1  0
  4  6  1  0
  3  7  1  0
  6  7  2  0
  6  8  1  0
  7  9  1  0
  9 10  1  0
  8 11  1  0
 10 12  1  0
 10 13  1  0
 11 14  2  0
  5 15  2  0
  8 16  2  0
 15 16  1  0
 16 17  1  0
 10 18  1  0
 11 18  1  0
 17 19  1  0
M  END
>  <ID>  (1) 
conformer_0

$$$$
