
     RDKit          3D

 19 22  0  0  0  0  0  0  0  0999 V2000
  -27.2611   33.1359  -43.6119 C   0  0  0  0  0  0  0  0  0  0  0  0
  -26.5699   34.0310  -43.9319 C   0  0  0  0  0  0  0  0  0  0  0  0
  -25.2505   33.6721  -44.2917 C   0  0  0  0  0  0  0  0  0  0  0  0
  -24.7611   32.4051  -44.1032 C   0  0  0  0  0  0  0  0  0  0  0  0
  -24.3209   34.6537  -44.7801 C   0  0  0  0  0  0  0  0  0  0  0  0
  -23.4750   32.0616  -44.3587 C   0  0  0  0  0  0  0  0  0  0  0  0
  -27.1462   35.4831  -44.3131 C   0  0  0  0  0  0  0  0  0  0  0  0
  -24.7624   35.9275  -45.2399 C   0  0  0  0  0  0  0  0  0  0  0  0
  -24.0019   36.6218  -46.2200 C   0  0  0  0  0  0  0  0  0  0  0  0
  -23.0394   34.2693  -44.9477 C   0  0  0  0  0  0  0  0  0  0  0  0
  -23.9844   37.9128  -46.2226 C   0  0  0  0  0  0  0  0  0  0  0  0
  -26.9835   31.7826  -43.6284 C   0  0  0  0  0  0  0  0  0  0  0  0
  -24.2045   36.1980  -47.5853 C   0  0  0  0  0  0  0  0  0  0  0  0
  -26.2406   36.1853  -45.2451 C   0  0  0  0  0  0  0  0  0  0  0  0
  -22.0678   35.4056  -45.3346 C   0  0  0  0  0  0  0  0  0  0  0  0
  -22.5632   33.0557  -44.7581 C   0  0  0  0  0  0  0  0  0  0  0  0
  -22.5222   36.3458  -45.8639 O   0  0  0  0  0  0  0  0  0  0  0  0
  -25.6933   31.4384  -43.7668 C   0  0  0  0  0  0  0  0  0  0  0  0
  -20.8204   35.2523  -45.4603 O   0  0  0  0  0  0  0  0  0  0  0  0
  1  2  1  0
  2  3  2  0
  3  4  1  0
  3  5  1  0
  4  6  1  0
  2  7  1  0
  5  8  1  0
  8  9  1  0
  5 10  2  0
  9 11  1  0
  1 12  2  0
  9 13  1  0
  7 14  1  0
  8 14  1  0
 10 15  1  0
  6 16  2  0
 10 16  1  0
  9 17  1  0
 15 17  1  0
  4 18  2  0
 12 18  1  0
 15 19  2  0
M  END
>  <ID>  (1) 
conformer_0

$$$$
