
     RDKit          3D

 19 22  0  0  0  0  0  0  0  0999 V2000
  -26.0683   35.9115  -46.4960 C   0  0  0  0  0  0  0  0  0  0  0  0
  -25.4063   35.4844  -45.4028 C   0  0  0  0  0  0  0  0  0  0  0  0
  -24.0284   35.4199  -45.2920 C   0  0  0  0  0  0  0  0  0  0  0  0
  -23.4174   34.8541  -44.1211 O   0  0  0  0  0  0  0  0  0  0  0  0
  -23.5137   33.4988  -44.0420 C   0  0  0  0  0  0  0  0  0  0  0  0
  -24.6615   32.9319  -43.9280 C   0  0  0  0  0  0  0  0  0  0  0  0
  -22.3558   32.7541  -44.0073 C   0  0  0  0  0  0  0  0  0  0  0  0
  -26.0178   33.7293  -43.9692 C   0  0  0  0  0  0  0  0  0  0  0  0
  -23.0391   31.3240  -43.7928 O   0  0  0  0  0  0  0  0  0  0  0  0
  -24.4451   31.5944  -43.6562 C   0  0  0  0  0  0  0  0  0  0  0  0
  -27.0688   32.8461  -43.5200 C   0  0  0  0  0  0  0  0  0  0  0  0
  -26.3103   34.7767  -44.5016 N   0  0  0  0  0  0  0  0  0  0  0  0
  -25.2962   36.6779  -47.4490 C   0  0  0  0  0  0  0  0  0  0  0  0
  -25.5439   30.7206  -43.2070 C   0  0  0  0  0  0  0  0  0  0  0  0
  -23.2487   36.1836  -46.1790 C   0  0  0  0  0  0  0  0  0  0  0  0
  -27.6046   35.2467  -44.5177 C   0  0  0  0  0  0  0  0  0  0  0  0
  -26.8622   31.3469  -43.1916 C   0  0  0  0  0  0  0  0  0  0  0  0
  -23.8238   36.7991  -47.2103 C   0  0  0  0  0  0  0  0  0  0  0  0
  -22.9229   37.7408  -48.3952 Cl  0  0  0  0  0  0  0  0  0  0  0  0
  1  2  1  0
  2  3  2  0
  3  4  1  0
  4  5  1  0
  5  6  1  0
  5  7  2  0
  6  8  1  0
  7  9  1  0
  6 10  2  0
  9 10  1  0
  8 11  2  0
  2 12  1  0
  8 12  1  0
  1 13  2  0
 10 14  1  0
  3 15  1  0
 12 16  1  0
 11 17  1  0
 14 17  2  0
 13 18  1  0
 15 18  2  0
 18 19  1  0
M  END
>  <ID>  (1) 
conformer_0

$$$$
