
     RDKit          3D

 19 22  0  0  0  0  0  0  0  0999 V2000
  -27.2611   33.1359  -43.6119 C   0  0  0  0  0  0  0  0  0  0  0  0
  -26.5699   34.0310  -43.9319 C   0  0  0  0  0  0  0  0  0  0  0  0
  -25.2505   33.6721  -44.2917 C   0  0  0  0  0  0  0  0  0  0  0  0
  -24.7611   32.4051  -44.1032 C   0  0  0  0  0  0  0  0  0  0  0  0
  -24.3209   34.6537  -44.7801 C   0  0  0  0  0  0  0  0  0  0  0  0
  -23.4750   32.0616  -44.3587 C   0  0  0  0  0  0  0  0  0  0  0  0
  -27.1462   35.4831  -44.3131 C   0  0  0  0  0  0  0  0  0  0  0  0
  -24.7624   35.9275  -45.2399 C   0  0  0  0  0  0  0  0  0  0  0  0
  -24.0019   36.6218  -46.2200 C   0  0  0  0  0  0  0  0  0  0  0  0
  -23.0394   34.2693  -44.9477 C   0  0  0  0  0  0  0  0  0  0  0  0
  -23.9844   37.9128  -46.2226 C   0  0  0  0  0  0  0  0  0  0  0  0
  -22.5472   36.1150  -46.1403 C   0  0  0  0  0  0  0  0  0  0  0  0
  -25.7671   31.4440  -43.6968 C   0  0  0  0  0  0  0  0  0  0  0  0
  -24.5042   36.1634  -47.6607 C   0  0  0  0  0  0  0  0  0  0  0  0
  -26.2650   36.1781  -45.1783 C   0  0  0  0  0  0  0  0  0  0  0  0
  -23.0643   30.7860  -44.0910 O   0  0  0  0  0  0  0  0  0  0  0  0
  -22.0691   35.3111  -45.4063 C   0  0  0  0  0  0  0  0  0  0  0  0
  -27.0335   31.7990  -43.4493 C   0  0  0  0  0  0  0  0  0  0  0  0
  -22.5929   33.0132  -44.6678 N   0  0  0  0  0  0  0  0  0  0  0  0
  1  2  1  0
  2  3  2  0
  3  4  1  0
  3  5  1  0
  4  6  1  0
  2  7  1  0
  5  8  1  0
  8  9  1  0
  5 10  2  0
  9 11  1  0
  9 12  1  0
  4 13  2  0
  9 14  1  0
  7 15  1  0
  8 15  1  0
  6 16  2  0
 10 17  1  0
 12 17  1  0
  1 18  2  0
 13 18  1  0
  6 19  1  0
 10 19  1  0
M  END
>  <ID>  (1) 
conformer_0

$$$$
