
     RDKit          3D

 19 22  0  0  0  0  0  0  0  0999 V2000
  -27.9780   32.8289  -43.8762 C   0  0  0  0  0  0  0  0  0  0  0  0
  -27.5339   31.6061  -44.0129 C   0  0  0  0  0  0  0  0  0  0  0  0
  -27.0186   33.8146  -43.9767 C   0  0  0  0  0  0  0  0  0  0  0  0
  -27.5301   35.2137  -43.9783 C   0  0  0  0  0  0  0  0  0  0  0  0
  -25.7297   33.5774  -44.3807 C   0  0  0  0  0  0  0  0  0  0  0  0
  -27.7147   35.8309  -45.3537 C   0  0  0  0  0  0  0  0  0  0  0  0
  -26.5291   36.6524  -45.6964 C   0  0  0  0  0  0  0  0  0  0  0  0
  -24.8028   34.6291  -44.5051 C   0  0  0  0  0  0  0  0  0  0  0  0
  -25.3962   32.3079  -44.5349 C   0  0  0  0  0  0  0  0  0  0  0  0
  -23.9959   31.9657  -44.7558 C   0  0  0  0  0  0  0  0  0  0  0  0
  -28.4616   30.5049  -43.8342 O   0  0  0  0  0  0  0  0  0  0  0  0
  -25.1894   35.8249  -46.0837 C   0  0  0  0  0  0  0  0  0  0  0  0
  -22.9161   32.7770  -44.5145 C   0  0  0  0  0  0  0  0  0  0  0  0
  -26.2308   31.2534  -44.3482 C   0  0  0  0  0  0  0  0  0  0  0  0
  -23.3622   34.2451  -45.0496 C   0  0  0  0  0  0  0  0  0  0  0  0
  -23.9080   36.5869  -46.2007 C   0  0  0  0  0  0  0  0  0  0  0  0
  -22.3339   35.2177  -44.8304 C   0  0  0  0  0  0  0  0  0  0  0  0
  -24.0897   37.5424  -47.3045 C   0  0  0  0  0  0  0  0  0  0  0  0
  -22.5265   36.0718  -46.0844 C   0  0  0  0  0  0  0  0  0  0  0  0
  1  2  1  0
  1  3  2  0
  3  4  1  0
  3  5  1  0
  4  6  1  0
  6  7  1  0
  5  8  1  0
  5  9  2  0
  9 10  1  0
  2 11  1  0
  7 12  1  0
  8 12  1  0
 10 13  2  0
  2 14  2  0
  9 14  1  0
  8 15  1  0
 13 15  1  0
 12 16  1  0
 15 17  1  0
 16 18  1  0
 16 19  1  0
 17 19  1  0
M  END
>  <ID>  (1) 
conformer_0

$$$$
