
     RDKit          3D

 16 18  0  0  0  0  0  0  0  0999 V2000
  -21.0134   35.0309  -45.8384 C   0  0  0  0  0  0  0  0  0  0  0  0
  -22.1335   35.5984  -46.1438 C   0  0  0  0  0  0  0  0  0  0  0  0
  -23.3375   35.3031  -45.5276 C   0  0  0  0  0  0  0  0  0  0  0  0
  -23.3482   34.3559  -44.5019 C   0  0  0  0  0  0  0  0  0  0  0  0
  -24.6298   33.9653  -43.8682 C   0  0  0  0  0  0  0  0  0  0  0  0
  -24.6434   35.8304  -45.9168 C   0  0  0  0  0  0  0  0  0  0  0  0
  -25.7989   34.5271  -44.4461 C   0  0  0  0  0  0  0  0  0  0  0  0
  -25.7116   35.4834  -45.2657 N   0  0  0  0  0  0  0  0  0  0  0  0
  -24.8830   32.4428  -43.8491 C   0  0  0  0  0  0  0  0  0  0  0  0
  -26.6974   33.4457  -44.8622 N   0  0  0  0  0  0  0  0  0  0  0  0
  -22.2151   33.7361  -44.2027 C   0  0  0  0  0  0  0  0  0  0  0  0
  -21.0171   34.1325  -44.7533 C   0  0  0  0  0  0  0  0  0  0  0  0
  -24.5162   37.1336  -46.5022 O   0  0  0  0  0  0  0  0  0  0  0  0
  -28.0226   33.5460  -44.4567 C   0  0  0  0  0  0  0  0  0  0  0  0
  -26.0675   32.2219  -44.4406 C   0  0  0  0  0  0  0  0  0  0  0  0
  -26.7586   31.0293  -44.6490 C   0  0  0  0  0  0  0  0  0  0  0  0
  1  2  1  0
  2  3  2  0
  3  4  1  0
  4  5  1  0
  3  6  1  0
  5  7  1  0
  6  8  1  0
  7  8  1  0
  5  9  1  0
  7 10  1  0
  4 11  2  0
  1 12  2  0
 11 12  1  0
  6 13  2  0
 10 14  1  0
  9 15  2  0
 10 15  1  0
 15 16  1  0
M  END
>  <ID>  (1) 
conformer_0

$$$$
