
     RDKit          3D

 18 21  0  0  0  0  0  0  0  0999 V2000
  -27.2611   33.1359  -43.6119 C   0  0  0  0  0  0  0  0  0  0  0  0
  -26.5699   34.0310  -43.9319 C   0  0  0  0  0  0  0  0  0  0  0  0
  -25.2505   33.6721  -44.2917 C   0  0  0  0  0  0  0  0  0  0  0  0
  -24.7611   32.4051  -44.1032 C   0  0  0  0  0  0  0  0  0  0  0  0
  -24.3209   34.6537  -44.7801 C   0  0  0  0  0  0  0  0  0  0  0  0
  -23.4750   32.0616  -44.3587 C   0  0  0  0  0  0  0  0  0  0  0  0
  -27.1084   35.4146  -44.1224 C   0  0  0  0  0  0  0  0  0  0  0  0
  -25.6727   31.4451  -43.7886 C   0  0  0  0  0  0  0  0  0  0  0  0
  -26.9768   31.7738  -43.4291 C   0  0  0  0  0  0  0  0  0  0  0  0
  -24.7767   35.9239  -45.2083 N   0  0  0  0  0  0  0  0  0  0  0  0
  -22.9536   30.9116  -44.1572 O   0  0  0  0  0  0  0  0  0  0  0  0
  -24.0444   36.7894  -45.8619 C   0  0  0  0  0  0  0  0  0  0  0  0
  -26.1854   36.2122  -45.1370 C   0  0  0  0  0  0  0  0  0  0  0  0
  -23.0929   36.2548  -46.6986 C   0  0  0  0  0  0  0  0  0  0  0  0
  -23.1698   36.7160  -48.0013 C   0  0  0  0  0  0  0  0  0  0  0  0
  -22.5839   33.1973  -44.5770 N   0  0  0  0  0  0  0  0  0  0  0  0
  -22.9789   34.4338  -44.9918 C   0  0  0  0  0  0  0  0  0  0  0  0
  -22.3911   34.9977  -46.2176 C   0  0  0  0  0  0  0  0  0  0  0  0
  1  2  1  0
  2  3  2  0
  3  4  1  0
  3  5  1  0
  4  6  1  0
  2  7  1  0
  4  8  2  0
  1  9  2  0
  8  9  1  0
  5 10  1  0
  6 11  2  0
 10 12  1  0
  7 13  1  0
 10 13  1  0
 12 14  1  0
 14 15  1  0
  6 16  1  0
  5 17  1  0
 16 17  1  0
 14 18  1  0
 17 18  1  0
M  END
>  <ID>  (1) 
conformer_0

$$$$
