
     RDKit          3D

 18 20  0  0  0  0  0  0  0  0999 V2000
  -27.2611   33.1359  -43.6119 C   0  0  0  0  0  0  0  0  0  0  0  0
  -26.5699   34.0310  -43.9319 C   0  0  0  0  0  0  0  0  0  0  0  0
  -25.2505   33.6721  -44.2917 C   0  0  0  0  0  0  0  0  0  0  0  0
  -24.7611   32.4051  -44.1032 C   0  0  0  0  0  0  0  0  0  0  0  0
  -25.7111   31.3939  -43.5992 C   0  0  0  0  0  0  0  0  0  0  0  0
  -24.1453   34.4788  -44.6792 N   0  0  0  0  0  0  0  0  0  0  0  0
  -23.1360   34.2974  -44.8257 N   0  0  0  0  0  0  0  0  0  0  0  0
  -27.0260   35.3745  -44.0742 C   0  0  0  0  0  0  0  0  0  0  0  0
  -26.3128   36.3049  -44.4307 O   0  0  0  0  0  0  0  0  0  0  0  0
  -22.2238   35.1230  -45.4513 C   0  0  0  0  0  0  0  0  0  0  0  0
  -25.7927   36.2982  -45.7899 C   0  0  0  0  0  0  0  0  0  0  0  0
  -28.7118   33.4804  -43.4991 F   0  0  0  0  0  0  0  0  0  0  0  0
  -22.6930   36.3544  -45.9287 C   0  0  0  0  0  0  0  0  0  0  0  0
  -24.3643   35.7192  -45.5980 C   0  0  0  0  0  0  0  0  0  0  0  0
  -20.6929   34.9506  -45.4990 C   0  0  0  0  0  0  0  0  0  0  0  0
  -22.5971   36.5911  -47.3121 C   0  0  0  0  0  0  0  0  0  0  0  0
  -22.5103   37.5691  -45.1309 C   0  0  0  0  0  0  0  0  0  0  0  0
  -27.0163   31.7600  -43.4567 C   0  0  0  0  0  0  0  0  0  0  0  0
  1  2  1  0
  2  3  2  0
  3  4  1  0
  4  5  2  0
  3  6  1  0
  6  7  1  0
  2  8  1  0
  8  9  1  0
  7 10  2  0
  9 11  1  0
  1 12  1  0
 10 13  1  0
  6 14  1  0
 11 14  1  0
 13 14  1  0
 10 15  1  0
 13 16  1  0
 13 17  1  0
  1 18  2  0
  5 18  1  0
M  END
>  <ID>  (1) 
conformer_0

$$$$
