
     RDKit          3D

 18 20  0  0  0  0  0  0  0  0999 V2000
  -21.0134   35.0309  -45.8384 C   0  0  0  0  0  0  0  0  0  0  0  0
  -22.1335   35.5984  -46.1438 C   0  0  0  0  0  0  0  0  0  0  0  0
  -23.3375   35.3031  -45.5276 C   0  0  0  0  0  0  0  0  0  0  0  0
  -23.3482   34.3559  -44.5019 C   0  0  0  0  0  0  0  0  0  0  0  0
  -24.6298   33.9653  -43.8682 C   0  0  0  0  0  0  0  0  0  0  0  0
  -24.6434   35.8304  -45.9168 C   0  0  0  0  0  0  0  0  0  0  0  0
  -21.0921   34.1311  -44.7448 C   0  0  0  0  0  0  0  0  0  0  0  0
  -22.1636   33.7586  -44.1137 C   0  0  0  0  0  0  0  0  0  0  0  0
  -24.8492   32.7566  -43.5754 O   0  0  0  0  0  0  0  0  0  0  0  0
  -22.0339   36.5748  -47.1948 O   0  0  0  0  0  0  0  0  0  0  0  0
  -25.7548   35.4451  -45.3464 C   0  0  0  0  0  0  0  0  0  0  0  0
  -26.0949   32.2675  -43.5948 C   0  0  0  0  0  0  0  0  0  0  0  0
  -26.3028   30.9415  -43.9812 C   0  0  0  0  0  0  0  0  0  0  0  0
  -26.9811   33.2620  -44.3192 C   0  0  0  0  0  0  0  0  0  0  0  0
  -25.8752   34.3167  -44.5449 N   0  0  0  0  0  0  0  0  0  0  0  0
  -28.0704   33.7088  -43.4881 C   0  0  0  0  0  0  0  0  0  0  0  0
  -27.7466   30.7196  -44.4035 O   0  0  0  0  0  0  0  0  0  0  0  0
  -22.2621   36.2479  -48.5120 C   0  0  0  0  0  0  0  0  0  0  0  0
  1  2  1  0
  2  3  2  0
  3  4  1  0
  4  5  1  0
  3  6  1  0
  1  7  2  0
  4  8  2  0
  7  8  1  0
  5  9  1  0
  2 10  1  0
  6 11  2  0
  9 12  1  0
 12 13  1  0
 12 14  1  0
  5 15  1  0
 11 15  1  0
 14 15  1  0
 14 16  1  0
 13 17  1  0
 10 18  1  0
M  END
>  <ID>  (1) 
conformer_0

$$$$
