
     RDKit          3D

 19 21  0  0  0  0  0  0  0  0999 V2000
  -22.4781   33.8251  -43.9795 C   0  0  0  0  0  0  0  0  0  0  0  0
  -21.6598   34.4935  -44.6785 C   0  0  0  0  0  0  0  0  0  0  0  0
  -23.8725   33.9438  -44.3390 C   0  0  0  0  0  0  0  0  0  0  0  0
  -20.2485   34.3508  -44.4121 F   0  0  0  0  0  0  0  0  0  0  0  0
  -24.3424   34.8936  -45.2645 C   0  0  0  0  0  0  0  0  0  0  0  0
  -24.9836   33.2345  -43.6188 C   0  0  0  0  0  0  0  0  0  0  0  0
  -21.9766   35.2824  -45.7048 C   0  0  0  0  0  0  0  0  0  0  0  0
  -26.2245   33.4748  -44.0278 C   0  0  0  0  0  0  0  0  0  0  0  0
  -21.0892   36.0711  -46.4821 O   0  0  0  0  0  0  0  0  0  0  0  0
  -27.2161   32.3515  -44.1109 C   0  0  0  0  0  0  0  0  0  0  0  0
  -21.7620   36.7031  -47.5320 C   0  0  0  0  0  0  0  0  0  0  0  0
  -23.1081   36.8220  -47.5245 C   0  0  0  0  0  0  0  0  0  0  0  0
  -26.8527   31.2946  -44.8861 O   0  0  0  0  0  0  0  0  0  0  0  0
  -27.7711   31.8588  -42.8894 C   0  0  0  0  0  0  0  0  0  0  0  0
  -23.3772   35.5168  -45.9346 C   0  0  0  0  0  0  0  0  0  0  0  0
  -26.5466   34.6575  -44.7429 C   0  0  0  0  0  0  0  0  0  0  0  0
  -21.7021   36.0313  -48.9061 C   0  0  0  0  0  0  0  0  0  0  0  0
  -27.9231   35.0781  -44.9280 O   0  0  0  0  0  0  0  0  0  0  0  0
  -25.3963   35.4472  -45.2736 C   0  0  0  0  0  0  0  0  0  0  0  0
  1  2  1  0
  1  3  2  0
  2  4  1  0
  3  5  1  0
  3  6  1  0
  2  7  2  0
  6  8  1  0
  7  9  1  0
  8 10  1  0
  9 11  1  0
 11 12  1  0
 10 13  1  0
 10 14  1  0
  5 15  2  0
  7 15  1  0
 12 15  1  0
  8 16  2  0
 11 17  1  0
 16 18  1  0
  5 19  1  0
 16 19  1  0
M  END
>  <ID>  (1) 
conformer_0

$$$$
