
     RDKit          3D

 12 12  0  0  0  0  0  0  0  0999 V2000
  -25.1704   35.9985  -46.5757 C   0  0  0  0  0  0  0  0  0  0  0  0
  -24.1481   36.4985  -47.0291 C   0  0  0  0  0  0  0  0  0  0  0  0
  -25.2093   35.0141  -45.5140 C   0  0  0  0  0  0  0  0  0  0  0  0
  -22.8491   36.0133  -46.6833 C   0  0  0  0  0  0  0  0  0  0  0  0
  -23.9187   34.5053  -45.1422 C   0  0  0  0  0  0  0  0  0  0  0  0
  -22.8027   34.9938  -45.6955 C   0  0  0  0  0  0  0  0  0  0  0  0
  -26.4244   34.4774  -44.8974 C   0  0  0  0  0  0  0  0  0  0  0  0
  -26.2974   33.0527  -44.3948 C   0  0  0  0  0  0  0  0  0  0  0  0
  -27.5391   32.6227  -43.7352 C   0  0  0  0  0  0  0  0  0  0  0  0
  -27.8252   31.3153  -44.1315 C   0  0  0  0  0  0  0  0  0  0  0  0
  -21.4568   36.5706  -47.3115 Cl  0  0  0  0  0  0  0  0  0  0  0  0
  -27.4989   34.5918  -45.8578 O   0  0  0  0  0  0  0  0  0  0  0  0
  1  2  2  0
  1  3  1  0
  2  4  1  0
  3  5  2  0
  4  6  2  0
  5  6  1  0
  3  7  1  0
  7  8  1  0
  8  9  1  0
  9 10  1  0
  4 11  1  0
  7 12  1  0
M  END
>  <ID>  (1) 
conformer_0

$$$$
