
     RDKit          3D

 17 18  0  0  0  0  0  0  0  0999 V2000
  -22.4781   33.8251  -43.9795 C   0  0  0  0  0  0  0  0  0  0  0  0
  -21.6598   34.4935  -44.6785 C   0  0  0  0  0  0  0  0  0  0  0  0
  -23.8725   33.9438  -44.3390 C   0  0  0  0  0  0  0  0  0  0  0  0
  -20.2485   34.3508  -44.4121 F   0  0  0  0  0  0  0  0  0  0  0  0
  -24.3424   34.8936  -45.2645 C   0  0  0  0  0  0  0  0  0  0  0  0
  -24.9836   33.2345  -43.6188 C   0  0  0  0  0  0  0  0  0  0  0  0
  -21.9766   35.2824  -45.7048 C   0  0  0  0  0  0  0  0  0  0  0  0
  -26.2245   33.4748  -44.0278 C   0  0  0  0  0  0  0  0  0  0  0  0
  -21.0892   36.0711  -46.4821 O   0  0  0  0  0  0  0  0  0  0  0  0
  -27.2161   32.3515  -44.1109 C   0  0  0  0  0  0  0  0  0  0  0  0
  -26.8769   31.3003  -44.8592 O   0  0  0  0  0  0  0  0  0  0  0  0
  -26.6869   34.6522  -44.5800 C   0  0  0  0  0  0  0  0  0  0  0  0
  -23.3830   35.5169  -45.9265 C   0  0  0  0  0  0  0  0  0  0  0  0
  -27.9492   35.1551  -44.6548 C   0  0  0  0  0  0  0  0  0  0  0  0
  -25.7201   35.2044  -45.3538 N   0  0  0  0  0  0  0  0  0  0  0  0
  -21.4381   36.0131  -47.8124 C   0  0  0  0  0  0  0  0  0  0  0  0
  -26.0574   36.0186  -46.5112 C   0  0  0  0  0  0  0  0  0  0  0  0
  1  2  1  0
  1  3  2  0
  2  4  1  0
  3  5  1  0
  3  6  1  0
  2  7  2  0
  6  8  1  0
  7  9  1  0
  8 10  1  0
 10 11  1  0
  8 12  2  0
  5 13  2  0
  7 13  1  0
 12 14  1  0
  5 15  1  0
 12 15  1  0
  9 16  1  0
 15 17  1  0
M  END
>  <ID>  (1) 
conformer_0

$$$$
