
     RDKit          3D

 18 20  0  0  0  0  0  0  0  0999 V2000
  -27.6359   34.9419  -44.1961 C   0  0  0  0  0  0  0  0  0  0  0  0
  -26.6776   35.7029  -44.6906 N   0  0  0  0  0  0  0  0  0  0  0  0
  -25.3647   35.3637  -44.4379 C   0  0  0  0  0  0  0  0  0  0  0  0
  -24.4501   35.9375  -45.3081 C   0  0  0  0  0  0  0  0  0  0  0  0
  -27.3388   33.5358  -44.0076 C   0  0  0  0  0  0  0  0  0  0  0  0
  -28.2589   32.5694  -43.8540 C   0  0  0  0  0  0  0  0  0  0  0  0
  -25.0868   34.0401  -44.0186 C   0  0  0  0  0  0  0  0  0  0  0  0
  -23.1851   35.5405  -45.4212 C   0  0  0  0  0  0  0  0  0  0  0  0
  -24.9541   37.1523  -45.8572 C   0  0  0  0  0  0  0  0  0  0  0  0
  -23.6588   33.7719  -43.6320 C   0  0  0  0  0  0  0  0  0  0  0  0
  -26.2833   37.3341  -46.1352 C   0  0  0  0  0  0  0  0  0  0  0  0
  -23.2542   32.6078  -43.5084 O   0  0  0  0  0  0  0  0  0  0  0  0
  -26.9457   36.9108  -45.1233 C   0  0  0  0  0  0  0  0  0  0  0  0
  -22.6146   34.4500  -44.6651 C   0  0  0  0  0  0  0  0  0  0  0  0
  -21.8457   33.5231  -45.2891 O   0  0  0  0  0  0  0  0  0  0  0  0
  -27.6706   31.2143  -44.1390 C   0  0  0  0  0  0  0  0  0  0  0  0
  -22.6230   35.5456  -46.6837 C   0  0  0  0  0  0  0  0  0  0  0  0
  -26.0569   33.1618  -43.6764 C   0  0  0  0  0  0  0  0  0  0  0  0
  1  2  1  0
  2  3  1  0
  3  4  1  0
  1  5  1  0
  5  6  1  0
  3  7  2  0
  4  8  1  0
  4  9  2  0
  7 10  1  0
  9 11  1  0
 10 12  1  0
  2 13  1  0
 11 13  1  0
  8 14  1  0
 10 14  1  0
 14 15  1  0
  6 16  1  0
  8 17  1  0
  5 18  2  0
  7 18  1  0
M  END
>  <ID>  (1) 
conformer_0

$$$$
