
     RDKit          3D

 18 21  0  0  0  0  0  0  0  0999 V2000
  -27.2611   33.1359  -43.6119 C   0  0  0  0  0  0  0  0  0  0  0  0
  -26.5699   34.0310  -43.9319 C   0  0  0  0  0  0  0  0  0  0  0  0
  -25.2505   33.6721  -44.2917 C   0  0  0  0  0  0  0  0  0  0  0  0
  -24.7611   32.4051  -44.1032 C   0  0  0  0  0  0  0  0  0  0  0  0
  -24.3209   34.6537  -44.7801 C   0  0  0  0  0  0  0  0  0  0  0  0
  -23.4750   32.0616  -44.3587 C   0  0  0  0  0  0  0  0  0  0  0  0
  -27.1462   35.4831  -44.3131 C   0  0  0  0  0  0  0  0  0  0  0  0
  -24.7624   35.9275  -45.2399 C   0  0  0  0  0  0  0  0  0  0  0  0
  -24.0019   36.6218  -46.2200 C   0  0  0  0  0  0  0  0  0  0  0  0
  -23.0394   34.2693  -44.9477 C   0  0  0  0  0  0  0  0  0  0  0  0
  -23.9844   37.9128  -46.2226 C   0  0  0  0  0  0  0  0  0  0  0  0
  -22.5472   36.1150  -46.1403 C   0  0  0  0  0  0  0  0  0  0  0  0
  -27.0080   31.7562  -43.6673 C   0  0  0  0  0  0  0  0  0  0  0  0
  -21.9138   36.5058  -47.3482 C   0  0  0  0  0  0  0  0  0  0  0  0
  -26.3775   36.1420  -45.0437 C   0  0  0  0  0  0  0  0  0  0  0  0
  -25.7574   31.4087  -43.8016 C   0  0  0  0  0  0  0  0  0  0  0  0
  -22.1803   34.8853  -45.5474 C   0  0  0  0  0  0  0  0  0  0  0  0
  -22.6621   32.9839  -44.6681 C   0  0  0  0  0  0  0  0  0  0  0  0
  1  2  1  0
  2  3  2  0
  3  4  1  0
  3  5  1  0
  4  6  1  0
  2  7  1  0
  5  8  1  0
  8  9  1  0
  5 10  2  0
  9 11  1  0
  9 12  1  0
  1 13  2  0
 12 14  1  0
  7 15  1  0
  8 15  1  0
  4 16  2  0
 13 16  1  0
 10 17  1  0
 12 17  1  0
  6 18  2  0
 10 18  1  0
M  END
>  <ID>  (1) 
conformer_0

$$$$
