
     RDKit          3D

 19 22  0  0  0  0  0  0  0  0999 V2000
  -20.7968   34.1089  -44.8143 C   0  0  0  0  0  0  0  0  0  0  0  0
  -21.1908   35.2040  -45.6969 C   0  0  0  0  0  0  0  0  0  0  0  0
  -22.5600   35.6361  -45.7018 C   0  0  0  0  0  0  0  0  0  0  0  0
  -23.5521   35.0919  -45.1410 C   0  0  0  0  0  0  0  0  0  0  0  0
  -23.3612   33.9588  -44.2811 C   0  0  0  0  0  0  0  0  0  0  0  0
  -22.9494   36.8273  -46.6329 C   0  0  0  0  0  0  0  0  0  0  0  0
  -24.3839   33.2697  -43.7626 C   0  0  0  0  0  0  0  0  0  0  0  0
  -24.2277   32.0424  -43.1723 C   0  0  0  0  0  0  0  0  0  0  0  0
  -25.5861   31.2248  -43.2436 C   0  0  0  0  0  0  0  0  0  0  0  0
  -24.2825   37.1522  -46.3710 C   0  0  0  0  0  0  0  0  0  0  0  0
  -26.7049   31.9813  -43.8021 C   0  0  0  0  0  0  0  0  0  0  0  0
  -21.9695   33.4658  -44.1277 C   0  0  0  0  0  0  0  0  0  0  0  0
  -22.0995   38.0079  -46.2817 C   0  0  0  0  0  0  0  0  0  0  0  0
  -27.9056   31.3186  -43.7626 C   0  0  0  0  0  0  0  0  0  0  0  0
  -26.7485   33.3538  -43.6738 C   0  0  0  0  0  0  0  0  0  0  0  0
  -22.7602   36.2846  -47.8885 O   0  0  0  0  0  0  0  0  0  0  0  0
  -25.6401   33.9328  -43.9698 C   0  0  0  0  0  0  0  0  0  0  0  0
  -25.6360   34.8568  -45.0883 C   0  0  0  0  0  0  0  0  0  0  0  0
  -24.7112   35.4953  -45.4576 N   0  0  0  0  0  0  0  0  0  0  0  0
  1  2  1  0
  2  3  1  0
  3  4  2  0
  4  5  1  0
  3  6  1  0
  5  7  2  0
  7  8  1  0
  8  9  1  0
  6 10  1  0
  9 11  1  0
  1 12  2  0
  5 12  1  0
  6 13  1  0
 11 14  1  0
 11 15  1  0
  6 16  1  0
  7 17  1  0
 15 17  1  0
 17 18  2  0
  4 19  1  0
 10 19  1  0
 18 19  1  0
M  END
>  <ID>  (1) 
conformer_0

$$$$
