
     RDKit          3D

 12 12  0  0  0  0  0  0  0  0999 V2000
  -21.6242   35.5126  -46.5283 C   0  0  0  0  0  0  0  0  0  0  0  0
  -22.2291   36.3509  -47.1580 C   0  0  0  0  0  0  0  0  0  0  0  0
  -22.4465   34.9244  -45.4301 C   0  0  0  0  0  0  0  0  0  0  0  0
  -23.5125   36.8085  -47.0664 C   0  0  0  0  0  0  0  0  0  0  0  0
  -23.7162   35.2770  -45.2607 C   0  0  0  0  0  0  0  0  0  0  0  0
  -24.2685   36.2286  -46.0734 C   0  0  0  0  0  0  0  0  0  0  0  0
  -24.4861   34.6558  -44.1590 C   0  0  0  0  0  0  0  0  0  0  0  0
  -24.4474   33.3160  -44.1413 N   0  0  0  0  0  0  0  0  0  0  0  0
  -25.5647   32.6171  -44.4694 C   0  0  0  0  0  0  0  0  0  0  0  0
  -26.6794   32.6143  -43.7962 C   0  0  0  0  0  0  0  0  0  0  0  0
  -27.5898   31.4425  -43.8134 C   0  0  0  0  0  0  0  0  0  0  0  0
  -27.6555   33.9000  -44.1972 C   0  0  0  0  0  0  0  0  0  0  0  0
  1  2  2  0
  1  3  1  0
  2  4  1  0
  3  5  2  0
  4  6  2  0
  5  6  1  0
  5  7  1  0
  7  8  1  0
  8  9  1  0
  9 10  1  0
 10 11  1  0
 10 12  1  0
M  END
>  <ID>  (1) 
conformer_0

$$$$
