
     RDKit          3D

 13 14  0  0  0  0  0  0  0  0999 V2000
  -21.3144   35.1732  -46.4036 C   0  0  0  0  0  0  0  0  0  0  0  0
  -21.7283   34.6778  -45.2677 C   0  0  0  0  0  0  0  0  0  0  0  0
  -20.8107   34.0584  -44.4058 C   0  0  0  0  0  0  0  0  0  0  0  0
  -22.3125   36.0063  -47.2048 C   0  0  0  0  0  0  0  0  0  0  0  0
  -21.9344   36.6398  -48.3993 C   0  0  0  0  0  0  0  0  0  0  0  0
  -23.1536   34.7923  -44.9120 C   0  0  0  0  0  0  0  0  0  0  0  0
  -23.6039   36.3106  -46.5744 C   0  0  0  0  0  0  0  0  0  0  0  0
  -24.4879   37.0888  -47.3815 C   0  0  0  0  0  0  0  0  0  0  0  0
  -22.9836   37.3881  -49.1117 C   0  0  0  0  0  0  0  0  0  0  0  0
  -22.6031   37.8627  -50.3861 O   0  0  0  0  0  0  0  0  0  0  0  0
  -23.5790   37.4922  -51.3219 C   0  0  0  0  0  0  0  0  0  0  0  0
  -24.0341   35.6713  -45.4590 N   0  0  0  0  0  0  0  0  0  0  0  0
  -24.2080   37.6535  -48.6016 C   0  0  0  0  0  0  0  0  0  0  0  0
  1  2  2  0
  2  3  1  0
  1  4  1  0
  4  5  2  0
  2  6  1  0
  4  7  1  0
  7  8  2  0
  5  9  1  0
  9 10  1  0
 10 11  1  0
  6 12  2  0
  7 12  1  0
  8 13  1  0
  9 13  2  0
M  END
>  <ID>  (1) 
conformer_0

$$$$
