
     RDKit          3D

 19 22  0  0  0  0  0  0  0  0999 V2000
  -27.2611   33.1359  -43.6119 C   0  0  0  0  0  0  0  0  0  0  0  0
  -26.5699   34.0310  -43.9319 C   0  0  0  0  0  0  0  0  0  0  0  0
  -25.2505   33.6721  -44.2917 C   0  0  0  0  0  0  0  0  0  0  0  0
  -24.7611   32.4051  -44.1032 C   0  0  0  0  0  0  0  0  0  0  0  0
  -24.3209   34.6537  -44.7801 C   0  0  0  0  0  0  0  0  0  0  0  0
  -23.4750   32.0616  -44.3587 C   0  0  0  0  0  0  0  0  0  0  0  0
  -27.1462   35.4831  -44.3131 C   0  0  0  0  0  0  0  0  0  0  0  0
  -24.7624   35.9275  -45.2399 C   0  0  0  0  0  0  0  0  0  0  0  0
  -24.0019   36.6218  -46.2200 C   0  0  0  0  0  0  0  0  0  0  0  0
  -26.9415   31.8868  -43.8220 C   0  0  0  0  0  0  0  0  0  0  0  0
  -23.2283   35.8390  -46.9275 C   0  0  0  0  0  0  0  0  0  0  0  0
  -22.9704   30.8733  -44.1094 O   0  0  0  0  0  0  0  0  0  0  0  0
  -25.7591   31.4400  -43.8698 C   0  0  0  0  0  0  0  0  0  0  0  0
  -23.0107   34.3479  -44.8314 C   0  0  0  0  0  0  0  0  0  0  0  0
  -22.4788   33.1160  -44.5679 N   0  0  0  0  0  0  0  0  0  0  0  0
  -22.0165   35.2737  -45.6944 C   0  0  0  0  0  0  0  0  0  0  0  0
  -23.1385   37.7260  -45.6128 C   0  0  0  0  0  0  0  0  0  0  0  0
  -24.7586   37.3899  -47.0998 O   0  0  0  0  0  0  0  0  0  0  0  0
  -26.2523   35.8061  -45.4878 C   0  0  0  0  0  0  0  0  0  0  0  0
  1  2  1  0
  2  3  2  0
  3  4  1  0
  3  5  1  0
  4  6  1  0
  2  7  1  0
  5  8  1  0
  8  9  1  0
  1 10  2  0
  9 11  1  0
  6 12  2  0
  4 13  2  0
 10 13  1  0
  5 14  2  0
  6 15  1  0
 14 15  1  0
 11 16  1  0
 14 16  1  0
  9 17  1  0
  9 18  1  0
  7 19  1  0
  8 19  1  0
M  END
>  <ID>  (1) 
conformer_0

$$$$
