
     RDKit          3D

 19 22  0  0  0  0  0  0  0  0999 V2000
  -21.0283   34.8948  -45.6022 C   0  0  0  0  0  0  0  0  0  0  0  0
  -22.0201   35.6513  -46.0726 C   0  0  0  0  0  0  0  0  0  0  0  0
  -23.2434   35.4811  -45.4691 C   0  0  0  0  0  0  0  0  0  0  0  0
  -23.1885   34.4447  -44.4554 C   0  0  0  0  0  0  0  0  0  0  0  0
  -24.4391   34.1512  -43.8303 C   0  0  0  0  0  0  0  0  0  0  0  0
  -24.6876   32.8181  -43.5788 C   0  0  0  0  0  0  0  0  0  0  0  0
  -22.1010   33.7520  -44.0935 C   0  0  0  0  0  0  0  0  0  0  0  0
  -25.5144   34.9933  -43.8026 C   0  0  0  0  0  0  0  0  0  0  0  0
  -26.8183   34.6271  -43.7518 C   0  0  0  0  0  0  0  0  0  0  0  0
  -27.0746   33.2663  -43.3514 C   0  0  0  0  0  0  0  0  0  0  0  0
  -23.7281   31.8484  -43.5440 C   0  0  0  0  0  0  0  0  0  0  0  0
  -21.0191   34.1090  -44.6432 C   0  0  0  0  0  0  0  0  0  0  0  0
  -22.1548   36.6279  -47.1585 O   0  0  0  0  0  0  0  0  0  0  0  0
  -26.0440   32.3690  -43.3474 C   0  0  0  0  0  0  0  0  0  0  0  0
  -26.4189   30.9387  -43.0563 C   0  0  0  0  0  0  0  0  0  0  0  0
  -24.3507   36.0994  -45.9846 O   0  0  0  0  0  0  0  0  0  0  0  0
  -24.5331   35.9676  -47.3151 C   0  0  0  0  0  0  0  0  0  0  0  0
  -23.2594   37.1395  -47.5125 C   0  0  0  0  0  0  0  0  0  0  0  0
  -22.3471   32.5415  -43.3727 C   0  0  0  0  0  0  0  0  0  0  0  0
  1  2  1  0
  2  3  2  0
  3  4  1  0
  4  5  1  0
  5  6  1  0
  4  7  2  0
  5  8  2  0
  8  9  1  0
  9 10  2  0
  6 11  1  0
  1 12  2  0
  7 12  1  0
  2 13  1  0
  6 14  2  0
 10 14  1  0
 14 15  1  0
  3 16  1  0
 16 17  1  0
 13 18  1  0
 17 18  1  0
  7 19  1  0
 11 19  1  0
M  END
>  <ID>  (1) 
conformer_0

$$$$
