
     RDKit          3D

 19 21  0  0  0  0  0  0  0  0999 V2000
  -20.9419   35.2843  -46.1728 N   0  0  0  0  0  0  0  0  0  0  0  0
  -21.7524   36.1035  -46.8599 C   0  0  0  0  0  0  0  0  0  0  0  0
  -21.4275   34.5559  -45.1124 C   0  0  0  0  0  0  0  0  0  0  0  0
  -21.3999   36.8434  -47.9151 O   0  0  0  0  0  0  0  0  0  0  0  0
  -22.8801   34.8337  -44.9001 N   0  0  0  0  0  0  0  0  0  0  0  0
  -23.4297   34.1381  -43.7720 C   0  0  0  0  0  0  0  0  0  0  0  0
  -24.8959   33.7221  -44.0403 C   0  0  0  0  0  0  0  0  0  0  0  0
  -23.1926   36.1960  -46.6691 C   0  0  0  0  0  0  0  0  0  0  0  0
  -23.6699   35.4713  -45.5680 C   0  0  0  0  0  0  0  0  0  0  0  0
  -25.4433   32.6807  -43.3276 C   0  0  0  0  0  0  0  0  0  0  0  0
  -26.7981   32.1902  -43.7060 C   0  0  0  0  0  0  0  0  0  0  0  0
  -24.1238   36.7964  -47.5652 C   0  0  0  0  0  0  0  0  0  0  0  0
  -23.7288   37.4585  -48.7134 C   0  0  0  0  0  0  0  0  0  0  0  0
  -27.8988   33.1234  -43.7621 C   0  0  0  0  0  0  0  0  0  0  0  0
  -27.4124   34.5287  -44.3537 C   0  0  0  0  0  0  0  0  0  0  0  0
  -25.9870   34.9079  -43.9135 C   0  0  0  0  0  0  0  0  0  0  0  0
  -27.1369   31.0173  -44.2150 C   0  0  0  0  0  0  0  0  0  0  0  0
  -24.9451   35.7561  -45.2658 N   0  0  0  0  0  0  0  0  0  0  0  0
  -20.7462   33.7858  -44.2715 C   0  0  0  0  0  0  0  0  0  0  0  0
  1  2  1  0
  1  3  2  0
  2  4  2  0
  3  5  1  0
  5  6  1  0
  6  7  1  0
  2  8  1  0
  5  9  1  0
  8  9  1  0
  7 10  1  0
 10 11  1  0
  8 12  2  3
 12 13  1  0
 11 14  1  0
 14 15  1  0
  7 16  1  0
 15 16  1  0
 11 17  2  0
  9 18  2  0
 16 18  1  0
  3 19  1  0
M  END
>  <ID>  (1) 
conformer_0

$$$$
