
     RDKit          3D

 12 13  0  0  0  0  0  0  0  0999 V2000
  -20.9419   35.2843  -46.1728 N   0  0  0  0  0  0  0  0  0  0  0  0
  -21.7524   36.1035  -46.8599 C   0  0  0  0  0  0  0  0  0  0  0  0
  -23.0542   36.1595  -46.3611 C   0  0  0  0  0  0  0  0  0  0  0  0
  -23.0405   35.1529  -45.3235 C   0  0  0  0  0  0  0  0  0  0  0  0
  -21.7667   34.7857  -45.1391 N   0  0  0  0  0  0  0  0  0  0  0  0
  -24.1962   34.8846  -44.5669 C   0  0  0  0  0  0  0  0  0  0  0  0
  -24.1994   36.7407  -47.0109 C   0  0  0  0  0  0  0  0  0  0  0  0
  -25.4361   36.0843  -46.7466 C   0  0  0  0  0  0  0  0  0  0  0  0
  -24.2938   38.1224  -46.4613 C   0  0  0  0  0  0  0  0  0  0  0  0
  -21.2489   33.8745  -44.1592 C   0  0  0  0  0  0  0  0  0  0  0  0
  -25.4914   35.3675  -45.5290 N   0  0  0  0  0  0  0  0  0  0  0  0
  -23.9924   36.8550  -48.5279 C   0  0  0  0  0  0  0  0  0  0  0  0
  1  2  2  0
  2  3  1  0
  3  4  2  0
  1  5  1  0
  4  5  1  0
  4  6  1  0
  3  7  1  0
  7  8  1  0
  7  9  1  0
  5 10  1  0
  6 11  1  0
  8 11  2  0
  7 12  1  0
M  END
>  <ID>  (1) 
conformer_0

$$$$
