
     RDKit          3D

 19 22  0  0  0  0  0  0  0  0999 V2000
  -20.7968   34.1089  -44.8143 C   0  0  0  0  0  0  0  0  0  0  0  0
  -21.1908   35.2040  -45.6969 C   0  0  0  0  0  0  0  0  0  0  0  0
  -22.5600   35.6361  -45.7018 C   0  0  0  0  0  0  0  0  0  0  0  0
  -23.5521   35.0919  -45.1410 C   0  0  0  0  0  0  0  0  0  0  0  0
  -23.3612   33.9588  -44.2811 C   0  0  0  0  0  0  0  0  0  0  0  0
  -22.9494   36.8273  -46.6329 C   0  0  0  0  0  0  0  0  0  0  0  0
  -24.3839   33.2697  -43.7626 C   0  0  0  0  0  0  0  0  0  0  0  0
  -25.7417   33.6488  -44.1499 C   0  0  0  0  0  0  0  0  0  0  0  0
  -24.9414   35.5065  -45.4059 C   0  0  0  0  0  0  0  0  0  0  0  0
  -22.8151   36.7369  -47.9033 C   0  0  0  0  0  0  0  0  0  0  0  0
  -26.8768   32.8458  -43.6324 C   0  0  0  0  0  0  0  0  0  0  0  0
  -22.0163   33.6274  -43.9618 C   0  0  0  0  0  0  0  0  0  0  0  0
  -25.9792   34.7764  -44.8786 C   0  0  0  0  0  0  0  0  0  0  0  0
  -25.2050   36.3880  -46.4143 C   0  0  0  0  0  0  0  0  0  0  0  0
  -24.2226   37.2740  -46.7014 C   0  0  0  0  0  0  0  0  0  0  0  0
  -23.2266   37.8455  -48.5375 C   0  0  0  0  0  0  0  0  0  0  0  0
  -27.0751   31.5539  -44.2969 C   0  0  0  0  0  0  0  0  0  0  0  0
  -28.1454   33.7183  -43.6686 C   0  0  0  0  0  0  0  0  0  0  0  0
  -24.4346   38.0056  -47.7837 N   0  0  0  0  0  0  0  0  0  0  0  0
  1  2  1  0
  2  3  1  0
  3  4  2  0
  4  5  1  0
  3  6  1  0
  5  7  2  0
  7  8  1  0
  4  9  1  0
  6 10  2  0
  8 11  1  0
  1 12  1  0
  5 12  1  0
  8 13  1  0
  9 13  1  0
  9 14  2  0
  6 15  1  0
 14 15  1  0
 10 16  1  0
 11 17  1  0
 11 18  1  0
 15 19  1  0
 16 19  1  0
M  END
>  <ID>  (1) 
conformer_0

$$$$
