
     RDKit          3D

 19 21  0  0  0  0  0  0  0  0999 V2000
  -25.3733   36.5524  -47.5734 C   0  0  0  0  0  0  0  0  0  0  0  0
  -24.4340   36.4222  -46.7194 C   0  0  0  0  0  0  0  0  0  0  0  0
  -23.0659   36.6496  -47.0336 C   0  0  0  0  0  0  0  0  0  0  0  0
  -22.0256   35.9949  -46.3881 C   0  0  0  0  0  0  0  0  0  0  0  0
  -22.7629   37.4361  -48.1334 C   0  0  0  0  0  0  0  0  0  0  0  0
  -22.3256   35.1779  -45.1710 C   0  0  0  0  0  0  0  0  0  0  0  0
  -21.2602   34.6220  -44.4221 C   0  0  0  0  0  0  0  0  0  0  0  0
  -23.6722   34.8206  -44.9429 C   0  0  0  0  0  0  0  0  0  0  0  0
  -24.7200   35.4523  -45.5863 N   0  0  0  0  0  0  0  0  0  0  0  0
  -23.7503   34.0297  -43.9116 C   0  0  0  0  0  0  0  0  0  0  0  0
  -21.3614   37.7295  -48.4863 O   0  0  0  0  0  0  0  0  0  0  0  0
  -26.0748   35.1754  -45.3458 C   0  0  0  0  0  0  0  0  0  0  0  0
  -21.2297   37.1991  -49.8485 C   0  0  0  0  0  0  0  0  0  0  0  0
  -26.6908   36.1931  -44.7380 O   0  0  0  0  0  0  0  0  0  0  0  0
  -25.1517   37.5022  -48.6315 C   0  0  0  0  0  0  0  0  0  0  0  0
  -28.0864   36.0359  -44.6899 C   0  0  0  0  0  0  0  0  0  0  0  0
  -22.7564   33.4243  -43.1845 C   0  0  0  0  0  0  0  0  0  0  0  0
  -21.4862   33.7201  -43.5267 C   0  0  0  0  0  0  0  0  0  0  0  0
  -23.8268   37.8399  -48.9682 C   0  0  0  0  0  0  0  0  0  0  0  0
  1  2  2  0
  2  3  1  0
  3  4  1  0
  3  5  2  0
  4  6  2  0
  6  7  1  0
  6  8  1  0
  2  9  1  0
  8  9  1  0
  8 10  2  0
  5 11  1  0
  9 12  1  0
 11 13  1  0
 12 14  1  0
  1 15  1  0
 14 16  1  0
 10 17  1  0
  7 18  1  0
 17 18  1  0
  5 19  1  0
 15 19  2  0
M  END
>  <ID>  (1) 
conformer_0

$$$$
