
     RDKit          3D

 18 21  0  0  0  0  0  0  0  0999 V2000
  -21.0134   35.0309  -45.8384 C   0  0  0  0  0  0  0  0  0  0  0  0
  -22.1335   35.5984  -46.1438 C   0  0  0  0  0  0  0  0  0  0  0  0
  -23.3375   35.3031  -45.5276 C   0  0  0  0  0  0  0  0  0  0  0  0
  -23.3482   34.3559  -44.5019 C   0  0  0  0  0  0  0  0  0  0  0  0
  -24.6298   33.9653  -43.8682 C   0  0  0  0  0  0  0  0  0  0  0  0
  -22.2454   36.6734  -47.3474 C   0  0  0  0  0  0  0  0  0  0  0  0
  -24.7048   35.8148  -45.8514 C   0  0  0  0  0  0  0  0  0  0  0  0
  -20.9860   34.1588  -44.7382 C   0  0  0  0  0  0  0  0  0  0  0  0
  -24.7853   32.7668  -43.4337 O   0  0  0  0  0  0  0  0  0  0  0  0
  -26.0115   32.1033  -43.5242 C   0  0  0  0  0  0  0  0  0  0  0  0
  -22.1659   33.7589  -44.1022 C   0  0  0  0  0  0  0  0  0  0  0  0
  -25.8057   34.3499  -44.6465 C   0  0  0  0  0  0  0  0  0  0  0  0
  -26.1189   30.8235  -44.3060 C   0  0  0  0  0  0  0  0  0  0  0  0
  -23.0458   37.6029  -47.2848 C   0  0  0  0  0  0  0  0  0  0  0  0
  -25.7590   35.6010  -45.2537 C   0  0  0  0  0  0  0  0  0  0  0  0
  -24.5822   36.9517  -46.9693 C   0  0  0  0  0  0  0  0  0  0  0  0
  -27.4562   30.4330  -44.2671 C   0  0  0  0  0  0  0  0  0  0  0  0
  -27.0503   33.1195  -44.0733 C   0  0  0  0  0  0  0  0  0  0  0  0
  1  2  1  0
  2  3  2  0
  3  4  1  0
  4  5  1  0
  2  6  1  0
  3  7  1  0
  1  8  2  0
  5  9  1  0
  9 10  1  0
  4 11  2  0
  8 11  1  0
  5 12  1  0
 10 13  1  0
  6 14  1  0
  7 15  1  0
 12 15  1  0
  7 16  1  0
 14 16  1  0
 13 17  1  0
 10 18  1  0
 12 18  1  0
M  END
>  <ID>  (1) 
conformer_0

$$$$
