
     RDKit          3D

 19 22  0  0  0  0  0  0  0  0999 V2000
  -21.0283   34.8948  -45.6022 C   0  0  0  0  0  0  0  0  0  0  0  0
  -22.0201   35.6513  -46.0726 C   0  0  0  0  0  0  0  0  0  0  0  0
  -23.2434   35.4811  -45.4691 C   0  0  0  0  0  0  0  0  0  0  0  0
  -23.1885   34.4447  -44.4554 C   0  0  0  0  0  0  0  0  0  0  0  0
  -24.4391   34.1512  -43.8303 C   0  0  0  0  0  0  0  0  0  0  0  0
  -24.6876   32.8181  -43.5788 C   0  0  0  0  0  0  0  0  0  0  0  0
  -21.9209   36.6759  -47.1706 O   0  0  0  0  0  0  0  0  0  0  0  0
  -25.5596   34.6262  -44.7637 C   0  0  0  0  0  0  0  0  0  0  0  0
  -24.3938   36.1150  -45.9712 C   0  0  0  0  0  0  0  0  0  0  0  0
  -26.9390   34.2516  -43.9909 C   0  0  0  0  0  0  0  0  0  0  0  0
  -24.3368   37.1958  -46.7208 C   0  0  0  0  0  0  0  0  0  0  0  0
  -25.9783   32.3221  -43.1000 C   0  0  0  0  0  0  0  0  0  0  0  0
  -23.0710   37.3496  -47.4988 C   0  0  0  0  0  0  0  0  0  0  0  0
  -28.0095   34.9799  -44.6931 C   0  0  0  0  0  0  0  0  0  0  0  0
  -21.8278   34.1651  -44.5125 C   0  0  0  0  0  0  0  0  0  0  0  0
  -25.6755   35.8697  -45.3932 C   0  0  0  0  0  0  0  0  0  0  0  0
  -23.0172   37.5811  -48.8060 C   0  0  0  0  0  0  0  0  0  0  0  0
  -27.0864   32.7573  -43.9469 C   0  0  0  0  0  0  0  0  0  0  0  0
  -27.8452   32.1155  -44.4949 O   0  0  0  0  0  0  0  0  0  0  0  0
  1  2  1  0
  2  3  2  0
  3  4  1  0
  4  5  1  0
  5  6  1  0
  2  7  1  0
  5  8  1  0
  3  9  1  0
  8 10  1  0
  9 11  2  0
  6 12  1  0
  7 13  1  0
 11 13  1  0
 10 14  1  0
  1 15  1  0
  4 15  2  0
  8 16  1  0
  9 16  1  0
 13 17  1  0
 10 18  1  0
 12 18  1  0
 18 19  2  0
M  END
>  <ID>  (1) 
conformer_0

$$$$
