
     RDKit          3D

 14 16  0  0  0  0  0  0  0  0999 V2000
   20.3436   10.5162   -8.3353 C   0  0  0  0  0  0  0  0  0  0  0  0
   20.5875   10.6774   -9.4969 C   0  0  0  0  0  0  0  0  0  0  0  0
   21.1113   11.7001  -10.0391 C   0  0  0  0  0  0  0  0  0  0  0  0
   21.0535   11.2877   -7.4283 C   0  0  0  0  0  0  0  0  0  0  0  0
   21.1995   12.0686  -11.4973 C   0  0  0  0  0  0  0  0  0  0  0  0
   21.7720   13.1096  -11.8911 C   0  0  0  0  0  0  0  0  0  0  0  0
   20.7397   11.2086  -12.5073 C   0  0  0  0  0  0  0  0  0  0  0  0
   22.3132   14.1840  -10.8475 O   0  0  0  0  0  0  0  0  0  0  0  0
   21.7748   12.6870   -9.1861 C   0  0  0  0  0  0  0  0  0  0  0  0
   20.8784   11.5306  -13.8252 C   0  0  0  0  0  0  0  0  0  0  0  0
   21.6975   12.4239   -7.8453 C   0  0  0  0  0  0  0  0  0  0  0  0
   22.1763   13.8364   -9.5911 C   0  0  0  0  0  0  0  0  0  0  0  0
   21.4524   12.7786  -14.1687 C   0  0  0  0  0  0  0  0  0  0  0  0
   21.9875   13.7170  -13.2081 C   0  0  0  0  0  0  0  0  0  0  0  0
  1  2  1  0
  2  3  2  0
  1  4  2  0
  3  5  1  0
  5  6  2  0
  5  7  1  0
  6  8  1  0
  3  9  1  0
  7 10  2  0
  4 11  1  0
  9 11  2  0
  8 12  1  0
  9 12  1  0
 10 13  1  0
  6 14  1  0
 13 14  2  0
M  END
>  <ID>  (1) 
conformer_0

$$$$
