
     RDKit          3D

 12 12  0  0  0  0  0  0  0  0999 V2000
   22.0275   14.6193  -10.5263 O   0  0  0  0  0  0  0  0  0  0  0  0
   21.5293   13.5542  -10.4166 C   0  0  0  0  0  0  0  0  0  0  0  0
   21.6995   12.7712   -9.3211 C   0  0  0  0  0  0  0  0  0  0  0  0
   20.8993   12.9047  -11.5031 C   0  0  0  0  0  0  0  0  0  0  0  0
   22.3754   13.3841   -8.1209 O   0  0  0  0  0  0  0  0  0  0  0  0
   21.1234   11.6501   -8.9813 C   0  0  0  0  0  0  0  0  0  0  0  0
   20.3554   11.0194   -9.9805 C   0  0  0  0  0  0  0  0  0  0  0  0
   21.2131   11.0177   -7.7497 C   0  0  0  0  0  0  0  0  0  0  0  0
   20.7937    9.7934   -7.6390 O   0  0  0  0  0  0  0  0  0  0  0  0
   21.4840   11.6351   -6.6713 O   0  0  0  0  0  0  0  0  0  0  0  0
   20.2716   11.7389  -11.2534 C   0  0  0  0  0  0  0  0  0  0  0  0
   19.4555   11.0833  -12.3258 C   0  0  0  0  0  0  0  0  0  0  0  0
  1  2  1  0
  2  3  1  0
  2  4  2  0
  3  5  1  0
  3  6  2  0
  6  7  1  0
  6  8  1  0
  8  9  2  0
  8 10  1  0
  4 11  1  0
  7 11  2  0
 11 12  1  0
M  END
>  <ID>  (1) 
conformer_0

$$$$
