
     RDKit          3D

 18 20  0  0  0  0  0  0  0  0999 V2000
   21.9469   13.6767   -8.6510 O   0  0  0  0  0  0  0  0  0  0  0  0
   21.7789   12.7048   -9.3357 C   0  0  0  0  0  0  0  0  0  0  0  0
   20.7103   11.9148   -9.0139 C   0  0  0  0  0  0  0  0  0  0  0  0
   20.2682   11.0620  -10.0582 C   0  0  0  0  0  0  0  0  0  0  0  0
   22.5483   12.3789  -10.4005 O   0  0  0  0  0  0  0  0  0  0  0  0
   22.3616   11.3681  -11.1207 C   0  0  0  0  0  0  0  0  0  0  0  0
   21.2990   10.7684  -11.0980 N   0  0  0  0  0  0  0  0  0  0  0  0
   23.4224   11.1480  -12.1095 C   0  0  0  0  0  0  0  0  0  0  0  0
   23.2371    9.7534  -12.8017 C   0  0  0  0  0  0  0  0  0  0  0  0
   19.0408   11.4538  -10.7315 C   0  0  0  0  0  0  0  0  0  0  0  0
   23.5396    9.7553  -14.0947 C   0  0  0  0  0  0  0  0  0  0  0  0
   19.4844   10.0320   -9.4107 C   0  0  0  0  0  0  0  0  0  0  0  0
   23.1572    8.6211  -12.0657 C   0  0  0  0  0  0  0  0  0  0  0  0
   21.1966   11.2063   -7.8047 C   0  0  0  0  0  0  0  0  0  0  0  0
   23.1331    7.4342  -12.7309 C   0  0  0  0  0  0  0  0  0  0  0  0
   23.3441    7.4126  -14.0959 C   0  0  0  0  0  0  0  0  0  0  0  0
   20.1921   10.2521   -8.0717 C   0  0  0  0  0  0  0  0  0  0  0  0
   23.5085    8.5823  -14.7724 C   0  0  0  0  0  0  0  0  0  0  0  0
  1  2  2  0
  2  3  1  0
  3  4  1  0
  2  5  1  0
  5  6  1  0
  4  7  1  0
  6  7  2  0
  6  8  1  0
  8  9  1  0
  4 10  1  0
  9 11  1  0
  4 12  1  0
  9 13  2  0
  3 14  1  0
 13 15  1  0
 15 16  2  0
 12 17  1  0
 14 17  1  0
 11 18  2  0
 16 18  1  0
M  END
>  <ID>  (1) 
conformer_0

$$$$
