
     RDKit          3D

 20 21  0  0  0  0  0  0  0  0999 V2000
   19.2656   10.6806   -9.6142 C   0  0  0  0  0  0  0  0  0  0  0  0
   19.4293   11.0061  -10.9173 C   0  0  0  0  0  0  0  0  0  0  0  0
   20.3579   11.4408  -11.5819 C   0  0  0  0  0  0  0  0  0  0  0  0
   20.3961   11.8298  -12.9816 C   0  0  0  0  0  0  0  0  0  0  0  0
   21.2987   11.2253  -13.7950 N   0  0  0  0  0  0  0  0  0  0  0  0
   20.4410   10.7908   -8.8289 C   0  0  0  0  0  0  0  0  0  0  0  0
   21.5374   11.6213  -10.6809 C   0  0  0  0  0  0  0  0  0  0  0  0
   22.1714   10.3252  -13.4988 C   0  0  0  0  0  0  0  0  0  0  0  0
   22.7407   12.1271  -11.3290 C   0  0  0  0  0  0  0  0  0  0  0  0
   23.1811   10.0581  -14.2416 C   0  0  0  0  0  0  0  0  0  0  0  0
   21.5771   11.2767   -9.3096 C   0  0  0  0  0  0  0  0  0  0  0  0
   20.3604   10.4362   -7.4809 O   0  0  0  0  0  0  0  0  0  0  0  0
   21.4616   11.3396  -15.1819 C   0  0  0  0  0  0  0  0  0  0  0  0
   20.7102   12.0446  -15.9744 O   0  0  0  0  0  0  0  0  0  0  0  0
   22.6445   13.4586  -12.0081 O   0  0  0  0  0  0  0  0  0  0  0  0
   22.6432   10.6125  -15.6561 C   0  0  0  0  0  0  0  0  0  0  0  0
   24.3252    9.1978  -14.1918 C   0  0  0  0  0  0  0  0  0  0  0  0
   21.1884   11.0138   -6.5188 C   0  0  0  0  0  0  0  0  0  0  0  0
   25.4457    9.6990  -14.2817 O   0  0  0  0  0  0  0  0  0  0  0  0
   24.1919    7.9933  -13.6451 O   0  0  0  0  0  0  0  0  0  0  0  0
  1  2  1  0
  2  3  2  0
  3  4  1  0
  4  5  1  0
  1  6  2  0
  3  7  1  0
  5  8  1  0
  7  9  1  0
  8 10  2  0
  6 11  1  0
  7 11  2  0
  6 12  1  0
  5 13  1  0
 13 14  2  0
  9 15  1  0
 10 16  1  0
 13 16  1  0
 10 17  1  0
 12 18  1  0
 17 19  2  0
 17 20  1  0
M  END
>  <ID>  (1) 
conformer_0

$$$$
