
     RDKit          3D

 11 11  0  0  0  0  0  0  0  0999 V2000
   21.8754   15.0251  -11.1791 O   0  0  0  0  0  0  0  0  0  0  0  0
   21.3173   13.9052  -10.9567 C   0  0  0  0  0  0  0  0  0  0  0  0
   21.4278   13.2277   -9.7915 C   0  0  0  0  0  0  0  0  0  0  0  0
   20.8882   13.2609  -12.0636 C   0  0  0  0  0  0  0  0  0  0  0  0
   20.7630   11.9493   -9.6453 C   0  0  0  0  0  0  0  0  0  0  0  0
   20.8082   13.9464  -13.3245 O   0  0  0  0  0  0  0  0  0  0  0  0
   20.7876   11.2988   -8.3706 C   0  0  0  0  0  0  0  0  0  0  0  0
   20.2430   12.0055  -11.9102 C   0  0  0  0  0  0  0  0  0  0  0  0
   21.2198   11.8656   -7.2527 C   0  0  0  0  0  0  0  0  0  0  0  0
   20.2252   11.3545  -10.6705 C   0  0  0  0  0  0  0  0  0  0  0  0
   20.0841   10.3756   -8.0309 O   0  0  0  0  0  0  0  0  0  0  0  0
  1  2  1  0
  2  3  1  0
  2  4  2  0
  3  5  2  0
  4  6  1  0
  5  7  1  0
  4  8  1  0
  7  9  1  0
  5 10  1  0
  8 10  2  0
  7 11  2  0
M  END
>  <ID>  (1) 
conformer_0

$$$$
