
     RDKit          3D

 20 22  0  0  0  0  0  0  0  0999 V2000
   19.5090   10.6258   -9.3415 C   0  0  0  0  0  0  0  0  0  0  0  0
   20.4039   10.8788  -10.3530 C   0  0  0  0  0  0  0  0  0  0  0  0
   21.2125   11.8866  -10.4582 C   0  0  0  0  0  0  0  0  0  0  0  0
   20.6556    9.8897  -11.3500 C   0  0  0  0  0  0  0  0  0  0  0  0
   21.6467   10.0431  -12.3938 C   0  0  0  0  0  0  0  0  0  0  0  0
   21.8844    9.1479  -13.4817 C   0  0  0  0  0  0  0  0  0  0  0  0
   23.0282    9.0231  -13.9589 C   0  0  0  0  0  0  0  0  0  0  0  0
   24.1167    9.9389  -13.7203 C   0  0  0  0  0  0  0  0  0  0  0  0
   23.2370    7.9468  -15.0075 C   0  0  0  0  0  0  0  0  0  0  0  0
   22.1974   11.3725  -12.1241 C   0  0  0  0  0  0  0  0  0  0  0  0
   25.4608    9.2865  -14.1148 C   0  0  0  0  0  0  0  0  0  0  0  0
   21.9193   12.1705  -11.2932 C   0  0  0  0  0  0  0  0  0  0  0  0
   24.4398    7.7455  -15.3808 C   0  0  0  0  0  0  0  0  0  0  0  0
   22.7296   13.5163  -11.2621 O   0  0  0  0  0  0  0  0  0  0  0  0
   20.0809   11.0370   -8.0963 C   0  0  0  0  0  0  0  0  0  0  0  0
   24.5552    6.5887  -16.3969 C   0  0  0  0  0  0  0  0  0  0  0  0
   20.6224   12.3995   -8.1183 C   0  0  0  0  0  0  0  0  0  0  0  0
   21.1254   13.0417   -9.3255 C   0  0  0  0  0  0  0  0  0  0  0  0
   25.5796    8.4083  -15.0998 C   0  0  0  0  0  0  0  0  0  0  0  0
   26.8409    8.0824  -15.4884 O   0  0  0  0  0  0  0  0  0  0  0  0
  1  2  1  0
  2  3  1  0
  2  4  2  0
  4  5  1  0
  5  6  1  0
  6  7  2  3
  7  8  1  0
  7  9  1  0
  5 10  2  0
  8 11  1  0
  3 12  2  0
 10 12  1  0
  9 13  2  0
 12 14  1  0
  1 15  1  0
 13 16  1  0
 15 17  1  0
  3 18  1  0
 17 18  1  0
 11 19  2  0
 13 19  1  0
 19 20  1  0
M  END
>  <ID>  (1) 
conformer_0

$$$$
