
     RDKit          3D

 20 22  0  0  0  0  0  0  0  0999 V2000
   22.2562   14.2064   -9.6633 O   0  0  0  0  0  0  0  0  0  0  0  0
   21.6850   13.2085   -9.1827 C   0  0  0  0  0  0  0  0  0  0  0  0
   21.5427   12.7787   -7.9789 N   0  0  0  0  0  0  0  0  0  0  0  0
   21.3524   12.1777  -10.2228 C   0  0  0  0  0  0  0  0  0  0  0  0
   21.3847   12.4838  -11.6162 C   0  0  0  0  0  0  0  0  0  0  0  0
   22.5363   12.3102  -12.2041 C   0  0  0  0  0  0  0  0  0  0  0  0
   20.9331   11.5743   -7.7999 C   0  0  0  0  0  0  0  0  0  0  0  0
   20.9891   13.9099  -11.8827 C   0  0  0  0  0  0  0  0  0  0  0  0
   20.6783   11.0054   -6.6873 N   0  0  0  0  0  0  0  0  0  0  0  0
   20.6153   10.9178   -9.1625 S   0  0  0  0  0  0  0  0  0  0  0  0
   22.7699   10.9992  -12.7747 C   0  0  0  0  0  0  0  0  0  0  0  0
   23.1779   10.0038  -12.3448 C   0  0  0  0  0  0  0  0  0  0  0  0
   23.7010    9.9146  -10.9554 F   0  0  0  0  0  0  0  0  0  0  0  0
   23.1814    8.6731  -12.9098 C   0  0  0  0  0  0  0  0  0  0  0  0
   22.8936   13.4265  -12.9525 N   0  0  0  0  0  0  0  0  0  0  0  0
   22.2270   10.9181  -14.1233 C   0  0  0  0  0  0  0  0  0  0  0  0
   22.6800    8.6043  -14.1575 C   0  0  0  0  0  0  0  0  0  0  0  0
   21.8152   14.2311  -13.0210 C   0  0  0  0  0  0  0  0  0  0  0  0
   22.6957    7.3195  -14.8128 F   0  0  0  0  0  0  0  0  0  0  0  0
   22.1873    9.6863  -14.7842 C   0  0  0  0  0  0  0  0  0  0  0  0
  1  2  2  0
  2  3  1  0
  2  4  1  0
  4  5  1  0
  5  6  1  0
  3  7  2  0
  5  8  1  0
  7  9  1  0
  4 10  1  0
  7 10  1  0
  6 11  1  0
 11 12  2  0
 12 13  1  0
 12 14  1  0
  6 15  1  0
 11 16  1  0
 14 17  2  0
  8 18  1  0
 15 18  1  0
 17 19  1  0
 16 20  2  0
 17 20  1  0
M  END
>  <ID>  (1) 
conformer_0

$$$$
