
     RDKit          3D

 21 24  0  0  0  0  0  0  0  0999 V2000
   20.3436   10.5162   -8.3353 C   0  0  0  0  0  0  0  0  0  0  0  0
   20.5875   10.6774   -9.4969 C   0  0  0  0  0  0  0  0  0  0  0  0
   21.1113   11.7001  -10.0391 C   0  0  0  0  0  0  0  0  0  0  0  0
   21.6128   12.7709   -9.1628 C   0  0  0  0  0  0  0  0  0  0  0  0
   21.2744   12.0000  -11.4781 N   0  0  0  0  0  0  0  0  0  0  0  0
   21.2548   11.3039  -12.4266 C   0  0  0  0  0  0  0  0  0  0  0  0
   21.4504   12.6190   -7.8183 C   0  0  0  0  0  0  0  0  0  0  0  0
   21.9274   13.5016   -6.8617 O   0  0  0  0  0  0  0  0  0  0  0  0
   21.5295   11.8044  -13.6710 C   0  0  0  0  0  0  0  0  0  0  0  0
   21.5280   11.0681  -14.7340 C   0  0  0  0  0  0  0  0  0  0  0  0
   21.7585   11.5702  -16.0987 C   0  0  0  0  0  0  0  0  0  0  0  0
   21.3324   13.4378  -11.8620 C   0  0  0  0  0  0  0  0  0  0  0  0
   21.8713    9.6867  -14.5467 C   0  0  0  0  0  0  0  0  0  0  0  0
   22.5964   13.9232  -12.1485 C   0  0  0  0  0  0  0  0  0  0  0  0
   20.4039   13.6977  -12.9325 N   0  0  0  0  0  0  0  0  0  0  0  0
   20.8528   11.4073   -7.3464 C   0  0  0  0  0  0  0  0  0  0  0  0
   22.2342    8.9003  -15.6354 O   0  0  0  0  0  0  0  0  0  0  0  0
   21.1464   13.0795  -13.9586 C   0  0  0  0  0  0  0  0  0  0  0  0
   22.7366   13.8014  -13.5176 C   0  0  0  0  0  0  0  0  0  0  0  0
   21.7071    9.0512  -13.4123 C   0  0  0  0  0  0  0  0  0  0  0  0
   21.5952    9.9248  -12.1647 C   0  0  0  0  0  0  0  0  0  0  0  0
  1  2  1  0
  2  3  2  0
  3  4  1  0
  3  5  1  0
  5  6  1  0
  4  7  2  0
  7  8  1  0
  6  9  1  0
  9 10  2  0
 10 11  1  0
  5 12  1  0
 10 13  1  0
 12 14  1  0
 12 15  1  0
  1 16  2  0
  7 16  1  0
 13 17  1  0
  9 18  1  0
 15 18  1  0
 14 19  1  0
 18 19  1  0
 13 20  2  0
  6 21  2  0
 20 21  1  0
M  END
>  <ID>  (1) 
conformer_0

$$$$
