
     RDKit          3D

 23 24  0  0  0  0  0  0  0  0999 V2000
   19.2656   10.6806   -9.6142 C   0  0  0  0  0  0  0  0  0  0  0  0
   20.4042   10.6793   -8.9705 C   0  0  0  0  0  0  0  0  0  0  0  0
   19.6609   10.6623  -11.0216 C   0  0  0  0  0  0  0  0  0  0  0  0
   20.8488   10.7071  -11.5002 C   0  0  0  0  0  0  0  0  0  0  0  0
   21.1201   10.7188  -12.9944 C   0  0  0  0  0  0  0  0  0  0  0  0
   21.6790   10.8393   -9.3015 C   0  0  0  0  0  0  0  0  0  0  0  0
   21.5125    9.8129  -13.6302 C   0  0  0  0  0  0  0  0  0  0  0  0
   21.9345   10.8460  -10.7221 C   0  0  0  0  0  0  0  0  0  0  0  0
   20.9142   12.0050  -13.6448 C   0  0  0  0  0  0  0  0  0  0  0  0
   20.4830   13.2127  -13.0509 N   0  0  0  0  0  0  0  0  0  0  0  0
   21.8519    8.4441  -13.0761 C   0  0  0  0  0  0  0  0  0  0  0  0
   21.5222   13.8782  -12.3266 C   0  0  0  0  0  0  0  0  0  0  0  0
   21.1758   14.5181  -11.3186 O   0  0  0  0  0  0  0  0  0  0  0  0
   21.9914    9.8890  -15.0333 C   0  0  0  0  0  0  0  0  0  0  0  0
   22.7693   13.8423  -12.6815 O   0  0  0  0  0  0  0  0  0  0  0  0
   21.4423   14.0853  -10.0250 C   0  0  0  0  0  0  0  0  0  0  0  0
   23.2117    8.0867  -12.9918 C   0  0  0  0  0  0  0  0  0  0  0  0
   20.2154   10.6383   -7.4747 O   0  0  0  0  0  0  0  0  0  0  0  0
   22.1208    8.7689  -15.7130 O   0  0  0  0  0  0  0  0  0  0  0  0
   21.6801   11.0333  -15.6641 C   0  0  0  0  0  0  0  0  0  0  0  0
   21.1610   11.2238   -6.6564 C   0  0  0  0  0  0  0  0  0  0  0  0
   21.1678   12.1649  -15.0063 C   0  0  0  0  0  0  0  0  0  0  0  0
   24.1208    9.2050  -12.8429 C   0  0  0  0  0  0  0  0  0  0  0  0
  1  2  1  0
  1  3  2  0
  3  4  1  0
  4  5  1  0
  2  6  2  0
  5  7  2  0
  4  8  2  0
  6  8  1  0
  5  9  1  0
  9 10  1  0
  7 11  1  0
 10 12  1  0
 12 13  1  0
  7 14  1  0
 12 15  2  0
 13 16  1  0
 11 17  1  0
  2 18  1  0
 14 19  1  0
 14 20  2  0
 18 21  1  0
  9 22  2  0
 20 22  1  0
 17 23  1  0
M  END
>  <ID>  (1) 
conformer_0

$$$$
