
     RDKit          3D

 10 10  0  0  0  0  0  0  0  0999 V2000
   25.6585    8.9623  -14.3434 C   0  0  0  0  0  0  0  0  0  0  0  0
   24.4096    8.9370  -14.2277 C   0  0  0  0  0  0  0  0  0  0  0  0
   23.8326    8.5232  -13.0570 C   0  0  0  0  0  0  0  0  0  0  0  0
   26.3148    8.2665  -15.3868 C   0  0  0  0  0  0  0  0  0  0  0  0
   23.6035    9.4262  -15.2609 C   0  0  0  0  0  0  0  0  0  0  0  0
   26.9252    7.3664  -15.3564 O   0  0  0  0  0  0  0  0  0  0  0  0
   22.3538    8.5479  -12.9234 C   0  0  0  0  0  0  0  0  0  0  0  0
   26.2106    8.8602  -16.6330 O   0  0  0  0  0  0  0  0  0  0  0  0
   22.3484    9.6430  -15.2918 C   0  0  0  0  0  0  0  0  0  0  0  0
   21.6300    9.0518  -14.0566 C   0  0  0  0  0  0  0  0  0  0  0  0
  1  2  1  0
  2  3  1  0
  1  4  1  0
  2  5  2  0
  4  6  1  0
  3  7  2  0
  4  8  2  0
  5  9  1  0
  7 10  1  0
  9 10  2  0
M  END
>  <ID>  (1) 
conformer_0

$$$$
