
     RDKit          3D

 16 17  0  0  0  0  0  0  0  0999 V2000
   19.5090   10.6258   -9.3415 C   0  0  0  0  0  0  0  0  0  0  0  0
   20.6257   10.7148   -8.7914 C   0  0  0  0  0  0  0  0  0  0  0  0
   19.8187   10.6408  -10.8235 C   0  0  0  0  0  0  0  0  0  0  0  0
   20.4112   10.8246   -7.2109 O   0  0  0  0  0  0  0  0  0  0  0  0
   21.1462   10.6892  -11.2445 C   0  0  0  0  0  0  0  0  0  0  0  0
   21.4173   10.6411  -12.7186 C   0  0  0  0  0  0  0  0  0  0  0  0
   21.4156   11.8521  -13.4269 C   0  0  0  0  0  0  0  0  0  0  0  0
   21.3933   11.7686  -14.6577 C   0  0  0  0  0  0  0  0  0  0  0  0
   21.6588   10.4570  -15.0554 C   0  0  0  0  0  0  0  0  0  0  0  0
   22.1049   10.7139  -10.3726 C   0  0  0  0  0  0  0  0  0  0  0  0
   21.6344    9.7345  -13.6572 C   0  0  0  0  0  0  0  0  0  0  0  0
   21.8782   10.7685   -9.0449 C   0  0  0  0  0  0  0  0  0  0  0  0
   21.1152   13.3140  -12.7507 C   0  0  0  0  0  0  0  0  0  0  0  0
   20.2381   13.5848  -12.1207 O   0  0  0  0  0  0  0  0  0  0  0  0
   21.2632   11.6504   -6.5039 C   0  0  0  0  0  0  0  0  0  0  0  0
   22.0895   14.1800  -12.9797 N   0  0  0  0  0  0  0  0  0  0  0  0
  1  2  1  0
  1  3  2  0
  2  4  1  0
  3  5  1  0
  5  6  1  0
  6  7  1  0
  7  8  2  0
  8  9  1  0
  5 10  2  0
  6 11  2  0
  9 11  2  0
  2 12  2  0
 10 12  1  0
  7 13  1  0
 13 14  2  0
  4 15  1  0
 13 16  1  0
M  END
>  <ID>  (1) 
conformer_0

$$$$
