
     RDKit          3D

 21 24  0  0  0  0  0  0  0  0999 V2000
   21.6997   14.2263  -11.8708 C   0  0  0  0  0  0  0  0  0  0  0  0
   21.4522   13.9144  -10.7237 C   0  0  0  0  0  0  0  0  0  0  0  0
   21.6513   13.2421  -12.8492 C   0  0  0  0  0  0  0  0  0  0  0  0
   20.9966   12.5663  -10.3638 C   0  0  0  0  0  0  0  0  0  0  0  0
   20.6808   12.1816   -8.9935 N   0  0  0  0  0  0  0  0  0  0  0  0
   21.9858   13.6486  -14.2691 C   0  0  0  0  0  0  0  0  0  0  0  0
   20.2163   11.0277   -8.8247 C   0  0  0  0  0  0  0  0  0  0  0  0
   20.5284   12.9508   -7.9082 C   0  0  0  0  0  0  0  0  0  0  0  0
   21.9668   12.5635  -15.1449 C   0  0  0  0  0  0  0  0  0  0  0  0
   20.9093   11.7745  -11.3748 C   0  0  0  0  0  0  0  0  0  0  0  0
   21.3539   11.4548  -14.6180 C   0  0  0  0  0  0  0  0  0  0  0  0
   21.2507   12.0691  -12.6146 C   0  0  0  0  0  0  0  0  0  0  0  0
   21.3942   10.3916  -15.5301 C   0  0  0  0  0  0  0  0  0  0  0  0
   22.4044   12.4605  -16.3449 C   0  0  0  0  0  0  0  0  0  0  0  0
   21.0628   11.1397  -13.4790 O   0  0  0  0  0  0  0  0  0  0  0  0
   20.8454    9.0889  -15.0950 O   0  0  0  0  0  0  0  0  0  0  0  0
   20.1410   10.0318   -9.9333 C   0  0  0  0  0  0  0  0  0  0  0  0
   22.8976   13.7837  -16.8955 O   0  0  0  0  0  0  0  0  0  0  0  0
   22.2969   11.5978  -17.2578 C   0  0  0  0  0  0  0  0  0  0  0  0
   21.7658   10.4105  -16.8242 C   0  0  0  0  0  0  0  0  0  0  0  0
   20.5129   10.4598  -11.1330 C   0  0  0  0  0  0  0  0  0  0  0  0
  1  2  2  0
  1  3  1  0
  2  4  1  0
  4  5  1  0
  3  6  1  0
  5  7  1  0
  5  8  1  0
  6  9  1  0
  4 10  2  0
  9 11  1  0
  3 12  2  0
 10 12  1  0
 11 13  2  0
  9 14  2  0
 11 15  1  0
 12 15  1  0
 13 16  1  0
  7 17  2  0
 14 18  1  0
 14 19  1  0
 13 20  1  0
 19 20  2  0
 10 21  1  0
 17 21  1  0
M  END
>  <ID>  (1) 
conformer_0

$$$$
