
     RDKit          3D

 17 20  0  0  0  0  0  0  0  0999 V2000
   21.6997   14.2263  -11.8708 C   0  0  0  0  0  0  0  0  0  0  0  0
   21.4522   13.9144  -10.7237 C   0  0  0  0  0  0  0  0  0  0  0  0
   21.6513   13.2421  -12.8492 C   0  0  0  0  0  0  0  0  0  0  0  0
   20.9966   12.5663  -10.3638 C   0  0  0  0  0  0  0  0  0  0  0  0
   20.6808   12.1816   -8.9935 N   0  0  0  0  0  0  0  0  0  0  0  0
   21.9858   13.6486  -14.2691 C   0  0  0  0  0  0  0  0  0  0  0  0
   20.2163   11.0277   -8.8247 C   0  0  0  0  0  0  0  0  0  0  0  0
   20.5284   12.9508   -7.9082 C   0  0  0  0  0  0  0  0  0  0  0  0
   21.9668   12.5635  -15.1449 C   0  0  0  0  0  0  0  0  0  0  0  0
   20.9093   11.7745  -11.3748 C   0  0  0  0  0  0  0  0  0  0  0  0
   19.9818   10.1731  -10.0646 C   0  0  0  0  0  0  0  0  0  0  0  0
   20.9232   12.0041   -6.8349 C   0  0  0  0  0  0  0  0  0  0  0  0
   20.6329   10.6573   -7.5483 C   0  0  0  0  0  0  0  0  0  0  0  0
   21.2571   11.4949  -14.6391 C   0  0  0  0  0  0  0  0  0  0  0  0
   21.2049   12.1043  -12.6527 C   0  0  0  0  0  0  0  0  0  0  0  0
   21.4068   11.0124  -13.3838 C   0  0  0  0  0  0  0  0  0  0  0  0
   20.3578   10.5669  -11.2075 C   0  0  0  0  0  0  0  0  0  0  0  0
  1  2  2  0
  1  3  1  0
  2  4  1  0
  4  5  1  0
  3  6  1  0
  5  7  1  0
  5  8  1  0
  6  9  1  0
  4 10  2  0
  7 11  1  0
  8 12  1  0
  7 13  2  0
 12 13  1  0
  9 14  1  0
  3 15  2  0
 10 15  1  0
 14 16  1  0
 15 16  1  0
 10 17  1  0
 11 17  2  0
M  END
>  <ID>  (1) 
conformer_0

$$$$
