
     RDKit          3D

 20 22  0  0  0  0  0  0  0  0999 V2000
   19.2656   10.6806   -9.6142 C   0  0  0  0  0  0  0  0  0  0  0  0
   20.4042   10.6793   -8.9705 C   0  0  0  0  0  0  0  0  0  0  0  0
   19.6609   10.6623  -11.0216 C   0  0  0  0  0  0  0  0  0  0  0  0
   20.8488   10.7071  -11.5002 C   0  0  0  0  0  0  0  0  0  0  0  0
   21.1201   10.7188  -12.9944 C   0  0  0  0  0  0  0  0  0  0  0  0
   21.6790   10.8393   -9.3015 C   0  0  0  0  0  0  0  0  0  0  0  0
   21.5125    9.8129  -13.6302 C   0  0  0  0  0  0  0  0  0  0  0  0
   21.9345   10.8460  -10.7221 C   0  0  0  0  0  0  0  0  0  0  0  0
   21.8606    8.4798  -13.1065 C   0  0  0  0  0  0  0  0  0  0  0  0
   21.7217    9.8843  -15.0857 C   0  0  0  0  0  0  0  0  0  0  0  0
   20.9700   12.0377  -13.5464 C   0  0  0  0  0  0  0  0  0  0  0  0
   20.1450   10.9883   -7.4669 O   0  0  0  0  0  0  0  0  0  0  0  0
   23.1991    7.8006  -13.5861 C   0  0  0  0  0  0  0  0  0  0  0  0
   21.0882   12.0949  -15.0059 C   0  0  0  0  0  0  0  0  0  0  0  0
   21.3582   11.0937   -6.6425 C   0  0  0  0  0  0  0  0  0  0  0  0
   24.1857    8.6076  -13.7555 C   0  0  0  0  0  0  0  0  0  0  0  0
   23.4729    6.7023  -12.7310 C   0  0  0  0  0  0  0  0  0  0  0  0
   22.1242    8.7417  -15.8062 O   0  0  0  0  0  0  0  0  0  0  0  0
   21.4825   11.0361  -15.6936 C   0  0  0  0  0  0  0  0  0  0  0  0
   22.4974    7.6420  -14.9440 C   0  0  0  0  0  0  0  0  0  0  0  0
  1  2  1  0
  1  3  2  0
  3  4  1  0
  4  5  1  0
  2  6  2  0
  5  7  2  0
  4  8  2  0
  6  8  1  0
  7  9  1  0
  7 10  1  0
  5 11  1  0
  2 12  1  0
  9 13  1  0
 11 14  2  0
 12 15  1  0
 13 16  1  0
 13 17  1  0
 10 18  1  0
 10 19  2  0
 14 19  1  0
 13 20  1  0
 18 20  1  0
M  END
>  <ID>  (1) 
conformer_0

$$$$
