
     RDKit          3D

 18 21  0  0  0  0  0  0  0  0999 V2000
   21.6997   14.2263  -11.8708 C   0  0  0  0  0  0  0  0  0  0  0  0
   21.4522   13.9144  -10.7237 C   0  0  0  0  0  0  0  0  0  0  0  0
   21.6122   14.6846   -9.6173 O   0  0  0  0  0  0  0  0  0  0  0  0
   21.1711   12.5116  -10.4141 C   0  0  0  0  0  0  0  0  0  0  0  0
   21.4954   13.4054  -12.9891 C   0  0  0  0  0  0  0  0  0  0  0  0
   21.1537   12.0812  -12.7771 C   0  0  0  0  0  0  0  0  0  0  0  0
   21.4410   13.7697   -8.4959 C   0  0  0  0  0  0  0  0  0  0  0  0
   20.8381   11.5285  -11.6341 C   0  0  0  0  0  0  0  0  0  0  0  0
   21.0331   12.3773   -9.0189 C   0  0  0  0  0  0  0  0  0  0  0  0
   20.8784   11.0943  -14.0912 C   0  0  0  0  0  0  0  0  0  0  0  0
   21.8745   11.3322   -8.3997 C   0  0  0  0  0  0  0  0  0  0  0  0
   21.3134   11.6011  -15.2748 C   0  0  0  0  0  0  0  0  0  0  0  0
   19.8351   11.6900   -8.5594 C   0  0  0  0  0  0  0  0  0  0  0  0
   21.6519   10.6140  -16.0948 C   0  0  0  0  0  0  0  0  0  0  0  0
   21.4520    9.8132  -13.7829 C   0  0  0  0  0  0  0  0  0  0  0  0
   21.7728    9.0586  -14.8823 C   0  0  0  0  0  0  0  0  0  0  0  0
   22.1872    9.5082  -15.9189 C   0  0  0  0  0  0  0  0  0  0  0  0
   20.2422   10.4988   -7.9382 N   0  0  0  0  0  0  0  0  0  0  0  0
  1  2  2  0
  2  3  1  0
  2  4  1  0
  1  5  1  0
  5  6  2  0
  3  7  1  0
  4  8  2  0
  6  8  1  0
  4  9  1  0
  7  9  1  0
  6 10  1  0
  9 11  1  0
 10 12  1  0
  9 13  1  0
 12 14  2  0
 10 15  1  0
 15 16  1  0
 14 17  1  0
 16 17  1  0
 11 18  1  0
 13 18  1  0
M  END
>  <ID>  (1) 
conformer_0

$$$$
