
     RDKit          3D

 13 14  0  0  0  0  0  0  0  0999 V2000
   20.3436   10.5162   -8.3353 C   0  0  0  0  0  0  0  0  0  0  0  0
   20.5875   10.6774   -9.4969 C   0  0  0  0  0  0  0  0  0  0  0  0
   21.1113   11.7001  -10.0391 C   0  0  0  0  0  0  0  0  0  0  0  0
   21.6128   12.7709   -9.1628 C   0  0  0  0  0  0  0  0  0  0  0  0
   20.9988   11.2150   -7.4329 C   0  0  0  0  0  0  0  0  0  0  0  0
   21.1983   12.0028  -11.4995 C   0  0  0  0  0  0  0  0  0  0  0  0
   20.9305   11.0604   -5.9835 O   0  0  0  0  0  0  0  0  0  0  0  0
   22.1264   12.6550  -12.0709 C   0  0  0  0  0  0  0  0  0  0  0  0
   22.2416   13.0975  -13.2026 C   0  0  0  0  0  0  0  0  0  0  0  0
   21.4733   12.6250  -14.1756 C   0  0  0  0  0  0  0  0  0  0  0  0
   20.5486   11.6905  -13.8005 C   0  0  0  0  0  0  0  0  0  0  0  0
   20.3737   11.2994  -12.5557 C   0  0  0  0  0  0  0  0  0  0  0  0
   21.5949   12.5003   -7.8384 C   0  0  0  0  0  0  0  0  0  0  0  0
  1  2  1  0
  2  3  2  0
  3  4  1  0
  1  5  2  0
  3  6  1  0
  5  7  1  0
  6  8  2  0
  8  9  1  0
  9 10  2  0
 10 11  1  0
  6 12  1  0
 11 12  2  0
  4 13  2  0
  5 13  1  0
M  END
>  <ID>  (1) 
conformer_0

$$$$
