
     RDKit          3D

 21 22  0  0  0  0  0  0  0  0999 V2000
   19.2656   10.6806   -9.6142 C   0  0  0  0  0  0  0  0  0  0  0  0
   19.4293   11.0061  -10.9173 C   0  0  0  0  0  0  0  0  0  0  0  0
   20.3579   11.4408  -11.5819 C   0  0  0  0  0  0  0  0  0  0  0  0
   20.3961   11.8298  -12.9816 C   0  0  0  0  0  0  0  0  0  0  0  0
   21.2987   11.2253  -13.7950 N   0  0  0  0  0  0  0  0  0  0  0  0
   20.4410   10.7908   -8.8289 C   0  0  0  0  0  0  0  0  0  0  0  0
   21.5374   11.6213  -10.6809 C   0  0  0  0  0  0  0  0  0  0  0  0
   22.1714   10.3252  -13.4988 C   0  0  0  0  0  0  0  0  0  0  0  0
   22.7407   12.1271  -11.3290 C   0  0  0  0  0  0  0  0  0  0  0  0
   21.5316   11.2636   -9.4650 C   0  0  0  0  0  0  0  0  0  0  0  0
   20.3881   10.4048   -7.5201 O   0  0  0  0  0  0  0  0  0  0  0  0
   21.5023   10.5638   -6.6306 C   0  0  0  0  0  0  0  0  0  0  0  0
   22.8557   13.4306  -11.5871 O   0  0  0  0  0  0  0  0  0  0  0  0
   21.5659   11.9687  -14.9739 C   0  0  0  0  0  0  0  0  0  0  0  0
   21.7752    9.1316  -13.1056 C   0  0  0  0  0  0  0  0  0  0  0  0
   23.5507   10.5099  -13.4053 C   0  0  0  0  0  0  0  0  0  0  0  0
   22.7766    8.1291  -12.6582 C   0  0  0  0  0  0  0  0  0  0  0  0
   24.5158    9.5814  -13.0200 C   0  0  0  0  0  0  0  0  0  0  0  0
   22.2825    6.7403  -12.3088 F   0  0  0  0  0  0  0  0  0  0  0  0
   23.8154   11.5125  -11.1072 O   0  0  0  0  0  0  0  0  0  0  0  0
   24.0461    8.3201  -12.7148 C   0  0  0  0  0  0  0  0  0  0  0  0
  1  2  1  0
  2  3  2  0
  3  4  1  0
  4  5  1  0
  1  6  2  0
  3  7  1  0
  5  8  1  0
  7  9  1  0
  6 10  1  0
  7 10  2  0
  6 11  1  0
 11 12  1  0
  9 13  2  0
  5 14  1  0
  8 15  2  0
  8 16  1  0
 15 17  1  0
 16 18  2  0
 17 19  1  0
  9 20  1  0
 17 21  2  0
 18 21  1  0
M  END
>  <ID>  (1) 
conformer_0

$$$$
