
     RDKit          3D

 21 25  0  0  0  0  0  0  0  0999 V2000
   21.6997   14.2263  -11.8708 C   0  0  0  0  0  0  0  0  0  0  0  0
   21.4522   13.9144  -10.7237 C   0  0  0  0  0  0  0  0  0  0  0  0
   21.6513   13.2421  -12.8492 C   0  0  0  0  0  0  0  0  0  0  0  0
   20.9966   12.5663  -10.3638 C   0  0  0  0  0  0  0  0  0  0  0  0
   20.6808   12.1816   -8.9935 N   0  0  0  0  0  0  0  0  0  0  0  0
   21.9858   13.6486  -14.2691 C   0  0  0  0  0  0  0  0  0  0  0  0
   20.2163   11.0277   -8.8247 C   0  0  0  0  0  0  0  0  0  0  0  0
   20.5284   12.9508   -7.9082 C   0  0  0  0  0  0  0  0  0  0  0  0
   21.9668   12.5635  -15.1449 C   0  0  0  0  0  0  0  0  0  0  0  0
   20.9093   11.7745  -11.3748 C   0  0  0  0  0  0  0  0  0  0  0  0
   21.3539   11.4548  -14.6180 C   0  0  0  0  0  0  0  0  0  0  0  0
   21.2507   12.0691  -12.6146 C   0  0  0  0  0  0  0  0  0  0  0  0
   21.3942   10.3916  -15.5301 C   0  0  0  0  0  0  0  0  0  0  0  0
   19.7020   10.2851  -10.0041 C   0  0  0  0  0  0  0  0  0  0  0  0
   20.4457   10.3955  -11.2162 C   0  0  0  0  0  0  0  0  0  0  0  0
   22.1298   10.5163  -16.5345 C   0  0  0  0  0  0  0  0  0  0  0  0
   22.5456   12.5309  -16.2459 C   0  0  0  0  0  0  0  0  0  0  0  0
   21.4045   12.1679   -6.9860 C   0  0  0  0  0  0  0  0  0  0  0  0
   20.9591   10.7019   -7.4053 C   0  0  0  0  0  0  0  0  0  0  0  0
   22.6791   11.5452  -16.9731 C   0  0  0  0  0  0  0  0  0  0  0  0
   20.8839   11.1766  -13.4300 O   0  0  0  0  0  0  0  0  0  0  0  0
  1  2  2  0
  1  3  1  0
  2  4  1  0
  4  5  1  0
  3  6  1  0
  5  7  1  0
  5  8  1  0
  6  9  1  0
  4 10  2  0
  9 11  1  0
  3 12  2  0
 10 12  1  0
 11 13  2  0
  7 14  1  0
 10 15  1  0
 14 15  1  0
 13 16  1  0
  9 17  2  0
  8 18  1  0
  7 19  1  0
 18 19  1  0
 16 20  2  0
 17 20  1  0
 11 21  1  0
 12 21  1  0
M  END
>  <ID>  (1) 
conformer_0

$$$$
