
     RDKit          3D

 19 21  0  0  0  0  0  0  0  0999 V2000
   21.9731   13.0807   -7.5264 O   0  0  0  0  0  0  0  0  0  0  0  0
   21.4001   12.6091   -8.5153 C   0  0  0  0  0  0  0  0  0  0  0  0
   20.2591   11.7325   -8.3869 N   0  0  0  0  0  0  0  0  0  0  0  0
   21.7397   12.9913   -9.8614 C   0  0  0  0  0  0  0  0  0  0  0  0
   21.2208   12.2840  -10.8781 C   0  0  0  0  0  0  0  0  0  0  0  0
   22.5110   14.0393  -10.0496 N   0  0  0  0  0  0  0  0  0  0  0  0
   20.1711   11.2656  -10.6012 C   0  0  0  0  0  0  0  0  0  0  0  0
   19.8537   10.9993   -9.3559 C   0  0  0  0  0  0  0  0  0  0  0  0
   19.0963   10.1197   -9.1463 O   0  0  0  0  0  0  0  0  0  0  0  0
   22.5279   14.0222  -11.4509 C   0  0  0  0  0  0  0  0  0  0  0  0
   21.7457   12.9822  -12.0189 C   0  0  0  0  0  0  0  0  0  0  0  0
   20.6725   13.5118  -12.7815 C   0  0  0  0  0  0  0  0  0  0  0  0
   20.5014   12.7772  -14.0320 C   0  0  0  0  0  0  0  0  0  0  0  0
   21.5196   11.9579  -14.1071 C   0  0  0  0  0  0  0  0  0  0  0  0
   22.4562   12.1841  -13.0777 C   0  0  0  0  0  0  0  0  0  0  0  0
   22.7487   15.0313  -12.1081 O   0  0  0  0  0  0  0  0  0  0  0  0
   23.0236   10.9689  -12.5641 C   0  0  0  0  0  0  0  0  0  0  0  0
   22.2585   11.9943  -15.2533 O   0  0  0  0  0  0  0  0  0  0  0  0
   22.3578    9.9286  -12.4064 O   0  0  0  0  0  0  0  0  0  0  0  0
  1  2  2  0
  2  3  1  0
  2  4  1  0
  4  5  2  0
  4  6  1  0
  5  7  1  0
  3  8  1  0
  7  8  1  0
  8  9  2  0
  6 10  1  0
  5 11  1  0
 10 11  1  0
 11 12  1  0
 12 13  1  0
 13 14  1  0
 11 15  1  0
 14 15  1  0
 10 16  2  0
 15 17  1  0
 14 18  1  0
 17 19  2  0
M  END
>  <ID>  (1) 
conformer_0

$$$$
