
     RDKit          3D

 15 16  0  0  0  0  0  0  0  0999 V2000
   21.6997   14.2263  -11.8708 C   0  0  0  0  0  0  0  0  0  0  0  0
   21.4522   13.9144  -10.7237 C   0  0  0  0  0  0  0  0  0  0  0  0
   21.6513   13.2421  -12.8492 C   0  0  0  0  0  0  0  0  0  0  0  0
   21.4630   14.8151   -9.5278 C   0  0  0  0  0  0  0  0  0  0  0  0
   21.8666   13.6337  -14.2490 O   0  0  0  0  0  0  0  0  0  0  0  0
   21.8600   11.9724  -12.5596 C   0  0  0  0  0  0  0  0  0  0  0  0
   21.4397   12.5109  -10.2308 C   0  0  0  0  0  0  0  0  0  0  0  0
   21.5315   14.3050   -8.3818 O   0  0  0  0  0  0  0  0  0  0  0  0
   21.6785   11.5787  -11.3196 C   0  0  0  0  0  0  0  0  0  0  0  0
   20.9402   11.8700   -9.1173 N   0  0  0  0  0  0  0  0  0  0  0  0
   21.6924   10.1904  -10.9830 C   0  0  0  0  0  0  0  0  0  0  0  0
   21.3770    9.7753   -9.7209 C   0  0  0  0  0  0  0  0  0  0  0  0
   22.9096   13.7664  -14.8511 C   0  0  0  0  0  0  0  0  0  0  0  0
   20.9020   10.7122   -8.7748 C   0  0  0  0  0  0  0  0  0  0  0  0
   20.5442   10.3863   -7.5708 O   0  0  0  0  0  0  0  0  0  0  0  0
  1  2  2  0
  1  3  1  0
  2  4  1  0
  3  5  1  0
  3  6  2  0
  2  7  1  0
  4  8  2  0
  6  9  1  0
  7  9  2  0
  7 10  1  0
  9 11  1  0
 11 12  2  0
  5 13  1  0
 10 14  1  0
 12 14  1  0
 14 15  2  0
M  END
>  <ID>  (1) 
conformer_0

$$$$
