
     RDKit          3D

 17 19  0  0  0  0  0  0  0  0999 V2000
   20.3436   10.5162   -8.3353 C   0  0  0  0  0  0  0  0  0  0  0  0
   20.5875   10.6774   -9.4969 C   0  0  0  0  0  0  0  0  0  0  0  0
   21.1113   11.7001  -10.0391 C   0  0  0  0  0  0  0  0  0  0  0  0
   21.6128   12.7709   -9.1628 C   0  0  0  0  0  0  0  0  0  0  0  0
   21.2744   12.0000  -11.4781 N   0  0  0  0  0  0  0  0  0  0  0  0
   21.2548   11.3039  -12.4266 C   0  0  0  0  0  0  0  0  0  0  0  0
   21.4504   12.6190   -7.8183 C   0  0  0  0  0  0  0  0  0  0  0  0
   21.9274   13.5016   -6.8617 O   0  0  0  0  0  0  0  0  0  0  0  0
   21.5295   11.8044  -13.6710 C   0  0  0  0  0  0  0  0  0  0  0  0
   21.5280   11.0681  -14.7340 C   0  0  0  0  0  0  0  0  0  0  0  0
   21.7585   11.5702  -16.0987 C   0  0  0  0  0  0  0  0  0  0  0  0
   21.0183   13.4199  -11.9079 C   0  0  0  0  0  0  0  0  0  0  0  0
   20.8620   11.3888   -7.3269 C   0  0  0  0  0  0  0  0  0  0  0  0
   21.4167   13.2813  -13.9858 C   0  0  0  0  0  0  0  0  0  0  0  0
   21.5031   13.9787  -12.9098 N   0  0  0  0  0  0  0  0  0  0  0  0
   21.5749   13.7708  -15.0503 N   0  0  0  0  0  0  0  0  0  0  0  0
   21.7199   12.9443  -16.2087 C   0  0  0  0  0  0  0  0  0  0  0  0
  1  2  1  0
  2  3  2  0
  3  4  1  0
  3  5  1  0
  5  6  1  0
  4  7  2  0
  7  8  1  0
  6  9  1  0
  9 10  2  0
 10 11  1  0
  5 12  1  0
  1 13  2  0
  7 13  1  0
  9 14  1  0
 12 15  2  0
 14 15  1  0
 14 16  2  0
 11 17  2  0
 16 17  1  0
M  END
>  <ID>  (1) 
conformer_0

$$$$
