
     RDKit          3D

 21 22  0  0  0  0  0  0  0  0999 V2000
   19.2656   10.6806   -9.6142 C   0  0  0  0  0  0  0  0  0  0  0  0
   20.4042   10.6793   -8.9705 C   0  0  0  0  0  0  0  0  0  0  0  0
   19.6609   10.6623  -11.0216 C   0  0  0  0  0  0  0  0  0  0  0  0
   20.8488   10.7071  -11.5002 C   0  0  0  0  0  0  0  0  0  0  0  0
   21.1201   10.7188  -12.9944 C   0  0  0  0  0  0  0  0  0  0  0  0
   21.6790   10.8393   -9.3015 C   0  0  0  0  0  0  0  0  0  0  0  0
   21.5125    9.8129  -13.6302 C   0  0  0  0  0  0  0  0  0  0  0  0
   21.9345   10.8460  -10.7221 C   0  0  0  0  0  0  0  0  0  0  0  0
   20.9142   12.0050  -13.6448 C   0  0  0  0  0  0  0  0  0  0  0  0
   20.4830   13.2127  -13.0509 N   0  0  0  0  0  0  0  0  0  0  0  0
   21.8519    8.4441  -13.0761 C   0  0  0  0  0  0  0  0  0  0  0  0
   21.5222   13.8782  -12.3266 C   0  0  0  0  0  0  0  0  0  0  0  0
   21.7529    9.8084  -15.0676 C   0  0  0  0  0  0  0  0  0  0  0  0
   20.9274   11.9979  -15.0210 N   0  0  0  0  0  0  0  0  0  0  0  0
   21.1522   14.4865  -11.2030 C   0  0  0  0  0  0  0  0  0  0  0  0
   20.1389   10.7400   -7.2577 O   0  0  0  0  0  0  0  0  0  0  0  0
   22.0859   14.6329  -10.2303 O   0  0  0  0  0  0  0  0  0  0  0  0
   21.5328   10.9731  -15.6522 C   0  0  0  0  0  0  0  0  0  0  0  0
   23.3308    8.3093  -12.7110 C   0  0  0  0  0  0  0  0  0  0  0  0
   24.1523    9.3898  -12.7391 C   0  0  0  0  0  0  0  0  0  0  0  0
   21.3320   10.7634   -6.5174 C   0  0  0  0  0  0  0  0  0  0  0  0
  1  2  1  0
  1  3  2  0
  3  4  1  0
  4  5  1  0
  2  6  2  0
  5  7  2  0
  4  8  2  0
  6  8  1  0
  5  9  1  0
  9 10  1  0
  7 11  1  0
 10 12  1  0
  7 13  1  0
  9 14  2  0
 12 15  1  0
  2 16  1  0
 15 17  1  0
 13 18  2  0
 14 18  1  0
 11 19  1  0
 19 20  1  0
 16 21  1  0
M  END
>  <ID>  (1) 
conformer_0

$$$$
