
     RDKit          3D

 14 15  0  0  0  0  0  0  0  0999 V2000
   22.0438   13.0337   -7.4577 O   0  0  0  0  0  0  0  0  0  0  0  0
   21.3892   12.6121   -8.4557 C   0  0  0  0  0  0  0  0  0  0  0  0
   20.2796   11.7270   -8.3545 N   0  0  0  0  0  0  0  0  0  0  0  0
   21.6595   13.1206   -9.8183 C   0  0  0  0  0  0  0  0  0  0  0  0
   21.1672   12.4395  -10.8607 C   0  0  0  0  0  0  0  0  0  0  0  0
   19.7297   11.0401   -9.3547 C   0  0  0  0  0  0  0  0  0  0  0  0
   20.1831   11.4550  -10.6536 C   0  0  0  0  0  0  0  0  0  0  0  0
   21.7158   12.6753  -12.0959 C   0  0  0  0  0  0  0  0  0  0  0  0
   22.6600   13.5185  -12.4772 O   0  0  0  0  0  0  0  0  0  0  0  0
   21.3801   11.9511  -13.1586 C   0  0  0  0  0  0  0  0  0  0  0  0
   19.8073   10.6240  -11.7546 C   0  0  0  0  0  0  0  0  0  0  0  0
   20.3750   10.8796  -13.0172 C   0  0  0  0  0  0  0  0  0  0  0  0
   21.9113   12.2332  -14.5436 O   0  0  0  0  0  0  0  0  0  0  0  0
   21.9716   11.2582  -15.3762 C   0  0  0  0  0  0  0  0  0  0  0  0
  1  2  2  0
  2  3  1  0
  2  4  1  0
  4  5  1  0
  3  6  1  0
  5  7  2  0
  6  7  1  0
  5  8  1  0
  8  9  1  0
  8 10  2  0
  7 11  1  0
 10 12  1  0
 11 12  2  0
 10 13  1  0
 13 14  1  0
M  END
>  <ID>  (1) 
conformer_0

$$$$
