
     RDKit          3D

 16 17  0  0  0  0  0  0  0  0999 V2000
   19.2656   10.6806   -9.6142 C   0  0  0  0  0  0  0  0  0  0  0  0
   20.4042   10.6793   -8.9705 C   0  0  0  0  0  0  0  0  0  0  0  0
   19.6609   10.6623  -11.0216 C   0  0  0  0  0  0  0  0  0  0  0  0
   20.8488   10.7071  -11.5002 C   0  0  0  0  0  0  0  0  0  0  0  0
   20.2112   10.7075   -7.3804 O   0  0  0  0  0  0  0  0  0  0  0  0
   21.1336   10.7154  -12.9765 C   0  0  0  0  0  0  0  0  0  0  0  0
   21.6144   10.8523   -9.3033 C   0  0  0  0  0  0  0  0  0  0  0  0
   21.2340   11.8729  -13.6691 N   0  0  0  0  0  0  0  0  0  0  0  0
   21.4802    9.6256  -13.4940 C   0  0  0  0  0  0  0  0  0  0  0  0
   21.9074   10.7909  -10.7012 C   0  0  0  0  0  0  0  0  0  0  0  0
   20.9600   13.2302  -13.2240 C   0  0  0  0  0  0  0  0  0  0  0  0
   21.4032   11.5427  -14.9970 N   0  0  0  0  0  0  0  0  0  0  0  0
   21.6325   10.2145  -14.9789 C   0  0  0  0  0  0  0  0  0  0  0  0
   21.8707   13.7109  -12.1733 C   0  0  0  0  0  0  0  0  0  0  0  0
   21.3751   14.1743  -11.1338 C   0  0  0  0  0  0  0  0  0  0  0  0
   21.2977   10.2230   -6.6446 C   0  0  0  0  0  0  0  0  0  0  0  0
  1  2  1  0
  1  3  2  0
  3  4  1  0
  2  5  1  0
  4  6  1  0
  2  7  2  0
  6  8  1  0
  6  9  2  0
  4 10  2  0
  7 10  1  0
  8 11  1  0
  8 12  1  0
  9 13  1  0
 12 13  2  0
 11 14  1  0
 14 15  1  0
  5 16  1  0
M  END
>  <ID>  (1) 
conformer_0

$$$$
