
     RDKit          3D

 14 15  0  0  0  0  0  0  0  0999 V2000
   21.8754   15.0251  -11.1791 O   0  0  0  0  0  0  0  0  0  0  0  0
   21.3173   13.9052  -10.9567 C   0  0  0  0  0  0  0  0  0  0  0  0
   21.4278   13.2277   -9.7915 C   0  0  0  0  0  0  0  0  0  0  0  0
   20.8882   13.2609  -12.0636 C   0  0  0  0  0  0  0  0  0  0  0  0
   20.7630   11.9493   -9.6453 C   0  0  0  0  0  0  0  0  0  0  0  0
   20.8082   13.9464  -13.3245 O   0  0  0  0  0  0  0  0  0  0  0  0
   20.7876   11.2988   -8.3706 C   0  0  0  0  0  0  0  0  0  0  0  0
   21.2686   11.9110   -7.2650 C   0  0  0  0  0  0  0  0  0  0  0  0
   21.3091   11.2142   -6.0883 C   0  0  0  0  0  0  0  0  0  0  0  0
   20.1581   11.4422  -10.7422 C   0  0  0  0  0  0  0  0  0  0  0  0
   19.5944   10.1092  -10.5836 O   0  0  0  0  0  0  0  0  0  0  0  0
   20.4050   10.0501   -8.0844 N   0  0  0  0  0  0  0  0  0  0  0  0
   20.2305   12.0439  -11.9913 C   0  0  0  0  0  0  0  0  0  0  0  0
   20.7225    9.8895   -6.6287 N   0  0  0  0  0  0  0  0  0  0  0  0
  1  2  1  0
  2  3  1  0
  2  4  2  0
  3  5  2  0
  4  6  1  0
  5  7  1  0
  7  8  1  0
  8  9  2  0
  5 10  1  0
 10 11  1  0
  7 12  2  0
  4 13  1  0
 10 13  2  0
  9 14  1  0
 12 14  1  0
M  END
>  <ID>  (1) 
conformer_0

$$$$
