
     RDKit          3D

 11 12  0  0  0  0  0  0  0  0999 V2000
   19.5090   10.6258   -9.3415 C   0  0  0  0  0  0  0  0  0  0  0  0
   19.4725   10.9602  -10.6287 C   0  0  0  0  0  0  0  0  0  0  0  0
   20.3150   10.9642  -11.5553 C   0  0  0  0  0  0  0  0  0  0  0  0
   20.1886   11.2273  -12.9462 C   0  0  0  0  0  0  0  0  0  0  0  0
   20.7742   10.5937   -8.7941 C   0  0  0  0  0  0  0  0  0  0  0  0
   21.6270   10.9205  -11.0074 C   0  0  0  0  0  0  0  0  0  0  0  0
   21.2706   11.4368  -13.7090 C   0  0  0  0  0  0  0  0  0  0  0  0
   21.7227   10.7058   -9.7168 C   0  0  0  0  0  0  0  0  0  0  0  0
   22.6210   11.3128  -13.1496 C   0  0  0  0  0  0  0  0  0  0  0  0
   22.7734   11.0470  -11.7935 C   0  0  0  0  0  0  0  0  0  0  0  0
   23.5995   11.4272  -14.0003 O   0  0  0  0  0  0  0  0  0  0  0  0
  1  2  2  0
  2  3  1  0
  3  4  1  0
  1  5  1  0
  3  6  2  0
  4  7  2  0
  5  8  2  0
  6  8  1  0
  7  9  1  0
  6 10  1  0
  9 10  2  0
  9 11  1  0
M  END
>  <ID>  (1) 
conformer_0

$$$$
