
     RDKit          3D

 19 21  0  0  0  0  0  0  0  0999 V2000
   20.3436   10.5162   -8.3353 C   0  0  0  0  0  0  0  0  0  0  0  0
   20.5875   10.6774   -9.4969 C   0  0  0  0  0  0  0  0  0  0  0  0
   21.1113   11.7001  -10.0391 C   0  0  0  0  0  0  0  0  0  0  0  0
   21.6128   12.7709   -9.1628 C   0  0  0  0  0  0  0  0  0  0  0  0
   21.2744   12.0000  -11.4781 N   0  0  0  0  0  0  0  0  0  0  0  0
   21.2548   11.3039  -12.4266 C   0  0  0  0  0  0  0  0  0  0  0  0
   21.4504   12.6190   -7.8183 C   0  0  0  0  0  0  0  0  0  0  0  0
   21.9274   13.5016   -6.8617 O   0  0  0  0  0  0  0  0  0  0  0  0
   21.5295   11.8044  -13.6710 C   0  0  0  0  0  0  0  0  0  0  0  0
   21.5280   11.0681  -14.7340 C   0  0  0  0  0  0  0  0  0  0  0  0
   21.7585   11.5702  -16.0987 C   0  0  0  0  0  0  0  0  0  0  0  0
   21.0183   13.4199  -11.9079 C   0  0  0  0  0  0  0  0  0  0  0  0
   21.8035   10.6265  -17.0901 O   0  0  0  0  0  0  0  0  0  0  0  0
   20.8856   11.4253   -7.3478 C   0  0  0  0  0  0  0  0  0  0  0  0
   21.0488    9.8809  -12.3751 C   0  0  0  0  0  0  0  0  0  0  0  0
   21.5200    9.5908  -14.5218 C   0  0  0  0  0  0  0  0  0  0  0  0
   21.3835    9.1642  -13.3366 C   0  0  0  0  0  0  0  0  0  0  0  0
   22.5276   12.5245  -16.2824 O   0  0  0  0  0  0  0  0  0  0  0  0
   21.3535   13.2676  -13.4392 C   0  0  0  0  0  0  0  0  0  0  0  0
  1  2  1  0
  2  3  2  0
  3  4  1  0
  3  5  1  0
  5  6  1  0
  4  7  2  0
  7  8  1  0
  6  9  1  0
  9 10  2  0
 10 11  1  0
  5 12  1  0
 11 13  1  0
  1 14  2  0
  7 14  1  0
  6 15  2  0
 10 16  1  0
 15 17  1  0
 16 17  2  0
 11 18  2  0
  9 19  1  0
 12 19  1  0
M  END
>  <ID>  (1) 
conformer_0

$$$$
