
     RDKit          3D

 17 20  0  0  0  0  0  0  0  0999 V2000
   21.6997   14.2263  -11.8708 C   0  0  0  0  0  0  0  0  0  0  0  0
   21.4522   13.9144  -10.7237 C   0  0  0  0  0  0  0  0  0  0  0  0
   21.6513   13.2421  -12.8492 C   0  0  0  0  0  0  0  0  0  0  0  0
   20.9966   12.5663  -10.3638 C   0  0  0  0  0  0  0  0  0  0  0  0
   20.6808   12.1816   -8.9935 N   0  0  0  0  0  0  0  0  0  0  0  0
   21.9858   13.6486  -14.2691 C   0  0  0  0  0  0  0  0  0  0  0  0
   20.2163   11.0277   -8.8247 C   0  0  0  0  0  0  0  0  0  0  0  0
   20.5284   12.9508   -7.9082 C   0  0  0  0  0  0  0  0  0  0  0  0
   21.9668   12.5635  -15.1449 C   0  0  0  0  0  0  0  0  0  0  0  0
   20.9093   11.7745  -11.3748 C   0  0  0  0  0  0  0  0  0  0  0  0
   21.3539   11.4548  -14.6180 C   0  0  0  0  0  0  0  0  0  0  0  0
   21.2507   12.0691  -12.6146 C   0  0  0  0  0  0  0  0  0  0  0  0
   19.6900   10.2798   -9.9176 C   0  0  0  0  0  0  0  0  0  0  0  0
   20.3587   10.4387  -11.1632 C   0  0  0  0  0  0  0  0  0  0  0  0
   21.3568   11.0881  -13.7525 C   0  0  0  0  0  0  0  0  0  0  0  0
   21.2625   12.1475   -6.9463 C   0  0  0  0  0  0  0  0  0  0  0  0
   20.7097   10.7214   -7.4238 C   0  0  0  0  0  0  0  0  0  0  0  0
  1  2  2  0
  1  3  1  0
  2  4  1  0
  4  5  1  0
  3  6  1  0
  5  7  1  0
  5  8  1  0
  6  9  1  0
  4 10  2  0
  9 11  1  0
  3 12  2  0
 10 12  1  0
  7 13  1  0
 10 14  1  0
 13 14  1  0
 11 15  2  0
 12 15  1  0
  8 16  1  0
  7 17  1  0
 16 17  1  0
M  END
>  <ID>  (1) 
conformer_0

$$$$
