
     RDKit          3D

 15 16  0  0  0  0  0  0  0  0999 V2000
   21.9731   13.0807   -7.5264 O   0  0  0  0  0  0  0  0  0  0  0  0
   21.6687   12.7597   -8.6190 C   0  0  0  0  0  0  0  0  0  0  0  0
   20.9101   11.6574   -8.9824 C   0  0  0  0  0  0  0  0  0  0  0  0
   20.5691   10.7202   -8.1623 C   0  0  0  0  0  0  0  0  0  0  0  0
   22.3203   13.5229   -9.6751 N   0  0  0  0  0  0  0  0  0  0  0  0
   21.9017   13.1873  -10.9290 C   0  0  0  0  0  0  0  0  0  0  0  0
   21.2341   12.1525  -11.2885 C   0  0  0  0  0  0  0  0  0  0  0  0
   20.8953   11.2403  -10.2304 C   0  0  0  0  0  0  0  0  0  0  0  0
   20.9307   11.9068  -12.6208 C   0  0  0  0  0  0  0  0  0  0  0  0
   22.3785   14.0150  -11.7532 O   0  0  0  0  0  0  0  0  0  0  0  0
   20.2597   10.0075  -10.5538 C   0  0  0  0  0  0  0  0  0  0  0  0
   20.2452   10.6374  -12.8452 C   0  0  0  0  0  0  0  0  0  0  0  0
   21.1222   10.5155   -6.8688 O   0  0  0  0  0  0  0  0  0  0  0  0
   20.0204   10.3228  -14.2271 C   0  0  0  0  0  0  0  0  0  0  0  0
   19.9695    9.8047  -11.8815 C   0  0  0  0  0  0  0  0  0  0  0  0
  1  2  2  0
  2  3  1  0
  3  4  1  0
  2  5  1  0
  5  6  1  0
  6  7  1  0
  3  8  2  0
  7  8  1  0
  7  9  2  0
  6 10  2  0
  8 11  1  0
  9 12  1  0
  4 13  1  0
 12 14  1  0
 11 15  1  0
 12 15  2  0
M  END
>  <ID>  (1) 
conformer_0

$$$$
