
     RDKit          3D

 23 25  0  0  0  0  0  0  0  0999 V2000
   19.2656   10.6806   -9.6142 C   0  0  0  0  0  0  0  0  0  0  0  0
   19.4293   11.0061  -10.9173 C   0  0  0  0  0  0  0  0  0  0  0  0
   20.3579   11.4408  -11.5819 C   0  0  0  0  0  0  0  0  0  0  0  0
   20.3961   11.8298  -12.9816 C   0  0  0  0  0  0  0  0  0  0  0  0
   21.2987   11.2253  -13.7950 N   0  0  0  0  0  0  0  0  0  0  0  0
   20.4410   10.7908   -8.8289 C   0  0  0  0  0  0  0  0  0  0  0  0
   21.5374   11.6213  -10.6809 C   0  0  0  0  0  0  0  0  0  0  0  0
   22.1714   10.3252  -13.4988 C   0  0  0  0  0  0  0  0  0  0  0  0
   22.7407   12.1271  -11.3290 C   0  0  0  0  0  0  0  0  0  0  0  0
   21.5316   11.2636   -9.4650 C   0  0  0  0  0  0  0  0  0  0  0  0
   20.3881   10.4048   -7.5201 O   0  0  0  0  0  0  0  0  0  0  0  0
   23.2964   10.2036  -14.1252 C   0  0  0  0  0  0  0  0  0  0  0  0
   24.2966    9.1645  -14.0274 C   0  0  0  0  0  0  0  0  0  0  0  0
   22.0723    9.3663  -12.2790 C   0  0  0  0  0  0  0  0  0  0  0  0
   23.4436   11.2649  -15.0209 C   0  0  0  0  0  0  0  0  0  0  0  0
   23.9992    8.1672  -13.1801 C   0  0  0  0  0  0  0  0  0  0  0  0
   21.8460   11.8835  -14.8136 C   0  0  0  0  0  0  0  0  0  0  0  0
   22.9416    8.2456  -12.2120 C   0  0  0  0  0  0  0  0  0  0  0  0
   21.6211   10.0597   -6.8416 C   0  0  0  0  0  0  0  0  0  0  0  0
   25.5131    9.0329  -14.7943 C   0  0  0  0  0  0  0  0  0  0  0  0
   26.4191    9.6342  -14.4594 O   0  0  0  0  0  0  0  0  0  0  0  0
   22.5662   13.6856  -11.5003 O   0  0  0  0  0  0  0  0  0  0  0  0
   25.6012    8.0895  -15.7352 O   0  0  0  0  0  0  0  0  0  0  0  0
  1  2  1  0
  2  3  2  0
  3  4  1  0
  4  5  1  0
  1  6  2  0
  3  7  1  0
  5  8  1  0
  7  9  1  0
  6 10  1  0
  7 10  2  0
  6 11  1  0
  8 12  2  0
 12 13  1  0
  8 14  1  0
 12 15  1  0
 13 16  2  0
  5 17  1  0
 15 17  1  0
 14 18  2  0
 16 18  1  0
 11 19  1  0
 13 20  1  0
 20 21  2  0
  9 22  1  0
 20 23  1  0
M  END
>  <ID>  (1) 
conformer_0

$$$$
