
     RDKit          3D

 17 19  0  0  0  0  0  0  0  0999 V2000
   19.1829   10.8021  -10.6068 C   0  0  0  0  0  0  0  0  0  0  0  0
   20.3048   11.1080  -11.1466 C   0  0  0  0  0  0  0  0  0  0  0  0
   21.0041   12.2525  -10.8142 C   0  0  0  0  0  0  0  0  0  0  0  0
   19.1423   10.8971   -9.2632 C   0  0  0  0  0  0  0  0  0  0  0  0
   20.1017   11.8300   -8.7126 N   0  0  0  0  0  0  0  0  0  0  0  0
   20.4172   11.1197  -12.7283 C   0  0  0  0  0  0  0  0  0  0  0  0
   21.1487   12.0171   -9.2902 C   0  0  0  0  0  0  0  0  0  0  0  0
   21.1362    9.9460  -10.7513 C   0  0  0  0  0  0  0  0  0  0  0  0
   21.9785   13.1333   -8.6154 C   0  0  0  0  0  0  0  0  0  0  0  0
   21.5151   11.3088  -13.3103 C   0  0  0  0  0  0  0  0  0  0  0  0
   20.2244   13.5464  -10.9811 O   0  0  0  0  0  0  0  0  0  0  0  0
   21.8913   10.7286   -9.3300 C   0  0  0  0  0  0  0  0  0  0  0  0
   22.5553    9.6559  -11.4727 C   0  0  0  0  0  0  0  0  0  0  0  0
   22.4885   10.0962  -12.9627 C   0  0  0  0  0  0  0  0  0  0  0  0
   22.1525   13.1515   -7.4353 O   0  0  0  0  0  0  0  0  0  0  0  0
   22.4857   14.1267   -9.2729 O   0  0  0  0  0  0  0  0  0  0  0  0
   23.9646   10.3365  -13.2045 O   0  0  0  0  0  0  0  0  0  0  0  0
  1  2  1  0
  2  3  1  0
  1  4  1  0
  4  5  1  0
  2  6  1  0
  3  7  1  0
  5  7  1  0
  2  8  1  0
  7  9  1  0
  6 10  1  0
  3 11  1  0
  7 12  1  0
  8 12  1  0
  8 13  1  0
 10 14  1  0
 13 14  1  0
  9 15  1  0
  9 16  2  0
 14 17  1  0
M  END
>  <ID>  (1) 
conformer_0

$$$$
