
     RDKit          3D

 23 25  0  0  0  0  0  0  0  0999 V2000
   26.1671    8.7146  -15.0885 C   0  0  0  0  0  0  0  0  0  0  0  0
   25.3211    9.5781  -14.7838 C   0  0  0  0  0  0  0  0  0  0  0  0
   24.0190    9.3506  -14.5350 C   0  0  0  0  0  0  0  0  0  0  0  0
   23.1111   10.4775  -14.1961 C   0  0  0  0  0  0  0  0  0  0  0  0
   25.4388    7.3262  -15.1443 C   0  0  0  0  0  0  0  0  0  0  0  0
   22.0938   10.2791  -13.3726 N   0  0  0  0  0  0  0  0  0  0  0  0
   21.4579   11.3639  -12.8160 C   0  0  0  0  0  0  0  0  0  0  0  0
   26.3648    6.1375  -15.4993 C   0  0  0  0  0  0  0  0  0  0  0  0
   23.6207    8.0766  -14.6372 C   0  0  0  0  0  0  0  0  0  0  0  0
   20.8293   11.2402  -11.6016 C   0  0  0  0  0  0  0  0  0  0  0  0
   20.0960   10.2432  -11.1951 C   0  0  0  0  0  0  0  0  0  0  0  0
   20.7312   12.5294  -10.7826 C   0  0  0  0  0  0  0  0  0  0  0  0
   20.0335    9.1119  -11.8820 F   0  0  0  0  0  0  0  0  0  0  0  0
   20.1202   12.4527   -9.5176 N   0  0  0  0  0  0  0  0  0  0  0  0
   23.3940   11.6477  -14.3502 N   0  0  0  0  0  0  0  0  0  0  0  0
   22.5903   12.1521  -13.4072 C   0  0  0  0  0  0  0  0  0  0  0  0
   19.5921   11.3153   -9.1302 C   0  0  0  0  0  0  0  0  0  0  0  0
   21.3899   13.8103  -11.2605 C   0  0  0  0  0  0  0  0  0  0  0  0
   22.0896    7.8150  -14.3485 O   0  0  0  0  0  0  0  0  0  0  0  0
   24.2828    7.0615  -14.9883 C   0  0  0  0  0  0  0  0  0  0  0  0
   20.6277   14.5454  -11.7869 O   0  0  0  0  0  0  0  0  0  0  0  0
   22.3543   14.1784  -10.3783 O   0  0  0  0  0  0  0  0  0  0  0  0
   19.5902   10.1340   -9.8908 C   0  0  0  0  0  0  0  0  0  0  0  0
  1  2  2  0
  2  3  1  0
  3  4  1  0
  1  5  1  0
  4  6  1  0
  6  7  1  0
  5  8  1  0
  3  9  2  0
  7 10  1  0
 10 11  2  0
 10 12  1  0
 11 13  1  0
 12 14  2  0
  4 15  2  0
  7 16  1  0
 15 16  1  0
 14 17  1  0
 12 18  1  0
  9 19  1  0
  5 20  2  0
  9 20  1  0
 18 21  1  0
 18 22  2  0
 11 23  1  0
 17 23  2  0
M  END
>  <ID>  (1) 
conformer_0

$$$$
