
     RDKit          3D

 20 23  0  0  0  0  0  0  0  0999 V2000
   20.3436   10.5162   -8.3353 C   0  0  0  0  0  0  0  0  0  0  0  0
   20.5875   10.6774   -9.4969 C   0  0  0  0  0  0  0  0  0  0  0  0
   21.1113   11.7001  -10.0391 C   0  0  0  0  0  0  0  0  0  0  0  0
   21.6128   12.7709   -9.1628 C   0  0  0  0  0  0  0  0  0  0  0  0
   21.2744   12.0000  -11.4781 N   0  0  0  0  0  0  0  0  0  0  0  0
   21.2548   11.3039  -12.4266 C   0  0  0  0  0  0  0  0  0  0  0  0
   21.4504   12.6190   -7.8183 C   0  0  0  0  0  0  0  0  0  0  0  0
   21.9274   13.5016   -6.8617 O   0  0  0  0  0  0  0  0  0  0  0  0
   21.5295   11.8044  -13.6710 C   0  0  0  0  0  0  0  0  0  0  0  0
   21.5280   11.0681  -14.7340 C   0  0  0  0  0  0  0  0  0  0  0  0
   21.7585   11.5702  -16.0987 C   0  0  0  0  0  0  0  0  0  0  0  0
   21.0183   13.4199  -11.9079 C   0  0  0  0  0  0  0  0  0  0  0  0
   21.0939    9.8549  -12.4241 C   0  0  0  0  0  0  0  0  0  0  0  0
   20.8815   11.4381   -7.3509 C   0  0  0  0  0  0  0  0  0  0  0  0
   21.3573    9.1140  -13.6033 C   0  0  0  0  0  0  0  0  0  0  0  0
   21.3774   13.3349  -13.7429 C   0  0  0  0  0  0  0  0  0  0  0  0
   21.7894   13.7903  -14.9832 C   0  0  0  0  0  0  0  0  0  0  0  0
   21.4739   13.9530  -12.7478 N   0  0  0  0  0  0  0  0  0  0  0  0
   21.5237    9.7142  -14.7656 C   0  0  0  0  0  0  0  0  0  0  0  0
   21.9061   12.8957  -16.1421 C   0  0  0  0  0  0  0  0  0  0  0  0
  1  2  1  0
  2  3  2  0
  3  4  1  0
  3  5  1  0
  5  6  1  0
  4  7  2  0
  7  8  1  0
  6  9  1  0
  9 10  2  0
 10 11  1  0
  5 12  1  0
  6 13  2  0
  1 14  2  0
  7 14  1  0
 13 15  1  0
  9 16  1  0
 16 17  2  0
 12 18  2  0
 16 18  1  0
 10 19  1  0
 15 19  2  0
 11 20  2  0
 17 20  1  0
M  END
>  <ID>  (1) 
conformer_0

$$$$
