
     RDKit          3D

 22 23  0  0  0  0  0  0  0  0999 V2000
   19.1829   10.8021  -10.6068 C   0  0  0  0  0  0  0  0  0  0  0  0
   20.3048   11.1080  -11.1466 C   0  0  0  0  0  0  0  0  0  0  0  0
   21.0041   12.2525  -10.8142 C   0  0  0  0  0  0  0  0  0  0  0  0
   19.1423   10.8971   -9.2632 C   0  0  0  0  0  0  0  0  0  0  0  0
   20.9391   10.2817  -12.2306 C   0  0  0  0  0  0  0  0  0  0  0  0
   22.2025   10.6265  -12.8553 C   0  0  0  0  0  0  0  0  0  0  0  0
   20.3791   13.0197   -9.6770 C   0  0  0  0  0  0  0  0  0  0  0  0
   21.4219   13.9748   -9.0335 C   0  0  0  0  0  0  0  0  0  0  0  0
   22.8540   11.7776  -12.2890 C   0  0  0  0  0  0  0  0  0  0  0  0
   22.7984    9.7224  -13.6559 C   0  0  0  0  0  0  0  0  0  0  0  0
   20.1684   11.9665   -8.7723 C   0  0  0  0  0  0  0  0  0  0  0  0
   21.2953   11.2802   -8.2047 C   0  0  0  0  0  0  0  0  0  0  0  0
   22.5777   13.7437   -9.4719 O   0  0  0  0  0  0  0  0  0  0  0  0
   20.9283   14.7899   -8.2938 O   0  0  0  0  0  0  0  0  0  0  0  0
   24.1744    9.6641  -13.8373 C   0  0  0  0  0  0  0  0  0  0  0  0
   21.3747   11.3068   -6.7342 C   0  0  0  0  0  0  0  0  0  0  0  0
   22.1777   12.6737  -11.5509 C   0  0  0  0  0  0  0  0  0  0  0  0
   22.0050   12.1865   -6.0647 O   0  0  0  0  0  0  0  0  0  0  0  0
   20.7323   10.3654   -6.1252 O   0  0  0  0  0  0  0  0  0  0  0  0
   24.8031    8.6856  -14.7329 C   0  0  0  0  0  0  0  0  0  0  0  0
   26.0866    8.6837  -14.8386 O   0  0  0  0  0  0  0  0  0  0  0  0
   24.2074    7.6581  -15.1622 O   0  0  0  0  0  0  0  0  0  0  0  0
  1  2  1  0
  2  3  1  0
  1  4  1  0
  2  5  2  0
  5  6  1  0
  3  7  1  0
  7  8  1  0
  6  9  2  0
  6 10  1  0
  4 11  1  0
  7 11  1  0
 11 12  1  0
  8 13  2  0
  8 14  1  0
 10 15  2  3
 12 16  1  0
  3 17  2  0
  9 17  1  0
 16 18  1  0
 16 19  2  0
 15 20  1  0
 20 21  1  0
 20 22  2  0
M  END
>  <ID>  (1) 
conformer_0

$$$$
