
     RDKit          3D

 22 25  0  0  0  0  0  0  0  0999 V2000
   19.5090   10.6258   -9.3415 C   0  0  0  0  0  0  0  0  0  0  0  0
   20.4039   10.8788  -10.3530 C   0  0  0  0  0  0  0  0  0  0  0  0
   21.2125   11.8866  -10.4582 C   0  0  0  0  0  0  0  0  0  0  0  0
   19.8158   10.7134  -11.7353 C   0  0  0  0  0  0  0  0  0  0  0  0
   21.3895    9.5903  -10.2337 C   0  0  0  0  0  0  0  0  0  0  0  0
   20.8363   12.7925   -9.3981 C   0  0  0  0  0  0  0  0  0  0  0  0
   20.5201   11.4320  -12.6778 C   0  0  0  0  0  0  0  0  0  0  0  0
   19.7023   11.9517   -8.6313 C   0  0  0  0  0  0  0  0  0  0  0  0
   22.3315    9.3155  -11.3511 C   0  0  0  0  0  0  0  0  0  0  0  0
   21.4211   12.2769  -11.8972 C   0  0  0  0  0  0  0  0  0  0  0  0
   22.7229   12.6130  -12.2946 C   0  0  0  0  0  0  0  0  0  0  0  0
   23.0211   13.8227  -12.4524 O   0  0  0  0  0  0  0  0  0  0  0  0
   23.5995   11.7891  -12.2079 O   0  0  0  0  0  0  0  0  0  0  0  0
   21.3938   10.3627  -13.4275 C   0  0  0  0  0  0  0  0  0  0  0  0
   23.6469    9.0249  -11.1965 C   0  0  0  0  0  0  0  0  0  0  0  0
   24.3661    8.5529  -12.3530 C   0  0  0  0  0  0  0  0  0  0  0  0
   22.0822    9.5041  -12.7809 C   0  0  0  0  0  0  0  0  0  0  0  0
   21.2281   10.3712  -14.7670 C   0  0  0  0  0  0  0  0  0  0  0  0
   20.6125   11.3557  -15.4889 O   0  0  0  0  0  0  0  0  0  0  0  0
   21.6829    9.2688  -15.2711 O   0  0  0  0  0  0  0  0  0  0  0  0
   23.3325    8.9371  -13.3707 C   0  0  0  0  0  0  0  0  0  0  0  0
   20.4063   11.8591   -7.3416 O   0  0  0  0  0  0  0  0  0  0  0  0
  1  2  1  0
  2  3  1  0
  2  4  1  0
  2  5  1  0
  3  6  1  0
  4  7  1  0
  1  8  1  0
  6  8  1  0
  5  9  1  0
  3 10  1  0
  7 10  1  0
 10 11  1  0
 11 12  1  0
 11 13  2  0
  7 14  1  0
  9 15  2  0
 15 16  1  0
  9 17  1  0
 14 17  2  0
 14 18  1  0
 18 19  1  0
 18 20  2  0
 16 21  1  0
 17 21  1  0
  8 22  1  0
M  END
>  <ID>  (1) 
conformer_0

$$$$
