
     RDKit          3D

 22 23  0  0  0  0  0  0  0  0999 V2000
   19.2656   10.6806   -9.6142 C   0  0  0  0  0  0  0  0  0  0  0  0
   19.4293   11.0061  -10.9173 C   0  0  0  0  0  0  0  0  0  0  0  0
   20.3579   11.4408  -11.5819 C   0  0  0  0  0  0  0  0  0  0  0  0
   20.3961   11.8298  -12.9816 C   0  0  0  0  0  0  0  0  0  0  0  0
   21.2987   11.2253  -13.7950 N   0  0  0  0  0  0  0  0  0  0  0  0
   20.4410   10.7908   -8.8289 C   0  0  0  0  0  0  0  0  0  0  0  0
   21.5374   11.6213  -10.6809 C   0  0  0  0  0  0  0  0  0  0  0  0
   22.1714   10.3252  -13.4988 C   0  0  0  0  0  0  0  0  0  0  0  0
   22.7407   12.1271  -11.3290 C   0  0  0  0  0  0  0  0  0  0  0  0
   21.5316   11.2636   -9.4650 C   0  0  0  0  0  0  0  0  0  0  0  0
   20.3881   10.4048   -7.5201 O   0  0  0  0  0  0  0  0  0  0  0  0
   23.2964   10.2036  -14.1252 C   0  0  0  0  0  0  0  0  0  0  0  0
   24.2966    9.1645  -14.0274 C   0  0  0  0  0  0  0  0  0  0  0  0
   23.5110   11.2520  -15.0265 C   0  0  0  0  0  0  0  0  0  0  0  0
   21.4861   10.5280   -6.6146 C   0  0  0  0  0  0  0  0  0  0  0  0
   22.6317   13.6422  -11.6163 O   0  0  0  0  0  0  0  0  0  0  0  0
   25.3211    9.0879  -14.7843 C   0  0  0  0  0  0  0  0  0  0  0  0
   21.6644   12.1341  -14.8843 C   0  0  0  0  0  0  0  0  0  0  0  0
   26.1021    8.0526  -14.6686 O   0  0  0  0  0  0  0  0  0  0  0  0
   25.8880   10.0418  -15.4752 O   0  0  0  0  0  0  0  0  0  0  0  0
   22.6988   12.0151  -15.5035 N   0  0  0  0  0  0  0  0  0  0  0  0
   20.6727   12.9793  -15.2473 O   0  0  0  0  0  0  0  0  0  0  0  0
  1  2  1  0
  2  3  2  0
  3  4  1  0
  4  5  1  0
  1  6  2  0
  3  7  1  0
  5  8  1  0
  7  9  1  0
  6 10  1  0
  7 10  2  0
  6 11  1  0
  8 12  2  0
 12 13  1  0
 12 14  1  0
 11 15  1  0
  9 16  1  0
 13 17  1  0
  5 18  1  0
 17 19  1  0
 17 20  2  0
 14 21  1  0
 18 21  1  0
 18 22  2  0
M  END
>  <ID>  (1) 
conformer_0

$$$$
