
     RDKit          3D

 23 25  0  0  0  0  0  0  0  0999 V2000
   19.1829   10.8021  -10.6068 C   0  0  0  0  0  0  0  0  0  0  0  0
   20.3048   11.1080  -11.1466 C   0  0  0  0  0  0  0  0  0  0  0  0
   21.0041   12.2525  -10.8142 C   0  0  0  0  0  0  0  0  0  0  0  0
   19.1423   10.8971   -9.2632 C   0  0  0  0  0  0  0  0  0  0  0  0
   20.9391   10.2817  -12.2306 C   0  0  0  0  0  0  0  0  0  0  0  0
   22.2025   10.6265  -12.8553 C   0  0  0  0  0  0  0  0  0  0  0  0
   20.3791   13.0197   -9.6770 C   0  0  0  0  0  0  0  0  0  0  0  0
   21.4219   13.9748   -9.0335 C   0  0  0  0  0  0  0  0  0  0  0  0
   22.8540   11.7776  -12.2890 C   0  0  0  0  0  0  0  0  0  0  0  0
   22.2639   12.5665  -11.2853 C   0  0  0  0  0  0  0  0  0  0  0  0
   22.8155    9.8202  -13.8014 C   0  0  0  0  0  0  0  0  0  0  0  0
   22.6266    9.9838  -14.9657 C   0  0  0  0  0  0  0  0  0  0  0  0
   21.2330   14.3237   -7.9285 O   0  0  0  0  0  0  0  0  0  0  0  0
   23.2435    9.1850  -15.9721 C   0  0  0  0  0  0  0  0  0  0  0  0
   24.0345    8.2878  -15.4588 C   0  0  0  0  0  0  0  0  0  0  0  0
   24.8084    7.3536  -16.4081 C   0  0  0  0  0  0  0  0  0  0  0  0
   25.9236    6.7141  -15.9240 C   0  0  0  0  0  0  0  0  0  0  0  0
   22.3773   14.3684   -9.7147 O   0  0  0  0  0  0  0  0  0  0  0  0
   27.0790    7.2435  -16.1316 O   0  0  0  0  0  0  0  0  0  0  0  0
   23.8509    8.7217  -13.1994 C   0  0  0  0  0  0  0  0  0  0  0  0
   19.8512   12.0832   -8.6973 C   0  0  0  0  0  0  0  0  0  0  0  0
   24.3973    8.0329  -14.1683 C   0  0  0  0  0  0  0  0  0  0  0  0
   25.9707    5.5257  -15.5636 O   0  0  0  0  0  0  0  0  0  0  0  0
  1  2  1  0
  2  3  1  0
  1  4  1  0
  2  5  2  0
  5  6  1  0
  3  7  1  0
  7  8  1  0
  6  9  2  0
  3 10  2  0
  9 10  1  0
  6 11  1  0
 11 12  2  0
  8 13  1  0
 12 14  1  0
 14 15  2  0
 15 16  1  0
 16 17  1  0
  8 18  2  0
 17 19  2  0
 11 20  1  0
  4 21  2  0
  7 21  1  0
 15 22  1  0
 20 22  2  0
 17 23  1  0
M  END
>  <ID>  (1) 
conformer_0

$$$$
