
     RDKit          3D

 16 17  0  0  0  0  0  0  0  0999 V2000
   19.2656   10.6806   -9.6142 C   0  0  0  0  0  0  0  0  0  0  0  0
   20.4042   10.6793   -8.9705 C   0  0  0  0  0  0  0  0  0  0  0  0
   19.6609   10.6623  -11.0216 C   0  0  0  0  0  0  0  0  0  0  0  0
   20.8488   10.7071  -11.5002 C   0  0  0  0  0  0  0  0  0  0  0  0
   21.1201   10.7188  -12.9944 C   0  0  0  0  0  0  0  0  0  0  0  0
   21.6790   10.8393   -9.3015 C   0  0  0  0  0  0  0  0  0  0  0  0
   21.5125    9.8129  -13.6302 C   0  0  0  0  0  0  0  0  0  0  0  0
   21.9345   10.8460  -10.7221 C   0  0  0  0  0  0  0  0  0  0  0  0
   20.9142   12.0050  -13.6448 C   0  0  0  0  0  0  0  0  0  0  0  0
   20.4830   13.2127  -13.0509 N   0  0  0  0  0  0  0  0  0  0  0  0
   21.1984   12.1133  -14.9963 C   0  0  0  0  0  0  0  0  0  0  0  0
   20.9898   13.4270  -15.6433 O   0  0  0  0  0  0  0  0  0  0  0  0
   21.6664   11.1876  -15.7741 C   0  0  0  0  0  0  0  0  0  0  0  0
   20.1083   10.8657   -7.3230 O   0  0  0  0  0  0  0  0  0  0  0  0
   21.8453    9.9295  -15.1060 C   0  0  0  0  0  0  0  0  0  0  0  0
   21.1349   11.6015   -6.7243 C   0  0  0  0  0  0  0  0  0  0  0  0
  1  2  1  0
  1  3  2  0
  3  4  1  0
  4  5  1  0
  2  6  2  0
  5  7  2  0
  4  8  2  0
  6  8  1  0
  5  9  1  0
  9 10  1  0
  9 11  2  0
 11 12  1  0
 11 13  1  0
  2 14  1  0
  7 15  1  0
 13 15  2  0
 14 16  1  0
M  END
>  <ID>  (1) 
conformer_0

$$$$
