
     RDKit          3D

 17 18  0  0  0  0  0  0  0  0999 V2000
   21.6997   14.2263  -11.8708 C   0  0  0  0  0  0  0  0  0  0  0  0
   21.4522   13.9144  -10.7237 C   0  0  0  0  0  0  0  0  0  0  0  0
   21.6513   13.2421  -12.8492 C   0  0  0  0  0  0  0  0  0  0  0  0
   21.4630   14.8151   -9.5278 C   0  0  0  0  0  0  0  0  0  0  0  0
   21.8666   13.6337  -14.2490 O   0  0  0  0  0  0  0  0  0  0  0  0
   21.8600   11.9724  -12.5596 C   0  0  0  0  0  0  0  0  0  0  0  0
   21.4397   12.5109  -10.2308 C   0  0  0  0  0  0  0  0  0  0  0  0
   23.0342   13.5391  -14.8127 C   0  0  0  0  0  0  0  0  0  0  0  0
   21.9847   10.9154  -13.5853 O   0  0  0  0  0  0  0  0  0  0  0  0
   21.6653   11.4781  -11.2418 C   0  0  0  0  0  0  0  0  0  0  0  0
   21.3041   12.1652   -8.8714 C   0  0  0  0  0  0  0  0  0  0  0  0
   21.8095   10.1811  -10.9790 O   0  0  0  0  0  0  0  0  0  0  0  0
   21.2474   13.0230   -7.8949 C   0  0  0  0  0  0  0  0  0  0  0  0
   20.7712    9.4403  -10.9004 C   0  0  0  0  0  0  0  0  0  0  0  0
   21.0576   12.5859   -6.5170 O   0  0  0  0  0  0  0  0  0  0  0  0
   21.1138   10.7542  -14.5384 C   0  0  0  0  0  0  0  0  0  0  0  0
   21.2575   14.4625   -8.2560 C   0  0  0  0  0  0  0  0  0  0  0  0
  1  2  2  0
  1  3  1  0
  2  4  1  0
  3  5  1  0
  3  6  2  0
  2  7  1  0
  5  8  1  0
  6  9  1  0
  6 10  1  0
  7 10  2  0
  7 11  1  0
 10 12  1  0
 11 13  2  0
 12 14  1  0
 13 15  1  0
  9 16  1  0
  4 17  2  0
 13 17  1  0
M  END
>  <ID>  (1) 
conformer_0

$$$$
