
     RDKit          3D

 14 15  0  0  0  0  0  0  0  0999 V2000
   19.1537   10.6428   -9.7646 C   0  0  0  0  0  0  0  0  0  0  0  0
   20.3418   10.6235   -9.0781 C   0  0  0  0  0  0  0  0  0  0  0  0
   19.3606   11.0016  -11.1293 C   0  0  0  0  0  0  0  0  0  0  0  0
   21.4973   11.1455   -9.5252 C   0  0  0  0  0  0  0  0  0  0  0  0
   20.2572   11.5262  -11.6855 C   0  0  0  0  0  0  0  0  0  0  0  0
   22.6322   11.2948   -8.7096 O   0  0  0  0  0  0  0  0  0  0  0  0
   21.5409   11.6736  -10.7699 C   0  0  0  0  0  0  0  0  0  0  0  0
   22.7679   12.2291  -11.3238 C   0  0  0  0  0  0  0  0  0  0  0  0
   20.2702   12.0495  -12.9856 C   0  0  0  0  0  0  0  0  0  0  0  0
   23.1826   11.8599  -12.4184 O   0  0  0  0  0  0  0  0  0  0  0  0
   21.2041   11.4497  -13.9153 C   0  0  0  0  0  0  0  0  0  0  0  0
   22.6077   12.0466  -13.8404 C   0  0  0  0  0  0  0  0  0  0  0  0
   20.3258   10.2470   -7.5720 O   0  0  0  0  0  0  0  0  0  0  0  0
   23.2814   12.6195  -14.6162 O   0  0  0  0  0  0  0  0  0  0  0  0
  1  2  2  0
  1  3  1  0
  2  4  1  0
  3  5  2  0
  4  6  1  0
  4  7  2  0
  5  7  1  0
  7  8  1  0
  5  9  1  0
  8 10  1  0
  9 11  1  0
 10 12  1  0
 11 12  1  0
  2 13  1  0
 12 14  2  0
M  END
>  <ID>  (1) 
conformer_0

$$$$
