
     RDKit          3D

 20 22  0  0  0  0  0  0  0  0999 V2000
   19.1829   10.8021  -10.6068 C   0  0  0  0  0  0  0  0  0  0  0  0
   19.9839   10.6229   -9.7472 C   0  0  0  0  0  0  0  0  0  0  0  0
   19.9330   10.9077   -8.4856 N   0  0  0  0  0  0  0  0  0  0  0  0
   19.5733   10.9428  -11.9433 C   0  0  0  0  0  0  0  0  0  0  0  0
   20.8673   10.6514  -12.4386 C   0  0  0  0  0  0  0  0  0  0  0  0
   21.2504   10.6807  -13.8157 C   0  0  0  0  0  0  0  0  0  0  0  0
   21.4944   11.8165  -14.3919 C   0  0  0  0  0  0  0  0  0  0  0  0
   21.8160   10.7016  -11.3450 C   0  0  0  0  0  0  0  0  0  0  0  0
   21.4651   10.6219  -10.0594 C   0  0  0  0  0  0  0  0  0  0  0  0
   21.1214   10.9093   -7.7864 C   0  0  0  0  0  0  0  0  0  0  0  0
   21.2934   11.1058   -6.4242 N   0  0  0  0  0  0  0  0  0  0  0  0
   21.1777    9.5890  -14.6224 C   0  0  0  0  0  0  0  0  0  0  0  0
   21.8715   11.9315  -15.7394 C   0  0  0  0  0  0  0  0  0  0  0  0
   21.4983   13.1313  -13.6922 C   0  0  0  0  0  0  0  0  0  0  0  0
   21.5945    9.6013  -15.8524 C   0  0  0  0  0  0  0  0  0  0  0  0
   22.3802   13.5789  -12.7797 N   0  0  0  0  0  0  0  0  0  0  0  0
   22.1144   10.8098   -8.8138 N   0  0  0  0  0  0  0  0  0  0  0  0
   22.2329   13.1651  -16.3807 O   0  0  0  0  0  0  0  0  0  0  0  0
   21.9120   10.8018  -16.5029 C   0  0  0  0  0  0  0  0  0  0  0  0
   23.3550   12.8442  -12.4800 O   0  0  0  0  0  0  0  0  0  0  0  0
  1  2  1  0
  2  3  1  0
  1  4  2  0
  4  5  1  0
  5  6  1  0
  6  7  2  0
  5  8  2  0
  2  9  2  0
  8  9  1  0
  3 10  2  0
 10 11  1  0
  6 12  1  0
  7 13  1  0
  7 14  1  0
 12 15  2  0
 14 16  2  3
  9 17  1  0
 10 17  1  0
 13 18  1  0
 13 19  2  0
 15 19  1  0
 16 20  1  0
M  END
>  <ID>  (1) 
conformer_0

$$$$
