
     RDKit          3D

  9  9  0  0  0  0  0  0  0  0999 V2000
   22.2562   14.2064   -9.6633 O   0  0  0  0  0  0  0  0  0  0  0  0
   21.5981   13.8248  -10.5361 C   0  0  0  0  0  0  0  0  0  0  0  0
   21.2152   12.5664  -10.5378 C   0  0  0  0  0  0  0  0  0  0  0  0
   19.9226   12.2319  -10.8826 C   0  0  0  0  0  0  0  0  0  0  0  0
   19.4544   10.8296  -10.9287 C   0  0  0  0  0  0  0  0  0  0  0  0
   20.2881    9.8450  -10.6351 C   0  0  0  0  0  0  0  0  0  0  0  0
   21.6159   10.1911  -10.2878 C   0  0  0  0  0  0  0  0  0  0  0  0
   20.9455   14.7057  -11.2219 O   0  0  0  0  0  0  0  0  0  0  0  0
   22.1307   11.5191  -10.1828 C   0  0  0  0  0  0  0  0  0  0  0  0
  1  2  1  0
  2  3  1  0
  3  4  2  0
  4  5  1  0
  5  6  2  0
  6  7  1  0
  2  8  2  0
  3  9  1  0
  7  9  2  0
M  END
>  <ID>  (1) 
conformer_0

$$$$
