
     RDKit          3D

 20 23  0  0  0  0  0  0  0  0999 V2000
   21.6997   14.2263  -11.8708 C   0  0  0  0  0  0  0  0  0  0  0  0
   21.4522   13.9144  -10.7237 C   0  0  0  0  0  0  0  0  0  0  0  0
   21.6513   13.2421  -12.8492 C   0  0  0  0  0  0  0  0  0  0  0  0
   20.9966   12.5663  -10.3638 C   0  0  0  0  0  0  0  0  0  0  0  0
   20.6808   12.1816   -8.9935 N   0  0  0  0  0  0  0  0  0  0  0  0
   21.9858   13.6486  -14.2691 C   0  0  0  0  0  0  0  0  0  0  0  0
   20.2163   11.0277   -8.8247 C   0  0  0  0  0  0  0  0  0  0  0  0
   20.5284   12.9508   -7.9082 C   0  0  0  0  0  0  0  0  0  0  0  0
   21.9668   12.5635  -15.1449 C   0  0  0  0  0  0  0  0  0  0  0  0
   20.9093   11.7745  -11.3748 C   0  0  0  0  0  0  0  0  0  0  0  0
   21.3539   11.4548  -14.6180 C   0  0  0  0  0  0  0  0  0  0  0  0
   21.2507   12.0691  -12.6146 C   0  0  0  0  0  0  0  0  0  0  0  0
   21.3942   10.3916  -15.5301 C   0  0  0  0  0  0  0  0  0  0  0  0
   22.4044   12.4605  -16.3449 C   0  0  0  0  0  0  0  0  0  0  0  0
   21.0628   11.1397  -13.4790 O   0  0  0  0  0  0  0  0  0  0  0  0
   20.5958   10.4946   -7.6790 C   0  0  0  0  0  0  0  0  0  0  0  0
   20.8607    9.0857  -15.0936 O   0  0  0  0  0  0  0  0  0  0  0  0
   21.8162   10.3797  -16.7625 C   0  0  0  0  0  0  0  0  0  0  0  0
   20.8926   11.8219   -6.8692 C   0  0  0  0  0  0  0  0  0  0  0  0
   22.2936   11.5766  -17.1898 C   0  0  0  0  0  0  0  0  0  0  0  0
  1  2  2  0
  1  3  1  0
  2  4  1  0
  4  5  1  0
  3  6  1  0
  5  7  1  0
  5  8  1  0
  6  9  1  0
  4 10  2  0
  9 11  1  0
  3 12  2  0
 10 12  1  0
 11 13  2  0
  9 14  2  0
 11 15  1  0
 12 15  1  0
  7 16  1  0
 13 17  1  0
 13 18  1  0
  8 19  1  0
 16 19  1  0
 14 20  1  0
 18 20  2  0
M  END
>  <ID>  (1) 
conformer_0

$$$$
