
     RDKit          3D

 17 18  0  0  0  0  0  0  0  0999 V2000
   21.8754   15.0251  -11.1791 O   0  0  0  0  0  0  0  0  0  0  0  0
   21.3173   13.9052  -10.9567 C   0  0  0  0  0  0  0  0  0  0  0  0
   21.4278   13.2277   -9.7915 C   0  0  0  0  0  0  0  0  0  0  0  0
   20.8882   13.2609  -12.0636 C   0  0  0  0  0  0  0  0  0  0  0  0
   20.7630   11.9493   -9.6453 C   0  0  0  0  0  0  0  0  0  0  0  0
   20.8082   13.9464  -13.3245 O   0  0  0  0  0  0  0  0  0  0  0  0
   20.7876   11.2988   -8.3706 C   0  0  0  0  0  0  0  0  0  0  0  0
   21.2686   11.9110   -7.2650 C   0  0  0  0  0  0  0  0  0  0  0  0
   21.3091   11.2142   -6.0883 C   0  0  0  0  0  0  0  0  0  0  0  0
   20.4176   10.0571   -8.3485 C   0  0  0  0  0  0  0  0  0  0  0  0
   21.7177   11.7744   -4.8257 O   0  0  0  0  0  0  0  0  0  0  0  0
   20.9573    9.8537   -6.0008 C   0  0  0  0  0  0  0  0  0  0  0  0
   20.5098    9.3220   -7.1634 N   0  0  0  0  0  0  0  0  0  0  0  0
   20.1535   11.4248  -10.8925 C   0  0  0  0  0  0  0  0  0  0  0  0
   21.8184   13.6088  -14.1856 C   0  0  0  0  0  0  0  0  0  0  0  0
   19.5671   10.1176  -10.6519 O   0  0  0  0  0  0  0  0  0  0  0  0
   20.2552   12.0742  -12.0547 C   0  0  0  0  0  0  0  0  0  0  0  0
  1  2  1  0
  2  3  1  0
  2  4  2  0
  3  5  2  0
  4  6  1  0
  5  7  1  0
  7  8  1  0
  8  9  2  0
  7 10  2  0
  9 11  1  0
  9 12  1  0
 10 13  1  0
 12 13  2  0
  5 14  1  0
  6 15  1  0
 14 16  1  0
  4 17  1  0
 14 17  2  0
M  END
>  <ID>  (1) 
conformer_0

$$$$
