
     RDKit          3D

 16 17  0  0  0  0  0  0  0  0999 V2000
   19.1537   10.6428   -9.7646 C   0  0  0  0  0  0  0  0  0  0  0  0
   20.3418   10.6235   -9.0781 C   0  0  0  0  0  0  0  0  0  0  0  0
   19.3606   11.0016  -11.1293 C   0  0  0  0  0  0  0  0  0  0  0  0
   21.4973   11.1455   -9.5252 C   0  0  0  0  0  0  0  0  0  0  0  0
   20.2572   11.5262  -11.6855 C   0  0  0  0  0  0  0  0  0  0  0  0
   22.6322   11.2948   -8.7096 O   0  0  0  0  0  0  0  0  0  0  0  0
   21.5139   11.6923  -10.8226 C   0  0  0  0  0  0  0  0  0  0  0  0
   22.7642   12.2323  -11.3403 C   0  0  0  0  0  0  0  0  0  0  0  0
   20.3018   12.0734  -13.0908 C   0  0  0  0  0  0  0  0  0  0  0  0
   20.8345   11.4198  -14.0034 N   0  0  0  0  0  0  0  0  0  0  0  0
   23.4295   11.6101  -12.1827 O   0  0  0  0  0  0  0  0  0  0  0  0
   20.6254   12.2060  -15.1472 N   0  0  0  0  0  0  0  0  0  0  0  0
   23.0576   13.5789  -11.1736 O   0  0  0  0  0  0  0  0  0  0  0  0
   20.0835   13.3501  -14.6311 N   0  0  0  0  0  0  0  0  0  0  0  0
   22.3329   11.8772   -7.4493 C   0  0  0  0  0  0  0  0  0  0  0  0
   19.9550   13.1698  -13.2873 N   0  0  0  0  0  0  0  0  0  0  0  0
  1  2  2  0
  1  3  1  0
  2  4  1  0
  3  5  2  0
  4  6  1  0
  4  7  2  0
  5  7  1  0
  7  8  1  0
  5  9  1  0
  9 10  2  0
  8 11  2  0
 10 12  1  0
  8 13  1  0
 12 14  2  0
  6 15  1  0
  9 16  1  0
 14 16  1  0
M  END
>  <ID>  (1) 
conformer_0

$$$$
