
     RDKit          3D

 15 16  0  0  0  0  0  0  0  0999 V2000
   19.2656   10.6806   -9.6142 C   0  0  0  0  0  0  0  0  0  0  0  0
   19.4293   11.0061  -10.9173 C   0  0  0  0  0  0  0  0  0  0  0  0
   20.3354   11.4035  -11.6239 C   0  0  0  0  0  0  0  0  0  0  0  0
   20.5342   10.7936   -8.8894 C   0  0  0  0  0  0  0  0  0  0  0  0
   20.3229   11.7739  -12.9725 C   0  0  0  0  0  0  0  0  0  0  0  0
   21.5169   11.5524  -10.8698 C   0  0  0  0  0  0  0  0  0  0  0  0
   21.4014   12.2926  -13.6615 C   0  0  0  0  0  0  0  0  0  0  0  0
   22.7016   11.9586  -11.5721 C   0  0  0  0  0  0  0  0  0  0  0  0
   21.6043   11.1973   -9.5114 C   0  0  0  0  0  0  0  0  0  0  0  0
   22.5590   12.4768  -13.0516 C   0  0  0  0  0  0  0  0  0  0  0  0
   21.2474   12.5888  -15.0789 C   0  0  0  0  0  0  0  0  0  0  0  0
   20.4478   10.6047   -7.4874 N   0  0  0  0  0  0  0  0  0  0  0  0
   20.6136   11.9364  -15.8723 O   0  0  0  0  0  0  0  0  0  0  0  0
   21.7843   13.5470  -15.5778 O   0  0  0  0  0  0  0  0  0  0  0  0
   21.1554   11.2573   -6.6514 O   0  0  0  0  0  0  0  0  0  0  0  0
  1  2  2  0
  2  3  1  0
  1  4  1  0
  3  5  1  0
  3  6  2  0
  5  7  2  0
  6  8  1  0
  4  9  2  0
  6  9  1  0
  7 10  1  0
  8 10  2  0
  7 11  1  0
  4 12  1  0
 11 13  1  0
 11 14  2  0
 12 15  1  0
M  END
>  <ID>  (1) 
conformer_0

$$$$
