
     RDKit          3D

 23 25  0  0  0  0  0  0  0  0999 V2000
   19.1829   10.8021  -10.6068 C   0  0  0  0  0  0  0  0  0  0  0  0
   20.3048   11.1080  -11.1466 C   0  0  0  0  0  0  0  0  0  0  0  0
   21.0041   12.2525  -10.8142 C   0  0  0  0  0  0  0  0  0  0  0  0
   19.1423   10.8971   -9.2632 C   0  0  0  0  0  0  0  0  0  0  0  0
   20.9391   10.2817  -12.2306 C   0  0  0  0  0  0  0  0  0  0  0  0
   22.2025   10.6265  -12.8553 C   0  0  0  0  0  0  0  0  0  0  0  0
   20.3791   13.0197   -9.6770 C   0  0  0  0  0  0  0  0  0  0  0  0
   21.4219   13.9748   -9.0335 C   0  0  0  0  0  0  0  0  0  0  0  0
   22.8540   11.7776  -12.2890 C   0  0  0  0  0  0  0  0  0  0  0  0
   22.2639   12.5665  -11.2853 C   0  0  0  0  0  0  0  0  0  0  0  0
   22.8155    9.8202  -13.8014 C   0  0  0  0  0  0  0  0  0  0  0  0
   22.6266    9.9838  -14.9657 C   0  0  0  0  0  0  0  0  0  0  0  0
   21.2330   14.3237   -7.9285 O   0  0  0  0  0  0  0  0  0  0  0  0
   23.2435    9.1850  -15.9721 C   0  0  0  0  0  0  0  0  0  0  0  0
   24.0345    8.2878  -15.4588 C   0  0  0  0  0  0  0  0  0  0  0  0
   24.8084    7.3536  -16.4081 C   0  0  0  0  0  0  0  0  0  0  0  0
   19.9998   12.0578   -8.6891 C   0  0  0  0  0  0  0  0  0  0  0  0
   24.3541    8.0014  -14.1269 C   0  0  0  0  0  0  0  0  0  0  0  0
   25.9058    6.6888  -16.0134 N   0  0  0  0  0  0  0  0  0  0  0  0
   25.8278    5.5104  -15.5105 C   0  0  0  0  0  0  0  0  0  0  0  0
   22.3638   14.3768   -9.7705 O   0  0  0  0  0  0  0  0  0  0  0  0
   23.7762    8.8416  -13.2696 C   0  0  0  0  0  0  0  0  0  0  0  0
   27.1061    7.3727  -16.0273 C   0  0  0  0  0  0  0  0  0  0  0  0
  1  2  1  0
  2  3  1  0
  1  4  1  0
  2  5  2  0
  5  6  1  0
  3  7  1  0
  7  8  1  0
  6  9  2  0
  3 10  2  0
  9 10  1  0
  6 11  1  0
 11 12  2  0
  8 13  1  0
 12 14  1  0
 14 15  2  0
 15 16  1  0
  4 17  1  0
  7 17  1  0
 15 18  1  0
 16 19  1  0
 19 20  1  0
  8 21  2  0
 11 22  1  0
 18 22  2  0
 19 23  1  0
M  END
>  <ID>  (1) 
conformer_0

$$$$
