
     RDKit          3D

 21 22  0  0  0  0  0  0  0  0999 V2000
   19.5090   10.6258   -9.3415 C   0  0  0  0  0  0  0  0  0  0  0  0
   19.4725   10.9602  -10.6287 C   0  0  0  0  0  0  0  0  0  0  0  0
   20.4741   11.4265  -11.4563 C   0  0  0  0  0  0  0  0  0  0  0  0
   21.6258   11.8589  -10.8556 C   0  0  0  0  0  0  0  0  0  0  0  0
   20.2821   11.7597  -12.8830 C   0  0  0  0  0  0  0  0  0  0  0  0
   21.7562   11.6564   -9.4362 C   0  0  0  0  0  0  0  0  0  0  0  0
   21.1192   10.9180  -13.7030 C   0  0  0  0  0  0  0  0  0  0  0  0
   20.7282   11.0914   -8.6800 C   0  0  0  0  0  0  0  0  0  0  0  0
   20.7828   10.8330   -7.1845 C   0  0  0  0  0  0  0  0  0  0  0  0
   21.4007   11.4040  -14.8294 N   0  0  0  0  0  0  0  0  0  0  0  0
   21.8628    9.8690  -13.2706 C   0  0  0  0  0  0  0  0  0  0  0  0
   22.2725   10.9499  -15.6977 C   0  0  0  0  0  0  0  0  0  0  0  0
   22.7299    9.2369  -14.0903 C   0  0  0  0  0  0  0  0  0  0  0  0
   22.4846   11.4583  -16.9543 O   0  0  0  0  0  0  0  0  0  0  0  0
   23.4741    8.0511  -13.6805 C   0  0  0  0  0  0  0  0  0  0  0  0
   21.4847   11.7276   -6.4996 O   0  0  0  0  0  0  0  0  0  0  0  0
   24.5619    8.2362  -13.0510 O   0  0  0  0  0  0  0  0  0  0  0  0
   22.4597   12.8655  -17.0993 C   0  0  0  0  0  0  0  0  0  0  0  0
   23.0184    9.7441  -15.3629 C   0  0  0  0  0  0  0  0  0  0  0  0
   20.5295    9.7394   -6.6877 O   0  0  0  0  0  0  0  0  0  0  0  0
   23.0600    6.8971  -13.7927 O   0  0  0  0  0  0  0  0  0  0  0  0
  1  2  2  0
  2  3  1  0
  3  4  2  0
  3  5  1  0
  4  6  1  0
  5  7  1  0
  1  8  1  0
  6  8  2  0
  8  9  1  0
  7 10  2  0
  7 11  1  0
 10 12  1  0
 11 13  2  0
 12 14  1  0
 13 15  1  0
  9 16  2  0
 15 17  1  0
 14 18  1  0
 12 19  2  0
 13 19  1  0
  9 20  1  0
 15 21  2  0
M  END
>  <ID>  (1) 
conformer_0

$$$$
