
     RDKit          3D

 15 17  0  0  0  0  0  0  0  0999 V2000
   21.9731   13.0807   -7.5264 O   0  0  0  0  0  0  0  0  0  0  0  0
   21.6687   12.7597   -8.6190 C   0  0  0  0  0  0  0  0  0  0  0  0
   20.9101   11.6574   -8.9824 C   0  0  0  0  0  0  0  0  0  0  0  0
   20.5691   10.7202   -8.1623 C   0  0  0  0  0  0  0  0  0  0  0  0
   22.3203   13.5229   -9.6751 N   0  0  0  0  0  0  0  0  0  0  0  0
   21.9017   13.1873  -10.9290 C   0  0  0  0  0  0  0  0  0  0  0  0
   21.2341   12.1525  -11.2885 C   0  0  0  0  0  0  0  0  0  0  0  0
   20.8953   11.2403  -10.2304 C   0  0  0  0  0  0  0  0  0  0  0  0
   20.9307   11.9068  -12.6208 C   0  0  0  0  0  0  0  0  0  0  0  0
   19.9878   10.1581  -10.5262 C   0  0  0  0  0  0  0  0  0  0  0  0
   21.3757   12.7655  -13.6807 C   0  0  0  0  0  0  0  0  0  0  0  0
   22.0522   13.8475  -13.2799 C   0  0  0  0  0  0  0  0  0  0  0  0
   22.5232   14.7165  -14.2496 C   0  0  0  0  0  0  0  0  0  0  0  0
   19.7708    9.7823   -8.9802 C   0  0  0  0  0  0  0  0  0  0  0  0
   22.4527   14.1066  -11.9539 C   0  0  0  0  0  0  0  0  0  0  0  0
  1  2  2  0
  2  3  1  0
  3  4  1  0
  2  5  1  0
  5  6  1  0
  6  7  1  0
  3  8  2  0
  7  8  1  0
  7  9  2  0
  8 10  1  0
  9 11  1  0
 11 12  2  0
 12 13  1  0
  4 14  2  0
 10 14  1  0
  6 15  2  0
 12 15  1  0
M  END
>  <ID>  (1) 
conformer_0

$$$$
