
     RDKit          3D

 23 26  0  0  0  0  0  0  0  0999 V2000
   26.1671    8.7146  -15.0885 C   0  0  0  0  0  0  0  0  0  0  0  0
   25.3211    9.5781  -14.7838 C   0  0  0  0  0  0  0  0  0  0  0  0
   24.0190    9.3506  -14.5350 C   0  0  0  0  0  0  0  0  0  0  0  0
   23.1111   10.4775  -14.1961 C   0  0  0  0  0  0  0  0  0  0  0  0
   25.4388    7.3262  -15.1443 C   0  0  0  0  0  0  0  0  0  0  0  0
   22.0938   10.2791  -13.3726 N   0  0  0  0  0  0  0  0  0  0  0  0
   21.4579   11.3639  -12.8160 C   0  0  0  0  0  0  0  0  0  0  0  0
   26.3648    6.1375  -15.4993 C   0  0  0  0  0  0  0  0  0  0  0  0
   23.6207    8.0766  -14.6372 C   0  0  0  0  0  0  0  0  0  0  0  0
   20.8293   11.2402  -11.6016 C   0  0  0  0  0  0  0  0  0  0  0  0
   20.0960   10.2432  -11.1951 C   0  0  0  0  0  0  0  0  0  0  0  0
   20.7312   12.5294  -10.7826 C   0  0  0  0  0  0  0  0  0  0  0  0
   20.0335    9.1119  -11.8820 F   0  0  0  0  0  0  0  0  0  0  0  0
   24.4175    7.0781  -14.9228 C   0  0  0  0  0  0  0  0  0  0  0  0
   20.1158   12.4367   -9.5159 C   0  0  0  0  0  0  0  0  0  0  0  0
   19.5506   11.2407   -9.1224 C   0  0  0  0  0  0  0  0  0  0  0  0
   22.2259   12.4887  -12.9450 C   0  0  0  0  0  0  0  0  0  0  0  0
   22.0602   13.6262  -12.5415 C   0  0  0  0  0  0  0  0  0  0  0  0
   27.5486    6.3826  -16.0331 O   0  0  0  0  0  0  0  0  0  0  0  0
   25.9847    4.9596  -15.5397 O   0  0  0  0  0  0  0  0  0  0  0  0
   21.3261   13.7003  -11.2526 C   0  0  0  0  0  0  0  0  0  0  0  0
   23.0945   11.9087  -14.1069 C   0  0  0  0  0  0  0  0  0  0  0  0
   19.6356   10.1813   -9.8345 C   0  0  0  0  0  0  0  0  0  0  0  0
  1  2  2  0
  2  3  1  0
  3  4  1  0
  1  5  1  0
  4  6  1  0
  6  7  1  0
  5  8  1  0
  3  9  2  0
  7 10  1  0
 10 11  2  0
 10 12  1  0
 11 13  1  0
  5 14  2  0
  9 14  1  0
 12 15  2  0
 15 16  1  0
  7 17  1  0
 17 18  2  0
  8 19  2  0
  8 20  1  0
 12 21  1  0
 18 21  1  0
  4 22  2  0
 17 22  1  0
 11 23  1  0
 16 23  2  0
M  END
>  <ID>  (1) 
conformer_0

$$$$
