
     RDKit          3D

 19 21  0  0  0  0  0  0  0  0999 V2000
   19.1829   10.8021  -10.6068 C   0  0  0  0  0  0  0  0  0  0  0  0
   19.9839   10.6229   -9.7472 C   0  0  0  0  0  0  0  0  0  0  0  0
   19.9330   10.9077   -8.4856 N   0  0  0  0  0  0  0  0  0  0  0  0
   19.5733   10.9428  -11.9433 C   0  0  0  0  0  0  0  0  0  0  0  0
   20.8673   10.6514  -12.4386 C   0  0  0  0  0  0  0  0  0  0  0  0
   21.2504   10.6807  -13.8157 C   0  0  0  0  0  0  0  0  0  0  0  0
   21.4944   11.8165  -14.3919 C   0  0  0  0  0  0  0  0  0  0  0  0
   21.8160   10.7016  -11.3450 C   0  0  0  0  0  0  0  0  0  0  0  0
   21.4651   10.6219  -10.0594 C   0  0  0  0  0  0  0  0  0  0  0  0
   21.5938    9.4938  -14.3847 C   0  0  0  0  0  0  0  0  0  0  0  0
   21.9586   11.5231  -15.7945 C   0  0  0  0  0  0  0  0  0  0  0  0
   21.4489   13.2126  -14.0073 C   0  0  0  0  0  0  0  0  0  0  0  0
   22.3374   13.6588  -13.3911 C   0  0  0  0  0  0  0  0  0  0  0  0
   22.1414    9.7514  -15.6177 C   0  0  0  0  0  0  0  0  0  0  0  0
   23.3033   14.2123  -13.8219 O   0  0  0  0  0  0  0  0  0  0  0  0
   22.1846   13.6524  -11.9894 O   0  0  0  0  0  0  0  0  0  0  0  0
   21.1629   10.7730   -7.8448 C   0  0  0  0  0  0  0  0  0  0  0  0
   22.1574   10.6786   -8.7605 N   0  0  0  0  0  0  0  0  0  0  0  0
   21.4372   10.8563   -6.4614 C   0  0  0  0  0  0  0  0  0  0  0  0
  1  2  1  0
  2  3  1  0
  1  4  2  0
  4  5  1  0
  5  6  1  0
  6  7  2  0
  5  8  2  0
  2  9  2  0
  8  9  1  0
  6 10  1  0
  7 11  1  0
  7 12  1  0
 12 13  1  0
 10 14  1  0
 11 14  1  0
 13 15  2  0
 13 16  1  0
  3 17  2  0
  9 18  1  0
 17 18  1  0
 17 19  1  0
M  END
>  <ID>  (1) 
conformer_0

$$$$
