
     RDKit          3D

 17 18  0  0  0  0  0  0  0  0999 V2000
   21.9469   13.6767   -8.6510 O   0  0  0  0  0  0  0  0  0  0  0  0
   21.7789   12.7048   -9.3357 C   0  0  0  0  0  0  0  0  0  0  0  0
   20.7103   11.9148   -9.0139 C   0  0  0  0  0  0  0  0  0  0  0  0
   20.2682   11.0620  -10.0582 C   0  0  0  0  0  0  0  0  0  0  0  0
   22.5483   12.3789  -10.4005 O   0  0  0  0  0  0  0  0  0  0  0  0
   22.4414   12.9946  -11.6442 C   0  0  0  0  0  0  0  0  0  0  0  0
   22.7765   12.2042  -12.6739 C   0  0  0  0  0  0  0  0  0  0  0  0
   20.8901    9.9160  -10.2391 O   0  0  0  0  0  0  0  0  0  0  0  0
   22.2422   12.5620  -13.8183 C   0  0  0  0  0  0  0  0  0  0  0  0
   22.1823   10.8227  -12.3700 N   0  0  0  0  0  0  0  0  0  0  0  0
   21.8439    9.9855  -11.3214 C   0  0  0  0  0  0  0  0  0  0  0  0
   19.1325   11.2736  -10.6283 O   0  0  0  0  0  0  0  0  0  0  0  0
   21.0631   12.8985  -13.8999 O   0  0  0  0  0  0  0  0  0  0  0  0
   21.3867   10.4948  -13.6089 C   0  0  0  0  0  0  0  0  0  0  0  0
   23.0771    9.4792  -10.6642 C   0  0  0  0  0  0  0  0  0  0  0  0
   22.2017   11.2733  -14.7449 C   0  0  0  0  0  0  0  0  0  0  0  0
   21.2711   11.3967  -15.8729 O   0  0  0  0  0  0  0  0  0  0  0  0
  1  2  2  0
  2  3  1  0
  3  4  1  0
  2  5  1  0
  5  6  1  0
  6  7  1  0
  4  8  1  0
  7  9  1  0
  7 10  1  0
  8 11  1  0
 10 11  1  0
  4 12  2  0
  9 13  1  0
 10 14  1  0
 11 15  1  0
  9 16  1  0
 14 16  1  0
 16 17  1  0
M  END
>  <ID>  (1) 
conformer_0

$$$$
