
     RDKit          3D

 15 16  0  0  0  0  0  0  0  0999 V2000
   19.1537   10.6428   -9.7646 C   0  0  0  0  0  0  0  0  0  0  0  0
   19.4108   11.0439  -11.0142 C   0  0  0  0  0  0  0  0  0  0  0  0
   20.5964   10.6444   -9.1268 C   0  0  0  0  0  0  0  0  0  0  0  0
   20.3016   11.4818  -11.7794 C   0  0  0  0  0  0  0  0  0  0  0  0
   20.2192   11.8892  -13.0824 N   0  0  0  0  0  0  0  0  0  0  0  0
   20.6270   10.2383   -7.7297 O   0  0  0  0  0  0  0  0  0  0  0  0
   21.2012   12.1027  -13.8231 C   0  0  0  0  0  0  0  0  0  0  0  0
   22.0568   13.1211  -13.6934 C   0  0  0  0  0  0  0  0  0  0  0  0
   23.2154   13.2738  -14.4429 C   0  0  0  0  0  0  0  0  0  0  0  0
   23.4178   12.4841  -15.5297 C   0  0  0  0  0  0  0  0  0  0  0  0
   21.1443   11.0213   -6.7679 C   0  0  0  0  0  0  0  0  0  0  0  0
   21.5469   11.0917   -9.8102 C   0  0  0  0  0  0  0  0  0  0  0  0
   21.5526   11.4814  -11.0986 C   0  0  0  0  0  0  0  0  0  0  0  0
   21.3054   11.3283  -15.2083 C   0  0  0  0  0  0  0  0  0  0  0  0
   22.3184   11.5360  -15.9378 C   0  0  0  0  0  0  0  0  0  0  0  0
  1  2  2  0
  1  3  1  0
  2  4  1  0
  4  5  1  0
  3  6  1  0
  5  7  1  0
  7  8  2  0
  8  9  1  0
  9 10  2  0
  6 11  1  0
  3 12  2  0
  4 13  2  0
 12 13  1  0
  7 14  1  0
 10 15  1  0
 14 15  2  0
M  END
>  <ID>  (1) 
conformer_0

$$$$
