
     RDKit          3D

 13 14  0  0  0  0  0  0  0  0999 V2000
   19.5090   10.6258   -9.3415 C   0  0  0  0  0  0  0  0  0  0  0  0
   19.4725   10.9602  -10.6287 C   0  0  0  0  0  0  0  0  0  0  0  0
   20.7380   10.7979   -8.7322 C   0  0  0  0  0  0  0  0  0  0  0  0
   20.4751   11.4309  -11.4751 C   0  0  0  0  0  0  0  0  0  0  0  0
   21.8504   11.3954   -9.4337 C   0  0  0  0  0  0  0  0  0  0  0  0
   23.0951   11.5377   -8.7778 F   0  0  0  0  0  0  0  0  0  0  0  0
   21.6566   11.6761  -10.7670 C   0  0  0  0  0  0  0  0  0  0  0  0
   21.9984   13.0212  -10.9044 C   0  0  0  0  0  0  0  0  0  0  0  0
   20.4698   11.4090  -12.6110 C   0  0  0  0  0  0  0  0  0  0  0  0
   20.9247   10.4012   -7.4043 O   0  0  0  0  0  0  0  0  0  0  0  0
   20.7148   12.6158  -13.3923 C   0  0  0  0  0  0  0  0  0  0  0  0
   21.4807   13.7053  -12.7175 C   0  0  0  0  0  0  0  0  0  0  0  0
   22.8451   13.8611  -13.2352 O   0  0  0  0  0  0  0  0  0  0  0  0
  1  2  2  0
  1  3  1  0
  2  4  1  0
  3  5  2  0
  5  6  1  0
  4  7  1  0
  5  7  1  0
  7  8  1  0
  4  9  1  0
  3 10  1  0
  9 11  2  0
  8 12  1  0
 11 12  1  0
 12 13  1  0
M  END
>  <ID>  (1) 
conformer_0

$$$$
