
     RDKit          3D

 14 16  0  0  0  0  0  0  0  0999 V2000
   21.9731   13.0807   -7.5264 O   0  0  0  0  0  0  0  0  0  0  0  0
   21.6687   12.7597   -8.6190 C   0  0  0  0  0  0  0  0  0  0  0  0
   20.9101   11.6574   -8.9824 C   0  0  0  0  0  0  0  0  0  0  0  0
   21.8365   13.8305   -9.6301 C   0  0  0  0  0  0  0  0  0  0  0  0
   20.5074   11.6370  -10.4054 C   0  0  0  0  0  0  0  0  0  0  0  0
   21.8871   10.5490   -8.7062 C   0  0  0  0  0  0  0  0  0  0  0  0
   20.7646   12.6618  -11.2393 C   0  0  0  0  0  0  0  0  0  0  0  0
   19.6697   11.5415   -8.2824 O   0  0  0  0  0  0  0  0  0  0  0  0
   21.4763    9.2825   -9.4751 C   0  0  0  0  0  0  0  0  0  0  0  0
   20.6560   12.3929  -12.6744 C   0  0  0  0  0  0  0  0  0  0  0  0
   20.1737   11.2037  -13.0830 C   0  0  0  0  0  0  0  0  0  0  0  0
   20.4608   10.3281  -10.8855 C   0  0  0  0  0  0  0  0  0  0  0  0
   20.3025   10.0889  -12.2167 C   0  0  0  0  0  0  0  0  0  0  0  0
   21.3235   13.8830  -10.8125 C   0  0  0  0  0  0  0  0  0  0  0  0
  1  2  2  0
  2  3  1  0
  2  4  1  0
  3  5  1  0
  3  6  1  0
  5  7  1  0
  3  8  1  0
  6  9  1  0
  7 10  2  0
 10 11  1  0
  5 12  2  0
  9 12  1  0
 11 13  2  0
 12 13  1  0
  4 14  2  0
  7 14  1  0
M  END
>  <ID>  (1) 
conformer_0

$$$$
