
     RDKit          3D

 20 23  0  0  0  0  0  0  0  0999 V2000
   25.6585    8.9623  -14.3434 C   0  0  0  0  0  0  0  0  0  0  0  0
   24.4096    8.9370  -14.2277 C   0  0  0  0  0  0  0  0  0  0  0  0
   23.8326    8.5232  -13.0570 C   0  0  0  0  0  0  0  0  0  0  0  0
   22.4524    9.0502  -12.8144 C   0  0  0  0  0  0  0  0  0  0  0  0
   21.7368    9.5575  -13.6299 C   0  0  0  0  0  0  0  0  0  0  0  0
   22.0405    8.9203  -11.3544 C   0  0  0  0  0  0  0  0  0  0  0  0
   22.4274    9.9027  -14.9023 C   0  0  0  0  0  0  0  0  0  0  0  0
   26.2802    7.7854  -14.5882 O   0  0  0  0  0  0  0  0  0  0  0  0
   21.2075   10.0502  -11.0298 C   0  0  0  0  0  0  0  0  0  0  0  0
   26.0071    9.9428  -15.1925 O   0  0  0  0  0  0  0  0  0  0  0  0
   23.6022    9.6443  -15.1673 C   0  0  0  0  0  0  0  0  0  0  0  0
   20.3606   10.5599  -12.0520 C   0  0  0  0  0  0  0  0  0  0  0  0
   20.7712   10.4868  -13.2386 C   0  0  0  0  0  0  0  0  0  0  0  0
   19.2963   11.4508  -11.6151 C   0  0  0  0  0  0  0  0  0  0  0  0
   19.4063   12.7691  -11.8145 C   0  0  0  0  0  0  0  0  0  0  0  0
   19.3287   11.5021  -10.0332 C   0  0  0  0  0  0  0  0  0  0  0  0
   21.7761   11.0560  -10.2198 C   0  0  0  0  0  0  0  0  0  0  0  0
   20.4530   13.4898  -10.9724 C   0  0  0  0  0  0  0  0  0  0  0  0
   20.6736   11.8839   -9.5235 C   0  0  0  0  0  0  0  0  0  0  0  0
   20.7049   13.2568   -9.6143 N   0  0  0  0  0  0  0  0  0  0  0  0
  1  2  1  0
  2  3  1  0
  3  4  1  0
  4  5  2  0
  4  6  1  0
  5  7  1  0
  1  8  2  0
  6  9  1  0
  1 10  1  0
  2 11  1  0
  7 11  1  0
  9 12  1  0
  5 13  1  0
 12 13  2  0
 12 14  1  0
 14 15  1  0
 14 16  1  0
  9 17  1  0
 15 18  1  0
 16 19  1  0
 17 19  1  0
 18 20  1  0
 19 20  1  0
M  END
>  <ID>  (1) 
conformer_0

$$$$
