
     RDKit          3D

 10 10  0  0  0  0  0  0  0  0999 V2000
   21.8754   15.0251  -11.1791 O   0  0  0  0  0  0  0  0  0  0  0  0
   21.3173   13.9052  -10.9567 C   0  0  0  0  0  0  0  0  0  0  0  0
   21.4278   13.2277   -9.7915 C   0  0  0  0  0  0  0  0  0  0  0  0
   20.5889   13.3375  -12.0228 C   0  0  0  0  0  0  0  0  0  0  0  0
   19.9510   12.1674  -11.9643 C   0  0  0  0  0  0  0  0  0  0  0  0
   20.7115   11.9711   -9.6252 C   0  0  0  0  0  0  0  0  0  0  0  0
   20.0170   11.4992  -10.6897 C   0  0  0  0  0  0  0  0  0  0  0  0
   20.8502   11.3357   -8.3819 C   0  0  0  0  0  0  0  0  0  0  0  0
   20.5139   10.0726   -8.2713 O   0  0  0  0  0  0  0  0  0  0  0  0
   21.4756   11.9447   -7.3710 O   0  0  0  0  0  0  0  0  0  0  0  0
  1  2  1  0
  2  3  1  0
  2  4  2  0
  4  5  1  0
  3  6  2  0
  5  7  2  0
  6  7  1  0
  6  8  1  0
  8  9  2  0
  8 10  1  0
M  END
>  <ID>  (1) 
conformer_0

$$$$
