
     RDKit          3D

  9  9  0  0  0  0  0  0  0  0999 V2000
   19.5836   10.5873   -9.1467 C   0  0  0  0  0  0  0  0  0  0  0  0
   20.6742   10.7521   -8.5470 C   0  0  0  0  0  0  0  0  0  0  0  0
   21.6868   11.5598   -9.1002 C   0  0  0  0  0  0  0  0  0  0  0  0
   21.4302   12.1993  -10.3464 C   0  0  0  0  0  0  0  0  0  0  0  0
   22.4012   13.1556  -10.9141 C   0  0  0  0  0  0  0  0  0  0  0  0
   22.4751   14.2527  -10.4786 O   0  0  0  0  0  0  0  0  0  0  0  0
   20.1809   11.8362  -11.0887 C   0  0  0  0  0  0  0  0  0  0  0  0
   22.9276   12.8516  -12.0805 N   0  0  0  0  0  0  0  0  0  0  0  0
   19.3003   11.0646  -10.3902 C   0  0  0  0  0  0  0  0  0  0  0  0
  1  2  2  0
  2  3  1  0
  3  4  2  0
  4  5  1  0
  5  6  2  0
  4  7  1  0
  5  8  1  0
  1  9  1  0
  7  9  2  0
M  END
>  <ID>  (1) 
conformer_0

$$$$
