
     RDKit          3D

 14 15  0  0  0  0  0  0  0  0999 V2000
   22.0438   13.0337   -7.4577 O   0  0  0  0  0  0  0  0  0  0  0  0
   21.6746   12.7546   -8.5560 C   0  0  0  0  0  0  0  0  0  0  0  0
   20.5304   12.0959   -8.9060 N   0  0  0  0  0  0  0  0  0  0  0  0
   20.3617   11.8597  -10.1569 C   0  0  0  0  0  0  0  0  0  0  0  0
   21.2452   12.4238  -11.0688 C   0  0  0  0  0  0  0  0  0  0  0  0
   22.2573   13.2419  -10.0910 C   0  0  0  0  0  0  0  0  0  0  0  0
   19.3872   10.9411  -10.7536 C   0  0  0  0  0  0  0  0  0  0  0  0
   18.5028   10.2170   -9.9289 O   0  0  0  0  0  0  0  0  0  0  0  0
   21.9402   14.6544  -10.1240 O   0  0  0  0  0  0  0  0  0  0  0  0
   21.3834   12.2888  -12.3845 C   0  0  0  0  0  0  0  0  0  0  0  0
   22.3743   12.8696  -13.1461 C   0  0  0  0  0  0  0  0  0  0  0  0
   20.4555   11.3696  -12.8526 C   0  0  0  0  0  0  0  0  0  0  0  0
   22.4945   12.4427  -14.3186 O   0  0  0  0  0  0  0  0  0  0  0  0
   19.5047   10.7275  -12.0822 C   0  0  0  0  0  0  0  0  0  0  0  0
  1  2  2  0
  2  3  1  0
  3  4  1  0
  4  5  2  0
  2  6  1  0
  5  6  1  0
  4  7  1  0
  7  8  1  0
  6  9  1  0
  5 10  1  0
 10 11  1  0
 10 12  2  0
 11 13  1  0
  7 14  2  0
 12 14  1  0
M  END
>  <ID>  (1) 
conformer_0

$$$$
