
     RDKit          3D

 18 20  0  0  0  0  0  0  0  0999 V2000
   20.3436   10.5162   -8.3353 C   0  0  0  0  0  0  0  0  0  0  0  0
   20.5875   10.6774   -9.4969 C   0  0  0  0  0  0  0  0  0  0  0  0
   21.1113   11.7001  -10.0391 C   0  0  0  0  0  0  0  0  0  0  0  0
   21.6128   12.7709   -9.1628 C   0  0  0  0  0  0  0  0  0  0  0  0
   21.2744   12.0000  -11.4781 N   0  0  0  0  0  0  0  0  0  0  0  0
   21.2548   11.3039  -12.4266 C   0  0  0  0  0  0  0  0  0  0  0  0
   21.4504   12.6190   -7.8183 C   0  0  0  0  0  0  0  0  0  0  0  0
   21.9274   13.5016   -6.8617 O   0  0  0  0  0  0  0  0  0  0  0  0
   21.5295   11.8044  -13.6710 C   0  0  0  0  0  0  0  0  0  0  0  0
   21.5280   11.0681  -14.7340 C   0  0  0  0  0  0  0  0  0  0  0  0
   21.7585   11.5702  -16.0987 C   0  0  0  0  0  0  0  0  0  0  0  0
   20.8830   11.4345   -7.3445 C   0  0  0  0  0  0  0  0  0  0  0  0
   21.2950    9.8577  -12.3449 C   0  0  0  0  0  0  0  0  0  0  0  0
   21.4650    9.0754  -13.4469 C   0  0  0  0  0  0  0  0  0  0  0  0
   21.3563   13.4756  -11.6096 C   0  0  0  0  0  0  0  0  0  0  0  0
   22.5589   14.0707  -11.2064 C   0  0  0  0  0  0  0  0  0  0  0  0
   21.6108    9.6350  -14.7238 C   0  0  0  0  0  0  0  0  0  0  0  0
   22.3447   14.0181   -9.6082 C   0  0  0  0  0  0  0  0  0  0  0  0
  1  2  1  0
  2  3  2  0
  3  4  1  0
  3  5  1  0
  5  6  1  0
  4  7  2  0
  7  8  1  0
  6  9  1  0
  9 10  2  0
 10 11  1  0
  1 12  2  0
  7 12  1  0
  6 13  2  0
 13 14  1  0
  5 15  1  0
 15 16  1  0
 10 17  1  0
 14 17  2  0
  4 18  1  0
 16 18  1  0
M  END
>  <ID>  (1) 
conformer_0

$$$$
