
     RDKit          3D

 19 22  0  0  0  0  0  0  0  0999 V2000
   21.6997   14.2263  -11.8708 C   0  0  0  0  0  0  0  0  0  0  0  0
   21.4522   13.9144  -10.7237 C   0  0  0  0  0  0  0  0  0  0  0  0
   21.6513   13.2421  -12.8492 C   0  0  0  0  0  0  0  0  0  0  0  0
   20.9966   12.5663  -10.3638 C   0  0  0  0  0  0  0  0  0  0  0  0
   20.6808   12.1816   -8.9935 N   0  0  0  0  0  0  0  0  0  0  0  0
   21.9858   13.6486  -14.2691 C   0  0  0  0  0  0  0  0  0  0  0  0
   20.2163   11.0277   -8.8247 C   0  0  0  0  0  0  0  0  0  0  0  0
   20.5284   12.9508   -7.9082 C   0  0  0  0  0  0  0  0  0  0  0  0
   21.9668   12.5635  -15.1449 C   0  0  0  0  0  0  0  0  0  0  0  0
   20.9093   11.7745  -11.3748 C   0  0  0  0  0  0  0  0  0  0  0  0
   21.3539   11.4548  -14.6180 C   0  0  0  0  0  0  0  0  0  0  0  0
   21.2507   12.0691  -12.6146 C   0  0  0  0  0  0  0  0  0  0  0  0
   19.6900   10.2798   -9.9176 C   0  0  0  0  0  0  0  0  0  0  0  0
   20.3587   10.4387  -11.1632 C   0  0  0  0  0  0  0  0  0  0  0  0
   20.1004   10.6851   -7.6352 N   0  0  0  0  0  0  0  0  0  0  0  0
   21.3198   10.4117  -15.5490 C   0  0  0  0  0  0  0  0  0  0  0  0
   20.4558   11.8653   -6.9487 C   0  0  0  0  0  0  0  0  0  0  0  0
   21.2392   11.1139  -13.4225 C   0  0  0  0  0  0  0  0  0  0  0  0
   22.2595   12.6319  -16.3628 O   0  0  0  0  0  0  0  0  0  0  0  0
  1  2  2  0
  1  3  1  0
  2  4  1  0
  4  5  1  0
  3  6  1  0
  5  7  1  0
  5  8  1  0
  6  9  1  0
  4 10  2  0
  9 11  1  0
  3 12  2  0
 10 12  1  0
  7 13  1  0
 10 14  1  0
 13 14  1  0
  7 15  2  0
 11 16  1  0
  8 17  2  0
 15 17  1  0
 11 18  2  0
 12 18  1  0
  9 19  2  0
M  END
>  <ID>  (1) 
conformer_0

$$$$
