
     RDKit          3D

 22 23  0  0  0  0  0  0  0  0999 V2000
   26.1671    8.7146  -15.0885 C   0  0  0  0  0  0  0  0  0  0  0  0
   25.3211    9.5781  -14.7838 C   0  0  0  0  0  0  0  0  0  0  0  0
   24.0190    9.3506  -14.5350 C   0  0  0  0  0  0  0  0  0  0  0  0
   23.1111   10.4775  -14.1961 C   0  0  0  0  0  0  0  0  0  0  0  0
   25.4388    7.3262  -15.1443 C   0  0  0  0  0  0  0  0  0  0  0  0
   22.0938   10.2791  -13.3726 N   0  0  0  0  0  0  0  0  0  0  0  0
   21.4579   11.3639  -12.8160 C   0  0  0  0  0  0  0  0  0  0  0  0
   26.3648    6.1375  -15.4993 C   0  0  0  0  0  0  0  0  0  0  0  0
   23.6207    8.0766  -14.6372 C   0  0  0  0  0  0  0  0  0  0  0  0
   20.8293   11.2402  -11.6016 C   0  0  0  0  0  0  0  0  0  0  0  0
   20.0960   10.2432  -11.1951 C   0  0  0  0  0  0  0  0  0  0  0  0
   20.9809   12.4004  -10.6779 C   0  0  0  0  0  0  0  0  0  0  0  0
   23.3709   11.5215  -14.6771 O   0  0  0  0  0  0  0  0  0  0  0  0
   24.4230    7.0880  -14.9326 C   0  0  0  0  0  0  0  0  0  0  0  0
   21.7261   13.6908  -11.0431 C   0  0  0  0  0  0  0  0  0  0  0  0
   20.4862   12.2918   -9.4066 C   0  0  0  0  0  0  0  0  0  0  0  0
   20.9854   14.6384  -11.2802 O   0  0  0  0  0  0  0  0  0  0  0  0
   19.8266   11.1875   -8.9867 C   0  0  0  0  0  0  0  0  0  0  0  0
   19.6470   10.1730   -9.8505 C   0  0  0  0  0  0  0  0  0  0  0  0
   27.5496    6.3607  -16.0353 O   0  0  0  0  0  0  0  0  0  0  0  0
   25.9828    4.9965  -15.3474 O   0  0  0  0  0  0  0  0  0  0  0  0
   22.9052   13.7158  -10.9278 O   0  0  0  0  0  0  0  0  0  0  0  0
  1  2  2  0
  2  3  1  0
  3  4  1  0
  1  5  1  0
  4  6  1  0
  6  7  1  0
  5  8  1  0
  3  9  2  0
  7 10  1  0
 10 11  2  0
 10 12  1  0
  4 13  2  0
  5 14  2  0
  9 14  1  0
 12 15  1  0
 12 16  2  0
 15 17  1  0
 16 18  1  0
 11 19  1  0
 18 19  2  0
  8 20  2  0
  8 21  1  0
 15 22  2  0
M  END
>  <ID>  (1) 
conformer_0

$$$$
