
     RDKit          3D

 15 16  0  0  0  0  0  0  0  0999 V2000
   19.2656   10.6806   -9.6142 C   0  0  0  0  0  0  0  0  0  0  0  0
   20.4042   10.6793   -8.9705 C   0  0  0  0  0  0  0  0  0  0  0  0
   19.6609   10.6623  -11.0216 C   0  0  0  0  0  0  0  0  0  0  0  0
   20.8488   10.7071  -11.5002 C   0  0  0  0  0  0  0  0  0  0  0  0
   21.1201   10.7188  -12.9944 C   0  0  0  0  0  0  0  0  0  0  0  0
   21.6790   10.8393   -9.3015 C   0  0  0  0  0  0  0  0  0  0  0  0
   21.5125    9.8129  -13.6302 C   0  0  0  0  0  0  0  0  0  0  0  0
   21.9345   10.8460  -10.7221 C   0  0  0  0  0  0  0  0  0  0  0  0
   20.9142   12.0050  -13.6448 C   0  0  0  0  0  0  0  0  0  0  0  0
   20.4830   13.2127  -13.0509 N   0  0  0  0  0  0  0  0  0  0  0  0
   21.7052    9.6955  -15.0475 C   0  0  0  0  0  0  0  0  0  0  0  0
   20.1116   10.7970   -7.4730 O   0  0  0  0  0  0  0  0  0  0  0  0
   21.0647   11.9766  -15.0454 N   0  0  0  0  0  0  0  0  0  0  0  0
   21.2398   10.2890   -6.6189 C   0  0  0  0  0  0  0  0  0  0  0  0
   21.5057   10.8683  -15.6634 C   0  0  0  0  0  0  0  0  0  0  0  0
  1  2  1  0
  1  3  2  0
  3  4  1  0
  4  5  1  0
  2  6  2  0
  5  7  2  0
  4  8  2  0
  6  8  1  0
  5  9  1  0
  9 10  1  0
  7 11  1  0
  2 12  1  0
  9 13  2  0
 12 14  1  0
 11 15  2  0
 13 15  1  0
M  END
>  <ID>  (1) 
conformer_0

$$$$
