
     RDKit          3D

 16 17  0  0  0  0  0  0  0  0999 V2000
   19.1829   10.8021  -10.6068 C   0  0  0  0  0  0  0  0  0  0  0  0
   20.3048   11.1080  -11.1466 C   0  0  0  0  0  0  0  0  0  0  0  0
   19.2209   10.8105   -9.2091 N   0  0  0  0  0  0  0  0  0  0  0  0
   21.2004   11.2724  -10.0090 C   0  0  0  0  0  0  0  0  0  0  0  0
   20.5053   11.2917   -8.8757 N   0  0  0  0  0  0  0  0  0  0  0  0
   20.6411   11.1763  -12.5723 C   0  0  0  0  0  0  0  0  0  0  0  0
   20.5006   12.4309  -13.2517 C   0  0  0  0  0  0  0  0  0  0  0  0
   20.7796   12.3520  -14.5647 N   0  0  0  0  0  0  0  0  0  0  0  0
   20.9263   11.3824   -7.5242 C   0  0  0  0  0  0  0  0  0  0  0  0
   20.5598   10.5135   -6.6367 O   0  0  0  0  0  0  0  0  0  0  0  0
   19.8610   13.5360  -12.6446 N   0  0  0  0  0  0  0  0  0  0  0  0
   21.2895   11.0776  -14.6890 N   0  0  0  0  0  0  0  0  0  0  0  0
   21.1901   10.3904  -13.5058 C   0  0  0  0  0  0  0  0  0  0  0  0
   21.6688   12.5338   -7.1193 C   0  0  0  0  0  0  0  0  0  0  0  0
   21.7587   10.3859  -15.9019 C   0  0  0  0  0  0  0  0  0  0  0  0
   21.2553    9.0101  -13.3568 O   0  0  0  0  0  0  0  0  0  0  0  0
  1  2  1  0
  1  3  2  0
  2  4  2  0
  3  5  1  0
  4  5  1  0
  2  6  1  0
  6  7  1  0
  7  8  2  0
  5  9  1  0
  9 10  2  0
  7 11  1  0
  8 12  1  0
  6 13  1  0
 12 13  1  0
  9 14  1  0
 12 15  1  0
 13 16  2  0
M  END
>  <ID>  (1) 
conformer_0

$$$$
