
     RDKit          3D

 21 23  0  0  0  0  0  0  0  0999 V2000
  -22.2584   25.3258   -7.7141 C   0  0  0  0  0  0  0  0  0  0  0  0
  -19.9668   25.9917   -7.9916 N   0  0  0  0  0  0  0  0  0  0  0  0
  -24.7590   24.7673   -2.8254 C   0  0  0  0  0  0  0  0  0  0  0  0
  -18.4516   23.8486   -0.4803 C   0  0  0  0  0  0  0  0  0  0  0  0
  -24.0236   25.4753   -1.8069 C   0  0  0  0  0  0  0  0  0  0  0  0
  -21.2034   25.7122   -8.5633 C   0  0  0  0  0  0  0  0  0  0  0  0
  -24.9336   26.0479   -0.6996 C   0  0  0  0  0  0  0  0  0  0  0  0
  -22.7096   24.9803   -4.0091 N   0  0  0  0  0  0  0  0  0  0  0  0
  -19.5068   23.9359   -1.3703 C   0  0  0  0  0  0  0  0  0  0  0  0
  -21.5183   25.1108   -2.1261 C   0  0  0  0  0  0  0  0  0  0  0  0
  -20.4553   24.8938   -1.2135 C   0  0  0  0  0  0  0  0  0  0  0  0
  -19.7679   25.8799   -6.6306 C   0  0  0  0  0  0  0  0  0  0  0  0
  -22.7226   25.3613   -1.5282 N   0  0  0  0  0  0  0  0  0  0  0  0
  -19.4453   25.6695    0.8072 C   0  0  0  0  0  0  0  0  0  0  0  0
  -20.4582   25.6940   -0.0893 C   0  0  0  0  0  0  0  0  0  0  0  0
  -21.5228   25.1259   -3.5382 C   0  0  0  0  0  0  0  0  0  0  0  0
  -18.4106   24.7563    0.6282 C   0  0  0  0  0  0  0  0  0  0  0  0
  -24.0332   24.7119   -4.0710 C   0  0  0  0  0  0  0  0  0  0  0  0
  -20.5254   25.3872   -4.4092 O   0  0  0  0  0  0  0  0  0  0  0  0
  -22.0183   25.2652   -6.4016 C   0  0  0  0  0  0  0  0  0  0  0  0
  -20.8123   25.4954   -5.7777 C   0  0  0  0  0  0  0  0  0  0  0  0
  1  6  2  0
  1 20  1  0
  2  6  1  0
  2 12  2  0
  3  5  1  0
  3 18  1  0
  4  9  2  0
  4 17  1  0
  5  7  1  0
  5 13  1  0
  8 16  1  0
  8 18  1  0
  9 11  1  0
 10 11  1  0
 10 13  2  0
 10 16  1  0
 11 15  2  0
 12 21  1  0
 14 15  1  0
 14 17  2  0
 16 19  1  0
 19 21  1  0
 20 21  2  0
M  END
>  <ID>  (1) 
conformer_0

$$$$
