
     RDKit          3D

 19 20  0  0  0  0  0  0  0  0999 V2000
  -20.9897   24.7892   -3.8366 C   0  0  0  0  0  0  0  0  0  0  0  0
  -20.8300   25.3275   -5.1152 C   0  0  0  0  0  0  0  0  0  0  0  0
  -19.5712   26.4280   -6.7199 C   0  0  0  0  0  0  0  0  0  0  0  0
  -21.9618   25.6388   -5.8502 C   0  0  0  0  0  0  0  0  0  0  0  0
  -18.3256   27.1374   -7.0249 C   0  0  0  0  0  0  0  0  0  0  0  0
  -24.8728   25.6635   -1.0553 O   0  0  0  0  0  0  0  0  0  0  0  0
  -21.8532   26.1602   -7.1137 C   0  0  0  0  0  0  0  0  0  0  0  0
  -23.1514   25.4244   -5.2504 N   0  0  0  0  0  0  0  0  0  0  0  0
  -21.4589   23.3111   -2.1079 O   0  0  0  0  0  0  0  0  0  0  0  0
  -23.4465   25.7404   -3.9289 C   0  0  0  0  0  0  0  0  0  0  0  0
  -20.6803   26.7343   -7.4212 N   0  0  0  0  0  0  0  0  0  0  0  0
  -21.4046   25.4678   -0.2539 C   0  0  0  0  0  0  0  0  0  0  0  0
  -23.6002   25.3430   -1.4122 C   0  0  0  0  0  0  0  0  0  0  0  0
  -22.7560   24.8551   -0.3081 C   0  0  0  0  0  0  0  0  0  0  0  0
  -24.7222   24.0356   -3.0651 O   0  0  0  0  0  0  0  0  0  0  0  0
  -21.8710   24.2477   -2.8727 C   0  0  0  0  0  0  0  0  0  0  0  0
  -19.6501   25.6249   -5.6404 N   0  0  0  0  0  0  0  0  0  0  0  0
  -20.3480   24.7867    0.4396 F   0  0  0  0  0  0  0  0  0  0  0  0
  -23.3940   24.7050   -2.7857 C   0  0  0  0  0  0  0  0  0  0  0  0
  1  2  1  0
  1 16  1  0
  2  4  1  0
  2 17  2  0
  3  5  1  0
  3 11  2  0
  3 17  1  0
  4  7  1  0
  4  8  1  0
  6 13  1  0
  7 11  1  0
  8 10  1  0
  9 16  2  0
 10 19  1  0
 12 14  1  0
 12 18  1  0
 13 14  1  0
 13 19  1  0
 15 19  1  0
 16 19  1  0
M  END
>  <ID>  (1) 
conformer_0

$$$$
