
     RDKit          3D

 30 35  0  0  0  0  0  0  0  0999 V2000
  -24.8460   23.2903   -4.9039 C   0  0  0  0  0  0  0  0  0  0  0  0
  -21.7330   25.2842   -6.0422 C   0  0  0  0  0  0  0  0  0  0  0  0
  -19.4111   25.8155   -6.1121 C   0  0  0  0  0  0  0  0  0  0  0  0
  -20.5122   26.0219   -8.1894 C   0  0  0  0  0  0  0  0  0  0  0  0
  -20.6459   25.7069   -6.8248 C   0  0  0  0  0  0  0  0  0  0  0  0
  -21.9464   25.3406   -2.2820 C   0  0  0  0  0  0  0  0  0  0  0  0
  -26.7461   23.9147   -3.6141 O   0  0  0  0  0  0  0  0  0  0  0  0
  -19.0967   26.3582   -8.4037 C   0  0  0  0  0  0  0  0  0  0  0  0
  -19.8568   25.3619   -4.5683 O   0  0  0  0  0  0  0  0  0  0  0  0
  -22.2235   25.1849   -3.6768 C   0  0  0  0  0  0  0  0  0  0  0  0
  -20.6709   24.8163   -1.9918 C   0  0  0  0  0  0  0  0  0  0  0  0
  -23.8480   24.2864   -5.2242 C   0  0  0  0  0  0  0  0  0  0  0  0
  -18.9131   23.0610    0.8660 C   0  0  0  0  0  0  0  0  0  0  0  0
  -18.4181   26.2200   -7.1495 C   0  0  0  0  0  0  0  0  0  0  0  0
  -24.1943   25.3302   -1.7265 C   0  0  0  0  0  0  0  0  0  0  0  0
  -25.2346   25.5760   -0.7768 C   0  0  0  0  0  0  0  0  0  0  0  0
  -19.7742   24.7001   -3.0965 C   0  0  0  0  0  0  0  0  0  0  0  0
  -25.3941   23.5984   -3.4298 C   0  0  0  0  0  0  0  0  0  0  0  0
  -16.5171   26.1982   -5.6112 C   0  0  0  0  0  0  0  0  0  0  0  0
  -18.3794   23.5010   -1.6221 C   0  0  0  0  0  0  0  0  0  0  0  0
  -23.4875   24.7851   -3.9306 C   0  0  0  0  0  0  0  0  0  0  0  0
  -20.3756   24.3683   -0.7197 C   0  0  0  0  0  0  0  0  0  0  0  0
  -21.3072   25.2746   -4.7047 C   0  0  0  0  0  0  0  0  0  0  0  0
  -17.0429   26.4333   -6.9801 C   0  0  0  0  0  0  0  0  0  0  0  0
  -18.6479   23.9870   -2.8572 C   0  0  0  0  0  0  0  0  0  0  0  0
  -24.4462   24.6024   -2.9416 C   0  0  0  0  0  0  0  0  0  0  0  0
  -19.2442   23.6636   -0.5478 C   0  0  0  0  0  0  0  0  0  0  0  0
  -23.0091   24.7139   -6.3230 C   0  0  0  0  0  0  0  0  0  0  0  0
  -25.4903   22.7062   -5.7393 O   0  0  0  0  0  0  0  0  0  0  0  0
  -22.9364   25.7375   -1.4111 N   0  0  0  0  0  0  0  0  0  0  0  0
  1 12  1  0
  1 18  1  0
  1 29  2  0
  2  5  1  0
  2 23  1  0
  2 28  2  0
  3  5  1  0
  3 14  1  0
  4  5  1  0
  4  8  1  0
  6 10  1  0
  6 11  1  0
  6 30  1  0
  7 18  1  0
  8 14  1  0
  9 17  1  0
  9 23  1  0
 10 21  2  0
 10 23  1  0
 11 17  2  0
 11 22  1  0
 12 21  1  0
 12 28  1  0
 13 27  1  0
 14 24  2  3
 15 16  1  0
 15 26  1  0
 15 30  2  0
 17 25  1  0
 18 26  1  0
 19 24  1  0
 20 25  2  0
 20 27  1  0
 21 26  1  0
 22 27  2  0
M  END
>  <ID>  (1) 
conformer_0

$$$$
