
     RDKit          3D

 13 14  0  0  0  0  0  0  0  0999 V2000
  -22.2453   25.5127   -3.3362 C   0  0  0  0  0  0  0  0  0  0  0  0
  -22.5093   25.3793   -1.0208 C   0  0  0  0  0  0  0  0  0  0  0  0
  -20.0785   25.3299   -4.2559 O   0  0  0  0  0  0  0  0  0  0  0  0
  -21.3681   25.9090   -5.7287 C   0  0  0  0  0  0  0  0  0  0  0  0
  -23.6198   25.2722   -3.5404 C   0  0  0  0  0  0  0  0  0  0  0  0
  -24.3722   25.0245   -2.4212 C   0  0  0  0  0  0  0  0  0  0  0  0
  -19.8362   25.7211   -5.7714 C   0  0  0  0  0  0  0  0  0  0  0  0
  -24.7835   25.4708   -0.0975 C   0  0  0  0  0  0  0  0  0  0  0  0
  -21.7542   25.5884   -2.1118 N   0  0  0  0  0  0  0  0  0  0  0  0
  -24.1104   25.2415   -4.7008 O   0  0  0  0  0  0  0  0  0  0  0  0
  -21.4229   25.3226   -4.4273 C   0  0  0  0  0  0  0  0  0  0  0  0
  -21.9356   25.2453    0.2583 C   0  0  0  0  0  0  0  0  0  0  0  0
  -23.8905   25.2183   -1.1853 C   0  0  0  0  0  0  0  0  0  0  0  0
  1  5  1  0
  1  9  1  0
  1 11  1  0
  2  9  2  0
  2 12  1  0
  2 13  1  0
  3  7  1  0
  3 11  1  0
  4  7  1  0
  4 11  1  0
  5  6  1  0
  5 10  2  0
  6 13  1  0
  8 13  1  0
M  END
>  <ID>  (1) 
conformer_0

$$$$
