
     RDKit          3D

 40 45  0  0  0  0  0  0  0  0999 V2000
  -19.6768   26.1872   -6.7825 C   0  0  0  0  0  0  0  0  0  0  0  0
  -17.7568   24.6556   -0.4806 O   0  0  0  0  0  0  0  0  0  0  0  0
  -19.0445   25.7140   -5.6768 C   0  0  0  0  0  0  0  0  0  0  0  0
  -23.2995   23.4568   -7.1697 C   0  0  0  0  0  0  0  0  0  0  0  0
  -23.9058   24.8633    0.1223 S   0  0  0  0  0  4  0  0  0  0  0  0
  -21.1021   26.2554   -6.7429 N   0  0  0  0  0  0  0  0  0  0  0  0
  -16.9802   26.3038   -6.6796 C   0  0  0  0  0  0  0  0  0  0  0  0
  -23.4724   24.9365   -1.6379 C   0  0  0  0  0  0  0  0  0  0  0  0
  -21.8273   21.8924    2.0987 C   0  0  0  0  0  0  0  0  0  0  0  0
  -18.9754   26.6979   -7.9100 C   0  0  0  0  0  0  0  0  0  0  0  0
  -21.5509   26.4249   -8.2521 C   0  0  0  0  0  0  0  0  0  0  0  0
  -19.0627   22.4746    1.1283 O   0  0  0  0  0  0  0  0  0  0  0  0
  -17.0608   25.3328   -4.3710 C   0  0  0  0  0  0  0  0  0  0  0  0
  -17.7645   24.7397   -3.5045 O   0  0  0  0  0  0  0  0  0  0  0  0
  -22.4833   25.2546   -4.3721 C   0  0  0  0  0  0  0  0  0  0  0  0
  -22.1108   24.8577   -1.8971 C   0  0  0  0  0  0  0  0  0  0  0  0
  -21.6541   25.0997   -3.1891 C   0  0  0  0  0  0  0  0  0  0  0  0
  -23.4469   23.5234    0.9020 O   0  0  0  0  0  0  0  0  0  0  0  0
  -17.6917   25.7845   -5.5838 C   0  0  0  0  0  0  0  0  0  0  0  0
  -17.5940   26.7614   -7.8050 C   0  0  0  0  0  0  0  0  0  0  0  0
  -22.4683   25.3312   -8.4019 C   0  0  0  0  0  0  0  0  0  0  0  0
  -21.2472   24.5033   -0.7754 C   0  0  0  0  0  0  0  0  0  0  0  0
  -22.2129   22.8015    0.9828 C   0  0  0  0  0  0  0  0  0  0  0  0
  -23.8551   22.9726   -8.3416 C   0  0  0  0  0  0  0  0  0  0  0  0
  -24.3209   25.0912   -2.7402 C   0  0  0  0  0  0  0  0  0  0  0  0
  -23.7481   23.7082   -9.5577 C   0  0  0  0  0  0  0  0  0  0  0  0
  -15.8973   25.6303   -4.1215 O   0  0  0  0  0  0  0  0  0  0  0  0
  -22.6373   21.9980    3.2536 O   0  0  0  0  0  0  0  0  0  0  0  0
  -19.0160   24.2570   -0.4769 C   0  0  0  0  0  0  0  0  0  0  0  0
  -19.9452   25.0470   -1.0531 O   0  0  0  0  0  0  0  0  0  0  0  0
  -25.3523   24.9633    0.0884 O   0  0  0  0  0  0  0  0  0  0  0  0
  -23.8465   25.2526   -4.0651 C   0  0  0  0  0  0  0  0  0  0  0  0
  -21.1131   23.4874    0.2400 C   0  0  0  0  0  0  0  0  0  0  0  0
  -24.0205   22.4092    3.2333 C   0  0  0  0  0  0  0  0  0  0  0  0
  -22.6731   24.6826   -7.1184 C   0  0  0  0  0  0  0  0  0  0  0  0
  -22.1147   25.3685   -5.9295 C   0  0  0  0  0  0  0  0  0  0  0  0
  -23.0298   24.9024   -9.6001 C   0  0  0  0  0  0  0  0  0  0  0  0
  -19.6942   23.4054    0.5205 C   0  0  0  0  0  0  0  0  0  0  0  0
  -24.3789   23.2553  -10.6189 O   0  0  0  0  0  0  0  0  0  0  0  0
  -23.2167   25.9163    0.8777 O   0  0  0  0  0  0  0  0  0  0  0  0
  1  3  2  0
  1  6  1  0
  1 10  1  0
  2 29  2  0
  3 19  1  0
  4 24  1  0
  4 35  2  0
  5  8  1  0
  5 18  1  0
  5 31  1  0
  5 40  1  0
  6 11  1  0
  6 36  1  0
  7 19  2  0
  7 20  1  0
  8 16  2  0
  8 25  1  0
  9 23  1  0
  9 28  1  0
 10 20  2  0
 11 21  1  0
 12 38  2  0
 13 14  2  0
 13 19  1  0
 13 27  1  0
 15 17  2  0
 15 32  1  0
 15 36  1  0
 16 17  1  0
 16 22  1  0
 18 23  1  0
 21 35  1  0
 21 37  1  0
 22 30  1  0
 22 33  1  0
 23 33  1  0
 24 26  1  0
 25 32  2  0
 26 37  2  0
 26 39  1  0
 28 34  1  0
 29 30  1  0
 29 38  1  0
 33 38  1  0
 35 36  1  0
M  END
>  <ID>  (1) 
conformer_0

$$$$
