
     RDKit          3D

 12 13  0  0  0  0  0  0  0  0999 V2000
  -24.9120   24.8696   -2.9830 N   0  0  0  0  0  0  0  0  0  0  0  0
  -24.6668   25.7047   -0.3827 C   0  0  0  0  0  0  0  0  0  0  0  0
  -21.4372   25.4147   -2.8595 N   0  0  0  0  0  0  0  0  0  0  0  0
  -20.8148   25.6916   -5.1806 N   0  0  0  0  0  0  0  0  0  0  0  0
  -20.6754   25.4687   -3.9195 C   0  0  0  0  0  0  0  0  0  0  0  0
  -22.0507   25.7405   -5.6873 C   0  0  0  0  0  0  0  0  0  0  0  0
  -23.7231   25.1988   -2.5710 C   0  0  0  0  0  0  0  0  0  0  0  0
  -22.2869   25.3030   -0.7010 C   0  0  0  0  0  0  0  0  0  0  0  0
  -22.9804   25.5391   -4.7920 C   0  0  0  0  0  0  0  0  0  0  0  0
  -23.5218   25.4038   -1.2176 C   0  0  0  0  0  0  0  0  0  0  0  0
  -21.2435   25.2701   -1.5471 C   0  0  0  0  0  0  0  0  0  0  0  0
  -22.5687   25.3744   -3.4818 C   0  0  0  0  0  0  0  0  0  0  0  0
  1  7  2  0
  2 10  1  0
  3  5  1  0
  3 11  1  0
  3 12  1  0
  4  5  2  0
  4  6  1  0
  6  9  1  0
  7 10  1  0
  7 12  1  0
  8 10  1  0
  8 11  2  0
  9 12  2  0
M  END
>  <ID>  (1) 
conformer_0

$$$$
