
     RDKit          3D

 21 24  0  0  0  0  0  0  0  0999 V2000
  -23.0205   25.0437   -2.4509 C   0  0  0  0  0  0  0  0  0  0  0  0
  -25.0643   22.5484   -5.4421 O   0  0  0  0  0  0  0  0  0  0  0  0
  -24.1280   25.1346   -0.2259 C   0  0  0  0  0  0  0  0  0  0  0  0
  -21.5705   25.5802   -5.9476 N   0  0  0  0  0  0  0  0  0  0  0  0
  -21.8130   24.9052   -1.7606 C   0  0  0  0  0  0  0  0  0  0  0  0
  -20.3488   25.8782   -6.4606 C   0  0  0  0  0  0  0  0  0  0  0  0
  -24.0032   24.6057   -4.9503 C   0  0  0  0  0  0  0  0  0  0  0  0
  -20.6100   24.8536   -2.4785 C   0  0  0  0  0  0  0  0  0  0  0  0
  -23.0321   24.9911   -3.9439 C   0  0  0  0  0  0  0  0  0  0  0  0
  -25.2582   23.8111   -5.0138 C   0  0  0  0  0  0  0  0  0  0  0  0
  -22.7076   25.6854   -6.7724 C   0  0  0  0  0  0  0  0  0  0  0  0
  -19.2515   25.5130   -5.7367 C   0  0  0  0  0  0  0  0  0  0  0  0
  -21.7560   24.8069   -0.3437 C   0  0  0  0  0  0  0  0  0  0  0  0
  -23.7253   24.9085   -6.2526 N   0  0  0  0  0  0  0  0  0  0  0  0
  -22.9026   24.9390    0.3920 C   0  0  0  0  0  0  0  0  0  0  0  0
  -18.3649   24.7337   -3.6814 N   0  0  0  0  0  0  0  0  0  0  0  0
  -24.1715   25.1997   -1.6270 C   0  0  0  0  0  0  0  0  0  0  0  0
  -21.7604   25.2410   -4.6106 C   0  0  0  0  0  0  0  0  0  0  0  0
  -20.6043   25.0215   -3.8554 C   0  0  0  0  0  0  0  0  0  0  0  0
  -19.3759   24.9898   -4.4691 C   0  0  0  0  0  0  0  0  0  0  0  0
  -25.3762   25.4002   -2.1631 O   0  0  0  0  0  0  0  0  0  0  0  0
  1  5  1  0
  1  9  1  0
  1 17  2  0
  2 10  1  0
  3 15  2  0
  3 17  1  0
  4  6  1  0
  4 11  1  0
  4 18  1  0
  5  8  1  0
  5 13  2  0
  6 12  2  0
  7  9  1  0
  7 10  1  0
  7 14  2  0
  8 19  2  0
  9 18  1  0
 11 14  1  0
 12 20  1  0
 13 15  1  0
 16 20  2  0
 17 21  1  0
 18 19  1  0
 19 20  1  0
M  END
>  <ID>  (1) 
conformer_0

$$$$
