
     RDKit          3D

 35 39  0  0  0  0  0  0  0  0999 V2000
  -19.7487   25.0284   -4.7877 C   0  0  0  0  0  0  0  0  0  0  0  0
  -20.8113   23.8765    1.0202 C   0  0  0  0  0  0  0  0  0  0  0  0
  -19.0838   26.3321   -8.6115 C   0  0  0  0  0  0  0  0  0  0  0  0
  -23.5737   23.3676   -9.1711 O   0  0  0  0  0  0  0  0  0  0  0  0
  -22.5800   24.4153   -0.4690 C   0  0  0  0  0  0  0  0  0  0  0  0
  -23.1171   23.3580    1.9356 C   0  0  0  0  0  0  0  0  0  0  0  0
  -24.3649   26.0756   -1.3841 F   0  0  0  0  0  0  0  0  0  0  0  0
  -24.0569   24.5057   -5.5897 C   0  0  0  0  0  0  0  0  0  0  0  0
  -22.8166   21.6191    3.4636 C   0  0  0  0  0  0  0  0  0  0  0  0
  -22.0169   25.3756   -6.8177 C   0  0  0  0  0  0  0  0  0  0  0  0
  -21.1131   24.9680   -4.3119 C   0  0  0  0  0  0  0  0  0  0  0  0
  -17.9793   25.9248   -6.0987 C   0  0  0  0  0  0  0  0  0  0  0  0
  -19.9289   24.1320    0.0593 C   0  0  0  0  0  0  0  0  0  0  0  0
  -21.8852   25.0390   -5.5025 O   0  0  0  0  0  0  0  0  0  0  0  0
  -21.1658   25.3601   -7.9285 C   0  0  0  0  0  0  0  0  0  0  0  0
  -23.6900   25.5963   -9.4645 O   0  0  0  0  0  0  0  0  0  0  0  0
  -22.1956   24.8928   -1.7085 C   0  0  0  0  0  0  0  0  0  0  0  0
  -23.2244   25.8500   -2.1543 C   0  0  0  0  0  0  0  0  0  0  0  0
  -24.7147   23.8785   -3.3926 O   0  0  0  0  0  0  0  0  0  0  0  0
  -24.1733   21.9695    3.6630 O   0  0  0  0  0  0  0  0  0  0  0  0
  -19.8440   24.5392   -2.4596 C   0  0  0  0  0  0  0  0  0  0  0  0
  -19.0222   24.6360   -3.6011 N   0  0  0  0  0  0  0  0  0  0  0  0
  -23.8784   24.5893   -4.1597 C   0  0  0  0  0  0  0  0  0  0  0  0
  -23.0378   24.5375   -9.2200 C   0  0  0  0  0  0  0  0  0  0  0  0
  -17.7733   26.7324   -8.3882 C   0  0  0  0  0  0  0  0  0  0  0  0
  -17.2679   26.5067   -7.0973 C   0  0  0  0  0  0  0  0  0  0  0  0
  -19.8223   25.7286   -7.6044 C   0  0  0  0  0  0  0  0  0  0  0  0
  -23.4539   25.8810   -3.5404 C   0  0  0  0  0  0  0  0  0  0  0  0
  -19.4726   24.2976   -1.1497 C   0  0  0  0  0  0  0  0  0  0  0  0
  -22.2153   22.7204    2.8911 O   0  0  0  0  0  0  0  0  0  0  0  0
  -21.2010   24.7947   -2.8078 C   0  0  0  0  0  0  0  0  0  0  0  0
  -19.3120   25.5246   -6.2086 C   0  0  0  0  0  0  0  0  0  0  0  0
  -24.4243   22.9607    2.5475 C   0  0  0  0  0  0  0  0  0  0  0  0
  -22.2806   23.9345    0.8199 C   0  0  0  0  0  0  0  0  0  0  0  0
  -21.6395   24.6626   -8.9788 N   0  0  0  0  0  0  0  0  0  0  0  0
  1 11  1  0
  1 22  1  0
  1 32  1  0
  2 13  2  0
  2 34  1  0
  3 25  1  0
  3 27  2  0
  4 24  2  0
  5 17  1  0
  5 34  2  0
  6 30  1  0
  6 33  1  0
  6 34  1  0
  7 18  1  0
  8 23  1  0
  9 20  1  0
  9 30  1  0
 10 14  1  0
 10 15  1  0
 11 14  1  0
 11 31  1  0
 12 26  2  0
 12 32  1  0
 13 29  2  0
 15 27  1  0
 15 35  1  0
 16 24  1  0
 17 18  1  0
 17 31  1  0
 18 28  1  0
 19 23  1  0
 20 33  1  0
 21 22  1  0
 21 29  1  0
 21 31  2  0
 23 28  1  0
 24 35  1  0
 25 26  1  0
 27 32  1  0
M  END
>  <ID>  (1) 
conformer_0

$$$$
