
     RDKit          3D

 22 24  0  0  0  0  0  0  0  0999 V2000
  -19.6268   24.7104    1.2749 C   0  0  0  0  0  0  0  0  0  0  0  0
  -21.7207   25.2138   -4.9301 C   0  0  0  0  0  0  0  0  0  0  0  0
  -20.9349   24.7860    0.8809 C   0  0  0  0  0  0  0  0  0  0  0  0
  -23.7768   24.6315   -6.0359 N   0  0  0  0  0  0  0  0  0  0  0  0
  -21.6442   24.8792   -2.6266 C   0  0  0  0  0  0  0  0  0  0  0  0
  -24.3012   25.1097   -2.0950 C   0  0  0  0  0  0  0  0  0  0  0  0
  -22.0279   24.9370   -1.3431 C   0  0  0  0  0  0  0  0  0  0  0  0
  -24.5322   24.5661   -4.8262 C   0  0  0  0  0  0  0  0  0  0  0  0
  -23.7737   25.2046    0.3161 O   0  0  0  0  0  0  0  0  0  0  0  0
  -22.4519   24.9857   -3.6893 C   0  0  0  0  0  0  0  0  0  0  0  0
  -18.8380   24.7810    0.0483 C   0  0  0  0  0  0  0  0  0  0  0  0
  -20.9897   24.8625   -0.4556 N   0  0  0  0  0  0  0  0  0  0  0  0
  -20.3899   25.5508   -7.4927 O   0  0  0  0  0  0  0  0  0  0  0  0
  -25.7614   24.2115   -4.8977 O   0  0  0  0  0  0  0  0  0  0  0  0
  -23.3855   25.0890   -1.0348 C   0  0  0  0  0  0  0  0  0  0  0  0
  -19.6861   24.8546   -0.9622 C   0  0  0  0  0  0  0  0  0  0  0  0
  -25.6179   25.3235   -1.8584 O   0  0  0  0  0  0  0  0  0  0  0  0
  -22.4547   26.3055   -8.0682 O   0  0  0  0  0  0  0  0  0  0  0  0
  -20.5674   25.8127   -4.7875 O   0  0  0  0  0  0  0  0  0  0  0  0
  -23.8797   24.8946   -3.5041 C   0  0  0  0  0  0  0  0  0  0  0  0
  -22.3702   25.0219   -6.1630 C   0  0  0  0  0  0  0  0  0  0  0  0
  -21.7003   25.6248   -7.3106 C   0  0  0  0  0  0  0  0  0  0  0  0
  1  3  1  0
  1 11  1  0
  2 10  1  0
  2 19  1  0
  2 21  2  0
  3 12  1  0
  4  8  1  0
  4 21  1  0
  5  7  1  0
  5 10  2  0
  6 15  1  0
  6 17  1  0
  6 20  1  0
  7 12  1  0
  7 15  2  0
  8 14  2  0
  8 20  1  0
  9 15  1  0
 10 20  1  0
 11 16  1  0
 12 16  1  0
 13 22  2  0
 18 22  1  0
 21 22  1  0
M  END
>  <ID>  (1) 
conformer_0

$$$$
