
     RDKit          3D

 18 20  0  0  0  0  0  0  0  0999 V2000
  -20.9899   23.2494   -2.4114 O   0  0  0  0  0  0  0  0  0  0  0  0
  -23.2897   25.5694   -1.3364 C   0  0  0  0  0  0  0  0  0  0  0  0
  -20.8314   24.9500   -3.9291 C   0  0  0  0  0  0  0  0  0  0  0  0
  -22.3138   25.2547   -0.2505 C   0  0  0  0  0  0  0  0  0  0  0  0
  -21.3714   24.5746   -2.5165 C   0  0  0  0  0  0  0  0  0  0  0  0
  -21.5327   26.3093   -7.2281 C   0  0  0  0  0  0  0  0  0  0  0  0
  -20.8253   25.6422   -6.1172 C   0  0  0  0  0  0  0  0  0  0  0  0
  -19.5614   25.0330   -4.3818 N   0  0  0  0  0  0  0  0  0  0  0  0
  -24.6457   25.5207   -1.1271 O   0  0  0  0  0  0  0  0  0  0  0  0
  -25.5069   24.3432   -5.1765 O   0  0  0  0  0  0  0  0  0  0  0  0
  -23.0690   25.4148   -4.9981 C   0  0  0  0  0  0  0  0  0  0  0  0
  -21.6237   25.5263   -4.9370 C   0  0  0  0  0  0  0  0  0  0  0  0
  -19.5186   25.5853   -5.6449 C   0  0  0  0  0  0  0  0  0  0  0  0
  -22.8499   24.7999   -2.5256 C   0  0  0  0  0  0  0  0  0  0  0  0
  -23.6678   24.8479   -3.7449 C   0  0  0  0  0  0  0  0  0  0  0  0
  -24.9304   24.1157   -4.0791 C   0  0  0  0  0  0  0  0  0  0  0  0
  -20.9830   25.1100   -1.0284 C   0  0  0  0  0  0  0  0  0  0  0  0
  -25.3585   23.2956   -3.2546 O   0  0  0  0  0  0  0  0  0  0  0  0
  1  5  1  0
  2  4  1  0
  2  9  1  0
  2 14  1  0
  3  5  1  0
  3  8  1  0
  3 12  1  0
  4 17  1  0
  5 14  1  0
  5 17  1  0
  6  7  1  0
  7 12  1  0
  7 13  1  0
  8 13  1  0
 10 16  2  0
 11 12  1  0
 11 15  1  0
 14 15  1  0
 15 16  1  0
 16 18  1  0
M  END
>  <ID>  (1) 
conformer_0

$$$$
