
     RDKit          3D

 25 27  0  0  0  0  0  0  0  0999 V2000
  -22.8105   25.0771   -4.5034 C   0  0  0  0  0  0  0  0  0  0  0  0
  -22.6324   25.1180   -7.3682 O   0  0  0  0  0  0  0  0  0  0  0  0
  -22.4892   25.1321   -3.1370 C   0  0  0  0  0  0  0  0  0  0  0  0
  -19.2073   25.4954   -5.3362 C   0  0  0  0  0  0  0  0  0  0  0  0
  -21.5364   25.3604   -6.6332 C   0  0  0  0  0  0  0  0  0  0  0  0
  -21.8909   25.7831   -2.1011 C   0  0  0  0  0  0  0  0  0  0  0  0
  -22.4938   25.1768   -0.9390 C   0  0  0  0  0  0  0  0  0  0  0  0
  -19.6351   24.9581   -0.9614 O   0  0  0  0  0  0  0  0  0  0  0  0
  -18.0063   26.2898   -7.3943 C   0  0  0  0  0  0  0  0  0  0  0  0
  -19.6997   25.5712    1.1295 O   0  0  0  0  0  0  0  0  0  0  0  0
  -24.7003   24.3885   -3.3290 N   0  0  0  0  0  0  0  0  0  0  0  0
  -19.1956   25.8240   -6.6725 C   0  0  0  0  0  0  0  0  0  0  0  0
  -21.7257   24.9514    0.1888 C   0  0  0  0  0  0  0  0  0  0  0  0
  -20.3939   25.7037   -7.3569 C   0  0  0  0  0  0  0  0  0  0  0  0
  -23.7729   24.3971    1.3790 C   0  0  0  0  0  0  0  0  0  0  0  0
  -22.3997   24.5875    1.3464 C   0  0  0  0  0  0  0  0  0  0  0  0
  -18.0213   25.3773   -4.6602 O   0  0  0  0  0  0  0  0  0  0  0  0
  -20.3325   25.2606   -4.6313 C   0  0  0  0  0  0  0  0  0  0  0  0
  -21.5567   25.2268   -5.2642 C   0  0  0  0  0  0  0  0  0  0  0  0
  -24.1402   24.5421   -4.5954 C   0  0  0  0  0  0  0  0  0  0  0  0
  -24.7422   24.9375   -2.1014 C   0  0  0  0  0  0  0  0  0  0  0  0
  -24.5258   24.5340    0.2298 C   0  0  0  0  0  0  0  0  0  0  0  0
  -23.8917   24.8837   -0.9518 C   0  0  0  0  0  0  0  0  0  0  0  0
  -20.3060   25.1699    0.0893 C   0  0  0  0  0  0  0  0  0  0  0  0
  -24.7380   24.1580   -5.5455 O   0  0  0  0  0  0  0  0  0  0  0  0
  1  3  1  0
  1 19  1  0
  1 20  1  0
  2  5  1  0
  3  6  1  0
  4 12  2  0
  4 17  1  0
  4 18  1  0
  5 14  2  0
  5 19  1  0
  6  7  1  0
  7 13  2  0
  7 23  1  0
  8 24  2  0
  9 12  1  0
 10 24  1  0
 11 20  1  0
 11 21  1  0
 12 14  1  0
 13 16  1  0
 13 24  1  0
 15 16  1  0
 15 22  2  0
 18 19  2  0
 20 25  2  0
 21 23  1  0
 22 23  1  0
M  END
>  <ID>  (1) 
conformer_0

$$$$
