
     RDKit          3D

  6  5  0  0  0  0  0  0  0  0999 V2000
  -21.8691   25.4304   -4.7151 C   0  0  0  0  0  0  0  0  0  0  0  0
  -23.1901   26.2643   -1.4207 O   0  0  0  0  0  0  0  0  0  0  0  0
  -20.6314   25.9503   -5.4518 C   0  0  0  0  0  0  0  0  0  0  0  0
  -24.1193   25.2712   -3.1681 O   0  0  0  0  0  0  0  0  0  0  0  0
  -21.8153   25.7512   -3.2736 C   0  0  0  0  0  0  0  0  0  0  0  0
  -23.1192   25.7322   -2.5855 C   0  0  0  0  0  0  0  0  0  0  0  0
  1  3  1  0
  1  5  1  0
  2  6  2  0
  4  6  1  0
  5  6  1  0
M  END
>  <ID>  (1) 
conformer_0

$$$$
