
     RDKit          3D

 23 26  0  0  0  0  0  0  0  0999 V2000
  -21.5309   24.5613   -0.2497 C   0  0  0  0  0  0  0  0  0  0  0  0
  -19.9203   24.4146   -2.8674 O   0  0  0  0  0  0  0  0  0  0  0  0
  -22.7783   25.1167   -6.3739 C   0  0  0  0  0  0  0  0  0  0  0  0
  -21.9769   25.4222   -1.3313 C   0  0  0  0  0  0  0  0  0  0  0  0
  -21.7517   25.3453   -7.3152 C   0  0  0  0  0  0  0  0  0  0  0  0
  -20.2426   24.3679    0.0235 O   0  0  0  0  0  0  0  0  0  0  0  0
  -23.3893   24.9909   -3.6647 C   0  0  0  0  0  0  0  0  0  0  0  0
  -22.0214   25.4477   -8.7392 N   0  0  0  0  0  0  0  0  0  0  0  0
  -24.2827   25.2829   -2.3341 N   0  0  0  0  0  0  0  0  0  0  0  0
  -24.5916   24.4834   -4.3937 O   0  0  0  0  0  0  0  0  0  0  0  0
  -20.9249   24.8551   -3.3267 C   0  0  0  0  0  0  0  0  0  0  0  0
  -22.4462   25.0913   -5.0181 C   0  0  0  0  0  0  0  0  0  0  0  0
  -23.3952   25.2989   -1.3093 C   0  0  0  0  0  0  0  0  0  0  0  0
  -21.4153   26.7188   -1.2831 F   0  0  0  0  0  0  0  0  0  0  0  0
  -22.5614   24.4648    0.6873 C   0  0  0  0  0  0  0  0  0  0  0  0
  -21.1198   25.1557   -4.6721 C   0  0  0  0  0  0  0  0  0  0  0  0
  -23.8131   24.8819    0.0110 C   0  0  0  0  0  0  0  0  0  0  0  0
  -24.9847   25.0906    0.2770 O   0  0  0  0  0  0  0  0  0  0  0  0
  -20.4542   25.5163   -6.9169 N   0  0  0  0  0  0  0  0  0  0  0  0
  -22.1662   24.9724   -2.6060 N   0  0  0  0  0  0  0  0  0  0  0  0
  -24.2211   23.5968    2.2172 O   0  0  0  0  0  0  0  0  0  0  0  0
  -22.8993   23.5072    1.7205 C   0  0  0  0  0  0  0  0  0  0  0  0
  -20.1745   25.4601   -5.5822 C   0  0  0  0  0  0  0  0  0  0  0  0
  1  4  1  0
  1  6  1  0
  1 15  1  0
  2 11  2  0
  3  5  1  0
  3 12  2  0
  4 13  1  0
  4 14  1  0
  4 20  1  0
  5  8  2  0
  5 19  1  0
  7  9  1  0
  7 10  1  0
  7 12  1  0
  7 20  1  0
  9 13  1  0
 11 16  1  0
 11 20  1  0
 12 16  1  0
 13 17  1  0
 15 17  1  0
 15 22  1  0
 16 23  2  0
 17 18  2  0
 19 23  1  0
 21 22  1  0
M  END
>  <ID>  (1) 
conformer_0

$$$$
