
     RDKit          3D

 29 32  0  0  0  0  0  0  0  0999 V2000
  -22.9007   24.7158   -6.2444 C   0  0  0  0  0  0  0  0  0  0  0  0
  -22.4907   24.9876   -2.6735 C   0  0  0  0  0  0  0  0  0  0  0  0
  -23.9700   24.8368   -0.7411 C   0  0  0  0  0  0  0  0  0  0  0  0
  -18.4397   25.2188   -5.4694 C   0  0  0  0  0  0  0  0  0  0  0  0
  -19.3720   25.8716   -6.2924 C   0  0  0  0  0  0  0  0  0  0  0  0
  -16.2713   25.9158   -5.8072 C   0  0  0  0  0  0  0  0  0  0  0  0
  -23.0742   24.5144   -4.8572 C   0  0  0  0  0  0  0  0  0  0  0  0
  -20.5132   24.4292   -0.0574 C   0  0  0  0  0  0  0  0  0  0  0  0
  -23.3851   24.2254    1.5253 C   0  0  0  0  0  0  0  0  0  0  0  0
  -22.1255   24.9090   -3.9318 C   0  0  0  0  0  0  0  0  0  0  0  0
  -20.6706   25.5094   -5.7474 N   0  0  0  0  0  0  0  0  0  0  0  0
  -23.6625   24.5767   -2.1801 C   0  0  0  0  0  0  0  0  0  0  0  0
  -24.2219   23.9035   -4.3533 N   0  0  0  0  0  0  0  0  0  0  0  0
  -21.8897   26.1033   -7.8523 S   0  0  0  0  0  0  0  0  0  0  0  0
  -21.7308   25.4300   -6.5942 C   0  0  0  0  0  0  0  0  0  0  0  0
  -21.2224   23.0235    1.9229 C   0  0  0  0  0  0  0  0  0  0  0  0
  -22.7820   22.9632    2.1079 C   0  0  0  0  0  0  0  0  0  0  0  0
  -22.9062   24.4784    0.1347 C   0  0  0  0  0  0  0  0  0  0  0  0
  -19.9382   25.2131   -3.4379 O   0  0  0  0  0  0  0  0  0  0  0  0
  -19.4395   26.7739   -7.4176 C   0  0  0  0  0  0  0  0  0  0  0  0
  -17.1687   26.7630   -8.1955 C   0  0  0  0  0  0  0  0  0  0  0  0
  -18.5893   26.6735   -8.5852 C   0  0  0  0  0  0  0  0  0  0  0  0
  -20.7290   24.4665    1.5116 C   0  0  0  0  0  0  0  0  0  0  0  0
  -20.7627   25.2310   -4.3635 C   0  0  0  0  0  0  0  0  0  0  0  0
  -16.8418   26.6331   -6.8601 C   0  0  0  0  0  0  0  0  0  0  0  0
  -24.9367   25.6710   -0.4897 O   0  0  0  0  0  0  0  0  0  0  0  0
  -24.5406   23.9753   -3.0219 N   0  0  0  0  0  0  0  0  0  0  0  0
  -21.7758   23.7569   -0.4655 C   0  0  0  0  0  0  0  0  0  0  0  0
  -17.2407   25.2810   -4.8708 C   0  0  0  0  0  0  0  0  0  0  0  0
  1  7  1  0
  1 15  1  0
  2 10  2  0
  2 12  1  0
  3 12  1  0
  3 18  1  0
  3 26  1  0
  4  5  1  0
  4 29  1  0
  5 11  1  0
  5 20  1  0
  6 25  1  0
  6 29  1  0
  7 10  1  0
  7 13  1  0
  8 23  1  0
  8 28  1  0
  9 17  1  0
  9 18  1  0
 10 24  1  0
 11 15  1  0
 11 24  1  0
 12 27  2  0
 13 27  1  0
 14 15  2  0
 16 17  1  0
 16 23  1  0
 18 28  1  0
 19 24  2  0
 20 22  1  0
 21 22  1  0
 21 25  1  0
M  END
>  <ID>  (1) 
conformer_0

$$$$
