
     RDKit          3D

 27 29  0  0  0  0  0  0  0  0999 V2000
  -21.2658   24.3717   -1.2161 C   0  0  0  0  0  0  0  0  0  0  0  0
  -22.1351   26.1985   -8.6988 O   0  0  0  0  0  0  0  0  0  0  0  0
  -22.6438   25.1402   -6.5234 C   0  0  0  0  0  0  0  0  0  0  0  0
  -21.6960   25.5677   -0.4386 C   0  0  0  0  0  0  0  0  0  0  0  0
  -20.1299   25.7836   -5.6795 C   0  0  0  0  0  0  0  0  0  0  0  0
  -21.8147   25.8478   -7.4518 C   0  0  0  0  0  0  0  0  0  0  0  0
  -20.5598   26.3487   -6.9647 C   0  0  0  0  0  0  0  0  0  0  0  0
  -22.9841   25.1478    0.1266 C   0  0  0  0  0  0  0  0  0  0  0  0
  -19.7157   27.1078   -7.8724 C   0  0  0  0  0  0  0  0  0  0  0  0
  -21.9402   24.3068   -2.4739 C   0  0  0  0  0  0  0  0  0  0  0  0
  -25.6132   23.8008   -5.0871 O   0  0  0  0  0  0  0  0  0  0  0  0
  -24.4040   24.7397   -3.3722 C   0  0  0  0  0  0  0  0  0  0  0  0
  -23.5096   24.7721   -5.6042 N   0  0  0  0  0  0  0  0  0  0  0  0
  -20.8528   26.1661    0.4264 O   0  0  0  0  0  0  0  0  0  0  0  0
  -21.1170   26.5661   -3.6798 O   0  0  0  0  0  0  0  0  0  0  0  0
  -22.2500   22.1731   -0.6798 C   0  0  0  0  0  0  0  0  0  0  0  0
  -23.3620   24.7223   -2.3852 C   0  0  0  0  0  0  0  0  0  0  0  0
  -23.8474   24.7520   -1.0229 C   0  0  0  0  0  0  0  0  0  0  0  0
  -22.4628   25.3676   -5.2076 C   0  0  0  0  0  0  0  0  0  0  0  0
  -22.7727   24.2442    1.1893 O   0  0  0  0  0  0  0  0  0  0  0  0
  -19.9415   22.5813   -0.5493 O   0  0  0  0  0  0  0  0  0  0  0  0
  -20.5782   24.3576   -2.3166 C   0  0  0  0  0  0  0  0  0  0  0  0
  -21.4944   23.5549    1.1339 C   0  0  0  0  0  0  0  0  0  0  0  0
  -21.2186   25.7546   -4.7078 C   0  0  0  0  0  0  0  0  0  0  0  0
  -24.5211   24.3475   -4.7298 C   0  0  0  0  0  0  0  0  0  0  0  0
  -21.2229   23.1703   -0.3312 C   0  0  0  0  0  0  0  0  0  0  0  0
  -25.0758   25.3144   -0.8558 O   0  0  0  0  0  0  0  0  0  0  0  0
  1  4  1  0
  1 22  1  0
  1 26  1  0
  2  6  1  0
  3  6  1  0
  3 19  1  0
  4  8  1  0
  4 14  1  0
  5  7  1  0
  5 24  1  0
  6  7  2  0
  7  9  1  0
  8 18  1  0
  8 20  1  0
 10 17  1  0
 10 22  1  0
 11 25  2  0
 12 17  1  0
 12 25  1  0
 13 19  1  0
 13 25  1  0
 15 24  1  0
 16 26  1  0
 17 18  1  0
 18 27  1  0
 19 24  1  0
 20 23  1  0
 21 26  1  0
 23 26  1  0
M  END
>  <ID>  (1) 
conformer_0

$$$$
