
     RDKit          3D

 32 37  0  0  0  0  0  0  0  0999 V2000
  -18.4666   24.2258    0.0835 C   0  0  0  0  0  0  0  0  0  0  0  0
  -24.4063   23.6088   -4.8644 C   0  0  0  0  0  0  0  0  0  0  0  0
  -18.6232   26.6726   -8.3553 C   0  0  0  0  0  0  0  0  0  0  0  0
  -26.7013   22.9912   -4.9379 O   0  0  0  0  0  0  0  0  0  0  0  0
  -24.1434   25.0374    0.3018 C   0  0  0  0  0  0  0  0  0  0  0  0
  -24.5960   24.4666   -3.6923 C   0  0  0  0  0  0  0  0  0  0  0  0
  -21.8802   24.9547   -1.1533 C   0  0  0  0  0  0  0  0  0  0  0  0
  -21.9796   25.5613   -6.4112 C   0  0  0  0  0  0  0  0  0  0  0  0
  -17.4131   26.5359   -7.6910 C   0  0  0  0  0  0  0  0  0  0  0  0
  -19.7381   24.7223   -0.5397 N   0  0  0  0  0  0  0  0  0  0  0  0
  -22.1746   26.0097   -7.6543 N   0  0  0  0  0  0  0  0  0  0  0  0
  -20.6012   24.9094   -1.6901 N   0  0  0  0  0  0  0  0  0  0  0  0
  -25.2595   22.0038   -6.3671 O   0  0  0  0  0  0  0  0  0  0  0  0
  -20.7651   25.4562   -5.9256 C   0  0  0  0  0  0  0  0  0  0  0  0
  -22.3841   24.8686   -4.2112 C   0  0  0  0  0  0  0  0  0  0  0  0
  -25.7360   24.8082   -3.2534 O   0  0  0  0  0  0  0  0  0  0  0  0
  -21.0042   26.3673   -8.2934 N   0  0  0  0  0  0  0  0  0  0  0  0
  -18.4681   25.5613   -5.7529 C   0  0  0  0  0  0  0  0  0  0  0  0
  -24.2682   25.1330   -1.0181 N   0  0  0  0  0  0  0  0  0  0  0  0
  -23.9865   24.4347   -5.9733 N   0  0  0  0  0  0  0  0  0  0  0  0
  -19.7770   26.2335   -7.6814 C   0  0  0  0  0  0  0  0  0  0  0  0
  -20.5653   24.7841    0.6883 C   0  0  0  0  0  0  0  0  0  0  0  0
  -23.1477   25.0538   -1.7997 C   0  0  0  0  0  0  0  0  0  0  0  0
  -18.5611   24.1975    1.5023 O   0  0  0  0  0  0  0  0  0  0  0  0
  -23.3494   25.0072   -3.2234 C   0  0  0  0  0  0  0  0  0  0  0  0
  -17.3417   25.9802   -6.4341 C   0  0  0  0  0  0  0  0  0  0  0  0
  -25.5391   22.7871   -5.4251 C   0  0  0  0  0  0  0  0  0  0  0  0
  -19.6657   25.7280   -6.3945 C   0  0  0  0  0  0  0  0  0  0  0  0
  -22.9845   25.2117   -5.4673 C   0  0  0  0  0  0  0  0  0  0  0  0
  -19.8273   24.7896    1.8876 C   0  0  0  0  0  0  0  0  0  0  0  0
  -21.8364   24.8712    0.2010 C   0  0  0  0  0  0  0  0  0  0  0  0
  -22.9759   24.8936    0.9262 N   0  0  0  0  0  0  0  0  0  0  0  0
  1 10  1  0
  1 24  1  0
  2  6  1  0
  2 20  1  0
  2 27  1  0
  3  9  2  0
  3 21  1  0
  4 27  2  0
  5 19  1  0
  5 32  2  0
  6 16  2  0
  6 25  1  0
  7 12  1  0
  7 23  2  0
  7 31  1  0
  8 11  1  0
  8 14  1  0
  8 29  1  0
  9 26  1  0
 10 12  1  0
 10 22  1  0
 11 17  1  0
 13 27  1  0
 14 28  2  0
 15 25  1  0
 15 29  1  0
 17 21  2  0
 18 26  2  0
 18 28  1  0
 19 23  1  0
 20 29  1  0
 21 28  1  0
 22 30  1  0
 22 31  2  0
 23 25  1  0
 24 30  1  0
 31 32  1  0
M  END
>  <ID>  (1) 
conformer_0

$$$$
