
     RDKit          3D

 21 22  0  0  0  0  0  0  0  0999 V2000
  -22.6580   25.1548   -3.0315 C   0  0  0  0  0  0  0  0  0  0  0  0
  -19.7531   26.8405   -6.5619 C   0  0  0  0  0  0  0  0  0  0  0  0
  -24.0136   25.4359   -0.6066 C   0  0  0  0  0  0  0  0  0  0  0  0
  -24.0431   25.3975   -2.9905 C   0  0  0  0  0  0  0  0  0  0  0  0
  -22.2546   26.8946   -7.3189 O   0  0  0  0  0  0  0  0  0  0  0  0
  -22.8635   25.3275   -5.5519 C   0  0  0  0  0  0  0  0  0  0  0  0
  -18.2687   24.1206   -1.8152 C   0  0  0  0  0  0  0  0  0  0  0  0
  -22.6512   25.2104   -0.6299 C   0  0  0  0  0  0  0  0  0  0  0  0
  -22.0802   25.0163   -4.3476 C   0  0  0  0  0  0  0  0  0  0  0  0
  -20.0232   25.0094   -0.4789 O   0  0  0  0  0  0  0  0  0  0  0  0
  -17.5354   25.9694   -5.4183 O   0  0  0  0  0  0  0  0  0  0  0  0
  -20.7993   24.9665   -4.7817 O   0  0  0  0  0  0  0  0  0  0  0  0
  -20.5407   24.8107   -1.7418 C   0  0  0  0  0  0  0  0  0  0  0  0
  -24.7326   25.5314   -1.7798 C   0  0  0  0  0  0  0  0  0  0  0  0
  -18.7182   24.1505   -3.9057 C   0  0  0  0  0  0  0  0  0  0  0  0
  -21.9543   25.0569   -1.8121 C   0  0  0  0  0  0  0  0  0  0  0  0
  -17.2005   24.9258   -2.2002 O   0  0  0  0  0  0  0  0  0  0  0  0
  -21.9206   25.7612   -6.6264 C   0  0  0  0  0  0  0  0  0  0  0  0
  -20.5625   25.6838   -5.9917 C   0  0  0  0  0  0  0  0  0  0  0  0
  -19.5018   24.3415   -2.6464 C   0  0  0  0  0  0  0  0  0  0  0  0
  -18.4465   25.4556   -4.5086 N   0  0  0  0  0  0  0  0  0  0  0  0
  1  4  1  0
  1  9  2  3
  1 16  1  0
  2 19  1  0
  3  8  1  0
  3 14  2  0
  4 14  1  0
  5 18  1  0
  6  9  1  0
  6 18  1  0
  7 17  1  0
  7 20  1  0
  8 16  2  0
  9 12  1  0
 10 13  1  0
 11 21  1  0
 12 19  1  0
 13 16  1  0
 13 20  1  0
 15 20  1  0
 15 21  1  0
 18 19  1  0
M  END
>  <ID>  (1) 
conformer_0

$$$$
