
     RDKit          3D

 27 31  0  0  0  0  0  0  0  0999 V2000
  -21.8370   25.7438   -8.7941 N   0  0  0  0  0  0  0  0  0  0  0  0
  -23.8969   26.1023   -1.1890 C   0  0  0  0  0  0  0  0  0  0  0  0
  -22.7812   25.2227   -7.8977 C   0  0  0  0  0  0  0  0  0  0  0  0
  -23.4337   24.7248    0.6431 C   0  0  0  0  0  0  0  0  0  0  0  0
  -19.3387   23.0606   -2.5326 O   0  0  0  0  0  0  0  0  0  0  0  0
  -19.6362   25.5600   -4.9316 C   0  0  0  0  0  0  0  0  0  0  0  0
  -22.5824   25.0141   -6.5998 N   0  0  0  0  0  0  0  0  0  0  0  0
  -20.2637   23.9614    1.5859 C   0  0  0  0  0  0  0  0  0  0  0  0
  -23.5799   24.9427   -2.1948 C   0  0  0  0  0  0  0  0  0  0  0  0
  -19.3512   24.5701   -0.6956 C   0  0  0  0  0  0  0  0  0  0  0  0
  -20.0580   23.7747   -1.7451 C   0  0  0  0  0  0  0  0  0  0  0  0
  -21.4928   23.6393    0.8436 C   0  0  0  0  0  0  0  0  0  0  0  0
  -21.3851   25.2773   -6.0645 C   0  0  0  0  0  0  0  0  0  0  0  0
  -18.1592   25.0909   -1.1792 O   0  0  0  0  0  0  0  0  0  0  0  0
  -21.6300   25.0783   -3.6010 C   0  0  0  0  0  0  0  0  0  0  0  0
  -23.1059   25.2748   -3.6019 C   0  0  0  0  0  0  0  0  0  0  0  0
  -24.8533   24.3876   -2.4300 O   0  0  0  0  0  0  0  0  0  0  0  0
  -20.8864   25.2241   -4.8106 N   0  0  0  0  0  0  0  0  0  0  0  0
  -24.4304   25.3967   -0.0209 O   0  0  0  0  0  0  0  0  0  0  0  0
  -22.4875   24.1561   -1.5382 C   0  0  0  0  0  0  0  0  0  0  0  0
  -20.5773   26.0123   -8.2742 C   0  0  0  0  0  0  0  0  0  0  0  0
  -20.3601   25.7379   -6.9194 C   0  0  0  0  0  0  0  0  0  0  0  0
  -19.1097   24.0005    0.6476 C   0  0  0  0  0  0  0  0  0  0  0  0
  -21.2340   24.4256   -2.4132 C   0  0  0  0  0  0  0  0  0  0  0  0
  -19.2827   25.8461   -6.1373 N   0  0  0  0  0  0  0  0  0  0  0  0
  -22.1709   24.5284   -0.1209 C   0  0  0  0  0  0  0  0  0  0  0  0
  -21.1228   25.8253   -2.4816 O   0  0  0  0  0  0  0  0  0  0  0  0
  1  3  1  0
  1 21  1  0
  2  9  1  0
  2 19  1  0
  3  7  2  0
  4 19  1  0
  4 26  1  0
  5 11  2  0
  6 18  1  0
  6 25  1  0
  7 13  1  0
  8 12  1  0
  8 23  1  0
  9 16  1  0
  9 17  1  0
  9 20  1  0
 10 11  1  0
 10 14  1  0
 10 23  1  0
 11 24  1  0
 12 26  1  0
 13 18  1  0
 13 22  1  0
 15 16  1  0
 15 18  1  0
 15 24  1  0
 20 24  1  0
 20 26  1  0
 21 22  2  0
 22 25  1  0
 24 27  1  0
M  END
>  <ID>  (1) 
conformer_0

$$$$
