
     RDKit          3D

 20 22  0  0  0  0  0  0  0  0999 V2000
  -21.3634   25.2570   -5.1889 C   0  0  0  0  0  0  0  0  0  0  0  0
  -22.0019   26.0797   -6.1184 C   0  0  0  0  0  0  0  0  0  0  0  0
  -21.1440   23.9198    0.0662 C   0  0  0  0  0  0  0  0  0  0  0  0
  -22.3304   24.9559   -2.1208 N   0  0  0  0  0  0  0  0  0  0  0  0
  -22.3087   24.2648    1.0103 C   0  0  0  0  0  0  0  0  0  0  0  0
  -20.4527   25.2088   -0.5720 C   0  0  0  0  0  0  0  0  0  0  0  0
  -24.5819   24.7874   -1.9110 N   0  0  0  0  0  0  0  0  0  0  0  0
  -21.2303   26.8311   -6.9850 C   0  0  0  0  0  0  0  0  0  0  0  0
  -24.2157   24.5978   -3.2312 C   0  0  0  0  0  0  0  0  0  0  0  0
  -19.2229   25.9920   -5.9364 C   0  0  0  0  0  0  0  0  0  0  0  0
  -26.2543   24.1494   -4.1831 O   0  0  0  0  0  0  0  0  0  0  0  0
  -23.4708   25.0728    0.3568 C   0  0  0  0  0  0  0  0  0  0  0  0
  -22.1049   24.4476   -4.3850 O   0  0  0  0  0  0  0  0  0  0  0  0
  -20.8097   25.2864   -2.0856 C   0  0  0  0  0  0  0  0  0  0  0  0
  -19.9893   25.2351   -5.1011 C   0  0  0  0  0  0  0  0  0  0  0  0
  -22.8316   24.6874   -3.3314 C   0  0  0  0  0  0  0  0  0  0  0  0
  -25.0244   24.2401   -4.3763 C   0  0  0  0  0  0  0  0  0  0  0  0
  -24.5200   23.9550   -5.5224 O   0  0  0  0  0  0  0  0  0  0  0  0
  -19.8304   26.7963   -6.8949 C   0  0  0  0  0  0  0  0  0  0  0  0
  -23.4406   24.9685   -1.1960 C   0  0  0  0  0  0  0  0  0  0  0  0
  1  2  2  0
  1 13  1  0
  1 15  1  0
  2  8  1  0
  3  5  1  0
  3  6  1  0
  4 14  1  0
  4 16  1  0
  4 20  1  0
  5 12  1  0
  6 14  1  0
  7  9  1  0
  7 20  2  0
  8 19  2  0
  9 16  2  0
  9 17  1  0
 10 15  2  0
 10 19  1  0
 11 17  2  0
 12 20  1  0
 13 16  1  0
 17 18  1  0
M  END
>  <ID>  (1) 
conformer_0

$$$$
