
     RDKit          3D

 15 17  0  0  0  0  0  0  0  0999 V2000
  -24.1581   25.0685   -2.3475 C   0  0  0  0  0  0  0  0  0  0  0  0
  -20.7517   25.3421   -3.3264 N   0  0  0  0  0  0  0  0  0  0  0  0
  -24.2341   25.1741    0.1786 C   0  0  0  0  0  0  0  0  0  0  0  0
  -20.7430   25.4623   -4.6733 C   0  0  0  0  0  0  0  0  0  0  0  0
  -24.1900   24.5356   -5.3988 O   0  0  0  0  0  0  0  0  0  0  0  0
  -20.6257   26.1484   -7.3405 C   0  0  0  0  0  0  0  0  0  0  0  0
  -21.9050   25.3020   -2.6857 C   0  0  0  0  0  0  0  0  0  0  0  0
  -19.4612   25.9840   -6.6066 C   0  0  0  0  0  0  0  0  0  0  0  0
  -23.1401   25.1204   -3.3442 C   0  0  0  0  0  0  0  0  0  0  0  0
  -23.1452   25.0565   -4.7755 C   0  0  0  0  0  0  0  0  0  0  0  0
  -21.8829   25.8479   -6.7575 C   0  0  0  0  0  0  0  0  0  0  0  0
  -23.5463   25.2393   -1.1034 C   0  0  0  0  0  0  0  0  0  0  0  0
  -22.1618   25.4094   -1.2819 C   0  0  0  0  0  0  0  0  0  0  0  0
  -21.9215   25.4497   -5.4371 C   0  0  0  0  0  0  0  0  0  0  0  0
  -19.4971   25.6601   -5.2789 C   0  0  0  0  0  0  0  0  0  0  0  0
  1  9  1  0
  1 12  1  0
  2  4  1  0
  2  7  2  0
  3 12  1  0
  4 14  2  0
  4 15  1  0
  5 10  1  0
  6  8  1  0
  6 11  2  0
  7  9  1  0
  7 13  1  0
  8 15  2  0
  9 10  1  0
 10 14  1  0
 11 14  1  0
 12 13  1  0
M  END
>  <ID>  (1) 
conformer_0

$$$$
