
     RDKit          3D

 21 23  0  0  0  0  0  0  0  0999 V2000
  -24.8834   25.5270   -1.2760 O   0  0  0  0  0  0  0  0  0  0  0  0
  -19.5936   25.6054   -5.7933 N   0  0  0  0  0  0  0  0  0  0  0  0
  -21.1960   24.9286   -0.6837 C   0  0  0  0  0  0  0  0  0  0  0  0
  -26.0188   24.3427   -3.4591 O   0  0  0  0  0  0  0  0  0  0  0  0
  -20.7762   25.3989   -5.2231 C   0  0  0  0  0  0  0  0  0  0  0  0
  -24.8089   24.2662   -3.4181 C   0  0  0  0  0  0  0  0  0  0  0  0
  -20.6581   26.5064   -7.7077 C   0  0  0  0  0  0  0  0  0  0  0  0
  -22.7694   24.4979    1.0675 C   0  0  0  0  0  0  0  0  0  0  0  0
  -22.5345   24.9381   -3.8917 C   0  0  0  0  0  0  0  0  0  0  0  0
  -21.1208   24.8878   -3.9903 C   0  0  0  0  0  0  0  0  0  0  0  0
  -23.4787   24.4966   -2.8549 C   0  0  0  0  0  0  0  0  0  0  0  0
  -23.0273   25.4193   -5.0681 N   0  0  0  0  0  0  0  0  0  0  0  0
  -23.2769   23.5387    1.7982 O   0  0  0  0  0  0  0  0  0  0  0  0
  -23.5773   25.0502   -1.3357 C   0  0  0  0  0  0  0  0  0  0  0  0
  -21.3287   24.6663    0.7692 C   0  0  0  0  0  0  0  0  0  0  0  0
  -22.3351   24.3206   -1.4429 C   0  0  0  0  0  0  0  0  0  0  0  0
  -19.9348   24.4166   -3.1839 C   0  0  0  0  0  0  0  0  0  0  0  0
  -21.9792   25.7279   -5.8809 C   0  0  0  0  0  0  0  0  0  0  0  0
  -23.6269   25.3417    0.2252 C   0  0  0  0  0  0  0  0  0  0  0  0
  -19.5491   26.1592   -7.0030 C   0  0  0  0  0  0  0  0  0  0  0  0
  -21.9262   26.2813   -7.1518 C   0  0  0  0  0  0  0  0  0  0  0  0
  1 14  1  0
  2  5  2  0
  2 20  1  0
  3 15  1  0
  3 16  1  0
  4  6  2  0
  5 10  1  0
  5 18  1  0
  6 11  2  0
  7 20  2  0
  7 21  1  0
  8 13  1  0
  8 15  1  0
  8 19  1  0
  9 10  2  0
  9 11  1  0
  9 12  1  0
 10 17  1  0
 11 14  1  0
 12 18  1  0
 14 16  1  0
 14 19  1  0
 18 21  2  0
M  END
>  <ID>  (1) 
conformer_0

$$$$
