
     RDKit          3D

 11 12  0  0  0  0  0  0  0  0999 V2000
  -21.4784   25.5332   -6.7651 C   0  0  0  0  0  0  0  0  0  0  0  0
  -22.0544   25.5043   -4.5905 C   0  0  0  0  0  0  0  0  0  0  0  0
  -24.1428   25.3238   -0.2495 C   0  0  0  0  0  0  0  0  0  0  0  0
  -24.2746   25.5144   -1.6484 N   0  0  0  0  0  0  0  0  0  0  0  0
  -23.0381   25.2960   -2.2174 C   0  0  0  0  0  0  0  0  0  0  0  0
  -20.8012   25.8568   -4.6550 N   0  0  0  0  0  0  0  0  0  0  0  0
  -22.1474   24.9638   -1.2579 C   0  0  0  0  0  0  0  0  0  0  0  0
  -22.5224   25.2923   -5.8640 C   0  0  0  0  0  0  0  0  0  0  0  0
  -20.4067   25.8699   -6.0191 N   0  0  0  0  0  0  0  0  0  0  0  0
  -22.8401   24.9765    0.0088 C   0  0  0  0  0  0  0  0  0  0  0  0
  -22.8864   25.3734   -3.5357 C   0  0  0  0  0  0  0  0  0  0  0  0
  1  8  1  0
  1  9  1  0
  2  6  1  0
  2  8  1  0
  2 11  2  3
  3  4  1  0
  3 10  1  0
  4  5  1  0
  5  7  1  0
  5 11  1  0
  6  9  1  0
  7 10  1  0
M  END
>  <ID>  (1) 
conformer_0

$$$$
