
     RDKit          3D

 17 18  0  0  0  0  0  0  0  0999 V2000
  -20.6706   25.1356    0.3016 O   0  0  0  0  0  0  0  0  0  0  0  0
  -21.5033   26.0190   -7.1366 C   0  0  0  0  0  0  0  0  0  0  0  0
  -21.4230   23.2060   -0.5190 O   0  0  0  0  0  0  0  0  0  0  0  0
  -22.3731   25.5898   -6.3169 C   0  0  0  0  0  0  0  0  0  0  0  0
  -23.7071   24.6525   -4.8984 C   0  0  0  0  0  0  0  0  0  0  0  0
  -20.1230   26.0984   -6.9626 C   0  0  0  0  0  0  0  0  0  0  0  0
  -22.8914   25.1125   -0.6036 C   0  0  0  0  0  0  0  0  0  0  0  0
  -19.5701   25.7630   -5.7303 C   0  0  0  0  0  0  0  0  0  0  0  0
  -23.0903   25.0185   -2.2043 C   0  0  0  0  0  0  0  0  0  0  0  0
  -21.5689   24.4301   -0.2106 C   0  0  0  0  0  0  0  0  0  0  0  0
  -25.2917   24.1878   -3.3054 N   0  0  0  0  0  0  0  0  0  0  0  0
  -21.4276   25.3512   -4.1362 C   0  0  0  0  0  0  0  0  0  0  0  0
  -24.4768   24.6368   -2.3869 N   0  0  0  0  0  0  0  0  0  0  0  0
  -22.4859   25.1852   -5.0406 C   0  0  0  0  0  0  0  0  0  0  0  0
  -21.7343   25.4122   -2.7672 C   0  0  0  0  0  0  0  0  0  0  0  0
  -24.8169   24.1946   -4.5861 C   0  0  0  0  0  0  0  0  0  0  0  0
  -20.1662   25.4760   -4.5978 C   0  0  0  0  0  0  0  0  0  0  0  0
  1 10  2  0
  2  4  2  0
  2  6  1  0
  3 10  1  0
  4 14  1  0
  5 14  2  0
  5 16  2  0
  6  8  1  0
  7  9  1  0
  7 10  1  0
  8 17  2  0
  9 13  1  0
  9 15  1  0
 11 13  2  0
 11 16  1  0
 12 14  1  0
 12 15  2  0
 12 17  1  0
M  END
>  <ID>  (1) 
conformer_0

$$$$
