
     RDKit          3D

 22 24  0  0  0  0  0  0  0  0999 V2000
  -19.8960   25.8956   -6.6543 C   0  0  0  0  0  0  0  0  0  0  0  0
  -23.6578   25.0431   -3.3729 C   0  0  0  0  0  0  0  0  0  0  0  0
  -24.1999   24.2230   -4.5673 C   0  0  0  0  0  0  0  0  0  0  0  0
  -23.2573   24.9454   -1.8899 C   0  0  0  0  0  0  0  0  0  0  0  0
  -19.3937   24.4165   -0.8702 Cl  0  0  0  0  0  0  0  0  0  0  0  0
  -21.9555   24.6614   -1.6701 C   0  0  0  0  0  0  0  0  0  0  0  0
  -25.4188   25.5495   -1.3462 O   0  0  0  0  0  0  0  0  0  0  0  0
  -24.2281   25.2229   -0.8754 C   0  0  0  0  0  0  0  0  0  0  0  0
  -21.1598   24.5803   -0.5701 C   0  0  0  0  0  0  0  0  0  0  0  0
  -20.4549   25.8860   -5.3915 C   0  0  0  0  0  0  0  0  0  0  0  0
  -22.5148   25.8457   -3.9271 C   0  0  0  0  0  0  0  0  0  0  0  0
  -17.9258   26.8376   -7.8040 N   0  0  0  0  0  0  0  0  0  0  0  0
  -18.5566   26.2261   -6.7604 N   0  0  0  0  0  0  0  0  0  0  0  0
  -22.8528   24.8768    1.1043 C   0  0  0  0  0  0  0  0  0  0  0  0
  -20.6795   25.5963   -7.7612 C   0  0  0  0  0  0  0  0  0  0  0  0
  -23.8065   24.5744   -5.9553 N   0  0  0  0  0  0  0  0  0  0  0  0
  -21.7809   25.6024   -5.1957 C   0  0  0  0  0  0  0  0  0  0  0  0
  -22.1375   26.9632   -3.3148 O   0  0  0  0  0  0  0  0  0  0  0  0
  -24.0334   25.1476    0.4794 C   0  0  0  0  0  0  0  0  0  0  0  0
  -21.6201   24.6190    0.7041 C   0  0  0  0  0  0  0  0  0  0  0  0
  -22.0276   25.1812   -7.5616 C   0  0  0  0  0  0  0  0  0  0  0  0
  -22.5155   25.1248   -6.2788 C   0  0  0  0  0  0  0  0  0  0  0  0
  1 10  1  0
  1 13  1  0
  1 15  1  0
  2  3  1  0
  2  4  1  0
  2 11  1  0
  3 16  1  0
  4  6  2  0
  4  8  1  0
  5  9  1  0
  6  9  1  0
  7  8  1  0
  8 19  2  0
  9 20  1  0
 10 17  2  0
 11 17  1  0
 11 18  1  0
 12 13  1  0
 14 19  1  0
 14 20  2  0
 15 21  2  0
 16 22  2  0
 17 22  1  0
 21 22  1  0
M  END
>  <ID>  (1) 
conformer_0

$$$$
