
     RDKit          3D

 14 16  0  0  0  0  0  0  0  0999 V2000
  -23.1897   25.3338   -2.7048 C   0  0  0  0  0  0  0  0  0  0  0  0
  -20.9780   25.1355   -1.8307 C   0  0  0  0  0  0  0  0  0  0  0  0
  -22.8562   25.1234   -0.3609 C   0  0  0  0  0  0  0  0  0  0  0  0
  -20.2192   25.9569   -7.7593 C   0  0  0  0  0  0  0  0  0  0  0  0
  -22.3517   25.6585   -6.3007 N   0  0  0  0  0  0  0  0  0  0  0  0
  -21.4770   25.4590   -4.2464 N   0  0  0  0  0  0  0  0  0  0  0  0
  -21.8245   25.3031   -2.8766 C   0  0  0  0  0  0  0  0  0  0  0  0
  -20.4328   25.6168   -5.1675 N   0  0  0  0  0  0  0  0  0  0  0  0
  -22.6608   25.5136   -4.9566 C   0  0  0  0  0  0  0  0  0  0  0  0
  -21.4812   25.0186   -0.5449 N   0  0  0  0  0  0  0  0  0  0  0  0
  -23.8552   25.4180   -4.0603 N   0  0  0  0  0  0  0  0  0  0  0  0
  -23.6981   25.2836   -1.4235 C   0  0  0  0  0  0  0  0  0  0  0  0
  -20.9505   25.7307   -6.4094 C   0  0  0  0  0  3  0  0  0  0  0  0
  -25.0803   25.3814   -1.2106 F   0  0  0  0  0  0  0  0  0  0  0  0
  1  7  1  0
  1 11  1  0
  1 12  2  0
  2  7  2  0
  2 10  1  0
  3 10  2  0
  3 12  1  0
  4 13  1  0
  5  9  2  0
  5 13  1  0
  6  7  1  0
  6  8  1  0
  6  9  1  0
  8 13  1  0
  9 11  1  0
 12 14  1  0
M  END
>  <ID>  (1) 
conformer_0

$$$$
