
     RDKit          3D

 20 23  0  0  0  0  0  0  0  0999 V2000
  -24.0663   25.1563    0.2474 C   0  0  0  0  0  0  0  0  0  0  0  0
  -20.7100   24.8375   -0.6389 N   0  0  0  0  0  0  0  0  0  0  0  0
  -19.8501   25.6895   -5.8630 C   0  0  0  0  0  0  0  0  0  0  0  0
  -20.7885   25.0649   -3.4397 C   0  0  0  0  0  0  0  0  0  0  0  0
  -22.3788   25.1334   -5.8299 C   0  0  0  0  0  0  0  0  0  0  0  0
  -20.1451   27.1582   -7.7254 N   0  0  0  0  0  0  0  0  0  0  0  0
  -22.7910   24.8682   -2.1579 C   0  0  0  0  0  0  0  0  0  0  0  0
  -20.1935   25.1722   -4.6505 C   0  0  0  0  0  0  0  0  0  0  0  0
  -22.0380   24.8731   -0.9667 C   0  0  0  0  0  0  0  0  0  0  0  0
  -21.9761   26.0997   -6.6092 N   0  0  0  0  0  0  0  0  0  0  0  0
  -21.8665   24.5212    1.2457 C   0  0  0  0  0  0  0  0  0  0  0  0
  -24.8257   24.7470   -3.2984 N   0  0  0  0  0  0  0  0  0  0  0  0
  -22.1456   24.8861   -3.3880 C   0  0  0  0  0  0  0  0  0  0  0  0
  -20.6304   26.3322   -6.8036 C   0  0  0  0  0  0  0  0  0  0  0  0
  -24.2515   24.8033   -4.4695 C   0  0  0  0  0  0  0  0  0  0  0  0
  -22.8779   25.0296   -4.5519 C   0  0  0  0  0  0  0  0  0  0  0  0
  -22.7217   24.7982    0.2047 N   0  0  0  0  0  0  0  0  0  0  0  0
  -20.5675   24.7004    0.7493 C   0  0  0  0  0  0  0  0  0  0  0  0
  -24.1772   24.9687   -2.1511 C   0  0  0  0  0  0  0  0  0  0  0  0
  -24.7658   25.3317   -0.9409 C   0  0  0  0  0  0  0  0  0  0  0  0
  1 17  1  0
  1 20  2  0
  2  9  1  0
  2 18  1  0
  3  8  2  0
  3 14  1  0
  4  8  2  0
  4 13  1  0
  5 10  1  0
  5 16  1  0
  6 14  2  0
  7  9  2  0
  7 13  1  0
  7 19  1  0
  9 17  1  0
 10 14  1  0
 11 17  1  0
 11 18  1  0
 12 15  2  0
 12 19  1  0
 13 16  1  0
 15 16  1  0
 19 20  1  0
M  END
>  <ID>  (1) 
conformer_0

$$$$
