
     RDKit          3D

 30 34  0  0  0  0  0  0  0  0999 V2000
  -22.4220   24.6709   -0.7331 C   0  0  0  0  0  0  0  0  0  0  0  0
  -17.8322   26.6389   -8.0678 C   0  0  0  0  0  0  0  0  0  0  0  0
  -22.9541   24.6985   -6.1703 C   0  0  0  0  0  0  0  0  0  0  0  0
  -21.5837   25.7025   -7.9327 C   0  0  0  0  0  0  0  0  0  0  0  0
  -24.6597   24.4153   -4.3506 C   0  0  0  0  0  0  0  0  0  0  0  0
  -22.4161   25.8075   -6.7730 N   0  0  0  0  0  0  0  0  0  0  0  0
  -17.6699   25.6988   -6.8482 C   0  0  0  0  0  0  0  0  0  0  0  0
  -18.7594   25.6186   -5.9196 O   0  0  0  0  0  0  0  0  0  0  0  0
  -24.6692   24.7368   -1.9549 C   0  0  0  0  0  0  0  0  0  0  0  0
  -18.9056   23.4271   -3.2764 O   0  0  0  0  0  0  0  0  0  0  0  0
  -23.4259   24.5645    1.3312 C   0  0  0  0  0  0  0  0  0  0  0  0
  -24.4771   24.7349    0.3705 C   0  0  0  0  0  0  0  0  0  0  0  0
  -20.3039   24.5956   -1.8310 C   0  0  0  0  0  0  0  0  0  0  0  0
  -19.8408   26.4209   -6.3163 C   0  0  0  0  0  0  0  0  0  0  0  0
  -23.1983   24.5805   -4.6151 C   0  0  0  0  0  0  0  0  0  0  0  0
  -19.8190   24.8651    0.6811 C   0  0  0  0  0  0  0  0  0  0  0  0
  -19.0334   25.6621    1.4514 O   0  0  0  0  0  0  0  0  0  0  0  0
  -23.8814   24.7540   -0.8942 C   0  0  0  0  0  0  0  0  0  0  0  0
  -20.9857   24.4028    1.3381 N   0  0  0  0  0  0  0  0  0  0  0  0
  -20.8062   23.6591    2.4357 O   0  0  0  0  0  0  0  0  0  0  0  0
  -19.8476   24.1858   -3.1121 C   0  0  0  0  0  0  0  0  0  0  0  0
  -21.7706   24.6999   -1.9712 C   0  0  0  0  0  0  0  0  0  0  0  0
  -22.1374   24.6141   -3.4438 C   0  0  0  0  0  0  0  0  0  0  0  0
  -20.2008   26.1562   -7.7289 C   0  0  0  0  0  0  0  0  0  0  0  0
  -19.1297   26.2677   -8.7493 C   0  0  0  0  0  0  0  0  0  0  0  0
  -25.4854   24.0609   -5.2942 O   0  0  0  0  0  0  0  0  0  0  0  0
  -19.6351   24.5008   -0.6519 N   0  0  0  0  0  0  0  0  0  0  0  0
  -20.8006   24.4856   -4.0170 N   0  0  0  0  0  0  0  0  0  0  0  0
  -25.1677   24.5799   -3.0855 N   0  0  0  0  0  0  0  0  0  0  0  0
  -22.1613   24.5324    0.6206 C   0  0  0  0  0  0  0  0  0  0  0  0
  1 18  2  0
  1 22  1  0
  1 30  1  0
  2  7  1  0
  2 25  1  0
  3  6  1  0
  3 15  1  0
  4  6  1  0
  4 24  1  0
  5 15  1  0
  5 26  2  0
  5 29  1  0
  7  8  1  0
  8 14  1  0
  9 18  1  0
  9 29  1  0
 10 21  2  0
 11 12  1  0
 11 30  1  0
 12 18  1  0
 13 21  1  0
 13 22  2  0
 13 27  1  0
 14 24  1  0
 15 23  2  0
 16 17  2  0
 16 19  1  0
 16 27  1  0
 19 20  1  0
 19 30  1  0
 21 28  1  0
 22 23  1  0
 23 28  1  0
 24 25  1  0
M  END
>  <ID>  (1) 
conformer_0

$$$$
