
     RDKit          3D

 18 20  0  0  0  0  0  0  0  0999 V2000
  -20.6425   25.0785   -1.6409 O   0  0  0  0  0  0  0  0  0  0  0  0
  -19.7721   26.6720   -6.8915 C   0  0  0  0  0  0  0  0  0  0  0  0
  -25.1045   25.7117   -0.9605 O   0  0  0  0  0  0  0  0  0  0  0  0
  -21.6281   26.0235   -8.4641 C   0  0  0  0  0  0  0  0  0  0  0  0
  -23.4522   25.0125    0.2475 O   0  0  0  0  0  0  0  0  0  0  0  0
  -20.6790   25.2301   -0.2960 C   0  0  0  0  0  0  0  0  0  0  0  0
  -22.4168   25.7956   -7.2062 C   0  0  0  0  0  0  0  0  0  0  0  0
  -23.8469   25.3136   -0.8934 C   0  0  0  0  0  0  0  0  0  0  0  0
  -21.6350   25.4166   -6.1007 C   0  0  0  0  0  0  0  0  0  0  0  0
  -22.1898   25.2509   -4.8551 C   0  0  0  0  0  0  0  0  0  0  0  0
  -20.2587   25.7525   -5.8009 C   0  0  0  0  0  0  0  0  0  0  0  0
  -20.0938   25.5653   -4.4396 N   0  0  0  0  0  0  0  0  0  0  0  0
  -21.3144   25.2976   -3.8332 C   0  0  0  0  0  0  0  0  0  0  0  0
  -20.1566   26.0414   -8.2512 C   0  0  0  0  0  0  0  0  0  0  0  0
  -23.1041   25.1674   -2.2146 C   0  0  0  0  0  0  0  0  0  0  0  0
  -23.9563   25.0562   -3.2966 C   0  0  0  0  0  0  0  0  0  0  0  0
  -23.5225   25.0743   -4.6018 C   0  0  0  0  0  0  0  0  0  0  0  0
  -21.7019   25.1799   -2.5150 C   0  0  0  0  0  0  0  0  0  0  0  0
  1  6  1  0
  1 18  1  0
  2 11  1  0
  2 14  1  0
  3  8  2  0
  4  7  1  0
  4 14  1  0
  5  8  1  0
  7  9  1  0
  8 15  1  0
  9 10  1  0
  9 11  1  0
 10 13  2  0
 10 17  1  0
 11 12  1  0
 12 13  1  0
 13 18  1  0
 15 16  1  0
 15 18  2  0
 16 17  2  0
M  END
>  <ID>  (1) 
conformer_0

$$$$
