
     RDKit          3D

 19 21  0  0  0  0  0  0  0  0999 V2000
  -22.3948   25.1108    0.7206 C   0  0  0  0  0  0  0  0  0  0  0  0
  -23.5712   24.8128   -6.8915 N   0  0  0  0  0  0  0  0  0  0  0  0
  -20.3680   26.4208   -7.3503 N   0  0  0  0  0  0  0  0  0  0  0  0
  -23.4026   24.9387   -1.8801 C   0  0  0  0  0  0  0  0  0  0  0  0
  -22.6079   25.5390   -7.3196 N   0  0  0  0  0  0  0  0  0  0  0  0
  -23.7534   25.2490    0.4861 C   0  0  0  0  0  0  0  0  0  0  0  0
  -19.7805   25.9286   -5.3269 N   0  0  0  0  0  0  0  0  0  0  0  0
  -23.9661   24.4139   -5.6490 C   0  0  0  0  0  0  0  0  0  0  0  0
  -22.0496   24.8658   -1.6141 C   0  0  0  0  0  0  0  0  0  0  0  0
  -24.0006   24.6887   -3.1779 C   0  0  0  0  0  0  0  0  0  0  0  0
  -21.4337   25.8452   -6.7304 C   0  0  0  0  0  0  0  0  0  0  0  0
  -23.2442   24.7850   -4.4249 C   0  0  0  0  0  0  0  0  0  0  0  0
  -25.1594   23.8442   -5.6479 O   0  0  0  0  0  0  0  0  0  0  0  0
  -21.5236   24.9315   -0.3576 C   0  0  0  0  0  0  0  0  0  0  0  0
  -24.2661   25.1648   -0.7903 C   0  0  0  0  0  0  0  0  0  0  0  0
  -21.9155   25.2732   -4.3885 C   0  0  0  0  0  0  0  0  0  0  0  0
  -19.3813   26.4188   -6.4745 N   0  0  0  0  0  0  0  0  0  0  0  0
  -25.0961   23.9883   -3.0891 O   0  0  0  0  0  0  0  0  0  0  0  0
  -21.0648   25.6007   -5.4216 C   0  0  0  0  0  0  0  0  0  0  0  0
  1  6  1  0
  1 14  1  0
  2  5  1  0
  2  8  1  0
  3 11  1  0
  3 17  1  0
  4  9  1  0
  4 10  1  0
  4 15  1  0
  5 11  2  0
  6 15  2  0
  7 17  1  0
  7 19  1  0
  8 12  1  0
  8 13  2  0
  9 14  2  0
 10 12  1  0
 10 18  1  0
 11 19  1  0
 12 16  2  0
 16 19  1  0
M  END
>  <ID>  (1) 
conformer_0

$$$$
