
     RDKit          3D

 30 34  0  0  0  0  0  0  0  0999 V2000
  -19.6308   27.0143   -7.4564 C   0  0  0  0  0  0  0  0  0  0  0  0
  -19.2965   24.4961   -1.9227 C   0  0  0  0  0  0  0  0  0  0  0  0
  -22.6723   24.8742   -5.7520 C   0  0  0  0  0  0  0  0  0  0  0  0
  -17.5079   26.4550   -6.4794 O   0  0  0  0  0  0  0  0  0  0  0  0
  -24.3670   24.2900   -3.6216 C   0  0  0  0  0  0  0  0  0  0  0  0
  -25.1538   25.6507   -1.2128 O   0  0  0  0  0  0  0  0  0  0  0  0
  -20.4118   25.0538   -8.1144 O   0  0  0  0  0  0  0  0  0  0  0  0
  -21.5863   25.2708   -1.8865 C   0  0  0  0  0  0  0  0  0  0  0  0
  -23.1291   24.7644   -3.3566 C   0  0  0  0  0  0  0  0  0  0  0  0
  -20.7151   25.1580   -4.5535 N   0  0  0  0  0  0  0  0  0  0  0  0
  -23.5315   25.1458    0.3833 C   0  0  0  0  0  0  0  0  0  0  0  0
  -21.9681   25.0381    0.6461 C   0  0  0  0  0  0  0  0  0  0  0  0
  -20.5005   25.7311   -6.9792 C   0  0  0  0  0  0  0  0  0  0  0  0
  -20.4010   25.1133    0.1261 C   0  0  0  0  0  0  0  0  0  0  0  0
  -25.9941   23.4536   -5.0709 O   0  0  0  0  0  0  0  0  0  0  0  0
  -17.9869   25.0075   -0.0898 C   0  0  0  0  0  0  0  0  0  0  0  0
  -16.7791   25.2039    0.4853 O   0  0  0  0  0  0  0  0  0  0  0  0
  -21.9616   25.4763   -6.7292 N   0  0  0  0  0  0  0  0  0  0  0  0
  -19.1128   25.2699    0.6956 C   0  0  0  0  0  0  0  0  0  0  0  0
  -24.7704   24.0222   -4.9174 C   0  0  0  0  0  0  0  0  0  0  0  0
  -23.9336   24.2890   -5.9891 C   0  0  0  0  0  0  0  0  0  0  0  0
  -24.6655   24.8818    1.2426 F   0  0  0  0  0  0  0  0  0  0  0  0
  -23.9597   25.2439   -1.0528 C   0  0  0  0  0  0  0  0  0  0  0  0
  -18.0861   24.5597   -1.3750 N   0  0  0  0  0  0  0  0  0  0  0  0
  -22.9102   25.0432   -1.9802 N   0  0  0  0  0  0  0  0  0  0  0  0
  -18.1078   26.6966   -7.8208 C   0  0  0  0  0  0  0  0  0  0  0  0
  -18.3272   25.6030   -5.6846 C   0  0  0  0  0  0  0  0  0  0  0  0
  -22.1482   24.9364   -4.4533 C   0  0  0  0  0  0  0  0  0  0  0  0
  -20.4000   24.9141   -1.2628 C   0  0  0  0  0  0  0  0  0  0  0  0
  -19.8466   25.3847   -5.6034 C   0  0  0  0  0  0  0  0  0  0  0  0
  1 13  1  0
  1 26  1  0
  2 24  2  0
  2 29  1  0
  3 18  1  0
  3 21  2  0
  3 28  1  0
  4 26  1  0
  4 27  1  0
  5  9  2  0
  5 20  1  0
  6 23  2  0
  7 13  1  0
  8 25  1  0
  8 29  1  0
  9 25  1  0
  9 28  1  0
 10 28  1  0
 10 30  2  0
 11 12  2  0
 11 22  1  0
 11 23  1  0
 12 14  1  0
 13 18  1  0
 13 30  1  0
 14 19  2  0
 14 29  1  0
 15 20  1  0
 16 17  2  0
 16 19  1  0
 16 24  1  0
 20 21  1  0
 23 25  1  0
 27 30  1  0
M  END
>  <ID>  (1) 
conformer_0

$$$$
