
     RDKit          3D

 18 20  0  0  0  0  0  0  0  0999 V2000
  -24.7033   25.0323   -1.8596 N   0  0  0  0  0  0  0  0  0  0  0  0
  -20.7466   25.5753   -0.8278 O   0  0  0  0  0  0  0  0  0  0  0  0
  -22.0129   25.4423   -1.1646 C   0  0  0  0  0  0  0  0  0  0  0  0
  -24.8816   24.3986   -4.8326 O   0  0  0  0  0  0  0  0  0  0  0  0
  -23.0252   25.4991   -0.1914 C   0  0  0  0  0  0  0  0  0  0  0  0
  -23.7529   25.0177   -2.7925 N   0  0  0  0  0  0  0  0  0  0  0  0
  -20.3096   25.3088   -3.9891 C   0  0  0  0  0  0  0  0  0  0  0  0
  -19.0161   26.3506   -7.2941 O   0  0  0  0  0  0  0  0  0  0  0  0
  -22.5477   25.1167   -4.8238 C   0  0  0  0  0  0  0  0  0  0  0  0
  -22.3666   25.2206   -2.5018 C   0  0  0  0  0  0  0  0  0  0  0  0
  -22.3366   25.3205   -6.1247 C   0  0  0  0  0  0  0  0  0  0  0  0
  -19.6297   25.5444   -5.1140 C   0  0  0  0  0  0  0  0  0  0  0  0
  -24.3362   25.2989   -0.5843 C   0  0  0  0  0  0  0  0  0  0  0  0
  -21.6251   25.2268   -3.7139 C   0  0  0  0  0  0  0  0  0  0  0  0
  -19.9404   25.8456   -6.4397 C   0  0  0  0  0  0  0  0  0  0  0  0
  -21.2766   25.6874   -6.9139 C   0  0  0  0  0  0  0  0  0  0  0  0
  -17.6320   26.3559   -6.9693 C   0  0  0  0  0  0  0  0  0  0  0  0
  -23.8756   24.8416   -4.2229 C   0  0  0  0  0  0  0  0  0  0  0  0
  1  6  1  0
  1 13  2  0
  2  3  1  0
  3  5  1  0
  3 10  2  0
  4 18  2  0
  5 13  1  0
  6 10  1  0
  6 18  1  0
  7 12  2  0
  7 14  1  0
  8 15  1  0
  8 17  1  0
  9 11  2  0
  9 14  1  0
  9 18  1  0
 10 14  1  0
 11 16  1  0
 12 15  1  0
 15 16  2  0
M  END
>  <ID>  (1) 
conformer_0

$$$$
