
     RDKit          3D

 29 32  0  0  0  0  0  0  0  0999 V2000
  -20.3471   24.9810   -2.8310 N   0  0  0  0  0  0  0  0  0  0  0  0
  -20.1477   25.5414   -5.2012 N   0  0  0  0  0  0  0  0  0  0  0  0
  -22.9049   24.9094    0.1779 C   0  0  0  0  0  0  0  0  0  0  0  0
  -20.8623   25.0998   -4.1662 C   0  0  0  0  0  0  0  0  0  0  0  0
  -22.4127   24.7394   -1.0989 C   0  0  0  0  0  0  0  0  0  0  0  0
  -19.9439   25.9065   -7.7195 C   0  0  0  0  0  0  0  0  0  0  0  0
  -24.0497   25.6089    0.4391 C   0  0  0  0  0  0  0  0  0  0  0  0
  -18.8475   26.6978   -7.6698 N   0  0  0  0  0  0  0  0  0  0  0  0
  -22.0181   25.0944   -6.6307 C   0  0  0  0  0  0  0  0  0  0  0  0
  -20.6997   25.5085   -6.4569 C   0  0  0  0  0  0  0  0  0  0  0  0
  -20.9716   24.5712   -1.5926 C   0  0  0  0  0  0  0  0  0  0  0  0
  -25.0119   23.5906   -4.6858 C   0  0  0  0  0  0  0  0  0  0  0  0
  -19.9281   24.4443   -0.5025 C   0  0  0  0  0  0  0  0  0  0  0  0
  -24.3885   25.8683   -1.9292 C   0  0  0  0  0  0  0  0  0  0  0  0
  -19.5845   25.6008    0.2865 N   0  0  0  0  0  0  0  0  0  0  0  0
  -23.4414   24.8220   -2.0402 C   0  0  0  0  0  0  0  0  0  0  0  0
  -20.3588   23.3035    0.4547 C   0  0  0  0  0  0  0  0  0  0  0  0
  -23.7243   23.6244   -2.7256 C   0  0  0  0  0  0  0  0  0  0  0  0
  -20.6397   23.8505    1.8672 C   0  0  0  0  0  0  0  0  0  0  0  0
  -20.3613   25.5399   -8.8158 O   0  0  0  0  0  0  0  0  0  0  0  0
  -22.1093   24.7344   -4.4102 N   0  0  0  0  0  0  0  0  0  0  0  0
  -26.2441   23.6266   -4.6457 O   0  0  0  0  0  0  0  0  0  0  0  0
  -24.4000   22.9813   -3.5890 N   0  0  0  0  0  0  0  0  0  0  0  0
  -22.7343   24.6842   -5.5422 C   0  0  0  0  0  0  0  0  0  0  0  0
  -19.3971   24.5549    2.4563 C   0  0  0  0  0  0  0  0  0  0  0  0
  -24.7634   26.1791   -0.6226 C   0  0  0  0  0  0  0  0  0  0  0  0
  -24.1237   24.2024   -5.6005 N   0  0  0  0  0  0  0  0  0  0  0  0
  -17.9140   26.5974   -8.8663 C   0  0  0  0  0  0  0  0  0  0  0  0
  -19.3084   25.8361    1.6908 C   0  0  0  0  0  0  0  0  0  0  0  0
  1  4  1  0
  1 11  1  0
  2  4  2  0
  2 10  1  0
  3  5  1  0
  3  7  2  0
  4 21  1  0
  5 11  1  0
  5 16  1  0
  6  8  1  0
  6 10  1  0
  6 20  2  0
  7 26  1  0
  8 28  1  0
  9 10  2  0
  9 24  1  0
 11 13  1  0
 12 22  2  0
 12 23  1  0
 12 27  1  0
 13 15  1  0
 13 17  1  0
 14 16  1  0
 14 26  1  0
 15 29  1  0
 16 18  1  0
 17 19  1  0
 18 23  1  0
 19 25  1  0
 21 24  2  0
 24 27  1  0
 25 29  1  0
M  END
>  <ID>  (1) 
conformer_0

$$$$
