
     RDKit          3D

 28 33  0  0  0  0  0  0  0  0999 V2000
  -19.2955   24.3227    0.4513 C   0  0  0  0  0  0  0  0  0  0  0  0
  -23.3566   24.2359    0.4282 N   0  0  0  0  0  0  0  0  0  0  0  0
  -18.5343   26.6297   -7.9353 C   0  0  0  0  0  0  0  0  0  0  0  0
  -18.9855   24.0279   -1.8721 N   0  0  0  0  0  0  0  0  0  0  0  0
  -20.8471   26.1682   -7.6140 N   0  0  0  0  0  0  0  0  0  0  0  0
  -23.7236   24.7642   -4.8705 C   0  0  0  0  0  0  0  0  0  0  0  0
  -23.9158   24.9286   -0.6651 C   0  0  0  0  0  0  0  0  0  0  0  0
  -20.0303   23.9612    1.6264 C   0  0  0  0  0  0  0  0  0  0  0  0
  -23.8523   25.0653   -3.3997 C   0  0  0  0  0  0  0  0  0  0  0  0
  -20.6834   25.0339   -4.3063 C   0  0  0  0  0  0  0  0  0  0  0  0
  -21.4170   23.6352    1.5157 C   0  0  0  0  0  0  0  0  0  0  0  0
  -19.3182   25.7200   -5.8282 C   0  0  0  0  0  0  0  0  0  0  0  0
  -22.8451   25.3937   -5.7456 C   0  0  0  0  0  0  0  0  0  0  0  0
  -21.4648   25.3426   -5.4075 N   0  0  0  0  0  0  0  0  0  0  0  0
  -19.8788   24.0603   -0.8155 C   0  0  0  0  0  0  0  0  0  0  0  0
  -24.9793   25.6323   -0.5671 O   0  0  0  0  0  0  0  0  0  0  0  0
  -19.8117   26.6039   -8.4199 C   0  0  0  0  0  0  0  0  0  0  0  0
  -21.1912   24.5117   -3.1479 C   0  0  0  0  0  0  0  0  0  0  0  0
  -20.6013   25.7515   -6.3470 C   0  0  0  0  0  0  0  0  0  0  0  0
  -24.8478   23.8977   -5.4293 C   0  0  0  0  0  0  0  0  0  0  0  0
  -18.2794   26.1870   -6.6170 C   0  0  0  0  0  0  0  0  0  0  0  0
  -23.3132   24.7789   -2.0056 C   0  0  0  0  0  0  0  0  0  0  0  0
  -21.9451   24.4507   -2.0401 C   0  0  0  0  0  0  0  0  0  0  0  0
  -22.5365   23.3811    2.3161 C   0  0  0  0  0  0  0  0  0  0  0  0
  -21.2693   24.1681   -0.8474 C   0  0  0  0  0  0  0  0  0  0  0  0
  -19.4123   25.2594   -4.5820 N   0  0  0  0  0  0  0  0  0  0  0  0
  -21.9842   24.0519    0.3210 C   0  0  0  0  0  0  0  0  0  0  0  0
  -23.7113   23.8213    1.6788 C   0  0  0  0  0  0  0  0  0  0  0  0
  1  8  2  0
  1 15  1  0
  2  7  1  0
  2 27  1  0
  2 28  1  0
  3 17  2  0
  3 21  1  0
  4 15  1  0
  5 17  1  0
  5 19  2  0
  6  9  1  0
  6 13  1  0
  6 20  1  0
  7 16  2  0
  7 22  1  0
  8 11  1  0
  9 22  1  0
 10 14  1  0
 10 18  2  0
 10 26  1  0
 11 24  1  0
 11 27  1  0
 12 19  1  0
 12 21  2  0
 12 26  1  0
 13 14  1  0
 14 19  1  0
 15 25  1  0
 18 23  2  0
 22 23  1  0
 23 25  1  0
 24 28  1  0
 25 27  2  0
M  END
>  <ID>  (1) 
conformer_0

$$$$
