
     RDKit          3D

 20 23  0  0  0  0  0  0  0  0999 V2000
  -22.3234   25.1618   -3.5894 C   0  0  0  0  0  0  0  0  0  0  0  0
  -21.7486   25.1737   -5.8221 C   0  0  0  0  0  0  0  0  0  0  0  0
  -21.8790   24.9502    0.6674 O   0  0  0  0  0  0  0  0  0  0  0  0
  -19.8057   25.8876   -5.1312 N   0  0  0  0  0  0  0  0  0  0  0  0
  -24.0661   25.1314    0.8792 O   0  0  0  0  0  0  0  0  0  0  0  0
  -19.7919   25.9927   -6.4746 C   0  0  0  0  0  0  0  0  0  0  0  0
  -20.9707   25.4584   -6.9382 C   0  0  0  0  0  0  0  0  0  0  0  0
  -17.4992   26.6284   -7.3227 C   0  0  0  0  0  0  0  0  0  0  0  0
  -24.6915   24.8276   -3.0965 C   0  0  0  0  0  0  0  0  0  0  0  0
  -23.6192   24.8866   -4.0044 C   0  0  0  0  0  0  0  0  0  0  0  0
  -24.0057   24.6222   -5.3346 N   0  0  0  0  0  0  0  0  0  0  0  0
  -22.0554   25.2530   -2.2437 C   0  0  0  0  0  0  0  0  0  0  0  0
  -23.0792   24.6443   -7.6686 C   0  0  0  0  0  0  0  0  0  0  0  0
  -21.6940   25.1370   -8.1792 C   0  0  0  0  0  0  0  0  0  0  0  0
  -23.0404   24.6898   -6.2515 C   0  0  0  0  0  0  0  0  0  0  0  0
  -24.4195   24.9628   -1.7770 C   0  0  0  0  0  0  0  0  0  0  0  0
  -18.9483   26.7488   -7.5695 C   0  0  0  0  0  0  0  0  0  0  0  0
  -22.9901   25.1316    0.1748 C   0  0  0  0  0  0  0  0  0  0  0  0
  -21.2140   25.4037   -4.6047 N   0  0  0  0  0  0  0  0  0  0  0  0
  -23.1060   25.1327   -1.3145 C   0  0  0  0  0  0  0  0  0  0  0  0
  1 10  1  0
  1 12  2  0
  1 19  1  0
  2  7  1  0
  2 15  1  0
  2 19  1  0
  3 18  2  0
  4  6  1  0
  4 19  1  0
  5 18  1  0
  6  7  2  0
  6 17  1  0
  7 14  1  0
  8 17  1  0
  9 10  1  0
  9 16  2  0
 10 11  1  0
 11 15  2  0
 12 20  1  0
 13 14  1  0
 13 15  1  0
 16 20  1  0
 18 20  1  0
M  END
>  <ID>  (1) 
conformer_0

$$$$
