
     RDKit          3D

 23 26  0  0  0  0  0  0  0  0999 V2000
  -20.9752   25.2694   -5.2617 O   0  0  0  0  0  0  0  0  0  0  0  0
  -18.1362   25.3135   -5.1779 O   0  0  0  0  0  0  0  0  0  0  0  0
  -18.1428   26.5747   -7.1397 O   0  0  0  0  0  0  0  0  0  0  0  0
  -21.4513   24.3942   -1.2901 C   0  0  0  0  0  0  0  0  0  0  0  0
  -22.2900   25.1713   -5.6780 C   0  0  0  0  0  0  0  0  0  0  0  0
  -23.9838   24.7025   -3.9272 C   0  0  0  0  0  0  0  0  0  0  0  0
  -22.5573   25.4879   -6.9992 C   0  0  0  0  0  0  0  0  0  0  0  0
  -20.0736   24.1892   -1.1685 N   0  0  0  0  0  0  0  0  0  0  0  0
  -21.7693   26.0630   -7.9368 C   0  0  0  0  0  0  0  0  0  0  0  0
  -23.4833   24.8515   -5.0443 C   0  0  0  0  0  0  0  0  0  0  0  0
  -20.0755   25.6306   -6.3195 N   0  0  0  0  0  0  0  0  0  0  0  0
  -20.3137   26.0057   -7.8020 C   0  0  0  0  0  0  0  0  0  0  0  0
  -21.6381   24.9339    1.0347 N   0  0  0  0  0  0  0  0  0  0  0  0
  -23.3410   24.6294   -2.6468 C   0  0  0  0  0  0  0  0  0  0  0  0
  -22.1798   24.7781   -0.1567 C   0  0  0  0  0  0  0  0  0  0  0  0
  -19.0269   26.4764   -8.3214 C   0  0  0  0  0  0  0  0  0  0  0  0
  -24.1480   24.9461   -1.6037 C   0  0  0  0  0  0  0  0  0  0  0  0
  -18.7102   25.8037   -6.0914 C   0  0  0  0  0  0  0  0  0  0  0  0
  -22.0434   24.2704   -2.5001 N   0  0  0  0  0  0  0  0  0  0  0  0
  -24.3423   25.1897    0.7230 O   0  0  0  0  0  0  0  0  0  0  0  0
  -20.3276   24.8019    1.1078 C   0  0  0  0  0  0  0  0  0  0  0  0
  -19.5603   24.4656    0.0556 N   0  0  0  0  0  0  0  0  0  0  0  0
  -23.6064   25.0027   -0.3136 C   0  0  0  0  0  0  0  0  0  0  0  0
  1  5  1  0
  1 11  1  0
  2 18  2  0
  3 16  1  0
  3 18  1  0
  4  8  1  0
  4 15  1  0
  4 19  2  0
  5  7  2  0
  5 10  1  0
  6 10  2  3
  6 14  1  0
  7  9  1  0
  8 22  1  0
  9 12  1  0
 11 12  1  0
 11 18  1  0
 12 16  1  0
 13 15  2  0
 13 21  1  0
 14 17  2  0
 14 19  1  0
 15 23  1  0
 17 23  1  0
 20 23  2  0
 21 22  2  0
M  END
>  <ID>  (1) 
conformer_0

$$$$
