
     RDKit          3D

 22 24  0  0  0  0  0  0  0  0999 V2000
  -20.8952   25.8379   -4.5348 O   0  0  0  0  0  0  0  0  0  0  0  0
  -24.7049   24.1123   -4.6498 C   0  0  0  0  0  0  0  0  0  0  0  0
  -22.2010   24.3970    1.4263 O   0  0  0  0  0  0  0  0  0  0  0  0
  -22.3664   24.8108   -1.9179 C   0  0  0  0  0  0  0  0  0  0  0  0
  -19.7647   26.5070   -6.7194 C   0  0  0  0  0  0  0  0  0  0  0  0
  -21.8688   25.4184   -6.5534 N   0  0  0  0  0  0  0  0  0  0  0  0
  -25.3192   25.6746   -0.8475 N   0  0  0  0  0  0  0  0  0  0  0  0
  -22.1520   25.1780   -4.3132 C   0  0  0  0  0  0  0  0  0  0  0  0
  -24.1814   24.3352   -3.3774 C   0  0  0  0  0  0  0  0  0  0  0  0
  -19.9963   24.7176   -1.3746 C   0  0  0  0  0  0  0  0  0  0  0  0
  -20.6816   24.9952   -0.1254 N   0  0  0  0  0  0  0  0  0  0  0  0
  -21.9805   25.4335   -7.9074 C   0  0  0  0  0  0  0  0  0  0  0  0
  -19.5928   25.2916    0.8180 C   0  0  0  0  0  0  0  0  0  0  0  0
  -20.9745   25.9291   -8.7101 N   0  0  0  0  0  0  0  0  0  0  0  0
  -22.9514   25.0059   -0.6784 C   0  0  0  0  0  0  0  0  0  0  0  0
  -23.9247   24.3913   -5.7544 C   0  0  0  0  0  0  0  0  0  0  0  0
  -22.8995   24.7922   -3.1907 C   0  0  0  0  0  0  0  0  0  0  0  0
  -24.2276   25.4484   -0.0647 C   0  0  0  0  0  0  0  0  0  0  0  0
  -19.8461   26.4857   -8.1126 C   0  0  0  0  0  0  0  0  0  0  0  0
  -21.9035   24.8236    0.3640 C   0  0  0  0  0  0  0  0  0  0  0  0
  -22.7019   24.9456   -5.5637 C   0  0  0  0  0  0  0  0  0  0  0  0
  -20.7630   25.9545   -5.9168 C   0  0  0  0  0  0  0  0  0  0  0  0
  1  8  1  0
  1 22  1  0
  2  9  1  0
  2 16  1  0
  3 20  2  0
  4 15  1  0
  4 17  1  0
  5 19  1  0
  5 22  2  0
  6 12  1  0
  6 21  1  0
  6 22  1  0
  7 18  1  0
  8 17  1  0
  8 21  1  0
  9 17  2  0
 10 11  1  0
 11 13  1  0
 11 20  1  0
 12 14  2  0
 14 19  1  0
 15 18  2  3
 15 20  1  0
 16 21  2  0
M  END
>  <ID>  (1) 
conformer_0

$$$$
