
     RDKit          3D

 13 15  0  0  0  0  0  0  0  0999 V2000
  -20.6971   25.4290   -4.4042 C   0  0  0  0  0  0  0  0  0  0  0  0
  -21.6485   25.1788   -2.3530 C   0  0  0  0  0  0  0  0  0  0  0  0
  -22.6314   25.3182   -3.2792 C   0  0  0  0  0  0  0  0  0  0  0  0
  -20.4254   26.1956   -6.5399 C   0  0  0  0  0  0  0  0  0  0  0  0
  -23.9286   25.3171   -2.8991 C   0  0  0  0  0  0  0  0  0  0  0  0
  -19.8993   25.7295   -5.4178 N   0  0  0  0  0  0  0  0  0  0  0  0
  -21.7277   26.2949   -6.7357 N   0  0  0  0  0  0  0  0  0  0  0  0
  -20.3521   25.0892   -3.0312 N   0  0  0  0  0  0  0  0  0  0  0  0
  -21.9049   25.2059   -1.0133 C   0  0  0  0  0  0  0  0  0  0  0  0
  -23.2291   25.3232   -0.6223 C   0  0  0  0  0  0  0  0  0  0  0  0
  -22.5314   25.9022   -5.7153 C   0  0  0  0  0  0  0  0  0  0  0  0
  -22.0519   25.5204   -4.5270 C   0  0  0  0  0  0  0  0  0  0  0  0
  -24.2685   25.3384   -1.5551 C   0  0  0  0  0  0  0  0  0  0  0  0
  1  6  1  0
  1  8  1  0
  1 12  2  0
  2  3  2  0
  2  8  1  0
  2  9  1  0
  3  5  1  0
  3 12  1  0
  4  6  2  0
  4  7  1  0
  5 13  2  0
  7 11  2  0
  9 10  2  0
 10 13  1  0
 11 12  1  0
M  END
>  <ID>  (1) 
conformer_0

$$$$
