
     RDKit          3D

 17 18  0  0  0  0  0  0  0  0999 V2000
  -22.8734   25.3264   -4.2804 C   0  0  0  0  0  0  0  0  0  0  0  0
  -21.5460   24.9089   -0.6551 C   0  0  0  0  0  0  0  0  0  0  0  0
  -20.1411   25.2441   -4.4322 N   0  0  0  0  0  0  0  0  0  0  0  0
  -22.2284   25.5157   -5.5234 C   0  0  0  0  0  0  0  0  0  0  0  0
  -24.8824   25.5719   -1.9012 O   0  0  0  0  0  1  0  0  0  0  0  0
  -22.1117   25.1526   -3.0330 C   0  0  0  0  0  0  0  0  0  0  0  0
  -24.2413   25.1574    0.0422 O   0  0  0  0  0  1  0  0  0  0  0  0
  -20.7173   25.0192   -3.2460 C   0  0  0  0  0  0  0  0  0  0  0  0
  -23.8874   25.2938   -1.1847 N   0  0  0  0  0  0  0  0  0  0  0  0
  -19.8393   24.6958   -2.2281 C   0  0  0  0  0  0  0  0  0  0  0  0
  -24.2208   25.2688   -4.4302 O   0  0  0  0  0  0  0  0  0  0  0  0
  -22.5299   25.1174   -1.6793 C   0  0  0  0  0  0  0  0  0  0  0  0
  -20.8270   25.5647   -5.5375 C   0  0  0  0  0  0  0  0  0  0  0  0
  -20.2369   24.6535   -0.9587 C   0  0  0  0  0  0  0  0  0  0  0  0
  -22.9714   25.6059   -6.8223 C   0  0  0  0  0  0  0  0  0  0  0  0
  -21.7665   24.9197    0.7095 O   0  0  0  0  0  0  0  0  0  0  0  0
  -20.0862   25.9822   -6.8163 C   0  0  0  0  0  0  0  0  0  0  0  0
  1  4  2  0
  1  6  1  0
  1 11  1  0
  2 12  2  0
  2 14  1  0
  2 16  1  0
  3  8  1  0
  3 13  2  0
  4 13  1  0
  4 15  1  0
  5  9  1  0
  6  8  2  0
  6 12  1  0
  7  9  1  0
  8 10  1  0
  9 12  1  0
 10 14  2  0
 13 17  1  0
M  END
>  <ID>  (1) 
conformer_0

$$$$
