
     RDKit          3D

 22 24  0  0  0  0  0  0  0  0999 V2000
  -21.5687   25.0855   -2.8832 C   0  0  0  0  0  0  0  0  0  0  0  0
  -23.3964   24.7567   -1.4202 C   0  0  0  0  0  0  0  0  0  0  0  0
  -18.2656   25.9342   -6.0730 O   0  0  0  0  0  0  0  0  0  0  0  0
  -22.9774   24.8489   -2.7196 C   0  0  0  0  0  0  0  0  0  0  0  0
  -24.9066   24.3548   -4.4013 C   0  0  0  0  0  0  0  0  0  0  0  0
  -20.3557   25.7802   -7.1318 C   0  0  0  0  0  0  0  0  0  0  0  0
  -21.3040   25.1943   -4.2818 C   0  0  0  0  0  0  0  0  0  0  0  0
  -23.6104   24.7752   -4.0323 C   0  0  0  0  0  0  0  0  0  0  0  0
  -25.8449   24.3132   -3.5985 O   0  0  0  0  0  0  0  0  0  0  0  0
  -20.2313   25.3754    0.6081 C   0  0  0  0  0  0  0  0  0  0  0  0
  -22.4869   24.6844   -0.3729 C   0  0  0  0  0  0  0  0  0  0  0  0
  -25.1595   23.9834   -5.5767 O   0  0  0  0  0  0  0  0  0  0  0  0
  -20.7174   25.2194   -1.8239 C   0  0  0  0  0  0  0  0  0  0  0  0
  -24.7340   24.7663   -1.1134 O   0  0  0  0  0  0  0  0  0  0  0  0
  -22.5584   25.0581   -5.0013 C   0  0  0  0  0  0  0  0  0  0  0  0
  -21.6709   25.6039   -7.2707 C   0  0  0  0  0  0  0  0  0  0  0  0
  -21.1686   25.0839   -0.5371 C   0  0  0  0  0  0  0  0  0  0  0  0
  -25.0008   25.8750   -0.2929 C   0  0  0  0  0  0  0  0  0  0  0  0
  -22.8439   24.0224    0.7820 F   0  0  0  0  0  0  0  0  0  0  0  0
  -22.6465   25.2714   -6.3503 C   0  0  0  0  0  0  0  0  0  0  0  0
  -20.0892   25.4227   -4.7464 C   0  0  0  0  0  0  0  0  0  0  0  0
  -19.5655   25.7016   -5.9748 C   0  0  0  0  0  0  0  0  0  0  0  0
  1  4  1  0
  1  7  1  0
  1 13  2  0
  2  4  2  0
  2 11  1  0
  2 14  1  0
  3 22  1  0
  4  8  1  0
  5  8  1  0
  5  9  2  0
  5 12  1  0
  6 16  1  0
  6 22  2  0
  7 15  1  0
  7 21  2  0
  8 15  1  0
 10 17  1  0
 11 17  1  0
 11 19  1  0
 13 17  1  0
 14 18  1  0
 15 20  1  0
 16 20  2  0
 21 22  1  0
M  END
>  <ID>  (1) 
conformer_0

$$$$
