
     RDKit          3D

 28 31  0  0  0  0  0  0  0  0999 V2000
  -22.5190   24.5659    0.7965 C   0  0  0  0  0  0  0  0  0  0  0  0
  -25.0765   23.0097   -5.2979 C   0  0  0  0  0  0  0  0  0  0  0  0
  -22.0664   24.7564   -0.4752 C   0  0  0  0  0  0  0  0  0  0  0  0
  -25.2928   25.7922   -0.6216 O   0  0  0  0  0  0  0  0  0  0  0  0
  -24.1216   23.9587   -4.9030 C   0  0  0  0  0  0  0  0  0  0  0  0
  -24.3980   24.3482   -3.3985 C   0  0  0  0  0  0  0  0  0  0  0  0
  -20.6960   24.7994   -0.7772 C   0  0  0  0  0  0  0  0  0  0  0  0
  -23.2177   24.9595   -1.3310 O   0  0  0  0  0  0  0  0  0  0  0  0
  -20.2829   25.0989   -2.2266 C   0  0  0  0  0  0  0  0  0  0  0  0
  -23.8734   24.6959    0.8985 N   0  0  0  0  0  0  0  0  0  0  0  0
  -19.8147   25.9827   -6.7880 N   0  0  0  0  0  0  0  0  0  0  0  0
  -21.7290   25.0851   -5.7803 C   0  0  0  0  0  0  0  0  0  0  0  0
  -21.8570   26.3671   -8.2456 Cl  0  0  0  0  0  0  0  0  0  0  0  0
  -24.2628   25.1403   -0.3436 C   0  0  0  0  0  0  0  0  0  0  0  0
  -24.1822   22.9157   -7.4554 N   0  0  0  0  0  0  0  0  0  0  0  0
  -20.2474   24.3845    1.5795 C   0  0  0  0  0  0  0  0  0  0  0  0
  -21.2599   26.1379   -2.6882 O   0  0  0  0  0  0  0  0  0  0  0  0
  -23.0277   24.3513   -5.8762 C   0  0  0  0  0  0  0  0  0  0  0  0
  -21.6380   24.3539    1.8539 C   0  0  0  0  0  0  0  0  0  0  0  0
  -20.6007   25.1881   -4.8293 C   0  0  0  0  0  0  0  0  0  0  0  0
  -21.1554   25.7604   -6.9272 C   0  0  0  0  0  0  0  0  0  0  0  0
  -19.8028   24.6481    0.2813 C   0  0  0  0  0  0  0  0  0  0  0  0
  -19.4908   25.6396   -5.4860 C   0  0  0  0  0  0  0  0  0  0  0  0
  -18.9156   24.8304   -2.3019 O   0  0  0  0  0  0  0  0  0  0  0  0
  -25.1314   22.4633   -6.4952 N   0  0  0  0  0  0  0  0  0  0  0  0
  -23.7035   25.3578   -2.6505 C   0  0  0  0  0  0  0  0  0  0  0  0
  -23.3167   23.8300   -7.1048 C   0  0  0  0  0  0  0  0  0  0  0  0
  -20.7574   25.0332   -3.4836 N   0  0  0  0  0  0  0  0  0  0  0  0
  1  3  2  0
  1 10  1  0
  1 19  1  0
  2  5  2  0
  2 25  1  0
  3  7  1  0
  3  8  1  0
  4 14  2  0
  5  6  1  0
  5 18  1  0
  6 26  1  0
  7  9  1  0
  7 22  2  0
  8 14  1  0
  9 17  1  0
  9 24  1  0
  9 28  1  0
 10 14  1  0
 11 21  1  0
 11 23  1  0
 12 18  1  0
 12 20  1  0
 12 21  1  0
 13 21  1  0
 15 25  2  0
 15 27  1  0
 16 19  2  0
 16 22  1  0
 18 27  2  0
 20 23  1  0
 20 28  2  3
M  END
>  <ID>  (1) 
conformer_0

$$$$
