
     RDKit          3D

 12 13  0  0  0  0  0  0  0  0999 V2000
  -23.5009   25.1021   -2.0518 C   0  0  0  0  0  0  0  0  0  0  0  0
  -21.9947   25.7052   -3.6230 C   0  0  0  0  0  0  0  0  0  0  0  0
  -24.6538   25.7297   -1.3773 C   0  0  0  0  0  0  0  0  0  0  0  0
  -19.4006   26.1453   -6.1829 C   0  0  0  0  0  0  0  0  0  0  0  0
  -23.3349   25.5915   -3.4164 O   0  0  0  0  0  0  0  0  0  0  0  0
  -22.1222   26.1009   -5.9923 C   0  0  0  0  0  0  0  0  0  0  0  0
  -21.5333   26.4408   -7.2006 C   0  0  0  0  0  0  0  0  0  0  0  0
  -20.1506   26.4726   -7.2727 C   0  0  0  0  0  0  0  0  0  0  0  0
  -20.0178   25.8369   -4.9876 C   0  0  0  0  0  0  0  0  0  0  0  0
  -21.3924   25.8658   -4.8743 C   0  0  0  0  0  0  0  0  0  0  0  0
  -21.3395   25.7082   -2.4472 O   0  0  0  0  0  0  0  0  0  0  0  0
  -22.2895   25.5298   -1.3850 C   0  0  0  0  0  0  0  0  0  0  0  0
  1  3  1  0
  1  5  1  0
  1 12  1  0
  2  5  1  0
  2 10  2  3
  2 11  1  0
  4  8  2  0
  4  9  1  0
  6  7  2  0
  6 10  1  0
  7  8  1  0
  9 10  1  0
 11 12  1  0
M  END
>  <ID>  (1) 
conformer_0

$$$$
