
     RDKit          3D

 27 31  0  0  0  0  0  0  0  0999 V2000
  -20.2414   24.8073    0.4661 C   0  0  0  0  0  0  0  0  0  0  0  0
  -22.4074   24.5259    1.5759 C   0  0  0  0  0  0  0  0  0  0  0  0
  -21.9850   25.0416   -2.8199 C   0  0  0  0  0  0  0  0  0  0  0  0
  -20.1499   25.6285   -6.4945 C   0  0  0  0  0  0  0  0  0  0  0  0
  -20.8752   25.3102   -3.2922 O   0  0  0  0  0  0  0  0  0  0  0  0
  -21.8264   25.9225   -8.0580 C   0  0  0  0  0  0  0  0  0  0  0  0
  -23.1788   24.6755   -0.8004 C   0  0  0  0  0  0  0  0  0  0  0  0
  -23.1738   25.0271   -4.9572 C   0  0  0  0  0  0  0  0  0  0  0  0
  -23.3036   24.5383    0.5696 C   0  0  0  0  0  0  0  0  0  0  0  0
  -22.4630   25.8516   -5.6908 N   0  0  0  0  0  0  0  0  0  0  0  0
  -21.5912   25.5067   -6.6846 C   0  0  0  0  0  0  0  0  0  0  0  0
  -24.2025   24.1895   -5.5244 C   0  0  0  0  0  0  0  0  0  0  0  0
  -24.3618   24.3728   -3.0218 C   0  0  0  0  0  0  0  0  0  0  0  0
  -19.5602   26.0879   -7.6359 C   0  0  0  0  0  0  0  0  0  0  0  0
  -24.3156   24.4812   -1.6346 N   0  0  0  0  0  0  0  0  0  0  0  0
  -26.3499   23.8803   -4.5689 O   0  0  0  0  0  0  0  0  0  0  0  0
  -20.7090   24.9827   -0.7811 C   0  0  0  0  0  0  0  0  0  0  0  0
  -21.9206   24.9102   -1.4042 C   0  0  0  0  0  0  0  0  0  0  0  0
  -18.0125   25.5408   -5.4527 C   0  0  0  0  0  0  0  0  0  0  0  0
  -21.0411   24.5785    1.5751 C   0  0  0  0  0  0  0  0  0  0  0  0
  -19.3406   25.3419   -5.4127 C   0  0  0  0  0  0  0  0  0  0  0  0
  -25.0733   23.6484   -4.2285 C   0  0  0  0  0  0  0  0  0  0  0  0
  -23.1162   24.8863   -3.5760 N   0  0  0  0  0  0  0  0  0  0  0  0
  -18.2077   26.3313   -7.7253 C   0  0  0  0  0  0  0  0  0  0  0  0
  -24.9637   22.2661   -3.9104 O   0  0  0  0  0  0  0  0  0  0  0  0
  -17.4302   26.0430   -6.5936 C   0  0  0  0  0  0  0  0  0  0  0  0
  -20.5170   26.2326   -8.6483 O   0  0  0  0  0  0  0  0  0  0  0  0
  1 17  2  0
  1 20  1  0
  2  9  2  0
  2 20  1  0
  3  5  2  0
  3 18  1  0
  3 23  1  0
  4 11  1  0
  4 14  2  0
  4 21  1  0
  6 11  1  0
  6 27  1  0
  7  9  1  0
  7 15  1  0
  7 18  2  0
  8 10  2  3
  8 12  1  0
  8 23  1  0
 10 11  1  0
 12 22  1  0
 13 15  2  0
 13 22  1  0
 13 23  1  0
 14 24  1  0
 14 27  1  0
 16 22  1  0
 17 18  1  0
 19 21  2  0
 19 26  1  0
 22 25  1  0
 24 26  2  0
M  END
>  <ID>  (1) 
conformer_0

$$$$
