
     RDKit          3D

 31 34  0  0  0  0  0  0  0  0999 V2000
  -22.6440   23.8722   -7.5513 C   0  0  0  0  0  0  0  0  0  0  0  0
  -20.7230   25.4589   -5.9939 C   0  0  0  0  0  0  0  0  0  0  0  0
  -24.4909   25.6501   -1.0539 C   0  0  0  0  0  0  0  0  0  0  0  0
  -21.8545   24.7218   -0.6564 C   0  0  0  0  0  0  0  0  0  0  0  0
  -22.4363   23.5036    1.2008 C   0  0  0  0  0  0  0  0  0  0  0  0
  -23.7584   23.3762   -9.6253 C   0  0  0  0  0  0  0  0  0  0  0  0
  -23.6134   25.4186   -2.1642 C   0  0  0  0  0  0  0  0  0  0  0  0
  -18.7112   26.2044   -6.6875 C   0  0  0  0  0  0  0  0  0  0  0  0
  -20.1026   23.3441   -1.6138 C   0  0  0  0  0  0  0  0  0  0  0  0
  -23.3521   24.6061  -10.1568 C   0  0  0  0  0  0  0  0  0  0  0  0
  -16.3519   26.2812   -6.6011 C   0  0  0  0  0  0  0  0  0  0  0  0
  -20.2164   24.7439   -3.6778 O   0  0  0  0  0  0  0  0  0  0  0  0
  -24.2440   25.2490   -3.4862 C   0  0  0  0  0  0  0  0  0  0  0  0
  -21.1316   23.0983    0.7560 O   0  0  0  0  0  0  0  0  0  0  0  0
  -21.3331   25.9593   -7.1647 C   0  0  0  0  0  0  0  0  0  0  0  0
  -18.2532   24.4940   -2.4535 O   0  0  0  0  0  0  0  0  0  0  0  0
  -19.8340   25.3156   -4.9330 C   0  0  0  0  0  0  0  0  0  0  0  0
  -20.0078   26.0098   -7.0867 N   0  0  0  0  0  0  0  0  0  0  0  0
  -22.1654   25.0894   -8.0389 C   0  0  0  0  0  0  0  0  0  0  0  0
  -22.2300   24.9886   -2.0323 C   0  0  0  0  0  0  0  0  0  0  0  0
  -18.5527   25.5874   -5.4010 C   0  0  0  0  0  0  0  0  0  0  0  0
  -22.5475   25.4509   -9.3704 C   0  0  0  0  0  0  0  0  0  0  0  0
  -21.4502   25.2934   -3.2293 C   0  0  0  0  0  0  0  0  0  0  0  0
  -21.9900   27.1295   -7.0488 O   0  0  0  0  0  0  0  0  0  0  0  0
  -20.7746   23.7828   -0.3848 C   0  0  0  0  0  0  0  0  0  0  0  0
  -25.4060   24.4933   -3.3794 O   0  0  0  0  0  0  0  0  0  0  0  0
  -24.1035   25.2235    0.2435 C   0  0  0  0  0  0  0  0  0  0  0  0
  -23.4078   23.0231   -8.3271 C   0  0  0  0  0  0  0  0  0  0  0  0
  -22.8300   24.5598    0.3747 C   0  0  0  0  0  0  0  0  0  0  0  0
  -17.5338   26.5914   -7.4509 C   0  0  0  0  0  0  0  0  0  0  0  0
  -19.4560   24.1747   -2.6302 C   0  0  0  0  0  0  0  0  0  0  0  0
  1 19  2  0
  1 28  1  0
  2 15  1  0
  2 17  1  0
  3  7  1  0
  3 27  2  0
  4 20  1  0
  4 25  1  0
  4 29  1  0
  5 14  1  0
  5 29  1  0
  6 10  1  0
  6 28  2  0
  7 13  1  0
  7 20  1  0
  8 18  1  0
  8 21  1  0
  8 30  1  0
  9 25  1  0
  9 31  1  0
 10 22  2  0
 11 30  1  0
 12 17  1  0
 12 31  1  0
 13 26  1  0
 14 25  1  0
 15 18  1  0
 15 19  1  0
 15 24  1  0
 16 31  2  0
 17 21  1  0
 19 22  1  0
 20 23  1  0
 27 29  1  0
M  END
>  <ID>  (1) 
conformer_0

$$$$
