
     RDKit          3D

 11 11  0  0  0  0  0  0  0  0999 V2000
  -23.9264   25.4472   -2.8617 C   0  0  0  0  0  0  0  0  0  0  0  0
  -21.6945   25.6993   -3.3816 C   0  0  0  0  0  0  0  0  0  0  0  0
  -23.7512   25.3575   -0.4866 O   0  0  0  0  0  0  0  0  0  0  0  0
  -22.9450   25.4634   -3.8901 C   0  0  0  0  0  0  0  0  0  0  0  0
  -22.2949   25.3505   -7.4620 N   0  0  0  0  0  0  0  0  0  0  0  0
  -20.6304   25.6850   -4.2433 C   0  0  0  0  0  0  0  0  0  0  0  0
  -23.1441   25.3231   -5.2407 C   0  0  0  0  0  0  0  0  0  0  0  0
  -21.7721   25.9388   -1.9828 F   0  0  0  0  0  0  0  0  0  0  0  0
  -20.8358   25.5458   -5.5810 N   0  0  0  0  0  0  0  0  0  0  0  0
  -22.0946   25.4104   -6.0748 C   0  0  0  0  0  0  0  0  0  0  0  0
  -23.1979   25.8243   -1.6177 C   0  0  0  0  0  0  0  0  0  0  0  0
  1  4  1  0
  1 11  1  0
  2  4  1  0
  2  6  1  0
  2  8  1  0
  3 11  1  0
  4  7  2  0
  5 10  2  0
  6  9  2  0
  7 10  1  0
  9 10  1  0
M  END
>  <ID>  (1) 
conformer_0

$$$$
