
     RDKit          3D

 30 32  0  0  0  0  0  0  0  0999 V2000
  -24.3431   24.8780   -4.1704 C   0  0  0  0  0  0  0  0  0  0  0  0
  -17.5208   25.0579   -1.0285 C   0  0  0  0  0  0  0  0  0  0  0  0
  -21.2222   25.0593    1.1557 O   0  0  0  0  0  0  0  0  0  0  0  0
  -19.0217   25.2992    2.1181 C   0  0  0  0  0  0  0  0  0  0  0  0
  -19.1509   25.6040   -5.9863 C   0  0  0  0  0  0  0  0  0  0  0  0
  -17.4763   25.0858   -3.8662 C   0  0  0  0  0  0  0  0  0  0  0  0
  -19.0983   24.8242   -1.1480 C   0  0  0  0  0  0  0  0  0  0  0  0
  -22.4514   24.8375    1.1295 C   0  0  0  0  0  0  0  0  0  0  0  0
  -21.0721   24.8640   -2.6109 C   0  0  0  0  0  0  0  0  0  0  0  0
  -24.3982   25.1481   -2.9648 N   0  0  0  0  0  0  0  0  0  0  0  0
  -18.8994   24.9774   -3.6506 N   0  0  0  0  0  0  0  0  0  0  0  0
  -24.5737   24.3144   -5.2657 N   0  0  0  0  0  0  0  0  0  0  0  0
  -24.1914   23.8497   -6.3597 N   0  0  0  0  0  0  0  0  0  0  0  0
  -16.9418   25.3038   -5.1592 C   0  0  0  0  0  0  0  0  0  0  0  0
  -20.1946   23.0957    1.8970 O   0  0  0  0  0  0  0  0  0  0  0  0
  -23.1547   24.1603   -7.1578 C   0  0  0  0  0  0  0  0  0  0  0  0
  -19.9818   24.3116    1.2561 C   0  0  0  0  0  0  0  0  0  0  0  0
  -19.4470   24.0157   -0.0934 N   0  0  0  0  0  0  0  0  0  0  0  0
  -19.9447   25.9127   -7.1462 C   0  0  0  0  0  0  0  0  0  0  0  0
  -21.3787   25.9557   -7.1960 C   0  0  0  0  0  0  0  0  0  0  0  0
  -23.6582   25.0625    0.6098 C   0  0  0  0  0  0  0  0  0  0  0  0
  -19.6168   25.2393   -4.7880 O   0  0  0  0  0  0  0  0  0  0  0  0
  -19.6538   24.3417   -2.4929 C   0  0  0  0  0  0  0  0  0  0  0  0
  -19.5482   23.0313   -2.5553 O   0  0  0  0  0  0  0  0  0  0  0  0
  -17.7281   25.7496   -6.2270 C   0  0  0  0  0  0  0  0  0  0  0  0
  -23.5809   25.0730   -1.8883 C   0  0  0  0  0  0  0  0  0  0  0  0
  -22.2427   24.9166   -2.0783 C   0  0  0  0  0  0  0  0  0  0  0  0
  -24.1614   25.1922   -0.5756 C   0  0  0  0  0  0  0  0  0  0  0  0
  -22.1447   24.8900   -6.9834 C   0  0  0  0  0  0  0  0  0  0  0  0
  -21.9612   27.1582   -7.3407 O   0  0  0  0  0  0  0  0  0  0  0  0
  1 10  1  0
  1 12  1  0
  2  7  1  0
  3  8  1  0
  3 17  1  0
  4 17  1  0
  5 19  2  0
  5 22  1  0
  5 25  1  0
  6 11  1  0
  6 14  1  0
  7 18  1  0
  7 23  1  0
  8 21  1  0
  9 23  1  0
  9 27  2  0
 10 26  1  0
 11 22  1  0
 11 23  1  0
 12 13  1  0
 13 16  2  0
 14 25  1  0
 15 17  1  0
 16 29  1  0
 17 18  1  0
 19 20  1  0
 20 29  1  0
 20 30  1  0
 21 28  2  0
 23 24  1  0
 26 27  2  0
 26 28  1  0
M  END
>  <ID>  (1) 
conformer_0

$$$$
