
     RDKit          3D

 19 21  0  0  0  0  0  0  0  0999 V2000
  -19.4587   23.6067   -2.9729 O   0  0  0  0  0  0  0  0  0  0  0  0
  -24.9779   25.4746   -2.3911 O   0  0  0  0  0  0  0  0  0  0  0  0
  -24.1143   25.0750   -1.3863 C   0  0  0  0  0  0  0  0  0  0  0  0
  -22.8694   24.5041   -1.7537 C   0  0  0  0  0  0  0  0  0  0  0  0
  -21.9580   24.2045   -0.7815 N   0  0  0  0  0  0  0  0  0  0  0  0
  -24.4384   25.2449   -0.0772 C   0  0  0  0  0  0  0  0  0  0  0  0
  -23.4780   24.8907    0.8971 C   0  0  0  0  0  0  0  0  0  0  0  0
  -22.4921   25.8783   -6.3176 C   0  0  0  0  0  0  0  0  0  0  0  0
  -23.0039   25.2798   -5.1938 C   0  0  0  0  0  0  0  0  0  0  0  0
  -20.7928   25.0780   -4.2809 C   0  0  0  0  0  0  0  0  0  0  0  0
  -22.6966   24.1400   -3.0934 C   0  0  0  0  0  0  0  0  0  0  0  0
  -22.2549   24.3912    0.5125 C   0  0  0  0  0  0  0  0  0  0  0  0
  -19.9583   24.8199   -3.1683 C   0  0  0  0  0  0  0  0  0  0  0  0
  -19.0526   26.7056   -6.9932 C   0  0  0  0  0  0  0  0  0  0  0  0
  -22.1568   24.8695   -4.1795 C   0  0  0  0  0  0  0  0  0  0  0  0
  -20.3077   25.6481   -5.4453 C   0  0  0  0  0  0  0  0  0  0  0  0
  -19.0052   25.9288   -5.7899 O   0  0  0  0  0  0  0  0  0  0  0  0
  -21.1263   26.0692   -6.4215 C   0  0  0  0  0  0  0  0  0  0  0  0
  -20.4457   26.6977   -7.4338 O   0  0  0  0  0  0  0  0  0  0  0  0
  1 13  1  0
  2  3  1  0
  3  4  1  0
  3  6  2  0
  4  5  1  0
  4 11  1  0
  5 12  2  0
  6  7  1  0
  7 12  1  0
  8  9  2  0
  8 18  1  0
  9 15  1  0
 10 13  1  0
 10 15  2  0
 10 16  1  0
 11 15  1  0
 14 17  1  0
 14 19  1  0
 16 17  1  0
 16 18  2  0
 18 19  1  0
M  END
>  <ID>  (1) 
conformer_0

$$$$
