
     RDKit          3D

 17 19  0  0  0  0  0  0  0  0999 V2000
  -20.7969   25.3210   -3.9375 C   0  0  0  0  0  0  0  0  0  0  0  0
  -24.3793   24.6543   -3.0591 C   0  0  0  0  0  0  0  0  0  0  0  0
  -19.1723   26.5230   -6.8016 N   0  0  0  0  0  0  0  0  0  0  0  0
  -23.0014   25.0639   -2.6048 C   0  0  0  0  0  0  0  0  0  0  0  0
  -20.3193   25.6419   -5.1839 C   0  0  0  0  0  0  0  0  0  0  0  0
  -22.4315   25.2065   -6.2263 C   0  0  0  0  0  0  0  0  0  0  0  0
  -25.2849   24.1581   -5.2568 O   0  0  0  0  0  0  0  0  0  0  0  0
  -22.1744   25.1095   -3.7410 C   0  0  0  0  0  0  0  0  0  0  0  0
  -20.4306   26.2908   -7.2883 N   0  0  0  0  0  0  0  0  0  0  0  0
  -21.1233   25.7004   -6.2902 C   0  0  0  0  0  0  0  0  0  0  0  0
  -19.1169   26.0754   -5.5545 N   0  0  0  0  0  0  0  0  0  0  0  0
  -21.6810   25.4254   -0.7615 O   0  0  0  0  0  0  0  0  0  0  0  0
  -22.9716   24.9228   -4.9399 C   0  0  0  0  0  0  0  0  0  0  0  0
  -24.2975   24.5660   -4.4992 C   0  0  0  0  0  0  0  0  0  0  0  0
  -23.1194   24.9797   -7.2988 O   0  0  0  0  0  0  0  0  0  0  0  0
  -22.8320   25.4761   -1.2419 C   0  0  0  0  0  0  0  0  0  0  0  0
  -24.1124   25.7902   -0.4630 C   0  0  0  0  0  0  0  0  0  0  0  0
  1  5  2  0
  1  8  1  0
  2  4  1  0
  2 14  1  0
  3  9  1  0
  3 11  1  0
  4  8  1  0
  4 16  1  0
  5 10  1  0
  5 11  1  0
  6 10  2  0
  6 13  1  0
  6 15  1  0
  7 14  1  0
  8 13  2  0
  9 10  1  0
 12 16  2  0
 13 14  1  0
 16 17  1  0
M  END
>  <ID>  (1) 
conformer_0

$$$$
