
     RDKit          3D

 21 25  0  0  0  0  0  0  0  0999 V2000
  -19.7286   24.7443   -3.2842 C   0  0  0  0  0  0  0  0  0  0  0  0
  -22.5006   25.5093   -6.0185 C   0  0  0  0  0  0  0  0  0  0  0  0
  -21.0603   24.8271   -2.5131 C   0  0  0  0  0  0  0  0  0  0  0  0
  -24.2006   24.5330   -2.9554 C   0  0  0  0  0  0  0  0  0  0  0  0
  -20.6468   26.5960   -7.6144 C   0  0  0  0  0  0  0  0  0  0  0  0
  -19.2617   26.9262   -7.2533 C   0  0  0  0  0  0  0  0  0  0  0  0
  -21.9319   25.0403   -0.0219 N   0  0  0  0  0  0  0  0  0  0  0  0
  -21.2432   25.9773   -6.4574 C   0  0  0  0  0  0  0  0  0  0  0  0
  -20.3809   24.8469   -4.4892 C   0  0  0  0  0  0  0  0  0  0  0  0
  -19.0206   26.1055   -6.1063 O   0  0  0  0  0  0  0  0  0  0  0  0
  -21.5614   22.9486   -1.0187 C   0  0  0  0  0  0  0  0  0  0  0  0
  -20.1620   25.5979   -5.6221 C   0  0  0  0  0  0  0  0  0  0  0  0
  -21.9610   24.3794   -1.3255 C   0  0  0  0  0  0  0  0  0  0  0  0
  -23.3783   24.6549   -1.7438 C   0  0  0  0  0  0  0  0  0  0  0  0
  -19.6648   24.9101    0.7571 O   0  0  0  0  0  0  0  0  0  0  0  0
  -22.7203   25.0667   -4.7158 C   0  0  0  0  0  0  0  0  0  0  0  0
  -24.1409   25.1348   -0.5734 C   0  0  0  0  0  0  0  0  0  0  0  0
  -24.0217   24.9667   -4.2231 N   0  0  0  0  0  0  0  0  0  0  0  0
  -20.9145   25.0879    0.9565 C   0  0  0  0  0  0  0  0  0  0  0  0
  -23.2476   25.1565    0.5604 C   0  0  0  0  0  0  0  0  0  0  0  0
  -21.6638   24.7895   -3.8285 C   0  0  0  0  0  0  0  0  0  0  0  0
  1  3  1  0
  1  9  1  0
  2  8  1  0
  2 16  2  0
  3 13  1  0
  3 21  1  0
  4 14  1  0
  4 18  1  0
  5  6  1  0
  5  8  1  0
  6 10  1  0
  7 13  1  0
  7 19  1  0
  7 20  1  0
  8 12  2  0
  9 12  1  0
  9 21  1  0
 10 12  1  0
 11 13  1  0
 13 14  1  0
 14 17  1  0
 15 19  2  0
 16 18  1  0
 16 21  1  0
 17 20  1  0
M  END
>  <ID>  (1) 
conformer_0

$$$$
