
     RDKit          3D

 27 30  0  0  0  0  0  0  0  0999 V2000
  -21.5350   24.6707   -1.2531 C   0  0  0  0  0  0  0  0  0  0  0  0
  -21.6622   25.9636   -7.6730 N   0  0  0  0  0  0  0  0  0  0  0  0
  -18.9897   24.0486   -3.2448 O   0  0  0  0  0  0  0  0  0  0  0  0
  -24.4292   23.7607   -6.5882 C   0  0  0  0  0  0  0  0  0  0  0  0
  -18.4364   23.9592    1.4876 C   0  0  0  0  0  0  0  0  0  0  0  0
  -23.3020   24.6202   -6.7918 N   0  0  0  0  0  0  0  0  0  0  0  0
  -21.3958   25.6820   -6.3049 C   0  0  0  0  0  0  0  0  0  0  0  0
  -22.8484   24.9146   -0.8661 C   0  0  0  0  0  0  0  0  0  0  0  0
  -25.0251   25.6716   -0.7259 C   0  0  0  0  0  0  0  0  0  0  0  0
  -20.5186   24.4613   -0.2978 C   0  0  0  0  0  0  0  0  0  0  0  0
  -22.4796   24.9997   -5.7452 C   0  0  0  0  0  0  0  0  0  0  0  0
  -23.9132   25.5833   -1.5700 C   0  0  0  0  0  0  0  0  0  0  0  0
  -20.1026   25.4622   -4.4495 N   0  0  0  0  0  0  0  0  0  0  0  0
  -20.0012   24.6244   -3.3867 C   0  0  0  0  0  0  0  0  0  0  0  0
  -21.2275   24.4754   -2.6509 C   0  0  0  0  0  0  0  0  0  0  0  0
  -22.8181   24.7572   -4.4550 N   0  0  0  0  0  0  0  0  0  0  0  0
  -24.6540   25.0157    0.5123 C   0  0  0  0  0  0  0  0  0  0  0  0
  -23.3272   24.5333    0.3888 C   0  0  0  0  0  0  0  0  0  0  0  0
  -20.3791   25.2126    0.8397 C   0  0  0  0  0  0  0  0  0  0  0  0
  -22.8839   25.2960   -7.9634 C   0  0  0  0  0  0  0  0  0  0  0  0
  -22.2684   25.0506   -3.3534 C   0  0  0  0  0  0  0  0  0  0  0  0
  -18.5240   23.2293    0.3036 C   0  0  0  0  0  0  0  0  0  0  0  0
  -19.3578   24.9701    1.7511 C   0  0  0  0  0  0  0  0  0  0  0  0
  -23.4771   25.3145   -9.0934 O   0  0  0  0  0  0  0  0  0  0  0  0
  -20.2374   25.9704   -5.6713 N   0  0  0  0  0  0  0  0  0  0  0  0
  -19.5928   23.4532   -0.5588 C   0  0  0  0  0  0  0  0  0  0  0  0
  -25.3818   24.1045   -5.5552 O   0  0  0  0  0  0  0  0  0  0  0  0
  1  8  1  0
  1 10  1  0
  1 15  1  0
  2  7  1  0
  2 20  1  0
  3 14  2  0
  4  6  1  0
  4 27  1  0
  5 22  2  0
  5 23  1  0
  6 11  1  0
  6 20  1  0
  7 11  1  0
  7 25  2  0
  8 12  1  0
  8 18  1  0
  9 12  1  0
  9 17  1  0
 10 19  1  0
 10 26  2  0
 11 16  2  0
 13 14  1  0
 13 25  1  0
 14 15  1  0
 15 21  1  0
 16 21  1  0
 17 18  1  0
 19 23  2  0
 20 24  2  0
 22 26  1  0
M  END
>  <ID>  (1) 
conformer_0

$$$$
