
     RDKit          3D

 25 28  0  0  0  0  0  0  0  0999 V2000
  -22.4428   26.2715   -7.7753 O   0  0  0  0  0  0  0  0  0  0  0  0
  -21.6920   24.0722    0.9776 C   0  0  0  0  0  0  0  0  0  0  0  0
  -24.0558   24.8534   -3.4175 N   0  0  0  0  0  0  0  0  0  0  0  0
  -24.4100   23.8547   -6.7176 N   0  0  0  0  0  0  0  0  0  0  0  0
  -19.8082   25.5912   -5.4434 C   0  0  0  0  0  0  0  0  0  0  0  0
  -24.0833   25.7393   -1.3187 C   0  0  0  0  0  0  0  0  0  0  0  0
  -19.5967   26.8248   -7.4744 C   0  0  0  0  0  0  0  0  0  0  0  0
  -22.7696   25.0523   -3.4046 O   0  0  0  0  0  0  0  0  0  0  0  0
  -17.6299   26.2626   -6.2390 C   0  0  0  0  0  0  0  0  0  0  0  0
  -18.2147   26.8873   -7.2989 C   0  0  0  0  0  0  0  0  0  0  0  0
  -24.7022   24.5595   -4.5234 N   0  0  0  0  0  0  0  0  0  0  0  0
  -24.0758   24.3120    0.8757 C   0  0  0  0  0  0  0  0  0  0  0  0
  -22.7153   25.4461   -0.8742 C   0  0  0  0  0  0  0  0  0  0  0  0
  -21.8568   23.2639    2.1087 C   0  0  0  0  0  0  0  0  0  0  0  0
  -22.8024   24.5927    0.3539 C   0  0  0  0  0  0  0  0  0  0  0  0
  -20.4204   26.1108   -6.5651 C   0  0  0  0  0  0  0  0  0  0  0  0
  -21.8371   25.8748   -6.7035 C   0  0  0  0  0  0  0  0  0  0  0  0
  -22.6774   25.1712   -5.6838 N   0  0  0  0  0  0  0  0  0  0  0  0
  -23.9535   24.5566   -5.6322 C   0  0  0  0  0  0  0  0  0  0  0  0
  -23.1365   22.9635    2.6031 C   0  0  0  0  0  0  0  0  0  0  0  0
  -21.9587   25.0826   -4.4672 C   0  0  0  0  0  0  0  0  0  0  0  0
  -20.5940   25.0642   -4.4174 N   0  0  0  0  0  0  0  0  0  0  0  0
  -24.7063   24.8411   -2.2268 N   0  0  0  0  0  0  0  0  0  0  0  0
  -24.2413   23.4849    1.9446 C   0  0  0  0  0  0  0  0  0  0  0  0
  -18.4232   25.6231   -5.3001 C   0  0  0  0  0  0  0  0  0  0  0  0
  1 17  2  0
  2 14  2  0
  2 15  1  0
  3  8  1  0
  3 11  1  0
  3 23  1  0
  4 19  2  0
  5 16  2  0
  5 22  1  0
  5 25  1  0
  6 13  1  0
  6 23  1  0
  7 10  1  0
  7 16  1  0
  8 21  1  0
  9 10  2  0
  9 25  1  0
 11 19  1  0
 12 15  2  0
 12 24  1  0
 13 15  1  0
 14 20  1  0
 16 17  1  0
 17 18  1  0
 18 19  1  0
 18 21  1  0
 20 24  2  0
 21 22  2  0
M  END
>  <ID>  (1) 
conformer_0

$$$$
