
     RDKit          3D

 15 16  0  0  0  0  0  0  0  0999 V2000
  -22.3907   25.5062   -3.3650 C   0  0  0  0  0  0  0  0  0  0  0  0
  -23.4176   25.3499   -5.5708 C   0  0  0  0  0  0  0  0  0  0  0  0
  -23.9033   25.2514   -1.3336 C   0  0  0  0  0  0  0  0  0  0  0  0
  -21.0835   25.7548   -5.4739 C   0  0  0  0  0  0  0  0  0  0  0  0
  -22.6283   25.7322   -1.9880 C   0  0  0  0  0  0  0  0  0  0  0  0
  -22.2949   25.8454   -6.1965 C   0  0  0  0  0  0  0  0  0  0  0  0
  -20.0321   26.0740   -7.6557 C   0  0  0  0  0  0  0  0  0  0  0  0
  -21.1471   25.6392   -4.0608 C   0  0  0  0  0  0  0  0  0  0  0  0
  -24.5957   24.7673   -3.6144 N   0  0  0  0  0  0  0  0  0  0  0  0
  -23.4627   25.2190   -4.2037 C   0  0  0  0  0  0  0  0  0  0  0  0
  -24.7282   24.5410   -2.3455 N   0  0  0  0  0  0  0  0  0  0  0  0
  -24.7538   26.2380   -0.7643 O   0  0  0  0  0  0  0  0  0  0  0  0
  -19.8790   26.2543   -6.1809 C   0  0  0  0  0  0  0  0  0  0  0  0
  -20.0487   25.4415   -3.4198 O   0  0  0  0  0  0  0  0  0  0  0  0
  -23.5084   24.3727   -0.1325 C   0  0  0  0  0  0  0  0  0  0  0  0
  1  5  1  0
  1  8  1  0
  1 10  1  0
  2  6  1  0
  2 10  1  0
  3  5  1  0
  3 11  1  0
  3 12  1  0
  3 15  1  0
  4  6  1  0
  4  8  1  0
  4 13  1  0
  7 13  1  0
  8 14  1  0
  9 10  2  0
  9 11  1  0
M  END
>  <ID>  (1) 
conformer_0

$$$$
