
     RDKit          3D

 15 17  0  0  0  0  0  0  0  0999 V2000
  -19.5191   25.8180   -5.7407 N   0  0  0  0  0  0  0  0  0  0  0  0
  -24.6525   25.5446   -1.1252 Cl  0  0  0  0  0  0  0  0  0  0  0  0
  -23.1055   25.1056   -5.2068 C   0  0  0  0  0  0  0  0  0  0  0  0
  -23.3475   25.1964   -1.6035 C   0  0  0  0  0  0  0  0  0  0  0  0
  -21.4815   24.9899   -2.9129 C   0  0  0  0  0  0  0  0  0  0  0  0
  -23.6441   25.2110   -4.0256 N   0  0  0  0  0  0  0  0  0  0  0  0
  -20.7171   26.8080   -7.3669 N   0  0  0  0  0  0  0  0  0  0  0  0
  -22.2454   25.1752   -0.7035 C   0  0  0  0  0  0  0  0  0  0  0  0
  -21.8558   26.2965   -6.9101 C   0  0  0  0  0  0  0  0  0  0  0  0
  -19.5267   26.6543   -6.7618 C   0  0  0  0  0  0  0  0  0  0  0  0
  -20.6145   25.4220   -5.0839 C   0  0  0  0  0  0  0  0  0  0  0  0
  -21.0555   25.0267   -1.5320 C   0  0  0  0  0  0  0  0  0  0  0  0
  -20.5362   24.9024   -3.8540 N   0  0  0  0  0  0  0  0  0  0  0  0
  -21.8763   25.6335   -5.6781 C   0  0  0  0  0  0  0  0  0  0  0  0
  -22.8850   25.1470   -2.9191 C   0  0  0  0  0  0  0  0  0  0  0  0
  1 10  2  0
  1 11  1  0
  2  4  1  0
  3  6  1  0
  3 14  1  0
  4  8  1  0
  4 15  1  0
  5 12  1  0
  5 13  1  0
  5 15  2  0
  6 15  1  0
  7  9  2  0
  7 10  1  0
  8 12  1  0
  9 14  1  0
 11 13  1  0
 11 14  2  0
M  END
>  <ID>  (1) 
conformer_0

$$$$
