
     RDKit          3D

 11 11  0  0  0  0  0  0  0  0999 V2000
  -21.0381   25.6532   -3.2022 C   0  0  0  0  0  0  0  0  0  0  0  0
  -24.2750   25.5822   -1.3960 C   0  0  0  0  0  0  0  0  0  0  0  0
  -21.4623   25.6414   -4.5244 C   0  0  0  0  0  0  0  0  0  0  0  0
  -21.9563   25.6051   -2.1914 C   0  0  0  0  0  0  0  0  0  0  0  0
  -20.4413   25.8489   -5.5487 C   0  0  0  0  0  0  0  0  0  0  0  0
  -19.3865   25.2282   -5.4771 O   0  0  0  0  0  0  0  0  0  0  0  0
  -20.6117   26.8418   -6.2915 O   0  0  0  0  0  0  0  0  0  0  0  0
  -21.4731   25.5827   -0.9090 N   0  0  0  0  0  0  0  0  0  0  0  0
  -23.2950   25.5449   -2.4501 C   0  0  0  0  0  0  0  0  0  0  0  0
  -23.7190   25.4376   -3.7488 C   0  0  0  0  0  0  0  0  0  0  0  0
  -22.7929   25.4933   -4.7966 C   0  0  0  0  0  0  0  0  0  0  0  0
  1  3  1  0
  1  4  1  0
  2  9  1  0
  3  5  1  0
  3 11  2  0
  4  8  1  0
  4  9  2  0
  5  6  2  0
  5  7  1  0
  9 10  1  0
 10 11  1  0
M  END
>  <ID>  (1) 
conformer_0

$$$$
