
     RDKit          3D

 32 36  0  0  0  0  0  0  0  0999 V2000
  -17.9990   24.1706   -0.9846 N   0  0  0  0  0  0  0  0  0  0  0  0
  -19.6096   26.1661   -8.3757 C   0  0  0  0  0  0  0  0  0  0  0  0
  -22.3937   25.9994   -9.0422 O   0  0  0  0  0  0  0  0  0  0  0  0
  -19.0430   24.9458    0.8362 C   0  0  0  0  0  0  0  0  0  0  0  0
  -24.1608   25.4596   -2.2812 C   0  0  0  0  0  0  0  0  0  0  0  0
  -21.9720   20.9723    3.7176 O   0  0  0  0  0  0  0  0  0  0  0  0
  -22.8032   24.5553    0.9871 C   0  0  0  0  0  0  0  0  0  0  0  0
  -21.9672   23.6726    1.5687 C   0  0  0  0  0  0  0  0  0  0  0  0
  -23.9928   25.3020   -0.9601 C   0  0  0  0  0  0  0  0  0  0  0  0
  -20.8841   23.2037    0.8461 C   0  0  0  0  0  0  0  0  0  0  0  0
  -22.8522   25.3632   -6.7901 N   0  0  0  0  0  0  0  0  0  0  0  0
  -22.5046   21.6966    2.8487 C   0  0  0  0  0  0  0  0  0  0  0  0
  -18.8760   25.7114   -5.7465 C   0  0  0  0  0  0  0  0  0  0  0  0
  -21.6885   24.7860   -1.3489 C   0  0  0  0  0  0  0  0  0  0  0  0
  -20.7846   25.1051   -3.6651 N   0  0  0  0  0  0  0  0  0  0  0  0
  -20.6037   25.8162   -7.4273 C   0  0  0  0  0  0  0  0  0  0  0  0
  -22.7477   24.8570   -0.4591 C   0  0  0  0  0  0  0  0  0  0  0  0
  -17.9342   26.0959   -6.7036 C   0  0  0  0  0  0  0  0  0  0  0  0
  -18.9971   23.3077   -0.7185 C   0  0  0  0  0  0  0  0  0  0  0  0
  -19.7027   23.7961    0.3879 C   0  0  0  0  0  0  0  0  0  0  0  0
  -21.5683   22.1703    1.7116 C   0  0  0  0  0  0  0  0  0  0  0  0
  -23.0934   25.2726   -3.1857 C   0  0  0  0  0  0  0  0  0  0  0  0
  -23.4260   25.2933   -4.5222 C   0  0  0  0  0  0  0  0  0  0  0  0
  -18.2983   26.3316   -8.0221 C   0  0  0  0  0  0  0  0  0  0  0  0
  -20.2141   25.5919   -6.0640 C   0  0  0  0  0  0  0  0  0  0  0  0
  -21.9892   25.7368   -7.8301 C   0  0  0  0  0  0  0  0  0  0  0  0
  -18.0245   25.1739   -0.0160 C   0  0  0  0  0  0  0  0  0  0  0  0
  -21.7798   25.0435   -2.6913 C   0  0  0  0  0  0  0  0  0  0  0  0
  -22.4633   25.2676   -5.4817 C   0  0  0  0  0  0  0  0  0  0  0  0
  -23.7040   22.1472    2.9292 O   0  0  0  0  0  0  0  0  0  0  0  0
  -25.0672   25.5594   -0.0829 C   0  0  0  0  0  0  0  0  0  0  0  0
  -21.1373   25.3057   -5.0175 N   0  0  0  0  0  0  0  0  0  0  0  0
  1 19  1  0
  1 27  1  0
  2 16  1  0
  2 24  2  0
  3 26  2  0
  4 20  1  0
  4 27  1  0
  5  9  2  0
  5 22  1  0
  6 12  2  0
  7  8  2  3
  7 17  1  0
  8 10  1  0
  9 17  1  0
  9 31  1  0
 10 20  1  0
 10 21  1  0
 11 26  1  0
 11 29  2  0
 12 21  1  0
 12 30  1  0
 13 18  1  0
 13 25  2  0
 14 17  1  0
 14 28  2  0
 15 28  1  0
 15 32  1  0
 16 25  1  0
 16 26  1  0
 18 24  1  0
 19 20  1  0
 22 23  2  0
 22 28  1  0
 23 29  1  0
 25 32  1  0
 29 32  1  0
M  END
>  <ID>  (1) 
conformer_0

$$$$
