
     RDKit          3D

 21 24  0  0  0  0  0  0  0  0999 V2000
  -21.9951   24.7787   -0.7713 C   0  0  0  0  0  0  0  0  0  0  0  0
  -20.7350   26.4766   -7.7389 N   0  0  0  0  0  0  0  0  0  0  0  0
  -18.7180   26.5356   -6.6125 O   0  0  0  0  0  0  0  0  0  0  0  0
  -18.9099   24.8584   -3.8920 O   0  0  0  0  0  0  0  0  0  0  0  0
  -20.1564   25.0108   -4.2171 C   0  0  0  0  0  0  0  0  0  0  0  0
  -20.6191   23.3183   -2.7188 O   0  0  0  0  0  0  0  0  0  0  0  0
  -19.9704   26.2189   -6.5877 C   0  0  0  0  0  0  0  0  0  0  0  0
  -22.9668   25.1293    0.1491 C   0  0  0  0  0  0  0  0  0  0  0  0
  -22.0396   25.9206   -7.9885 C   0  0  0  0  0  0  0  0  0  0  0  0
  -22.4278   24.5374   -4.4869 C   0  0  0  0  0  0  0  0  0  0  0  0
  -21.9851   25.3427   -5.5976 C   0  0  0  0  0  0  0  0  0  0  0  0
  -21.3335   24.4268   -3.3897 C   0  0  0  0  0  0  0  0  0  0  0  0
  -22.2507   24.7381   -2.1309 C   0  0  0  0  0  0  0  0  0  0  0  0
  -23.5159   25.0421   -2.5306 C   0  0  0  0  0  0  0  0  0  0  0  0
  -24.2615   25.4263   -0.2901 C   0  0  0  0  0  0  0  0  0  0  0  0
  -22.6502   25.2470   -6.8570 C   0  0  0  0  0  0  0  0  0  0  0  0
  -22.9083   25.9570   -9.0805 O   0  0  0  0  0  0  0  0  0  0  0  0
  -24.5487   25.4199   -1.6761 C   0  0  0  0  0  0  0  0  0  0  0  0
  -23.6478   24.9200   -3.9085 O   0  0  0  0  0  0  0  0  0  0  0  0
  -23.8084   24.5616   -6.8877 O   0  0  0  0  0  0  0  0  0  0  0  0
  -20.5329   25.4334   -5.5456 C   0  0  0  0  0  0  0  0  0  0  0  0
  1  8  2  0
  1 13  1  0
  2  7  1  0
  2  9  1  0
  3  7  2  0
  4  5  1  0
  5 12  1  0
  5 21  1  0
  6 12  1  0
  7 21  1  0
  8 15  1  0
  9 16  1  0
  9 17  2  0
 10 11  1  0
 10 12  1  0
 10 19  1  0
 11 16  1  0
 11 21  1  0
 12 13  1  0
 13 14  2  0
 14 18  1  0
 14 19  1  0
 15 18  2  0
 16 20  1  0
M  END
>  <ID>  (1) 
conformer_0

$$$$
