
     RDKit          3D

 11 12  0  0  0  0  0  0  0  0999 V2000
  -23.6381   25.3039   -3.3672 C   0  0  0  0  0  0  0  0  0  0  0  0
  -22.6060   25.7111   -1.2282 O   0  0  0  0  0  0  0  0  0  0  0  0
  -21.9757   25.5412   -6.7070 C   0  0  0  0  0  0  0  0  0  0  0  0
  -21.3437   25.7479   -3.2136 N   0  0  0  0  0  0  0  0  0  0  0  0
  -22.5138   25.5941   -2.6076 C   0  0  0  0  0  0  0  0  0  0  0  0
  -23.5233   25.2255   -4.7128 C   0  0  0  0  0  0  0  0  0  0  0  0
  -20.1385   25.9242   -5.3815 C   0  0  0  0  0  0  0  0  0  0  0  0
  -23.9888   25.7100   -0.7304 C   0  0  0  0  0  0  0  0  0  0  0  0
  -20.6182   25.8350   -6.7465 C   0  0  0  0  0  0  0  0  0  0  0  0
  -22.3422   25.4682   -5.3191 C   0  0  0  0  0  0  0  0  0  0  0  0
  -21.2442   25.7084   -4.5297 C   0  0  0  0  0  0  0  0  0  0  0  0
  1  5  2  0
  1  6  1  0
  2  5  1  0
  2  8  1  0
  3  9  1  0
  3 10  1  0
  4  5  1  0
  4 11  2  0
  6 10  2  0
  7  9  1  0
  7 11  1  0
 10 11  1  0
M  END
>  <ID>  (1) 
conformer_0

$$$$
