
     RDKit          3D

 21 21  0  0  0  0  0  0  0  0999 V2000
  -22.5313   25.6840   -0.9682 O   0  0  0  0  0  0  0  0  0  0  0  0
  -19.9226   26.2299   -7.5358 C   0  0  0  0  0  0  0  0  0  0  0  0
  -25.8580   24.0799   -3.8649 O   0  0  0  0  0  0  0  0  0  0  0  0
  -19.9797   25.2671   -5.3289 N   0  0  0  0  0  0  0  0  0  0  0  0
  -22.8439   25.6083   -5.3850 N   0  0  0  0  0  0  0  0  0  0  0  0
  -22.1018   25.6177   -6.5309 C   0  0  0  0  0  0  0  0  0  0  0  0
  -24.5775   24.6960   -3.7466 C   0  0  0  0  0  0  0  0  0  0  0  0
  -17.7361   26.7261   -8.6478 C   0  0  0  0  0  0  0  0  0  0  0  0
  -22.3155   23.5457   -2.6049 O   0  0  0  0  0  0  0  0  0  0  0  0
  -23.6054   24.5621   -4.8468 C   0  0  0  0  0  0  0  0  0  0  0  0
  -18.6491   25.3439   -5.2778 C   0  0  0  0  0  0  0  0  0  0  0  0
  -17.8788   25.8999   -6.3186 C   0  0  0  0  0  0  0  0  0  0  0  0
  -22.6340   25.7305   -7.7560 O   0  0  0  0  0  0  0  0  0  0  0  0
  -23.8946   23.6170   -5.7970 O   0  0  0  0  0  0  0  0  0  0  0  0
  -18.0269   24.8423   -4.1970 O   0  0  0  0  0  0  0  0  0  0  0  0
  -20.6454   25.6921   -6.4497 C   0  0  0  0  0  0  0  0  0  0  0  0
  -21.3958   25.4904   -1.7974 C   0  0  0  0  0  0  0  0  0  0  0  0
  -24.2036   24.9772   -2.3631 C   0  0  0  0  0  0  0  0  0  0  0  0
  -24.9804   25.4473   -1.4266 O   0  0  0  0  0  0  0  0  0  0  0  0
  -22.7166   24.8032   -2.0931 C   0  0  0  0  0  0  0  0  0  0  0  0
  -18.5385   26.3192   -7.4629 C   0  0  0  0  0  0  0  0  0  0  0  0
  1 17  1  0
  2 16  1  0
  2 21  1  0
  3  7  1  0
  4 11  1  0
  4 16  2  0
  5  6  1  0
  5 10  1  0
  6 13  2  0
  6 16  1  0
  7 10  1  0
  7 18  1  0
  8 21  1  0
  9 20  1  0
 10 14  2  0
 11 12  1  0
 11 15  2  0
 12 21  2  0
 17 20  1  0
 18 19  1  0
 18 20  1  0
M  END
>  <ID>  (1) 
conformer_0

$$$$
