
     RDKit          3D

  9  9  0  0  0  0  0  0  0  0999 V2000
  -22.4391   25.2708   -5.2830 C   0  0  0  0  0  0  0  0  0  0  0  0
  -23.6615   25.1040   -4.6817 C   0  0  0  0  0  0  0  0  0  0  0  0
  -24.0452   25.2342   -3.4228 C   0  0  0  0  0  0  0  0  0  0  0  0
  -24.0364   25.6754   -1.0370 C   0  0  0  0  0  0  0  0  0  0  0  0
  -22.3585   25.0634   -6.5988 O   0  0  0  0  0  0  0  0  0  0  0  0
  -21.2617   25.6102   -4.6396 C   0  0  0  0  0  0  0  0  0  0  0  0
  -23.3273   25.6055   -2.3312 C   0  0  0  0  0  0  0  0  0  0  0  0
  -21.9877   25.8897   -2.3084 C   0  0  0  0  0  0  0  0  0  0  0  0
  -21.1733   25.8694   -3.3429 C   0  0  0  0  0  0  0  0  0  0  0  0
  1  2  1  0
  1  5  1  0
  1  6  2  0
  2  3  2  0
  3  7  1  0
  4  7  1  0
  6  9  1  0
  7  8  1  0
  8  9  2  0
M  END
>  <ID>  (1) 
conformer_0

$$$$
