
     RDKit          3D

 31 32  0  0  0  0  0  0  0  0999 V2000
  -23.9659   24.1916   -3.4118 C   0  0  0  0  0  0  0  0  0  0  0  0
  -25.3458   24.0416   -3.5367 C   0  0  0  0  0  0  0  0  0  0  0  0
  -21.9337   24.8693   -4.4909 C   0  0  0  0  0  0  0  0  0  0  0  0
  -19.5194   25.9177   -7.9385 C   0  0  0  0  0  0  0  0  0  0  0  0
  -23.3001   24.3671   -4.6720 C   0  0  0  0  0  0  0  0  0  0  0  0
  -19.1445   24.1067    1.4566 C   0  0  0  0  0  0  0  0  0  0  0  0
  -20.2030   25.7058   -6.6788 C   0  0  0  0  0  0  0  0  0  0  0  0
  -22.0774   23.6028   -0.6189 O   0  0  0  0  0  0  0  0  0  0  0  0
  -24.3950   23.0909   -6.3305 O   0  0  0  0  0  0  0  0  0  0  0  0
  -19.4309   25.3920   -5.7047 C   0  0  0  0  0  0  0  0  0  0  0  0
  -23.1931   24.4662   -2.2853 C   0  0  0  0  0  0  0  0  0  0  0  0
  -23.3738   24.9319   -6.9881 N   0  0  0  0  0  0  0  0  0  0  0  0
  -22.8305   24.7953   -8.3404 C   0  0  0  0  0  0  0  0  0  0  0  0
  -17.2695   25.0466    0.1785 C   0  0  0  0  0  0  0  0  0  0  0  0
  -23.8676   24.1452   -5.9820 C   0  0  0  0  0  0  0  0  0  0  0  0
  -21.9260   23.9815   -1.8794 C   0  0  0  0  0  0  0  0  0  0  0  0
  -20.6180   24.5589   -2.2809 C   0  0  0  0  0  0  0  0  0  0  0  0
  -19.0951   26.4934    1.4705 C   0  0  0  0  0  0  0  0  0  0  0  0
  -21.7251   25.7183   -8.6360 C   0  0  0  0  0  0  0  0  0  0  0  0
  -20.6613   25.6030   -7.8381 N   0  0  0  0  0  0  0  0  0  0  0  0
  -24.8608   25.8422   -1.5802 F   0  0  0  0  0  0  0  0  0  0  0  0
  -20.2122   26.5699   -5.8100 O   0  0  0  0  0  0  0  0  0  0  0  0
  -19.9095   24.6988   -0.9877 O   0  0  0  0  0  0  0  0  0  0  0  0
  -18.2651   25.2549    1.2903 C   0  0  0  0  0  0  0  0  0  0  0  0
  -26.2199   23.8115   -4.4494 O   0  0  0  0  0  0  0  0  0  0  0  0
  -19.4876   24.9010   -4.4129 C   0  0  0  0  0  0  0  0  0  0  0  0
  -20.6932   24.9518   -3.7397 C   0  0  0  0  0  0  0  0  0  0  0  0
  -23.4884   25.5887   -0.0683 F   0  0  0  0  0  0  0  0  0  0  0  0
  -19.6857   23.6749    0.1109 C   0  0  0  0  0  0  0  0  0  0  0  0
  -23.5889   25.6164   -1.4209 C   0  0  0  0  0  0  0  0  0  0  0  0
  -22.7535   26.6828   -1.6863 F   0  0  0  0  0  0  0  0  0  0  0  0
  1  2  1  0
  1  5  2  0
  1 11  1  0
  2 25  2  0
  3  5  1  0
  3 27  1  0
  4 20  1  0
  5 15  1  0
  6 24  1  0
  6 29  1  0
  7 10  1  0
  7 20  1  0
  7 22  2  0
  8 16  1  0
  9 15  2  0
 10 26  1  0
 11 16  1  0
 11 30  1  0
 12 13  1  0
 12 15  1  0
 13 19  1  0
 14 24  1  0
 16 17  1  0
 17 23  1  0
 17 27  1  0
 18 24  1  0
 19 20  1  0
 21 30  1  0
 23 29  1  0
 26 27  1  0
 28 30  1  0
 30 31  1  0
M  END
>  <ID>  (1) 
conformer_0

$$$$
