
     RDKit          3D

 23 24  0  0  0  0  0  0  0  0999 V2000
  -25.2351   23.5570   -5.6912 O   0  0  0  0  0  0  0  0  0  0  0  0
  -20.0642   26.5878   -6.5697 C   0  0  0  0  0  0  0  0  0  0  0  0
  -18.6899   26.1491   -6.4082 C   0  0  0  0  0  0  0  0  0  0  0  0
  -21.8081   24.1936   -1.1538 C   0  0  0  0  0  0  0  0  0  0  0  0
  -19.8063   25.2040   -4.7248 C   0  0  0  0  0  0  0  0  0  0  0  0
  -19.4867   23.7192   -1.3521 C   0  0  0  0  0  0  0  0  0  0  0  0
  -24.5543   24.8034   -3.0793 C   0  0  0  0  0  0  0  0  0  0  0  0
  -19.9320   24.4552   -3.6282 C   0  0  0  0  0  0  0  0  0  0  0  0
  -24.1091   24.0648   -5.3883 C   0  0  0  0  0  0  0  0  0  0  0  0
  -17.4633   26.5591   -7.2444 C   0  0  0  0  0  0  0  0  0  0  0  0
  -23.1349   26.1423   -4.3453 O   0  0  0  0  0  0  0  0  0  0  0  0
  -23.7289   25.3486   -2.1412 N   0  0  0  0  0  0  0  0  0  0  0  0
  -20.6812   23.8434   -0.6181 C   0  0  0  0  0  0  0  0  0  0  0  0
  -23.0502   23.6407   -5.8341 O   0  0  0  0  0  0  0  0  0  0  0  0
  -23.0202   24.4348    1.2662 O   0  0  0  0  0  0  0  0  0  0  0  0
  -23.0976   24.5875   -1.1648 C   0  0  0  0  0  0  0  0  0  0  0  0
  -24.8814   25.2823    0.2230 O   0  0  0  0  0  0  0  0  0  0  0  0
  -22.2243   26.3803   -5.3177 C   0  0  0  0  0  0  0  0  0  0  0  0
  -24.1611   25.1875   -4.4234 C   0  0  0  0  0  0  0  0  0  0  0  0
  -20.7997   26.0292   -5.4514 C   0  0  0  0  0  0  0  0  0  0  0  0
  -19.3534   23.9897   -2.6436 C   0  0  0  0  0  0  0  0  0  0  0  0
  -23.6967   24.7873    0.2451 C   0  0  0  0  0  0  0  0  0  0  0  0
  -18.5861   25.3147   -5.3307 N   0  0  0  0  0  0  0  0  0  0  0  0
  1  9  2  0
  2  3  1  0
  2 20  1  0
  3 10  1  0
  3 23  1  0
  4 13  2  0
  4 16  2  0
  5  8  1  0
  5 20  2  0
  5 23  1  0
  6 13  1  0
  6 21  2  0
  7 12  1  0
  7 19  1  0
  8 21  1  0
  9 14  1  0
  9 19  1  0
 11 18  1  0
 11 19  1  0
 12 16  1  0
 15 22  2  0
 16 22  1  0
 17 22  1  0
 18 20  1  0
M  END
>  <ID>  (1) 
conformer_0

$$$$
