
     RDKit          3D

 27 33  0  0  0  0  0  0  0  0999 V2000
  -21.9704   25.0961   -8.7530 C   0  0  0  0  0  0  0  0  0  0  0  0
  -22.2491   25.0701   -6.2586 C   0  0  0  0  0  0  0  0  0  0  0  0
  -22.9800   25.0748   -2.3903 C   0  0  0  0  0  0  0  0  0  0  0  0
  -20.0643   24.9975   -4.3316 N   0  0  0  0  0  0  0  0  0  0  0  0
  -24.6833   25.6287   -0.6665 C   0  0  0  0  0  0  0  0  0  0  0  0
  -21.4653   24.0141    1.7868 C   0  0  0  0  0  0  0  0  0  0  0  0
  -23.4451   24.9737   -1.0731 C   0  0  0  0  0  0  0  0  0  0  0  0
  -19.7407   25.3129   -5.6119 C   0  0  0  0  0  0  0  0  0  0  0  0
  -22.9098   25.1822   -7.5382 C   0  0  0  0  0  0  0  0  0  0  0  0
  -20.8748   25.4854   -6.4401 C   0  0  0  0  0  0  0  0  0  0  0  0
  -23.6737   25.1202   -3.6729 C   0  0  0  0  0  0  0  0  0  0  0  0
  -22.4996   24.6092   -0.1072 C   0  0  0  0  0  0  0  0  0  0  0  0
  -20.4464   24.3079    0.8148 C   0  0  0  0  0  0  0  0  0  0  0  0
  -22.6964   24.2611    1.2254 C   0  0  0  0  0  0  0  0  0  0  0  0
  -21.1145   24.6373   -0.3883 C   0  0  0  0  0  0  0  0  0  0  0  0
  -19.3705   24.9596    1.0718 O   0  0  0  0  0  0  0  0  0  0  0  0
  -19.1233   26.8413   -7.3671 C   0  0  0  0  0  0  0  0  0  0  0  0
  -23.9827   23.9329    1.7166 C   0  0  0  0  0  0  0  0  0  0  0  0
  -20.7057   26.6437   -7.3561 C   0  0  0  0  0  0  0  0  0  0  0  0
  -21.6611   24.7643   -2.6359 C   0  0  0  0  0  0  0  0  0  0  0  0
  -18.5936   26.0181   -6.1794 C   0  0  0  0  0  0  0  0  0  0  0  0
  -19.1500   25.8777   -8.5697 O   0  0  0  0  0  0  0  0  0  0  0  0
  -24.9355   25.1123   -3.6777 O   0  0  0  0  0  0  0  0  0  0  0  0
  -21.3927   24.8296   -4.0387 C   0  0  0  0  0  0  0  0  0  0  0  0
  -22.6577   24.9964   -4.7866 C   0  0  0  0  0  0  0  0  0  0  0  0
  -20.6126   25.8109   -8.6856 C   0  0  0  0  0  0  0  0  0  0  0  0
  -20.6668   24.5630   -1.7054 C   0  0  0  0  0  0  0  0  0  0  0  0
  1  9  1  0
  1 26  1  0
  2  9  1  0
  2 10  1  0
  2 25  1  0
  3  7  1  0
  3 11  1  0
  3 20  2  0
  4  8  1  0
  4 24  2  0
  5  7  1  0
  6 13  1  0
  6 14  1  0
  7 12  1  0
  8 10  1  0
  8 21  1  0
 10 19  1  0
 11 23  2  0
 11 25  1  0
 12 14  2  0
 12 15  1  0
 13 15  1  0
 13 16  2  0
 14 18  1  0
 15 27  1  0
 17 19  1  0
 17 21  1  0
 17 22  1  0
 19 26  1  0
 20 24  1  0
 20 27  1  0
 22 26  1  0
 24 25  1  0
M  END
>  <ID>  (1) 
conformer_0

$$$$
