
     RDKit          3D

 29 34  0  0  0  0  0  0  0  0999 V2000
  -21.6918   25.7351   -4.1387 C   0  0  0  0  0  0  0  0  0  0  0  0
  -24.6430   23.5438   -3.3703 C   0  0  0  0  0  0  0  0  0  0  0  0
  -23.9656   25.5035    0.5346 C   0  0  0  0  0  0  0  0  0  0  0  0
  -19.4750   22.1544    0.0654 C   0  0  0  0  0  0  0  0  0  0  0  0
  -18.8887   22.8928   -1.0693 C   0  0  0  0  0  0  0  0  0  0  0  0
  -19.8731   26.3495   -5.8618 C   0  0  0  0  0  0  0  0  0  0  0  0
  -22.7864   24.7911    0.5401 C   0  0  0  0  0  0  0  0  0  0  0  0
  -23.1597   24.6648   -5.7346 C   0  0  0  0  0  0  0  0  0  0  0  0
  -26.4858   23.3339   -4.8439 O   0  0  0  0  0  0  0  0  0  0  0  0
  -21.0219   23.6352   -0.6658 C   0  0  0  0  0  0  0  0  0  0  0  0
  -21.4677   25.1683   -7.7487 C   0  0  0  0  0  0  0  0  0  0  0  0
  -23.0224   24.5350   -1.8009 N   0  0  0  0  0  0  0  0  0  0  0  0
  -24.5400   22.3475   -2.8044 O   0  0  0  0  0  0  0  0  0  0  0  0
  -20.7868   25.1285   -3.2168 O   0  0  0  0  0  0  0  0  0  0  0  0
  -19.8648   23.7552   -1.4813 C   0  0  0  0  0  0  0  0  0  0  0  0
  -25.2586   23.8145   -4.6575 C   0  0  0  0  0  0  0  0  0  0  0  0
  -20.7821   22.6403    0.2492 C   0  0  0  0  0  0  0  0  0  0  0  0
  -22.2654   24.3229   -0.6523 C   0  0  0  0  0  0  0  0  0  0  0  0
  -21.8934   25.2157   -6.4129 C   0  0  0  0  0  0  0  0  0  0  0  0
  -24.3686   23.8288   -5.8363 C   0  0  0  0  0  0  0  0  0  0  0  0
  -24.6280   25.7005   -0.6929 C   0  0  0  0  0  0  0  0  0  0  0  0
  -19.4181   26.3216   -7.1771 C   0  0  0  0  0  0  0  0  0  0  0  0
  -24.7623   22.9796   -6.7718 O   0  0  0  0  0  0  0  0  0  0  0  0
  -20.2220   25.7337   -8.1217 C   0  0  0  0  0  0  0  0  0  0  0  0
  -23.5154   24.4480   -3.0579 C   0  0  0  0  0  0  0  0  0  0  0  0
  -23.9993   25.1415   -1.8018 C   0  0  0  0  0  0  0  0  0  0  0  0
  -19.6304   24.6102   -2.6175 C   0  0  0  0  0  0  0  0  0  0  0  0
  -21.0674   25.8039   -5.5129 C   0  0  0  0  0  0  0  0  0  0  0  0
  -22.9194   24.9226   -4.2597 C   0  0  0  0  0  0  0  0  0  0  0  0
  1 14  1  0
  1 28  1  0
  1 29  1  0
  2 13  1  0
  2 16  1  0
  2 25  1  0
  3  7  2  0
  3 21  1  0
  4  5  1  0
  4 17  1  0
  5 15  1  0
  6 22  1  0
  6 28  2  0
  7 18  1  0
  8 19  1  0
  8 20  1  0
  8 29  1  0
  9 16  1  0
 10 15  2  0
 10 17  1  0
 10 18  1  0
 11 19  2  0
 11 24  1  0
 12 18  1  0
 12 25  1  0
 12 26  1  0
 14 27  1  0
 15 27  1  0
 16 20  1  0
 19 28  1  0
 20 23  1  0
 21 26  2  0
 22 24  2  0
 25 29  2  0
M  END
>  <ID>  (1) 
conformer_0

$$$$
