
     RDKit          3D

 13 13  0  0  0  0  0  0  0  0999 V2000
  -21.7478   25.6837   -4.6207 C   0  0  0  0  0  0  0  0  0  0  0  0
  -21.7092   25.4657   -7.0090 C   0  0  0  0  0  0  0  0  0  0  0  0
  -19.6549   25.6240   -5.7938 C   0  0  0  0  0  0  0  0  0  0  0  0
  -24.4415   25.3938    0.0325 C   0  0  0  0  0  0  0  0  0  0  0  0
  -21.7592   24.0670   -1.4470 O   0  0  0  0  0  0  0  0  0  0  0  0
  -22.4351   25.9309   -3.4550 O   0  0  0  0  0  0  0  0  0  0  0  0
  -20.3716   25.6952   -4.6217 C   0  0  0  0  0  0  0  0  0  0  0  0
  -20.3317   25.5486   -6.9977 C   0  0  0  0  0  0  0  0  0  0  0  0
  -23.8924   24.2211    0.5713 O   0  0  0  0  0  0  0  0  0  0  0  0
  -22.3303   25.2964   -1.1763 C   0  0  0  0  0  0  0  0  0  0  0  0
  -22.4209   25.5039   -5.7999 C   0  0  0  0  0  0  0  0  0  0  0  0
  -21.7976   26.2167   -2.2514 C   0  0  0  0  0  0  0  0  0  0  0  0
  -23.8653   25.3645   -1.3613 C   0  0  0  0  0  0  0  0  0  0  0  0
  1  6  1  0
  1  7  1  0
  1 11  2  0
  2  8  1  0
  2 11  1  0
  3  7  1  0
  3  8  2  0
  4  9  1  0
  4 13  1  0
  5 10  1  0
  6 12  1  0
 10 12  1  0
 10 13  1  0
M  END
>  <ID>  (1) 
conformer_0

$$$$
