
     RDKit          3D

 26 28  0  0  0  0  0  0  0  0999 V2000
  -26.0362   23.9491   -3.9927 O   0  0  0  0  0  0  0  0  0  0  0  0
  -21.4444   23.5582    2.2986 C   0  0  0  0  0  0  0  0  0  0  0  0
  -24.0278   24.2823   -5.2375 C   0  0  0  0  0  0  0  0  0  0  0  0
  -18.7563   25.4726   -8.1975 C   0  0  0  0  0  0  0  0  0  0  0  0
  -24.7181   24.2056   -3.9515 C   0  0  0  0  0  0  0  0  0  0  0  0
  -18.7349   26.9167   -7.8386 C   0  0  0  0  0  0  0  0  0  0  0  0
  -21.4808   26.0899   -7.0088 N   0  0  0  0  0  0  0  0  0  0  0  0
  -22.6270   25.6368   -6.6066 N   0  0  0  0  0  0  0  0  0  0  0  0
  -21.9101   25.5351   -4.3585 C   0  0  0  0  0  0  0  0  0  0  0  0
  -22.7962   24.4364    0.0519 C   0  0  0  0  0  0  0  0  0  0  0  0
  -19.2476   27.0951   -6.4617 C   0  0  0  0  0  0  0  0  0  0  0  0
  -23.0475   24.9436   -2.3280 N   0  0  0  0  0  0  0  0  0  0  0  0
  -22.8755   25.1364   -5.3423 C   0  0  0  0  0  0  0  0  0  0  0  0
  -19.4906   24.9197    1.6503 C   0  0  0  0  0  0  0  0  0  0  0  0
  -22.7887   23.1736    2.0778 C   0  0  0  0  0  0  0  0  0  0  0  0
  -23.4579   23.6519    0.9841 C   0  0  0  0  0  0  0  0  0  0  0  0
  -21.8730   25.2545   -2.9549 C   0  0  0  0  0  0  0  0  0  0  0  0
  -24.6406   26.0666   -0.5889 C   0  0  0  0  0  0  0  0  0  0  0  0
  -24.7904   23.3595    0.7242 F   0  0  0  0  0  0  0  0  0  0  0  0
  -20.8525   26.2482   -4.8370 O   0  0  0  0  0  0  0  0  0  0  0  0
  -24.1518   24.9439   -2.9739 C   0  0  0  0  0  0  0  0  0  0  0  0
  -21.5056   24.8097    0.2625 C   0  0  0  0  0  0  0  0  0  0  0  0
  -24.6334   23.7073   -6.2416 O   0  0  0  0  0  0  0  0  0  0  0  0
  -23.5431   24.8903   -1.0631 C   0  0  0  0  0  0  0  0  0  0  0  0
  -20.8395   24.4231    1.4035 C   0  0  0  0  0  0  0  0  0  0  0  0
  -20.5209   26.3603   -6.0949 C   0  0  0  0  0  0  0  0  0  0  0  0
  1  5  1  0
  2 15  2  0
  2 25  1  0
  3  5  1  0
  3 13  1  0
  3 23  1  0
  4  6  1  0
  5 21  1  0
  6 11  1  0
  7  8  1  0
  7 26  2  0
  8 13  1  0
  9 13  2  0
  9 17  1  0
  9 20  1  0
 10 16  2  0
 10 22  1  0
 10 24  1  0
 11 26  1  0
 12 17  1  0
 12 21  1  0
 12 24  1  0
 14 25  1  0
 15 16  1  0
 16 19  1  0
 18 24  1  0
 20 26  1  0
 22 25  2  0
M  END
>  <ID>  (1) 
conformer_0

$$$$
