
     RDKit          3D

 17 19  0  0  0  0  0  0  0  0999 V2000
  -21.6513   25.5554   -1.3481 C   0  0  0  0  0  0  0  0  0  0  0  0
  -19.6605   25.6020   -5.7353 C   0  0  0  0  0  0  0  0  0  0  0  0
  -20.7960   25.5588   -4.9302 C   0  0  0  0  0  0  0  0  0  0  0  0
  -23.1738   25.6225   -4.7423 N   0  0  0  0  0  0  0  0  0  0  0  0
  -21.8207   25.3808   -2.7921 C   0  0  0  0  0  0  0  0  0  0  0  0
  -19.7735   25.9653   -7.0387 N   0  0  0  0  0  0  0  0  0  0  0  0
  -22.8567   25.3620   -0.5383 C   0  0  0  0  0  0  0  0  0  0  0  0
  -20.9669   26.3359   -7.5695 C   0  0  0  0  0  0  0  0  0  0  0  0
  -25.2595   25.5952   -0.6892 O   0  0  0  0  0  0  0  0  0  0  0  0
  -22.6609   24.9868    0.7312 O   0  0  0  0  0  0  0  0  0  0  0  0
  -22.1346   26.2564   -6.8256 C   0  0  0  0  0  0  0  0  0  0  0  0
  -24.1023   25.1363   -1.2051 C   0  0  0  0  0  0  0  0  0  0  0  0
  -24.2152   24.9654   -2.6589 C   0  0  0  0  0  0  0  0  0  0  0  0
  -20.4591   25.3730   -0.7722 O   0  0  0  0  0  0  0  0  0  0  0  0
  -23.0917   25.3109   -3.4370 C   0  0  0  0  0  0  0  0  0  0  0  0
  -22.0404   25.8224   -5.5050 C   0  0  0  0  0  0  0  0  0  0  0  0
  -20.7364   25.3068   -3.5870 N   0  0  0  0  0  0  0  0  0  0  0  0
  1  5  2  0
  1  7  1  0
  1 14  1  0
  2  3  1  0
  2  6  2  0
  3 16  2  0
  3 17  1  0
  4 15  2  0
  4 16  1  0
  5 15  1  0
  5 17  1  0
  6  8  1  0
  7 10  1  0
  7 12  1  0
  8 11  2  0
  9 12  1  0
 11 16  1  0
 12 13  1  0
 13 15  1  0
M  END
>  <ID>  (1) 
conformer_0

$$$$
