
     RDKit          3D

 22 25  0  0  0  0  0  0  0  0999 V2000
  -22.6124   24.9483   -1.9428 C   0  0  0  0  0  0  0  0  0  0  0  0
  -19.2061   24.8560    1.4823 C   0  0  0  0  0  0  0  0  0  0  0  0
  -17.7040   25.3551    1.0264 S   0  0  0  0  0  0  0  0  0  0  0  0
  -24.8325   24.6162   -3.4418 O   0  0  0  0  0  0  0  0  0  0  0  0
  -20.0960   25.1503   -4.6839 C   0  0  0  0  0  0  0  0  0  0  0  0
  -23.8682   25.1963    0.0301 C   0  0  0  0  0  0  0  0  0  0  0  0
  -21.4517   24.8692    0.3804 O   0  0  0  0  0  0  0  0  0  0  0  0
  -20.3557   24.4384   -2.0300 N   0  0  0  0  0  0  0  0  0  0  0  0
  -22.7751   25.2147   -6.1367 C   0  0  0  0  0  0  0  0  0  0  0  0
  -22.5066   24.8591   -0.5162 C   0  0  0  0  0  0  0  0  0  0  0  0
  -21.9136   25.4764   -7.1100 C   0  0  0  0  0  0  0  0  0  0  0  0
  -21.4522   24.8816   -2.7218 C   0  0  0  0  0  0  0  0  0  0  0  0
  -19.5562   24.2713   -0.9283 C   0  0  0  0  0  0  0  0  0  0  0  0
  -24.7027   25.2544   -1.2030 O   0  0  0  0  0  0  0  0  0  0  0  0
  -20.5439   25.5976   -7.0445 C   0  0  0  0  0  0  0  0  0  0  0  0
  -23.9257   25.0639   -2.4785 C   0  0  0  0  0  0  0  0  0  0  0  0
  -21.4040   25.0528   -4.1313 C   0  0  0  0  0  0  0  0  0  0  0  0
  -22.6399   25.0871   -4.7682 C   0  0  0  0  0  0  0  0  0  0  0  0
  -20.1113   24.9942    0.2554 C   0  0  0  0  0  0  0  0  0  0  0  0
  -19.7828   25.4593   -5.9953 N   0  0  0  0  0  0  0  0  0  0  0  0
  -19.0465   24.9782   -3.9653 O   0  0  0  0  0  0  0  0  0  0  0  0
  -23.8364   25.0269   -3.9681 C   0  0  0  0  0  0  0  0  0  0  0  0
  1 10  1  0
  1 12  2  0
  1 16  1  0
  2  3  1  0
  2 19  1  0
  4 22  2  0
  5 17  1  0
  5 20  1  0
  5 21  2  0
  6 10  1  0
  6 14  1  0
  7 10  1  0
  7 19  1  0
  8 12  1  0
  8 13  1  0
  9 11  2  0
  9 18  1  0
 11 15  1  0
 12 17  1  0
 13 19  1  0
 14 16  1  0
 15 20  2  0
 16 22  1  0
 17 18  2  0
 18 22  1  0
M  END
>  <ID>  (1) 
conformer_0

$$$$
