
     RDKit          3D

 15 16  0  0  0  0  0  0  0  0999 V2000
  -20.4065   24.8016   -1.0634 C   0  0  0  0  0  0  0  0  0  0  0  0
  -23.6376   25.0952    0.7183 C   0  0  0  0  0  0  0  0  0  0  0  0
  -24.5311   25.4218   -0.2901 C   0  0  0  0  0  0  0  0  0  0  0  0
  -23.2932   25.0322   -5.5827 C   0  0  0  0  0  0  0  0  0  0  0  0
  -22.3023   25.4337   -6.4089 C   0  0  0  0  0  0  0  0  0  0  0  0
  -21.8564   24.9374   -0.8532 C   0  0  0  0  0  0  0  0  0  0  0  0
  -22.2984   24.8518    0.4395 C   0  0  0  0  0  0  0  0  0  0  0  0
  -20.0268   26.5048   -7.2776 S   0  0  0  0  0  0  0  0  0  0  0  0
  -24.1065   25.4367   -1.5913 C   0  0  0  0  0  0  0  0  0  0  0  0
  -21.1016   25.3158   -3.6581 C   0  0  0  0  0  0  0  0  0  0  0  0
  -21.0255   25.7726   -6.0363 C   0  0  0  0  0  0  0  0  0  0  0  0
  -22.7873   25.1492   -1.9041 C   0  0  0  0  0  0  0  0  0  0  0  0
  -20.4923   25.6085   -4.7887 C   0  0  0  0  0  0  0  0  0  0  0  0
  -23.3939   24.9260   -4.2462 C   0  0  0  0  0  0  0  0  0  0  0  0
  -22.4045   25.1270   -3.2823 C   0  0  0  0  0  0  0  0  0  0  0  0
  1  6  1  0
  2  3  2  0
  2  7  1  0
  3  9  1  0
  4  5  2  0
  4 14  1  0
  5 11  1  0
  6  7  2  0
  6 12  1  0
  8 11  1  0
  9 12  2  0
 10 13  1  0
 10 15  2  0
 11 13  2  0
 12 15  1  0
 14 15  1  0
M  END
>  <ID>  (1) 
conformer_0

$$$$
