
     RDKit          3D

 14 14  0  0  0  0  0  0  0  0999 V2000
  -19.4192   26.8466   -6.9317 C   0  0  0  0  0  0  0  0  0  0  0  0
  -22.6959   25.6013   -5.9386 N   0  0  0  0  0  0  0  0  0  0  0  0
  -23.9315   25.1446   -3.0640 C   0  0  0  0  0  0  0  0  0  0  0  0
  -24.4224   25.2489   -1.8456 C   0  0  0  0  0  0  0  0  0  0  0  0
  -22.4528   25.3140   -0.3826 C   0  0  0  0  0  0  0  0  0  0  0  0
  -23.8427   25.3401   -0.6238 C   0  0  0  0  0  0  0  0  0  0  0  0
  -19.8941   25.4378   -5.3135 C   0  0  0  0  0  0  0  0  0  0  0  0
  -21.5881   25.1128   -2.6726 C   0  0  0  0  0  0  0  0  0  0  0  0
  -21.5019   25.2269   -1.3663 C   0  0  0  0  0  0  0  0  0  0  0  0
  -20.4834   26.1054   -6.3676 N   0  0  0  0  0  0  0  0  0  0  0  0
  -22.1267   26.9391   -7.7195 O   0  0  0  0  0  0  0  0  0  0  0  0
  -21.7779   26.2089   -6.7748 C   0  0  0  0  0  0  0  0  0  0  0  0
  -22.6651   25.0730   -3.5633 C   0  0  0  0  0  0  0  0  0  0  0  0
  -22.5023   24.9157   -4.8823 N   0  0  0  0  0  0  0  0  0  0  0  0
  1 10  1  0
  2 12  1  0
  2 14  1  0
  3  4  2  0
  3 13  1  0
  4  6  1  0
  5  6  2  0
  5  9  1  0
  7 10  1  0
  8  9  2  0
  8 13  1  0
 10 12  1  0
 11 12  2  0
 13 14  1  0
M  END
>  <ID>  (1) 
conformer_0

$$$$
