
     RDKit          3D

 13 13  0  0  0  0  0  0  0  0999 V2000
  -24.4919   25.0492   -2.4156 C   0  0  0  0  0  0  0  0  0  0  0  0
  -20.3800   26.3680   -6.8838 C   0  0  0  0  0  0  0  0  0  0  0  0
  -19.5501   24.6709   -3.7787 O   0  0  0  0  0  0  0  0  0  0  0  0
  -20.2692   25.2710   -4.7749 C   0  0  0  0  0  0  0  0  0  0  0  0
  -23.6802   25.9225   -1.5178 O   0  0  0  0  0  0  0  0  0  0  0  0
  -21.7306   26.3792   -6.8103 N   0  0  0  0  0  0  0  0  0  0  0  0
  -24.5706   25.7784   -0.2534 C   0  0  0  0  0  0  0  0  0  0  0  0
  -19.6105   25.7917   -5.8800 C   0  0  0  0  0  0  0  0  0  0  0  0
  -22.3701   24.9188   -3.4613 C   0  0  0  0  0  0  0  0  0  0  0  0
  -23.8137   25.0194   -3.7081 C   0  0  0  0  0  0  0  0  0  0  0  0
  -21.6725   25.3460   -4.6559 C   0  0  0  0  0  0  0  0  0  0  0  0
  -23.3126   25.0710   -0.3838 C   0  0  0  0  0  0  0  0  0  0  0  0
  -22.3427   25.8556   -5.7251 C   0  0  0  0  0  0  0  0  0  0  0  0
  1  5  1  0
  1 10  1  0
  2  6  2  0
  2  8  1  0
  3  4  1  0
  4  8  2  0
  4 11  1  0
  5 12  1  0
  6 13  1  0
  7 12  1  0
  9 10  1  0
  9 11  1  0
 11 13  2  0
M  END
>  <ID>  (1) 
conformer_0

$$$$
