
     RDKit          3D

 17 17  0  0  0  0  0  0  0  0999 V2000
  -21.6411   25.7566   -8.1499 C   0  0  0  0  0  0  0  0  0  0  0  0
  -22.7664   23.6948   -1.5177 O   0  0  0  0  0  0  0  0  0  0  0  0
  -24.0189   25.1358    0.5906 C   0  0  0  0  0  0  0  0  0  0  0  0
  -22.0241   26.0992   -1.3807 C   0  0  0  0  0  0  0  0  0  0  0  0
  -19.7257   24.3650   -3.7607 O   0  0  0  0  0  0  0  0  0  0  0  0
  -20.8803   26.1693   -5.8954 C   0  0  0  0  0  0  0  0  0  0  0  0
  -20.7570   26.3755   -7.2615 C   0  0  0  0  0  0  0  0  0  0  0  0
  -20.8238   24.8382   -3.2771 C   0  0  0  0  0  0  0  0  0  0  0  0
  -22.6553   24.9463   -7.6433 C   0  0  0  0  0  0  0  0  0  0  0  0
  -22.7578   24.7823   -6.2739 C   0  0  0  0  0  0  0  0  0  0  0  0
  -24.4167   25.0011   -3.9135 O   0  0  0  0  0  0  0  0  0  0  0  0
  -23.0889   25.0545   -1.7736 C   0  0  0  0  0  0  0  0  0  0  0  0
  -21.8803   25.3621   -5.3541 C   0  0  0  0  0  0  0  0  0  0  0  0
  -23.2767   25.2036   -3.2990 C   0  0  0  0  0  0  0  0  0  0  0  0
  -24.3335   25.4331   -0.8763 C   0  0  0  0  0  0  0  0  0  0  0  0
  -20.7761   25.7585   -0.7938 O   0  0  0  0  0  0  0  0  0  0  0  0
  -22.0015   25.1666   -3.9474 C   0  0  0  0  0  0  0  0  0  0  0  0
  1  7  2  0
  1  9  1  0
  2 12  1  0
  3 15  1  0
  4 12  1  0
  4 16  1  0
  5  8  1  0
  6  7  1  0
  6 13  2  0
  8 17  1  0
  9 10  2  0
 10 13  1  0
 11 14  1  0
 12 14  1  0
 12 15  1  0
 13 17  1  0
 14 17  1  0
M  END
>  <ID>  (1) 
conformer_0

$$$$
