
     RDKit          3D

 12 13  0  0  0  0  0  0  0  0999 V2000
  -23.2252   25.6340   -1.4117 C   0  0  0  0  0  0  0  0  0  0  0  0
  -22.6053   25.5986   -6.3863 C   0  0  0  0  0  0  0  0  0  0  0  0
  -21.3950   25.7308   -3.1580 N   0  0  0  0  0  0  0  0  0  0  0  0
  -22.7283   25.6727   -2.8246 C   0  0  0  0  0  0  0  0  0  0  0  0
  -19.0156   26.0710   -5.7784 C   0  0  0  0  0  0  0  0  0  0  0  0
  -21.2719   25.7661   -4.5327 C   0  0  0  0  0  0  0  0  0  0  0  0
  -21.1888   25.7572   -6.8517 C   0  0  0  0  0  0  0  0  0  0  0  0
  -22.3034   25.1918   -0.3874 C   0  0  0  0  0  0  0  0  0  0  0  0
  -24.5244   25.8345   -1.0780 O   0  0  0  0  0  0  0  0  0  0  0  0
  -22.5963   25.6413   -4.9705 C   0  0  0  0  0  0  0  0  0  0  0  0
  -23.4707   25.6225   -3.9280 N   0  0  0  0  0  0  0  0  0  0  0  0
  -20.4219   25.8653   -5.6824 C   0  0  0  0  0  0  0  0  0  0  0  0
  1  4  1  0
  1  8  1  0
  1  9  1  0
  2  7  1  0
  2 10  1  0
  3  4  2  0
  3  6  1  0
  4 11  1  0
  5 12  1  0
  6 10  2  0
  6 12  1  0
  7 12  1  0
 10 11  1  0
M  END
>  <ID>  (1) 
conformer_0

$$$$
