
     RDKit          3D

 30 32  0  0  0  0  0  0  0  0999 V2000
  -21.0444   26.0836   -7.3822 C   0  0  0  0  0  0  0  0  0  0  0  0
  -20.3980   25.1650   -6.3424 C   0  0  0  0  0  0  0  0  0  0  0  0
  -22.8775   24.7645   -6.4306 C   0  0  0  0  0  0  0  0  0  0  0  0
  -23.1707   26.1154   -8.5770 O   0  0  0  0  0  0  0  0  0  0  0  0
  -20.9951   25.4538   -4.9876 C   0  0  0  0  0  0  0  0  0  0  0  0
  -23.1922   25.0802   -2.3989 C   0  0  0  0  0  0  0  0  0  0  0  0
  -21.9024   25.8040   -1.9316 C   0  0  0  0  0  0  0  0  0  0  0  0
  -19.7357   23.9355    0.8071 C   0  0  0  0  0  0  0  0  0  0  0  0
  -17.5384   24.6083    0.0139 C   0  0  0  0  0  0  0  0  0  0  0  0
  -19.2867   24.1335   -1.7547 C   0  0  0  0  0  0  0  0  0  0  0  0
  -20.7932   24.6070   -2.0351 C   0  0  0  0  0  0  0  0  0  0  0  0
  -20.9060   27.4193   -6.8970 O   0  0  0  0  0  0  0  0  0  0  0  0
  -21.3807   23.6654   -0.9008 C   0  0  0  0  0  0  0  0  0  0  0  0
  -20.5226   25.0239   -3.6148 O   0  0  0  0  0  0  0  0  0  0  0  0
  -19.8500   25.3238    0.3566 C   0  0  0  0  0  0  0  0  0  0  0  0
  -22.9799   24.5434   -3.7863 C   0  0  0  0  0  0  0  0  0  0  0  0
  -22.4733   25.2657   -5.0422 C   0  0  0  0  0  0  0  0  0  0  0  0
  -22.3540   24.1327   -7.6797 C   0  0  0  0  0  0  0  0  0  0  0  0
  -24.7755   25.9859   -0.4780 C   0  0  0  0  0  0  0  0  0  0  0  0
  -20.5963   22.8144    0.0959 C   0  0  0  0  0  0  0  0  0  0  0  0
  -24.1420   25.2520   -3.3424 O   0  0  0  0  0  0  0  0  0  0  0  0
  -18.3764   25.5078    2.5825 C   0  0  0  0  0  0  0  0  0  0  0  0
  -18.9874   24.4700   -0.3849 C   0  0  0  0  0  0  0  0  0  0  0  0
  -21.5158   24.0396   -8.9646 C   0  0  0  0  0  0  0  0  0  0  0  0
  -23.6075   24.1752   -1.2440 C   0  0  0  0  0  0  0  0  0  0  0  0
  -22.4592   24.3500   -0.0428 C   0  0  0  0  0  0  0  0  0  0  0  0
  -23.7133   24.9648   -0.0341 C   0  0  0  0  0  0  0  0  0  0  0  0
  -17.4862   25.3082    1.3698 C   0  0  0  0  0  0  0  0  0  0  0  0
  -22.8261   23.2408   -3.8074 O   0  0  0  0  0  0  0  0  0  0  0  0
  -22.4937   25.6569   -7.4683 C   0  0  0  0  0  0  0  0  0  0  0  0
  1  2  1  0
  1 12  1  0
  1 30  1  0
  2  5  1  0
  3 17  1  0
  3 18  1  0
  3 30  1  0
  4 30  1  0
  5 14  1  0
  5 17  1  0
  6  7  1  0
  6 21  1  0
  6 25  1  0
  7 11  1  0
  8 15  1  0
  8 20  1  0
  9 23  1  0
  9 28  1  0
 10 11  1  0
 10 23  1  0
 11 13  1  0
 11 14  1  0
 13 20  1  0
 13 26  1  0
 15 23  1  0
 16 17  1  0
 16 29  1  0
 18 24  1  0
 19 27  1  0
 22 28  1  0
 25 27  1  0
 26 27  1  0
M  END
>  <ID>  (1) 
conformer_0

$$$$
