
     RDKit          3D

 28 32  0  0  0  0  0  0  0  0999 V2000
  -22.1196   24.0439    0.9667 C   0  0  0  0  0  0  0  0  0  0  0  0
  -20.6670   25.7094   -5.7086 C   0  0  0  0  0  0  0  0  0  0  0  0
  -21.3776   25.8285   -6.9401 C   0  0  0  0  0  0  0  0  0  0  0  0
  -23.1707   24.5672   -3.4486 C   0  0  0  0  0  0  0  0  0  0  0  0
  -18.3760   25.7665    1.5404 O   0  0  0  0  0  0  0  0  0  0  0  0
  -22.6170   25.2587   -6.9688 N   0  0  0  0  0  0  0  0  0  0  0  0
  -19.3733   25.9645   -5.8605 N   0  0  0  0  0  0  0  0  0  0  0  0
  -24.4000   23.9246   -3.4784 C   0  0  0  0  0  0  0  0  0  0  0  0
  -20.3493   26.2432   -7.8983 C   0  0  0  0  0  0  0  0  0  0  0  0
  -19.6151   25.2066    1.2855 C   0  0  0  0  0  0  0  0  0  0  0  0
  -22.2368   24.8629   -2.4440 C   0  0  0  0  0  0  0  0  0  0  0  0
  -19.0627   26.3385   -7.1627 C   0  0  0  0  0  0  0  0  0  0  0  0
  -19.9093   24.8109   -2.8556 O   0  0  0  0  0  0  0  0  0  0  0  0
  -24.8914   25.8020   -1.5940 O   0  0  0  0  0  0  0  0  0  0  0  0
  -21.3247   25.3862   -4.5634 C   0  0  0  0  0  0  0  0  0  0  0  0
  -23.9465   25.4006   -0.7675 C   0  0  0  0  0  0  0  0  0  0  0  0
  -21.6643   24.8471   -0.0383 C   0  0  0  0  0  0  0  0  0  0  0  0
  -23.2055   24.7271   -5.8871 C   0  0  0  0  0  0  0  0  0  0  0  0
  -17.9966   25.7057    3.0405 C   0  0  0  0  0  0  0  0  0  0  0  0
  -24.4284   24.0755   -5.9099 N   0  0  0  0  0  0  0  0  0  0  0  0
  -22.5739   25.0808   -1.1146 N   0  0  0  0  0  0  0  0  0  0  0  0
  -21.3712   23.8255    2.1053 C   0  0  0  0  0  0  0  0  0  0  0  0
  -24.9816   23.6711   -4.6865 C   0  0  0  0  0  0  0  0  0  0  0  0
  -20.1475   24.4172    2.2979 C   0  0  0  0  0  0  0  0  0  0  0  0
  -22.6040   24.8747   -4.6583 C   0  0  0  0  0  0  0  0  0  0  0  0
  -21.0376   25.1313   -3.1795 C   0  0  0  0  0  0  0  0  0  0  0  0
  -20.3512   25.3955    0.0715 C   0  0  0  0  0  0  0  0  0  0  0  0
  -24.4736   25.4323    0.5915 C   0  0  0  0  0  0  0  0  0  0  0  0
  1 17  2  0
  1 22  1  0
  2  3  1  0
  2  7  1  0
  2 15  2  0
  3  6  1  0
  3  9  1  0
  4  8  1  0
  4 11  1  0
  4 25  2  0
  5 10  1  0
  5 19  1  0
  6 18  2  0
  7 12  1  0
  8 23  2  0
  9 12  1  0
 10 24  1  0
 10 27  2  0
 11 21  1  0
 11 26  1  0
 13 26  2  0
 14 16  2  0
 15 25  1  0
 15 26  1  0
 16 21  1  0
 16 28  1  0
 17 21  1  0
 17 27  1  0
 18 20  1  0
 18 25  1  0
 20 23  1  0
 22 24  2  0
M  END
>  <ID>  (1) 
conformer_0

$$$$
