
     RDKit          3D

 25 30  0  0  0  0  0  0  0  0999 V2000
  -23.2151   25.0280   -4.5624 N   0  0  0  0  0  0  0  0  0  0  0  0
  -22.2356   24.8592   -8.9336 C   0  0  0  0  0  0  0  0  0  0  0  0
  -23.3584   25.0091   -2.0362 C   0  0  0  0  0  0  0  0  0  0  0  0
  -23.4484   24.9682    0.2717 C   0  0  0  0  0  0  0  0  0  0  0  0
  -19.2050   26.5895   -7.2530 C   0  0  0  0  0  0  0  0  0  0  0  0
  -19.5918   26.2719   -8.7315 C   0  0  0  0  0  0  0  0  0  0  0  0
  -21.1021   25.9103   -8.9075 C   0  0  0  0  0  0  0  0  0  0  0  0
  -22.7664   24.8534   -3.2624 C   0  0  0  0  0  0  0  0  0  0  0  0
  -19.4612   25.0075   -1.8462 O   0  0  0  0  0  0  0  0  0  0  0  0
  -18.7141   24.6000   -0.6078 C   0  0  0  0  0  0  0  0  0  0  0  0
  -24.6871   25.4497   -0.2320 C   0  0  0  0  0  0  0  0  0  0  0  0
  -22.6378   24.7136   -0.8182 C   0  0  0  0  0  0  0  0  0  0  0  0
  -20.7784   24.1845    0.5761 C   0  0  0  0  0  0  0  0  0  0  0  0
  -21.3492   24.2447   -0.7862 C   0  0  0  0  0  0  0  0  0  0  0  0
  -20.1556   25.7785   -6.4107 N   0  0  0  0  0  0  0  0  0  0  0  0
  -24.6114   25.4796   -1.6818 C   0  0  0  0  0  0  0  0  0  0  0  0
  -22.0771   25.1514   -5.3949 C   0  0  0  0  0  0  0  0  0  0  0  0
  -19.8004   25.4440   -5.1115 C   0  0  0  0  0  0  0  0  0  0  0  0
  -20.9572   25.0211   -4.4989 C   0  0  0  0  0  0  0  0  0  0  0  0
  -21.5398   25.4732   -6.6874 C   0  0  0  0  0  0  0  0  0  0  0  0
  -21.3931   24.6441   -3.2468 N   0  0  0  0  0  0  0  0  0  0  0  0
  -20.2543   22.8913   -2.2866 O   0  0  0  0  0  0  0  0  0  0  0  0
  -22.5884   25.3868   -7.7196 O   0  0  0  0  0  0  0  0  0  0  0  0
  -20.5979   24.1355   -2.1057 C   0  0  0  0  0  0  0  0  0  0  0  0
  -19.5253   25.0041    0.6097 C   0  0  0  0  0  0  0  0  0  0  0  0
  1  8  1  0
  1 17  1  0
  2  7  1  0
  2 23  1  0
  3  8  2  0
  3 12  1  0
  3 16  1  0
  4 11  1  0
  4 12  1  0
  5  6  1  0
  5 15  1  0
  6  7  1  0
  8 21  1  0
  9 10  1  0
  9 24  1  0
 10 25  1  0
 11 16  1  0
 12 14  2  0
 13 14  1  0
 13 25  1  0
 14 24  1  0
 15 18  1  0
 15 20  1  0
 17 19  2  0
 17 20  1  0
 18 19  1  0
 19 21  1  0
 20 23  1  0
 21 24  1  0
 22 24  1  0
M  END
>  <ID>  (1) 
conformer_0

$$$$
