
     RDKit          3D

 19 20  0  0  0  0  0  0  0  0999 V2000
  -21.6157   25.4267   -6.3991 C   0  0  0  0  0  0  0  0  0  0  0  0
  -24.2827   23.9768   -5.6707 C   0  0  0  0  0  0  0  0  0  0  0  0
  -20.2486   25.6882   -6.5703 C   0  0  0  0  0  0  0  0  0  0  0  0
  -23.4340   24.7647   -4.9746 N   0  0  0  0  0  0  0  0  0  0  0  0
  -19.8509   25.1301   -4.3349 C   0  0  0  0  0  0  0  0  0  0  0  0
  -22.2649   25.3911   -1.9644 C   0  0  0  0  0  0  0  0  0  0  0  0
  -24.2889   26.3197   -0.9083 C   0  0  0  0  0  0  0  0  0  0  0  0
  -19.3920   25.5196   -5.5387 N   0  0  0  0  0  0  0  0  0  0  0  0
  -21.6680   24.6252   -2.9287 N   0  0  0  0  0  0  0  0  0  0  0  0
  -21.7874   24.9575   -0.5899 C   0  0  0  0  0  0  0  0  0  0  0  0
  -25.5542   24.1763   -5.4340 O   0  0  0  0  0  0  0  0  0  0  0  0
  -21.1217   23.6475   -0.7480 O   0  0  0  0  0  0  0  0  0  0  0  0
  -19.7723   26.2280   -7.9512 C   0  0  0  0  0  0  0  0  0  0  0  0
  -23.6690   25.8433   -2.2311 C   0  0  0  0  0  0  0  0  0  0  0  0
  -21.1879   24.9242   -4.1185 C   0  0  0  0  0  0  0  0  0  0  0  0
  -22.0880   25.0231   -5.1740 C   0  0  0  0  0  0  0  0  0  0  0  0
  -24.2124   25.1812    0.1509 C   0  0  0  0  0  0  0  0  0  0  0  0
  -23.9364   23.1443   -6.4737 O   0  0  0  0  0  0  0  0  0  0  0  0
  -22.7773   24.8345    0.5395 C   0  0  0  0  0  0  0  0  0  0  0  0
  1  3  2  0
  1 16  1  0
  2  4  1  0
  2 11  2  0
  2 18  1  0
  3  8  1  0
  3 13  1  0
  4 16  1  0
  5  8  2  0
  5 15  1  0
  6  9  1  0
  6 10  1  0
  6 14  1  0
  7 14  1  0
  7 17  1  0
  9 15  1  0
 10 12  1  0
 10 19  1  0
 15 16  2  0
 17 19  1  0
M  END
>  <ID>  (1) 
conformer_0

$$$$
