
     RDKit          3D

 32 37  0  0  0  0  0  0  0  0999 V2000
  -25.4995   22.5789   -6.3877 O   0  0  0  0  0  0  0  0  0  0  0  0
  -21.8985   24.9741   -0.1196 N   0  0  0  0  0  0  0  0  0  0  0  0
  -22.6083   24.6717   -5.5801 C   0  0  0  0  0  0  0  0  0  0  0  0
  -19.4044   24.9476   -0.0782 C   0  0  0  0  0  0  0  0  0  0  0  0
  -20.7090   24.3027    0.5677 C   0  0  0  0  0  0  0  0  0  0  0  0
  -24.5225   23.6381   -3.2178 C   0  0  0  0  0  0  0  0  0  0  0  0
  -18.8660   24.6241   -3.8091 C   0  0  0  0  0  0  0  0  0  0  0  0
  -20.3055   26.1161   -8.3158 C   0  0  0  0  0  0  0  0  0  0  0  0
  -25.2033   25.7803   -0.6714 N   0  0  0  0  0  0  0  0  0  0  0  0
  -24.6626   23.2513   -5.6116 C   0  0  0  0  0  0  0  0  0  0  0  0
  -16.9835   26.6195   -7.0050 C   0  0  0  0  0  0  0  0  0  0  0  0
  -18.7454   24.0558   -1.1765 C   0  0  0  0  0  0  0  0  0  0  0  0
  -22.7394   24.7880   -4.2360 C   0  0  0  0  0  0  0  0  0  0  0  0
  -24.9837   23.0718   -4.2728 C   0  0  0  0  0  0  0  0  0  0  0  0
  -23.2534   24.5948   -8.8151 C   0  0  0  0  0  0  0  0  0  0  0  0
  -23.6440   23.9007   -7.6412 O   0  0  0  0  0  0  0  0  0  0  0  0
  -21.8811   25.1952   -1.4113 N   0  0  0  0  0  0  0  0  0  0  0  0
  -21.4515   25.1700   -6.3216 C   0  0  0  0  0  0  0  0  0  0  0  0
  -22.5305   25.7734   -8.6817 C   0  0  0  0  0  0  0  0  0  0  0  0
  -18.3051   26.1984   -7.0320 C   0  0  0  0  0  0  0  0  0  0  0  0
  -23.4836   24.5258   -3.1557 C   0  0  0  0  0  0  0  0  0  0  0  0
  -18.9353   25.5488   -5.9399 C   0  0  0  0  0  0  0  0  0  0  0  0
  -23.6255   23.9509   -6.2684 C   0  0  0  0  0  0  0  0  0  0  0  0
  -19.0455   26.4370   -8.1715 C   0  0  0  0  0  0  0  0  0  0  0  0
  -18.3824   24.0521   -2.5671 C   0  0  0  0  0  0  0  0  0  0  0  0
  -18.0689   25.2091   -4.8199 C   0  0  0  0  0  0  0  0  0  0  0  0
  -23.1333   25.1976    0.3422 N   0  0  0  0  0  0  0  0  0  0  0  0
  -20.1389   24.6401   -4.2633 C   0  0  0  0  0  0  0  0  0  0  0  0
  -21.4168   25.6471   -7.6759 C   0  0  0  0  0  0  0  0  0  0  0  0
  -20.2323   25.1412   -5.5485 C   0  0  0  0  0  0  0  0  0  0  0  0
  -23.9218   25.3405   -0.7293 C   0  0  0  0  0  0  0  0  0  0  0  0
  -23.1308   25.0893   -1.8507 C   0  0  0  0  0  0  0  0  0  0  0  0
  1 10  1  0
  2  5  1  0
  2 17  1  0
  2 27  1  0
  3 13  1  0
  3 18  1  0
  3 23  1  0
  4  5  1  0
  4 12  1  0
  6 14  2  0
  6 21  1  0
  7 25  1  0
  7 26  1  0
  7 28  1  0
  8 24  2  0
  8 29  1  0
  9 31  2  0
 10 14  1  0
 10 23  2  0
 11 20  1  0
 12 25  1  0
 13 21  2  0
 15 16  1  0
 15 19  1  0
 16 23  1  0
 17 32  1  0
 18 29  2  0
 18 30  1  0
 19 29  1  0
 20 22  2  0
 20 24  1  0
 21 32  1  0
 22 26  1  0
 22 30  1  0
 27 31  1  0
 28 30  1  0
 31 32  1  0
M  END
>  <ID>  (1) 
conformer_0

$$$$
