
     RDKit          3D

 29 32  0  0  0  0  0  0  0  0999 V2000
  -22.5869   25.4451   -6.8492 N   0  0  0  0  0  0  0  0  0  0  0  0
  -21.3146   25.3897   -4.9776 C   0  0  0  0  0  0  0  0  0  0  0  0
  -23.4684   25.1037   -0.8497 C   0  0  0  0  0  0  0  0  0  0  0  0
  -25.3395   24.2432   -3.3820 N   0  0  0  0  0  0  0  0  0  0  0  0
  -22.7070   25.0705   -5.4857 C   0  0  0  0  0  0  0  0  0  0  0  0
  -17.9163   26.6762   -8.1198 C   0  0  0  0  0  0  0  0  0  0  0  0
  -19.9664   25.6137   -5.1348 N   0  0  0  0  0  0  0  0  0  0  0  0
  -20.0782   25.1266    0.4275 C   0  0  0  0  0  0  0  0  0  0  0  0
  -24.7430   25.3346   -0.2858 Cl  0  0  0  0  0  0  0  0  0  0  0  0
  -25.2116   23.9876   -4.7238 C   0  0  0  0  0  0  0  0  0  0  0  0
  -18.0000   25.3970    2.2859 C   0  0  0  0  0  0  0  0  0  0  0  0
  -24.1238   24.6181   -5.2768 N   0  0  0  0  0  0  0  0  0  0  0  0
  -22.7888   24.2977    1.3227 C   0  0  0  0  0  0  0  0  0  0  0  0
  -17.7797   25.4882    0.9088 C   0  0  0  0  0  0  0  0  0  0  0  0
  -26.0605   23.2407   -5.2786 O   0  0  0  0  0  0  0  0  0  0  0  0
  -21.9602   25.2907   -2.5824 C   0  0  0  0  0  0  0  0  0  0  0  0
  -24.4738   25.0245   -2.8674 N   0  0  0  0  0  0  0  0  0  0  0  0
  -19.2645   25.8652   -6.2621 C   0  0  0  0  0  0  0  0  0  0  0  0
  -20.2924   25.0259    1.8155 C   0  0  0  0  0  0  0  0  0  0  0  0
  -21.4248   25.5711   -7.5360 C   0  0  0  0  0  0  0  0  0  0  0  0
  -23.2844   25.1345   -2.1898 C   0  0  0  0  0  0  0  0  0  0  0  0
  -20.0597   25.9528   -7.4886 C   0  0  0  0  0  0  0  0  0  0  0  0
  -18.8040   25.3343   -0.0318 C   0  0  0  0  0  0  0  0  0  0  0  0
  -21.1310   25.0599   -0.5066 N   0  0  0  0  0  0  0  0  0  0  0  0
  -19.2753   25.1516    2.7207 C   0  0  0  0  0  0  0  0  0  0  0  0
  -20.8819   25.2392   -1.8312 N   0  0  0  0  0  0  0  0  0  0  0  0
  -19.2552   26.3208   -8.6205 C   0  0  0  0  0  0  0  0  0  0  0  0
  -17.9544   26.3924   -6.6682 C   0  0  0  0  0  0  0  0  0  0  0  0
  -22.4152   24.8450   -0.0034 C   0  0  0  0  0  0  0  0  0  0  0  0
  1  5  2  0
  1 20  1  0
  2  5  1  0
  2  7  1  0
  3  9  1  0
  3 21  1  0
  3 29  1  0
  4 10  1  0
  4 17  1  0
  5 12  1  0
  6 27  1  0
  6 28  1  0
  7 18  2  0
  8 19  1  0
  8 23  2  0
  8 24  1  0
 10 12  1  0
 10 15  2  0
 11 14  2  0
 11 25  1  0
 13 29  1  0
 14 23  1  0
 16 21  2  0
 16 26  1  0
 17 21  1  0
 18 22  1  0
 18 28  1  0
 19 25  2  0
 20 22  1  0
 22 27  1  0
 24 26  1  0
 24 29  1  0
M  END
>  <ID>  (1) 
conformer_0

$$$$
