
     RDKit          3D

 24 28  0  0  0  0  0  0  0  0999 V2000
  -21.1651   24.2764   -1.6227 C   0  0  0  0  0  0  0  0  0  0  0  0
  -17.9259   26.2072   -6.4581 C   0  0  0  0  0  0  0  0  0  0  0  0
  -21.2389   26.4246   -8.2817 C   0  0  0  0  0  0  0  0  0  0  0  0
  -22.0023   24.6941   -2.7328 C   0  0  0  0  0  0  0  0  0  0  0  0
  -25.4219   24.6132   -3.7084 O   0  0  0  0  0  0  0  0  0  0  0  0
  -23.5395   25.1511   -4.9469 N   0  0  0  0  0  0  0  0  0  0  0  0
  -22.9335   24.9334   -0.0557 C   0  0  0  0  0  0  0  0  0  0  0  0
  -24.9794   25.7943   -1.0022 O   0  0  0  0  0  0  0  0  0  0  0  0
  -19.9001   26.3916   -7.6515 N   0  0  0  0  0  0  0  0  0  0  0  0
  -21.4290   24.8902   -3.9229 C   0  0  0  0  0  0  0  0  0  0  0  0
  -22.1822   25.2210   -5.0235 C   0  0  0  0  0  0  0  0  0  0  0  0
  -19.2175   25.1901   -0.4423 O   0  0  0  0  0  0  0  0  0  0  0  0
  -18.7996   24.3950   -1.5490 C   0  0  0  0  0  0  0  0  0  0  0  0
  -21.5136   24.7977   -0.3357 C   0  0  0  0  0  0  0  0  0  0  0  0
  -18.9788   25.6731   -5.6873 C   0  0  0  0  0  0  0  0  0  0  0  0
  -19.9468   23.6119   -2.0113 C   0  0  0  0  0  0  0  0  0  0  0  0
  -21.5082   25.6468   -6.2180 C   0  0  0  0  0  0  0  0  0  0  0  0
  -20.1278   25.8135   -6.3633 C   0  0  0  0  0  0  0  0  0  0  0  0
  -23.8337   25.1800   -1.1647 C   0  0  0  0  0  0  0  0  0  0  0  0
  -20.2660   24.6668    0.4560 C   0  0  0  0  0  0  0  0  0  0  0  0
  -22.2099   25.9751   -7.3517 N   0  0  0  0  0  0  0  0  0  0  0  0
  -18.4448   26.6557   -7.6890 C   0  0  0  0  0  0  0  0  0  0  0  0
  -23.3795   24.8835   -2.5119 C   0  0  0  0  0  0  0  0  0  0  0  0
  -24.1333   24.9047   -3.7526 C   0  0  0  0  0  0  0  0  0  0  0  0
  1  4  1  0
  1 14  1  0
  1 16  1  0
  2 15  1  0
  2 22  1  0
  3  9  1  0
  3 21  1  0
  4 10  2  0
  4 23  1  0
  5 24  2  0
  6 11  2  0
  6 24  1  0
  7 14  1  0
  7 19  1  0
  8 19  1  0
  9 18  1  0
  9 22  1  0
 10 11  1  0
 11 17  1  0
 12 13  1  0
 12 20  1  0
 13 16  1  0
 14 20  1  0
 15 18  1  0
 17 18  2  0
 17 21  1  0
 19 23  1  0
 23 24  1  0
M  END
>  <ID>  (1) 
conformer_0

$$$$
