
     RDKit          3D

 21 23  0  0  0  0  0  0  0  0999 V2000
  -23.6998   24.8886   -2.7983 C   0  0  0  0  0  0  0  0  0  0  0  0
  -23.1200   24.1650   -3.8444 C   0  0  0  0  0  0  0  0  0  0  0  0
  -22.8487   24.9848   -0.5355 N   0  0  0  0  0  0  0  0  0  0  0  0
  -22.7514   25.5088   -1.8730 C   0  0  0  0  0  0  0  0  0  0  0  0
  -21.5969   26.3841   -8.9119 O   0  0  0  0  0  0  0  0  0  0  0  0
  -22.8218   25.5304   -7.1675 N   0  0  0  0  0  0  0  0  0  0  0  0
  -21.7267   23.8374    1.2562 C   0  0  0  0  0  0  0  0  0  0  0  0
  -24.1093   24.4231    1.3856 C   0  0  0  0  0  0  0  0  0  0  0  0
  -20.1528   25.5945   -5.7057 C   0  0  0  0  0  0  0  0  0  0  0  0
  -23.0235   25.0811   -6.0105 C   0  0  0  0  0  0  0  0  0  0  0  0
  -20.5714   25.2987   -3.3236 C   0  0  0  0  0  0  0  0  0  0  0  0
  -24.9561   25.0163   -2.6763 O   0  0  0  0  0  0  0  0  0  0  0  0
  -21.6212   25.9317   -7.7409 C   0  0  0  0  0  0  0  0  0  0  0  0
  -21.0399   25.2740   -4.6639 C   0  0  0  0  0  0  0  0  0  0  0  0
  -24.1192   24.9751    0.0545 C   0  0  0  0  0  0  0  0  0  0  0  0
  -21.3781   25.6779   -2.2464 C   0  0  0  0  0  0  0  0  0  0  0  0
  -20.4527   25.8891   -6.9965 N   0  0  0  0  0  0  0  0  0  0  0  0
  -18.9543   25.6361   -5.4258 O   0  0  0  0  0  0  0  0  0  0  0  0
  -22.3757   24.8725   -4.8628 C   0  0  0  0  0  0  0  0  0  0  0  0
  -21.6506   24.7978    0.1825 C   0  0  0  0  0  0  0  0  0  0  0  0
  -23.0582   23.4776    1.6623 C   0  0  0  0  0  0  0  0  0  0  0  0
  1  2  1  0
  1  4  1  0
  1 12  2  0
  2 19  1  0
  3  4  1  0
  3 15  1  0
  3 20  1  0
  4 16  1  0
  5 13  2  0
  6 10  2  0
  6 13  1  0
  7 20  1  0
  7 21  1  0
  8 15  1  0
  8 21  1  0
  9 14  1  0
  9 17  1  0
  9 18  2  0
 10 19  1  0
 11 14  1  0
 11 16  1  0
 13 17  1  0
 14 19  1  0
M  END
>  <ID>  (1) 
conformer_0

$$$$
