
     RDKit          3D

 13 14  0  0  0  0  0  0  0  0999 V2000
  -21.0367   25.1406   -3.3529 C   0  0  0  0  0  0  0  0  0  0  0  0
  -20.6856   25.0815   -5.8310 C   0  0  0  0  0  0  0  0  0  0  0  0
  -22.9151   25.1842   -4.7703 C   0  0  0  0  0  0  0  0  0  0  0  0
  -23.4691   24.8767   -5.9410 O   0  0  0  0  0  0  0  0  0  0  0  0
  -19.8241   26.8402   -6.8354 C   0  0  0  0  0  0  0  0  0  0  0  0
  -23.7638   25.4071   -3.7026 C   0  0  0  0  0  0  0  0  0  0  0  0
  -21.1328   25.9750   -6.8904 O   0  0  0  0  0  0  0  0  0  0  0  0
  -24.2142   25.7823   -1.0524 Cl  0  0  0  0  0  0  0  0  0  0  0  0
  -23.1769   25.5216   -2.4561 C   0  0  0  0  0  0  0  0  0  0  0  0
  -19.3889   25.8466   -5.7395 C   0  0  0  0  0  0  0  0  0  0  0  0
  -21.8298   25.3868   -2.2494 C   0  0  0  0  0  0  0  0  0  0  0  0
  -21.5417   25.1671   -4.6524 C   0  0  0  0  0  0  0  0  0  0  0  0
  -19.7003   24.7195   -3.0971 C   0  0  0  0  0  0  0  0  0  0  0  0
  1 11  1  0
  1 12  1  0
  1 13  1  0
  2  7  1  0
  2 10  1  0
  2 12  1  0
  3  4  1  0
  3  6  1  0
  3 12  2  0
  5  7  1  0
  5 10  1  0
  6  9  1  0
  8  9  1  0
  9 11  2  0
M  END
>  <ID>  (1) 
conformer_0

$$$$
