
     RDKit          3D

 21 22  0  0  0  0  0  0  0  0999 V2000
  -25.0051   22.3266   -5.6254 O   0  0  0  0  0  0  0  0  0  0  0  0
  -24.2429   25.5757   -0.2547 C   0  0  0  0  0  0  0  0  0  0  0  0
  -23.1167   24.7989   -4.7208 C   0  0  0  0  0  0  0  0  0  0  0  0
  -24.0782   24.4526   -5.6767 N   0  0  0  0  0  0  0  0  0  0  0  0
  -19.4584   25.1472   -4.7512 C   0  0  0  0  0  0  0  0  0  0  0  0
  -20.7209   24.8869   -4.4307 N   0  0  0  0  0  0  0  0  0  0  0  0
  -19.2108   25.8070   -5.9335 C   0  0  0  0  0  0  0  0  0  0  0  0
  -22.8107   25.1022    0.1597 C   0  0  0  0  0  0  0  0  0  0  0  0
  -19.8802   25.1224   -0.5737 O   0  0  0  0  0  0  0  0  0  0  0  0
  -22.1328   24.6993   -1.1078 C   0  0  0  0  0  0  0  0  0  0  0  0
  -17.6380   26.1240   -6.4926 Cl  0  0  0  0  0  0  0  0  0  0  0  0
  -25.0507   23.5283   -5.2751 C   0  0  0  0  0  0  0  0  0  0  0  0
  -21.5885   25.9670   -6.3302 C   0  0  0  0  0  0  0  0  0  0  0  0
  -21.7954   25.2365   -5.1629 C   0  0  0  0  0  0  0  0  0  0  0  0
  -23.2749   24.2731   -3.4323 C   0  0  0  0  0  0  0  0  0  0  0  0
  -26.0460   23.9103   -4.5549 O   0  0  0  0  0  0  0  0  0  0  0  0
  -20.2841   26.2299   -6.7185 N   0  0  0  0  0  0  0  0  0  0  0  0
  -20.6729   24.3864   -1.1976 C   0  0  0  0  0  0  0  0  0  0  0  0
  -23.0470   24.9128   -2.1963 N   0  0  0  0  0  0  0  0  0  0  0  0
  -20.3032   23.4038   -1.8785 O   0  0  0  0  0  0  0  0  0  0  0  0
  -24.3093   25.4812   -1.6969 C   0  0  0  0  0  0  0  0  0  0  0  0
  1 12  2  0
  2  8  1  0
  2 21  1  0
  3  4  1  0
  3 14  1  0
  3 15  1  0
  4 12  1  0
  5  6  2  0
  5  7  1  0
  6 14  1  0
  7 11  1  0
  7 17  2  0
  8 10  1  0
  9 18  2  0
 10 18  1  0
 10 19  1  0
 12 16  1  0
 13 14  2  0
 13 17  1  0
 15 19  1  0
 18 20  1  0
 19 21  1  0
M  END
>  <ID>  (1) 
conformer_0

$$$$
