
     RDKit          3D

 14 16  0  0  0  0  0  0  0  0999 V2000
  -20.2166   25.5484   -4.5340 C   0  0  0  0  0  0  0  0  0  0  0  0
  -24.8558   25.1222   -3.9788 O   0  0  0  0  0  0  0  0  0  0  0  0
  -22.6662   25.5052   -5.8004 N   0  0  0  0  0  0  0  0  0  0  0  0
  -21.4427   25.3980   -0.7074 C   0  0  0  0  0  0  0  0  0  0  0  0
  -20.2979   25.5618   -5.9189 C   0  0  0  0  0  0  0  0  0  0  0  0
  -23.7000   25.4174   -3.5982 C   0  0  0  0  0  0  0  0  0  0  0  0
  -23.8050   25.2823   -0.9300 C   0  0  0  0  0  0  0  0  0  0  0  0
  -21.3963   25.5216   -3.7606 C   0  0  0  0  0  0  0  0  0  0  0  0
  -23.2614   25.4950   -2.2289 C   0  0  0  0  0  0  0  0  0  0  0  0
  -21.6759   25.4878   -2.1916 C   0  0  0  0  0  0  0  0  0  0  0  0
  -22.7060   25.1036    0.0539 C   0  0  0  0  0  0  0  0  0  0  0  0
  -22.5888   25.4862   -4.4567 C   0  0  0  0  0  0  0  0  0  0  0  0
  -20.3640   24.8088   -0.1896 O   0  0  0  0  0  0  0  0  0  0  0  0
  -21.5196   25.5425   -6.5510 C   0  0  0  0  0  0  0  0  0  0  0  0
  1  5  2  0
  1  8  1  0
  2  6  2  0
  3 12  1  0
  3 14  2  0
  4 10  1  0
  4 11  1  0
  4 13  1  0
  5 14  1  0
  6  9  1  0
  6 12  1  0
  7  9  1  0
  7 11  1  0
  8 10  1  0
  8 12  2  0
  9 10  2  0
M  END
>  <ID>  (1) 
conformer_0

$$$$
