
     RDKit          3D

 26 28  0  0  0  0  0  0  0  0999 V2000
  -20.0245   25.7950   -8.3008 C   0  0  0  0  0  0  0  0  0  0  0  0
  -20.9242   25.2650   -4.7352 C   0  0  0  0  0  0  0  0  0  0  0  0
  -17.6470   26.8148   -8.3777 O   0  0  0  0  0  0  0  0  0  0  0  0
  -25.1089   25.9282   -0.6284 F   0  0  0  0  0  0  0  0  0  0  0  0
  -21.2705   26.0772   -1.9212 O   0  0  0  0  0  0  0  0  0  0  0  0
  -23.8810   23.6180    0.8294 F   0  0  0  0  0  0  0  0  0  0  0  0
  -22.1843   24.9930   -6.8180 N   0  0  0  0  0  0  0  0  0  0  0  0
  -22.1243   25.2261   -3.9241 C   0  0  0  0  0  0  0  0  0  0  0  0
  -24.0709   25.1922   -0.7733 C   0  0  0  0  0  0  0  0  0  0  0  0
  -22.3908   24.0269   -1.9212 O   0  0  0  0  0  0  0  0  0  0  0  0
  -23.4451   24.8668   -4.2826 C   0  0  0  0  0  0  0  0  0  0  0  0
  -18.7439   26.1939   -6.3784 N   0  0  0  0  0  0  0  0  0  0  0  0
  -17.6306   26.5119   -7.0144 C   0  0  0  0  0  0  0  0  0  0  0  0
  -16.6223   26.7590   -6.2714 O   0  0  0  0  0  0  0  0  0  0  0  0
  -22.2320   24.9722   -8.1559 C   0  0  0  0  0  0  0  0  0  0  0  0
  -19.9336   25.7592   -6.9133 C   0  0  0  0  0  0  0  0  0  0  0  0
  -23.4500   24.4801   -8.8137 C   0  0  0  0  0  0  0  0  0  0  0  0
  -21.1834   25.3704   -8.9073 N   0  0  0  0  0  0  0  0  0  0  0  0
  -23.5995   24.7612    0.4880 C   0  0  0  0  0  0  0  0  0  0  0  0
  -22.0353   25.1580   -2.4671 C   0  0  0  0  0  0  0  0  0  0  0  0
  -23.3498   24.8575   -1.9341 C   0  0  0  0  0  0  0  0  0  0  0  0
  -21.0619   25.3388   -6.1874 C   0  0  0  0  0  0  0  0  0  0  0  0
  -18.8664   26.3591   -9.0619 C   0  0  0  0  0  0  0  0  0  0  0  0
  -22.6086   25.4416    0.9389 F   0  0  0  0  0  0  0  0  0  0  0  0
  -19.8322   25.1102   -4.2186 O   0  0  0  0  0  0  0  0  0  0  0  0
  -24.2695   24.8874   -3.0715 C   0  0  0  0  0  0  0  0  0  0  0  0
  1 16  1  0
  1 18  1  0
  1 23  2  0
  2  8  1  0
  2 22  1  0
  2 25  2  0
  3 13  1  0
  3 23  1  0
  4  9  1  0
  5 20  2  0
  6 19  1  0
  7 15  1  0
  7 22  2  0
  8 11  1  0
  8 20  1  0
  9 19  1  0
  9 21  1  0
 10 20  1  0
 10 21  1  0
 11 26  1  0
 12 13  1  0
 12 16  2  0
 13 14  2  0
 15 17  1  0
 15 18  2  0
 16 22  1  0
 19 24  1  0
 21 26  1  0
M  END
>  <ID>  (1) 
conformer_0

$$$$
