
     RDKit          3D

 14 15  0  0  0  0  0  0  0  0999 V2000
  -24.5124   23.7899   -5.4901 O   0  0  0  0  0  0  0  0  0  0  0  0
  -23.3696   24.3624   -5.2198 C   0  0  0  0  0  0  0  0  0  0  0  0
  -21.2889   25.1382   -2.2647 C   0  0  0  0  0  0  0  0  0  0  0  0
  -22.5695   24.8604   -6.2576 C   0  0  0  0  0  0  0  0  0  0  0  0
  -23.3659   25.6847   -0.7564 C   0  0  0  0  0  0  0  0  0  0  0  0
  -20.0629   25.0254   -2.0162 O   0  0  0  0  0  0  0  0  0  0  0  0
  -21.6165   25.8520   -5.8561 C   0  0  0  0  0  0  0  0  0  0  0  0
  -22.1187   25.8221   -1.3083 C   0  0  0  0  0  0  0  0  0  0  0  0
  -20.9188   25.5618   -4.6578 C   0  0  0  0  0  0  0  0  0  0  0  0
  -21.6566   24.9639   -3.6081 C   0  0  0  0  0  0  0  0  0  0  0  0
  -23.0292   24.6695   -3.8604 C   0  0  0  0  0  0  0  0  0  0  0  0
  -24.3999   25.4377   -1.7204 C   0  0  0  0  0  0  0  0  0  0  0  0
  -24.0311   24.7511   -2.8388 C   0  0  0  0  0  0  0  0  0  0  0  0
  -22.8931   24.8087   -7.6641 C   0  0  0  0  0  0  0  0  0  0  0  0
  1  2  1  0
  2  4  1  0
  2 11  1  0
  3  6  2  0
  3  8  1  0
  3 10  1  0
  4  7  1  0
  4 14  1  0
  5  8  1  0
  5 12  1  0
  7  9  1  0
  9 10  1  0
 10 11  1  0
 11 13  1  0
 12 13  1  0
M  END
>  <ID>  (1) 
conformer_0

$$$$
