
     RDKit          3D

 16 17  0  0  0  0  0  0  0  0999 V2000
  -21.2537   25.6753   -3.1910 C   0  0  0  0  0  0  0  0  0  0  0  0
  -20.4536   25.9006   -5.3746 C   0  0  0  0  0  0  0  0  0  0  0  0
  -24.0303   24.7980   -2.9117 C   0  0  0  0  0  0  0  0  0  0  0  0
  -23.2400   25.2018   -1.8240 C   0  0  0  0  0  0  0  0  0  0  0  0
  -21.0717   25.8975   -7.7350 C   0  0  0  0  0  0  0  0  0  0  0  0
  -21.4799   25.5461   -4.5326 C   0  0  0  0  0  0  0  0  0  0  0  0
  -23.8027   25.2232   -0.4878 C   0  0  0  0  0  0  0  0  0  0  0  0
  -23.7438   24.7287   -4.1811 C   0  0  0  0  0  0  0  0  0  0  0  0
  -23.2022   25.3535   -8.6436 O   0  0  0  0  0  0  0  0  0  0  0  0
  -22.7134   25.0846   -5.0248 C   0  0  0  0  0  0  0  0  0  0  0  0
  -22.9525   25.0049   -6.3617 C   0  0  0  0  0  0  0  0  0  0  0  0
  -24.9981   25.6478   -0.4025 O   0  0  0  0  0  0  0  0  0  0  0  0
  -22.4016   25.3927   -7.5376 C   0  0  0  0  0  0  0  0  0  0  0  0
  -20.2388   26.0797   -6.6536 C   0  0  0  0  0  0  0  0  0  0  0  0
  -23.1097   24.7035    0.4217 O   0  0  0  0  0  0  0  0  0  0  0  0
  -21.9248   25.5748   -2.0591 C   0  0  0  0  0  0  0  0  0  0  0  0
  1  6  1  0
  1 16  2  0
  2  6  1  0
  2 14  2  0
  3  4  1  0
  3  8  2  0
  4  7  1  0
  4 16  1  0
  5 13  1  0
  5 14  1  0
  6 10  2  0
  7 12  2  0
  7 15  1  0
  8 10  1  0
  9 13  1  0
 10 11  1  0
 11 13  2  0
M  END
>  <ID>  (1) 
conformer_0

$$$$
