
     RDKit          3D

 24 26  0  0  0  0  0  0  0  0999 V2000
  -20.3924   25.6080   -7.9969 C   0  0  0  0  0  0  0  0  0  0  0  0
  -23.5633   24.6375    1.2543 N   0  0  0  0  0  0  0  0  0  0  0  0
  -23.2857   24.5853   -4.5753 C   0  0  0  0  0  0  0  0  0  0  0  0
  -20.6198   26.1585   -6.6622 C   0  0  0  0  0  0  0  0  0  0  0  0
  -18.0442   26.5743   -7.7704 C   0  0  0  0  0  0  0  0  0  0  0  0
  -21.9925   24.7558   -0.3724 N   0  0  0  0  0  0  0  0  0  0  0  0
  -21.2881   25.0694   -3.2198 C   0  0  0  0  0  0  0  0  0  0  0  0
  -20.6473   24.7603   -0.8476 C   0  0  0  0  0  0  0  0  0  0  0  0
  -23.5169   25.1980   -2.2867 N   0  0  0  0  0  0  0  0  0  0  0  0
  -23.2143   25.0404   -0.9790 C   0  0  0  0  0  0  0  0  0  0  0  0
  -25.5748   24.4625   -3.7425 O   0  0  0  0  0  0  0  0  0  0  0  0
  -22.6932   24.9111   -3.3212 C   0  0  0  0  0  0  0  0  0  0  0  0
  -25.1648   23.8361   -5.7693 O   0  0  0  0  0  0  0  0  0  0  0  0
  -21.2715   25.4179   -5.6057 C   0  0  0  0  0  0  0  0  0  0  0  0
  -19.2014   26.3150   -8.7075 C   0  0  0  0  0  0  0  0  0  0  0  0
  -20.2273   27.3685   -6.3959 O   0  0  0  0  0  0  0  0  0  0  0  0
  -24.3184   25.0319    0.0371 S   0  0  0  0  0  0  0  0  0  0  0  0
  -20.6381   25.4744   -4.3850 C   0  0  0  0  0  0  0  0  0  0  0  0
  -21.3060   24.1756    1.8078 O   0  0  0  0  0  0  0  0  0  0  0  0
  -22.5724   24.9482   -5.7555 C   0  0  0  0  0  0  0  0  0  0  0  0
  -22.2255   24.4778    1.0005 C   0  0  0  0  0  0  0  0  0  0  0  0
  -24.7249   24.3191   -4.6554 C   0  0  0  0  0  0  0  0  0  0  0  0
  -20.3608   24.6955   -2.1821 C   0  0  0  0  0  0  0  0  0  0  0  0
  -17.7535   25.6339   -6.6062 C   0  0  0  0  0  0  0  0  0  0  0  0
  1  4  1  0
  1 15  1  0
  2 17  1  0
  2 21  1  0
  3 12  1  0
  3 20  2  0
  3 22  1  0
  4 14  1  0
  4 16  1  0
  5 15  1  0
  5 24  1  0
  6  8  1  0
  6 10  1  0
  6 21  1  0
  7 12  1  0
  7 18  1  0
  7 23  1  0
  8 23  1  0
  9 10  2  0
  9 12  1  0
 10 17  1  0
 11 22  2  0
 13 22  1  0
 14 18  2  0
 14 20  1  0
 19 21  2  0
M  END
>  <ID>  (1) 
conformer_0

$$$$
