
     RDKit          3D

  9  9  0  0  0  0  0  0  0  0999 V2000
  -21.0879   25.4909   -5.8717 C   0  0  0  0  0  0  0  0  0  0  0  0
  -19.9490   25.4748   -5.0333 O   0  0  0  0  0  0  0  0  0  0  0  0
  -22.3938   25.7821   -2.5140 C   0  0  0  0  0  0  0  0  0  0  0  0
  -22.2699   25.5511   -4.9696 C   0  0  0  0  0  0  0  0  0  0  0  0
  -24.0561   25.6480   -0.7610 O   0  0  0  0  0  0  0  0  0  0  0  0
  -20.3522   25.0613   -3.7244 C   0  0  0  0  0  0  0  0  0  0  0  0
  -21.8102   25.1054   -3.6577 C   0  0  0  0  0  0  0  0  0  0  0  0
  -23.7182   25.4614   -2.0091 C   0  0  0  0  0  0  0  0  0  0  0  0
  -24.5831   25.0339   -2.8042 O   0  0  0  0  0  0  0  0  0  0  0  0
  1  2  1  0
  1  4  1  0
  2  6  1  0
  3  7  1  0
  3  8  1  0
  4  7  1  0
  5  8  2  0
  6  7  1  0
  8  9  1  0
M  END
>  <ID>  (1) 
conformer_0

$$$$
