
     RDKit          3D

 31 33  0  0  0  0  0  0  0  0999 V2000
  -18.7821   24.8313   -2.5110 O   0  0  0  0  0  1  0  0  0  0  0  0
  -20.9625   25.6330   -1.7127 O   0  0  0  0  0  0  0  0  0  0  0  0
  -24.4363   25.6531   -1.1854 N   0  0  0  0  0  0  0  0  0  0  0  0
  -19.0412   24.4747    0.2486 C   0  0  0  0  0  0  0  0  0  0  0  0
  -20.8395   26.1874   -8.0075 C   0  0  0  0  0  0  0  0  0  0  0  0
  -23.1710   25.7715   -8.3718 N   0  0  0  0  0  0  0  0  0  0  0  0
  -21.5779   23.1007    2.4354 C   0  0  0  0  0  0  0  0  0  0  0  0
  -19.7899   26.2833   -7.0025 C   0  0  0  0  0  0  0  0  0  0  0  0
  -23.5018   23.7705    1.1354 C   0  0  0  0  0  0  0  0  0  0  0  0
  -22.1057   25.7520   -7.5385 C   0  0  0  0  0  0  0  0  0  0  0  0
  -20.0060   25.7600   -5.6960 C   0  0  0  0  0  0  0  0  0  0  0  0
  -22.0780   25.0508   -3.8593 C   0  0  0  0  0  0  0  0  0  0  0  0
  -23.4001   24.5712   -5.7798 C   0  0  0  0  0  0  0  0  0  0  0  0
  -17.2181   25.3278    1.6802 O   0  0  0  0  0  0  0  0  0  0  0  0
  -19.3119   24.8006    2.5735 C   0  0  0  0  0  0  0  0  0  0  0  0
  -24.4762   24.5521    0.8665 C   0  0  0  0  0  0  0  0  0  0  0  0
  -18.5750   25.2703    1.3785 C   0  0  0  0  0  0  0  0  0  0  0  0
  -24.5714   24.7805   -3.8789 O   0  0  0  0  0  0  0  0  0  0  0  0
  -22.2303   25.2287   -6.2577 C   0  0  0  0  0  0  0  0  0  0  0  0
  -17.5811   27.4454    2.3830 O   0  0  0  0  0  0  0  0  0  0  0  0
  -22.1838   25.4147   -2.4447 C   0  0  0  0  0  0  0  0  0  0  0  0
  -20.3456   23.9522    0.6828 N   0  0  0  0  0  0  0  0  0  0  0  0
  -17.0839   26.1979    2.8172 C   0  0  0  0  0  0  0  0  0  0  0  0
  -21.3238   25.4326   -5.1429 C   0  0  0  0  0  0  0  0  0  0  0  0
  -20.5520   23.1751   -2.3120 O   0  0  0  0  0  1  0  0  0  0  0  0
  -22.6014   22.9522    1.5630 N   0  0  0  0  0  0  0  0  0  0  0  0
  -20.0798   24.4840   -2.1368 P   0  0  0  0  0  0  0  0  0  0  0  0
  -23.2793   25.3274   -1.6194 C   0  0  0  0  0  0  0  0  0  0  0  0
  -23.3684   24.6483   -4.3902 C   0  0  0  0  0  0  0  0  0  0  0  0
  -25.0390   25.2419   -0.0759 N   0  0  0  0  0  0  0  0  0  0  0  0
  -20.4697   23.9976    2.0634 C   0  0  0  0  0  0  0  0  0  0  0  0
  1 27  1  0
  2 21  1  0
  2 27  1  0
  3 28  1  0
  3 30  2  3
  4 17  1  0
  4 22  1  0
  5  8  1  0
  5 10  2  0
  6 10  1  0
  7 26  1  0
  7 31  1  0
  8 11  1  0
  9 16  1  0
  9 26  1  0
 10 19  1  0
 11 24  1  0
 12 21  1  0
 12 24  1  0
 12 29  1  0
 13 19  1  0
 13 29  1  0
 14 17  1  0
 14 23  1  0
 15 17  1  0
 15 31  1  0
 16 30  1  0
 18 29  1  0
 19 24  1  0
 20 23  1  0
 21 28  1  0
 22 31  1  0
 25 27  1  0
M  END
>  <ID>  (1) 
conformer_0

$$$$
