
     RDKit          3D

 23 26  0  0  0  0  0  0  0  0999 V2000
  -24.5649   25.2719   -3.5772 O   0  0  0  0  0  0  0  0  0  0  0  0
  -19.6280   25.9450   -7.8132 N   0  0  0  0  0  0  0  0  0  0  0  0
  -20.6998   25.5354   -7.0397 C   0  0  0  0  0  0  0  0  0  0  0  0
  -23.3638   25.1094   -3.0537 C   0  0  0  0  0  0  0  0  0  0  0  0
  -21.8371   25.0414   -4.9483 C   0  0  0  0  0  0  0  0  0  0  0  0
  -21.8942   25.4218   -7.7347 C   0  0  0  0  0  0  0  0  0  0  0  0
  -22.9971   24.9579   -5.6998 C   0  0  0  0  0  0  0  0  0  0  0  0
  -17.4253   26.7609   -8.1765 C   0  0  0  0  0  0  0  0  0  0  0  0
  -23.2849   24.9985   -1.6495 C   0  0  0  0  0  0  0  0  0  0  0  0
  -20.6394   25.3077   -5.6689 C   0  0  0  0  0  0  0  0  0  0  0  0
  -21.1655   24.5964   -2.5106 C   0  0  0  0  0  0  0  0  0  0  0  0
  -22.0059   24.8992   -3.5781 N   0  0  0  0  0  0  0  0  0  0  0  0
  -23.0223   25.1224   -7.0390 C   0  0  0  0  0  0  0  0  0  0  0  0
  -24.2391   25.1567   -0.6988 C   0  0  0  0  0  0  0  0  0  0  0  0
  -22.6706   24.5814    1.0333 C   0  0  0  0  0  0  0  0  0  0  0  0
  -19.3502   25.3837   -5.0670 C   0  0  0  0  0  0  0  0  0  0  0  0
  -18.4751   26.2645   -7.1805 C   0  0  0  0  0  0  0  0  0  0  0  0
  -20.4310   24.0342    0.4004 O   0  0  0  0  0  0  0  0  0  0  0  0
  -21.9702   24.6453   -1.2921 C   0  0  0  0  0  0  0  0  0  0  0  0
  -18.2812   25.7157   -5.8562 C   0  0  0  0  0  0  0  0  0  0  0  0
  -23.9268   24.9446    0.6580 C   0  0  0  0  0  0  0  0  0  0  0  0
  -19.9965   24.1740   -2.5126 O   0  0  0  0  0  0  0  0  0  0  0  0
  -21.6715   24.4238    0.0569 C   0  0  0  0  0  0  0  0  0  0  0  0
  1  4  2  0
  2  3  1  0
  2 17  1  0
  3  6  1  0
  3 10  2  0
  4  9  1  0
  4 12  1  0
  5  7  2  0
  5 10  1  0
  5 12  1  0
  6 13  2  0
  7 13  1  0
  8 17  1  0
  9 14  2  0
  9 19  1  0
 10 16  1  0
 11 12  1  0
 11 19  1  0
 11 22  2  0
 14 21  1  0
 15 21  2  0
 15 23  1  0
 16 20  2  0
 17 20  1  0
 18 23  1  0
 19 23  2  0
M  END
>  <ID>  (1) 
conformer_0

$$$$
