
     RDKit          3D

 26 28  0  0  0  0  0  0  0  0999 V2000
  -24.1901   24.9365   -2.0628 C   0  0  0  0  0  0  0  0  0  0  0  0
  -17.9011   24.9274   -3.2416 N   0  0  0  0  0  0  0  0  0  0  0  0
  -19.2296   24.6126   -3.2073 C   0  0  0  0  0  0  0  0  0  0  0  0
  -20.4784   25.3213   -5.1722 C   0  0  0  0  0  0  0  0  0  0  0  0
  -21.9985   24.7087   -1.0885 C   0  0  0  0  0  0  0  0  0  0  0  0
  -23.4240   24.5400   -3.9701 C   0  0  0  0  0  0  0  0  0  0  0  0
  -24.0089   25.1919    0.2595 C   0  0  0  0  0  0  0  0  0  0  0  0
  -22.6507   24.8612    0.1398 C   0  0  0  0  0  0  0  0  0  0  0  0
  -24.8763   25.2394   -0.8986 C   0  0  0  0  0  0  0  0  0  0  0  0
  -19.9646   25.5634   -0.2479 O   0  0  0  0  0  0  0  0  0  0  0  0
  -21.8007   25.2230   -5.7867 C   0  0  0  0  0  0  0  0  0  0  0  0
  -20.2095   25.2877   -3.8238 N   0  0  0  0  0  0  0  0  0  0  0  0
  -23.8703   24.1955   -6.2332 O   0  0  0  0  0  0  0  0  0  0  0  0
  -20.5580   24.6510   -1.1154 C   0  0  0  0  0  0  0  0  0  0  0  0
  -19.6124   23.7437   -1.9370 C   0  0  0  0  0  0  0  0  0  0  0  0
  -22.9880   24.5938   -5.2149 C   0  0  0  0  0  0  0  0  0  0  0  0
  -22.0584   25.3335   -7.2409 C   0  0  0  0  0  0  0  0  0  0  0  0
  -22.8170   24.7030   -2.1161 C   0  0  0  0  0  0  0  0  0  0  0  0
  -19.4611   27.0060   -6.6230 O   0  0  0  0  0  0  0  0  0  0  0  0
  -20.3606   22.6104   -2.3552 O   0  0  0  0  0  0  0  0  0  0  0  0
  -23.2244   24.4254   -7.5567 C   0  0  0  0  0  0  0  0  0  0  0  0
  -18.4513   23.3164   -1.1429 O   0  0  0  0  0  0  0  0  0  0  0  0
  -19.3926   25.8346   -5.9495 C   0  0  0  0  0  0  0  0  0  0  0  0
  -24.6019   24.7031   -3.3972 N   0  0  0  0  0  0  0  0  0  0  0  0
  -22.0055   24.6319    1.2940 F   0  0  0  0  0  0  0  0  0  0  0  0
  -22.0314   26.5182   -7.8173 O   0  0  0  0  0  0  0  0  0  0  0  0
  1  9  1  0
  1 18  1  0
  1 24  1  0
  2  3  2  0
  3 12  1  0
  3 15  1  0
  4 11  1  0
  4 12  1  0
  4 23  1  0
  5  8  1  0
  5 14  1  0
  5 18  2  0
  6 16  1  0
  6 24  1  0
  7  8  2  0
  7  9  1  0
  8 25  1  0
 10 14  1  0
 11 16  1  0
 11 17  1  0
 13 16  1  0
 13 21  1  0
 14 15  1  0
 15 20  1  0
 15 22  1  0
 17 21  1  0
 17 26  1  0
 19 23  1  0
M  END
>  <ID>  (1) 
conformer_0

$$$$
