
     RDKit          3D

 12 13  0  0  0  0  0  0  0  0999 V2000
  -23.3337   25.1477   -0.0928 C   0  0  0  0  0  0  0  0  0  0  0  0
  -22.2792   25.2709   -2.1003 C   0  0  0  0  0  0  0  0  0  0  0  0
  -21.3855   25.4715   -4.5006 C   0  0  0  0  0  0  0  0  0  0  0  0
  -20.1928   25.4995   -5.0586 O   0  0  0  0  0  0  0  0  0  0  0  0
  -21.3931   25.6482   -3.1079 C   0  0  0  0  0  0  0  0  0  0  0  0
  -24.3238   25.3474   -1.0983 C   0  0  0  0  0  0  0  0  0  0  0  0
  -23.6593   25.2785   -2.3505 C   0  0  0  0  0  0  0  0  0  0  0  0
  -22.5065   25.6580   -5.3262 C   0  0  0  0  0  0  0  0  0  0  0  0
  -22.1040   25.2387   -0.7747 O   0  0  0  0  0  0  0  0  0  0  0  0
  -24.2213   25.0155   -3.6213 C   0  0  0  0  0  0  0  0  0  0  0  0
  -23.7383   25.4245   -4.8323 N   0  0  0  0  0  0  0  0  0  0  0  0
  -25.3434   24.4051   -3.6298 O   0  0  0  0  0  0  0  0  0  0  0  0
  1  6  1  0
  1  9  1  0
  2  5  1  0
  2  7  1  0
  2  9  1  0
  3  4  1  0
  3  5  1  0
  3  8  1  0
  6  7  1  0
  7 10  1  0
  8 11  2  0
 10 11  1  0
 10 12  2  0
M  END
>  <ID>  (1) 
conformer_0

$$$$
