
     RDKit          3D

 18 20  0  0  0  0  0  0  0  0999 V2000
  -23.1193   25.4284   -6.5041 N   0  0  0  0  0  0  0  0  0  0  0  0
  -24.2055   25.4293   -1.8691 C   0  0  0  0  0  0  0  0  0  0  0  0
  -21.7114   25.0222   -0.7029 C   0  0  0  0  0  0  0  0  0  0  0  0
  -20.6785   25.2046   -2.9067 O   0  0  0  0  0  0  0  0  0  0  0  0
  -20.4774   25.4042   -4.1620 C   0  0  0  0  0  0  0  0  0  0  0  0
  -22.8470   25.0807    0.0578 C   0  0  0  0  0  0  0  0  0  0  0  0
  -19.7879   26.6487   -6.9499 C   0  0  0  0  0  0  0  0  0  0  0  0
  -20.8827   25.7005   -6.6504 C   0  0  0  0  0  0  0  0  0  0  0  0
  -22.6624   25.2479   -5.2334 C   0  0  0  0  0  0  0  0  0  0  0  0
  -22.2225   26.2461   -8.5656 O   0  0  0  0  0  0  0  0  0  0  0  0
  -23.3841   25.4640   -4.1115 C   0  0  0  0  0  0  0  0  0  0  0  0
  -20.4921   24.7535   -0.0464 C   0  0  0  0  0  0  0  0  0  0  0  0
  -21.8166   25.1926   -2.1149 C   0  0  0  0  0  0  0  0  0  0  0  0
  -24.0666   25.2858   -0.5285 C   0  0  0  0  0  0  0  0  0  0  0  0
  -19.2928   25.1870   -0.5178 N   0  0  0  0  0  0  0  0  0  0  0  0
  -21.2684   25.4442   -5.2932 C   0  0  0  0  0  0  0  0  0  0  0  0
  -23.0841   25.3623   -2.7067 C   0  0  0  0  0  0  0  0  0  0  0  0
  -22.1232   25.7626   -7.3824 C   0  0  0  0  0  0  0  0  0  0  0  0
  1  9  1  0
  1 18  1  0
  2 14  2  0
  2 17  1  0
  3  6  2  0
  3 12  1  0
  3 13  1  0
  4  5  1  0
  4 13  1  0
  5 16  2  0
  6 14  1  0
  7  8  1  0
  8 16  1  0
  8 18  1  0
  9 11  1  0
  9 16  1  0
 10 18  2  0
 11 17  2  0
 12 15  1  0
 13 17  1  0
M  END
>  <ID>  (1) 
conformer_0

$$$$
