
     RDKit          3D

 22 24  0  0  0  0  0  0  0  0999 V2000
  -21.6882   24.4684   -3.4042 O   0  0  0  0  0  0  0  0  0  0  0  0
  -20.1674   25.3250   -5.0868 C   0  0  0  0  0  0  0  0  0  0  0  0
  -19.9137   25.7565   -6.3738 C   0  0  0  0  0  0  0  0  0  0  0  0
  -20.3595   24.7724   -1.3429 C   0  0  0  0  0  0  0  0  0  0  0  0
  -23.1054   25.1806   -8.0065 O   0  0  0  0  0  0  0  0  0  0  0  0
  -23.9219   24.9769   -2.1407 O   0  0  0  0  0  0  0  0  0  0  0  0
  -21.4365   24.8734   -4.6766 C   0  0  0  0  0  0  0  0  0  0  0  0
  -23.6264   23.8128   -8.0865 C   0  0  0  0  0  0  0  0  0  0  0  0
  -24.1221   24.8761    0.6355 C   0  0  0  0  0  0  0  0  0  0  0  0
  -21.5358   24.7060   -2.1051 C   0  0  0  0  0  0  0  0  0  0  0  0
  -19.1419   25.3174   -4.2767 O   0  0  0  0  0  0  0  0  0  0  0  0
  -22.7234   24.8443   -1.3858 C   0  0  0  0  0  0  0  0  0  0  0  0
  -19.2890   25.2430    0.7400 O   0  0  0  0  0  0  0  0  0  0  0  0
  -22.1618   25.2275   -6.9925 C   0  0  0  0  0  0  0  0  0  0  0  0
  -20.4297   24.9971    0.0307 C   0  0  0  0  0  0  0  0  0  0  0  0
  -21.6129   24.9574    0.6885 C   0  0  0  0  0  0  0  0  0  0  0  0
  -25.1498   25.6231   -0.0580 C   0  0  0  0  0  0  0  0  0  0  0  0
  -24.8574   25.9016   -1.5431 C   0  0  0  0  0  0  0  0  0  0  0  0
  -20.8852   25.6899   -7.3259 C   0  0  0  0  0  0  0  0  0  0  0  0
  -19.1343   24.5787   -1.8404 O   0  0  0  0  0  0  0  0  0  0  0  0
  -22.4268   24.8200   -5.6566 C   0  0  0  0  0  0  0  0  0  0  0  0
  -22.7829   24.8926   -0.0226 C   0  0  0  0  0  0  0  0  0  0  0  0
  1  7  1  0
  1 10  1  0
  2  3  2  0
  2  7  1  0
  2 11  1  0
  3 19  1  0
  4 10  2  0
  4 15  1  0
  4 20  1  0
  5  8  1  0
  5 14  1  0
  6 12  1  0
  6 18  1  0
  7 21  2  0
  9 17  1  0
  9 22  1  0
 10 12  1  0
 12 22  2  0
 13 15  1  0
 14 19  2  0
 14 21  1  0
 15 16  2  0
 16 22  1  0
 17 18  1  0
M  END
>  <ID>  (1) 
conformer_0

$$$$
