
     RDKit          3D

 29 32  0  0  0  0  0  0  0  0999 V2000
  -21.6072   25.0002   -3.9010 C   0  0  0  0  0  0  0  0  0  0  0  0
  -21.7161   24.7501   -1.8150 N   0  0  0  0  0  0  0  0  0  0  0  0
  -24.6803   25.8336   -0.2041 C   0  0  0  0  0  0  0  0  0  0  0  0
  -22.6523   25.0153   -8.5791 C   0  0  0  0  0  0  0  0  0  0  0  0
  -19.5091   24.1944    1.7215 C   0  0  0  0  0  0  0  0  0  0  0  0
  -20.6812   26.0708   -7.7471 C   0  0  0  0  0  0  0  0  0  0  0  0
  -21.1015   25.7538   -6.4633 C   0  0  0  0  0  0  0  0  0  0  0  0
  -20.9698   24.6314   -0.6533 C   0  0  0  0  0  0  0  0  0  0  0  0
  -23.8515   24.4234   -4.2776 C   0  0  0  0  0  0  0  0  0  0  0  0
  -23.0947   24.6526   -1.8317 C   0  0  0  0  0  0  0  0  0  0  0  0
  -23.8331   23.6996    1.6798 C   0  0  0  0  0  0  0  0  0  0  0  0
  -18.9434   24.7735    0.5925 C   0  0  0  0  0  0  0  0  0  0  0  0
  -22.5701   24.7999   -4.7963 C   0  0  0  0  0  0  0  0  0  0  0  0
  -23.7307   24.7853   -0.5145 N   0  0  0  0  0  0  0  0  0  0  0  0
  -19.4755   26.7651   -8.0271 N   0  0  0  0  0  0  0  0  0  0  0  0
  -17.2190   25.2875    0.7212 Cl  0  0  0  0  0  0  0  0  0  0  0  0
  -21.4738   25.7252   -8.8384 N   0  0  0  0  0  0  0  0  0  0  0  0
  -23.0171   24.7075   -7.2933 C   0  0  0  0  0  0  0  0  0  0  0  0
  -23.9841   24.4141   -2.9201 C   0  0  0  0  0  0  0  0  0  0  0  0
  -25.8587   25.7867   -0.9159 O   0  0  0  0  0  0  0  0  0  0  0  0
  -23.0806   24.1456    0.5322 C   0  0  0  0  0  0  0  0  0  0  0  0
  -21.6302   24.1860    0.5127 C   0  0  0  0  0  0  0  0  0  0  0  0
  -20.9341   25.0492   -2.9195 N   0  0  0  0  0  0  0  0  0  0  0  0
  -19.6321   24.9335   -0.5848 N   0  0  0  0  0  0  0  0  0  0  0  0
  -22.2589   25.0767   -6.2045 C   0  0  0  0  0  0  0  0  0  0  0  0
  -24.8918   24.0058   -5.1318 O   0  0  0  0  0  0  0  0  0  0  0  0
  -18.7758   27.2511   -6.9018 C   0  0  0  0  0  0  0  0  0  0  0  0
  -26.1311   23.9689   -4.3638 O   0  0  0  0  0  0  0  0  0  0  0  0
  -20.8505   23.8901    1.6168 C   0  0  0  0  0  0  0  0  0  0  0  0
  1 13  1  0
  1 23  1  0
  2  8  1  0
  2 10  1  0
  2 23  1  0
  3 14  1  0
  3 20  1  0
  4 17  2  0
  4 18  1  0
  5 12  1  0
  5 29  2  0
  6  7  1  0
  6 15  2  3
  6 17  1  0
  7 25  2  0
  8 22  2  0
  8 24  1  0
  9 13  2  0
  9 19  1  0
  9 26  1  0
 10 14  1  0
 10 19  2  0
 11 21  1  0
 12 16  1  0
 12 24  2  0
 13 25  1  0
 14 21  1  0
 15 27  1  0
 18 25  1  0
 21 22  1  0
 22 29  1  0
 26 28  1  0
M  END
>  <ID>  (1) 
conformer_0

$$$$
