
     RDKit          3D

 25 29  0  0  0  0  0  0  0  0999 V2000
  -20.3504   25.9278   -6.4791 C   0  0  0  0  0  0  0  0  0  0  0  0
  -22.2727   24.1010   -9.2213 C   0  0  0  0  0  0  0  0  0  0  0  0
  -21.3146   24.9759   -8.6365 C   0  0  0  0  0  0  0  0  0  0  0  0
  -23.1417   25.1313   -0.7802 C   0  0  0  0  0  0  0  0  0  0  0  0
  -20.5900   25.1575    0.2028 C   0  0  0  0  0  0  0  0  0  0  0  0
  -21.3603   25.2698   -7.2707 C   0  0  0  0  0  0  0  0  0  0  0  0
  -23.4559   23.9955   -7.1988 N   0  0  0  0  0  0  0  0  0  0  0  0
  -19.0176   26.3116   -6.9948 C   0  0  0  0  0  0  0  0  0  0  0  0
  -18.8070   27.5148   -7.4979 N   0  0  0  0  0  0  0  0  0  0  0  0
  -20.7838   25.3465   -1.1457 C   0  0  0  0  0  0  0  0  0  0  0  0
  -24.8181   25.1942   -2.5265 O   0  0  0  0  0  0  0  0  0  0  0  0
  -18.0196   25.6191   -6.6912 O   0  0  0  0  0  0  0  0  0  0  0  0
  -24.5415   25.2954   -1.1485 C   0  0  0  0  0  0  0  0  0  0  0  0
  -22.0515   25.3066   -1.6797 C   0  0  0  0  0  0  0  0  0  0  0  0
  -22.2983   25.4510   -3.0858 C   0  0  0  0  0  0  0  0  0  0  0  0
  -23.6691   25.2370   -3.3678 N   0  0  0  0  0  0  0  0  0  0  0  0
  -19.3463   25.2712    0.7295 O   0  0  0  0  0  0  0  0  0  0  0  0
  -23.3365   23.5970   -8.4672 C   0  0  0  0  0  0  0  0  0  0  0  0
  -21.7130   25.6266   -4.4357 C   0  0  0  0  0  0  0  0  0  0  0  0
  -23.9329   25.0221   -4.6711 N   0  0  0  0  0  0  0  0  0  0  0  0
  -22.9050   24.8289    0.5650 C   0  0  0  0  0  0  0  0  0  0  0  0
  -21.6414   24.8463    1.0519 C   0  0  0  0  0  0  0  0  0  0  0  0
  -22.7247   25.1507   -5.3002 C   0  0  0  0  0  0  0  0  0  0  0  0
  -20.5791   26.0653   -5.1169 N   0  0  0  0  0  0  0  0  0  0  0  0
  -22.5164   24.8098   -6.6100 C   0  0  0  0  0  0  0  0  0  0  0  0
  1  6  1  0
  1  8  1  0
  1 24  2  0
  2  3  2  0
  2 18  1  0
  3  6  1  0
  4 13  1  0
  4 14  2  0
  4 21  1  0
  5 10  2  0
  5 17  1  0
  5 22  1  0
  6 25  2  0
  7 18  2  0
  7 25  1  0
  8  9  1  0
  8 12  2  0
 10 14  1  0
 11 13  1  0
 11 16  1  0
 14 15  1  0
 15 16  1  0
 15 19  1  0
 16 20  1  0
 19 23  1  0
 19 24  1  0
 20 23  1  0
 21 22  2  0
 23 25  1  0
M  END
>  <ID>  (1) 
conformer_0

$$$$
