
     RDKit          3D

 22 24  0  0  0  0  0  0  0  0999 V2000
  -22.9436   25.1194   -2.4975 C   0  0  0  0  0  0  0  0  0  0  0  0
  -20.7574   25.9016   -8.1307 C   0  0  0  0  0  0  0  0  0  0  0  0
  -24.6376   24.3734   -4.0960 C   0  0  0  0  0  0  0  0  0  0  0  0
  -24.2534   25.5430   -0.7470 C   0  0  0  0  0  0  0  0  0  0  0  0
  -22.0095   25.0673   -3.5161 C   0  0  0  0  0  0  0  0  0  0  0  0
  -22.4220   24.9454   -4.8509 C   0  0  0  0  0  0  0  0  0  0  0  0
  -21.7459   25.5092   -7.1987 N   0  0  0  0  0  0  0  0  0  0  0  0
  -22.9248   25.5444   -1.1624 C   0  0  0  0  0  0  0  0  0  0  0  0
  -24.2734   24.8368   -2.8043 N   0  0  0  0  0  0  0  0  0  0  0  0
  -19.2031   26.0636   -6.3415 C   0  0  0  0  0  0  0  0  0  0  0  0
  -20.6527   25.1227   -3.1343 O   0  0  0  0  0  0  0  0  0  0  0  0
  -18.9916   22.6380   -0.6534 O   0  0  0  0  0  0  0  0  0  0  0  0
  -19.4698   26.1999   -7.6922 C   0  0  0  0  0  0  0  0  0  0  0  0
  -20.3261   24.4563   -1.9825 C   0  0  0  0  0  0  0  0  0  0  0  0
  -20.1688   25.7286   -5.4967 C   0  0  0  0  0  0  0  0  0  0  0  0
  -25.1016   25.0815   -1.6973 N   0  0  0  0  0  0  0  0  0  0  0  0
  -21.4548   25.3872   -5.8550 C   0  0  0  0  0  0  0  0  0  0  0  0
  -23.7444   24.4891   -5.1042 N   0  0  0  0  0  0  0  0  0  0  0  0
  -19.2703   23.8068    0.0578 C   0  0  0  0  0  0  0  0  0  0  0  0
  -25.8546   23.7917   -4.2714 N   0  0  0  0  0  0  0  0  0  0  0  0
  -18.2455   24.9473   -0.0761 C   0  0  0  0  0  0  0  0  0  0  0  0
  -20.5834   24.3672   -0.5026 C   0  0  0  0  0  0  0  0  0  0  0  0
  1  5  1  0
  1  8  1  0
  1  9  1  0
  2  7  2  0
  2 13  1  0
  3  9  1  0
  3 18  1  0
  3 20  2  0
  4  8  1  0
  4 16  1  0
  5  6  1  0
  5 11  1  0
  6 17  1  0
  6 18  2  0
  7 17  1  0
  9 16  1  0
 10 13  2  0
 10 15  1  0
 11 14  1  0
 12 19  1  0
 14 22  1  0
 15 17  2  0
 19 21  1  0
 19 22  1  0
M  END
>  <ID>  (1) 
conformer_0

$$$$
