
     RDKit          3D

 21 24  0  0  0  0  0  0  0  0999 V2000
  -25.2409   25.6298   -0.5789 O   0  0  0  0  0  0  0  0  0  0  0  0
  -20.6483   25.5746   -5.7801 C   0  0  0  0  0  0  0  0  0  0  0  0
  -23.6799   24.9114    1.4034 O   0  0  0  0  0  0  0  0  0  0  0  0
  -21.6962   24.8686    0.1264 C   0  0  0  0  0  0  0  0  0  0  0  0
  -22.5470   24.9524   -2.8310 C   0  0  0  0  0  0  0  0  0  0  0  0
  -20.3167   24.9874   -3.3434 N   0  0  0  0  0  0  0  0  0  0  0  0
  -24.0147   25.2736   -0.8873 C   0  0  0  0  0  0  0  0  0  0  0  0
  -22.8556   25.2512   -6.5649 N   0  0  0  0  0  0  0  0  0  0  0  0
  -19.9706   26.6939   -8.3037 C   0  0  0  0  0  0  0  0  0  0  0  0
  -21.0171   24.7703    1.2908 O   0  0  0  0  0  0  0  0  0  0  0  0
  -21.2405   24.8922   -2.3115 C   0  0  0  0  0  0  0  0  0  0  0  0
  -23.7047   25.1435   -2.2243 N   0  0  0  0  0  0  0  0  0  0  0  0
  -19.3608   25.9681   -6.0601 C   0  0  0  0  0  0  0  0  0  0  0  0
  -21.5942   25.6886   -6.7889 C   0  0  0  0  0  0  0  0  0  0  0  0
  -20.8941   24.7983   -1.0049 C   0  0  0  0  0  0  0  0  0  0  0  0
  -21.2878   26.2633   -8.0749 C   0  0  0  0  0  0  0  0  0  0  0  0
  -21.0559   25.1442   -4.5232 N   0  0  0  0  0  0  0  0  0  0  0  0
  -19.0205   26.5039   -7.3068 C   0  0  0  0  0  0  0  0  0  0  0  0
  -23.2663   24.8869   -5.3481 C   0  0  0  0  0  0  0  0  0  0  0  0
  -23.0910   25.0291    0.1525 C   0  0  0  0  0  0  0  0  0  0  0  0
  -22.3962   24.9525   -4.2467 C   0  0  0  0  0  0  0  0  0  0  0  0
  1  7  2  0
  2 13  2  0
  2 14  1  0
  2 17  1  0
  3 20  1  0
  4 10  1  0
  4 15  2  0
  4 20  1  0
  5 11  1  0
  5 12  2  0
  5 21  1  0
  6 11  1  0
  6 17  1  0
  7 12  1  0
  7 20  1  0
  8 14  1  0
  8 19  2  0
  9 16  1  0
  9 18  2  0
 11 15  1  0
 13 18  1  0
 14 16  2  0
 17 21  1  0
 19 21  1  0
M  END
>  <ID>  (1) 
conformer_0

$$$$
