
     RDKit          3D

 24 25  0  0  0  0  0  0  0  0999 V2000
  -18.9065   24.9058   -0.3312 C   0  0  0  0  0  0  0  0  0  0  0  0
  -21.7185   25.2720   -7.5702 C   0  0  0  0  0  0  0  0  0  0  0  0
  -20.9663   24.7312   -3.0764 C   0  0  0  0  0  0  0  0  0  0  0  0
  -22.9786   24.9419   -4.4842 C   0  0  0  0  0  0  0  0  0  0  0  0
  -20.9092   25.6105   -8.5854 C   0  0  0  0  0  0  0  0  0  0  0  0
  -19.2316   26.2367   -7.0623 C   0  0  0  0  0  0  0  0  0  0  0  0
  -17.9666   26.7721   -6.8272 F   0  0  0  0  0  0  0  0  0  0  0  0
  -22.0352   24.8848   -3.8593 C   0  0  0  0  0  0  0  0  0  0  0  0
  -20.0188   25.9229   -5.9840 C   0  0  0  0  0  0  0  0  0  0  0  0
  -22.7412   22.7501    1.8250 O   0  0  0  0  0  0  0  0  0  0  0  0
  -21.0798   24.1481    0.7512 C   0  0  0  0  0  0  0  0  0  0  0  0
  -24.7430   24.4519    1.1866 O   0  0  0  0  0  0  0  0  0  0  0  0
  -22.4452   25.1493   -1.3972 N   0  0  0  0  0  0  0  0  0  0  0  0
  -19.6113   26.0939   -8.3663 C   0  0  0  0  0  0  0  0  0  0  0  0
  -21.2290   24.8002   -1.6089 C   0  0  0  0  0  0  0  0  0  0  0  0
  -22.2626   25.1386   -5.2718 N   0  0  0  0  0  0  0  0  0  0  0  0
  -21.2987   25.4213   -6.1840 C   0  0  0  0  0  0  0  0  0  0  0  0
  -23.0328   24.7847   -7.8137 N   0  0  0  0  0  0  0  0  0  0  0  0
  -22.4936   23.7433    0.9066 C   0  0  0  0  0  0  0  0  0  0  0  0
  -20.3478   24.4004   -0.5169 C   0  0  0  0  0  0  0  0  0  0  0  0
  -23.4942   25.4821   -0.5166 C   0  0  0  0  0  0  0  0  0  0  0  0
  -23.6186   24.5990    0.6375 C   0  0  0  0  0  0  0  0  0  0  0  0
  -24.7181   26.0158   -1.1438 C   0  0  0  0  0  0  0  0  0  0  0  0
  -19.7883   24.4712   -3.4011 O   0  0  0  0  0  0  0  0  0  0  0  0
  1 20  1  0
  2  5  2  0
  2 17  1  0
  2 18  1  0
  3  8  1  0
  3 15  1  0
  3 24  2  0
  4  8  1  0
  4 16  1  0
  5 14  1  0
  6  7  1  0
  6  9  1  0
  6 14  2  0
  9 17  2  0
 10 19  1  0
 11 19  1  0
 11 20  1  0
 12 22  2  0
 13 15  2  0
 13 21  1  0
 15 20  1  0
 16 17  1  0
 19 22  1  0
 21 22  1  0
 21 23  1  0
M  END
>  <ID>  (1) 
conformer_0

$$$$
