
     RDKit          3D

 28 33  0  0  0  0  0  0  0  0999 V2000
  -19.0118   25.6344   -5.4283 C   0  0  0  0  0  0  0  0  0  0  0  0
  -22.7966   24.3820   -4.1412 C   0  0  0  0  0  0  0  0  0  0  0  0
  -22.2910   24.9935   -1.8538 C   0  0  0  0  0  0  0  0  0  0  0  0
  -21.6312   24.8393    0.3744 C   0  0  0  0  0  0  0  0  0  0  0  0
  -19.9592   24.7145   -1.4633 C   0  0  0  0  0  0  0  0  0  0  0  0
  -25.3756   24.5604    1.0794 O   0  0  0  0  0  0  0  0  0  0  0  0
  -24.2894   25.0694    0.4965 C   0  0  0  0  0  0  0  0  0  0  0  0
  -20.5666   24.8575    1.2834 C   0  0  0  0  0  0  0  0  0  0  0  0
  -19.8546   26.2548   -7.5769 C   0  0  0  0  0  0  0  0  0  0  0  0
  -25.8810   25.9513   -0.9758 F   0  0  0  0  0  0  0  0  0  0  0  0
  -24.8995   23.2924   -4.5871 C   0  0  0  0  0  0  0  0  0  0  0  0
  -23.9384   23.7307   -3.7417 C   0  0  0  0  0  0  0  0  0  0  0  0
  -20.4855   24.8380   -3.6537 C   0  0  0  0  0  0  0  0  0  0  0  0
  -20.2495   25.2148   -5.0112 C   0  0  0  0  0  0  0  0  0  0  0  0
  -23.5466   24.1181   -6.3568 C   0  0  0  0  0  0  0  0  0  0  0  0
  -18.7917   26.1516   -6.7081 C   0  0  0  0  0  0  0  0  0  0  0  0
  -18.9802   25.0815   -0.4935 C   0  0  0  0  0  0  0  0  0  0  0  0
  -19.5774   24.5211   -2.7244 O   0  0  0  0  0  0  0  0  0  0  0  0
  -24.5789   25.6641   -0.7368 C   0  0  0  0  0  0  0  0  0  0  0  0
  -24.6873   23.4801   -5.9664 N   0  0  0  0  0  0  0  0  0  0  0  0
  -23.6047   25.5998   -1.7581 C   0  0  0  0  0  0  0  0  0  0  0  0
  -22.5324   24.5735   -5.5237 C   0  0  0  0  0  0  0  0  0  0  0  0
  -21.8045   24.7982   -3.1994 C   0  0  0  0  0  0  0  0  0  0  0  0
  -21.3152   25.1776   -5.9183 C   0  0  0  0  0  0  0  0  0  0  0  0
  -21.2521   24.8287   -0.9643 N   0  0  0  0  0  0  0  0  0  0  0  0
  -19.3083   24.4825    0.7838 C   0  0  0  0  0  0  0  0  0  0  0  0
  -21.0913   25.7334   -7.1988 C   0  0  0  0  0  0  0  0  0  0  0  0
  -22.9208   24.9098    0.8641 C   0  0  0  0  0  0  0  0  0  0  0  0
  1 14  2  0
  1 16  1  0
  2 12  1  0
  2 22  2  0
  2 23  1  0
  3 21  1  0
  3 23  1  0
  3 25  1  0
  4  8  1  0
  4 25  1  0
  4 28  2  0
  5 17  1  0
  5 18  1  0
  5 25  1  0
  6  7  1  0
  7 19  1  0
  7 28  1  0
  8 26  1  0
  9 16  2  0
  9 27  1  0
 10 19  1  0
 11 12  2  0
 11 20  1  0
 13 14  1  0
 13 18  1  0
 13 23  1  0
 14 24  1  0
 15 20  2  0
 15 22  1  0
 17 26  1  0
 19 21  2  0
 22 24  1  0
 24 27  2  0
M  END
>  <ID>  (1) 
conformer_0

$$$$
