
     RDKit          3D

 24 26  0  0  0  0  0  0  0  0999 V2000
   19.1438   52.9076   21.5700 C   0  0  0  0  0  0  0  0  0  0  0  0
   18.8214   52.1302   20.6485 C   0  0  0  0  0  0  0  0  0  0  0  0
   19.3518   54.2706   21.2427 C   0  0  0  0  0  0  0  0  0  0  0  0
   19.2620   55.2393   22.2692 C   0  0  0  0  0  0  0  0  0  0  0  0
   18.7732   50.6673   20.6982 O   0  0  0  0  0  0  0  0  0  0  0  0
   20.0127   50.0621   20.6296 C   0  0  0  0  0  0  0  0  0  0  0  0
   18.8797   54.5018   19.9905 C   0  0  0  0  0  0  0  0  0  0  0  0
   20.9666   50.3372   19.7360 C   0  0  0  0  0  0  0  0  0  0  0  0
   22.1407   49.5701   19.6000 C   0  0  0  0  0  0  0  0  0  0  0  0
   22.1439   48.2653   19.9648 C   0  0  0  0  0  0  0  0  0  0  0  0
   23.3337   47.3464   19.6420 C   0  0  0  0  0  0  0  0  0  0  0  0
   18.7366   53.6426   18.9390 C   0  0  0  0  0  0  0  0  0  0  0  0
   23.4626   46.0474   19.7146 C   0  0  0  0  0  0  0  0  0  0  0  0
   18.1943   55.5423   23.0625 C   0  0  0  0  0  0  0  0  0  0  0  0
   24.3558   48.1424   18.7996 C   0  0  0  0  0  0  0  0  0  0  0  0
   25.3586   47.3118   18.2795 C   0  0  0  0  0  0  0  0  0  0  0  0
   18.7007   52.3510   19.1804 C   0  0  0  0  0  0  0  0  0  0  0  0
   16.8863   55.0766   22.7515 C   0  0  0  0  0  0  0  0  0  0  0  0
   16.0285   55.6843   23.8393 C   0  0  0  0  0  0  0  0  0  0  0  0
   16.7322   56.3486   24.7396 C   0  0  0  0  0  0  0  0  0  0  0  0
   16.3803   56.9585   25.9546 C   0  0  0  0  0  0  0  0  0  0  0  0
   16.9287   57.7840   26.3970 O   0  0  0  0  0  0  0  0  0  0  0  0
   24.8488   45.5422   19.1668 S   0  0  0  0  0  0  0  0  0  0  0  0
   18.2650   56.2697   24.3432 C   0  0  0  0  0  0  0  0  0  0  0  0
  1  2  2  0
  1  3  1  0
  3  4  1  0
  2  5  1  0
  5  6  1  0
  3  7  2  0
  6  8  1  0
  8  9  2  3
  9 10  1  0
 10 11  1  0
  7 12  1  0
 11 13  2  0
  4 14  1  0
 11 15  1  0
 15 16  2  0
  2 17  1  0
 12 17  2  0
 14 18  2  0
 18 19  1  0
 19 20  2  0
 20 21  1  0
 21 22  2  0
 13 23  1  0
 16 23  1  0
 14 24  1  0
 20 24  1  0
M  END
>  <ID>  (1) 
conformer_0

$$$$
