
     RDKit          3D

 16 17  0  0  0  0  0  0  0  0999 V2000
   19.7960   51.8630   20.8891 C   0  0  0  0  0  0  0  0  0  0  0  0
   19.7719   51.0619   20.0608 C   0  0  0  0  0  0  0  0  0  0  0  0
   20.5454   49.8834   20.1162 C   0  0  0  0  0  0  0  0  0  0  0  0
   20.7515   52.0329   21.8538 C   0  0  0  0  0  0  0  0  0  0  0  0
   21.6930   49.9621   21.0252 C   0  0  0  0  0  0  0  0  0  0  0  0
   20.5092   48.8616   19.0780 C   0  0  0  0  0  0  0  0  0  0  0  0
   18.7761   53.0635   20.8981 C   0  0  0  0  0  0  0  0  0  0  0  0
   18.0791   53.3044   20.0267 O   0  0  0  0  0  0  0  0  0  0  0  0
   21.7064   48.2277   18.7682 C   0  0  0  0  0  0  0  0  0  0  0  0
   22.5796   47.5291   19.5409 C   0  0  0  0  0  0  0  0  0  0  0  0
   20.6798   53.0750   22.7558 O   0  0  0  0  0  0  0  0  0  0  0  0
   23.7612   46.8438   19.0796 C   0  0  0  0  0  0  0  0  0  0  0  0
   24.8391   47.3612   18.8976 C   0  0  0  0  0  0  0  0  0  0  0  0
   18.9224   54.0052   22.0005 N   0  0  0  0  0  0  0  0  0  0  0  0
   19.8912   53.9460   22.8405 C   0  0  0  0  0  0  0  0  0  0  0  0
   21.6462   51.1297   21.9177 C   0  0  0  0  0  0  0  0  0  0  0  0
  1  2  2  0
  2  3  1  0
  1  4  1  0
  3  5  2  0
  3  6  1  0
  1  7  1  0
  7  8  2  0
  6  9  1  0
  9 10  2  3
  4 11  1  0
 10 12  1  0
 12 13  2  0
  7 14  1  0
 11 15  1  0
 14 15  2  0
  4 16  2  0
  5 16  1  0
M  END
>  <ID>  (1) 
conformer_0

$$$$
