
     RDKit          3D

 26 30  0  0  0  0  0  0  0  0999 V2000
   19.7960   51.8630   20.8891 C   0  0  0  0  0  0  0  0  0  0  0  0
   19.7719   51.0619   20.0608 C   0  0  0  0  0  0  0  0  0  0  0  0
   20.5454   49.8834   20.1162 C   0  0  0  0  0  0  0  0  0  0  0  0
   20.7515   52.0329   21.8538 C   0  0  0  0  0  0  0  0  0  0  0  0
   21.6930   49.9621   21.0252 C   0  0  0  0  0  0  0  0  0  0  0  0
   20.5092   48.8616   19.0780 C   0  0  0  0  0  0  0  0  0  0  0  0
   20.6652   53.1099   22.7321 C   0  0  0  0  0  0  0  0  0  0  0  0
   21.6895   48.2177   18.7234 C   0  0  0  0  0  0  0  0  0  0  0  0
   21.6807   51.0112   21.9026 C   0  0  0  0  0  0  0  0  0  0  0  0
   18.7738   53.0299   20.7627 C   0  0  0  0  0  0  0  0  0  0  0  0
   19.7835   54.1394   22.6520 C   0  0  0  0  0  0  0  0  0  0  0  0
   22.5476   48.6471   17.8694 C   0  0  0  0  0  0  0  0  0  0  0  0
   22.3276   47.1561   19.5424 C   0  0  0  0  0  0  0  0  0  0  0  0
   23.8514   48.0155   17.7090 C   0  0  0  0  0  0  0  0  0  0  0  0
   19.7659   55.2421   23.5548 C   0  0  0  0  0  0  0  0  0  0  0  0
   18.5812   55.9239   23.6603 C   0  0  0  0  0  0  0  0  0  0  0  0
   24.3379   47.0636   18.4563 C   0  0  0  0  0  0  0  0  0  0  0  0
   18.3429   56.9014   24.7009 C   0  0  0  0  0  0  0  0  0  0  0  0
   23.5059   46.5644   19.4626 C   0  0  0  0  0  0  0  0  0  0  0  0
   17.4110   56.7392   25.6205 C   0  0  0  0  0  0  0  0  0  0  0  0
   17.1930   57.6987   26.7342 O   0  0  0  0  0  0  0  0  0  0  0  0
   17.3101   55.3532   23.1666 C   0  0  0  0  0  0  0  0  0  0  0  0
   18.7813   54.0504   21.7136 C   0  0  0  0  0  0  0  0  0  0  0  0
   16.0588   56.4520   25.0596 C   0  0  0  0  0  0  0  0  0  0  0  0
   17.4739   54.8107   21.8678 C   0  0  0  0  0  0  0  0  0  0  0  0
   16.0700   55.8280   23.6846 C   0  0  0  0  0  0  0  0  0  0  0  0
  1  2  2  0
  2  3  1  0
  1  4  1  0
  3  5  2  0
  3  6  1  0
  4  7  1  0
  6  8  1  0
  4  9  2  0
  5  9  1  0
  1 10  1  0
  7 11  2  0
  8 12  2  0
  8 13  1  0
 12 14  1  0
 11 15  1  0
 15 16  2  0
 14 17  2  0
 16 18  1  0
 13 19  2  0
 17 19  1  0
 18 20  2  0
 20 21  1  0
 16 22  1  0
 10 23  2  0
 11 23  1  0
 20 24  1  0
 22 25  2  0
 23 25  1  0
 22 26  1  0
 24 26  2  0
M  END
>  <ID>  (1) 
conformer_0

$$$$
