
     RDKit          3D

 25 29  0  0  0  0  0  0  0  0999 V2000
   19.7960   51.8630   20.8891 C   0  0  0  0  0  0  0  0  0  0  0  0
   19.7719   51.0619   20.0608 C   0  0  0  0  0  0  0  0  0  0  0  0
   20.5454   49.8834   20.1162 C   0  0  0  0  0  0  0  0  0  0  0  0
   20.7515   52.0329   21.8538 C   0  0  0  0  0  0  0  0  0  0  0  0
   21.6930   49.9621   21.0252 C   0  0  0  0  0  0  0  0  0  0  0  0
   20.5092   48.8616   19.0780 C   0  0  0  0  0  0  0  0  0  0  0  0
   20.6652   53.1099   22.7321 C   0  0  0  0  0  0  0  0  0  0  0  0
   21.6895   48.2177   18.7234 C   0  0  0  0  0  0  0  0  0  0  0  0
   21.6807   51.0112   21.9026 C   0  0  0  0  0  0  0  0  0  0  0  0
   18.7738   53.0299   20.7627 C   0  0  0  0  0  0  0  0  0  0  0  0
   19.7835   54.1394   22.6520 C   0  0  0  0  0  0  0  0  0  0  0  0
   22.5476   48.6471   17.8694 C   0  0  0  0  0  0  0  0  0  0  0  0
   22.3276   47.1561   19.5424 C   0  0  0  0  0  0  0  0  0  0  0  0
   23.8514   48.0155   17.7090 C   0  0  0  0  0  0  0  0  0  0  0  0
   19.7659   55.2421   23.5548 C   0  0  0  0  0  0  0  0  0  0  0  0
   18.5812   55.9239   23.6603 C   0  0  0  0  0  0  0  0  0  0  0  0
   24.3379   47.0636   18.4563 C   0  0  0  0  0  0  0  0  0  0  0  0
   18.3429   56.9014   24.7009 C   0  0  0  0  0  0  0  0  0  0  0  0
   17.4885   55.8397   22.7291 C   0  0  0  0  0  0  0  0  0  0  0  0
   23.5719   46.6348   19.4578 C   0  0  0  0  0  0  0  0  0  0  0  0
   16.4052   56.4931   22.9738 C   0  0  0  0  0  0  0  0  0  0  0  0
   18.7957   54.0772   21.6631 C   0  0  0  0  0  0  0  0  0  0  0  0
   17.2234   57.4764   25.0229 C   0  0  0  0  0  0  0  0  0  0  0  0
   17.5039   54.9041   21.7369 C   0  0  0  0  0  0  0  0  0  0  0  0
   16.1104   57.1685   24.1653 C   0  0  0  0  0  0  0  0  0  0  0  0
  1  2  2  0
  2  3  1  0
  1  4  1  0
  3  5  2  0
  3  6  1  0
  4  7  1  0
  6  8  1  0
  4  9  2  0
  5  9  1  0
  1 10  1  0
  7 11  2  0
  8 12  2  0
  8 13  1  0
 12 14  1  0
 11 15  1  0
 15 16  2  0
 14 17  2  0
 16 18  1  0
 16 19  1  0
 13 20  2  0
 17 20  1  0
 19 21  1  0
 10 22  2  0
 11 22  1  0
 18 23  2  0
 19 24  2  0
 22 24  1  0
 21 25  2  0
 23 25  1  0
M  END
>  <ID>  (1) 
conformer_0

$$$$
