
     RDKit          3D

 12 13  0  0  0  0  0  0  0  0999 V2000
   21.7036   48.0770   19.9153 C   0  0  0  0  0  0  0  0  0  0  0  0
   22.7522   47.8929   19.1197 C   0  0  0  0  0  0  0  0  0  0  0  0
   22.7709   47.8618   17.8645 C   0  0  0  0  0  0  0  0  0  0  0  0
   20.6826   48.9860   19.4224 C   0  0  0  0  0  0  0  0  0  0  0  0
   19.5726   49.4570   20.2038 C   0  0  0  0  0  0  0  0  0  0  0  0
   21.0584   49.5467   18.1248 C   0  0  0  0  0  0  0  0  0  0  0  0
   23.7986   46.7745   19.7995 C   0  0  0  0  0  0  0  0  0  0  0  0
   20.0794   50.3918   17.5306 C   0  0  0  0  0  0  0  0  0  0  0  0
   19.2183   50.8051   18.3672 N   0  0  0  0  0  0  0  0  0  0  0  0
   19.1215   50.5839   19.6799 C   0  0  0  0  0  0  0  0  0  0  0  0
   21.9782   48.9514   17.3851 C   0  0  0  0  0  0  0  0  0  0  0  0
   24.8598   46.4548   18.8115 C   0  0  0  0  0  0  0  0  0  0  0  0
  1  2  1  0
  2  3  2  0
  1  4  2  0
  4  5  1  0
  4  6  1  0
  2  7  1  0
  6  8  1  0
  8  9  2  0
  5 10  2  0
  9 10  1  0
  3 11  1  0
  6 11  2  0
  7 12  2  0
M  END
>  <ID>  (1) 
conformer_0

$$$$
