
     RDKit          3D

 24 26  0  0  0  0  0  0  0  0999 V2000
   19.7960   51.8630   20.8891 C   0  0  0  0  0  0  0  0  0  0  0  0
   19.7719   51.0619   20.0608 C   0  0  0  0  0  0  0  0  0  0  0  0
   20.6248   49.9228   20.1163 C   0  0  0  0  0  0  0  0  0  0  0  0
   20.7547   52.0639   21.8473 C   0  0  0  0  0  0  0  0  0  0  0  0
   18.7326   52.9841   20.8798 C   0  0  0  0  0  0  0  0  0  0  0  0
   21.6439   50.8662   21.7078 O   0  0  0  0  0  0  0  0  0  0  0  0
   17.8919   53.1697   19.9397 O   0  0  0  0  0  0  0  0  0  0  0  0
   18.5333   53.7082   22.0774 N   0  0  0  0  0  0  0  0  0  0  0  0
   20.6230   48.8309   19.1105 C   0  0  0  0  0  0  0  0  0  0  0  0
   17.6517   54.7451   22.2728 C   0  0  0  0  0  0  0  0  0  0  0  0
   16.7987   54.6284   23.3689 C   0  0  0  0  0  0  0  0  0  0  0  0
   18.4561   55.9944   22.5130 C   0  0  0  0  0  0  0  0  0  0  0  0
   21.7450   48.1290   18.9301 C   0  0  0  0  0  0  0  0  0  0  0  0
   16.8825   55.7211   24.3325 C   0  0  0  0  0  0  0  0  0  0  0  0
   22.9620   48.5795   18.9378 C   0  0  0  0  0  0  0  0  0  0  0  0
   24.1061   47.7052   18.5622 C   0  0  0  0  0  0  0  0  0  0  0  0
   16.3473   55.7509   25.5115 C   0  0  0  0  0  0  0  0  0  0  0  0
   25.2449   48.3109   18.1268 O   0  0  0  0  0  0  0  0  0  0  0  0
   18.2061   56.3221   23.8038 C   0  0  0  0  0  0  0  0  0  0  0  0
   16.6897   56.9602   26.2993 C   0  0  0  0  0  0  0  0  0  0  0  0
   17.8351   57.7142   25.9169 C   0  0  0  0  0  0  0  0  0  0  0  0
   18.5064   57.4098   24.7497 C   0  0  0  0  0  0  0  0  0  0  0  0
   24.1815   46.4220   19.1006 C   0  0  0  0  0  0  0  0  0  0  0  0
   21.6174   50.0014   20.9156 C   0  0  0  0  0  0  0  0  0  0  0  0
  1  2  1  0
  2  3  2  0
  1  4  2  0
  1  5  1  0
  4  6  1  0
  5  7  2  0
  5  8  1  0
  3  9  1  0
  8 10  1  0
 10 11  1  0
 10 12  1  0
  9 13  1  0
 11 14  1  0
 13 15  2  3
 15 16  1  0
 14 17  2  0
 16 18  2  0
 12 19  1  0
 14 19  1  0
 17 20  1  0
 20 21  2  0
 19 22  2  0
 21 22  1  0
 16 23  1  0
  3 24  1  0
  6 24  1  0
M  END
>  <ID>  (1) 
conformer_0

$$$$
