
     RDKit          3D

 26 29  0  0  0  0  0  0  0  0999 V2000
   19.7960   51.8630   20.8891 C   0  0  0  0  0  0  0  0  0  0  0  0
   19.7719   51.0619   20.0608 C   0  0  0  0  0  0  0  0  0  0  0  0
   20.5454   49.8834   20.1162 C   0  0  0  0  0  0  0  0  0  0  0  0
   20.7515   52.0329   21.8538 C   0  0  0  0  0  0  0  0  0  0  0  0
   21.6930   49.9621   21.0252 C   0  0  0  0  0  0  0  0  0  0  0  0
   20.5092   48.8616   19.0780 C   0  0  0  0  0  0  0  0  0  0  0  0
   20.6652   53.1099   22.7321 C   0  0  0  0  0  0  0  0  0  0  0  0
   22.6311   48.8816   20.9688 C   0  0  0  0  0  0  0  0  0  0  0  0
   18.8523   53.0450   20.8045 C   0  0  0  0  0  0  0  0  0  0  0  0
   22.6198   48.0178   19.8985 C   0  0  0  0  0  0  0  0  0  0  0  0
   19.6083   54.0662   22.4628 C   0  0  0  0  0  0  0  0  0  0  0  0
   23.5950   46.9462   19.7182 C   0  0  0  0  0  0  0  0  0  0  0  0
   17.8242   52.8127   19.7942 O   0  0  0  0  0  0  0  0  0  0  0  0
   24.4936   47.0413   18.5989 C   0  0  0  0  0  0  0  0  0  0  0  0
   19.6444   55.2573   23.4475 C   0  0  0  0  0  0  0  0  0  0  0  0
   24.9855   48.0720   18.2407 O   0  0  0  0  0  0  0  0  0  0  0  0
   21.6699   50.9672   21.9040 C   0  0  0  0  0  0  0  0  0  0  0  0
   18.4500   55.5933   24.0124 C   0  0  0  0  0  0  0  0  0  0  0  0
   19.3648   48.7529   18.1903 C   0  0  0  0  0  0  0  0  0  0  0  0
   18.6482   54.0008   21.6562 C   0  0  0  0  0  0  0  0  0  0  0  0
   17.1732   55.1955   23.7008 C   0  0  0  0  0  0  0  0  0  0  0  0
   21.4635   47.9440   19.0424 C   0  0  0  0  0  0  0  0  0  0  0  0
   16.2270   55.9004   24.2230 C   0  0  0  0  0  0  0  0  0  0  0  0
   24.9973   45.7983   18.3148 O   0  0  0  0  0  0  0  0  0  0  0  0
   18.2750   56.7136   24.9494 N   0  0  0  0  0  0  0  0  0  0  0  0
   16.8553   56.9574   25.1968 N   0  0  0  0  0  0  0  0  0  0  0  0
  1  2  2  0
  2  3  1  0
  1  4  1  0
  3  5  2  0
  3  6  1  0
  4  7  1  0
  5  8  1  0
  1  9  1  0
  8 10  2  0
  7 11  2  0
 10 12  1  0
  9 13  1  0
 12 14  1  0
 11 15  1  0
 14 16  2  0
  4 17  2  0
  5 17  1  0
 15 18  2  3
  6 19  1  0
  9 20  2  0
 11 20  1  0
 18 21  1  0
  6 22  2  0
 10 22  1  0
 21 23  2  0
 14 24  1  0
 18 25  1  0
 23 26  1  0
 25 26  2  0
M  END
>  <ID>  (1) 
conformer_0

$$$$
