
     RDKit          3D

 25 27  0  0  0  0  0  0  0  0999 V2000
   19.1438   52.9076   21.5700 C   0  0  0  0  0  0  0  0  0  0  0  0
   18.8214   52.1302   20.6485 C   0  0  0  0  0  0  0  0  0  0  0  0
   19.3518   54.2706   21.2427 C   0  0  0  0  0  0  0  0  0  0  0  0
   19.2620   55.2393   22.2692 C   0  0  0  0  0  0  0  0  0  0  0  0
   18.7732   50.6673   20.6982 O   0  0  0  0  0  0  0  0  0  0  0  0
   20.0127   50.0621   20.6296 C   0  0  0  0  0  0  0  0  0  0  0  0
   18.8797   54.5018   19.9905 C   0  0  0  0  0  0  0  0  0  0  0  0
   20.9666   50.3372   19.7360 C   0  0  0  0  0  0  0  0  0  0  0  0
   21.5518   49.3351   19.0558 C   0  0  0  0  0  0  0  0  0  0  0  0
   22.2434   48.2519   19.6710 C   0  0  0  0  0  0  0  0  0  0  0  0
   18.2196   55.5629   23.0561 C   0  0  0  0  0  0  0  0  0  0  0  0
   23.2693   47.4570   19.0438 C   0  0  0  0  0  0  0  0  0  0  0  0
   16.9713   55.1966   22.7647 C   0  0  0  0  0  0  0  0  0  0  0  0
   23.4974   46.1427   19.3891 C   0  0  0  0  0  0  0  0  0  0  0  0
   18.6376   53.6526   18.9623 C   0  0  0  0  0  0  0  0  0  0  0  0
   23.6444   47.7573   17.7120 C   0  0  0  0  0  0  0  0  0  0  0  0
   24.8212   45.7401   18.8732 C   0  0  0  0  0  0  0  0  0  0  0  0
   18.4762   52.5593   19.2530 C   0  0  0  0  0  0  0  0  0  0  0  0
   18.4551   56.4479   24.1369 C   0  0  0  0  0  0  0  0  0  0  0  0
   17.5377   56.8296   25.0195 C   0  0  0  0  0  0  0  0  0  0  0  0
   25.4512   46.3239   17.8812 C   0  0  0  0  0  0  0  0  0  0  0  0
   24.8496   47.3261   17.3144 C   0  0  0  0  0  0  0  0  0  0  0  0
   17.7602   57.6749   26.1893 C   0  0  0  0  0  0  0  0  0  0  0  0
   16.1511   56.3307   24.7412 C   0  0  0  0  0  0  0  0  0  0  0  0
   15.8827   55.6190   23.6447 C   0  0  0  0  0  0  0  0  0  0  0  0
  1  2  2  0
  1  3  1  0
  3  4  1  0
  2  5  1  0
  5  6  1  0
  3  7  2  0
  6  8  1  0
  8  9  2  3
  9 10  1  0
  4 11  1  0
 10 12  1  0
 11 13  2  0
 12 14  1  0
  7 15  1  0
 12 16  2  0
 14 17  2  0
  2 18  1  0
 15 18  2  0
 11 19  1  0
 19 20  2  0
 17 21  1  0
 16 22  1  0
 21 22  2  0
 20 23  1  0
 20 24  1  0
 13 25  1  0
 24 25  2  0
M  END
>  <ID>  (1) 
conformer_0

$$$$
