
     RDKit          3D

 25 28  0  0  0  0  0  0  0  0999 V2000
   19.7960   51.8630   20.8891 C   0  0  0  0  0  0  0  0  0  0  0  0
   19.7719   51.0619   20.0608 C   0  0  0  0  0  0  0  0  0  0  0  0
   19.1544   53.2354   20.5410 C   0  0  0  0  0  0  0  0  0  0  0  0
   18.4715   53.2404   19.3160 C   0  0  0  0  0  0  0  0  0  0  0  0
   19.2114   54.3653   21.3803 C   0  0  0  0  0  0  0  0  0  0  0  0
   18.4869   51.9984   18.5298 C   0  0  0  0  0  0  0  0  0  0  0  0
   18.2705   54.6956   22.1704 C   0  0  0  0  0  0  0  0  0  0  0  0
   20.5537   49.7267   20.4245 C   0  0  0  0  0  0  0  0  0  0  0  0
   21.3552   49.1396   19.4459 C   0  0  0  0  0  0  0  0  0  0  0  0
   18.3479   55.8093   23.0753 C   0  0  0  0  0  0  0  0  0  0  0  0
   17.0372   54.0997   22.4539 C   0  0  0  0  0  0  0  0  0  0  0  0
   21.0566   48.8351   18.3002 C   0  0  0  0  0  0  0  0  0  0  0  0
   19.1791   50.9500   18.9132 C   0  0  0  0  0  0  0  0  0  0  0  0
   22.4909   48.4726   20.1005 C   0  0  0  0  0  0  0  0  0  0  0  0
   17.2213   55.8904   23.8419 C   0  0  0  0  0  0  0  0  0  0  0  0
   16.3643   54.8425   23.4266 N   0  0  0  0  0  0  0  0  0  0  0  0
   23.4078   47.7545   19.4212 C   0  0  0  0  0  0  0  0  0  0  0  0
   24.5363   47.0665   19.8919 C   0  0  0  0  0  0  0  0  0  0  0  0
   25.4816   46.7914   18.7537 C   0  0  0  0  0  0  0  0  0  0  0  0
   23.1444   47.8320   17.8423 C   0  0  0  0  0  0  0  0  0  0  0  0
   22.0967   48.3594   17.4229 C   0  0  0  0  0  0  0  0  0  0  0  0
   16.8838   56.8261   24.9036 C   0  0  0  0  0  0  0  0  0  0  0  0
   24.5469   47.0882   17.4516 C   0  0  0  0  0  0  0  0  0  0  0  0
   17.7874   56.9018   25.8953 O   0  0  0  0  0  0  0  0  0  0  0  0
   16.2364   57.8099   24.7263 O   0  0  0  0  0  0  0  0  0  0  0  0
  1  2  2  0
  1  3  1  0
  3  4  2  0
  3  5  1  0
  4  6  1  0
  5  7  2  3
  2  8  1  0
  8  9  1  0
  7 10  1  0
  7 11  1  0
  9 12  2  0
  2 13  1  0
  6 13  2  0
  9 14  1  0
 10 15  2  0
 11 16  2  0
 15 16  1  0
 14 17  2  0
 17 18  1  0
 18 19  1  0
 17 20  1  0
 12 21  1  0
 20 21  2  0
 15 22  1  0
 19 23  1  0
 20 23  1  0
 22 24  1  0
 22 25  2  0
M  END
>  <ID>  (1) 
conformer_0

$$$$
