
     RDKit          3D

 24 27  0  0  0  0  0  0  0  0999 V2000
   19.7960   51.8630   20.8891 C   0  0  0  0  0  0  0  0  0  0  0  0
   19.7719   51.0619   20.0608 C   0  0  0  0  0  0  0  0  0  0  0  0
   20.5454   49.8834   20.1162 C   0  0  0  0  0  0  0  0  0  0  0  0
   20.7515   52.0329   21.8538 C   0  0  0  0  0  0  0  0  0  0  0  0
   21.6930   49.9621   21.0252 C   0  0  0  0  0  0  0  0  0  0  0  0
   20.5092   48.8616   19.0780 C   0  0  0  0  0  0  0  0  0  0  0  0
   20.6652   53.1099   22.7321 C   0  0  0  0  0  0  0  0  0  0  0  0
   22.6311   48.8816   20.9688 C   0  0  0  0  0  0  0  0  0  0  0  0
   23.0631   48.4425   19.6784 C   0  0  0  0  0  0  0  0  0  0  0  0
   19.5368   53.9483   22.3303 C   0  0  0  0  0  0  0  0  0  0  0  0
   18.5545   53.5290   21.2435 C   0  0  0  0  0  0  0  0  0  0  0  0
   24.0204   47.3354   19.6195 C   0  0  0  0  0  0  0  0  0  0  0  0
   24.5954   47.0041   18.2683 C   0  0  0  0  0  0  0  0  0  0  0  0
   18.9224   55.1043   22.9997 C   0  0  0  0  0  0  0  0  0  0  0  0
   24.9700   47.9672   17.6453 O   0  0  0  0  0  0  0  0  0  0  0  0
   17.7728   55.0908   23.6686 C   0  0  0  0  0  0  0  0  0  0  0  0
   17.2368   56.0587   24.2317 C   0  0  0  0  0  0  0  0  0  0  0  0
   21.6745   51.0229   21.9477 C   0  0  0  0  0  0  0  0  0  0  0  0
   17.8882   57.1309   24.7890 C   0  0  0  0  0  0  0  0  0  0  0  0
   19.6531   56.3203   23.4437 C   0  0  0  0  0  0  0  0  0  0  0  0
   17.3365   58.0670   25.6822 O   0  0  0  0  0  0  0  0  0  0  0  0
   19.1882   57.2400   24.2489 C   0  0  0  0  0  0  0  0  0  0  0  0
   21.6382   47.7995   19.0781 C   0  0  0  0  0  0  0  0  0  0  0  0
   24.1520   45.9528   17.7242 O   0  0  0  0  0  0  0  0  0  0  0  0
  1  2  2  0
  2  3  1  0
  1  4  1  0
  3  5  2  0
  3  6  1  0
  4  7  1  0
  5  8  1  0
  8  9  1  0
  7 10  2  0
  1 11  1  0
 10 11  1  0
  9 12  1  0
 12 13  1  0
 10 14  1  0
 13 15  1  0
 14 16  1  0
 16 17  2  0
  4 18  2  0
  5 18  1  0
 17 19  1  0
 14 20  2  0
 19 21  1  0
 19 22  2  0
 20 22  1  0
  6 23  1  0
  9 23  1  0
 13 24  2  0
M  END
>  <ID>  (1) 
conformer_0

$$$$
