
     RDKit          3D

 16 18  0  0  0  0  0  0  0  0999 V2000
   24.3259   46.1884   19.3132 C   0  0  0  0  0  0  0  0  0  0  0  0
   23.1494   46.8357   19.2864 C   0  0  0  0  0  0  0  0  0  0  0  0
   23.1450   48.1624   18.8151 C   0  0  0  0  0  0  0  0  0  0  0  0
   25.2281   46.6141   18.4013 C   0  0  0  0  0  0  0  0  0  0  0  0
   21.8884   48.9022   18.9567 C   0  0  0  0  0  0  0  0  0  0  0  0
   24.1983   48.5635   17.9494 C   0  0  0  0  0  0  0  0  0  0  0  0
   21.5830   49.5556   20.0882 C   0  0  0  0  0  0  0  0  0  0  0  0
   20.6590   50.5758   20.2397 C   0  0  0  0  0  0  0  0  0  0  0  0
   20.9966   48.9755   17.9062 C   0  0  0  0  0  0  0  0  0  0  0  0
   20.4845   51.3316   21.4253 C   0  0  0  0  0  0  0  0  0  0  0  0
   19.8972   52.6472   21.2889 C   0  0  0  0  0  0  0  0  0  0  0  0
   19.7831   50.5899   19.0276 C   0  0  0  0  0  0  0  0  0  0  0  0
   25.3021   47.8328   17.8367 C   0  0  0  0  0  0  0  0  0  0  0  0
   19.0150   52.9167   20.1659 C   0  0  0  0  0  0  0  0  0  0  0  0
   19.9452   49.8336   18.0141 C   0  0  0  0  0  0  0  0  0  0  0  0
   18.9105   51.8897   19.1078 C   0  0  0  0  0  0  0  0  0  0  0  0
  1  2  1  0
  2  3  2  0
  1  4  2  0
  3  5  1  0
  3  6  1  0
  5  7  1  0
  7  8  2  0
  5  9  2  0
  8 10  1  0
 10 11  2  0
  8 12  1  0
  4 13  1  0
  6 13  2  0
 11 14  1  0
  9 15  1  0
 12 15  2  0
 12 16  1  0
 14 16  2  0
M  END
>  <ID>  (1) 
conformer_0

$$$$
