
     RDKit          3D

  7  6  0  0  0  0  0  0  0  0999 V2000
   17.2335   55.9972   25.6728 C   0  0  0  0  0  0  0  0  0  0  0  0
   17.0679   57.3047   25.8534 C   0  0  0  0  0  0  0  0  0  0  0  0
   17.6478   55.6901   24.3694 C   0  0  0  0  0  0  0  0  0  0  0  0
   18.3907   56.5290   23.8020 O   0  0  0  0  0  0  0  0  0  0  0  0
   16.9876   54.7970   23.6780 O   0  0  0  0  0  0  0  0  0  0  0  0
   16.0546   57.7245   26.3739 O   0  0  0  0  0  0  0  0  0  0  0  0
   18.0932   58.0966   25.8289 O   0  0  0  0  0  0  0  0  0  0  0  0
  1  2  1  0
  1  3  1  0
  3  4  2  0
  3  5  1  0
  2  6  2  0
  2  7  1  0
M  END
>  <ID>  (1) 
conformer_0

$$$$
