
     RDKit          3D

 24 26  0  0  0  0  0  0  0  0999 V2000
   19.7960   51.8630   20.8891 C   0  0  0  0  0  0  0  0  0  0  0  0
   19.7719   51.0619   20.0608 C   0  0  0  0  0  0  0  0  0  0  0  0
   20.5454   49.8834   20.1162 C   0  0  0  0  0  0  0  0  0  0  0  0
   20.7515   52.0329   21.8538 C   0  0  0  0  0  0  0  0  0  0  0  0
   21.6930   49.9621   21.0252 C   0  0  0  0  0  0  0  0  0  0  0  0
   20.5092   48.8616   19.0780 C   0  0  0  0  0  0  0  0  0  0  0  0
   18.7761   53.0635   20.8981 C   0  0  0  0  0  0  0  0  0  0  0  0
   18.0791   53.3044   20.0267 O   0  0  0  0  0  0  0  0  0  0  0  0
   21.7064   48.2277   18.7682 C   0  0  0  0  0  0  0  0  0  0  0  0
   18.6068   53.7772   22.1450 N   0  0  0  0  0  0  0  0  0  0  0  0
   22.5332   47.5542   19.4165 C   0  0  0  0  0  0  0  0  0  0  0  0
   23.8065   46.9720   19.0087 C   0  0  0  0  0  0  0  0  0  0  0  0
   24.2523   47.1633   17.7224 C   0  0  0  0  0  0  0  0  0  0  0  0
   22.2715   48.5227   17.5384 C   0  0  0  0  0  0  0  0  0  0  0  0
   17.6949   54.8070   22.2957 C   0  0  0  0  0  0  0  0  0  0  0  0
   21.7159   50.9865   21.8833 C   0  0  0  0  0  0  0  0  0  0  0  0
   17.5847   55.2580   23.7392 C   0  0  0  0  0  0  0  0  0  0  0  0
   16.5681   54.9417   24.4257 C   0  0  0  0  0  0  0  0  0  0  0  0
   25.4415   46.7107   17.3458 F   0  0  0  0  0  0  0  0  0  0  0  0
   16.4644   55.6306   25.6784 C   0  0  0  0  0  0  0  0  0  0  0  0
   23.5471   48.0467   17.0107 C   0  0  0  0  0  0  0  0  0  0  0  0
   18.4840   56.3504   24.2004 C   0  0  0  0  0  0  0  0  0  0  0  0
   18.2450   56.9115   25.3460 C   0  0  0  0  0  0  0  0  0  0  0  0
   17.1360   56.5595   26.1420 C   0  0  0  0  0  0  0  0  0  0  0  0
  1  2  2  0
  2  3  1  0
  1  4  1  0
  3  5  2  0
  3  6  1  0
  1  7  1  0
  7  8  2  0
  6  9  1  0
  7 10  1  0
  9 11  1  0
 11 12  2  0
 12 13  1  0
  9 14  2  0
 10 15  1  0
  4 16  2  0
  5 16  1  0
 15 17  1  0
 17 18  2  0
 13 19  1  0
 18 20  1  0
 13 21  2  0
 14 21  1  0
 17 22  1  0
 22 23  2  0
 20 24  2  0
 23 24  1  0
M  END
>  <ID>  (1) 
conformer_0

$$$$
