
     RDKit          3D

 26 29  0  0  0  0  0  0  0  0999 V2000
   19.7960   51.8630   20.8891 C   0  0  0  0  0  0  0  0  0  0  0  0
   19.7719   51.0619   20.0608 C   0  0  0  0  0  0  0  0  0  0  0  0
   19.0134   52.8520   21.1586 C   0  0  0  0  0  0  0  0  0  0  0  0
   20.9711   51.8399   21.6256 N   0  0  0  0  0  0  0  0  0  0  0  0
   19.0192   53.5892   22.2999 N   0  0  0  0  0  0  0  0  0  0  0  0
   17.9031   54.5028   22.4645 C   0  0  0  0  0  0  0  0  0  0  0  0
   21.5734   50.5892   21.0492 N   0  0  0  0  0  0  0  0  0  0  0  0
   20.8085   50.1547   20.0946 C   0  0  0  0  0  0  0  0  0  0  0  0
   17.3311   54.3831   21.1615 C   0  0  0  0  0  0  0  0  0  0  0  0
   21.2496   49.0278   19.2835 C   0  0  0  0  0  0  0  0  0  0  0  0
   17.5312   55.2989   23.4757 C   0  0  0  0  0  0  0  0  0  0  0  0
   17.9090   53.3942   20.3801 N   0  0  0  0  0  0  0  0  0  0  0  0
   16.4231   55.7727   23.6168 C   0  0  0  0  0  0  0  0  0  0  0  0
   22.5293   48.5799   19.3332 C   0  0  0  0  0  0  0  0  0  0  0  0
   20.2044   48.4295   18.5699 C   0  0  0  0  0  0  0  0  0  0  0  0
   16.1528   56.6831   24.6977 C   0  0  0  0  0  0  0  0  0  0  0  0
   17.1226   57.0247   25.5837 C   0  0  0  0  0  0  0  0  0  0  0  0
   22.8845   47.4256   18.4688 C   0  0  0  0  0  0  0  0  0  0  0  0
   24.4047   46.8907   18.4086 C   0  0  0  0  0  0  0  0  0  0  0  0
   20.5460   47.2928   17.7678 C   0  0  0  0  0  0  0  0  0  0  0  0
   24.5562   45.7023   18.7650 O   0  0  0  0  0  0  0  0  0  0  0  0
   25.3340   47.7122   17.9098 O   0  0  0  0  0  0  0  0  0  0  0  0
   18.6279   55.7271   24.4920 C   0  0  0  0  0  0  0  0  0  0  0  0
   21.8528   46.8352   17.7326 C   0  0  0  0  0  0  0  0  0  0  0  0
   18.3680   56.5127   25.4556 C   0  0  0  0  0  0  0  0  0  0  0  0
   16.8352   57.9654   26.7450 O   0  0  0  0  0  0  0  0  0  0  0  0
  1  2  1  0
  1  3  1  0
  1  4  2  0
  3  5  1  0
  5  6  2  0
  4  7  1  0
  2  8  2  0
  7  8  1  0
  6  9  1  0
  8 10  1  0
  6 11  1  0
  3 12  1  0
  9 12  1  0
 11 13  2  0
 10 14  1  0
 10 15  2  0
 13 16  1  0
 16 17  2  0
 14 18  2  0
 18 19  1  0
 15 20  1  0
 19 21  2  0
 19 22  1  0
 11 23  1  0
 18 24  1  0
 20 24  2  0
 17 25  1  0
 23 25  2  0
 17 26  1  0
M  END
>  <ID>  (1) 
conformer_0

$$$$
