
     RDKit          3D

 26 29  0  0  0  0  0  0  0  0999 V2000
   19.7960   51.8630   20.8891 C   0  0  0  0  0  0  0  0  0  0  0  0
   19.7719   51.0619   20.0608 C   0  0  0  0  0  0  0  0  0  0  0  0
   20.5454   49.8834   20.1162 C   0  0  0  0  0  0  0  0  0  0  0  0
   20.7515   52.0329   21.8538 C   0  0  0  0  0  0  0  0  0  0  0  0
   21.6930   49.9621   21.0252 C   0  0  0  0  0  0  0  0  0  0  0  0
   20.5092   48.8616   19.0780 C   0  0  0  0  0  0  0  0  0  0  0  0
   20.6652   53.1099   22.7321 C   0  0  0  0  0  0  0  0  0  0  0  0
   22.6311   48.8816   20.9688 C   0  0  0  0  0  0  0  0  0  0  0  0
   18.8523   53.0450   20.8045 C   0  0  0  0  0  0  0  0  0  0  0  0
   22.6198   48.0178   19.8985 C   0  0  0  0  0  0  0  0  0  0  0  0
   19.6083   54.0662   22.4628 C   0  0  0  0  0  0  0  0  0  0  0  0
   23.5950   46.9462   19.7182 C   0  0  0  0  0  0  0  0  0  0  0  0
   17.8242   52.8127   19.7942 O   0  0  0  0  0  0  0  0  0  0  0  0
   24.4936   47.0413   18.5989 C   0  0  0  0  0  0  0  0  0  0  0  0
   19.6444   55.2573   23.4475 C   0  0  0  0  0  0  0  0  0  0  0  0
   18.7289   54.0101   21.5799 C   0  0  0  0  0  0  0  0  0  0  0  0
   18.3873   55.7896   23.8151 C   0  0  0  0  0  0  0  0  0  0  0  0
   21.4482   47.9527   19.0092 C   0  0  0  0  0  0  0  0  0  0  0  0
   21.6862   51.0547   21.9139 C   0  0  0  0  0  0  0  0  0  0  0  0
   25.0913   48.1000   18.2490 C   0  0  0  0  0  0  0  0  0  0  0  0
   24.7646   45.7983   18.0572 O   0  0  0  0  0  0  0  0  0  0  0  0
   17.2977   55.5848   23.3794 C   0  0  0  0  0  0  0  0  0  0  0  0
   16.3210   56.1335   24.0852 N   0  0  0  0  0  0  0  0  0  0  0  0
   16.9142   56.7964   25.0102 C   0  0  0  0  0  0  0  0  0  0  0  0
   18.1227   56.7070   25.1432 C   0  0  0  0  0  0  0  0  0  0  0  0
   16.2155   57.5712   25.9919 C   0  0  0  0  0  0  0  0  0  0  0  0
  1  2  2  0
  2  3  1  0
  1  4  1  0
  3  5  2  0
  3  6  1  0
  4  7  1  0
  5  8  1  0
  1  9  1  0
  8 10  2  0
  7 11  2  0
 10 12  1  0
  9 13  1  0
 12 14  1  0
 11 15  1  0
  9 16  2  0
 11 16  1  0
 15 17  1  0
  6 18  2  0
 10 18  1  0
  4 19  2  0
  5 19  1  0
 14 20  1  0
 14 21  2  0
 17 22  1  0
 22 23  2  0
 23 24  1  0
 17 25  2  0
 24 25  1  0
 24 26  1  0
M  END
>  <ID>  (1) 
conformer_0

$$$$
