
     RDKit          3D

 17 19  0  0  0  0  0  0  0  0999 V2000
   19.7960   51.8630   20.8891 C   0  0  0  0  0  0  0  0  0  0  0  0
   19.7719   51.0619   20.0608 C   0  0  0  0  0  0  0  0  0  0  0  0
   20.5454   49.8834   20.1162 C   0  0  0  0  0  0  0  0  0  0  0  0
   20.7515   52.0329   21.8538 C   0  0  0  0  0  0  0  0  0  0  0  0
   21.6930   49.9621   21.0252 C   0  0  0  0  0  0  0  0  0  0  0  0
   20.5092   48.8616   19.0780 C   0  0  0  0  0  0  0  0  0  0  0  0
   20.6652   53.1099   22.7321 C   0  0  0  0  0  0  0  0  0  0  0  0
   22.6311   48.8816   20.9688 C   0  0  0  0  0  0  0  0  0  0  0  0
   23.0631   48.4425   19.6784 C   0  0  0  0  0  0  0  0  0  0  0  0
   19.5368   53.9483   22.3303 C   0  0  0  0  0  0  0  0  0  0  0  0
   24.0792   47.3861   19.5577 C   0  0  0  0  0  0  0  0  0  0  0  0
   21.7332   51.0148   21.9224 C   0  0  0  0  0  0  0  0  0  0  0  0
   21.6787   47.8795   18.8854 C   0  0  0  0  0  0  0  0  0  0  0  0
   18.7484   53.0428   20.8587 C   0  0  0  0  0  0  0  0  0  0  0  0
   18.6727   53.9644   21.5873 C   0  0  0  0  0  0  0  0  0  0  0  0
   24.4993   47.0297   18.1338 C   0  0  0  0  0  0  0  0  0  0  0  0
   25.5594   47.6961   17.9508 O   0  0  0  0  0  0  0  0  0  0  0  0
  1  2  2  0
  2  3  1  0
  1  4  1  0
  3  5  2  0
  3  6  1  0
  4  7  1  0
  5  8  1  0
  8  9  1  0
  7 10  2  0
  9 11  1  0
  4 12  2  0
  5 12  1  0
  6 13  1  0
  9 13  1  0
  1 14  1  0
 10 15  1  0
 14 15  2  0
 11 16  1  0
 16 17  1  0
M  END
>  <ID>  (1) 
conformer_0

$$$$
