
     RDKit          3D

 23 26  0  0  0  0  0  0  0  0999 V2000
   18.0812   55.4199   23.5008 C   0  0  0  0  0  0  0  0  0  0  0  0
   17.6804   56.0997   24.4127 C   0  0  0  0  0  0  0  0  0  0  0  0
   17.5358   54.6617   22.7039 C   0  0  0  0  0  0  0  0  0  0  0  0
   18.2520   53.8876   21.6643 C   0  0  0  0  0  0  0  0  0  0  0  0
   18.2429   57.0499   25.4042 C   0  0  0  0  0  0  0  0  0  0  0  0
   16.1684   55.9525   24.4618 C   0  0  0  0  0  0  0  0  0  0  0  0
   16.2031   54.6596   22.8783 N   0  0  0  0  0  0  0  0  0  0  0  0
   17.7776   53.6434   20.5225 C   0  0  0  0  0  0  0  0  0  0  0  0
   19.4226   53.3267   22.0829 C   0  0  0  0  0  0  0  0  0  0  0  0
   18.6560   52.7920   19.6755 C   0  0  0  0  0  0  0  0  0  0  0  0
   15.6570   56.7087   25.6269 C   0  0  0  0  0  0  0  0  0  0  0  0
   15.5664   55.1689   23.7372 C   0  0  0  0  0  0  0  0  0  0  0  0
   20.0996   52.5582   21.0604 C   0  0  0  0  0  0  0  0  0  0  0  0
   16.3532   57.6164   26.3034 N   0  0  0  0  0  0  0  0  0  0  0  0
   19.6761   52.2906   20.0425 C   0  0  0  0  0  0  0  0  0  0  0  0
   20.3944   51.3245   19.1362 O   0  0  0  0  0  0  0  0  0  0  0  0
   20.4047   50.0270   19.3786 C   0  0  0  0  0  0  0  0  0  0  0  0
   21.0877   49.5097   20.2650 C   0  0  0  0  0  0  0  0  0  0  0  0
   20.2661   49.3076   18.1416 C   0  0  0  0  0  0  0  0  0  0  0  0
   17.7463   57.5816   26.0766 C   0  0  0  0  0  0  0  0  0  0  0  0
   21.5049   48.1749   20.3485 C   0  0  0  0  0  0  0  0  0  0  0  0
   21.3612   47.4495   19.1491 C   0  0  0  0  0  0  0  0  0  0  0  0
   20.6664   47.9884   18.0769 C   0  0  0  0  0  0  0  0  0  0  0  0
  1  2  2  0
  1  3  1  0
  3  4  1  0
  2  5  1  0
  2  6  1  0
  3  7  2  0
  4  8  2  0
  4  9  1  0
  8 10  1  0
  6 11  1  0
  6 12  2  0
  7 12  1  0
  9 13  2  0
 11 14  2  0
 10 15  2  0
 13 15  1  0
 15 16  1  0
 16 17  1  0
 17 18  1  0
 17 19  2  0
  5 20  2  0
 14 20  1  0
 18 21  2  0
 21 22  1  0
 19 23  1  0
 22 23  2  0
M  END
>  <ID>  (1) 
conformer_0

$$$$
