
     RDKit          3D

 11 12  0  0  0  0  0  0  0  0999 V2000
   24.2127   47.0596   17.6097 C   0  0  0  0  0  0  0  0  0  0  0  0
   23.3880   47.7116   18.1004 C   0  0  0  0  0  0  0  0  0  0  0  0
   22.2809   48.1703   17.8303 C   0  0  0  0  0  0  0  0  0  0  0  0
   21.1544   48.0002   18.4954 C   0  0  0  0  0  0  0  0  0  0  0  0
   23.9944   47.9718   19.5541 C   0  0  0  0  0  0  0  0  0  0  0  0
   24.3878   49.1102   19.6653 F   0  0  0  0  0  0  0  0  0  0  0  0
   22.8930   47.8788   20.4601 C   0  0  0  0  0  0  0  0  0  0  0  0
   25.5410   46.6129   18.0251 C   0  0  0  0  0  0  0  0  0  0  0  0
   24.9993   47.3187   19.7737 N   0  0  0  0  0  0  0  0  0  0  0  0
   25.8102   46.6847   19.1115 C   0  0  0  0  0  0  0  0  0  0  0  0
   21.4527   48.0943   20.0164 C   0  0  0  0  0  0  0  0  0  0  0  0
  1  2  2  0
  2  3  1  0
  3  4  2  0
  2  5  1  0
  5  6  1  0
  5  7  1  0
  1  8  1  0
  5  9  1  0
  8 10  2  0
  9 10  1  0
  4 11  1  0
  7 11  2  0
M  END
>  <ID>  (1) 
conformer_0

$$$$
