
     RDKit          3D

 12 13  0  0  0  0  0  0  0  0999 V2000
   25.2581   47.8845   18.4713 C   0  0  0  0  0  0  0  0  0  0  0  0
   25.0259   46.5712   18.4300 C   0  0  0  0  0  0  0  0  0  0  0  0
   24.2228   48.5929   19.0681 C   0  0  0  0  0  0  0  0  0  0  0  0
   23.0801   47.9168   19.4196 C   0  0  0  0  0  0  0  0  0  0  0  0
   22.0144   48.7657   20.0138 C   0  0  0  0  0  0  0  0  0  0  0  0
   24.1735   45.8332   18.8677 C   0  0  0  0  0  0  0  0  0  0  0  0
   21.9429   49.9741   19.9144 C   0  0  0  0  0  0  0  0  0  0  0  0
   20.9199   47.9483   20.3659 C   0  0  0  0  0  0  0  0  0  0  0  0
   19.7736   48.7216   20.8163 C   0  0  0  0  0  0  0  0  0  0  0  0
   23.0603   46.4662   19.5264 C   0  0  0  0  0  0  0  0  0  0  0  0
   20.8920   50.7278   20.4310 C   0  0  0  0  0  0  0  0  0  0  0  0
   19.7712   50.0922   20.8550 C   0  0  0  0  0  0  0  0  0  0  0  0
  1  2  1  0
  1  3  2  0
  3  4  1  0
  4  5  1  0
  2  6  2  0
  5  7  1  0
  5  8  2  0
  8  9  1  0
  4 10  2  0
  6 10  1  0
  7 11  2  0
  9 12  2  0
 11 12  1  0
M  END
>  <ID>  (1) 
conformer_0

$$$$
