
     RDKit          3D

 24 26  0  0  0  0  0  0  0  0999 V2000
   19.1438   52.9076   21.5700 C   0  0  0  0  0  0  0  0  0  0  0  0
   18.8214   52.1302   20.6485 C   0  0  0  0  0  0  0  0  0  0  0  0
   19.3518   54.2706   21.2427 C   0  0  0  0  0  0  0  0  0  0  0  0
   19.2620   55.2393   22.2692 C   0  0  0  0  0  0  0  0  0  0  0  0
   18.7732   50.6673   20.6982 O   0  0  0  0  0  0  0  0  0  0  0  0
   20.0127   50.0621   20.6296 C   0  0  0  0  0  0  0  0  0  0  0  0
   18.8797   54.5018   19.9905 C   0  0  0  0  0  0  0  0  0  0  0  0
   20.9666   50.3372   19.7360 C   0  0  0  0  0  0  0  0  0  0  0  0
   21.5518   49.3351   19.0558 C   0  0  0  0  0  0  0  0  0  0  0  0
   22.2434   48.2519   19.6710 C   0  0  0  0  0  0  0  0  0  0  0  0
   18.2196   55.5629   23.0561 C   0  0  0  0  0  0  0  0  0  0  0  0
   23.2693   47.4570   19.0438 C   0  0  0  0  0  0  0  0  0  0  0  0
   16.9713   55.1966   22.7647 C   0  0  0  0  0  0  0  0  0  0  0  0
   23.4974   46.1427   19.3891 C   0  0  0  0  0  0  0  0  0  0  0  0
   24.0739   48.0873   18.0263 C   0  0  0  0  0  0  0  0  0  0  0  0
   18.4382   56.4800   24.1209 C   0  0  0  0  0  0  0  0  0  0  0  0
   25.2007   47.1565   17.6843 C   0  0  0  0  0  0  0  0  0  0  0  0
   18.6069   52.5353   19.2788 C   0  0  0  0  0  0  0  0  0  0  0  0
   17.5294   56.8798   24.9832 C   0  0  0  0  0  0  0  0  0  0  0  0
   24.9127   45.7536   18.9122 C   0  0  0  0  0  0  0  0  0  0  0  0
   17.7895   57.7071   26.1676 C   0  0  0  0  0  0  0  0  0  0  0  0
   18.6175   53.6567   19.0818 C   0  0  0  0  0  0  0  0  0  0  0  0
   15.8523   55.6767   23.7348 C   0  0  0  0  0  0  0  0  0  0  0  0
   16.2623   56.4493   24.7679 C   0  0  0  0  0  0  0  0  0  0  0  0
  1  2  2  0
  1  3  1  0
  3  4  1  0
  2  5  1  0
  5  6  1  0
  3  7  2  0
  6  8  1  0
  8  9  2  3
  9 10  1  0
  4 11  1  0
 10 12  1  0
 11 13  2  0
 12 14  1  0
 12 15  2  0
 11 16  1  0
 15 17  1  0
  2 18  1  0
 16 19  2  0
 14 20  1  0
 17 20  1  0
 19 21  1  0
  7 22  1  0
 18 22  2  0
 13 23  1  0
 19 24  1  0
 23 24  2  0
M  END
>  <ID>  (1) 
conformer_0

$$$$
