
     RDKit          3D

 24 26  0  0  0  0  0  0  0  0999 V2000
   19.1438   52.9076   21.5700 C   0  0  0  0  0  0  0  0  0  0  0  0
   18.8214   52.1302   20.6485 C   0  0  0  0  0  0  0  0  0  0  0  0
   19.3518   54.2706   21.2427 C   0  0  0  0  0  0  0  0  0  0  0  0
   19.2620   55.2393   22.2692 C   0  0  0  0  0  0  0  0  0  0  0  0
   18.7732   50.6673   20.6982 O   0  0  0  0  0  0  0  0  0  0  0  0
   20.0127   50.0621   20.6296 C   0  0  0  0  0  0  0  0  0  0  0  0
   18.8797   54.5018   19.9905 C   0  0  0  0  0  0  0  0  0  0  0  0
   20.9666   50.3372   19.7360 C   0  0  0  0  0  0  0  0  0  0  0  0
   22.1407   49.5701   19.6000 C   0  0  0  0  0  0  0  0  0  0  0  0
   22.1439   48.2653   19.9648 C   0  0  0  0  0  0  0  0  0  0  0  0
   23.3337   47.3464   19.6420 C   0  0  0  0  0  0  0  0  0  0  0  0
   18.7702   53.0718   19.3480 O   0  0  0  0  0  0  0  0  0  0  0  0
   23.4321   46.0218   19.8542 C   0  0  0  0  0  0  0  0  0  0  0  0
   18.2439   55.5513   23.1162 C   0  0  0  0  0  0  0  0  0  0  0  0
   18.4020   56.5508   24.1138 C   0  0  0  0  0  0  0  0  0  0  0  0
   17.3111   56.8240   24.9515 C   0  0  0  0  0  0  0  0  0  0  0  0
   17.0061   54.9298   22.9582 C   0  0  0  0  0  0  0  0  0  0  0  0
   24.5786   45.4072   19.2839 C   0  0  0  0  0  0  0  0  0  0  0  0
   15.9632   55.4180   23.9913 C   0  0  0  0  0  0  0  0  0  0  0  0
   16.2415   56.3162   24.8706 C   0  0  0  0  0  0  0  0  0  0  0  0
   24.1332   48.1098   18.6524 C   0  0  0  0  0  0  0  0  0  0  0  0
   17.6366   57.8360   26.1252 O   0  0  0  0  0  0  0  0  0  0  0  0
   25.5659   46.1454   18.5026 C   0  0  0  0  0  0  0  0  0  0  0  0
   25.3473   47.4498   18.2412 C   0  0  0  0  0  0  0  0  0  0  0  0
  1  2  2  0
  1  3  1  0
  3  4  1  0
  2  5  1  0
  5  6  1  0
  3  7  2  0
  6  8  1  0
  8  9  2  3
  9 10  1  0
 10 11  1  0
  2 12  1  0
  7 12  1  0
 11 13  1  0
  4 14  1  0
 14 15  1  0
 15 16  2  0
 14 17  2  0
 13 18  2  0
 17 19  1  0
 16 20  1  0
 19 20  2  0
 11 21  2  0
 16 22  1  0
 18 23  1  0
 21 24  1  0
 23 24  2  0
M  END
>  <ID>  (1) 
conformer_0

$$$$
