
     RDKit          3D

 26 28  0  0  0  0  0  0  0  0999 V2000
   19.1438   52.9076   21.5700 C   0  0  0  0  0  0  0  0  0  0  0  0
   18.8214   52.1302   20.6485 C   0  0  0  0  0  0  0  0  0  0  0  0
   19.3518   54.2706   21.2427 C   0  0  0  0  0  0  0  0  0  0  0  0
   19.2620   55.2393   22.2692 C   0  0  0  0  0  0  0  0  0  0  0  0
   18.7732   50.6673   20.6982 O   0  0  0  0  0  0  0  0  0  0  0  0
   20.0127   50.0621   20.6296 C   0  0  0  0  0  0  0  0  0  0  0  0
   18.8797   54.5018   19.9905 C   0  0  0  0  0  0  0  0  0  0  0  0
   20.9666   50.3372   19.7360 C   0  0  0  0  0  0  0  0  0  0  0  0
   21.5518   49.3351   19.0558 C   0  0  0  0  0  0  0  0  0  0  0  0
   22.2434   48.2519   19.6710 C   0  0  0  0  0  0  0  0  0  0  0  0
   18.2196   55.5629   23.0561 C   0  0  0  0  0  0  0  0  0  0  0  0
   23.2693   47.4570   19.0438 C   0  0  0  0  0  0  0  0  0  0  0  0
   16.9713   55.1966   22.7647 C   0  0  0  0  0  0  0  0  0  0  0  0
   23.4974   46.1427   19.3891 C   0  0  0  0  0  0  0  0  0  0  0  0
   24.0739   48.0873   18.0263 C   0  0  0  0  0  0  0  0  0  0  0  0
   25.1675   47.3533   17.5043 C   0  0  0  0  0  0  0  0  0  0  0  0
   16.1784   55.8591   23.8901 C   0  0  0  0  0  0  0  0  0  0  0  0
   24.7548   45.5984   19.1352 C   0  0  0  0  0  0  0  0  0  0  0  0
   17.0584   56.5482   24.6374 C   0  0  0  0  0  0  0  0  0  0  0  0
   18.4101   52.6937   19.2344 C   0  0  0  0  0  0  0  0  0  0  0  0
   25.5414   46.1690   18.1399 C   0  0  0  0  0  0  0  0  0  0  0  0
   18.2534   56.2767   24.2085 O   0  0  0  0  0  0  0  0  0  0  0  0
   16.8486   57.1699   25.8379 C   0  0  0  0  0  0  0  0  0  0  0  0
   18.4806   53.8321   19.0543 C   0  0  0  0  0  0  0  0  0  0  0  0
   15.7488   57.2435   26.3502 O   0  0  0  0  0  0  0  0  0  0  0  0
   17.7694   57.9004   26.3988 O   0  0  0  0  0  0  0  0  0  0  0  0
  1  2  2  0
  1  3  1  0
  3  4  1  0
  2  5  1  0
  5  6  1  0
  3  7  2  0
  6  8  1  0
  8  9  2  3
  9 10  1  0
  4 11  1  0
 10 12  1  0
 11 13  2  0
 12 14  1  0
 12 15  2  0
 15 16  1  0
 13 17  1  0
 14 18  2  0
 17 19  2  0
  2 20  1  0
 16 21  2  0
 18 21  1  0
 11 22  1  0
 19 22  1  0
 19 23  1  0
  7 24  1  0
 20 24  2  0
 23 25  2  0
 23 26  1  0
M  END
>  <ID>  (1) 
conformer_0

$$$$
