
     RDKit          3D

  6  6  0  0  0  0  0  0  0  0999 V2000
   24.9548   46.9618   18.5950 C   0  0  0  0  0  0  0  0  0  0  0  0
   24.6125   48.2616   18.5316 C   0  0  0  0  0  0  0  0  0  0  0  0
   24.2015   45.9757   19.1528 C   0  0  0  0  0  0  0  0  0  0  0  0
   23.4164   48.5757   19.2234 C   0  0  0  0  0  0  0  0  0  0  0  0
   23.0995   46.2990   19.8437 C   0  0  0  0  0  0  0  0  0  0  0  0
   22.6953   47.6183   19.8829 C   0  0  0  0  0  0  0  0  0  0  0  0
  1  2  1  0
  1  3  2  0
  2  4  2  0
  3  5  1  0
  4  6  1  0
  5  6  2  0
M  END
>  <ID>  (1) 
conformer_0

$$$$
