
     RDKit          3D

 21 23  0  0  0  0  0  0  0  0999 V2000
   19.7960   51.8630   20.8891 C   0  0  0  0  0  0  0  0  0  0  0  0
   19.7719   51.0619   20.0608 C   0  0  0  0  0  0  0  0  0  0  0  0
   20.5454   49.8834   20.1162 C   0  0  0  0  0  0  0  0  0  0  0  0
   20.7515   52.0329   21.8538 C   0  0  0  0  0  0  0  0  0  0  0  0
   21.6930   49.9621   21.0252 C   0  0  0  0  0  0  0  0  0  0  0  0
   20.5092   48.8616   19.0780 C   0  0  0  0  0  0  0  0  0  0  0  0
   20.6652   53.1099   22.7321 C   0  0  0  0  0  0  0  0  0  0  0  0
   22.6311   48.8816   20.9688 C   0  0  0  0  0  0  0  0  0  0  0  0
   23.0631   48.4425   19.6784 C   0  0  0  0  0  0  0  0  0  0  0  0
   18.9079   53.0846   20.8230 C   0  0  0  0  0  0  0  0  0  0  0  0
   19.2388   53.8866   22.0054 C   0  0  0  0  0  0  0  0  0  0  0  0
   21.7647   48.0595   18.9372 C   0  0  0  0  0  0  0  0  0  0  0  0
   18.6677   55.0049   22.5126 C   0  0  0  0  0  0  0  0  0  0  0  0
   24.0975   47.3929   19.4374 C   0  0  0  0  0  0  0  0  0  0  0  0
   17.5859   54.8107   23.3519 C   0  0  0  0  0  0  0  0  0  0  0  0
   17.1423   56.0425   23.8573 C   0  0  0  0  0  0  0  0  0  0  0  0
   17.4532   56.5038   25.1017 C   0  0  0  0  0  0  0  0  0  0  0  0
   24.2972   46.9763   18.0513 C   0  0  0  0  0  0  0  0  0  0  0  0
   21.6801   51.0171   21.9026 C   0  0  0  0  0  0  0  0  0  0  0  0
   18.4358   55.8090   25.7880 O   0  0  0  0  0  0  0  0  0  0  0  0
   16.7966   57.5343   25.8095 C   0  0  0  0  0  0  0  0  0  0  0  0
  1  2  2  0
  2  3  1  0
  1  4  1  0
  3  5  2  0
  3  6  1  0
  4  7  1  0
  5  8  1  0
  8  9  1  0
  1 10  1  0
  7 11  2  0
 10 11  1  0
  6 12  1  0
  9 12  1  0
 11 13  1  0
  9 14  1  0
 13 15  2  3
 15 16  1  0
 16 17  2  3
 14 18  1  0
  4 19  2  0
  5 19  1  0
 17 20  1  0
 17 21  1  0
M  END
>  <ID>  (1) 
conformer_0

$$$$
