
     RDKit          3D

 21 23  0  0  0  0  0  0  0  0999 V2000
   19.7960   51.8630   20.8891 C   0  0  0  0  0  0  0  0  0  0  0  0
   19.7719   51.0619   20.0608 C   0  0  0  0  0  0  0  0  0  0  0  0
   20.5454   49.8834   20.1162 C   0  0  0  0  0  0  0  0  0  0  0  0
   20.7515   52.0329   21.8538 C   0  0  0  0  0  0  0  0  0  0  0  0
   21.6930   49.9621   21.0252 C   0  0  0  0  0  0  0  0  0  0  0  0
   20.5092   48.8616   19.0780 C   0  0  0  0  0  0  0  0  0  0  0  0
   20.6652   53.1099   22.7321 C   0  0  0  0  0  0  0  0  0  0  0  0
   22.6311   48.8816   20.9688 C   0  0  0  0  0  0  0  0  0  0  0  0
   23.0631   48.4425   19.6784 C   0  0  0  0  0  0  0  0  0  0  0  0
   19.5368   53.9483   22.3303 C   0  0  0  0  0  0  0  0  0  0  0  0
   18.5545   53.5290   21.2435 C   0  0  0  0  0  0  0  0  0  0  0  0
   21.6604   51.1219   21.9026 C   0  0  0  0  0  0  0  0  0  0  0  0
   21.7272   47.9199   18.9510 C   0  0  0  0  0  0  0  0  0  0  0  0
   23.9392   47.1918   19.6669 C   0  0  0  0  0  0  0  0  0  0  0  0
   19.1017   55.1535   22.9883 C   0  0  0  0  0  0  0  0  0  0  0  0
   17.8021   55.0955   23.6263 C   0  0  0  0  0  0  0  0  0  0  0  0
   24.9927   47.2686   18.5946 C   0  0  0  0  0  0  0  0  0  0  0  0
   17.5379   56.3353   24.3528 C   0  0  0  0  0  0  0  0  0  0  0  0
   25.3440   45.9998   18.1146 C   0  0  0  0  0  0  0  0  0  0  0  0
   16.2110   56.8796   24.1607 O   0  0  0  0  0  0  0  0  0  0  0  0
   18.1379   56.7519   25.3426 O   0  0  0  0  0  0  0  0  0  0  0  0
  1  2  2  0
  2  3  1  0
  1  4  1  0
  3  5  2  0
  3  6  1  0
  4  7  1  0
  5  8  1  0
  8  9  1  0
  7 10  2  0
  1 11  1  0
 10 11  1  0
  4 12  2  0
  5 12  1  0
  6 13  1  0
  9 13  1  0
  9 14  1  0
 10 15  1  0
 15 16  2  3
 14 17  1  0
 16 18  1  0
 17 19  1  0
 18 20  2  0
 18 21  1  0
M  END
>  <ID>  (1) 
conformer_0

$$$$
