
     RDKit          3D

 10 10  0  0  0  0  0  0  0  0999 V2000
   24.7345   46.3780   18.1963 C   0  0  0  0  0  0  0  0  0  0  0  0
   23.9497   47.4608   18.6596 C   0  0  0  0  0  0  0  0  0  0  0  0
   22.7393   47.3611   19.2194 C   0  0  0  0  0  0  0  0  0  0  0  0
   22.0128   48.4493   19.6788 C   0  0  0  0  0  0  0  0  0  0  0  0
   24.4145   48.7775   18.3768 C   0  0  0  0  0  0  0  0  0  0  0  0
   20.7172   48.2625   20.3473 C   0  0  0  0  0  0  0  0  0  0  0  0
   25.7155   48.8928   17.8139 C   0  0  0  0  0  0  0  0  0  0  0  0
   22.5056   49.7677   19.4500 C   0  0  0  0  0  0  0  0  0  0  0  0
   23.7594   49.8751   18.9229 C   0  0  0  0  0  0  0  0  0  0  0  0
   19.6927   47.9981   19.3864 C   0  0  0  0  0  0  0  0  0  0  0  0
  1  2  1  0
  2  3  1  0
  3  4  2  0
  2  5  2  0
  4  6  1  0
  5  7  1  0
  4  8  1  0
  5  9  1  0
  8  9  2  0
  6 10  1  0
M  END
>  <ID>  (1) 
conformer_0

$$$$
