
     RDKit          3D

 24 26  0  0  0  0  0  0  0  0999 V2000
   19.7960   51.8630   20.8891 C   0  0  0  0  0  0  0  0  0  0  0  0
   19.7719   51.0619   20.0608 C   0  0  0  0  0  0  0  0  0  0  0  0
   20.5454   49.8834   20.1162 C   0  0  0  0  0  0  0  0  0  0  0  0
   20.7515   52.0329   21.8538 C   0  0  0  0  0  0  0  0  0  0  0  0
   21.6930   49.9621   21.0252 C   0  0  0  0  0  0  0  0  0  0  0  0
   20.5092   48.8616   19.0780 C   0  0  0  0  0  0  0  0  0  0  0  0
   18.7761   53.0635   20.8981 C   0  0  0  0  0  0  0  0  0  0  0  0
   18.0791   53.3044   20.0267 O   0  0  0  0  0  0  0  0  0  0  0  0
   21.7064   48.2277   18.7682 C   0  0  0  0  0  0  0  0  0  0  0  0
   18.6068   53.7772   22.1450 N   0  0  0  0  0  0  0  0  0  0  0  0
   22.5332   47.5542   19.4165 C   0  0  0  0  0  0  0  0  0  0  0  0
   23.8396   47.1420   18.9648 C   0  0  0  0  0  0  0  0  0  0  0  0
   17.6631   54.7918   22.3620 C   0  0  0  0  0  0  0  0  0  0  0  0
   22.1957   48.5589   17.4072 C   0  0  0  0  0  0  0  0  0  0  0  0
   21.7299   50.9600   21.8471 C   0  0  0  0  0  0  0  0  0  0  0  0
   17.6232   55.2209   23.7684 C   0  0  0  0  0  0  0  0  0  0  0  0
   16.5914   54.9608   24.4854 C   0  0  0  0  0  0  0  0  0  0  0  0
   17.6954   56.6643   24.1973 C   0  0  0  0  0  0  0  0  0  0  0  0
   16.3827   55.9240   25.3404 N   0  0  0  0  0  0  0  0  0  0  0  0
   24.2532   47.4091   17.7088 C   0  0  0  0  0  0  0  0  0  0  0  0
   25.5012   46.9705   17.2615 O   0  0  0  0  0  0  0  0  0  0  0  0
   17.0408   56.9466   25.2107 N   0  0  0  0  0  0  0  0  0  0  0  0
   16.8553   58.1081   25.8493 O   0  0  0  0  0  0  0  0  0  0  0  0
   23.5421   48.1166   17.0299 C   0  0  0  0  0  0  0  0  0  0  0  0
  1  2  2  0
  2  3  1  0
  1  4  1  0
  3  5  2  0
  3  6  1  0
  1  7  1  0
  7  8  2  0
  6  9  1  0
  7 10  1  0
  9 11  1  0
 11 12  2  0
 10 13  1  0
  9 14  2  0
  4 15  2  0
  5 15  1  0
 13 16  1  0
 16 17  1  0
 16 18  1  0
 17 19  1  0
 12 20  1  0
 20 21  1  0
 18 22  1  0
 19 22  1  0
 22 23  1  0
 14 24  1  0
 20 24  2  0
M  END
>  <ID>  (1) 
conformer_0

$$$$
