
     RDKit          3D

 26 29  0  0  0  0  0  0  0  0999 V2000
   19.7960   51.8630   20.8891 C   0  0  0  0  0  0  0  0  0  0  0  0
   19.7719   51.0619   20.0608 C   0  0  0  0  0  0  0  0  0  0  0  0
   20.5454   49.8834   20.1162 C   0  0  0  0  0  0  0  0  0  0  0  0
   20.7515   52.0329   21.8538 C   0  0  0  0  0  0  0  0  0  0  0  0
   21.6930   49.9621   21.0252 C   0  0  0  0  0  0  0  0  0  0  0  0
   20.5092   48.8616   19.0780 C   0  0  0  0  0  0  0  0  0  0  0  0
   20.6652   53.1099   22.7321 C   0  0  0  0  0  0  0  0  0  0  0  0
   22.6311   48.8816   20.9688 C   0  0  0  0  0  0  0  0  0  0  0  0
   23.0631   48.4425   19.6784 C   0  0  0  0  0  0  0  0  0  0  0  0
   18.9079   53.0846   20.8230 C   0  0  0  0  0  0  0  0  0  0  0  0
   21.7048   51.0010   21.9154 C   0  0  0  0  0  0  0  0  0  0  0  0
   19.8825   54.1543   22.6682 C   0  0  0  0  0  0  0  0  0  0  0  0
   18.9432   54.1567   21.6896 C   0  0  0  0  0  0  0  0  0  0  0  0
   21.8379   48.1336   18.8868 C   0  0  0  0  0  0  0  0  0  0  0  0
   24.1350   47.6001   19.4412 C   0  0  0  0  0  0  0  0  0  0  0  0
   18.0059   55.1110   21.7004 O   0  0  0  0  0  0  0  0  0  0  0  0
   22.0945   47.2973   17.6843 C   0  0  0  0  0  0  0  0  0  0  0  0
   17.9244   55.8974   22.7554 C   0  0  0  0  0  0  0  0  0  0  0  0
   16.5770   56.0211   23.2384 C   0  0  0  0  0  0  0  0  0  0  0  0
   18.7305   56.5090   23.0656 O   0  0  0  0  0  0  0  0  0  0  0  0
   23.1855   46.7549   17.4597 C   0  0  0  0  0  0  0  0  0  0  0  0
   24.2755   46.8549   18.3541 C   0  0  0  0  0  0  0  0  0  0  0  0
   16.6486   56.1220   24.7305 C   0  0  0  0  0  0  0  0  0  0  0  0
   16.5106   57.3359   25.2683 C   0  0  0  0  0  0  0  0  0  0  0  0
   25.7205   46.1712   18.0466 C   0  0  0  0  0  0  0  0  0  0  0  0
   16.8559   57.4128   26.6194 C   0  0  0  0  0  0  0  0  0  0  0  0
  1  2  2  0
  2  3  1  0
  1  4  1  0
  3  5  2  0
  3  6  1  0
  4  7  1  0
  5  8  1  0
  8  9  1  0
  1 10  1  0
  4 11  2  0
  5 11  1  0
  7 12  2  0
 10 13  2  0
 12 13  1  0
  6 14  1  0
  9 14  2  0
  9 15  1  0
 13 16  1  0
 14 17  1  0
 16 18  1  0
 18 19  1  0
 18 20  2  0
 17 21  2  0
 15 22  2  0
 21 22  1  0
 19 23  1  0
 23 24  1  0
 22 25  1  0
 24 26  2  0
M  END
>  <ID>  (1) 
conformer_0

$$$$
