
     RDKit          3D

 22 23  0  0  0  0  0  0  0  0999 V2000
   19.7960   51.8630   20.8891 C   0  0  0  0  0  0  0  0  0  0  0  0
   19.7719   51.0619   20.0608 C   0  0  0  0  0  0  0  0  0  0  0  0
   20.5454   49.8834   20.1162 C   0  0  0  0  0  0  0  0  0  0  0  0
   20.7515   52.0329   21.8538 C   0  0  0  0  0  0  0  0  0  0  0  0
   21.6930   49.9621   21.0252 C   0  0  0  0  0  0  0  0  0  0  0  0
   20.5092   48.8616   19.0780 C   0  0  0  0  0  0  0  0  0  0  0  0
   18.7761   53.0635   20.8981 C   0  0  0  0  0  0  0  0  0  0  0  0
   18.0791   53.3044   20.0267 O   0  0  0  0  0  0  0  0  0  0  0  0
   21.7064   48.2277   18.7682 C   0  0  0  0  0  0  0  0  0  0  0  0
   18.6068   53.7772   22.1450 N   0  0  0  0  0  0  0  0  0  0  0  0
   22.5332   47.5542   19.4165 C   0  0  0  0  0  0  0  0  0  0  0  0
   23.8396   47.1420   18.9648 C   0  0  0  0  0  0  0  0  0  0  0  0
   17.6631   54.7918   22.3620 C   0  0  0  0  0  0  0  0  0  0  0  0
   22.1957   48.5589   17.4072 C   0  0  0  0  0  0  0  0  0  0  0  0
   17.5447   55.2078   23.7197 C   0  0  0  0  0  0  0  0  0  0  0  0
   24.2882   47.5615   17.7112 C   0  0  0  0  0  0  0  0  0  0  0  0
   23.5132   48.2065   16.9981 C   0  0  0  0  0  0  0  0  0  0  0  0
   16.9076   56.3540   24.0164 C   0  0  0  0  0  0  0  0  0  0  0  0
   16.7134   56.8386   25.3339 C   0  0  0  0  0  0  0  0  0  0  0  0
   16.7324   55.9907   26.3987 O   0  0  0  0  0  0  0  0  0  0  0  0
   21.7094   50.9308   21.8257 C   0  0  0  0  0  0  0  0  0  0  0  0
   16.5506   58.1181   25.6303 O   0  0  0  0  0  0  0  0  0  0  0  0
  1  2  2  0
  2  3  1  0
  1  4  1  0
  3  5  2  0
  3  6  1  0
  1  7  1  0
  7  8  2  0
  6  9  1  0
  7 10  1  0
  9 11  1  0
 11 12  2  0
 10 13  1  0
  9 14  2  0
 13 15  1  0
 12 16  1  0
 14 17  1  0
 16 17  2  0
 15 18  2  3
 18 19  1  0
 19 20  2  0
  4 21  2  0
  5 21  1  0
 19 22  1  0
M  END
>  <ID>  (1) 
conformer_0

$$$$
