
     RDKit          3D

 23 24  0  0  0  0  0  0  0  0999 V2000
   19.7960   51.8630   20.8891 C   0  0  0  0  0  0  0  0  0  0  0  0
   19.7719   51.0619   20.0608 C   0  0  0  0  0  0  0  0  0  0  0  0
   20.5454   49.8834   20.1162 C   0  0  0  0  0  0  0  0  0  0  0  0
   20.7515   52.0329   21.8538 C   0  0  0  0  0  0  0  0  0  0  0  0
   21.6930   49.9621   21.0252 C   0  0  0  0  0  0  0  0  0  0  0  0
   20.5092   48.8616   19.0780 C   0  0  0  0  0  0  0  0  0  0  0  0
   18.7761   53.0635   20.8981 C   0  0  0  0  0  0  0  0  0  0  0  0
   18.0791   53.3044   20.0267 O   0  0  0  0  0  0  0  0  0  0  0  0
   21.7064   48.2277   18.7682 C   0  0  0  0  0  0  0  0  0  0  0  0
   18.6068   53.7772   22.1450 N   0  0  0  0  0  0  0  0  0  0  0  0
   22.5332   47.5542   19.4165 C   0  0  0  0  0  0  0  0  0  0  0  0
   23.8396   47.1420   18.9648 C   0  0  0  0  0  0  0  0  0  0  0  0
   17.6631   54.7918   22.3620 C   0  0  0  0  0  0  0  0  0  0  0  0
   22.1957   48.5589   17.4072 C   0  0  0  0  0  0  0  0  0  0  0  0
   16.8200   54.6043   23.4659 C   0  0  0  0  0  0  0  0  0  0  0  0
   16.4231   55.7932   24.1057 C   0  0  0  0  0  0  0  0  0  0  0  0
   21.7256   50.9974   21.8433 C   0  0  0  0  0  0  0  0  0  0  0  0
   24.2342   47.5378   17.6339 C   0  0  0  0  0  0  0  0  0  0  0  0
   16.6888   55.9207   25.5121 C   0  0  0  0  0  0  0  0  0  0  0  0
   16.5001   57.2120   26.0602 C   0  0  0  0  0  0  0  0  0  0  0  0
   23.4988   48.1657   17.0135 C   0  0  0  0  0  0  0  0  0  0  0  0
   17.2062   57.6353   27.0960 O   0  0  0  0  0  0  0  0  0  0  0  0
   15.7380   58.0694   25.4963 O   0  0  0  0  0  0  0  0  0  0  0  0
  1  2  2  0
  2  3  1  0
  1  4  1  0
  3  5  2  0
  3  6  1  0
  1  7  1  0
  7  8  2  0
  6  9  1  0
  7 10  1  0
  9 11  1  0
 11 12  2  0
 10 13  1  0
  9 14  2  0
 13 15  1  0
 15 16  1  0
  4 17  2  0
  5 17  1  0
 12 18  1  0
 16 19  1  0
 19 20  1  0
 14 21  1  0
 18 21  2  0
 20 22  2  0
 20 23  1  0
M  END
>  <ID>  (1) 
conformer_0

$$$$
