
     RDKit          3D

 10 11  0  0  0  0  0  0  0  0999 V2000
   21.7036   48.0770   19.9153 C   0  0  0  0  0  0  0  0  0  0  0  0
   22.7522   47.8929   19.1197 C   0  0  0  0  0  0  0  0  0  0  0  0
   22.7709   47.8618   17.8645 C   0  0  0  0  0  0  0  0  0  0  0  0
   21.5918   48.1947   17.2671 C   0  0  0  0  0  0  0  0  0  0  0  0
   24.0647   47.4041   19.8443 C   0  0  0  0  0  0  0  0  0  0  0  0
   24.9883   46.8549   18.8270 C   0  0  0  0  0  0  0  0  0  0  0  0
   24.6048   47.0513   17.4662 C   0  0  0  0  0  0  0  0  0  0  0  0
   20.4831   48.6798   18.0112 C   0  0  0  0  0  0  0  0  0  0  0  0
   23.7941   47.6549   17.0348 C   0  0  0  0  0  0  0  0  0  0  0  0
   20.5193   48.5355   19.4448 C   0  0  0  0  0  0  0  0  0  0  0  0
  1  2  1  0
  2  3  2  0
  3  4  1  0
  2  5  1  0
  5  6  2  0
  6  7  1  0
  4  8  2  0
  3  9  1  0
  7  9  2  0
  1 10  2  0
  8 10  1  0
M  END
>  <ID>  (1) 
conformer_0

$$$$
