
     RDKit          3D

 24 27  0  0  0  0  0  0  0  0999 V2000
   19.7960   51.8630   20.8891 C   0  0  0  0  0  0  0  0  0  0  0  0
   19.7719   51.0619   20.0608 C   0  0  0  0  0  0  0  0  0  0  0  0
   20.5454   49.8834   20.1162 C   0  0  0  0  0  0  0  0  0  0  0  0
   20.7515   52.0329   21.8538 C   0  0  0  0  0  0  0  0  0  0  0  0
   21.6930   49.9621   21.0252 C   0  0  0  0  0  0  0  0  0  0  0  0
   20.5092   48.8616   19.0780 C   0  0  0  0  0  0  0  0  0  0  0  0
   20.6652   53.1099   22.7321 C   0  0  0  0  0  0  0  0  0  0  0  0
   22.6311   48.8816   20.9688 C   0  0  0  0  0  0  0  0  0  0  0  0
   23.0631   48.4425   19.6784 C   0  0  0  0  0  0  0  0  0  0  0  0
   19.5368   53.9483   22.3303 C   0  0  0  0  0  0  0  0  0  0  0  0
   18.5545   53.5290   21.2435 C   0  0  0  0  0  0  0  0  0  0  0  0
   24.0204   47.3354   19.6195 C   0  0  0  0  0  0  0  0  0  0  0  0
   24.5954   47.0041   18.2683 C   0  0  0  0  0  0  0  0  0  0  0  0
   24.9387   47.9587   17.6348 O   0  0  0  0  0  0  0  0  0  0  0  0
   21.7057   50.9944   21.9149 C   0  0  0  0  0  0  0  0  0  0  0  0
   19.1073   55.1584   22.9812 C   0  0  0  0  0  0  0  0  0  0  0  0
   17.8039   55.1042   23.6277 C   0  0  0  0  0  0  0  0  0  0  0  0
   24.8269   45.8086   17.9694 O   0  0  0  0  0  0  0  0  0  0  0  0
   17.4211   56.2149   24.4377 C   0  0  0  0  0  0  0  0  0  0  0  0
   17.9896   56.4446   25.6428 C   0  0  0  0  0  0  0  0  0  0  0  0
   17.6556   57.5667   26.4523 C   0  0  0  0  0  0  0  0  0  0  0  0
   16.3685   57.9946   25.8250 N   0  0  0  0  0  0  0  0  0  0  0  0
   21.5934   47.8445   19.0696 C   0  0  0  0  0  0  0  0  0  0  0  0
   16.2854   57.1225   24.7183 C   0  0  0  0  0  0  0  0  0  0  0  0
  1  2  2  0
  2  3  1  0
  1  4  1  0
  3  5  2  0
  3  6  1  0
  4  7  1  0
  5  8  1  0
  8  9  1  0
  7 10  2  0
  1 11  1  0
 10 11  1  0
  9 12  1  0
 12 13  1  0
 13 14  2  0
  4 15  2  0
  5 15  1  0
 10 16  1  0
 16 17  1  0
 13 18  1  0
 17 19  1  0
 19 20  1  0
 20 21  2  0
 21 22  1  0
  6 23  1  0
  9 23  1  0
 19 24  1  0
 22 24  2  0
M  END
>  <ID>  (1) 
conformer_0

$$$$
