
     RDKit          3D

 25 28  0  0  0  0  0  0  0  0999 V2000
   19.7960   51.8630   20.8891 C   0  0  0  0  0  0  0  0  0  0  0  0
   19.7719   51.0619   20.0608 C   0  0  0  0  0  0  0  0  0  0  0  0
   20.5454   49.8834   20.1162 C   0  0  0  0  0  0  0  0  0  0  0  0
   20.7515   52.0329   21.8538 C   0  0  0  0  0  0  0  0  0  0  0  0
   21.6930   49.9621   21.0252 C   0  0  0  0  0  0  0  0  0  0  0  0
   20.5092   48.8616   19.0780 C   0  0  0  0  0  0  0  0  0  0  0  0
   20.6652   53.1099   22.7321 C   0  0  0  0  0  0  0  0  0  0  0  0
   22.6311   48.8816   20.9688 C   0  0  0  0  0  0  0  0  0  0  0  0
   18.8523   53.0450   20.8045 C   0  0  0  0  0  0  0  0  0  0  0  0
   22.6198   48.0178   19.8985 C   0  0  0  0  0  0  0  0  0  0  0  0
   19.6083   54.0662   22.4628 C   0  0  0  0  0  0  0  0  0  0  0  0
   23.5950   46.9462   19.7182 C   0  0  0  0  0  0  0  0  0  0  0  0
   17.8242   52.8127   19.7942 O   0  0  0  0  0  0  0  0  0  0  0  0
   24.4936   47.0413   18.5989 C   0  0  0  0  0  0  0  0  0  0  0  0
   19.6444   55.2573   23.4475 C   0  0  0  0  0  0  0  0  0  0  0  0
   18.7289   54.0101   21.5799 C   0  0  0  0  0  0  0  0  0  0  0  0
   18.3873   55.7896   23.8151 C   0  0  0  0  0  0  0  0  0  0  0  0
   21.4482   47.9527   19.0092 C   0  0  0  0  0  0  0  0  0  0  0  0
   17.3099   55.5890   23.3422 C   0  0  0  0  0  0  0  0  0  0  0  0
   16.3315   56.2593   24.0763 N   0  0  0  0  0  0  0  0  0  0  0  0
   25.0850   48.1223   18.2482 O   0  0  0  0  0  0  0  0  0  0  0  0
   21.6754   51.0614   21.8681 C   0  0  0  0  0  0  0  0  0  0  0  0
   16.4810   56.9784   25.0128 C   0  0  0  0  0  0  0  0  0  0  0  0
   24.9260   45.7875   18.2679 O   0  0  0  0  0  0  0  0  0  0  0  0
   18.0861   56.7494   25.1711 C   0  0  0  0  0  0  0  0  0  0  0  0
  1  2  2  0
  2  3  1  0
  1  4  1  0
  3  5  2  0
  3  6  1  0
  4  7  1  0
  5  8  1  0
  1  9  1  0
  8 10  2  0
  7 11  2  0
 10 12  1  0
  9 13  1  0
 12 14  1  0
 11 15  1  0
  9 16  2  0
 11 16  1  0
 15 17  1  0
  6 18  2  0
 10 18  1  0
 17 19  1  0
 19 20  2  0
 14 21  2  0
  4 22  2  0
  5 22  1  0
 20 23  1  0
 14 24  1  0
 17 25  2  0
 23 25  2  0
M  END
>  <ID>  (1) 
conformer_0

$$$$
