
     RDKit          3D

 24 28  0  0  0  0  0  0  0  0999 V2000
   19.7960   51.8630   20.8891 C   0  0  0  0  0  0  0  0  0  0  0  0
   19.7719   51.0619   20.0608 C   0  0  0  0  0  0  0  0  0  0  0  0
   20.5454   49.8834   20.1162 C   0  0  0  0  0  0  0  0  0  0  0  0
   20.7515   52.0329   21.8538 C   0  0  0  0  0  0  0  0  0  0  0  0
   21.6930   49.9621   21.0252 C   0  0  0  0  0  0  0  0  0  0  0  0
   20.5092   48.8616   19.0780 C   0  0  0  0  0  0  0  0  0  0  0  0
   20.6652   53.1099   22.7321 C   0  0  0  0  0  0  0  0  0  0  0  0
   22.6311   48.8816   20.9688 C   0  0  0  0  0  0  0  0  0  0  0  0
   23.0631   48.4425   19.6784 C   0  0  0  0  0  0  0  0  0  0  0  0
   18.9079   53.0846   20.8230 C   0  0  0  0  0  0  0  0  0  0  0  0
   24.0615   47.3736   19.5930 C   0  0  0  0  0  0  0  0  0  0  0  0
   21.7224   50.9903   21.9436 C   0  0  0  0  0  0  0  0  0  0  0  0
   19.8853   54.1590   22.6560 C   0  0  0  0  0  0  0  0  0  0  0  0
   19.8897   55.2874   23.5534 C   0  0  0  0  0  0  0  0  0  0  0  0
   23.4943   49.4587   18.7145 C   0  0  0  0  0  0  0  0  0  0  0  0
   18.9375   54.0583   21.6251 C   0  0  0  0  0  0  0  0  0  0  0  0
   21.5860   47.7773   19.2403 C   0  0  0  0  0  0  0  0  0  0  0  0
   18.5702   55.6084   24.0241 N   0  0  0  0  0  0  0  0  0  0  0  0
   18.5099   56.6813   25.0591 C   0  0  0  0  0  0  0  0  0  0  0  0
   17.3405   55.5388   23.6991 N   0  0  0  0  0  0  0  0  0  0  0  0
   25.0388   47.5319   18.6014 C   0  0  0  0  0  0  0  0  0  0  0  0
   24.8892   49.3846   18.9010 C   0  0  0  0  0  0  0  0  0  0  0  0
   16.4321   56.1089   24.2955 C   0  0  0  0  0  0  0  0  0  0  0  0
   17.1542   56.8733   25.3193 N   0  0  0  0  0  0  0  0  0  0  0  0
  1  2  2  0
  2  3  1  0
  1  4  1  0
  3  5  2  0
  3  6  1  0
  4  7  1  0
  5  8  1  0
  8  9  1  0
  1 10  1  0
  9 11  1  0
  4 12  2  0
  5 12  1  0
  7 13  2  0
 13 14  1  0
  9 15  1  0
 10 16  2  0
 13 16  1  0
  6 17  1  0
  9 17  1  0
 14 18  1  0
 18 19  1  0
 18 20  1  0
 11 21  1  0
 15 22  1  0
 21 22  1  0
 20 23  2  0
 19 24  2  0
 23 24  1  0
M  END
>  <ID>  (1) 
conformer_0

$$$$
