
     RDKit          3D

 12 13  0  0  0  0  0  0  0  0999 V2000
   18.0812   55.4199   23.5008 C   0  0  0  0  0  0  0  0  0  0  0  0
   17.6804   56.0997   24.4127 C   0  0  0  0  0  0  0  0  0  0  0  0
   17.5751   54.3808   22.9201 C   0  0  0  0  0  0  0  0  0  0  0  0
   16.2948   55.9181   24.8430 C   0  0  0  0  0  0  0  0  0  0  0  0
   16.2524   54.1197   23.2423 C   0  0  0  0  0  0  0  0  0  0  0  0
   15.6447   54.8487   24.2153 C   0  0  0  0  0  0  0  0  0  0  0  0
   17.8378   57.2517   25.2556 N   0  0  0  0  0  0  0  0  0  0  0  0
   18.3554   53.7502   21.8847 C   0  0  0  0  0  0  0  0  0  0  0  0
   15.7268   56.6715   25.8281 C   0  0  0  0  0  0  0  0  0  0  0  0
   16.9149   57.5344   26.1218 C   0  0  0  0  0  0  0  0  0  0  0  0
   17.8729   52.8274   21.1659 O   0  0  0  0  0  0  0  0  0  0  0  0
   19.6366   53.9490   21.7093 O   0  0  0  0  0  0  0  0  0  0  0  0
  1  2  2  0
  1  3  1  0
  2  4  1  0
  3  5  2  0
  4  6  2  0
  5  6  1  0
  2  7  1  0
  3  8  1  0
  4  9  1  0
  7 10  2  0
  9 10  2  0
  8 11  2  0
  8 12  1  0
M  END
>  <ID>  (1) 
conformer_0

$$$$
