
     RDKit          3D

 26 30  0  0  0  0  0  0  0  0999 V2000
   19.7960   51.8630   20.8891 C   0  0  0  0  0  0  0  0  0  0  0  0
   19.7719   51.0619   20.0608 C   0  0  0  0  0  0  0  0  0  0  0  0
   20.5454   49.8834   20.1162 C   0  0  0  0  0  0  0  0  0  0  0  0
   20.7515   52.0329   21.8538 C   0  0  0  0  0  0  0  0  0  0  0  0
   21.6930   49.9621   21.0252 C   0  0  0  0  0  0  0  0  0  0  0  0
   20.5092   48.8616   19.0780 C   0  0  0  0  0  0  0  0  0  0  0  0
   20.6652   53.1099   22.7321 C   0  0  0  0  0  0  0  0  0  0  0  0
   21.6895   48.2177   18.7234 C   0  0  0  0  0  0  0  0  0  0  0  0
   21.6807   51.0112   21.9026 C   0  0  0  0  0  0  0  0  0  0  0  0
   22.6236   48.5927   17.9937 C   0  0  0  0  0  0  0  0  0  0  0  0
   23.8936   47.8634   17.8408 C   0  0  0  0  0  0  0  0  0  0  0  0
   19.8480   54.1626   22.6916 C   0  0  0  0  0  0  0  0  0  0  0  0
   19.8694   55.2253   23.5706 C   0  0  0  0  0  0  0  0  0  0  0  0
   18.7679   54.3221   21.6913 C   0  0  0  0  0  0  0  0  0  0  0  0
   18.6895   55.8490   23.9750 C   0  0  0  0  0  0  0  0  0  0  0  0
   24.0796   46.6317   18.5599 C   0  0  0  0  0  0  0  0  0  0  0  0
   22.0419   47.0037   19.6529 C   0  0  0  0  0  0  0  0  0  0  0  0
   17.6716   55.9988   22.9984 C   0  0  0  0  0  0  0  0  0  0  0  0
   23.1953   46.3385   19.5210 C   0  0  0  0  0  0  0  0  0  0  0  0
   17.7266   55.1787   21.8808 C   0  0  0  0  0  0  0  0  0  0  0  0
   18.6977   56.7827   25.0525 C   0  0  0  0  0  0  0  0  0  0  0  0
   25.4663   46.2738   18.3981 O   0  0  0  0  0  0  0  0  0  0  0  0
   17.5538   57.4836   25.3881 C   0  0  0  0  0  0  0  0  0  0  0  0
   16.3804   57.2932   24.5725 C   0  0  0  0  0  0  0  0  0  0  0  0
   18.7710   53.0702   20.7557 C   0  0  0  0  0  0  0  0  0  0  0  0
   16.4837   56.6202   23.4259 C   0  0  0  0  0  0  0  0  0  0  0  0
  1  2  2  0
  2  3  1  0
  1  4  1  0
  3  5  2  0
  3  6  1  0
  4  7  1  0
  6  8  1  0
  4  9  2  0
  5  9  1  0
  8 10  2  0
 10 11  1  0
  7 12  2  0
 12 13  1  0
 12 14  1  0
 13 15  2  0
 11 16  2  0
  8 17  1  0
 15 18  1  0
 16 19  1  0
 17 19  2  0
 14 20  2  0
 18 20  1  0
 15 21  1  0
 16 22  1  0
 21 23  2  0
 23 24  1  0
  1 25  1  0
 14 25  1  0
 18 26  1  0
 24 26  2  0
M  END
>  <ID>  (1) 
conformer_0

$$$$
