
     RDKit          3D

 26 30  0  0  0  0  0  0  0  0999 V2000
   19.7960   51.8630   20.8891 C   0  0  0  0  0  0  0  0  0  0  0  0
   19.7719   51.0619   20.0608 C   0  0  0  0  0  0  0  0  0  0  0  0
   20.6248   49.9228   20.1163 C   0  0  0  0  0  0  0  0  0  0  0  0
   20.7547   52.0639   21.8473 C   0  0  0  0  0  0  0  0  0  0  0  0
   18.7326   52.9841   20.8798 C   0  0  0  0  0  0  0  0  0  0  0  0
   21.6439   50.8662   21.7078 O   0  0  0  0  0  0  0  0  0  0  0  0
   17.8919   53.1697   19.9397 O   0  0  0  0  0  0  0  0  0  0  0  0
   18.5333   53.7082   22.0774 N   0  0  0  0  0  0  0  0  0  0  0  0
   20.6230   48.8309   19.1105 C   0  0  0  0  0  0  0  0  0  0  0  0
   17.6517   54.7451   22.2728 C   0  0  0  0  0  0  0  0  0  0  0  0
   16.7987   54.6284   23.3689 C   0  0  0  0  0  0  0  0  0  0  0  0
   18.4561   55.9944   22.5130 C   0  0  0  0  0  0  0  0  0  0  0  0
   17.7791   56.6015   23.6501 C   0  0  0  0  0  0  0  0  0  0  0  0
   21.6429   49.9621   20.8925 C   0  0  0  0  0  0  0  0  0  0  0  0
   21.6781   47.9714   19.2107 C   0  0  0  0  0  0  0  0  0  0  0  0
   22.7473   49.0691   20.7447 C   0  0  0  0  0  0  0  0  0  0  0  0
   16.9264   55.7807   24.1285 C   0  0  0  0  0  0  0  0  0  0  0  0
   16.2303   56.0271   25.3104 C   0  0  0  0  0  0  0  0  0  0  0  0
   22.7117   48.0676   19.9156 C   0  0  0  0  0  0  0  0  0  0  0  0
   23.7116   47.0937   19.7680 C   0  0  0  0  0  0  0  0  0  0  0  0
   18.1561   57.6762   24.3860 C   0  0  0  0  0  0  0  0  0  0  0  0
   23.6374   46.0434   18.8345 C   0  0  0  0  0  0  0  0  0  0  0  0
   17.6474   57.9760   25.5605 N   0  0  0  0  0  0  0  0  0  0  0  0
   22.6315   46.0605   17.9880 C   0  0  0  0  0  0  0  0  0  0  0  0
   21.6156   46.9716   18.0778 C   0  0  0  0  0  0  0  0  0  0  0  0
   16.6899   57.1615   26.0955 C   0  0  0  0  0  0  0  0  0  0  0  0
  1  2  1  0
  2  3  2  0
  1  4  2  0
  1  5  1  0
  4  6  1  0
  5  7  2  0
  5  8  1  0
  3  9  1  0
  8 10  1  0
 10 11  1  0
 10 12  1  0
 12 13  1  0
  3 14  1  0
  6 14  1  0
  9 15  2  0
 14 16  2  0
 11 17  1  0
 13 17  1  0
 17 18  2  0
 15 19  1  0
 16 19  1  0
 19 20  2  0
 13 21  2  0
 20 22  1  0
 21 23  1  0
 22 24  2  0
 15 25  1  0
 24 25  1  0
 18 26  1  0
 23 26  2  0
M  END
>  <ID>  (1) 
conformer_0

$$$$
