
     RDKit          3D

 26 29  0  0  0  0  0  0  0  0999 V2000
   17.5388   54.4423   22.0632 C   0  0  0  0  0  0  0  0  0  0  0  0
   17.3849   55.4155   22.8218 C   0  0  0  0  0  0  0  0  0  0  0  0
   18.2519   55.9117   23.6295 C   0  0  0  0  0  0  0  0  0  0  0  0
   18.9175   53.8852   21.9577 C   0  0  0  0  0  0  0  0  0  0  0  0
   19.8075   54.5532   22.7170 C   0  0  0  0  0  0  0  0  0  0  0  0
   17.9254   57.0727   24.5742 O   0  0  0  0  0  0  0  0  0  0  0  0
   19.2949   52.7430   20.9804 C   0  0  0  0  0  0  0  0  0  0  0  0
   19.6014   55.5671   23.5608 C   0  0  0  0  0  0  0  0  0  0  0  0
   18.8760   52.4579   19.9433 C   0  0  0  0  0  0  0  0  0  0  0  0
   20.3559   51.9689   21.3635 C   0  0  0  0  0  0  0  0  0  0  0  0
   17.0906   56.7198   25.6090 C   0  0  0  0  0  0  0  0  0  0  0  0
   20.4552   50.9852   20.3890 C   0  0  0  0  0  0  0  0  0  0  0  0
   17.5267   56.9309   26.8053 F   0  0  0  0  0  0  0  0  0  0  0  0
   21.3143   49.9315   20.2000 C   0  0  0  0  0  0  0  0  0  0  0  0
   19.5168   51.3143   19.3910 N   0  0  0  0  0  0  0  0  0  0  0  0
   21.1034   48.7577   19.8560 C   0  0  0  0  0  0  0  0  0  0  0  0
   22.6385   50.2313   19.8628 C   0  0  0  0  0  0  0  0  0  0  0  0
   23.4144   49.0651   19.6975 C   0  0  0  0  0  0  0  0  0  0  0  0
   21.7200   47.6427   19.6156 C   0  0  0  0  0  0  0  0  0  0  0  0
   16.1175   57.7968   25.4094 F   0  0  0  0  0  0  0  0  0  0  0  0
   24.9251   49.3450   19.4067 C   0  0  0  0  0  0  0  0  0  0  0  0
   25.5449   48.2798   18.8223 C   0  0  0  0  0  0  0  0  0  0  0  0
   23.0665   47.8765   19.4186 C   0  0  0  0  0  0  0  0  0  0  0  0
   24.8002   46.9952   18.6502 C   0  0  0  0  0  0  0  0  0  0  0  0
   23.6355   46.7845   18.9509 C   0  0  0  0  0  0  0  0  0  0  0  0
   16.4502   55.6682   25.5822 F   0  0  0  0  0  0  0  0  0  0  0  0
  1  2  1  0
  2  3  2  0
  1  4  2  0
  4  5  1  0
  3  6  1  0
  4  7  1  0
  3  8  1  0
  5  8  2  0
  7  9  2  0
  7 10  1  0
  6 11  1  0
 10 12  2  0
 11 13  1  0
 12 14  1  0
  9 15  1  0
 12 15  1  0
 14 16  1  0
 14 17  2  0
 17 18  1  0
 16 19  2  0
 11 20  1  0
 18 21  1  0
 21 22  2  0
 18 23  2  0
 19 23  1  0
 22 24  1  0
 23 25  1  0
 24 25  2  0
 11 26  1  0
M  END
>  <ID>  (1) 
conformer_0

$$$$
