
     RDKit          3D

 26 29  0  0  0  0  0  0  0  0999 V2000
   19.7960   51.8630   20.8891 C   0  0  0  0  0  0  0  0  0  0  0  0
   19.7719   51.0619   20.0608 C   0  0  0  0  0  0  0  0  0  0  0  0
   20.5454   49.8834   20.1162 C   0  0  0  0  0  0  0  0  0  0  0  0
   20.7515   52.0329   21.8538 C   0  0  0  0  0  0  0  0  0  0  0  0
   21.6930   49.9621   21.0252 C   0  0  0  0  0  0  0  0  0  0  0  0
   20.5092   48.8616   19.0780 C   0  0  0  0  0  0  0  0  0  0  0  0
   20.6652   53.1099   22.7321 C   0  0  0  0  0  0  0  0  0  0  0  0
   22.6311   48.8816   20.9688 C   0  0  0  0  0  0  0  0  0  0  0  0
   23.0631   48.4425   19.6784 C   0  0  0  0  0  0  0  0  0  0  0  0
   18.9079   53.0846   20.8230 C   0  0  0  0  0  0  0  0  0  0  0  0
   24.0615   47.3736   19.5930 C   0  0  0  0  0  0  0  0  0  0  0  0
   21.7224   50.9903   21.9436 C   0  0  0  0  0  0  0  0  0  0  0  0
   19.8853   54.1590   22.6560 C   0  0  0  0  0  0  0  0  0  0  0  0
   19.8897   55.2874   23.5534 C   0  0  0  0  0  0  0  0  0  0  0  0
   18.9077   54.1407   21.6731 C   0  0  0  0  0  0  0  0  0  0  0  0
   18.5804   55.6252   24.0462 C   0  0  0  0  0  0  0  0  0  0  0  0
   17.4562   55.3865   23.5576 N   0  0  0  0  0  0  0  0  0  0  0  0
   24.5988   47.0861   18.2280 C   0  0  0  0  0  0  0  0  0  0  0  0
   18.4923   56.5528   25.1635 N   0  0  0  0  0  0  0  0  0  0  0  0
   23.4185   49.4503   18.6374 C   0  0  0  0  0  0  0  0  0  0  0  0
   17.2771   56.8899   25.4193 C   0  0  0  0  0  0  0  0  0  0  0  0
   16.3782   56.0991   24.3036 C   0  0  0  0  0  0  0  0  0  0  0  0
   16.7347   57.6286   26.4577 C   0  0  0  0  0  0  0  0  0  0  0  0
   21.6068   47.8228   19.2418 C   0  0  0  0  0  0  0  0  0  0  0  0
   24.9276   45.9340   17.9532 O   0  0  0  0  0  0  0  0  0  0  0  0
   25.3793   48.0758   17.8070 O   0  0  0  0  0  0  0  0  0  0  0  0
  1  2  2  0
  2  3  1  0
  1  4  1  0
  3  5  2  0
  3  6  1  0
  4  7  1  0
  5  8  1  0
  8  9  1  0
  1 10  1  0
  9 11  1  0
  4 12  2  0
  5 12  1  0
  7 13  2  0
 13 14  1  0
 10 15  2  0
 13 15  1  0
 14 16  1  0
 16 17  2  0
 11 18  1  0
 16 19  1  0
  9 20  1  0
 19 21  1  0
 17 22  1  0
 21 22  2  0
 21 23  1  0
  6 24  1  0
  9 24  1  0
 18 25  1  0
 18 26  2  0
M  END
>  <ID>  (1) 
conformer_0

$$$$
