
     RDKit          3D

  9 10  0  0  0  0  0  0  0  0999 V2000
   24.2127   47.0596   17.6097 C   0  0  0  0  0  0  0  0  0  0  0  0
   23.3880   47.7116   18.1004 C   0  0  0  0  0  0  0  0  0  0  0  0
   25.4603   46.8212   18.3348 C   0  0  0  0  0  0  0  0  0  0  0  0
   22.1572   48.0971   17.6248 C   0  0  0  0  0  0  0  0  0  0  0  0
   21.0505   48.0854   18.2772 C   0  0  0  0  0  0  0  0  0  0  0  0
   25.1357   46.9334   19.7119 C   0  0  0  0  0  0  0  0  0  0  0  0
   21.0781   47.9706   19.7626 C   0  0  0  0  0  0  0  0  0  0  0  0
   22.3217   47.6713   20.3761 C   0  0  0  0  0  0  0  0  0  0  0  0
   23.4929   47.5016   19.5464 C   0  0  0  0  0  0  0  0  0  0  0  0
  1  2  1  0
  1  3  2  0
  2  4  1  0
  4  5  2  0
  3  6  1  0
  5  7  1  0
  7  8  2  0
  2  9  2  0
  6  9  1  0
  8  9  1  0
M  END
>  <ID>  (1) 
conformer_0

$$$$
