
     RDKit          3D

 25 27  0  0  0  0  0  0  0  0999 V2000
   19.1438   52.9076   21.5700 C   0  0  0  0  0  0  0  0  0  0  0  0
   18.8214   52.1302   20.6485 C   0  0  0  0  0  0  0  0  0  0  0  0
   19.3518   54.2706   21.2427 C   0  0  0  0  0  0  0  0  0  0  0  0
   19.2620   55.2393   22.2692 C   0  0  0  0  0  0  0  0  0  0  0  0
   18.7732   50.6673   20.6982 O   0  0  0  0  0  0  0  0  0  0  0  0
   20.0127   50.0621   20.6296 C   0  0  0  0  0  0  0  0  0  0  0  0
   18.8797   54.5018   19.9905 C   0  0  0  0  0  0  0  0  0  0  0  0
   20.9666   50.3372   19.7360 C   0  0  0  0  0  0  0  0  0  0  0  0
   21.5518   49.3351   19.0558 C   0  0  0  0  0  0  0  0  0  0  0  0
   22.2434   48.2519   19.6710 C   0  0  0  0  0  0  0  0  0  0  0  0
   18.2196   55.5629   23.0561 C   0  0  0  0  0  0  0  0  0  0  0  0
   23.2693   47.4570   19.0438 C   0  0  0  0  0  0  0  0  0  0  0  0
   24.2682   48.0001   18.2396 C   0  0  0  0  0  0  0  0  0  0  0  0
   18.6781   53.6252   18.9305 C   0  0  0  0  0  0  0  0  0  0  0  0
   18.7074   52.3596   19.2561 C   0  0  0  0  0  0  0  0  0  0  0  0
   16.8808   55.0936   22.7428 C   0  0  0  0  0  0  0  0  0  0  0  0
   18.3037   56.4061   24.1171 C   0  0  0  0  0  0  0  0  0  0  0  0
   23.3883   46.1113   19.6135 C   0  0  0  0  0  0  0  0  0  0  0  0
   25.3133   47.2761   18.1304 C   0  0  0  0  0  0  0  0  0  0  0  0
   25.5108   45.9858   18.6873 C   0  0  0  0  0  0  0  0  0  0  0  0
   24.5833   45.4851   19.4618 C   0  0  0  0  0  0  0  0  0  0  0  0
   17.3965   56.7762   24.9913 C   0  0  0  0  0  0  0  0  0  0  0  0
   17.5477   57.6599   26.1835 O   0  0  0  0  0  0  0  0  0  0  0  0
   15.8495   55.5676   23.6436 C   0  0  0  0  0  0  0  0  0  0  0  0
   16.0732   56.3450   24.7543 C   0  0  0  0  0  0  0  0  0  0  0  0
  1  2  2  0
  1  3  1  0
  3  4  1  0
  2  5  1  0
  5  6  1  0
  3  7  2  0
  6  8  1  0
  8  9  2  3
  9 10  1  0
  4 11  1  0
 10 12  1  0
 12 13  1  0
  7 14  1  0
  2 15  1  0
 14 15  2  0
 11 16  2  0
 11 17  1  0
 12 18  2  0
 13 19  2  0
 19 20  1  0
 18 21  1  0
 20 21  2  0
 17 22  2  0
 22 23  1  0
 16 24  1  0
 22 25  1  0
 24 25  2  0
M  END
>  <ID>  (1) 
conformer_0

$$$$
