
     RDKit          3D

  7  7  0  0  0  0  0  0  0  0999 V2000
   24.5891   46.2190   18.4437 C   0  0  0  0  0  0  0  0  0  0  0  0
   23.8992   47.4208   18.7365 C   0  0  0  0  0  0  0  0  0  0  0  0
   24.6258   48.5723   18.6198 C   0  0  0  0  0  0  0  0  0  0  0  0
   22.5920   47.2376   19.3487 C   0  0  0  0  0  0  0  0  0  0  0  0
   23.9979   49.6025   19.3041 C   0  0  0  0  0  0  0  0  0  0  0  0
   22.7119   49.6139   19.7561 C   0  0  0  0  0  0  0  0  0  0  0  0
   21.9344   48.3759   19.7786 C   0  0  0  0  0  0  0  0  0  0  0  0
  1  2  1  0
  2  3  2  0
  2  4  1  0
  3  5  1  0
  5  6  2  0
  4  7  2  0
  6  7  1  0
M  END
>  <ID>  (1) 
conformer_0

$$$$
