
     RDKit          3D

 22 25  0  0  0  0  0  0  0  0999 V2000
   19.7960   51.8630   20.8891 C   0  0  0  0  0  0  0  0  0  0  0  0
   19.7719   51.0619   20.0608 C   0  0  0  0  0  0  0  0  0  0  0  0
   20.5454   49.8834   20.1162 C   0  0  0  0  0  0  0  0  0  0  0  0
   20.7515   52.0329   21.8538 C   0  0  0  0  0  0  0  0  0  0  0  0
   21.6930   49.9621   21.0252 C   0  0  0  0  0  0  0  0  0  0  0  0
   20.5092   48.8616   19.0780 C   0  0  0  0  0  0  0  0  0  0  0  0
   20.6652   53.1099   22.7321 C   0  0  0  0  0  0  0  0  0  0  0  0
   22.6311   48.8816   20.9688 C   0  0  0  0  0  0  0  0  0  0  0  0
   23.0631   48.4425   19.6784 C   0  0  0  0  0  0  0  0  0  0  0  0
   19.5368   53.9483   22.3303 C   0  0  0  0  0  0  0  0  0  0  0  0
   18.5545   53.5290   21.2435 C   0  0  0  0  0  0  0  0  0  0  0  0
   21.7534   48.0640   18.9297 C   0  0  0  0  0  0  0  0  0  0  0  0
   18.9346   55.1545   22.9171 C   0  0  0  0  0  0  0  0  0  0  0  0
   23.9321   47.1575   19.6227 C   0  0  0  0  0  0  0  0  0  0  0  0
   21.7162   51.0261   21.9046 C   0  0  0  0  0  0  0  0  0  0  0  0
   24.1285   49.1302   18.9853 C   0  0  0  0  0  0  0  0  0  0  0  0
   17.7790   55.0956   23.5997 C   0  0  0  0  0  0  0  0  0  0  0  0
   24.7769   48.2697   18.1495 C   0  0  0  0  0  0  0  0  0  0  0  0
   17.3929   56.2648   24.3071 C   0  0  0  0  0  0  0  0  0  0  0  0
   16.3565   56.9268   24.2201 O   0  0  0  0  0  0  0  0  0  0  0  0
   18.1422   56.4907   25.4633 O   0  0  0  0  0  0  0  0  0  0  0  0
   24.5737   46.9696   18.4190 C   0  0  0  0  0  0  0  0  0  0  0  0
  1  2  2  0
  2  3  1  0
  1  4  1  0
  3  5  2  0
  3  6  1  0
  4  7  1  0
  5  8  1  0
  8  9  1  0
  7 10  2  0
  1 11  1  0
 10 11  1  0
  6 12  1  0
  9 12  1  0
 10 13  1  0
  9 14  1  0
  4 15  2  0
  5 15  1  0
  9 16  1  0
 13 17  2  3
 16 18  1  0
 17 19  1  0
 19 20  2  0
 19 21  1  0
 14 22  1  0
 18 22  1  0
M  END
>  <ID>  (1) 
conformer_0

$$$$
