
     RDKit          3D

 23 26  0  0  0  0  0  0  0  0999 V2000
   19.7960   51.8630   20.8891 C   0  0  0  0  0  0  0  0  0  0  0  0
   19.7719   51.0619   20.0608 C   0  0  0  0  0  0  0  0  0  0  0  0
   20.5454   49.8834   20.1162 C   0  0  0  0  0  0  0  0  0  0  0  0
   20.7515   52.0329   21.8538 C   0  0  0  0  0  0  0  0  0  0  0  0
   21.6930   49.9621   21.0252 C   0  0  0  0  0  0  0  0  0  0  0  0
   20.5092   48.8616   19.0780 C   0  0  0  0  0  0  0  0  0  0  0  0
   20.6652   53.1099   22.7321 O   0  0  0  0  0  0  0  0  0  0  0  0
   21.6851   48.2474   18.6779 C   0  0  0  0  0  0  0  0  0  0  0  0
   18.8176   53.0800   20.9462 O   0  0  0  0  0  0  0  0  0  0  0  0
   18.8997   53.6169   22.0568 C   0  0  0  0  0  0  0  0  0  0  0  0
   17.6625   54.6591   22.1612 C   0  0  0  0  0  0  0  0  0  0  0  0
   19.7146   53.9311   22.6840 N   0  0  0  0  0  0  0  0  0  0  0  0
   17.5904   55.2267   23.3402 C   0  0  0  0  0  0  0  0  0  0  0  0
   22.6347   47.5776   19.5779 C   0  0  0  0  0  0  0  0  0  0  0  0
   22.1797   48.3824   17.3691 C   0  0  0  0  0  0  0  0  0  0  0  0
   23.8486   47.0809   18.9017 C   0  0  0  0  0  0  0  0  0  0  0  0
   18.2935   55.1279   24.4007 C   0  0  0  0  0  0  0  0  0  0  0  0
   21.6991   51.0098   21.8781 C   0  0  0  0  0  0  0  0  0  0  0  0
   16.4299   56.1626   23.4053 C   0  0  0  0  0  0  0  0  0  0  0  0
   16.6039   56.7151   24.6906 C   0  0  0  0  0  0  0  0  0  0  0  0
   24.2350   47.2599   17.6454 C   0  0  0  0  0  0  0  0  0  0  0  0
   23.3624   47.9684   16.9144 C   0  0  0  0  0  0  0  0  0  0  0  0
   17.7089   56.0806   25.2799 N   0  0  0  0  0  0  0  0  0  0  0  0
  1  2  2  0
  2  3  1  0
  1  4  1  0
  3  5  2  0
  3  6  1  0
  4  7  1  0
  6  8  1  0
  1  9  1  0
  9 10  1  0
 10 11  1  0
  7 12  1  0
 10 12  2  0
 11 13  2  3
  8 14  1  0
  8 15  2  0
 14 16  2  0
 13 17  1  0
  4 18  2  0
  5 18  1  0
 13 19  1  0
 19 20  2  0
 16 21  1  0
 15 22  1  0
 21 22  2  0
 17 23  2  0
 20 23  1  0
M  END
>  <ID>  (1) 
conformer_0

$$$$
