
     RDKit          3D

  8  8  0  0  0  0  0  0  0  0999 V2000
   24.2127   47.0596   17.6097 C   0  0  0  0  0  0  0  0  0  0  0  0
   23.3880   47.7116   18.1004 C   0  0  0  0  0  0  0  0  0  0  0  0
   25.4603   46.8212   18.3348 C   0  0  0  0  0  0  0  0  0  0  0  0
   22.1572   48.0971   17.6248 C   0  0  0  0  0  0  0  0  0  0  0  0
   21.0505   48.0854   18.2772 C   0  0  0  0  0  0  0  0  0  0  0  0
   19.7805   48.4157   17.8400 C   0  0  0  0  0  0  0  0  0  0  0  0
   25.1327   47.1010   19.7352 C   0  0  0  0  0  0  0  0  0  0  0  0
   23.7676   47.5176   19.8151 C   0  0  0  0  0  0  0  0  0  0  0  0
  1  2  1  0
  1  3  2  0
  2  4  1  0
  4  5  2  3
  5  6  1  0
  3  7  1  0
  2  8  1  0
  7  8  2  0
M  END
>  <ID>  (1) 
conformer_0

$$$$
