
     RDKit          3D

 26 29  0  0  0  0  0  0  0  0999 V2000
   19.1438   52.9076   21.5700 C   0  0  0  0  0  0  0  0  0  0  0  0
   18.8214   52.1302   20.6485 C   0  0  0  0  0  0  0  0  0  0  0  0
   19.3518   54.2706   21.2427 C   0  0  0  0  0  0  0  0  0  0  0  0
   19.2620   55.2393   22.2692 C   0  0  0  0  0  0  0  0  0  0  0  0
   18.7732   50.6673   20.6982 O   0  0  0  0  0  0  0  0  0  0  0  0
   18.1335   55.4286   23.0662 C   0  0  0  0  0  0  0  0  0  0  0  0
   17.9492   56.3721   24.0082 C   0  0  0  0  0  0  0  0  0  0  0  0
   18.9984   52.5716   19.2173 C   0  0  0  0  0  0  0  0  0  0  0  0
   19.3457   54.7795   19.9574 C   0  0  0  0  0  0  0  0  0  0  0  0
   19.9480   50.0439   20.5898 C   0  0  0  0  0  0  0  0  0  0  0  0
   18.8355   51.5506   18.1520 C   0  0  0  0  0  0  0  0  0  0  0  0
   16.8318   56.5694   24.7078 C   0  0  0  0  0  0  0  0  0  0  0  0
   20.1553   49.3928   19.2072 C   0  0  0  0  0  0  0  0  0  0  0  0
   15.8302   55.5034   24.5348 C   0  0  0  0  0  0  0  0  0  0  0  0
   21.3165   48.6468   18.9892 C   0  0  0  0  0  0  0  0  0  0  0  0
   16.0262   54.5192   23.6482 C   0  0  0  0  0  0  0  0  0  0  0  0
   17.1426   54.4056   22.8939 C   0  0  0  0  0  0  0  0  0  0  0  0
   19.2406   53.8867   18.9516 C   0  0  0  0  0  0  0  0  0  0  0  0
   21.9425   48.5047   17.8914 C   0  0  0  0  0  0  0  0  0  0  0  0
   22.0642   48.1059   20.1431 C   0  0  0  0  0  0  0  0  0  0  0  0
   23.1790   47.3496   20.0147 C   0  0  0  0  0  0  0  0  0  0  0  0
   16.6762   57.6434   25.7940 C   0  0  0  0  0  0  0  0  0  0  0  0
   23.2157   47.7133   17.7530 C   0  0  0  0  0  0  0  0  0  0  0  0
   20.0027   50.5104   18.0727 N   0  0  0  0  0  0  0  0  0  0  0  0
   23.8112   47.2064   18.7882 C   0  0  0  0  0  0  0  0  0  0  0  0
   25.2474   46.4502   18.6179 C   0  0  0  0  0  0  0  0  0  0  0  0
  1  2  2  0
  1  3  1  0
  3  4  1  0
  2  5  1  0
  4  6  2  3
  6  7  1  0
  2  8  1  0
  3  9  2  0
  5 10  1  0
  8 11  1  0
  7 12  2  0
 10 13  1  0
 12 14  1  0
 13 15  1  0
 14 16  2  0
  6 17  1  0
 16 17  1  0
  8 18  2  0
  9 18  1  0
 15 19  2  0
 15 20  1  0
 20 21  2  0
 12 22  1  0
 19 23  1  0
 11 24  1  0
 13 24  1  0
 21 25  1  0
 23 25  2  0
 25 26  1  0
M  END
>  <ID>  (1) 
conformer_0

$$$$
