
     RDKit          3D

 11 12  0  0  0  0  0  0  0  0999 V2000
   17.2391   56.7368   26.1681 C   0  0  0  0  0  0  0  0  0  0  0  0
   17.0152   55.6497   25.4948 C   0  0  0  0  0  0  0  0  0  0  0  0
   17.6109   55.5504   24.1903 C   0  0  0  0  0  0  0  0  0  0  0  0
   18.4304   56.5428   23.7721 C   0  0  0  0  0  0  0  0  0  0  0  0
   17.3246   54.4754   23.3728 C   0  0  0  0  0  0  0  0  0  0  0  0
   16.6055   56.8816   27.4682 O   0  0  0  0  0  0  0  0  0  0  0  0
   18.1228   57.7585   25.8844 C   0  0  0  0  0  0  0  0  0  0  0  0
   17.7077   54.6506   22.0555 C   0  0  0  0  0  0  0  0  0  0  0  0
   19.0699   56.2914   22.5214 C   0  0  0  0  0  0  0  0  0  0  0  0
   19.0199   55.0664   21.9333 C   0  0  0  0  0  0  0  0  0  0  0  0
   18.7024   57.5671   24.6645 C   0  0  0  0  0  0  0  0  0  0  0  0
  1  2  1  0
  2  3  2  0
  3  4  1  0
  3  5  1  0
  1  6  1  0
  1  7  2  0
  5  8  1  0
  4  9  1  0
  8 10  1  0
  9 10  1  0
  4 11  2  0
  7 11  1  0
M  END
>  <ID>  (1) 
conformer_0

$$$$
