
     RDKit          3D

  7  7  0  0  0  0  0  0  0  0999 V2000
   22.5831   47.1186   20.0271 C   0  0  0  0  0  0  0  0  0  0  0  0
   21.9113   48.3342   19.7937 C   0  0  0  0  0  0  0  0  0  0  0  0
   23.7401   46.9478   19.1669 C   0  0  0  0  0  0  0  0  0  0  0  0
   22.2289   49.1323   18.7901 C   0  0  0  0  0  0  0  0  0  0  0  0
   24.4997   45.6641   19.3803 O   0  0  0  0  0  0  0  0  0  0  0  0
   24.1796   47.7417   18.1511 C   0  0  0  0  0  0  0  0  0  0  0  0
   23.2683   48.8278   17.9294 C   0  0  0  0  0  0  0  0  0  0  0  0
  1  2  1  0
  1  3  2  0
  2  4  2  0
  3  5  1  0
  3  6  1  0
  4  7  1  0
  6  7  2  0
M  END
>  <ID>  (1) 
conformer_0

$$$$
