
     RDKit          3D

  8  8  0  0  0  0  0  0  0  0999 V2000
   21.7036   48.0770   19.9153 C   0  0  0  0  0  0  0  0  0  0  0  0
   22.7522   47.8929   19.1197 C   0  0  0  0  0  0  0  0  0  0  0  0
   22.7709   47.8618   17.8645 C   0  0  0  0  0  0  0  0  0  0  0  0
   24.0335   47.3410   19.9125 C   0  0  0  0  0  0  0  0  0  0  0  0
   21.6900   48.4692   17.2140 C   0  0  0  0  0  0  0  0  0  0  0  0
   24.9014   46.6203   18.9298 C   0  0  0  0  0  0  0  0  0  0  0  0
   20.6803   48.9458   17.9549 C   0  0  0  0  0  0  0  0  0  0  0  0
   20.6072   48.7165   19.3571 C   0  0  0  0  0  0  0  0  0  0  0  0
  1  2  1  0
  2  3  2  0
  2  4  1  0
  3  5  1  0
  4  6  1  0
  5  7  2  0
  1  8  2  0
  7  8  1  0
M  END
>  <ID>  (1) 
conformer_0

$$$$
