
     RDKit          3D

 26 29  0  0  0  0  0  0  0  0999 V2000
   16.8287   54.9813   23.0494 C   0  0  0  0  0  0  0  0  0  0  0  0
   16.6713   56.0580   23.7185 C   0  0  0  0  0  0  0  0  0  0  0  0
   17.6892   54.7168   22.3547 C   0  0  0  0  0  0  0  0  0  0  0  0
   17.7199   53.3885   21.5495 O   0  0  0  0  0  0  0  0  0  0  0  0
   17.8736   56.9100   23.9715 C   0  0  0  0  0  0  0  0  0  0  0  0
   18.9909   55.3385   22.4690 C   0  0  0  0  0  0  0  0  0  0  0  0
   19.0659   52.9214   21.2615 C   0  0  0  0  0  0  0  0  0  0  0  0
   18.8537   51.7402   20.4091 C   0  0  0  0  0  0  0  0  0  0  0  0
   19.8068   50.9250   20.0853 C   0  0  0  0  0  0  0  0  0  0  0  0
   20.2311   53.2680   21.6657 C   0  0  0  0  0  0  0  0  0  0  0  0
   17.7932   58.0059   24.8628 C   0  0  0  0  0  0  0  0  0  0  0  0
   21.0922   51.2462   20.6253 C   0  0  0  0  0  0  0  0  0  0  0  0
   19.6450   49.7936   19.3375 C   0  0  0  0  0  0  0  0  0  0  0  0
   20.6887   48.8278   19.4110 C   0  0  0  0  0  0  0  0  0  0  0  0
   18.4175   57.6486   26.1705 O   0  0  0  0  0  0  0  0  0  0  0  0
   21.2202   52.3225   21.3567 C   0  0  0  0  0  0  0  0  0  0  0  0
   20.5357   47.5661   18.7305 C   0  0  0  0  0  0  0  0  0  0  0  0
   21.7323   46.8253   18.5939 C   0  0  0  0  0  0  0  0  0  0  0  0
   18.9789   56.4227   23.3393 C   0  0  0  0  0  0  0  0  0  0  0  0
   23.0270   47.3862   18.9189 C   0  0  0  0  0  0  0  0  0  0  0  0
   22.1363   49.2016   19.6700 C   0  0  0  0  0  0  0  0  0  0  0  0
   23.1808   48.5336   19.4181 C   0  0  0  0  0  0  0  0  0  0  0  0
   24.1452   46.4786   18.5724 C   0  0  0  0  0  0  0  0  0  0  0  0
   24.2197   45.2861   18.6964 O   0  0  0  0  0  0  0  0  0  0  0  0
   25.2685   47.1842   18.1720 O   0  0  0  0  0  0  0  0  0  0  0  0
   22.2343   50.3472   20.3374 C   0  0  0  0  0  0  0  0  0  0  0  0
  1  2  2  0
  1  3  1  0
  3  4  1  0
  2  5  1  0
  3  6  2  0
  4  7  1  0
  7  8  1  0
  8  9  2  0
  7 10  2  0
  5 11  1  0
  9 12  1  0
  9 13  1  0
 13 14  2  0
 11 15  1  0
 10 16  1  0
 12 16  2  0
 14 17  1  0
 17 18  2  0
  5 19  2  0
  6 19  1  0
 18 20  1  0
 14 21  1  0
 20 22  2  0
 21 22  1  0
 20 23  1  0
 23 24  1  0
 23 25  2  0
 12 26  1  0
 21 26  2  0
M  END
>  <ID>  (1) 
conformer_0

$$$$
