
     RDKit          3D

 11 12  0  0  0  0  0  0  0  0999 V2000
   21.7036   48.0770   19.9153 C   0  0  0  0  0  0  0  0  0  0  0  0
   22.7522   47.8929   19.1197 C   0  0  0  0  0  0  0  0  0  0  0  0
   22.7709   47.8618   17.8645 C   0  0  0  0  0  0  0  0  0  0  0  0
   21.2002   49.4398   20.0609 C   0  0  0  0  0  0  0  0  0  0  0  0
   19.8443   49.7742   19.7728 C   0  0  0  0  0  0  0  0  0  0  0  0
   24.0315   47.3467   19.7913 C   0  0  0  0  0  0  0  0  0  0  0  0
   24.0564   47.4676   17.2923 C   0  0  0  0  0  0  0  0  0  0  0  0
   21.9456   50.5557   20.3634 C   0  0  0  0  0  0  0  0  0  0  0  0
   25.0064   47.1320   18.3175 C   0  0  0  0  0  0  0  0  0  0  0  0
   19.6103   51.2744   19.9472 C   0  0  0  0  0  0  0  0  0  0  0  0
   21.0961   51.6943   20.6675 C   0  0  0  0  0  0  0  0  0  0  0  0
  1  2  1  0
  2  3  2  0
  1  4  1  0
  4  5  2  0
  2  6  1  0
  3  7  1  0
  4  8  1  0
  6  9  1  0
  7  9  2  0
  5 10  1  0
  8 11  1  0
 10 11  2  0
M  END
>  <ID>  (1) 
conformer_0

$$$$
