
     RDKit          3D

 16 17  0  0  0  0  0  0  0  0999 V2000
   19.7960   51.8630   20.8891 C   0  0  0  0  0  0  0  0  0  0  0  0
   19.7719   51.0619   20.0608 C   0  0  0  0  0  0  0  0  0  0  0  0
   20.5454   49.8834   20.1162 C   0  0  0  0  0  0  0  0  0  0  0  0
   20.7515   52.0329   21.8538 C   0  0  0  0  0  0  0  0  0  0  0  0
   21.6930   49.9621   21.0252 C   0  0  0  0  0  0  0  0  0  0  0  0
   20.5092   48.8616   19.0780 C   0  0  0  0  0  0  0  0  0  0  0  0
   20.6652   53.1099   22.7321 C   0  0  0  0  0  0  0  0  0  0  0  0
   22.6311   48.8816   20.9688 C   0  0  0  0  0  0  0  0  0  0  0  0
   18.8523   53.0450   20.8045 C   0  0  0  0  0  0  0  0  0  0  0  0
   22.6198   48.0178   19.8985 C   0  0  0  0  0  0  0  0  0  0  0  0
   21.4320   47.9375   19.0309 C   0  0  0  0  0  0  0  0  0  0  0  0
   23.6286   47.0464   19.4393 C   0  0  0  0  0  0  0  0  0  0  0  0
   18.9457   53.8622   21.7987 C   0  0  0  0  0  0  0  0  0  0  0  0
   19.8156   54.0523   22.6910 C   0  0  0  0  0  0  0  0  0  0  0  0
   24.8542   47.5189   19.0965 C   0  0  0  0  0  0  0  0  0  0  0  0
   25.6473   46.5139   18.2481 C   0  0  0  0  0  0  0  0  0  0  0  0
  1  2  2  3
  2  3  1  0
  1  4  1  0
  3  5  2  0
  3  6  1  0
  4  7  1  0
  5  8  1  0
  1  9  1  0
  8 10  2  0
  6 11  2  0
 10 11  1  0
 10 12  1  0
  9 13  2  0
  7 14  2  0
 13 14  1  0
 12 15  1  0
 15 16  1  0
M  END
>  <ID>  (1) 
conformer_0

$$$$
