
     RDKit          3D

 17 19  0  0  0  0  0  0  0  0999 V2000
   24.3259   46.1884   19.3132 C   0  0  0  0  0  0  0  0  0  0  0  0
   23.1494   46.8357   19.2864 C   0  0  0  0  0  0  0  0  0  0  0  0
   23.1450   48.1624   18.8151 C   0  0  0  0  0  0  0  0  0  0  0  0
   25.2281   46.6141   18.4013 C   0  0  0  0  0  0  0  0  0  0  0  0
   21.8884   48.9022   18.9567 C   0  0  0  0  0  0  0  0  0  0  0  0
   24.1983   48.5635   17.9494 C   0  0  0  0  0  0  0  0  0  0  0  0
   21.5830   49.5556   20.0882 C   0  0  0  0  0  0  0  0  0  0  0  0
   20.6590   50.5758   20.2397 C   0  0  0  0  0  0  0  0  0  0  0  0
   20.9966   48.9755   17.9062 C   0  0  0  0  0  0  0  0  0  0  0  0
   20.4845   51.3316   21.4253 C   0  0  0  0  0  0  0  0  0  0  0  0
   19.8972   52.6472   21.2889 C   0  0  0  0  0  0  0  0  0  0  0  0
   25.3074   47.8250   17.8246 C   0  0  0  0  0  0  0  0  0  0  0  0
   20.9901   48.1655   16.7103 O   0  0  0  0  0  0  0  0  0  0  0  0
   19.0545   52.8236   20.0668 C   0  0  0  0  0  0  0  0  0  0  0  0
   19.7630   50.6980   19.0589 C   0  0  0  0  0  0  0  0  0  0  0  0
   19.0177   51.8417   19.0986 C   0  0  0  0  0  0  0  0  0  0  0  0
   19.9305   49.9162   17.9732 C   0  0  0  0  0  0  0  0  0  0  0  0
  1  2  1  0
  2  3  2  0
  1  4  2  0
  3  5  1  0
  3  6  1  0
  5  7  1  0
  7  8  2  0
  5  9  2  0
  8 10  1  0
 10 11  2  0
  4 12  1  0
  6 12  2  0
  9 13  1  0
 11 14  1  0
  8 15  1  0
 14 16  2  0
 15 16  1  0
  9 17  1  0
 15 17  2  0
M  END
>  <ID>  (1) 
conformer_0

$$$$
