
     RDKit          3D

 26 30  0  0  0  0  0  0  0  0999 V2000
   23.6671   46.4058   19.5963 C   0  0  0  0  0  0  0  0  0  0  0  0
   22.7217   47.4879   19.6172 C   0  0  0  0  0  0  0  0  0  0  0  0
   21.5459   47.3748   20.2692 C   0  0  0  0  0  0  0  0  0  0  0  0
   23.0611   48.6090   18.7815 C   0  0  0  0  0  0  0  0  0  0  0  0
   20.8412   48.4405   20.5846 C   0  0  0  0  0  0  0  0  0  0  0  0
   22.3578   49.7520   18.8848 C   0  0  0  0  0  0  0  0  0  0  0  0
   21.1184   49.7214   19.7249 C   0  0  0  0  0  0  0  0  0  0  0  0
   24.3944   48.4890   18.0397 C   0  0  0  0  0  0  0  0  0  0  0  0
   20.3026   50.9620   19.8720 C   0  0  0  0  0  0  0  0  0  0  0  0
   19.6032   51.4227   19.0166 C   0  0  0  0  0  0  0  0  0  0  0  0
   20.4814   51.7380   21.0751 C   0  0  0  0  0  0  0  0  0  0  0  0
   19.6999   52.8088   21.3526 C   0  0  0  0  0  0  0  0  0  0  0  0
   18.6483   52.6275   19.1879 C   0  0  0  0  0  0  0  0  0  0  0  0
   24.7888   46.3178   18.7910 C   0  0  0  0  0  0  0  0  0  0  0  0
   19.7125   53.5141   22.5533 O   0  0  0  0  0  0  0  0  0  0  0  0
   18.7499   53.2558   20.3993 C   0  0  0  0  0  0  0  0  0  0  0  0
   17.9840   54.3955   20.6201 O   0  0  0  0  0  0  0  0  0  0  0  0
   25.1595   47.4783   18.1922 C   0  0  0  0  0  0  0  0  0  0  0  0
   18.7722   54.4350   22.7692 C   0  0  0  0  0  0  0  0  0  0  0  0
   18.6558   54.9968   24.0222 C   0  0  0  0  0  0  0  0  0  0  0  0
   17.7076   55.8950   24.3392 C   0  0  0  0  0  0  0  0  0  0  0  0
   17.5344   56.5390   25.6367 C   0  0  0  0  0  0  0  0  0  0  0  0
   16.6828   56.2290   23.3082 C   0  0  0  0  0  0  0  0  0  0  0  0
   16.7983   55.5925   22.1235 C   0  0  0  0  0  0  0  0  0  0  0  0
   16.5859   57.5000   25.9030 O   0  0  0  0  0  0  0  0  0  0  0  0
   17.8555   54.7965   21.8661 C   0  0  0  0  0  0  0  0  0  0  0  0
  1  2  1  0
  2  3  1  0
  2  4  2  0
  3  5  2  0
  4  6  1  0
  5  7  1  0
  6  7  2  0
  4  8  1  0
  7  9  1  0
  9 10  2  0
  9 11  1  0
 11 12  2  0
 10 13  1  0
  1 14  2  0
 12 15  1  0
 12 16  1  0
 13 16  2  0
 16 17  1  0
  8 18  2  0
 14 18  1  0
 15 19  1  0
 19 20  1  0
 20 21  2  0
 21 22  1  0
 21 23  1  0
 23 24  2  0
 22 25  1  0
 17 26  1  0
 19 26  2  0
 24 26  1  0
M  END
>  <ID>  (1) 
conformer_0

$$$$
