
     RDKit          3D

 12 13  0  0  0  0  0  0  0  0999 V2000
   18.0812   55.4199   23.5008 C   0  0  0  0  0  0  0  0  0  0  0  0
   17.6804   56.0997   24.4127 C   0  0  0  0  0  0  0  0  0  0  0  0
   17.5358   54.6617   22.7039 C   0  0  0  0  0  0  0  0  0  0  0  0
   18.2520   53.8876   21.6643 C   0  0  0  0  0  0  0  0  0  0  0  0
   16.2359   56.0302   24.7355 C   0  0  0  0  0  0  0  0  0  0  0  0
   16.1634   54.4606   22.9369 C   0  0  0  0  0  0  0  0  0  0  0  0
   18.0147   52.7831   21.3279 O   0  0  0  0  0  0  0  0  0  0  0  0
   19.4905   54.3315   21.3462 O   0  0  0  0  0  0  0  0  0  0  0  0
   15.5673   55.1913   24.0122 C   0  0  0  0  0  0  0  0  0  0  0  0
   18.1948   57.0851   25.3729 N   0  0  0  0  0  0  0  0  0  0  0  0
   15.7878   56.7616   25.7949 C   0  0  0  0  0  0  0  0  0  0  0  0
   17.0221   57.5219   26.3344 C   0  0  0  0  0  0  0  0  0  0  0  0
  1  2  2  0
  1  3  1  0
  3  4  1  0
  2  5  1  0
  3  6  2  0
  4  7  2  0
  4  8  1  0
  5  9  2  0
  6  9  1  0
  2 10  1  0
  5 11  1  0
 10 12  1  0
 11 12  2  0
M  END
>  <ID>  (1) 
conformer_0

$$$$
