
     RDKit          3D

 25 27  0  0  0  0  0  0  0  0999 V2000
   19.1438   52.9076   21.5700 C   0  0  0  0  0  0  0  0  0  0  0  0
   18.8214   52.1302   20.6485 C   0  0  0  0  0  0  0  0  0  0  0  0
   19.3518   54.2706   21.2427 C   0  0  0  0  0  0  0  0  0  0  0  0
   19.2620   55.2393   22.2692 C   0  0  0  0  0  0  0  0  0  0  0  0
   18.7732   50.6673   20.6982 O   0  0  0  0  0  0  0  0  0  0  0  0
   18.1335   55.4286   23.0662 C   0  0  0  0  0  0  0  0  0  0  0  0
   17.9492   56.3721   24.0082 C   0  0  0  0  0  0  0  0  0  0  0  0
   18.9984   52.5716   19.2173 C   0  0  0  0  0  0  0  0  0  0  0  0
   19.3457   54.7795   19.9574 C   0  0  0  0  0  0  0  0  0  0  0  0
   19.9480   50.0439   20.5898 C   0  0  0  0  0  0  0  0  0  0  0  0
   18.8355   51.5506   18.1520 C   0  0  0  0  0  0  0  0  0  0  0  0
   20.1594   49.4426   19.1818 C   0  0  0  0  0  0  0  0  0  0  0  0
   19.2667   53.8878   18.8916 C   0  0  0  0  0  0  0  0  0  0  0  0
   16.8548   56.6515   24.6627 C   0  0  0  0  0  0  0  0  0  0  0  0
   21.2670   48.6395   18.9619 C   0  0  0  0  0  0  0  0  0  0  0  0
   21.9447   48.6063   17.8332 C   0  0  0  0  0  0  0  0  0  0  0  0
   21.7050   47.6217   19.9750 C   0  0  0  0  0  0  0  0  0  0  0  0
   22.9612   47.0502   19.7197 C   0  0  0  0  0  0  0  0  0  0  0  0
   15.6757   55.8602   24.4547 C   0  0  0  0  0  0  0  0  0  0  0  0
   16.7918   57.6611   25.7434 C   0  0  0  0  0  0  0  0  0  0  0  0
   23.2000   47.8723   17.7115 C   0  0  0  0  0  0  0  0  0  0  0  0
   19.7775   50.3868   18.1220 N   0  0  0  0  0  0  0  0  0  0  0  0
   23.7026   47.1732   18.5838 C   0  0  0  0  0  0  0  0  0  0  0  0
   24.9081   46.3601   18.3827 C   0  0  0  0  0  0  0  0  0  0  0  0
   17.5897   57.8165   26.5373 O   0  0  0  0  0  0  0  0  0  0  0  0
  1  2  2  0
  1  3  1  0
  3  4  1  0
  2  5  1  0
  4  6  2  3
  6  7  1  0
  2  8  1  0
  3  9  2  0
  5 10  1  0
  8 11  1  0
 10 12  1  0
  8 13  2  0
  9 13  1  0
  7 14  2  3
 12 15  1  0
 15 16  2  0
 15 17  1  0
 17 18  2  0
 14 19  1  0
 14 20  1  0
 16 21  1  0
 11 22  1  0
 12 22  1  0
 18 23  1  0
 21 23  2  0
 23 24  1  0
 20 25  2  0
M  END
>  <ID>  (1) 
conformer_0

$$$$
