
     RDKit          3D

 11 12  0  0  0  0  0  0  0  0999 V2000
   24.3259   46.1884   19.3132 C   0  0  0  0  0  0  0  0  0  0  0  0
   23.1494   46.8357   19.2864 C   0  0  0  0  0  0  0  0  0  0  0  0
   23.1450   48.1624   18.8151 C   0  0  0  0  0  0  0  0  0  0  0  0
   25.2281   46.6141   18.4013 C   0  0  0  0  0  0  0  0  0  0  0  0
   21.8884   48.9022   18.9567 C   0  0  0  0  0  0  0  0  0  0  0  0
   24.1983   48.5635   17.9494 C   0  0  0  0  0  0  0  0  0  0  0  0
   21.5830   49.5556   20.0882 C   0  0  0  0  0  0  0  0  0  0  0  0
   20.9867   48.9675   17.9391 C   0  0  0  0  0  0  0  0  0  0  0  0
   25.2756   47.7668   17.8548 C   0  0  0  0  0  0  0  0  0  0  0  0
   19.8687   49.8938   18.5076 C   0  0  0  0  0  0  0  0  0  0  0  0
   20.3244   50.2635   19.8365 N   0  0  0  0  0  0  0  0  0  0  0  0
  1  2  1  0
  2  3  2  0
  1  4  2  0
  3  5  1  0
  3  6  1  0
  5  7  1  0
  5  8  2  0
  4  9  1  0
  6  9  2  0
  8 10  1  0
  7 11  1  0
 10 11  2  0
M  END
>  <ID>  (1) 
conformer_0

$$$$
