
     RDKit          3D

 23 25  0  0  0  0  0  0  0  0999 V2000
   19.7960   51.8630   20.8891 C   0  0  0  0  0  0  0  0  0  0  0  0
   19.7719   51.0619   20.0608 C   0  0  0  0  0  0  0  0  0  0  0  0
   20.6248   49.9228   20.1163 C   0  0  0  0  0  0  0  0  0  0  0  0
   20.7547   52.0639   21.8473 C   0  0  0  0  0  0  0  0  0  0  0  0
   18.7326   52.9841   20.8798 C   0  0  0  0  0  0  0  0  0  0  0  0
   20.6840   48.8663   19.1940 C   0  0  0  0  0  0  0  0  0  0  0  0
   18.7766   53.8978   21.6908 C   0  0  0  0  0  0  0  0  0  0  0  0
   21.9321   48.2981   18.9181 C   0  0  0  0  0  0  0  0  0  0  0  0
   19.8079   53.9975   22.7303 C   0  0  0  0  0  0  0  0  0  0  0  0
   19.7639   55.1885   23.6055 C   0  0  0  0  0  0  0  0  0  0  0  0
   18.6008   56.0440   23.5448 C   0  0  0  0  0  0  0  0  0  0  0  0
   22.6241   47.3695   19.5887 C   0  0  0  0  0  0  0  0  0  0  0  0
   23.9395   46.8264   19.3099 C   0  0  0  0  0  0  0  0  0  0  0  0
   22.8503   48.9170   18.0437 C   0  0  0  0  0  0  0  0  0  0  0  0
   17.9334   56.0863   24.8598 C   0  0  0  0  0  0  0  0  0  0  0  0
   20.7630   53.1087   22.7821 C   0  0  0  0  0  0  0  0  0  0  0  0
   17.8242   57.3861   25.4265 C   0  0  0  0  0  0  0  0  0  0  0  0
   24.0983   48.4599   17.6588 C   0  0  0  0  0  0  0  0  0  0  0  0
   24.6532   47.4212   18.3585 C   0  0  0  0  0  0  0  0  0  0  0  0
   17.0586   55.1446   25.1220 C   0  0  0  0  0  0  0  0  0  0  0  0
   16.8606   57.2733   26.4691 C   0  0  0  0  0  0  0  0  0  0  0  0
   16.1725   55.2234   26.0836 C   0  0  0  0  0  0  0  0  0  0  0  0
   16.0940   56.3772   26.8310 C   0  0  0  0  0  0  0  0  0  0  0  0
  1  2  1  0
  2  3  2  3
  1  4  2  0
  1  5  1  0
  3  6  1  0
  5  7  2  0
  6  8  1  0
  7  9  1  0
  9 10  1  0
 10 11  1  0
  8 12  1  0
 12 13  2  0
  8 14  2  0
 11 15  1  0
  4 16  1  0
  9 16  2  0
 15 17  1  0
 14 18  1  0
 13 19  1  0
 18 19  2  0
 15 20  2  0
 17 21  2  0
 20 22  1  0
 21 23  1  0
 22 23  2  0
M  END
>  <ID>  (1) 
conformer_0

$$$$
