
     RDKit          3D

  8  8  0  0  0  0  0  0  0  0999 V2000
   17.2391   56.7368   26.1681 C   0  0  0  0  0  0  0  0  0  0  0  0
   16.9111   56.3510   24.9724 C   0  0  0  0  0  0  0  0  0  0  0  0
   17.1861   55.2576   24.3717 C   0  0  0  0  0  0  0  0  0  0  0  0
   16.3441   57.3707   24.1536 C   0  0  0  0  0  0  0  0  0  0  0  0
   17.1146   57.8180   26.7228 O   0  0  0  0  0  0  0  0  0  0  0  0
   15.9684   57.0660   22.8792 C   0  0  0  0  0  0  0  0  0  0  0  0
   16.1772   55.8926   22.3260 C   0  0  0  0  0  0  0  0  0  0  0  0
   16.8017   54.9202   23.1196 C   0  0  0  0  0  0  0  0  0  0  0  0
  1  2  1  0
  2  3  1  0
  2  4  2  0
  1  5  2  0
  4  6  1  0
  6  7  2  0
  3  8  2  0
  7  8  1  0
M  END
>  <ID>  (1) 
conformer_0

$$$$
