
     RDKit          3D

 26 30  0  0  0  0  0  0  0  0999 V2000
   17.5388   54.4423   22.0632 C   0  0  0  0  0  0  0  0  0  0  0  0
   17.3849   55.4155   22.8218 C   0  0  0  0  0  0  0  0  0  0  0  0
   16.3815   56.2998   22.9136 C   0  0  0  0  0  0  0  0  0  0  0  0
   18.7765   53.7012   22.0314 C   0  0  0  0  0  0  0  0  0  0  0  0
   19.7539   54.0967   22.8075 C   0  0  0  0  0  0  0  0  0  0  0  0
   18.6472   55.7871   23.6053 C   0  0  0  0  0  0  0  0  0  0  0  0
   16.3798   57.2203   23.9651 C   0  0  0  0  0  0  0  0  0  0  0  0
   21.0384   53.3338   22.5431 O   0  0  0  0  0  0  0  0  0  0  0  0
   20.8487   52.3245   21.6273 C   0  0  0  0  0  0  0  0  0  0  0  0
   19.6175   52.0972   21.0351 C   0  0  0  0  0  0  0  0  0  0  0  0
   17.6019   57.0481   24.8327 C   0  0  0  0  0  0  0  0  0  0  0  0
   18.7941   52.7057   21.1797 N   0  0  0  0  0  0  0  0  0  0  0  0
   21.7509   51.2140   21.3473 C   0  0  0  0  0  0  0  0  0  0  0  0
   21.7046   50.2683   20.5383 C   0  0  0  0  0  0  0  0  0  0  0  0
   19.6893   50.9510   19.9894 C   0  0  0  0  0  0  0  0  0  0  0  0
   18.5624   56.5033   24.6414 C   0  0  0  0  0  0  0  0  0  0  0  0
   22.7075   49.3444   20.3758 N   0  0  0  0  0  0  0  0  0  0  0  0
   19.7694   55.1369   23.5308 C   0  0  0  0  0  0  0  0  0  0  0  0
   20.7008   50.0127   19.8822 C   0  0  0  0  0  0  0  0  0  0  0  0
   17.3685   58.1601   25.9701 O   0  0  0  0  0  0  0  0  0  0  0  0
   22.2379   48.5605   19.4152 C   0  0  0  0  0  0  0  0  0  0  0  0
   21.0707   48.8018   18.9999 N   0  0  0  0  0  0  0  0  0  0  0  0
   20.1192   48.2746   18.1648 C   0  0  0  0  0  0  0  0  0  0  0  0
   23.0079   47.4053   18.8927 C   0  0  0  0  0  0  0  0  0  0  0  0
   24.3908   47.3137   19.1455 C   0  0  0  0  0  0  0  0  0  0  0  0
   24.9762   46.0478   18.5069 C   0  0  0  0  0  0  0  0  0  0  0  0
  1  2  2  0
  2  3  1  0
  1  4  1  0
  4  5  2  0
  2  6  1  0
  3  7  2  0
  5  8  1  0
  8  9  1  0
  9 10  1  0
  7 11  1  0
  4 12  1  0
 10 12  2  0
  9 13  2  0
 13 14  1  0
 10 15  1  0
  6 16  1  0
 11 16  2  0
 14 17  1  0
  5 18  1  0
  6 18  2  0
 14 19  2  0
 15 19  1  0
 11 20  1  0
 17 21  2  0
 19 22  1  0
 21 22  1  0
 22 23  1  0
 21 24  1  0
 24 25  1  0
 25 26  1  0
M  END
>  <ID>  (1) 
conformer_0

$$$$
