
     RDKit          3D

 18 20  0  0  0  0  0  0  0  0999 V2000
   19.7960   51.8630   20.8891 C   0  0  0  0  0  0  0  0  0  0  0  0
   19.7719   51.0619   20.0608 C   0  0  0  0  0  0  0  0  0  0  0  0
   20.5454   49.8834   20.1162 C   0  0  0  0  0  0  0  0  0  0  0  0
   20.7515   52.0329   21.8538 C   0  0  0  0  0  0  0  0  0  0  0  0
   21.6930   49.9621   21.0252 C   0  0  0  0  0  0  0  0  0  0  0  0
   20.5092   48.8616   19.0780 C   0  0  0  0  0  0  0  0  0  0  0  0
   20.6652   53.1099   22.7321 C   0  0  0  0  0  0  0  0  0  0  0  0
   21.6895   48.2177   18.7234 C   0  0  0  0  0  0  0  0  0  0  0  0
   21.6807   51.0112   21.9026 C   0  0  0  0  0  0  0  0  0  0  0  0
   22.6236   48.5927   17.9937 C   0  0  0  0  0  0  0  0  0  0  0  0
   23.8936   47.8634   17.8408 C   0  0  0  0  0  0  0  0  0  0  0  0
   19.8480   54.1626   22.6916 C   0  0  0  0  0  0  0  0  0  0  0  0
   18.8240   53.1801   20.9296 C   0  0  0  0  0  0  0  0  0  0  0  0
   24.0451   46.6527   18.5676 C   0  0  0  0  0  0  0  0  0  0  0  0
   22.0450   46.8944   19.5974 C   0  0  0  0  0  0  0  0  0  0  0  0
   23.1993   46.1994   19.5022 C   0  0  0  0  0  0  0  0  0  0  0  0
   25.3452   46.0723   18.3713 C   0  0  0  0  0  0  0  0  0  0  0  0
   18.8932   54.0068   21.6855 C   0  0  0  0  0  0  0  0  0  0  0  0
  1  2  2  0
  2  3  1  0
  1  4  1  0
  3  5  2  0
  3  6  1  0
  4  7  1  0
  6  8  1  0
  4  9  2  0
  5  9  1  0
  8 10  2  0
 10 11  1  0
  7 12  2  0
  1 13  1  0
 11 14  2  0
  8 15  1  0
 14 16  1  0
 15 16  2  0
 14 17  1  0
 12 18  1  0
 13 18  2  0
M  END
>  <ID>  (1) 
conformer_0

$$$$
