
     RDKit          3D

 11 12  0  0  0  0  0  0  0  0999 V2000
   23.4716   46.5043   19.7159 C   0  0  0  0  0  0  0  0  0  0  0  0
   22.6062   47.6206   19.5849 C   0  0  0  0  0  0  0  0  0  0  0  0
   22.8947   48.4470   18.6967 C   0  0  0  0  0  0  0  0  0  0  0  0
   24.6079   46.3171   18.9453 C   0  0  0  0  0  0  0  0  0  0  0  0
   24.9956   47.3112   18.0736 C   0  0  0  0  0  0  0  0  0  0  0  0
   26.0737   47.1435   17.3263 O   0  0  0  0  0  0  0  0  0  0  0  0
   24.0702   48.3663   17.9412 C   0  0  0  0  0  0  0  0  0  0  0  0
   21.9849   49.4172   18.7082 N   0  0  0  0  0  0  0  0  0  0  0  0
   21.4422   47.8942   20.2638 N   0  0  0  0  0  0  0  0  0  0  0  0
   21.1363   49.1674   19.5887 C   0  0  0  0  0  0  0  0  0  0  0  0
   19.8889   49.7519   19.8134 O   0  0  0  0  0  0  0  0  0  0  0  0
  1  2  2  0
  2  3  1  0
  1  4  1  0
  4  5  2  0
  5  6  1  0
  3  7  2  0
  5  7  1  0
  3  8  1  0
  2  9  1  0
  8 10  1  0
  9 10  1  0
 10 11  2  0
M  END
>  <ID>  (1) 
conformer_0

$$$$
