
     RDKit          3D

  9  9  0  0  0  0  0  0  0  0999 V2000
   17.2391   56.7368   26.1681 C   0  0  0  0  0  0  0  0  0  0  0  0
   17.0152   55.6497   25.4948 C   0  0  0  0  0  0  0  0  0  0  0  0
   17.2777   55.6310   24.0765 C   0  0  0  0  0  0  0  0  0  0  0  0
   17.7249   56.7760   23.4675 C   0  0  0  0  0  0  0  0  0  0  0  0
   17.6891   57.9399   25.5371 C   0  0  0  0  0  0  0  0  0  0  0  0
   17.0091   54.4992   23.3027 C   0  0  0  0  0  0  0  0  0  0  0  0
   17.9916   56.5960   22.0781 O   0  0  0  0  0  0  0  0  0  0  0  0
   18.0664   54.0497   22.7040 O   0  0  0  0  0  0  0  0  0  0  0  0
   17.9238   57.8757   24.2076 C   0  0  0  0  0  0  0  0  0  0  0  0
  1  2  2  0
  2  3  1  0
  3  4  2  0
  1  5  1  0
  3  6  1  0
  4  7  1  0
  6  8  1  0
  4  9  1  0
  5  9  2  0
M  END
>  <ID>  (1) 
conformer_0

$$$$
