
     RDKit          3D

 26 30  0  0  0  0  0  0  0  0999 V2000
   19.7960   51.8630   20.8891 C   0  0  0  0  0  0  0  0  0  0  0  0
   19.7719   51.0619   20.0608 C   0  0  0  0  0  0  0  0  0  0  0  0
   19.0134   52.8520   21.1586 C   0  0  0  0  0  0  0  0  0  0  0  0
   20.5473   50.0154   19.8791 C   0  0  0  0  0  0  0  0  0  0  0  0
   21.0451   51.7013   21.6014 C   0  0  0  0  0  0  0  0  0  0  0  0
   20.6863   48.9498   18.9362 C   0  0  0  0  0  0  0  0  0  0  0  0
   19.0714   53.6110   22.3588 C   0  0  0  0  0  0  0  0  0  0  0  0
   17.8862   53.1682   20.6274 N   0  0  0  0  0  0  0  0  0  0  0  0
   21.7896   50.2940   20.7608 S   0  0  0  0  0  0  0  0  0  0  0  0
   17.0091   54.0599   20.8625 C   0  0  0  0  0  0  0  0  0  0  0  0
   21.8376   48.3582   18.6721 C   0  0  0  0  0  0  0  0  0  0  0  0
   22.4445   47.3639   19.4079 C   0  0  0  0  0  0  0  0  0  0  0  0
   17.0697   54.8069   21.9706 C   0  0  0  0  0  0  0  0  0  0  0  0
   22.5064   48.4840   17.3897 C   0  0  0  0  0  0  0  0  0  0  0  0
   23.6911   46.8462   19.0449 C   0  0  0  0  0  0  0  0  0  0  0  0
   16.1242   55.7829   22.3940 C   0  0  0  0  0  0  0  0  0  0  0  0
   18.1171   54.6693   22.6631 C   0  0  0  0  0  0  0  0  0  0  0  0
   16.3054   56.5077   23.5237 C   0  0  0  0  0  0  0  0  0  0  0  0
   24.3195   47.2480   17.8428 C   0  0  0  0  0  0  0  0  0  0  0  0
   18.4587   55.5188   23.7787 C   0  0  0  0  0  0  0  0  0  0  0  0
   15.4201   57.4381   24.0859 C   0  0  0  0  0  0  0  0  0  0  0  0
   25.6261   46.6395   17.6363 F   0  0  0  0  0  0  0  0  0  0  0  0
   15.9946   57.9023   25.3048 C   0  0  0  0  0  0  0  0  0  0  0  0
   23.7718   47.9633   17.1781 C   0  0  0  0  0  0  0  0  0  0  0  0
   17.4567   56.2862   24.2507 C   0  0  0  0  0  0  0  0  0  0  0  0
   17.3279   57.2968   25.7482 S   0  0  0  0  0  0  0  0  0  0  0  0
  1  2  1  0
  1  3  1  0
  2  4  2  0
  1  5  2  0
  4  6  1  0
  3  7  1  0
  3  8  2  0
  4  9  1  0
  5  9  1  0
  8 10  1  0
  6 11  1  0
 11 12  1  0
 10 13  2  0
 11 14  2  0
 12 15  2  0
 13 16  1  0
  7 17  2  0
 13 17  1  0
 16 18  2  0
 15 19  1  0
 17 20  1  0
 18 21  1  0
 19 22  1  0
 21 23  2  0
 14 24  1  0
 19 24  2  0
 18 25  1  0
 20 25  2  0
 23 26  1  0
 25 26  1  0
M  END
>  <ID>  (1) 
conformer_0

$$$$
