
     RDKit          3D

 10 10  0  0  0  0  0  0  0  0999 V2000
   62.4392   55.9591  108.8706 C   0  0  0  0  0  0  0  0  0  0  0  0
   62.6392   54.8591  109.6706 N   0  0  0  0  0  0  0  0  0  0  0  0
   63.7392   54.8591  110.6706 C   0  0  0  0  0  0  0  0  0  0  0  0
   63.8392   56.2591  111.0706 C   0  0  0  0  0  0  0  0  0  0  0  0
   62.4392   53.5591  108.9706 C   0  0  0  0  0  0  0  0  0  0  0  0
   62.6392   52.2591  109.6706 C   0  0  0  0  0  0  0  0  0  0  0  0
   61.7392   51.1591  109.2706 C   0  0  0  0  0  0  0  0  0  0  0  0
   62.0392   49.9591  110.0706 C   0  0  0  0  0  0  0  0  0  0  0  0
   64.0392   57.1591  110.0706 O   0  0  0  0  0  0  0  0  0  0  0  0
   63.4392   57.0591  108.8706 C   0  0  0  0  0  0  0  0  0  0  0  0
  2  1  1  0
  3  2  1  0
  4  3  1  0
  5  2  1  0
  6  5  1  0
  7  6  1  0
  8  7  1  0
  9  4  1  0
 10  1  1  0
 10  9  1  0
M  END
>  <ID>  (1) 
conformer_0

$$$$
