
     RDKit          3D

 14 15  0  0  0  0  0  0  0  0999 V2000
   61.1652   50.0696  108.3277 O   0  0  0  0  0  0  0  0  0  0  0  0
   61.8652   50.3696  109.5277 C   0  0  0  0  0  0  0  0  0  0  0  0
   62.0652   51.6696  109.8277 C   0  0  0  0  0  0  0  0  0  0  0  0
   62.5652   49.4696  110.4277 C   0  0  0  0  0  0  0  0  0  0  0  0
   63.1652   49.7696  111.5277 C   0  0  0  0  0  0  0  0  0  0  0  0
   63.2652   52.0696  110.6277 C   0  0  0  0  0  0  0  0  0  0  0  0
   63.5652   53.3696  110.9277 N   0  0  0  0  0  0  0  0  0  0  0  0
   63.8652   51.0696  111.3277 C   0  0  0  0  0  0  0  0  0  0  0  0
   63.9652   54.6696  110.7277 C   0  0  0  0  0  0  0  0  0  0  0  0
   63.9652   55.9696  111.4277 C   0  0  0  0  0  0  0  0  0  0  0  0
   64.6652   54.8696  109.4277 C   0  0  0  0  0  0  0  0  0  0  0  0
   64.4652   56.2696  109.1277 N   0  0  0  0  0  0  0  0  0  0  0  0
   64.0652   57.0696  110.3277 C   0  0  0  0  0  0  0  0  0  0  0  0
   61.7652   52.6696  108.9277 O   0  0  0  0  0  0  0  0  0  0  0  0
  2  1  1  0
  3  2  2  0
  4  2  1  0
  5  4  2  0
  6  3  1  0
  7  6  1  0
  8  5  1  0
  8  6  2  0
  9  7  1  0
 10  9  1  0
 11  9  1  0
 12 11  1  0
 13 10  1  0
 13 12  1  0
 14  3  1  0
M  END
>  <ID>  (1) 
conformer_0

$$$$
