
     RDKit          3D

 16 18  0  0  0  0  0  0  0  0999 V2000
   61.7612   50.4832  109.3602 C   0  0  0  0  0  0  0  0  0  0  0  0
   62.3611   51.7832  109.3602 C   0  0  0  0  0  0  0  0  0  0  0  0
   62.2612   52.8832  108.4602 C   0  0  0  0  0  0  0  0  0  0  0  0
   62.1612   54.0832  109.1602 N   0  0  0  0  0  0  0  0  0  0  0  0
   63.0611   52.1832  110.5602 C   0  0  0  0  0  0  0  0  0  0  0  0
   63.3611   53.7832  108.7602 C   0  0  0  0  0  0  0  0  0  0  0  0
   62.3611   49.5832  110.2602 C   0  0  0  0  0  0  0  0  0  0  0  0
   63.1611   49.8832  111.2602 C   0  0  0  0  0  0  0  0  0  0  0  0
   61.3612   55.1832  108.5602 C   0  0  0  0  0  0  0  0  0  0  0  0
   63.4612   53.4832  110.9602 N   0  0  0  0  0  0  0  0  0  0  0  0
   63.8611   51.0832  111.2602 C   0  0  0  0  0  0  0  0  0  0  0  0
   63.9612   54.6832  110.9602 C   0  0  0  0  0  0  0  0  0  0  0  0
   63.7612   55.7832  110.1602 C   0  0  0  0  0  0  0  0  0  0  0  0
   64.0611   54.3832  107.8602 O   0  0  0  0  0  0  0  0  0  0  0  0
   64.9612   55.0832  110.0602 N   0  0  0  0  0  0  0  0  0  0  0  0
   63.7612   57.0832  110.7602 C   0  0  0  0  0  0  0  0  0  0  0  0
  2  1  2  0
  3  2  1  0
  4  3  1  0
  5  2  1  0
  6  3  1  0
  6  4  1  0
  7  1  1  0
  8  7  2  0
  9  4  1  0
 10  5  1  0
 11  5  2  0
 11  8  1  0
 12 10  1  0
 13 12  1  0
 14  6  1  0
 15 12  1  0
 15 13  1  0
 16 13  1  0
M  END
>  <ID>  (1) 
conformer_0

$$$$
