
     RDKit          3D

 15 17  0  0  0  0  0  0  0  0999 V2000
   61.1969   49.9420  108.3530 O   0  0  0  0  0  0  0  0  0  0  0  0
   62.0969   50.5420  109.2530 C   0  0  0  0  0  0  0  0  0  0  0  0
   62.1969   51.9420  109.1530 C   0  0  0  0  0  0  0  0  0  0  0  0
   62.4969   49.8420  110.3530 C   0  0  0  0  0  0  0  0  0  0  0  0
   61.7969   52.5420  107.9530 O   0  0  0  0  0  0  0  0  0  0  0  0
   63.1969   52.6420  109.9530 C   0  0  0  0  0  0  0  0  0  0  0  0
   63.6969   51.8420  111.0530 C   0  0  0  0  0  0  0  0  0  0  0  0
   63.3969   50.5420  111.2530 C   0  0  0  0  0  0  0  0  0  0  0  0
   63.0969   54.0420  110.2530 N   0  0  0  0  0  0  0  0  0  0  0  0
   63.5969   55.2420  109.8530 C   0  0  0  0  0  0  0  0  0  0  0  0
   64.1969   56.1420  110.7530 C   0  0  0  0  0  0  0  0  0  0  0  0
   62.9969   56.6420  111.4530 N   0  0  0  0  0  0  0  0  0  0  0  0
   63.4969   55.7420  108.5530 O   0  0  0  0  0  0  0  0  0  0  0  0
   62.3969   56.1420  109.1530 C   0  0  0  0  0  0  0  0  0  0  0  0
   62.0969   57.0420  110.2530 C   0  0  0  0  0  0  0  0  0  0  0  0
  2  1  1  0
  3  2  2  0
  4  2  1  0
  5  3  1  0
  6  3  1  0
  7  6  2  0
  8  4  2  0
  8  7  1  0
  9  6  1  0
 10  9  1  0
 11 10  1  0
 12 11  1  0
 13 10  1  0
 14 10  1  0
 14 13  1  0
 15 12  1  0
 15 14  1  0
M  END
>  <ID>  (1) 
conformer_0

$$$$
