
     RDKit          3D

 14 16  0  0  0  0  0  0  0  0999 V2000
   61.7612   50.4832  109.3602 C   0  0  0  0  0  0  0  0  0  0  0  0
   62.3611   51.7832  109.3602 C   0  0  0  0  0  0  0  0  0  0  0  0
   62.2612   52.8832  108.4602 C   0  0  0  0  0  0  0  0  0  0  0  0
   63.4612   53.2832  108.0602 O   0  0  0  0  0  0  0  0  0  0  0  0
   63.1611   52.1832  110.4602 C   0  0  0  0  0  0  0  0  0  0  0  0
   62.4612   49.6832  110.3602 C   0  0  0  0  0  0  0  0  0  0  0  0
   63.6611   53.4832  110.4602 N   0  0  0  0  0  0  0  0  0  0  0  0
   63.3612   49.9832  111.3602 C   0  0  0  0  0  0  0  0  0  0  0  0
   64.0611   51.1832  111.0602 C   0  0  0  0  0  0  0  0  0  0  0  0
   62.5611   53.9832  108.6602 C   0  0  0  0  0  3  0  0  0  0  0  0
   63.2611   54.6832  109.8602 C   0  0  0  0  0  0  0  0  0  0  0  0
   63.2611   55.9832  110.0602 C   0  0  0  0  0  0  0  0  0  0  0  0
   62.5611   56.6832  111.0602 N   0  0  0  0  0  0  0  0  0  0  0  0
   64.6611   54.0832  109.9602 N   0  0  0  0  0  0  0  0  0  0  0  0
  2  1  1  0
  3  2  2  0
  4  3  1  0
  5  2  1  0
  6  1  1  0
  7  5  1  0
  8  6  2  0
  9  5  2  0
  9  8  1  0
 10  3  1  0
 10  4  1  0
 11  7  1  0
 11 10  1  0
 12 11  1  0
 13 12  1  0
 14 11  1  0
M  END
>  <ID>  (1) 
conformer_0

$$$$
