
     RDKit          3D

 15 16  0  0  0  0  0  0  0  0999 V2000
   61.1652   50.0696  108.3277 O   0  0  0  0  0  0  0  0  0  0  0  0
   61.9652   50.6696  109.3277 C   0  0  0  0  0  0  0  0  0  0  0  0
   62.4652   50.0696  110.4277 C   0  0  0  0  0  0  0  0  0  0  0  0
   62.1652   52.0696  109.1277 C   0  0  0  0  0  0  0  0  0  0  0  0
   61.9652   52.5696  107.9277 O   0  0  0  0  0  0  0  0  0  0  0  0
   63.0652   52.7696  110.0277 C   0  0  0  0  0  0  0  0  0  0  0  0
   63.5652   50.5696  111.1277 C   0  0  0  0  0  0  0  0  0  0  0  0
   63.8652   52.0696  110.8277 C   0  0  0  0  0  0  0  0  0  0  0  0
   62.9652   54.1696  110.0277 N   0  0  0  0  0  0  0  0  0  0  0  0
   63.9652   54.8696  110.8277 C   0  0  0  0  0  0  0  0  0  0  0  0
   62.1652   54.8696  109.0277 C   0  0  0  0  0  0  0  0  0  0  0  0
   63.9652   56.3696  110.8277 C   0  0  0  0  0  0  0  0  0  0  0  0
   62.6652   56.7696  110.7277 N   0  0  0  0  0  0  0  0  0  0  0  0
   60.8652   54.7696  109.0277 O   0  0  0  0  0  0  0  0  0  0  0  0
   62.2652   56.4696  109.3277 C   0  0  0  0  0  0  0  0  0  0  0  0
  2  1  1  0
  3  2  2  0
  4  2  1  0
  5  4  1  0
  6  4  2  0
  7  3  1  0
  8  6  1  0
  8  7  2  0
  9  6  1  0
 10  9  1  0
 11  9  1  0
 12 10  1  0
 13 12  1  0
 14 11  1  0
 15 11  1  0
 15 13  1  0
M  END
>  <ID>  (1) 
conformer_0

$$$$
