
     RDKit          3D

 16 17  0  0  0  0  0  0  0  0999 V2000
   60.7478   51.9470  110.6513 O   0  0  0  0  0  0  0  0  0  0  0  0
   61.9478   51.7470  110.0513 C   0  0  0  0  0  0  0  0  0  0  0  0
   61.9478   50.5470  109.1513 C   0  0  0  0  0  0  0  0  0  0  0  0
   62.5478   52.8470  109.2513 C   0  0  0  0  0  0  0  0  0  0  0  0
   61.2478   50.3470  108.0513 O   0  0  0  0  0  0  0  0  0  0  0  0
   62.0478   52.6470  107.8513 O   0  0  0  0  0  0  0  0  0  0  0  0
   62.4478   54.1470  109.6513 N   0  0  0  0  0  0  0  0  0  0  0  0
   63.4478   55.1470  110.0513 C   0  0  0  0  0  0  0  0  0  0  0  0
   63.8478   55.6470  111.2513 C   0  0  0  0  0  0  0  0  0  0  0  0
   64.0478   56.8470  111.8513 C   0  0  0  0  0  0  0  0  0  0  0  0
   64.1478   57.9470  110.8513 C   0  0  0  0  0  0  0  0  0  0  0  0
   64.1478   57.3470  109.6513 O   0  0  0  0  0  0  0  0  0  0  0  0
   62.5478   49.4470  109.9513 C   0  0  0  0  0  0  0  0  0  0  0  0
   64.7478   54.9470  110.5513 O   0  0  0  0  0  0  0  0  0  0  0  0
   62.6478   49.6470  111.3513 C   0  0  0  0  0  0  0  0  0  0  0  0
   61.4478   49.3470  110.9513 O   0  0  0  0  0  0  0  0  0  0  0  0
  2  1  1  0
  3  2  1  0
  4  2  1  0
  5  3  1  0
  6  4  1  0
  7  4  1  0
  8  7  1  0
  9  8  1  0
 10  9  1  0
 11 10  1  0
 12 11  1  0
 13  3  1  0
 14  8  1  0
 14  9  1  0
 15 13  1  0
 16 13  1  0
 16 15  1  0
M  END
>  <ID>  (1) 
conformer_0

$$$$
