
     RDKit          3D

 14 16  0  0  0  0  0  0  0  0999 V2000
   61.1652   50.0696  108.3277 O   0  0  0  0  0  0  0  0  0  0  0  0
   61.8652   50.7696  109.3277 C   0  0  0  0  0  0  0  0  0  0  0  0
   62.4652   49.8696  110.3277 C   0  0  0  0  0  0  0  0  0  0  0  0
   62.3652   52.0696  109.1277 C   0  0  0  0  0  0  0  0  0  0  0  0
   62.0652   52.6696  108.0277 O   0  0  0  0  0  0  0  0  0  0  0  0
   63.2652   52.5696  110.1277 C   0  0  0  0  0  0  0  0  0  0  0  0
   63.5652   50.3696  111.0277 C   0  0  0  0  0  0  0  0  0  0  0  0
   63.8652   51.6696  111.0277 C   0  0  0  0  0  0  0  0  0  0  0  0
   63.3652   53.9696  110.1277 N   0  0  0  0  0  0  0  0  0  0  0  0
   64.0652   54.8696  110.8277 C   0  0  0  0  0  0  0  0  0  0  0  0
   63.7652   56.2696  110.8277 C   0  0  0  0  0  0  0  0  0  0  0  0
   62.3652   56.6696  110.8277 N   0  0  0  0  0  0  0  0  0  0  0  0
   64.7652   54.4696  109.6277 C   0  0  0  0  0  0  0  0  0  0  0  0
   63.0652   56.4696  109.6277 C   0  0  0  0  0  0  0  0  0  0  0  0
  2  1  1  0
  3  2  2  0
  4  2  1  0
  5  4  1  0
  6  4  2  0
  7  3  1  0
  8  6  1  0
  8  7  2  0
  9  6  1  0
 10  9  1  0
 11 10  1  0
 12 11  1  0
 13  9  1  0
 13 10  1  0
 14 11  1  0
 14 12  1  0
M  END
>  <ID>  (1) 
conformer_0

$$$$
