
     RDKit          3D

 13 14  0  0  0  0  0  0  0  0999 V2000
   61.6236   50.0886  109.3715 C   0  0  0  0  0  0  0  0  0  0  0  0
   62.4236   49.9886  110.4715 C   0  0  0  0  0  0  0  0  0  0  0  0
   62.3236   49.1886  111.6715 C   0  0  0  0  0  0  0  0  0  0  0  0
   63.3236   51.0886  110.7715 C   0  0  0  0  0  0  0  0  0  0  0  0
   63.1236   52.2886  109.9715 C   0  0  0  0  0  0  0  0  0  0  0  0
   62.2236   52.3886  108.9715 C   0  0  0  0  0  0  0  0  0  0  0  0
   61.4236   51.2886  108.6715 C   0  0  0  0  0  0  0  0  0  0  0  0
   62.0236   53.6886  108.3715 C   0  0  0  0  0  0  0  0  0  0  0  0
   63.0236   54.6886  108.5715 C   0  0  0  0  0  0  0  0  0  0  0  0
   63.7236   53.4886  110.5715 C   0  0  0  0  0  0  0  0  0  0  0  0
   63.9236   54.5886  109.5715 C   0  0  0  0  0  0  0  0  0  0  0  0
   64.2236   55.8886  110.1715 C   0  0  0  0  0  0  0  0  0  0  0  0
   65.1236   55.7886  111.2715 N   0  0  0  0  0  0  0  0  0  0  0  0
  2  1  2  0
  3  2  1  0
  4  2  1  0
  5  4  2  0
  6  5  1  0
  7  1  1  0
  7  6  2  0
  8  6  1  0
  9  8  2  0
 10  5  1  0
 11  9  1  0
 11 10  2  0
 12 11  1  0
 13 12  1  0
M  END
>  <ID>  (1) 
conformer_0

$$$$
