
     RDKit          3D

 13 13  0  0  0  0  0  0  0  0999 V2000
   61.1652   50.0696  108.3277 O   0  0  0  0  0  0  0  0  0  0  0  0
   61.8652   50.7696  109.3277 C   0  0  0  0  0  0  0  0  0  0  0  0
   62.4652   49.8696  110.3277 C   0  0  0  0  0  0  0  0  0  0  0  0
   62.3652   52.0696  109.1277 C   0  0  0  0  0  0  0  0  0  0  0  0
   61.9652   52.6696  108.0277 O   0  0  0  0  0  0  0  0  0  0  0  0
   63.1652   52.7696  110.1277 C   0  0  0  0  0  0  0  0  0  0  0  0
   63.1652   54.0696  110.2277 N   0  0  0  0  0  0  0  0  0  0  0  0
   64.1652   54.8696  110.8277 C   0  0  0  0  0  0  0  0  0  0  0  0
   63.8652   56.0696  111.5277 C   0  0  0  0  0  0  0  0  0  0  0  0
   63.3652   50.5696  111.2277 C   0  0  0  0  0  0  0  0  0  0  0  0
   63.5652   51.8696  111.1277 C   0  0  0  0  0  0  0  0  0  0  0  0
   62.6652   56.8696  111.2277 N   0  0  0  0  0  0  0  0  0  0  0  0
   65.2652   54.9696  109.9277 O   0  0  0  0  0  0  0  0  0  0  0  0
  2  1  1  0
  3  2  2  0
  4  2  1  0
  5  4  1  0
  6  4  2  0
  7  6  1  0
  8  7  1  0
  9  8  1  0
 10  3  1  0
 11  6  1  0
 11 10  2  0
 12  9  1  0
 13  8  2  0
M  END
>  <ID>  (1) 
conformer_0

$$$$
