
     RDKit          3D

 13 14  0  0  0  0  0  0  0  0999 V2000
   61.1652   50.0696  108.3277 O   0  0  0  0  0  0  0  0  0  0  0  0
   61.8652   50.3696  109.5277 C   0  0  0  0  0  0  0  0  0  0  0  0
   62.2652   51.7696  109.6277 C   0  0  0  0  0  0  0  0  0  0  0  0
   62.4652   49.5696  110.5277 C   0  0  0  0  0  0  0  0  0  0  0  0
   62.0652   52.2696  108.2277 O   0  0  0  0  0  0  0  0  0  0  0  0
   63.3652   52.1696  110.3277 C   0  0  0  0  0  0  0  0  0  0  0  0
   63.4652   49.9696  111.4277 C   0  0  0  0  0  0  0  0  0  0  0  0
   63.8652   53.4696  110.3277 N   0  0  0  0  0  0  0  0  0  0  0  0
   64.0652   51.1696  111.1277 C   0  0  0  0  0  0  0  0  0  0  0  0
   63.8652   54.7696  110.8277 C   0  0  0  0  0  0  0  0  0  0  0  0
   63.2652   54.4696  109.5277 C   0  0  0  0  0  0  0  0  0  0  0  0
   63.0652   54.2696  108.3277 O   0  0  0  0  0  0  0  0  0  0  0  0
   63.8652   55.9696  111.4277 C   0  0  0  0  0  0  0  0  0  0  0  0
  2  1  1  0
  3  2  2  0
  4  2  1  0
  5  3  1  0
  6  3  1  0
  7  4  2  0
  8  6  1  0
  9  6  2  0
  9  7  1  0
 10  8  1  0
 11  8  1  0
 11 10  1  0
 12 11  1  0
 13 10  2  0
M  END
>  <ID>  (1) 
conformer_0

$$$$
