
     RDKit          3D

 16 17  0  0  0  0  0  0  0  0999 V2000
   60.6319   52.2692  110.5089 O   0  0  0  0  0  0  0  0  0  0  0  0
   61.9319   51.7692  110.2089 C   0  0  0  0  0  0  0  0  0  0  0  0
   61.8319   50.6692  109.2089 C   0  0  0  0  0  0  0  0  0  0  0  0
   60.6319   50.0692  109.2089 O   0  0  0  0  0  0  0  0  0  0  0  0
   63.1319   52.5692  109.9089 C   0  0  0  0  0  0  0  0  0  0  0  0
   63.2319   53.8692  110.5089 N   0  0  0  0  0  0  0  0  0  0  0  0
   64.0319   54.9692  110.5089 C   0  0  0  0  0  0  0  0  0  0  0  0
   63.9319   55.9692  111.6089 C   0  0  0  0  0  0  0  0  0  0  0  0
   64.6319   55.3692  109.2089 C   0  0  0  0  0  0  0  0  0  0  0  0
   63.8319   55.0692  108.1089 O   0  0  0  0  0  0  0  0  0  0  0  0
   64.4319   53.9692  108.4089 C   0  0  0  0  0  0  0  0  0  0  0  0
   62.3319   53.8692  109.4089 C   0  0  0  0  0  0  0  0  0  0  0  0
   61.6319   54.8692  109.1089 O   0  0  0  0  0  0  0  0  0  0  0  0
   61.7319   51.3692  107.9089 O   0  0  0  0  0  0  0  0  0  0  0  0
   65.2319   53.1692  109.3089 O   0  0  0  0  0  0  0  0  0  0  0  0
   62.7319   56.6692  111.2089 O   0  0  0  0  0  0  0  0  0  0  0  0
  2  1  1  0
  3  2  1  0
  4  3  1  0
  5  2  1  0
  6  5  1  0
  7  6  1  0
  8  7  1  0
  9  7  1  0
 10  9  1  0
 11  9  1  0
 11 10  1  0
 12  5  1  0
 12  6  1  0
 13 12  2  0
 14  3  1  0
 15 11  1  0
 16  8  1  0
M  END
>  <ID>  (1) 
conformer_0

$$$$
