
     RDKit          3D

 16 16  0  0  0  0  0  0  0  0999 V2000
   61.1652   50.0696  108.3277 O   0  0  0  0  0  0  0  0  0  0  0  0
   61.9652   50.6696  109.3277 C   0  0  0  0  0  0  0  0  0  0  0  0
   62.4652   50.0696  110.4277 C   0  0  0  0  0  0  0  0  0  0  0  0
   62.1652   52.0696  109.1277 C   0  0  0  0  0  0  0  0  0  0  0  0
   61.9652   52.5696  107.9277 O   0  0  0  0  0  0  0  0  0  0  0  0
   63.1652   52.6696  110.0277 C   0  0  0  0  0  0  0  0  0  0  0  0
   63.6652   50.5696  111.0277 C   0  0  0  0  0  0  0  0  0  0  0  0
   63.8652   51.9696  110.9277 C   0  0  0  0  0  0  0  0  0  0  0  0
   63.3652   54.0696  109.9277 N   0  0  0  0  0  0  0  0  0  0  0  0
   63.9652   54.9696  110.9277 C   0  0  0  0  0  0  0  0  0  0  0  0
   63.7652   56.3696  110.6277 C   0  0  0  0  0  0  0  0  0  0  0  0
   62.3652   56.7696  110.9277 N   0  0  0  0  0  0  0  0  0  0  0  0
   62.3652   54.8696  109.2277 C   0  0  0  0  0  0  0  0  0  0  0  0
   62.5652   55.2696  108.0277 O   0  0  0  0  0  0  0  0  0  0  0  0
   61.4652   57.1696  109.8277 C   0  0  0  0  0  0  0  0  0  0  0  0
   60.9652   54.6696  109.5277 O   0  0  0  0  0  0  0  0  0  0  0  0
  2  1  1  0
  3  2  2  0
  4  2  1  0
  5  4  1  0
  6  4  2  0
  7  3  1  0
  8  6  1  0
  8  7  2  0
  9  6  1  0
 10  9  1  0
 11 10  1  0
 12 11  1  0
 13  9  1  0
 14 13  2  0
 15 12  1  0
 16 13  1  0
M  END
>  <ID>  (1) 
conformer_0

$$$$
