
     RDKit          3D

 14 16  0  0  0  0  0  0  0  0999 V2000
   61.7612   50.4832  109.3602 C   0  0  0  0  0  0  0  0  0  0  0  0
   62.3611   51.7832  109.3602 C   0  0  0  0  0  0  0  0  0  0  0  0
   62.2612   52.8832  108.4602 C   0  0  0  0  0  0  0  0  0  0  0  0
   62.1612   54.0832  109.1602 N   0  0  0  0  0  0  0  0  0  0  0  0
   63.1611   52.1832  110.5602 C   0  0  0  0  0  0  0  0  0  0  0  0
   63.4612   53.6832  108.6602 C   0  0  0  0  0  0  0  0  0  0  0  0
   61.6612   55.2832  108.7602 C   0  0  0  0  0  0  0  0  0  0  0  0
   62.5611   49.6832  110.2602 C   0  0  0  0  0  0  0  0  0  0  0  0
   63.4612   49.8832  111.1602 C   0  0  0  0  0  0  0  0  0  0  0  0
   64.2612   53.5832  107.7602 O   0  0  0  0  0  0  0  0  0  0  0  0
   64.1611   53.0832  109.9602 N   0  0  0  0  0  0  0  0  0  0  0  0
   62.1612   56.4832  109.4602 C   0  0  0  0  0  0  0  0  0  0  0  0
   62.8612   56.3832  110.6602 N   0  0  0  0  0  0  0  0  0  0  0  0
   63.8611   51.2832  111.2602 C   0  0  0  0  0  0  0  0  0  0  0  0
  2  1  2  0
  3  2  1  0
  4  3  1  0
  5  2  1  0
  6  3  1  0
  6  4  1  0
  7  4  1  0
  8  1  1  0
  9  8  2  0
 10  6  1  0
 11  5  1  0
 11  6  1  0
 12  7  2  3
 13 12  1  0
 14  5  2  0
 14  9  1  0
M  END
>  <ID>  (1) 
conformer_0

$$$$
