
     RDKit          3D

 11 11  0  0  0  0  0  0  0  0999 V2000
   61.8660   50.1947  109.2846 C   0  0  0  0  0  0  0  0  0  0  0  0
   62.5660   49.7947  110.3846 C   0  0  0  0  0  0  0  0  0  0  0  0
   62.1660   49.1947  111.5846 C   0  0  0  0  0  0  0  0  0  0  0  0
   61.9660   51.4947  108.6846 C   0  0  0  0  0  0  0  0  0  0  0  0
   62.4660   52.3947  109.6846 C   0  0  0  0  0  0  0  0  0  0  0  0
   63.7660   52.0947  110.1846 C   0  0  0  0  0  0  0  0  0  0  0  0
   63.7660   50.7947  110.7846 C   0  0  0  0  0  0  0  0  0  0  0  0
   62.3660   53.7947  109.1846 C   0  0  0  0  0  0  0  0  0  0  0  0
   61.0660   54.3947  109.0846 N   0  0  0  0  0  0  0  0  0  0  0  0
   63.4660   54.5947  109.5846 C   0  0  0  0  0  0  0  0  0  0  0  0
   63.7660   55.6947  108.6846 O   0  0  0  0  0  0  0  0  0  0  0  0
  2  1  2  0
  3  2  1  0
  4  1  1  0
  5  4  2  0
  6  5  1  0
  7  2  1  0
  7  6  2  0
  8  5  1  0
  9  8  1  0
 10  8  1  0
 11 10  1  0
M  END
>  <ID>  (1) 
conformer_0

$$$$
