
     RDKit          3D

 13 14  0  0  0  0  0  0  0  0999 V2000
   61.1652   50.0696  108.3277 O   0  0  0  0  0  0  0  0  0  0  0  0
   61.9652   50.6696  109.3277 C   0  0  0  0  0  0  0  0  0  0  0  0
   62.2652   51.9696  109.4277 C   0  0  0  0  0  0  0  0  0  0  0  0
   62.3652   49.8696  110.4277 C   0  0  0  0  0  0  0  0  0  0  0  0
   62.1652   52.7696  108.2277 O   0  0  0  0  0  0  0  0  0  0  0  0
   63.2652   52.3696  110.3277 C   0  0  0  0  0  0  0  0  0  0  0  0
   63.3652   50.1696  111.3277 C   0  0  0  0  0  0  0  0  0  0  0  0
   63.9652   53.5696  110.4277 N   0  0  0  0  0  0  0  0  0  0  0  0
   63.9652   54.8696  110.7277 C   0  0  0  0  0  0  0  0  0  0  0  0
   63.5652   54.5696  109.3277 C   0  0  0  0  0  0  0  0  0  0  0  0
   64.0652   54.2696  108.2277 O   0  0  0  0  0  0  0  0  0  0  0  0
   63.8652   51.3696  111.2277 C   0  0  0  0  0  0  0  0  0  0  0  0
   63.8652   56.0696  111.4277 C   0  0  0  0  0  0  0  0  0  0  0  0
  2  1  1  0
  3  2  2  0
  4  2  1  0
  5  3  1  0
  6  3  1  0
  7  4  2  0
  8  6  1  0
  9  8  1  0
 10  8  1  0
 10  9  1  0
 11 10  1  0
 12  6  2  0
 12  7  1  0
 13  9  1  0
M  END
>  <ID>  (1) 
conformer_0

$$$$
