
     RDKit          3D

 15 18  0  0  0  0  0  0  0  0999 V2000
   61.7612   50.4832  109.3602 C   0  0  0  0  0  0  0  0  0  0  0  0
   62.3611   51.7832  109.3602 C   0  0  0  0  0  0  0  0  0  0  0  0
   62.2612   52.8832  108.4602 C   0  0  0  0  0  0  0  0  0  0  0  0
   62.1612   54.0832  109.1602 N   0  0  0  0  0  0  0  0  0  0  0  0
   63.0611   52.1832  110.5602 C   0  0  0  0  0  0  0  0  0  0  0  0
   63.4612   53.7832  108.7602 C   0  0  0  0  0  0  0  0  0  0  0  0
   62.3611   49.6832  110.4602 C   0  0  0  0  0  0  0  0  0  0  0  0
   63.3611   49.8832  111.3602 C   0  0  0  0  0  0  0  0  0  0  0  0
   61.5612   55.2832  108.8602 C   0  0  0  0  0  0  0  0  0  0  0  0
   64.0611   54.1832  107.6602 O   0  0  0  0  0  0  0  0  0  0  0  0
   63.9612   53.2832  110.1602 N   0  0  0  0  0  0  0  0  0  0  0  0
   63.6611   51.2832  111.4602 C   0  0  0  0  0  0  0  0  0  0  0  0
   62.0612   56.4832  109.5602 C   0  0  0  0  0  0  0  0  0  0  0  0
   62.6612   56.5832  110.7602 N   0  0  0  0  0  0  0  0  0  0  0  0
   62.6612   56.0832  108.2602 C   0  0  0  0  0  0  0  0  0  0  0  0
  2  1  2  0
  3  2  1  0
  4  3  1  0
  5  2  1  0
  6  3  1  0
  6  4  1  0
  7  1  1  0
  8  7  2  0
  9  4  1  0
 10  6  1  0
 11  5  1  0
 11  6  1  0
 12  5  2  0
 12  8  1  0
 13  9  1  0
 14 13  1  0
 15  9  1  0
 15 13  1  0
M  END
>  <ID>  (1) 
conformer_0

$$$$
