
     RDKit          3D

 16 17  0  0  0  0  0  0  0  0999 V2000
   61.1652   50.0696  108.3277 O   0  0  0  0  0  0  0  0  0  0  0  0
   61.9652   50.6696  109.3277 C   0  0  0  0  0  0  0  0  0  0  0  0
   62.4652   50.0696  110.4277 C   0  0  0  0  0  0  0  0  0  0  0  0
   62.1652   52.0696  109.1277 C   0  0  0  0  0  0  0  0  0  0  0  0
   61.8652   52.5696  107.8277 O   0  0  0  0  0  0  0  0  0  0  0  0
   63.1652   52.6696  110.0277 C   0  0  0  0  0  0  0  0  0  0  0  0
   63.6652   50.5696  111.0277 C   0  0  0  0  0  0  0  0  0  0  0  0
   63.9652   51.9696  110.8277 C   0  0  0  0  0  0  0  0  0  0  0  0
   63.1652   54.0696  109.9277 N   0  0  0  0  0  0  0  0  0  0  0  0
   63.9652   55.0696  110.4277 C   0  0  0  0  0  0  0  0  0  0  0  0
   63.5652   56.4696  110.2277 C   0  0  0  0  0  0  0  0  0  0  0  0
   62.1652   56.6696  110.6277 N   0  0  0  0  0  0  0  0  0  0  0  0
   64.8652   54.6696  111.0277 O   0  0  0  0  0  0  0  0  0  0  0  0
   62.0652   54.5696  109.1277 C   0  0  0  0  0  0  0  0  0  0  0  0
   61.6652   55.7696  108.4277 C   0  0  0  0  0  0  0  0  0  0  0  0
   61.2652   56.8696  109.3277 C   0  0  0  0  0  0  0  0  0  0  0  0
  2  1  1  0
  3  2  2  0
  4  2  1  0
  5  4  1  0
  6  4  2  0
  7  3  1  0
  8  6  1  0
  8  7  2  0
  9  6  1  0
 10  9  1  0
 11 10  1  0
 12 11  1  0
 13 10  2  0
 14  9  1  0
 15 14  1  0
 16 12  1  0
 16 15  1  0
M  END
>  <ID>  (1) 
conformer_0

$$$$
