
     RDKit          3D

 12 13  0  0  0  0  0  0  0  0999 V2000
   60.4958   49.9712  109.5815 O   0  0  0  0  0  0  0  0  0  0  0  0
   61.7958   50.2712  109.2815 C   0  0  0  0  0  0  0  0  0  0  0  0
   62.0958   51.6712  109.3815 C   0  0  0  0  0  0  0  0  0  0  0  0
   61.0958   52.2712  110.2815 O   0  0  0  0  0  0  0  0  0  0  0  0
   62.4958   52.6712  108.3815 C   0  0  0  0  0  0  0  0  0  0  0  0
   63.5958   53.5712  108.5815 C   0  0  0  0  0  0  0  0  0  0  0  0
   64.1958   53.8712  107.5815 O   0  0  0  0  0  0  0  0  0  0  0  0
   62.3958   53.9712  109.0815 N   0  0  0  0  0  0  0  0  0  0  0  0
   61.5958   55.0712  108.5815 C   0  0  0  0  0  0  0  0  0  0  0  0
   62.5958   49.6712  110.3815 C   0  0  0  0  0  0  0  0  0  0  0  0
   61.7958   49.7712  111.5815 O   0  0  0  0  0  0  0  0  0  0  0  0
   63.0958   50.3712  111.3815 C   0  0  0  0  0  0  0  0  0  0  0  0
  2  1  1  0
  3  2  1  0
  4  3  1  0
  5  3  1  0
  6  5  1  0
  7  6  2  0
  8  5  1  0
  8  6  1  0
  9  8  1  0
 10  2  1  0
 11 10  1  0
 12 10  1  0
 12 11  1  0
M  END
>  <ID>  (1) 
conformer_0

$$$$
