
     RDKit          3D

 11 11  0  0  0  0  0  0  0  0999 V2000
   61.6236   50.0886  109.3715 C   0  0  0  0  0  0  0  0  0  0  0  0
   62.4236   49.9886  110.4715 C   0  0  0  0  0  0  0  0  0  0  0  0
   62.3236   49.1886  111.6715 C   0  0  0  0  0  0  0  0  0  0  0  0
   63.3236   51.0886  110.7715 C   0  0  0  0  0  0  0  0  0  0  0  0
   62.9236   52.3886  110.1715 C   0  0  0  0  0  0  0  0  0  0  0  0
   62.4236   52.3886  108.9715 C   0  0  0  0  0  0  0  0  0  0  0  0
   61.6236   51.2886  108.5715 C   0  0  0  0  0  0  0  0  0  0  0  0
   62.0236   53.6886  108.3715 C   0  0  0  0  0  0  0  0  0  0  0  0
   60.9236   53.7886  107.5715 O   0  0  0  0  0  0  0  0  0  0  0  0
   62.8236   54.6886  108.4715 O   0  0  0  0  0  0  0  0  0  0  0  0
   64.5236   50.8886  111.3715 O   0  0  0  0  0  0  0  0  0  0  0  0
  2  1  2  0
  3  2  1  0
  4  2  1  0
  5  4  2  0
  6  5  1  0
  7  1  1  0
  7  6  2  0
  8  6  1  0
  9  8  2  0
 10  8  1  0
 11  4  1  0
M  END
>  <ID>  (1) 
conformer_0

$$$$
