
     RDKit          3D

 15 17  0  0  0  0  0  0  0  0999 V2000
   61.7612   50.4832  109.3602 C   0  0  0  0  0  0  0  0  0  0  0  0
   62.3611   51.7832  109.3602 C   0  0  0  0  0  0  0  0  0  0  0  0
   62.2612   52.8832  108.4602 C   0  0  0  0  0  0  0  0  0  0  0  0
   63.4612   53.2832  108.0602 O   0  0  0  0  0  0  0  0  0  0  0  0
   63.1611   52.1832  110.4602 C   0  0  0  0  0  0  0  0  0  0  0  0
   62.4612   49.6832  110.3602 C   0  0  0  0  0  0  0  0  0  0  0  0
   63.6611   53.4832  110.4602 N   0  0  0  0  0  0  0  0  0  0  0  0
   63.3612   49.9832  111.3602 C   0  0  0  0  0  0  0  0  0  0  0  0
   63.9612   51.2832  111.1602 C   0  0  0  0  0  0  0  0  0  0  0  0
   61.3611   53.8832  108.8602 N   0  0  0  0  0  0  0  0  0  0  0  0
   63.3611   54.6832  109.9602 C   0  0  0  0  0  0  0  0  0  0  0  0
   63.7612   55.8832  110.7602 C   0  0  0  0  0  0  0  0  0  0  0  0
   62.9612   57.0832  110.3602 C   0  0  0  0  0  0  0  0  0  0  0  0
   61.9612   56.5832  109.3602 C   0  0  0  0  0  0  0  0  0  0  0  0
   62.1612   55.1832  108.9602 C   0  0  0  0  0  0  0  0  0  0  0  0
  2  1  2  0
  3  2  1  0
  4  3  2  0
  5  2  1  0
  6  1  1  0
  7  5  1  0
  8  6  2  0
  9  5  2  0
  9  8  1  0
 10  3  1  0
 11  7  1  0
 12 11  1  0
 13 12  1  0
 14 13  2  0
 15 10  1  0
 15 11  1  0
 15 14  1  0
M  END
>  <ID>  (1) 
conformer_0

$$$$
