
     RDKit          3D

 15 17  0  0  0  0  0  0  0  0999 V2000
   61.1969   49.9420  108.3530 O   0  0  0  0  0  0  0  0  0  0  0  0
   62.0969   50.5420  109.2530 C   0  0  0  0  0  0  0  0  0  0  0  0
   62.4969   49.8420  110.3530 C   0  0  0  0  0  0  0  0  0  0  0  0
   62.0969   51.9420  109.1530 C   0  0  0  0  0  0  0  0  0  0  0  0
   61.8969   52.4420  107.8530 O   0  0  0  0  0  0  0  0  0  0  0  0
   63.0969   52.6420  109.9530 C   0  0  0  0  0  0  0  0  0  0  0  0
   63.4969   50.4420  111.1530 C   0  0  0  0  0  0  0  0  0  0  0  0
   63.5969   51.8420  111.0530 C   0  0  0  0  0  0  0  0  0  0  0  0
   62.8969   54.0420  110.0530 N   0  0  0  0  0  0  0  0  0  0  0  0
   63.6969   54.9420  110.5530 C   0  0  0  0  0  0  0  0  0  0  0  0
   63.4969   56.2420  111.2530 C   0  0  0  0  0  0  0  0  0  0  0  0
   62.1969   56.7420  110.8530 N   0  0  0  0  0  0  0  0  0  0  0  0
   63.1969   55.1420  109.1530 C   0  0  0  0  0  0  0  0  0  0  0  0
   61.9969   56.3420  109.4530 C   0  0  0  0  0  0  0  0  0  0  0  0
   63.2969   54.8420  107.9530 O   0  0  0  0  0  0  0  0  0  0  0  0
  2  1  1  0
  3  2  2  0
  4  2  1  0
  5  4  1  0
  6  4  2  0
  7  3  1  0
  8  6  1  0
  8  7  2  0
  9  6  1  0
 10  9  1  0
 11 10  1  0
 12 11  1  0
 13  9  1  0
 13 10  1  0
 14 12  1  0
 14 13  1  0
 15 13  1  0
M  END
>  <ID>  (1) 
conformer_0

$$$$
