
     RDKit          3D

 13 13  0  0  0  0  0  0  0  0999 V2000
   60.6805   49.8903  107.9695 O   0  0  0  0  0  0  0  0  0  0  0  0
   61.5805   50.1903  109.0695 C   0  0  0  0  0  0  0  0  0  0  0  0
   62.0805   51.4903  109.2695 C   0  0  0  0  0  0  0  0  0  0  0  0
   61.8805   52.2903  108.0695 O   0  0  0  0  0  0  0  0  0  0  0  0
   62.7805   51.8903  110.3695 C   0  0  0  0  0  0  0  0  0  0  0  0
   63.4805   50.7903  111.0695 C   0  0  0  0  0  0  0  0  0  0  0  0
   63.0805   49.4903  110.7695 C   0  0  0  0  0  0  0  0  0  0  0  0
   63.6805   52.9903  110.2695 C   0  0  0  0  0  0  0  0  0  0  0  0
   63.8805   53.8903  111.1695 N   0  0  0  0  0  0  0  0  0  0  0  0
   61.6805   49.4903  110.3695 C   0  0  0  0  0  0  0  0  0  0  0  0
   63.8805   55.3903  111.1695 C   0  0  0  0  0  0  0  0  0  0  0  0
   64.0805   55.9903  109.8695 C   0  0  0  0  0  0  0  0  0  0  0  0
   65.0805   55.2903  109.1695 O   0  0  0  0  0  0  0  0  0  0  0  0
  2  1  1  0
  3  2  2  0
  4  3  1  0
  5  3  1  0
  6  5  2  0
  7  6  1  0
  8  5  1  0
  9  8  1  0
 10  2  1  0
 10  7  2  0
 11  9  1  0
 12 11  1  0
 13 12  1  0
M  END
>  <ID>  (1) 
conformer_0

$$$$
