
     RDKit          3D

 15 16  0  0  0  0  0  0  0  0999 V2000
   61.4634   49.9386  108.4751 O   0  0  0  0  0  0  0  0  0  0  0  0
   61.9634   50.7386  109.3751 C   0  0  0  0  0  0  0  0  0  0  0  0
   62.1634   52.1386  109.1751 C   0  0  0  0  0  0  0  0  0  0  0  0
   61.7634   52.5386  107.8751 O   0  0  0  0  0  0  0  0  0  0  0  0
   62.1634   50.2386  110.6751 C   0  0  0  0  0  0  0  0  0  0  0  0
   63.0634   52.9386  109.8751 C   0  0  0  0  0  0  0  0  0  0  0  0
   62.9634   54.3386  109.9751 N   0  0  0  0  0  0  0  0  0  0  0  0
   63.7634   55.2386  110.5751 C   0  0  0  0  0  0  0  0  0  0  0  0
   63.1634   56.5386  110.9751 C   0  0  0  0  0  0  0  0  0  0  0  0
   63.4634   52.2386  111.0751 C   0  0  0  0  0  0  0  0  0  0  0  0
   63.5634   50.8386  111.0751 C   0  0  0  0  0  0  0  0  0  0  0  0
   64.0634   55.1386  109.1751 C   0  0  0  0  0  0  0  0  0  0  0  0
   63.7634   55.9386  108.2751 O   0  0  0  0  0  0  0  0  0  0  0  0
   61.8634   49.1386  111.2751 O   0  0  0  0  0  0  0  0  0  0  0  0
   61.8634   56.8386  110.4751 N   0  0  0  0  0  0  0  0  0  0  0  0
  2  1  1  0
  3  2  2  0
  4  3  1  0
  5  2  1  0
  6  3  1  0
  7  6  1  0
  8  7  1  0
  9  8  1  0
 10  6  2  0
 11  5  2  0
 11 10  1  0
 12  7  1  0
 12  8  1  0
 13 12  1  0
 14  5  1  0
 15  9  1  0
M  END
>  <ID>  (1) 
conformer_0

$$$$
