
     RDKit          3D

 16 17  0  0  0  0  0  0  0  0999 V2000
   61.6236   50.0886  109.3715 C   0  0  0  0  0  0  0  0  0  0  0  0
   62.4236   49.9886  110.4715 C   0  0  0  0  0  0  0  0  0  0  0  0
   62.3236   49.1886  111.6715 C   0  0  0  0  0  0  0  0  0  0  0  0
   63.3236   51.0886  110.7715 C   0  0  0  0  0  0  0  0  0  0  0  0
   63.1236   52.2886  109.9715 C   0  0  0  0  0  0  0  0  0  0  0  0
   62.3236   52.2886  108.8715 C   0  0  0  0  0  0  0  0  0  0  0  0
   61.4236   51.1886  108.5715 C   0  0  0  0  0  0  0  0  0  0  0  0
   62.1236   53.5886  108.2715 C   0  0  0  0  0  0  0  0  0  0  0  0
   63.7236   53.5886  110.2715 C   0  0  0  0  0  0  0  0  0  0  0  0
   63.3236   54.3886  108.0715 C   0  0  0  0  0  0  0  0  0  0  0  0
   64.2236   54.2886  109.0715 C   0  0  0  0  0  0  0  0  0  0  0  0
   65.0236   55.4886  109.4715 C   0  0  0  0  0  0  0  0  0  0  0  0
   65.7236   55.9886  108.3715 O   0  0  0  0  0  0  0  0  0  0  0  0
   64.4236   55.8886  110.7715 C   0  0  0  0  0  0  0  0  0  0  0  0
   63.0236   56.2886  110.8715 N   0  0  0  0  0  0  0  0  0  0  0  0
   64.1236   53.6886  111.4715 O   0  0  0  0  0  0  0  0  0  0  0  0
  2  1  2  0
  3  2  1  0
  4  2  1  0
  5  4  2  0
  6  5  1  0
  7  1  1  0
  7  6  2  0
  8  6  1  0
  9  5  1  0
 10  8  1  0
 11  9  1  0
 11 10  1  0
 12 11  1  0
 13 12  1  0
 14 12  1  0
 15 14  1  0
 16  9  2  0
M  END
>  <ID>  (1) 
conformer_0

$$$$
