
     RDKit          3D

 15 17  0  0  0  0  0  0  0  0999 V2000
   61.7612   50.4832  109.3602 C   0  0  0  0  0  0  0  0  0  0  0  0
   62.3611   51.7832  109.3602 C   0  0  0  0  0  0  0  0  0  0  0  0
   62.2612   52.8832  108.4602 C   0  0  0  0  0  0  0  0  0  0  0  0
   63.4612   53.2832  108.0602 O   0  0  0  0  0  0  0  0  0  0  0  0
   63.1611   52.1832  110.4602 C   0  0  0  0  0  0  0  0  0  0  0  0
   62.4612   49.6832  110.3602 C   0  0  0  0  0  0  0  0  0  0  0  0
   63.6611   53.4832  110.4602 N   0  0  0  0  0  0  0  0  0  0  0  0
   64.0611   53.7832  109.1602 C   0  0  0  0  0  0  0  0  0  0  0  0
   63.5611   49.8832  111.1602 C   0  0  0  0  0  0  0  0  0  0  0  0
   63.9611   51.2832  111.1602 C   0  0  0  0  0  0  0  0  0  0  0  0
   63.2611   54.6832  109.8602 C   0  0  0  0  0  0  0  0  0  0  0  0
   63.7611   55.8832  110.5602 C   0  0  0  0  0  0  0  0  0  0  0  0
   62.6611   56.7832  110.9602 N   0  0  0  0  0  0  0  0  0  0  0  0
   61.1612   53.3832  107.6602 N   0  0  0  0  0  0  0  0  0  0  0  0
   63.1611   58.0832  111.4602 C   0  0  0  0  0  0  0  0  0  0  0  0
  2  1  1  0
  3  2  2  0
  4  3  1  0
  5  2  1  0
  6  1  1  0
  7  5  1  0
  8  4  1  0
  8  7  1  0
  9  6  2  0
 10  5  2  0
 10  9  1  0
 11  7  1  0
 11  8  1  0
 12 11  1  0
 13 12  1  0
 14  3  1  0
 15 13  1  0
M  END
>  <ID>  (1) 
conformer_0

$$$$
