
     RDKit          3D

  5  4  0  0  0  0  0  0  0  0999 V2000
   61.4250   49.9402  109.0306 C   0  0  0  0  0  0  0  0  0  0  0  0
   60.9250   50.1402  107.9306 O   0  0  0  0  0  0  0  0  0  0  0  0
   62.0250   50.6402  110.1306 C   0  0  0  0  0  0  0  0  0  0  0  0
   61.1250   51.7402  110.5306 O   0  0  0  0  0  0  0  0  0  0  0  0
   62.5250   49.8402  111.2306 C   0  0  0  0  0  0  0  0  0  0  0  0
  2  1  2  0
  3  1  1  0
  4  3  1  0
  5  3  1  0
M  END
>  <ID>  (1) 
conformer_0

$$$$
