
     RDKit          3D

 16 17  0  0  0  0  0  0  0  0999 V2000
   60.6805   49.8903  107.9695 O   0  0  0  0  0  0  0  0  0  0  0  0
   61.5805   50.1903  109.0695 C   0  0  0  0  0  0  0  0  0  0  0  0
   62.0805   51.4903  109.2695 C   0  0  0  0  0  0  0  0  0  0  0  0
   61.8805   52.2903  108.0695 O   0  0  0  0  0  0  0  0  0  0  0  0
   62.7805   51.8903  110.3695 C   0  0  0  0  0  0  0  0  0  0  0  0
   63.4805   50.7903  111.0695 C   0  0  0  0  0  0  0  0  0  0  0  0
   63.0805   49.4903  110.7695 C   0  0  0  0  0  0  0  0  0  0  0  0
   63.6805   52.9903  110.2695 C   0  0  0  0  0  0  0  0  0  0  0  0
   63.8805   53.8903  111.1695 N   0  0  0  0  0  0  0  0  0  0  0  0
   61.6805   49.4903  110.3695 C   0  0  0  0  0  0  0  0  0  0  0  0
   63.8805   55.3903  111.1695 C   0  0  0  0  0  0  0  0  0  0  0  0
   63.1805   56.0903  110.1695 C   0  0  0  0  0  0  0  0  0  0  0  0
   62.4805   57.3903  110.3695 C   0  0  0  0  0  0  0  0  0  0  0  0
   62.2805   55.1903  109.4695 N   0  0  0  0  0  0  0  0  0  0  0  0
   61.1805   55.8903  108.8695 C   0  0  0  0  0  0  0  0  0  0  0  0
   61.3805   57.3903  109.3695 C   0  0  0  0  0  0  0  0  0  0  0  0
  2  1  1  0
  3  2  2  0
  4  3  1  0
  5  3  1  0
  6  5  2  0
  7  6  1  0
  8  5  1  0
  9  8  1  0
 10  2  1  0
 10  7  2  0
 11  9  1  0
 12 11  1  0
 13 12  1  0
 14 12  1  0
 15 14  1  0
 16 13  1  0
 16 15  1  0
M  END
>  <ID>  (1) 
conformer_0

$$$$
