
     RDKit          3D

 14 15  0  0  0  0  0  0  0  0999 V2000
   61.1969   49.9420  108.3530 O   0  0  0  0  0  0  0  0  0  0  0  0
   62.0969   50.5420  109.2530 C   0  0  0  0  0  0  0  0  0  0  0  0
   62.4969   49.8420  110.3530 C   0  0  0  0  0  0  0  0  0  0  0  0
   62.0969   51.9420  109.1530 C   0  0  0  0  0  0  0  0  0  0  0  0
   61.8969   52.5420  107.9530 O   0  0  0  0  0  0  0  0  0  0  0  0
   62.9969   52.6420  110.0530 C   0  0  0  0  0  0  0  0  0  0  0  0
   63.1969   53.9420  109.7530 N   0  0  0  0  0  0  0  0  0  0  0  0
   63.8969   54.7420  110.7530 C   0  0  0  0  0  0  0  0  0  0  0  0
   63.6969   51.9420  110.9530 C   0  0  0  0  0  0  0  0  0  0  0  0
   63.3969   50.5420  111.2530 C   0  0  0  0  0  0  0  0  0  0  0  0
   64.1969   56.1420  110.6530 C   0  0  0  0  0  0  0  0  0  0  0  0
   63.7969   56.6420  109.4530 O   0  0  0  0  0  0  0  0  0  0  0  0
   64.3969   54.3420  109.2530 C   0  0  0  0  0  0  0  0  0  0  0  0
   65.6969   54.6420  109.3530 O   0  0  0  0  0  0  0  0  0  0  0  0
  2  1  1  0
  3  2  2  0
  4  2  1  0
  5  4  1  0
  6  4  2  0
  7  6  1  0
  8  7  1  0
  9  6  1  0
 10  3  1  0
 10  9  2  0
 11  8  1  0
 12 11  1  0
 13  7  1  0
 13  8  1  0
 14 13  1  0
M  END
>  <ID>  (1) 
conformer_0

$$$$
