
     RDKit          3D

 12 12  0  0  0  0  0  0  0  0999 V2000
   61.1969   49.9420  108.3530 O   0  0  0  0  0  0  0  0  0  0  0  0
   62.0969   50.5420  109.2530 C   0  0  0  0  0  0  0  0  0  0  0  0
   62.4969   49.8420  110.3530 C   0  0  0  0  0  0  0  0  0  0  0  0
   62.0969   51.9420  109.1530 C   0  0  0  0  0  0  0  0  0  0  0  0
   61.8969   52.4420  107.8530 O   0  0  0  0  0  0  0  0  0  0  0  0
   63.0969   52.6420  109.9530 C   0  0  0  0  0  0  0  0  0  0  0  0
   63.4969   50.4420  111.1530 C   0  0  0  0  0  0  0  0  0  0  0  0
   63.5969   51.8420  111.0530 C   0  0  0  0  0  0  0  0  0  0  0  0
   62.9969   54.0420  109.9530 N   0  0  0  0  0  0  0  0  0  0  0  0
   63.8969   54.7420  110.7530 C   0  0  0  0  0  0  0  0  0  0  0  0
   64.0969   56.1420  110.8530 C   0  0  0  0  0  0  0  0  0  0  0  0
   62.7969   56.6420  111.2530 N   0  0  0  0  0  0  0  0  0  0  0  0
  2  1  1  0
  3  2  2  0
  4  2  1  0
  5  4  1  0
  6  4  2  0
  7  3  1  0
  8  6  1  0
  8  7  2  0
  9  6  1  0
 10  9  2  3
 11 10  1  0
 12 11  1  0
M  END
>  <ID>  (1) 
conformer_0

$$$$
