
     RDKit          3D

  9  9  0  0  0  0  0  0  0  0999 V2000
   62.3960   51.8881  109.5990 C   0  0  0  0  0  0  0  0  0  0  0  0
   61.8960   50.4881  109.3990 C   0  0  0  0  0  0  0  0  0  0  0  0
   61.0960   50.2881  108.2990 O   0  0  0  0  0  0  0  0  0  0  0  0
   61.1960   52.6881  109.9990 O   0  0  0  0  0  0  0  0  0  0  0  0
   63.3960   51.9881  110.6990 C   0  0  0  0  0  0  0  0  0  0  0  0
   63.6960   53.2881  111.1990 O   0  0  0  0  0  0  0  0  0  0  0  0
   63.8960   50.6881  111.0990 C   0  0  0  0  0  0  0  0  0  0  0  0
   61.5960   49.8881  110.6990 C   0  0  0  0  0  0  0  0  0  0  0  0
   62.8960   49.6881  111.3990 O   0  0  0  0  0  0  0  0  0  0  0  0
  2  1  1  0
  3  2  1  0
  4  1  1  0
  5  1  1  0
  6  5  1  0
  7  5  1  0
  8  2  1  0
  9  7  1  0
  9  8  1  0
M  END
>  <ID>  (1) 
conformer_0

$$$$
