
     RDKit          3D

 15 17  0  0  0  0  0  0  0  0999 V2000
   61.1969   49.9420  108.3530 O   0  0  0  0  0  0  0  0  0  0  0  0
   62.0969   50.5420  109.2530 C   0  0  0  0  0  0  0  0  0  0  0  0
   62.4969   49.8420  110.3530 C   0  0  0  0  0  0  0  0  0  0  0  0
   62.1969   51.9420  109.1530 C   0  0  0  0  0  0  0  0  0  0  0  0
   62.0969   52.5420  107.9530 O   0  0  0  0  0  0  0  0  0  0  0  0
   62.9969   52.4420  110.2530 C   0  0  0  0  0  0  0  0  0  0  0  0
   63.5969   50.2420  111.1530 C   0  0  0  0  0  0  0  0  0  0  0  0
   63.9969   51.6420  110.9530 C   0  0  0  0  0  0  0  0  0  0  0  0
   63.1969   53.8420  110.1530 N   0  0  0  0  0  0  0  0  0  0  0  0
   64.0969   54.8420  110.7530 C   0  0  0  0  0  0  0  0  0  0  0  0
   63.6969   56.2420  110.9530 C   0  0  0  0  0  0  0  0  0  0  0  0
   62.2969   56.5420  110.6530 N   0  0  0  0  0  0  0  0  0  0  0  0
   62.0969   56.7420  109.2530 C   0  0  0  0  0  0  0  0  0  0  0  0
   63.3969   54.6420  109.2530 C   0  0  0  0  0  0  0  0  0  0  0  0
   63.2969   55.9420  108.5530 C   0  0  0  0  0  0  0  0  0  0  0  0
  2  1  1  0
  3  2  2  0
  4  2  1  0
  5  4  1  0
  6  4  2  0
  7  3  1  0
  8  6  1  0
  8  7  2  0
  9  6  1  0
 10  9  1  0
 11 10  1  0
 12 11  1  0
 13 12  1  0
 14  9  1  0
 14 10  1  0
 15 13  1  0
 15 14  1  0
M  END
>  <ID>  (1) 
conformer_0

$$$$
