
     RDKit          3D

 15 17  0  0  0  0  0  0  0  0999 V2000
   61.7612   50.4832  109.3602 C   0  0  0  0  0  0  0  0  0  0  0  0
   62.3611   51.7832  109.3602 C   0  0  0  0  0  0  0  0  0  0  0  0
   62.2612   52.8832  108.4602 C   0  0  0  0  0  0  0  0  0  0  0  0
   62.1612   54.0832  109.1602 N   0  0  0  0  0  0  0  0  0  0  0  0
   63.0611   52.1832  110.5602 C   0  0  0  0  0  0  0  0  0  0  0  0
   63.3611   53.7832  108.7602 C   0  0  0  0  0  0  0  0  0  0  0  0
   62.3611   49.5832  110.2602 C   0  0  0  0  0  0  0  0  0  0  0  0
   63.2612   49.8832  111.2602 C   0  0  0  0  0  0  0  0  0  0  0  0
   61.3612   55.1832  108.6602 C   0  0  0  0  0  0  0  0  0  0  0  0
   64.2611   53.7832  107.9602 O   0  0  0  0  0  0  0  0  0  0  0  0
   64.0611   53.1832  110.0602 N   0  0  0  0  0  0  0  0  0  0  0  0
   63.6611   51.2832  111.3602 C   0  0  0  0  0  0  0  0  0  0  0  0
   64.4612   53.8832  111.1602 O   0  0  0  0  0  0  0  0  0  0  0  0
   61.9612   55.9832  107.7602 O   0  0  0  0  0  0  0  0  0  0  0  0
   60.1612   54.7832  108.4602 N   0  0  0  0  0  0  0  0  0  0  0  0
  2  1  2  0
  3  2  1  0
  4  3  1  0
  5  2  1  0
  6  3  1  0
  6  4  1  0
  7  1  1  0
  8  7  2  0
  9  4  1  0
 10  6  1  0
 11  5  1  0
 11  6  1  0
 12  5  2  0
 12  8  1  0
 13 11  1  0
 14  9  2  0
 15  9  1  0
M  END
>  <ID>  (1) 
conformer_0

$$$$
