
     RDKit          3D

 11 10  0  0  0  0  0  0  0  0999 V2000
   61.8971   50.7067  109.7814 C   0  0  0  0  0  0  0  0  0  0  0  0
   60.6971   50.1067  109.9814 O   0  0  0  0  0  0  0  0  0  0  0  0
   62.1971   52.0067  109.2814 C   0  0  0  0  0  0  0  0  0  0  0  0
   61.7971   52.1067  107.8814 O   0  0  0  0  0  0  0  0  0  0  0  0
   63.1971   52.9067  109.8814 C   0  0  0  0  0  0  0  0  0  0  0  0
   63.0971   54.2067  110.4814 N   0  0  0  0  0  0  0  0  0  0  0  0
   64.0971   55.2067  110.5814 C   0  0  0  0  0  0  0  0  0  0  0  0
   63.8971   56.2067  111.6814 C   0  0  0  0  0  0  0  0  0  0  0  0
   64.6971   55.7067  109.3814 C   0  0  0  0  0  0  0  0  0  0  0  0
   63.6971   56.0067  108.3814 O   0  0  0  0  0  0  0  0  0  0  0  0
   62.8971   50.1067  110.6814 C   0  0  0  0  0  0  0  0  0  0  0  0
  2  1  1  0
  3  1  1  0
  4  3  1  0
  5  3  1  0
  6  5  1  0
  7  6  1  0
  8  7  1  0
  9  7  1  0
 10  9  1  0
 11  1  1  0
M  END
>  <ID>  (1) 
conformer_0

$$$$
