
     RDKit          3D

 16 17  0  0  0  0  0  0  0  0999 V2000
   61.7612   50.4832  109.3602 C   0  0  0  0  0  0  0  0  0  0  0  0
   62.3611   51.7832  109.3602 C   0  0  0  0  0  0  0  0  0  0  0  0
   62.2612   52.8832  108.4602 C   0  0  0  0  0  0  0  0  0  0  0  0
   63.4612   53.2832  108.0602 O   0  0  0  0  0  0  0  0  0  0  0  0
   63.3611   52.1832  110.3602 C   0  0  0  0  0  0  0  0  0  0  0  0
   62.3611   49.5832  110.2602 C   0  0  0  0  0  0  0  0  0  0  0  0
   63.0611   49.8832  111.3602 C   0  0  0  0  0  0  0  0  0  0  0  0
   63.5611   53.4832  110.5602 N   0  0  0  0  0  0  0  0  0  0  0  0
   63.7612   51.1832  111.2602 C   0  0  0  0  0  0  0  0  0  0  0  0
   61.5611   53.9832  109.0602 N   0  0  0  0  0  0  0  0  0  0  0  0
   64.0611   53.9832  109.2602 C   0  0  0  0  0  0  0  0  0  0  0  0
   64.7611   55.2832  109.0602 C   0  0  0  0  0  0  0  0  0  0  0  0
   64.3611   56.0832  110.2602 N   0  0  0  0  0  0  0  0  0  0  0  0
   63.5611   55.7832  111.4602 C   0  0  0  0  0  0  0  0  0  0  0  0
   60.6611   54.7832  108.5602 N   0  0  0  0  0  0  0  0  0  0  0  0
   61.9612   55.3832  108.8602 C   0  0  0  0  0  0  0  0  0  0  0  0
  2  1  2  0
  3  2  1  0
  4  3  1  0
  5  2  1  0
  6  1  1  0
  7  6  2  0
  8  5  1  0
  9  5  2  0
  9  7  1  0
 10  3  1  0
 11  4  1  0
 11  8  2  0
 12 11  1  0
 13 12  1  0
 14 13  1  0
 16 10  1  0
 16 15  1  0
M  END
>  <ID>  (1) 
conformer_0

$$$$
