
     RDKit          3D

 14 14  0  0  0  0  0  0  0  0999 V2000
   61.1969   49.9420  108.3530 O   0  0  0  0  0  0  0  0  0  0  0  0
   62.0969   50.5420  109.2530 C   0  0  0  0  0  0  0  0  0  0  0  0
   62.1969   51.9420  109.1530 C   0  0  0  0  0  0  0  0  0  0  0  0
   62.4969   49.8420  110.3530 C   0  0  0  0  0  0  0  0  0  0  0  0
   61.7969   52.5420  107.8530 O   0  0  0  0  0  0  0  0  0  0  0  0
   63.1969   52.5420  109.9530 C   0  0  0  0  0  0  0  0  0  0  0  0
   63.4969   50.4420  111.1530 C   0  0  0  0  0  0  0  0  0  0  0  0
   63.7969   51.8420  110.9530 C   0  0  0  0  0  0  0  0  0  0  0  0
   63.2969   53.9420  110.0530 N   0  0  0  0  0  0  0  0  0  0  0  0
   63.7969   55.2420  110.0530 C   0  0  0  0  0  0  0  0  0  0  0  0
   62.7969   56.2420  110.5530 C   0  0  0  0  0  0  0  0  0  0  0  0
   64.7969   55.8420  109.1530 C   0  0  0  0  0  0  0  0  0  0  0  0
   64.0969   56.0420  107.9530 O   0  0  0  0  0  0  0  0  0  0  0  0
   61.5969   56.2420  109.6530 N   0  0  0  0  0  0  0  0  0  0  0  0
  2  1  1  0
  3  2  2  0
  4  2  1  0
  5  3  1  0
  6  3  1  0
  7  4  2  0
  8  6  2  0
  8  7  1  0
  9  6  1  0
 10  9  1  0
 11 10  1  0
 12 10  1  0
 13 12  1  0
 14 11  1  0
M  END
>  <ID>  (1) 
conformer_0

$$$$
