
     RDKit          3D

 14 14  0  0  0  0  0  0  0  0999 V2000
   61.1652   50.0696  108.3277 O   0  0  0  0  0  0  0  0  0  0  0  0
   61.9652   50.6696  109.3277 C   0  0  0  0  0  0  0  0  0  0  0  0
   62.2652   51.9696  109.4277 C   0  0  0  0  0  0  0  0  0  0  0  0
   62.3652   49.8696  110.4277 C   0  0  0  0  0  0  0  0  0  0  0  0
   62.0652   52.6696  108.1277 O   0  0  0  0  0  0  0  0  0  0  0  0
   63.2652   52.5696  110.2277 C   0  0  0  0  0  0  0  0  0  0  0  0
   63.4652   50.2696  111.1277 C   0  0  0  0  0  0  0  0  0  0  0  0
   63.2652   53.8696  110.4277 N   0  0  0  0  0  0  0  0  0  0  0  0
   63.9652   51.5696  111.0277 C   0  0  0  0  0  0  0  0  0  0  0  0
   63.9652   55.0696  110.8277 C   0  0  0  0  0  0  0  0  0  0  0  0
   63.3652   56.3696  110.9277 C   0  0  0  0  0  0  0  0  0  0  0  0
   62.1652   56.4696  110.2277 N   0  0  0  0  0  0  0  0  0  0  0  0
   64.3652   57.4696  110.8277 C   0  0  0  0  0  0  0  0  0  0  0  0
   65.0652   54.8696  111.2277 O   0  0  0  0  0  0  0  0  0  0  0  0
  2  1  1  0
  3  2  2  0
  4  2  1  0
  5  3  1  0
  6  3  1  0
  7  4  2  0
  8  6  1  0
  9  6  2  0
  9  7  1  0
 10  8  1  0
 11 10  1  0
 12 11  1  0
 13 11  1  0
 14 10  2  0
M  END
>  <ID>  (1) 
conformer_0

$$$$
