
     RDKit          3D

 12 12  0  0  0  0  0  0  0  0999 V2000
   61.1652   50.0696  108.3277 O   0  0  0  0  0  0  0  0  0  0  0  0
   61.8652   50.7696  109.3277 C   0  0  0  0  0  0  0  0  0  0  0  0
   62.4652   49.8696  110.3277 C   0  0  0  0  0  0  0  0  0  0  0  0
   62.3652   52.0696  109.1277 C   0  0  0  0  0  0  0  0  0  0  0  0
   61.9652   52.6696  108.0277 O   0  0  0  0  0  0  0  0  0  0  0  0
   63.1652   52.7696  110.1277 C   0  0  0  0  0  0  0  0  0  0  0  0
   63.5652   50.4696  111.1277 C   0  0  0  0  0  0  0  0  0  0  0  0
   63.5652   51.8696  111.2277 C   0  0  0  0  0  0  0  0  0  0  0  0
   63.2652   54.0696  110.4277 N   0  0  0  0  0  0  0  0  0  0  0  0
   64.0652   55.0696  110.8277 C   0  0  0  0  0  0  0  0  0  0  0  0
   63.8652   56.1696  111.7277 C   0  0  0  0  0  0  0  0  0  0  0  0
   65.2652   54.8696  110.2277 N   0  0  0  0  0  0  0  0  0  0  0  0
  2  1  1  0
  3  2  2  0
  4  2  1  0
  5  4  1  0
  6  4  2  0
  7  3  1  0
  8  6  1  0
  8  7  2  0
  9  6  1  0
 10  9  1  0
 11 10  1  0
 12 10  2  0
M  END
>  <ID>  (1) 
conformer_0

$$$$
