
     RDKit          3D

 14 14  0  0  0  0  0  0  0  0999 V2000
   60.6805   49.8903  107.9695 O   0  0  0  0  0  0  0  0  0  0  0  0
   61.5805   50.1903  109.0695 C   0  0  0  0  0  0  0  0  0  0  0  0
   62.0805   51.4903  109.2695 C   0  0  0  0  0  0  0  0  0  0  0  0
   61.8805   52.2903  108.0695 O   0  0  0  0  0  0  0  0  0  0  0  0
   62.7805   51.8903  110.3695 C   0  0  0  0  0  0  0  0  0  0  0  0
   63.4805   50.7903  110.9695 C   0  0  0  0  0  0  0  0  0  0  0  0
   62.7805   49.4903  111.0695 C   0  0  0  0  0  0  0  0  0  0  0  0
   61.5805   49.4903  110.2695 C   0  0  0  0  0  0  0  0  0  0  0  0
   63.4805   53.1903  110.3695 C   0  0  0  0  0  0  0  0  0  0  0  0
   62.7805   54.2903  109.7695 N   0  0  0  0  0  0  0  0  0  0  0  0
   63.2805   55.5903  109.7695 C   0  0  0  0  0  0  0  0  0  0  0  0
   64.0805   55.6903  110.9695 C   0  0  0  0  0  0  0  0  0  0  0  0
   65.0805   54.8903  111.0695 O   0  0  0  0  0  0  0  0  0  0  0  0
   62.1805   56.5903  109.6695 C   0  0  0  0  0  0  0  0  0  0  0  0
  2  1  1  0
  3  2  2  0
  4  3  1  0
  5  3  1  0
  6  5  2  0
  7  6  1  0
  8  2  1  0
  8  7  2  0
  9  5  1  0
 10  9  2  3
 11 10  1  0
 12 11  1  0
 13 12  2  0
 14 11  1  0
M  END
>  <ID>  (1) 
conformer_0

$$$$
