
     RDKit          3D

  9  9  0  0  0  0  0  0  0  0999 V2000
   51.0044   10.4579   80.5825 C   0  0  0  0  0  0  0  0  0  0  0  0
   51.8927   11.2871   80.7628 C   0  0  0  0  0  0  0  0  0  0  0  0
   49.9962   10.2921   81.6454 C   0  0  0  0  0  0  0  0  0  0  0  0
   53.0617   11.4143   79.8661 C   0  0  0  0  0  0  0  0  0  0  0  0
   51.9311   12.1307   81.9656 C   0  0  0  0  0  0  0  0  0  0  0  0
   54.1719   12.1124   80.2139 N   0  0  0  0  0  0  0  0  0  0  0  0
   55.3372   12.1781   79.4133 O   0  0  0  0  0  0  0  0  0  0  0  0
   49.8901   11.1713   82.6855 C   0  0  0  0  0  0  0  0  0  0  0  0
   50.9109   12.1133   82.8140 C   0  0  0  0  0  0  0  0  0  0  0  0
  1  2  2  0
  1  3  1  0
  2  4  1  0
  2  5  1  0
  4  6  2  3
  6  7  1  0
  3  8  2  0
  5  9  2  0
  8  9  1  0
M  END
>  <ID>  (1) 
conformer_0

$$$$
