
     RDKit          3D

 19 22  0  0  0  0  0  0  0  0999 V2000
   51.6893   14.8189   83.3023 N   0  0  0  0  0  0  0  0  0  0  0  0
   52.0923   13.6761   82.6046 C   0  0  0  0  0  0  0  0  0  0  0  0
   53.3602   13.7453   81.8258 N   0  0  0  0  0  0  0  0  0  0  0  0
   53.8725   12.6386   81.1425 C   0  0  0  0  0  0  0  0  0  0  0  0
   54.1757   14.8742   82.0229 C   0  0  0  0  0  0  0  0  0  0  0  0
   53.7768   15.9749   82.7313 C   0  0  0  0  0  0  0  0  0  0  0  0
   52.5522   15.9080   83.3214 C   0  0  0  0  0  0  0  0  0  0  0  0
   55.1930   12.5794   80.8604 C   0  0  0  0  0  0  0  0  0  0  0  0
   51.3894   12.5172   82.3567 N   0  0  0  0  0  0  0  0  0  0  0  0
   50.1097   12.4107   82.7625 C   0  0  0  0  0  0  0  0  0  0  0  0
   51.8325   11.4546   81.5432 C   0  0  0  0  0  0  0  0  0  0  0  0
   54.4819   17.2041   82.7570 C   0  0  0  0  0  0  0  0  0  0  0  0
   52.8980   11.6489   80.7821 N   0  0  0  0  0  0  0  0  0  0  0  0
   55.7434   11.4623   80.1000 C   0  0  0  0  0  0  0  0  0  0  0  0
   53.8553   18.3101   83.2865 C   0  0  0  0  0  0  0  0  0  0  0  0
   52.6267   18.3007   83.8829 C   0  0  0  0  0  0  0  0  0  0  0  0
   49.5591   11.0747   82.5240 C   0  0  0  0  0  0  0  0  0  0  0  0
   51.0494   10.2872   81.3584 C   0  0  0  0  0  0  0  0  0  0  0  0
   51.9536   17.0789   83.9221 C   0  0  0  0  0  0  0  0  0  0  0  0
  1  2  2  0
  2  3  1  0
  3  4  1  0
  3  5  1  0
  5  6  1  0
  1  7  1  0
  6  7  2  0
  4  8  2  3
  2  9  1  0
  9 10  1  0
  9 11  1  0
  6 12  1  0
  4 13  1  0
 11 13  2  0
  8 14  1  0
 12 15  2  0
 15 16  1  0
 10 17  2  0
 11 18  1  0
 17 18  1  0
  7 19  1  0
 16 19  2  0
M  END
>  <ID>  (1) 
conformer_0

$$$$
