
     RDKit          3D

 18 20  0  0  0  0  0  0  0  0999 V2000
   54.0151   16.6005   82.2112 C   0  0  0  0  0  0  0  0  0  0  0  0
   53.4759   15.5511   82.7528 C   0  0  0  0  0  0  0  0  0  0  0  0
   53.3482   14.2628   82.5209 C   0  0  0  0  0  0  0  0  0  0  0  0
   54.0303   13.7168   81.4789 N   0  0  0  0  0  0  0  0  0  0  0  0
   52.9316   15.9595   84.1273 C   0  0  0  0  0  0  0  0  0  0  0  0
   52.9508   17.2388   84.5168 C   0  0  0  0  0  0  0  0  0  0  0  0
   53.7553   12.5186   80.9388 C   0  0  0  0  0  0  0  0  0  0  0  0
   55.5151   13.8577   81.5235 C   0  0  0  0  0  0  0  0  0  0  0  0
   52.3326   12.0490   81.0069 C   0  0  0  0  0  0  0  0  0  0  0  0
   51.6529   12.1912   82.1875 C   0  0  0  0  0  0  0  0  0  0  0  0
   51.9817   10.9630   80.2135 C   0  0  0  0  0  0  0  0  0  0  0  0
   54.7642   11.6651   80.5996 O   0  0  0  0  0  0  0  0  0  0  0  0
   53.5636   18.2418   83.7874 C   0  0  0  0  0  0  0  0  0  0  0  0
   52.1443   13.5419   82.6879 N   0  0  0  0  0  0  0  0  0  0  0  0
   50.4396   11.9352   82.4099 C   0  0  0  0  0  0  0  0  0  0  0  0
   50.7271   10.3959   80.5652 C   0  0  0  0  0  0  0  0  0  0  0  0
   49.9206   10.7662   81.7819 C   0  0  0  0  0  0  0  0  0  0  0  0
   54.1789   17.8872   82.5222 C   0  0  0  0  0  0  0  0  0  0  0  0
  1  2  2  0
  2  3  1  0
  3  4  1  0
  2  5  1  0
  5  6  2  0
  4  7  1  0
  4  8  1  0
  7  9  1  0
  9 10  1  0
  9 11  2  0
  7 12  2  0
  6 13  1  0
  3 14  2  0
 10 14  1  0
 10 15  2  0
 11 16  1  0
 15 17  1  0
 16 17  2  0
  1 18  1  0
 13 18  2  0
M  END
>  <ID>  (1) 
conformer_0

$$$$
