
     RDKit          3D

 18 21  0  0  0  0  0  0  0  0999 V2000
   51.9114   15.2464   83.1045 C   0  0  0  0  0  0  0  0  0  0  0  0
   52.9938   14.7583   82.4076 C   0  0  0  0  0  0  0  0  0  0  0  0
   54.1740   15.5638   82.2703 C   0  0  0  0  0  0  0  0  0  0  0  0
   54.1929   16.7898   82.8081 C   0  0  0  0  0  0  0  0  0  0  0  0
   55.2372   14.9703   81.5546 N   0  0  0  0  0  0  0  0  0  0  0  0
   50.8721   14.4562   83.2374 N   0  0  0  0  0  0  0  0  0  0  0  0
   55.2394   13.6542   81.4097 C   0  0  0  0  0  0  0  0  0  0  0  0
   53.0088   13.3449   81.9268 C   0  0  0  0  0  0  0  0  0  0  0  0
   51.9883   16.4646   83.6033 N   0  0  0  0  0  0  0  0  0  0  0  0
   51.8620   12.5871   82.0041 C   0  0  0  0  0  0  0  0  0  0  0  0
   50.8251   13.1520   82.7951 C   0  0  0  0  0  0  0  0  0  0  0  0
   49.7853   12.0902   82.9935 C   0  0  0  0  0  0  0  0  0  0  0  0
   54.2345   12.9200   81.3604 C   0  0  0  0  0  0  0  0  0  0  0  0
   51.4743   11.3677   81.5406 C   0  0  0  0  0  0  0  0  0  0  0  0
   50.2443   11.0237   82.1130 C   0  0  0  0  0  0  0  0  0  0  0  0
   55.2997   17.7214   82.4849 C   0  0  0  0  0  0  0  0  0  0  0  0
   53.0437   17.2988   83.3626 C   0  0  0  0  0  0  0  0  0  0  0  0
   49.3114    9.5694   81.8664 Cl  0  0  0  0  0  0  0  0  0  0  0  0
  1  2  1  0
  2  3  2  0
  3  4  1  0
  3  5  1  0
  1  6  1  0
  5  7  2  0
  2  8  1  0
  1  9  2  0
  8 10  1  0
  6 11  2  0
 10 11  1  0
 11 12  1  0
  7 13  1  0
  8 13  2  0
 10 14  2  0
 12 15  2  0
 14 15  1  0
  4 16  1  0
  4 17  2  0
  9 17  1  0
 15 18  1  0
M  END
>  <ID>  (1) 
conformer_0

$$$$
