
     RDKit          3D

 19 22  0  0  0  0  0  0  0  0999 V2000
   51.9114   15.2464   83.1045 C   0  0  0  0  0  0  0  0  0  0  0  0
   52.4407   14.1307   82.5121 C   0  0  0  0  0  0  0  0  0  0  0  0
   53.8201   14.3249   81.9060 C   0  0  0  0  0  0  0  0  0  0  0  0
   51.9045   12.8378   82.3088 C   0  0  0  0  0  0  0  0  0  0  0  0
   50.7174   12.4814   82.7809 C   0  0  0  0  0  0  0  0  0  0  0  0
   54.4593   13.1876   81.2359 C   0  0  0  0  0  0  0  0  0  0  0  0
   52.5610   11.8152   81.5545 C   0  0  0  0  0  0  0  0  0  0  0  0
   53.8565   12.0584   81.1562 N   0  0  0  0  0  0  0  0  0  0  0  0
   51.8598   10.7288   81.3408 N   0  0  0  0  0  0  0  0  0  0  0  0
   50.0541   11.2849   82.5492 C   0  0  0  0  0  0  0  0  0  0  0  0
   52.6191   16.4169   83.1131 C   0  0  0  0  0  0  0  0  0  0  0  0
   53.9101   16.5129   82.5889 C   0  0  0  0  0  0  0  0  0  0  0  0
   55.8567   13.2369   81.3513 C   0  0  0  0  0  0  0  0  0  0  0  0
   54.5978   11.1910   80.3085 C   0  0  0  0  0  0  0  0  0  0  0  0
   50.7034   10.4853   81.8241 C   0  0  0  0  0  0  0  0  0  0  0  0
   56.2814   14.5650   81.6004 C   0  0  0  0  0  0  0  0  0  0  0  0
   54.5402   15.3773   82.1128 C   0  0  0  0  0  0  0  0  0  0  0  0
   50.1491    8.9074   81.5713 Cl  0  0  0  0  0  0  0  0  0  0  0  0
   54.6392   17.7469   82.6732 C   0  0  0  0  0  0  0  0  0  0  0  0
  1  2  2  0
  2  3  1  0
  2  4  1  0
  4  5  2  0
  3  6  1  0
  4  7  1  0
  6  8  1  0
  7  8  1  0
  7  9  2  0
  5 10  1  0
  1 11  1  0
 11 12  2  0
  6 13  2  0
  8 14  1  0
  9 15  1  0
 10 15  2  0
 13 16  1  0
  3 17  1  0
 12 17  1  0
 16 17  1  0
 15 18  1  0
 12 19  1  0
M  END
>  <ID>  (1) 
conformer_0

$$$$
