
     RDKit          3D

 19 22  0  0  0  0  0  0  0  0999 V2000
   51.6893   14.8189   83.3023 N   0  0  0  0  0  0  0  0  0  0  0  0
   52.6864   14.2785   82.5183 C   0  0  0  0  0  0  0  0  0  0  0  0
   52.6001   12.9297   81.9551 N   0  0  0  0  0  0  0  0  0  0  0  0
   53.6662   12.5660   81.2021 C   0  0  0  0  0  0  0  0  0  0  0  0
   51.4024   12.3240   81.8968 C   0  0  0  0  0  0  0  0  0  0  0  0
   51.3772   11.2357   81.0939 C   0  0  0  0  0  0  0  0  0  0  0  0
   51.8899   16.0396   83.8006 C   0  0  0  0  0  0  0  0  0  0  0  0
   52.4785   10.7839   80.4103 C   0  0  0  0  0  0  0  0  0  0  0  0
   50.1078   10.2607   81.3271 C   0  0  0  0  0  0  0  0  0  0  0  0
   54.9546   13.3748   81.2707 C   0  0  0  0  0  0  0  0  0  0  0  0
   52.9266   16.8662   83.4414 C   0  0  0  0  0  0  0  0  0  0  0  0
   53.9447   16.1441   82.4670 C   0  0  0  0  0  0  0  0  0  0  0  0
   53.2464   18.3360   83.7729 C   0  0  0  0  0  0  0  0  0  0  0  0
   53.8822   15.1001   82.2332 C   0  0  0  0  0  0  0  0  0  0  0  0
   53.5905   11.4818   80.4461 C   0  0  0  0  0  0  0  0  0  0  0  0
   54.9544   14.3883   81.5123 N   0  0  0  0  0  0  0  0  0  0  0  0
   56.0079   12.5796   80.4833 C   0  0  0  0  0  0  0  0  0  0  0  0
   54.9956   11.3889   79.8644 C   0  0  0  0  0  0  0  0  0  0  0  0
   49.3032   10.5405   82.4665 C   0  0  0  0  0  0  0  0  0  0  0  0
  1  2  2  0
  2  3  1  0
  3  4  1  0
  3  5  1  0
  5  6  2  0
  1  7  1  0
  6  8  1  0
  6  9  1  0
  4 10  1  0
  7 11  2  0
 11 12  1  0
 11 13  1  0
  2 14  1  0
 12 14  2  0
  4 15  1  0
  8 15  1  0
 10 16  2  0
 14 16  1  0
 10 17  1  0
 15 18  2  0
 17 18  1  0
  9 19  1  0
M  END
>  <ID>  (1) 
conformer_0

$$$$
