
     RDKit          3D

 16 17  0  0  0  0  0  0  0  0999 V2000
   52.3272   12.1904   81.1642 C   0  0  0  0  0  0  0  0  0  0  0  0
   51.3958   11.3966   81.4057 C   0  0  0  0  0  0  0  0  0  0  0  0
   53.3778   11.8402   80.4145 C   0  0  0  0  0  0  0  0  0  0  0  0
   52.6392   13.2734   81.9988 C   0  0  0  0  0  0  0  0  0  0  0  0
   54.5015   12.5737   80.2496 C   0  0  0  0  0  0  0  0  0  0  0  0
   51.6776   13.6593   82.9409 C   0  0  0  0  0  0  0  0  0  0  0  0
   50.3793   11.5124   82.3579 C   0  0  0  0  0  0  0  0  0  0  0  0
   55.4914   12.1296   79.4003 O   0  0  0  0  0  0  0  0  0  0  0  0
   54.7925   13.6759   81.0193 C   0  0  0  0  0  0  0  0  0  0  0  0
   53.7947   14.0604   81.9254 C   0  0  0  0  0  0  0  0  0  0  0  0
   53.9385   15.2986   82.6759 C   0  0  0  0  0  0  0  0  0  0  0  0
   51.4157    9.9400   81.2782 C   0  0  0  0  0  0  0  0  0  0  0  0
   50.1437    9.2557   81.5056 C   0  0  0  0  0  0  0  0  0  0  0  0
   49.8708   10.2869   82.9002 C   0  0  0  0  0  0  0  0  0  0  0  0
   53.1106   16.3451   82.4551 C   0  0  0  0  0  0  0  0  0  0  0  0
   53.5165   17.6644   83.0873 C   0  0  0  0  0  0  0  0  0  0  0  0
  1  2  1  0
  1  3  2  0
  1  4  1  0
  3  5  1  0
  4  6  1  0
  2  7  1  0
  5  8  1  0
  5  9  2  0
  4 10  2  0
  9 10  1  0
 10 11  1  0
  2 12  1  0
 12 13  1  0
  7 14  1  0
 13 14  1  0
 11 15  1  0
 15 16  1  0
M  END
>  <ID>  (1) 
conformer_0

$$$$
