
     RDKit          3D

 17 19  0  0  0  0  0  0  0  0999 V2000
   53.8876   17.9356   82.6629 C   0  0  0  0  0  0  0  0  0  0  0  0
   54.4748   16.8088   81.9785 C   0  0  0  0  0  0  0  0  0  0  0  0
   54.2803   15.5163   82.5650 C   0  0  0  0  0  0  0  0  0  0  0  0
   54.9421   14.3070   81.9889 C   0  0  0  0  0  0  0  0  0  0  0  0
   55.9931   14.1461   81.7103 O   0  0  0  0  0  0  0  0  0  0  0  0
   53.8923   13.2123   81.8817 N   0  0  0  0  0  0  0  0  0  0  0  0
   52.4420   13.3447   81.9978 C   0  0  0  0  0  0  0  0  0  0  0  0
   51.7991   12.2857   81.9448 C   0  0  0  0  0  0  0  0  0  0  0  0
   50.3848   12.1501   82.1826 C   0  0  0  0  0  0  0  0  0  0  0  0
   49.9166   10.8924   82.3960 C   0  0  0  0  0  0  0  0  0  0  0  0
   53.4816   15.3908   83.7335 C   0  0  0  0  0  0  0  0  0  0  0  0
   50.6264    9.7530   81.8929 C   0  0  0  0  0  0  0  0  0  0  0  0
   51.9532    9.9578   81.5415 C   0  0  0  0  0  0  0  0  0  0  0  0
   53.1667   17.7771   83.7291 C   0  0  0  0  0  0  0  0  0  0  0  0
   52.5148   11.1688   81.6004 C   0  0  0  0  0  0  0  0  0  0  0  0
   53.0091   16.5579   84.2841 C   0  0  0  0  0  0  0  0  0  0  0  0
   53.9171   11.8707   81.4289 C   0  0  0  0  0  0  0  0  0  0  0  0
  1  2  1  0
  2  3  2  0
  3  4  1  0
  4  5  2  0
  4  6  1  0
  6  7  1  0
  7  8  2  0
  8  9  1  0
  9 10  2  0
  3 11  1  0
 10 12  1  0
 12 13  2  0
  1 14  2  0
  8 15  1  0
 13 15  1  0
 11 16  2  0
 14 16  1  0
  6 17  1  0
 15 17  2  0
M  END
>  <ID>  (1) 
conformer_0

$$$$
