
     RDKit          3D

 19 21  0  0  0  0  0  0  0  0999 V2000
   53.8876   17.9356   82.6629 C   0  0  0  0  0  0  0  0  0  0  0  0
   54.4748   16.8088   81.9785 C   0  0  0  0  0  0  0  0  0  0  0  0
   54.2803   15.5163   82.5650 C   0  0  0  0  0  0  0  0  0  0  0  0
   54.9421   14.3070   81.9889 C   0  0  0  0  0  0  0  0  0  0  0  0
   55.9931   14.1461   81.7103 O   0  0  0  0  0  0  0  0  0  0  0  0
   53.8923   13.2123   81.8817 N   0  0  0  0  0  0  0  0  0  0  0  0
   52.4420   13.3447   81.9978 C   0  0  0  0  0  0  0  0  0  0  0  0
   51.7991   12.2857   81.9448 C   0  0  0  0  0  0  0  0  0  0  0  0
   50.3848   12.1501   82.1826 C   0  0  0  0  0  0  0  0  0  0  0  0
   52.5295   11.0688   81.5678 C   0  0  0  0  0  0  0  0  0  0  0  0
   53.0191   17.7185   83.5384 C   0  0  0  0  0  0  0  0  0  0  0  0
   49.7934   12.8553   83.0279 O   0  0  0  0  0  0  0  0  0  0  0  0
   53.2104   15.5048   83.6890 C   0  0  0  0  0  0  0  0  0  0  0  0
   54.4311   12.0322   81.4933 C   0  0  0  0  0  0  0  0  0  0  0  0
   53.7496   10.9968   81.2651 C   0  0  0  0  0  0  0  0  0  0  0  0
   51.7353    9.8593   81.3276 C   0  0  0  0  0  0  0  0  0  0  0  0
   49.6515   10.8587   81.9085 C   0  0  0  0  0  0  0  0  0  0  0  0
   50.3433    9.8097   81.4383 C   0  0  0  0  0  0  0  0  0  0  0  0
   52.6528   16.5028   84.0899 C   0  0  0  0  0  0  0  0  0  0  0  0
  1  2  1  0
  2  3  2  0
  3  4  1  0
  4  5  2  0
  4  6  1  0
  6  7  1  0
  7  8  2  0
  8  9  1  0
  8 10  1  0
  1 11  2  0
  9 12  2  0
  3 13  1  0
  6 14  1  0
 10 15  1  0
 14 15  2  0
 10 16  2  0
  9 17  1  0
 16 18  1  0
 17 18  2  0
 11 19  1  0
 13 19  2  0
M  END
>  <ID>  (1) 
conformer_0

$$$$
