
     RDKit          3D

 19 22  0  0  0  0  0  0  0  0999 V2000
   52.3272   12.1904   81.1642 C   0  0  0  0  0  0  0  0  0  0  0  0
   51.3958   11.3966   81.4057 C   0  0  0  0  0  0  0  0  0  0  0  0
   52.5931   13.3677   81.7428 N   0  0  0  0  0  0  0  0  0  0  0  0
   53.4294   11.7570   80.2550 C   0  0  0  0  0  0  0  0  0  0  0  0
   51.6668   13.7984   82.6878 C   0  0  0  0  0  0  0  0  0  0  0  0
   53.8300   13.9968   81.6390 C   0  0  0  0  0  0  0  0  0  0  0  0
   54.0999   15.2831   82.2626 C   0  0  0  0  0  0  0  0  0  0  0  0
   55.1141   16.0410   81.8769 O   0  0  0  0  0  0  0  0  0  0  0  0
   51.1203   10.1751   80.6907 C   0  0  0  0  0  0  0  0  0  0  0  0
   52.0913   10.0192   79.6602 C   0  0  0  0  0  0  0  0  0  0  0  0
   49.9105    9.4705   80.9134 C   0  0  0  0  0  0  0  0  0  0  0  0
   54.6262   12.5615   80.1389 C   0  0  0  0  0  0  0  0  0  0  0  0
   54.7928   13.6501   80.8396 N   0  0  0  0  0  0  0  0  0  0  0  0
   55.6241   12.0795   79.3263 O   0  0  0  0  0  0  0  0  0  0  0  0
   53.1745   10.6616   79.4844 C   0  0  0  0  0  0  0  0  0  0  0  0
   51.9637   15.1761   83.2870 C   0  0  0  0  0  0  0  0  0  0  0  0
   54.8898   17.2946   82.4091 C   0  0  0  0  0  0  0  0  0  0  0  0
   53.5999   17.5556   82.9191 C   0  0  0  0  0  0  0  0  0  0  0  0
   53.0900   15.9683   82.9106 C   0  0  0  0  0  0  0  0  0  0  0  0
  1  2  2  0
  1  3  1  0
  1  4  1  0
  3  5  1  0
  3  6  1  0
  6  7  1  0
  7  8  1  0
  2  9  1  0
  9 10  2  0
  9 11  1  0
  4 12  1  0
  6 13  2  0
 12 13  1  0
 12 14  2  0
  4 15  2  0
 10 15  1  0
  5 16  2  0
  8 17  1  0
 17 18  2  0
  7 19  2  0
 16 19  1  0
 18 19  1  0
M  END
>  <ID>  (1) 
conformer_0

$$$$
