
     RDKit          3D

 17 19  0  0  0  0  0  0  0  0999 V2000
   51.6893   14.8189   83.3023 N   0  0  0  0  0  0  0  0  0  0  0  0
   52.6864   14.2785   82.5183 C   0  0  0  0  0  0  0  0  0  0  0  0
   52.6001   12.9297   81.9551 N   0  0  0  0  0  0  0  0  0  0  0  0
   53.6662   12.5660   81.2021 C   0  0  0  0  0  0  0  0  0  0  0  0
   51.5114   12.1671   82.0868 C   0  0  0  0  0  0  0  0  0  0  0  0
   54.9088   13.4098   81.2160 C   0  0  0  0  0  0  0  0  0  0  0  0
   51.4486   11.0135   81.2690 C   0  0  0  0  0  0  0  0  0  0  0  0
   51.8737   16.0782   83.7170 C   0  0  0  0  0  0  0  0  0  0  0  0
   50.2486   10.2076   81.3082 C   0  0  0  0  0  0  0  0  0  0  0  0
   53.8623   15.1021   82.3805 C   0  0  0  0  0  0  0  0  0  0  0  0
   52.9688   16.8356   83.5657 C   0  0  0  0  0  0  0  0  0  0  0  0
   54.9815   14.5474   81.7910 C   0  0  0  0  0  0  0  0  0  0  0  0
   54.0649   16.3041   82.9205 C   0  0  0  0  0  0  0  0  0  0  0  0
   53.4706   11.2349   80.5614 C   0  0  0  0  0  0  0  0  0  0  0  0
   49.1983   10.5861   82.3013 C   0  0  0  0  0  0  0  0  0  0  0  0
   53.0622   18.1849   84.1583 C   0  0  0  0  0  0  0  0  0  0  0  0
   52.4272   10.7003   80.5659 N   0  0  0  0  0  0  0  0  0  0  0  0
  1  2  2  0
  2  3  1  0
  3  4  1  0
  3  5  1  0
  4  6  2  0
  5  7  2  0
  1  8  1  0
  7  9  1  0
  2 10  1  0
  8 11  2  0
  6 12  1  0
 10 12  1  0
 10 13  2  0
 11 13  1  0
  4 14  1  0
  9 15  1  0
 11 16  1  0
  7 17  1  0
 14 17  2  0
M  END
>  <ID>  (1) 
conformer_0

$$$$
