
     RDKit          3D

 18 20  0  0  0  0  0  0  0  0999 V2000
   51.6893   14.8189   83.3023 N   0  0  0  0  0  0  0  0  0  0  0  0
   52.0923   13.6761   82.6046 C   0  0  0  0  0  0  0  0  0  0  0  0
   53.3602   13.7453   81.8258 N   0  0  0  0  0  0  0  0  0  0  0  0
   53.8725   12.6386   81.1425 C   0  0  0  0  0  0  0  0  0  0  0  0
   54.1757   14.8742   82.0229 C   0  0  0  0  0  0  0  0  0  0  0  0
   53.7768   15.9749   82.7313 C   0  0  0  0  0  0  0  0  0  0  0  0
   52.5522   15.9080   83.3214 C   0  0  0  0  0  0  0  0  0  0  0  0
   55.1930   12.5794   80.8604 C   0  0  0  0  0  0  0  0  0  0  0  0
   51.3894   12.5172   82.3567 N   0  0  0  0  0  0  0  0  0  0  0  0
   50.1097   12.4107   82.7625 C   0  0  0  0  0  0  0  0  0  0  0  0
   49.5999   11.1522   83.0232 C   0  0  0  0  0  0  0  0  0  0  0  0
   52.9801   11.5671   80.7687 C   0  0  0  0  0  0  0  0  0  0  0  0
   55.6888   11.4084   80.1331 C   0  0  0  0  0  0  0  0  0  0  0  0
   51.5644   11.7124   80.9978 C   0  0  0  0  0  0  0  0  0  0  0  0
   50.8138   10.4248   81.4212 C   0  0  0  0  0  0  0  0  0  0  0  0
   54.4895   17.2265   82.7306 C   0  0  0  0  0  0  0  0  0  0  0  0
   49.5435   10.5026   81.7816 C   0  0  0  0  0  0  0  0  0  0  0  0
   53.8930   18.3319   83.2911 C   0  0  0  0  0  0  0  0  0  0  0  0
  1  2  2  0
  2  3  1  0
  3  4  1  0
  3  5  1  0
  5  6  1  0
  1  7  1  0
  6  7  2  0
  4  8  2  3
  2  9  1  0
  9 10  1  0
 10 11  1  0
  4 12  1  0
  8 13  1  0
  9 14  1  0
 12 14  1  0
 14 15  1  0
  6 16  1  0
 11 17  1  0
 15 17  1  0
 16 18  1  0
M  END
>  <ID>  (1) 
conformer_0

$$$$
