
     RDKit          3D

 19 22  0  0  0  0  0  0  0  0999 V2000
   51.6893   14.8189   83.3023 N   0  0  0  0  0  0  0  0  0  0  0  0
   52.4298   15.8891   83.4065 C   0  0  0  0  0  0  0  0  0  0  0  0
   52.4884   13.9934   82.3538 C   0  0  0  0  0  0  0  0  0  0  0  0
   53.7571   14.4087   81.9647 C   0  0  0  0  0  0  0  0  0  0  0  0
   54.5793   13.5009   81.2480 N   0  0  0  0  0  0  0  0  0  0  0  0
   51.9905   12.6958   81.9006 C   0  0  0  0  0  0  0  0  0  0  0  0
   55.8469   13.9963   80.9566 C   0  0  0  0  0  0  0  0  0  0  0  0
   50.8013   12.1021   82.2030 C   0  0  0  0  0  0  0  0  0  0  0  0
   51.7960   16.9677   84.2064 N   0  0  0  0  0  0  0  0  0  0  0  0
   52.8200   11.9985   81.0756 C   0  0  0  0  0  0  0  0  0  0  0  0
   53.7659   16.1932   82.8387 C   0  0  0  0  0  0  0  0  0  0  0  0
   52.6529   18.1246   84.0340 C   0  0  0  0  0  0  0  0  0  0  0  0
   54.4536   15.4582   82.1942 N   0  0  0  0  0  0  0  0  0  0  0  0
   49.8903   12.3629   83.0590 O   0  0  0  0  0  0  0  0  0  0  0  0
   50.4856   10.7937   81.6435 C   0  0  0  0  0  0  0  0  0  0  0  0
   54.1211   17.6881   83.1522 S   0  0  0  0  0  0  0  0  0  0  0  0
   51.2998   10.4192   80.6226 C   0  0  0  0  0  0  0  0  0  0  0  0
   52.5142   11.1053   80.3680 N   0  0  0  0  0  0  0  0  0  0  0  0
   54.1248   12.5081   80.6721 N   0  0  0  0  0  0  0  0  0  0  0  0
  1  2  2  0
  1  3  1  0
  3  4  2  0
  4  5  1  0
  3  6  1  0
  5  7  1  0
  6  8  1  0
  2  9  1  0
  6 10  2  0
  2 11  1  0
  9 12  2  0
  4 13  1  0
 11 13  2  0
  8 14  2  0
  8 15  1  0
 11 16  1  0
 12 16  1  0
 15 17  2  0
 10 18  1  0
 17 18  1  0
  5 19  1  0
 10 19  1  0
M  END
>  <ID>  (1) 
conformer_0

$$$$
