
     RDKit          3D

 19 21  0  0  0  0  0  0  0  0999 V2000
   52.3272   12.1904   81.1642 C   0  0  0  0  0  0  0  0  0  0  0  0
   51.3958   11.3966   81.4057 C   0  0  0  0  0  0  0  0  0  0  0  0
   52.5931   13.3677   81.7428 N   0  0  0  0  0  0  0  0  0  0  0  0
   53.4294   11.7570   80.2550 C   0  0  0  0  0  0  0  0  0  0  0  0
   53.7538   14.1299   81.6126 C   0  0  0  0  0  0  0  0  0  0  0  0
   53.0518   11.2444   79.1123 O   0  0  0  0  0  0  0  0  0  0  0  0
   54.7193   11.9763   80.5848 N   0  0  0  0  0  0  0  0  0  0  0  0
   50.9340   10.1370   80.9349 C   0  0  0  0  0  0  0  0  0  0  0  0
   51.6902   13.8429   82.5968 N   0  0  0  0  0  0  0  0  0  0  0  0
   50.5759   13.0447   82.8403 C   0  0  0  0  0  0  0  0  0  0  0  0
   49.7962    9.7118   81.1209 C   0  0  0  0  0  0  0  0  0  0  0  0
   53.9680   15.3523   82.4008 C   0  0  0  0  0  0  0  0  0  0  0  0
   50.3617   11.8992   82.3021 C   0  0  0  0  0  0  0  0  0  0  0  0
   55.7942   11.4790   79.7957 C   0  0  0  0  0  0  0  0  0  0  0  0
   55.1896   13.2869   81.5605 C   0  0  0  0  0  0  0  0  0  0  0  0
   53.3446   16.4527   82.1592 C   0  0  0  0  0  0  0  0  0  0  0  0
   48.8063   10.1028   81.9939 C   0  0  0  0  0  0  0  0  0  0  0  0
   49.1276   11.2512   82.6449 C   0  0  0  0  0  0  0  0  0  0  0  0
   53.6912   17.7037   82.9865 C   0  0  0  0  0  0  0  0  0  0  0  0
  1  2  2  0
  1  3  1  0
  1  4  1  0
  3  5  1  0
  4  6  2  0
  4  7  1  0
  2  8  1  0
  3  9  1  0
  9 10  2  0
  8 11  2  0
  5 12  1  0
  2 13  1  0
 10 13  1  0
  7 14  1  0
  5 15  1  0
  7 15  1  0
 12 16  1  0
 11 17  1  0
 13 18  1  0
 17 18  1  0
 16 19  1  0
M  END
>  <ID>  (1) 
conformer_0

$$$$
