
     RDKit          3D

 18 21  0  0  0  0  0  0  0  0999 V2000
   49.4352   11.4277   82.8516 C   0  0  0  0  0  0  0  0  0  0  0  0
   50.5937   11.8108   82.2931 C   0  0  0  0  0  0  0  0  0  0  0  0
   51.2530   12.9817   82.5498 N   0  0  0  0  0  0  0  0  0  0  0  0
   51.3795   10.7424   81.6748 C   0  0  0  0  0  0  0  0  0  0  0  0
   52.4369   13.3251   82.0079 C   0  0  0  0  0  0  0  0  0  0  0  0
   48.8787   10.2215   82.6179 C   0  0  0  0  0  0  0  0  0  0  0  0
   53.2096   12.2591   81.3362 C   0  0  0  0  0  0  0  0  0  0  0  0
   49.5096    9.2569   81.8473 C   0  0  0  0  0  0  0  0  0  0  0  0
   52.6209   11.0938   81.1006 N   0  0  0  0  0  0  0  0  0  0  0  0
   54.4915   12.5376   80.8735 C   0  0  0  0  0  0  0  0  0  0  0  0
   55.1729   13.5980   81.3770 C   0  0  0  0  0  0  0  0  0  0  0  0
   54.7452   14.4078   82.3066 C   0  0  0  0  0  0  0  0  0  0  0  0
   50.8232    9.5440   81.4156 C   0  0  0  0  0  0  0  0  0  0  0  0
   53.1885   14.5569   82.2738 C   0  0  0  0  0  0  0  0  0  0  0  0
   55.1750   15.8137   82.4813 C   0  0  0  0  0  0  0  0  0  0  0  0
   52.6010   15.5669   82.8792 C   0  0  0  0  0  0  0  0  0  0  0  0
   53.1082   16.8878   82.8504 C   0  0  0  0  0  0  0  0  0  0  0  0
   54.3942   16.9344   82.6056 C   0  0  0  0  0  0  0  0  0  0  0  0
  1  2  1  0
  2  3  1  0
  2  4  2  0
  3  5  2  0
  1  6  2  0
  5  7  1  0
  6  8  1  0
  4  9  1  0
  7  9  2  0
  7 10  1  0
 10 11  1  0
 11 12  1  0
  4 13  1  0
  8 13  2  0
  5 14  1  0
 12 14  1  0
 12 15  1  0
 14 16  1  0
 16 17  1  0
 15 18  1  0
 17 18  2  0
M  END
>  <ID>  (1) 
conformer_0

$$$$
