
     RDKit          3D

 18 20  0  0  0  0  0  0  0  0999 V2000
   51.6893   14.8189   83.3023 N   0  0  0  0  0  0  0  0  0  0  0  0
   52.6864   14.2785   82.5183 C   0  0  0  0  0  0  0  0  0  0  0  0
   52.6001   12.9297   81.9551 N   0  0  0  0  0  0  0  0  0  0  0  0
   53.6662   12.5660   81.2021 C   0  0  0  0  0  0  0  0  0  0  0  0
   51.4024   12.3240   81.8968 C   0  0  0  0  0  0  0  0  0  0  0  0
   51.3772   11.2357   81.0939 C   0  0  0  0  0  0  0  0  0  0  0  0
   51.8899   16.0396   83.8006 C   0  0  0  0  0  0  0  0  0  0  0  0
   52.4785   10.7839   80.4103 C   0  0  0  0  0  0  0  0  0  0  0  0
   50.1078   10.2607   81.3271 C   0  0  0  0  0  0  0  0  0  0  0  0
   54.9546   13.3748   81.2707 C   0  0  0  0  0  0  0  0  0  0  0  0
   52.9266   16.8662   83.4414 C   0  0  0  0  0  0  0  0  0  0  0  0
   53.8238   15.0961   82.2177 C   0  0  0  0  0  0  0  0  0  0  0  0
   53.5935   11.5606   80.3435 N   0  0  0  0  0  0  0  0  0  0  0  0
   49.3383   10.5175   82.4516 C   0  0  0  0  0  0  0  0  0  0  0  0
   56.0040   12.7504   80.6142 O   0  0  0  0  0  0  0  0  0  0  0  0
   53.0815   18.2400   83.9302 C   0  0  0  0  0  0  0  0  0  0  0  0
   54.0039   16.2842   82.7332 C   0  0  0  0  0  0  0  0  0  0  0  0
   55.0452   14.5849   81.7084 C   0  0  0  0  0  0  0  0  0  0  0  0
  1  2  2  0
  2  3  1  0
  3  4  1  0
  3  5  1  0
  5  6  2  0
  1  7  1  0
  6  8  1  0
  6  9  1  0
  4 10  1  0
  7 11  2  0
  2 12  1  0
  4 13  1  0
  8 13  1  0
  9 14  1  0
 10 15  1  0
 11 16  1  0
 11 17  1  0
 12 17  2  0
 10 18  2  0
 12 18  1  0
M  END
>  <ID>  (1) 
conformer_0

$$$$
