
     RDKit          3D

 18 20  0  0  0  0  0  0  0  0999 V2000
   51.6893   14.8189   83.3023 N   0  0  0  0  0  0  0  0  0  0  0  0
   52.6864   14.2785   82.5183 C   0  0  0  0  0  0  0  0  0  0  0  0
   52.6001   12.9297   81.9551 N   0  0  0  0  0  0  0  0  0  0  0  0
   53.6662   12.5660   81.2021 C   0  0  0  0  0  0  0  0  0  0  0  0
   51.4024   12.3240   81.8968 C   0  0  0  0  0  0  0  0  0  0  0  0
   51.3772   11.2357   81.0939 C   0  0  0  0  0  0  0  0  0  0  0  0
   51.8899   16.0396   83.8006 C   0  0  0  0  0  0  0  0  0  0  0  0
   52.4785   10.7839   80.4103 C   0  0  0  0  0  0  0  0  0  0  0  0
   50.1078   10.2607   81.3271 C   0  0  0  0  0  0  0  0  0  0  0  0
   54.9546   13.3748   81.2707 C   0  0  0  0  0  0  0  0  0  0  0  0
   52.9266   16.8662   83.4414 C   0  0  0  0  0  0  0  0  0  0  0  0
   49.8292    9.8298   82.5159 C   0  0  0  0  0  0  0  0  0  0  0  0
   56.0307   12.7723   80.6627 O   0  0  0  0  0  0  0  0  0  0  0  0
   55.0596   14.6380   81.7258 N   0  0  0  0  0  0  0  0  0  0  0  0
   53.9239   15.0996   82.3292 C   0  0  0  0  0  0  0  0  0  0  0  0
   53.0827   18.3281   84.0153 C   0  0  0  0  0  0  0  0  0  0  0  0
   54.1319   16.2660   82.7594 C   0  0  0  0  0  0  0  0  0  0  0  0
   53.6093   11.4722   80.4428 C   0  0  0  0  0  0  0  0  0  0  0  0
  1  2  2  0
  2  3  1  0
  3  4  1  0
  3  5  1  0
  5  6  2  0
  1  7  1  0
  6  8  1  0
  6  9  1  0
  4 10  1  0
  7 11  2  0
  9 12  1  0
 10 13  2  0
 10 14  1  0
  2 15  1  0
 14 15  2  0
 11 16  1  0
 11 17  1  0
 15 17  1  0
  4 18  1  0
  8 18  2  0
M  END
>  <ID>  (1) 
conformer_0

$$$$
