
     RDKit          3D

 19 21  0  0  0  0  0  0  0  0999 V2000
   49.4321   10.8493   82.1952 C   0  0  0  0  0  0  0  0  0  0  0  0
   50.4346   11.6706   82.3016 C   0  0  0  0  0  0  0  0  0  0  0  0
   48.3616   10.6329   82.9940 C   0  0  0  0  0  0  0  0  0  0  0  0
   49.8502    9.6318   81.2664 C   0  0  0  0  0  0  0  0  0  0  0  0
   50.2702   12.7556   83.2031 C   0  0  0  0  0  0  0  0  0  0  0  0
   51.4355   13.6898   83.0606 C   0  0  0  0  0  0  0  0  0  0  0  0
   52.2733   13.4316   82.0344 C   0  0  0  0  0  0  0  0  0  0  0  0
   53.5159   14.1986   81.8872 N   0  0  0  0  0  0  0  0  0  0  0  0
   54.6430   13.5772   81.2819 C   0  0  0  0  0  0  0  0  0  0  0  0
   54.5967   12.5195   80.6095 C   0  0  0  0  0  0  0  0  0  0  0  0
   55.7294   13.5362   82.3450 C   0  0  0  0  0  0  0  0  0  0  0  0
   51.8483   11.4787   81.7778 S   0  0  0  0  0  0  0  0  0  0  0  0
   52.5126   12.3805   81.3318 C   0  0  0  0  0  0  0  0  0  0  0  0
   51.6390   15.2392   82.9400 C   0  0  0  0  0  0  0  0  0  0  0  0
   53.0612   15.3695   82.5713 C   0  0  0  0  0  0  0  0  0  0  0  0
   53.7608   16.4689   82.7193 C   0  0  0  0  0  0  0  0  0  0  0  0
   55.0285   16.5546   82.1793 C   0  0  0  0  0  0  0  0  0  0  0  0
   53.3395   11.9376   80.5165 C   0  0  0  0  0  0  0  0  0  0  0  0
   53.2579   17.3984   83.6597 C   0  0  0  0  0  0  0  0  0  0  0  0
  1  2  2  3
  1  3  1  0
  1  4  1  0
  2  5  1  0
  5  6  1  0
  6  7  1  0
  7  8  1  0
  8  9  1  0
  9 10  1  0
  9 11  1  0
  2 12  1  0
  7 13  1  0
 12 13  1  0
  6 14  1  0
  8 15  1  0
 14 15  1  0
 15 16  2  3
 16 17  1  0
 10 18  1  0
 13 18  1  0
 16 19  1  0
M  END
>  <ID>  (1) 
conformer_0

$$$$
