
     RDKit          3D

 19 21  0  0  0  0  0  0  0  0999 V2000
   53.8487   15.8627   81.8716 N   0  0  0  0  0  0  0  0  0  0  0  0
   53.1906   15.3922   82.6499 C   0  0  0  0  0  0  0  0  0  0  0  0
   52.7706   14.0557   82.5732 C   0  0  0  0  0  0  0  0  0  0  0  0
   52.6157   16.2006   83.6841 C   0  0  0  0  0  0  0  0  0  0  0  0
   51.6380   13.4610   82.7796 N   0  0  0  0  0  0  0  0  0  0  0  0
   53.7299   13.1681   81.8766 C   0  0  0  0  0  0  0  0  0  0  0  0
   53.3131   11.8576   81.5910 N   0  0  0  0  0  0  0  0  0  0  0  0
   55.0222   13.5736   81.4259 C   0  0  0  0  0  0  0  0  0  0  0  0
   52.0629   11.4542   81.9315 C   0  0  0  0  0  0  0  0  0  0  0  0
   51.2176   12.3019   82.5139 C   0  0  0  0  0  0  0  0  0  0  0  0
   56.0100   12.7863   81.2346 O   0  0  0  0  0  0  0  0  0  0  0  0
   54.4642   17.1487   82.1840 C   0  0  0  0  0  0  0  0  0  0  0  0
   49.9028   11.6154   82.7363 C   0  0  0  0  0  0  0  0  0  0  0  0
   49.7149   10.4728   82.4031 C   0  0  0  0  0  0  0  0  0  0  0  0
   48.3934    9.8508   82.6134 C   0  0  0  0  0  0  0  0  0  0  0  0
   50.8260    9.5897   81.6810 C   0  0  0  0  0  0  0  0  0  0  0  0
   53.9641   18.0150   83.0686 C   0  0  0  0  0  0  0  0  0  0  0  0
   51.7688   10.0519   81.3490 C   0  0  0  0  0  0  0  0  0  0  0  0
   53.0000   17.5717   83.8974 C   0  0  0  0  0  0  0  0  0  0  0  0
  1  2  1  0
  2  3  1  0
  2  4  2  0
  3  5  1  0
  3  6  2  0
  6  7  1  0
  6  8  1  0
  7  9  2  0
  5 10  2  0
  9 10  1  0
  8 11  1  0
  1 12  2  0
 10 13  1  0
 13 14  2  0
 14 15  1  0
 14 16  1  0
 12 17  1  0
  9 18  1  0
 16 18  2  0
  4 19  1  0
 17 19  2  0
M  END
>  <ID>  (1) 
conformer_0

$$$$
