
     RDKit          3D

 18 20  0  0  0  0  0  0  0  0999 V2000
   52.3272   12.1904   81.1642 C   0  0  0  0  0  0  0  0  0  0  0  0
   51.3958   11.3966   81.4057 C   0  0  0  0  0  0  0  0  0  0  0  0
   52.5931   13.3677   81.7428 N   0  0  0  0  0  0  0  0  0  0  0  0
   53.4294   11.7570   80.2550 C   0  0  0  0  0  0  0  0  0  0  0  0
   53.7538   14.1299   81.6126 C   0  0  0  0  0  0  0  0  0  0  0  0
   53.0518   11.2444   79.1123 O   0  0  0  0  0  0  0  0  0  0  0  0
   54.7193   11.9763   80.5848 N   0  0  0  0  0  0  0  0  0  0  0  0
   50.9340   10.1370   80.9349 C   0  0  0  0  0  0  0  0  0  0  0  0
   51.6902   13.8429   82.5968 N   0  0  0  0  0  0  0  0  0  0  0  0
   50.5759   13.0447   82.8403 C   0  0  0  0  0  0  0  0  0  0  0  0
   50.3873   11.8878   82.3419 C   0  0  0  0  0  0  0  0  0  0  0  0
   49.6760    9.8444   81.5037 C   0  0  0  0  0  0  0  0  0  0  0  0
   54.0640   15.2957   82.4276 C   0  0  0  0  0  0  0  0  0  0  0  0
   53.5130   16.4616   82.1654 C   0  0  0  0  0  0  0  0  0  0  0  0
   54.2531   17.7437   82.5578 C   0  0  0  0  0  0  0  0  0  0  0  0
   54.9510   13.3939   81.1335 C   0  0  0  0  0  0  0  0  0  0  0  0
   49.1116   10.8453   82.5023 C   0  0  0  0  0  0  0  0  0  0  0  0
   53.5916   18.4139   83.6576 C   0  0  0  0  0  0  0  0  0  0  0  0
  1  2  2  0
  1  3  1  0
  1  4  1  0
  3  5  1  0
  4  6  2  0
  4  7  1  0
  2  8  1  0
  3  9  1  0
  9 10  2  0
  2 11  1  0
 10 11  1  0
  8 12  2  0
  5 13  1  0
 13 14  1  0
 14 15  1  0
  5 16  1  0
  7 16  2  0
 11 17  2  0
 12 17  1  0
 15 18  1  0
M  END
>  <ID>  (1) 
conformer_0

$$$$
