
     RDKit          3D

 18 21  0  0  0  0  0  0  0  0999 V2000
   55.6725   13.2494   81.6908 C   0  0  0  0  0  0  0  0  0  0  0  0
   54.6637   14.1465   81.7342 C   0  0  0  0  0  0  0  0  0  0  0  0
   53.4420   13.6431   82.0520 C   0  0  0  0  0  0  0  0  0  0  0  0
   53.1641   12.3216   81.7050 N   0  0  0  0  0  0  0  0  0  0  0  0
   54.0785   11.6620   81.0598 C   0  0  0  0  0  0  0  0  0  0  0  0
   51.8645   11.7978   81.8233 C   0  0  0  0  0  0  0  0  0  0  0  0
   50.8465   12.3208   82.4610 C   0  0  0  0  0  0  0  0  0  0  0  0
   51.1433   13.5604   83.0592 C   0  0  0  0  0  0  0  0  0  0  0  0
   52.3629   14.4606   82.5662 C   0  0  0  0  0  0  0  0  0  0  0  0
   49.6968   11.6159   82.6243 C   0  0  0  0  0  0  0  0  0  0  0  0
   52.7784   15.4352   83.5163 C   0  0  0  0  0  0  0  0  0  0  0  0
   55.2400   12.1589   80.9065 C   0  0  0  0  0  0  0  0  0  0  0  0
   49.5064   10.3978   82.0465 C   0  0  0  0  0  0  0  0  0  0  0  0
   51.7084   10.5222   81.1268 C   0  0  0  0  0  0  0  0  0  0  0  0
   51.9280   15.9424   84.2328 O   0  0  0  0  0  0  0  0  0  0  0  0
   50.5061    9.8506   81.2704 C   0  0  0  0  0  0  0  0  0  0  0  0
   54.9512   15.3241   82.8821 C   0  0  0  0  0  0  0  0  0  0  0  0
   54.0528   15.7755   83.5002 C   0  0  0  0  0  0  0  0  0  0  0  0
  1  2  1  0
  2  3  1  0
  3  4  1  0
  4  5  1  0
  4  6  1  0
  6  7  2  0
  7  8  1  0
  3  9  1  0
  8  9  1  0
  7 10  1  0
  9 11  1  0
  1 12  1  0
  5 12  1  0
 10 13  2  0
  6 14  1  0
 11 15  2  0
 13 16  1  0
 14 16  2  0
  2 17  1  0
 11 18  1  0
 17 18  2  0
M  END
>  <ID>  (1) 
conformer_0

$$$$
