
     RDKit          3D

 18 21  0  0  0  0  0  0  0  0999 V2000
   55.3356   14.6136   82.0554 C   0  0  0  0  0  0  0  0  0  0  0  0
   55.1738   13.5173   81.4185 C   0  0  0  0  0  0  0  0  0  0  0  0
   53.9162   13.0077   81.2452 C   0  0  0  0  0  0  0  0  0  0  0  0
   53.6835   11.7655   80.5148 N   0  0  0  0  0  0  0  0  0  0  0  0
   54.2896   15.3299   82.6419 C   0  0  0  0  0  0  0  0  0  0  0  0
   54.4803   16.5348   83.3142 C   0  0  0  0  0  0  0  0  0  0  0  0
   52.8791   13.5454   81.8559 C   0  0  0  0  0  0  0  0  0  0  0  0
   53.0407   14.6741   82.6222 C   0  0  0  0  0  0  0  0  0  0  0  0
   51.7003   12.6108   81.8175 C   0  0  0  0  0  0  0  0  0  0  0  0
   51.8706   15.2625   83.2894 C   0  0  0  0  0  0  0  0  0  0  0  0
   52.0750   16.6163   83.5661 C   0  0  0  0  0  0  0  0  0  0  0  0
   56.3269   12.9866   80.7247 O   0  0  0  0  0  0  0  0  0  0  0  0
   52.2364   11.5764   80.8934 C   0  0  0  0  0  0  0  0  0  0  0  0
   50.8468   11.8929   82.5554 N   0  0  0  0  0  0  0  0  0  0  0  0
   50.6771   10.7607   81.8291 C   0  0  0  0  0  0  0  0  0  0  0  0
   53.3371   17.2884   83.6539 C   0  0  0  0  0  0  0  0  0  0  0  0
   51.5535   10.5164   80.9699 N   0  0  0  0  0  0  0  0  0  0  0  0
   49.4153    9.7181   82.1941 C   0  0  0  0  0  0  0  0  0  0  0  0
  1  2  2  0
  2  3  1  0
  3  4  1  0
  1  5  1  0
  5  6  1  0
  3  7  2  0
  5  8  2  0
  7  8  1  0
  7  9  1  0
  8 10  1  0
 10 11  2  0
  2 12  1  0
  4 13  1  0
  9 13  1  0
  9 14  1  0
 14 15  2  0
  6 16  2  0
 11 16  1  0
 13 17  2  0
 15 17  1  0
 15 18  1  0
M  END
>  <ID>  (1) 
conformer_0

$$$$
