
     RDKit          3D

 18 20  0  0  0  0  0  0  0  0999 V2000
   51.9114   15.2464   83.1045 C   0  0  0  0  0  0  0  0  0  0  0  0
   52.4407   14.1307   82.5121 C   0  0  0  0  0  0  0  0  0  0  0  0
   53.8201   14.3249   81.9060 C   0  0  0  0  0  0  0  0  0  0  0  0
   51.9045   12.8378   82.3088 C   0  0  0  0  0  0  0  0  0  0  0  0
   50.7174   12.4814   82.7809 C   0  0  0  0  0  0  0  0  0  0  0  0
   54.4593   13.1876   81.2359 C   0  0  0  0  0  0  0  0  0  0  0  0
   52.5610   11.8152   81.5545 C   0  0  0  0  0  0  0  0  0  0  0  0
   53.8565   12.0584   81.1562 N   0  0  0  0  0  0  0  0  0  0  0  0
   51.8598   10.7288   81.3408 N   0  0  0  0  0  0  0  0  0  0  0  0
   50.0541   11.2849   82.5492 C   0  0  0  0  0  0  0  0  0  0  0  0
   52.6191   16.4169   83.1131 C   0  0  0  0  0  0  0  0  0  0  0  0
   53.9101   16.5129   82.5889 C   0  0  0  0  0  0  0  0  0  0  0  0
   54.6061   15.3742   82.0452 C   0  0  0  0  0  0  0  0  0  0  0  0
   48.7535   10.9228   83.0409 C   0  0  0  0  0  0  0  0  0  0  0  0
   50.6794   10.4819   81.8472 C   0  0  0  0  0  0  0  0  0  0  0  0
   54.5969   17.9170   82.6395 C   0  0  0  0  0  0  0  0  0  0  0  0
   55.8119   13.1186   81.1741 O   0  0  0  0  0  0  0  0  0  0  0  0
   50.0878    8.9899   81.5181 C   0  0  0  0  0  0  0  0  0  0  0  0
  1  2  2  0
  2  3  1  0
  2  4  1  0
  4  5  2  0
  3  6  1  0
  4  7  1  0
  6  8  1  0
  7  8  1  0
  7  9  2  0
  5 10  1  0
  1 11  1  0
 11 12  2  0
  3 13  2  0
 12 13  1  0
 10 14  1  0
  9 15  1  0
 10 15  2  0
 12 16  1  0
  6 17  2  0
 15 18  1  0
M  END
>  <ID>  (1) 
conformer_0

$$$$
