
     RDKit          3D

 19 22  0  0  0  0  0  0  0  0999 V2000
   54.0151   16.6005   82.2112 C   0  0  0  0  0  0  0  0  0  0  0  0
   53.4759   15.5511   82.7528 C   0  0  0  0  0  0  0  0  0  0  0  0
   53.3482   14.2628   82.5209 C   0  0  0  0  0  0  0  0  0  0  0  0
   54.0303   13.7168   81.4789 N   0  0  0  0  0  0  0  0  0  0  0  0
   52.9316   15.9595   84.1273 C   0  0  0  0  0  0  0  0  0  0  0  0
   52.9508   17.2388   84.5168 C   0  0  0  0  0  0  0  0  0  0  0  0
   53.7553   12.5186   80.9388 C   0  0  0  0  0  0  0  0  0  0  0  0
   55.5151   13.8577   81.5235 C   0  0  0  0  0  0  0  0  0  0  0  0
   52.3326   12.0490   81.0069 C   0  0  0  0  0  0  0  0  0  0  0  0
   55.9885   12.6102   80.8211 C   0  0  0  0  0  0  0  0  0  0  0  0
   54.8721   11.9306   80.3842 C   0  0  0  0  0  0  0  0  0  0  0  0
   53.5248   18.2356   83.7744 C   0  0  0  0  0  0  0  0  0  0  0  0
   51.9322   11.0621   80.1873 C   0  0  0  0  0  0  0  0  0  0  0  0
   51.5499   12.4025   82.0401 C   0  0  0  0  0  0  0  0  0  0  0  0
   50.6317   10.6511   80.6433 C   0  0  0  0  0  0  0  0  0  0  0  0
   54.1632   17.9129   82.5525 C   0  0  0  0  0  0  0  0  0  0  0  0
   50.4496   11.7808   82.2204 C   0  0  0  0  0  0  0  0  0  0  0  0
   51.9533   13.6220   82.9208 C   0  0  0  0  0  0  0  0  0  0  0  0
   49.9201   10.9106   81.5727 C   0  0  0  0  0  0  0  0  0  0  0  0
  1  2  2  0
  2  3  1  0
  3  4  1  0
  2  5  1  0
  5  6  2  0
  4  7  1  0
  4  8  1  0
  7  9  1  0
  8 10  2  0
  7 11  2  0
 10 11  1  0
  6 12  1  0
  9 13  2  0
  9 14  1  0
 13 15  1  0
  1 16  1  0
 12 16  2  0
 14 17  2  0
  3 18  1  0
 14 18  1  0
 15 19  2  0
 17 19  1  0
M  END
>  <ID>  (1) 
conformer_0

$$$$
