
     RDKit          3D

 18 21  0  0  0  0  0  0  0  0999 V2000
   52.3272   12.1904   81.1642 C   0  0  0  0  0  0  0  0  0  0  0  0
   51.3958   11.3966   81.4057 C   0  0  0  0  0  0  0  0  0  0  0  0
   52.5931   13.3677   81.7428 N   0  0  0  0  0  0  0  0  0  0  0  0
   53.4294   11.7570   80.2550 C   0  0  0  0  0  0  0  0  0  0  0  0
   51.6668   13.7984   82.6878 C   0  0  0  0  0  0  0  0  0  0  0  0
   50.6269   12.9749   82.9255 N   0  0  0  0  0  0  0  0  0  0  0  0
   50.4275   11.8417   82.3382 C   0  0  0  0  0  0  0  0  0  0  0  0
   51.8064   14.9904   83.3694 N   0  0  0  0  0  0  0  0  0  0  0  0
   53.7565   14.1052   81.4641 C   0  0  0  0  0  0  0  0  0  0  0  0
   54.7091   12.3591   80.2833 C   0  0  0  0  0  0  0  0  0  0  0  0
   53.8843   15.4417   82.1905 C   0  0  0  0  0  0  0  0  0  0  0  0
   52.7064   15.9208   82.9469 C   0  0  0  0  0  0  0  0  0  0  0  0
   55.7780   11.8576   79.5009 C   0  0  0  0  0  0  0  0  0  0  0  0
   51.1021   10.1493   80.6641 C   0  0  0  0  0  0  0  0  0  0  0  0
   49.8577    9.7535   81.0614 C   0  0  0  0  0  0  0  0  0  0  0  0
   49.2228   10.7095   82.2981 S   0  0  0  0  0  0  0  0  0  0  0  0
   52.6726   16.9907   83.4209 O   0  0  0  0  0  0  0  0  0  0  0  0
   54.7964   13.7074   80.8640 N   0  0  0  0  0  0  0  0  0  0  0  0
  1  2  2  0
  1  3  1  0
  1  4  1  0
  3  5  1  0
  5  6  2  0
  2  7  1  0
  6  7  1  0
  5  8  1  0
  3  9  1  0
  4 10  2  0
  9 11  1  0
  8 12  1  0
 11 12  1  0
 10 13  1  0
  2 14  1  0
 14 15  2  0
  7 16  2  0
 15 16  1  0
 12 17  2  0
  9 18  2  0
 10 18  1  0
M  END
>  <ID>  (1) 
conformer_0

$$$$
