
     RDKit          3D

 18 21  0  0  0  0  0  0  0  0999 V2000
   55.1246   14.8518   81.6552 C   0  0  0  0  0  0  0  0  0  0  0  0
   55.0133   13.4941   81.3603 C   0  0  0  0  0  0  0  0  0  0  0  0
   54.0494   15.3373   82.4153 C   0  0  0  0  0  0  0  0  0  0  0  0
   53.0520   14.6297   82.6731 C   0  0  0  0  0  0  0  0  0  0  0  0
   53.9787   12.7446   81.5135 C   0  0  0  0  0  0  0  0  0  0  0  0
   52.8983   13.2544   82.2545 C   0  0  0  0  0  0  0  0  0  0  0  0
   51.9208   15.1230   83.5068 C   0  0  0  0  0  0  0  0  0  0  0  0
   54.0796   16.7379   82.8106 C   0  0  0  0  0  0  0  0  0  0  0  0
   51.9153   12.3707   82.2381 C   0  0  0  0  0  0  0  0  0  0  0  0
   50.5718   12.4684   82.7543 N   0  0  0  0  0  0  0  0  0  0  0  0
   52.2744   11.2820   81.3541 C   0  0  0  0  0  0  0  0  0  0  0  0
   54.9132   17.6511   82.2736 O   0  0  0  0  0  0  0  0  0  0  0  0
   51.9595   16.3972   83.9046 C   0  0  0  0  0  0  0  0  0  0  0  0
   53.7091   11.3950   80.9405 N   0  0  0  0  0  0  0  0  0  0  0  0
   53.0126   17.2497   83.5344 C   0  0  0  0  0  0  0  0  0  0  0  0
   49.8826   11.3352   82.5982 C   0  0  0  0  0  0  0  0  0  0  0  0
   50.3731   10.1945   81.6772 C   0  0  0  0  0  0  0  0  0  0  0  0
   51.5333   10.2187   81.1756 C   0  0  0  0  0  0  0  0  0  0  0  0
  1  2  1  0
  1  3  1  0
  3  4  2  0
  2  5  2  0
  4  6  1  0
  5  6  1  0
  4  7  1  0
  3  8  1  0
  6  9  2  0
  9 10  1  0
  9 11  1  0
  8 12  1  0
  7 13  2  0
  5 14  1  0
 11 14  2  0
  8 15  2  0
 13 15  1  0
 10 16  2  0
 16 17  1  0
 11 18  1  0
 17 18  2  0
M  END
>  <ID>  (1) 
conformer_0

$$$$
