
     RDKit          3D

 19 22  0  0  0  0  0  0  0  0999 V2000
   52.3272   12.1904   81.1642 C   0  0  0  0  0  0  0  0  0  0  0  0
   51.3958   11.3966   81.4057 C   0  0  0  0  0  0  0  0  0  0  0  0
   53.3778   11.8402   80.4145 C   0  0  0  0  0  0  0  0  0  0  0  0
   52.6392   13.2734   81.9988 C   0  0  0  0  0  0  0  0  0  0  0  0
   54.5015   12.5737   80.2496 C   0  0  0  0  0  0  0  0  0  0  0  0
   51.6776   13.6593   82.9409 C   0  0  0  0  0  0  0  0  0  0  0  0
   54.7561   13.6752   81.0314 C   0  0  0  0  0  0  0  0  0  0  0  0
   51.7383   14.9709   83.4893 C   0  0  0  0  0  0  0  0  0  0  0  0
   51.1852   10.1403   81.0840 C   0  0  0  0  0  0  0  0  0  0  0  0
   53.8729   14.1714   82.0115 C   0  0  0  0  0  0  0  0  0  0  0  0
   53.8775   15.3444   82.7122 C   0  0  0  0  0  0  0  0  0  0  0  0
   49.8518    9.6546   80.9763 C   0  0  0  0  0  0  0  0  0  0  0  0
   55.0999   16.1617   82.6541 C   0  0  0  0  0  0  0  0  0  0  0  0
   52.8868   15.7034   83.5074 C   0  0  0  0  0  0  0  0  0  0  0  0
   52.9915   16.9909   84.1818 C   0  0  0  0  0  0  0  0  0  0  0  0
   49.0659   10.2874   82.0487 C   0  0  0  0  0  0  0  0  0  0  0  0
   53.8361   17.9932   83.6256 C   0  0  0  0  0  0  0  0  0  0  0  0
   49.9593   11.5669   82.3861 C   0  0  0  0  0  0  0  0  0  0  0  0
   54.7743   17.5080   82.8842 C   0  0  0  0  0  0  0  0  0  0  0  0
  1  2  1  0
  1  3  2  0
  1  4  1  0
  3  5  1  0
  4  6  1  0
  5  7  2  0
  6  8  2  0
  2  9  1  0
  4 10  2  0
  7 10  1  0
 10 11  1  0
  9 12  1  0
 11 13  1  0
  8 14  1  0
 11 14  2  0
 14 15  1  0
 12 16  1  0
 15 17  1  0
  2 18  1  0
 16 18  1  0
 13 19  1  0
 17 19  1  0
M  END
>  <ID>  (1) 
conformer_0

$$$$
