
     RDKit          3D

 12 13  0  0  0  0  0  0  0  0999 V2000
   54.4971   17.2246   82.3312 C   0  0  0  0  0  0  0  0  0  0  0  0
   54.4736   15.8527   82.1173 C   0  0  0  0  0  0  0  0  0  0  0  0
   55.4539   15.2635   81.2159 C   0  0  0  0  0  0  0  0  0  0  0  0
   55.5163   13.7540   81.1331 C   0  0  0  0  0  0  0  0  0  0  0  0
   53.4508   15.0046   82.6826 C   0  0  0  0  0  0  0  0  0  0  0  0
   52.4867   15.4928   83.5514 C   0  0  0  0  0  0  0  0  0  0  0  0
   51.6665   14.7126   84.1491 F   0  0  0  0  0  0  0  0  0  0  0  0
   54.6005   12.9591   81.7644 C   0  0  0  0  0  0  0  0  0  0  0  0
   53.6258   13.4741   82.3520 C   0  0  0  0  0  0  0  0  0  0  0  0
   53.5700   17.8828   83.1179 C   0  0  0  0  0  0  0  0  0  0  0  0
   53.5264   19.1274   83.3165 F   0  0  0  0  0  0  0  0  0  0  0  0
   52.5139   16.9547   83.7304 C   0  0  0  0  0  0  0  0  0  0  0  0
  1  2  2  0
  2  3  1  0
  3  4  2  0
  2  5  1  0
  5  6  2  0
  6  7  1  0
  4  8  1  0
  5  9  1  0
  8  9  2  0
  1 10  1  0
 10 11  1  0
  6 12  1  0
 10 12  2  0
M  END
>  <ID>  (1) 
conformer_0

$$$$
