
     RDKit          3D

 18 21  0  0  0  0  0  0  0  0999 V2000
   51.9114   15.2464   83.1045 C   0  0  0  0  0  0  0  0  0  0  0  0
   52.9938   14.7583   82.4076 C   0  0  0  0  0  0  0  0  0  0  0  0
   54.1740   15.5638   82.2703 C   0  0  0  0  0  0  0  0  0  0  0  0
   54.1283   16.8174   82.7758 C   0  0  0  0  0  0  0  0  0  0  0  0
   53.0422   13.3168   81.8168 C   0  0  0  0  0  0  0  0  0  0  0  0
   54.1380   12.8150   81.2665 C   0  0  0  0  0  0  0  0  0  0  0  0
   50.9024   14.4010   83.1301 N   0  0  0  0  0  0  0  0  0  0  0  0
   51.8937   12.5931   82.0506 C   0  0  0  0  0  0  0  0  0  0  0  0
   55.4239   12.9044   81.6452 C   0  0  0  0  0  0  0  0  0  0  0  0
   51.8890   16.4370   83.6374 C   0  0  0  0  0  0  0  0  0  0  0  0
   53.0978   17.2848   83.5321 C   0  0  0  0  0  0  0  0  0  0  0  0
   50.8407   13.1419   82.7365 C   0  0  0  0  0  0  0  0  0  0  0  0
   49.9669   11.9908   82.8594 N   0  0  0  0  0  0  0  0  0  0  0  0
   49.9252   10.8447   82.3632 C   0  0  0  0  0  0  0  0  0  0  0  0
   52.0179   11.3163   81.3750 C   0  0  0  0  0  0  0  0  0  0  0  0
   56.3269   12.6462   80.6353 O   0  0  0  0  0  0  0  0  0  0  0  0
   53.6711   11.5259   80.6760 C   0  0  0  0  0  0  0  0  0  0  0  0
   51.0448   10.4824   81.5154 C   0  0  0  0  0  0  0  0  0  0  0  0
  1  2  1  0
  2  3  2  0
  3  4  1  0
  2  5  1  0
  5  6  1  0
  1  7  2  0
  5  8  2  0
  6  9  1  0
  1 10  1  0
  4 11  2  0
 10 11  2  0
  7 12  1  0
  8 12  1  0
 12 13  2  0
 13 14  1  0
  8 15  1  0
  9 16  1  0
  6 17  2  0
 15 17  1  0
 14 18  2  0
 15 18  2  0
M  END
>  <ID>  (1) 
conformer_0

$$$$
