
     RDKit          3D

 19 22  0  0  0  0  0  0  0  0999 V2000
   52.6585   17.5760   83.3939 C   0  0  0  0  0  0  0  0  0  0  0  0
   52.3079   16.2314   83.4337 C   0  0  0  0  0  0  0  0  0  0  0  0
   53.0749   15.2889   82.8436 C   0  0  0  0  0  0  0  0  0  0  0  0
   52.6960   13.8844   82.7684 C   0  0  0  0  0  0  0  0  0  0  0  0
   53.3633   13.0541   81.8352 C   0  0  0  0  0  0  0  0  0  0  0  0
   54.6926   13.3733   81.4964 C   0  0  0  0  0  0  0  0  0  0  0  0
   51.5486   13.4987   83.2041 N   0  0  0  0  0  0  0  0  0  0  0  0
   55.5094   12.5019   80.7895 C   0  0  0  0  0  0  0  0  0  0  0  0
   51.0832   12.2375   82.9182 C   0  0  0  0  0  0  0  0  0  0  0  0
   52.7578   11.8527   81.5629 C   0  0  0  0  0  0  0  0  0  0  0  0
   51.6205   11.4141   81.9960 C   0  0  0  0  0  0  0  0  0  0  0  0
   54.4142   15.4083   82.2882 C   0  0  0  0  0  0  0  0  0  0  0  0
   50.9270   10.1341   81.6522 C   0  0  0  0  0  0  0  0  0  0  0  0
   49.6909    9.9530   82.0286 C   0  0  0  0  0  0  0  0  0  0  0  0
   49.2376   10.8598   83.0362 C   0  0  0  0  0  0  0  0  0  0  0  0
   54.0240   18.0127   82.9560 C   0  0  0  0  0  0  0  0  0  0  0  0
   55.1389   14.5513   81.7261 C   0  0  0  0  0  0  0  0  0  0  0  0
   54.8700   16.9538   82.4028 C   0  0  0  0  0  0  0  0  0  0  0  0
   49.7345   11.9575   83.3437 C   0  0  0  0  0  0  0  0  0  0  0  0
  1  2  2  0
  2  3  1  0
  3  4  1  0
  4  5  1  0
  5  6  2  0
  4  7  2  0
  6  8  1  0
  7  9  1  0
  5 10  1  0
  9 11  1  0
 10 11  2  0
  3 12  2  0
 11 13  1  0
 13 14  1  0
 14 15  2  0
  1 16  1  0
  6 17  1  0
 12 17  1  0
 12 18  1  0
 16 18  2  0
  9 19  2  0
 15 19  1  0
M  END
>  <ID>  (1) 
conformer_0

$$$$
