
     RDKit          3D

 18 20  0  0  0  0  0  0  0  0999 V2000
   51.6893   14.8189   83.3023 N   0  0  0  0  0  0  0  0  0  0  0  0
   52.4298   15.8891   83.4065 C   0  0  0  0  0  0  0  0  0  0  0  0
   52.2341   13.8071   82.4519 C   0  0  0  0  0  0  0  0  0  0  0  0
   53.6366   16.0765   82.7869 C   0  0  0  0  0  0  0  0  0  0  0  0
   53.5304   13.9682   81.8283 C   0  0  0  0  0  0  0  0  0  0  0  0
   54.2550   15.0920   82.0564 C   0  0  0  0  0  0  0  0  0  0  0  0
   51.5417   12.5586   82.2545 C   0  0  0  0  0  0  0  0  0  0  0  0
   54.3572   17.4249   82.9194 C   0  0  0  0  0  0  0  0  0  0  0  0
   51.9877   11.5765   81.3397 C   0  0  0  0  0  0  0  0  0  0  0  0
   53.9706   12.8108   81.0092 C   0  0  0  0  0  0  0  0  0  0  0  0
   51.0591   10.4689   81.0200 C   0  0  0  0  0  0  0  0  0  0  0  0
   50.7195    9.6319   81.8695 C   0  0  0  0  0  0  0  0  0  0  0  0
   55.2725   12.8876   80.3371 C   0  0  0  0  0  0  0  0  0  0  0  0
   49.3525    9.3554   81.7607 C   0  0  0  0  0  0  0  0  0  0  0  0
   53.5587   18.3686   83.1693 C   0  0  0  0  0  0  0  0  0  0  0  0
   52.1826   18.0457   83.7298 C   0  0  0  0  0  0  0  0  0  0  0  0
   51.8013   16.9518   84.0181 C   0  0  0  0  0  0  0  0  0  0  0  0
   53.2362   11.7102   80.6803 C   0  0  0  0  0  0  0  0  0  0  0  0
  1  2  1  0
  1  3  2  0
  2  4  1  0
  3  5  1  0
  4  6  2  0
  5  6  1  0
  3  7  1  0
  4  8  1  0
  7  9  2  0
  5 10  2  0
  9 11  1  0
 11 12  1  0
 10 13  1  0
 12 14  1  0
  8 15  2  0
 15 16  1  0
  2 17  1  0
 16 17  2  0
  9 18  1  0
 10 18  1  0
M  END
>  <ID>  (1) 
conformer_0

$$$$
