
     RDKit          3D

 19 22  0  0  0  0  0  0  0  0999 V2000
   52.3272   12.1904   81.1642 C   0  0  0  0  0  0  0  0  0  0  0  0
   51.3958   11.3966   81.4057 C   0  0  0  0  0  0  0  0  0  0  0  0
   52.5931   13.3677   81.7428 N   0  0  0  0  0  0  0  0  0  0  0  0
   53.4294   11.7570   80.2550 C   0  0  0  0  0  0  0  0  0  0  0  0
   51.6668   13.7984   82.6878 C   0  0  0  0  0  0  0  0  0  0  0  0
   53.8300   13.9968   81.6390 C   0  0  0  0  0  0  0  0  0  0  0  0
   54.0999   15.2831   82.2626 C   0  0  0  0  0  0  0  0  0  0  0  0
   54.7590   11.9717   80.5830 C   0  0  0  0  0  0  0  0  0  0  0  0
   53.0527   16.0323   82.7578 C   0  0  0  0  0  0  0  0  0  0  0  0
   50.3165   11.7620   82.3745 C   0  0  0  0  0  0  0  0  0  0  0  0
   50.5222   13.0336   82.9143 C   0  0  0  0  0  0  0  0  0  0  0  0
   55.0020   13.3750   81.0919 C   0  0  0  0  0  0  0  0  0  0  0  0
   55.0597   16.2571   81.8103 C   0  0  0  0  0  0  0  0  0  0  0  0
   53.1015   17.2697   83.2451 C   0  0  0  0  0  0  0  0  0  0  0  0
   51.8410   15.1993   83.2213 N   0  0  0  0  0  0  0  0  0  0  0  0
   49.6885   10.7589   82.9294 C   0  0  0  0  0  0  0  0  0  0  0  0
   54.1864   18.0748   82.9223 C   0  0  0  0  0  0  0  0  0  0  0  0
   55.2585   17.4571   82.2086 C   0  0  0  0  0  0  0  0  0  0  0  0
   49.4718    9.5383   82.1271 C   0  0  0  0  0  0  0  0  0  0  0  0
  1  2  2  0
  1  3  1  0
  1  4  1  0
  3  5  1  0
  3  6  1  0
  6  7  1  0
  4  8  1  0
  7  9  1  0
  2 10  1  0
  5 11  2  0
 10 11  1  0
  6 12  1  0
  8 12  2  0
  7 13  2  0
  9 14  2  0
  5 15  1  0
  9 15  1  0
 10 16  2  3
 14 17  1  0
 13 18  1  0
 17 18  2  0
 16 19  1  0
M  END
>  <ID>  (1) 
conformer_0

$$$$
