
     RDKit          3D

 17 19  0  0  0  0  0  0  0  0999 V2000
   54.0151   16.6005   82.2112 C   0  0  0  0  0  0  0  0  0  0  0  0
   53.4759   15.5511   82.7528 C   0  0  0  0  0  0  0  0  0  0  0  0
   53.3482   14.2628   82.5209 C   0  0  0  0  0  0  0  0  0  0  0  0
   54.0303   13.7168   81.4789 N   0  0  0  0  0  0  0  0  0  0  0  0
   52.9316   15.9595   84.1273 C   0  0  0  0  0  0  0  0  0  0  0  0
   52.9508   17.2388   84.5168 C   0  0  0  0  0  0  0  0  0  0  0  0
   53.7553   12.5186   80.9388 C   0  0  0  0  0  0  0  0  0  0  0  0
   55.5151   13.8577   81.5235 C   0  0  0  0  0  0  0  0  0  0  0  0
   52.3326   12.0490   81.0069 C   0  0  0  0  0  0  0  0  0  0  0  0
   51.6529   12.1912   82.1875 C   0  0  0  0  0  0  0  0  0  0  0  0
   50.5663   11.4424   82.4442 C   0  0  0  0  0  0  0  0  0  0  0  0
   52.1555   10.9344   80.2493 C   0  0  0  0  0  0  0  0  0  0  0  0
   52.0200   13.4438   83.0305 C   0  0  0  0  0  0  0  0  0  0  0  0
   50.1428   10.5214   81.6014 C   0  0  0  0  0  0  0  0  0  0  0  0
   54.1589   17.8798   82.5088 C   0  0  0  0  0  0  0  0  0  0  0  0
   53.6040   18.2301   83.7173 C   0  0  0  0  0  0  0  0  0  0  0  0
   50.8542   10.2221   80.5172 C   0  0  0  0  0  0  0  0  0  0  0  0
  1  2  2  0
  2  3  1  0
  3  4  1  0
  2  5  1  0
  5  6  2  0
  4  7  1  0
  4  8  1  0
  7  9  1  0
  9 10  1  0
 10 11  2  0
  9 12  2  0
  3 13  2  0
 10 13  1  0
 11 14  1  0
  1 15  1  0
  6 16  1  0
 15 16  2  0
 12 17  1  0
 14 17  2  0
M  END
>  <ID>  (1) 
conformer_0

$$$$
