
     RDKit          3D

 18 20  0  0  0  0  0  0  0  0999 V2000
   52.3272   12.1904   81.1642 C   0  0  0  0  0  0  0  0  0  0  0  0
   51.3958   11.3966   81.4057 C   0  0  0  0  0  0  0  0  0  0  0  0
   52.5931   13.3677   81.7428 N   0  0  0  0  0  0  0  0  0  0  0  0
   53.4294   11.7570   80.2550 C   0  0  0  0  0  0  0  0  0  0  0  0
   53.7538   14.1299   81.6126 C   0  0  0  0  0  0  0  0  0  0  0  0
   53.0518   11.2444   79.1123 O   0  0  0  0  0  0  0  0  0  0  0  0
   54.7193   11.9763   80.5848 N   0  0  0  0  0  0  0  0  0  0  0  0
   50.9340   10.1370   80.9349 C   0  0  0  0  0  0  0  0  0  0  0  0
   51.6902   13.8429   82.5968 N   0  0  0  0  0  0  0  0  0  0  0  0
   50.5759   13.0447   82.8403 C   0  0  0  0  0  0  0  0  0  0  0  0
   50.3873   11.8878   82.3419 C   0  0  0  0  0  0  0  0  0  0  0  0
   54.0340   15.3713   82.3616 C   0  0  0  0  0  0  0  0  0  0  0  0
   53.1972   16.3288   82.3693 C   0  0  0  0  0  0  0  0  0  0  0  0
   55.3575   15.9425   82.0936 C   0  0  0  0  0  0  0  0  0  0  0  0
   49.6621    9.8388   81.4919 C   0  0  0  0  0  0  0  0  0  0  0  0
   54.9517   13.3815   81.1287 C   0  0  0  0  0  0  0  0  0  0  0  0
   49.3625   10.9070   82.3627 C   0  0  0  0  0  0  0  0  0  0  0  0
   53.4887   17.5684   83.2409 C   0  0  0  0  0  0  0  0  0  0  0  0
  1  2  2  0
  1  3  1  0
  1  4  1  0
  3  5  1  0
  4  6  2  0
  4  7  1  0
  2  8  1  0
  3  9  1  0
  9 10  2  0
  2 11  1  0
 10 11  1  0
  5 12  1  0
 12 13  1  0
 12 14  1  0
  8 15  2  0
  5 16  1  0
  7 16  1  0
 11 17  2  0
 15 17  1  0
 13 18  1  0
M  END
>  <ID>  (1) 
conformer_0

$$$$
