
     RDKit          3D

 19 22  0  0  0  0  0  0  0  0999 V2000
   52.3272   12.1904   81.1642 C   0  0  0  0  0  0  0  0  0  0  0  0
   51.3958   11.3966   81.4057 C   0  0  0  0  0  0  0  0  0  0  0  0
   52.5931   13.3677   81.7428 N   0  0  0  0  0  0  0  0  0  0  0  0
   53.4294   11.7570   80.2550 C   0  0  0  0  0  0  0  0  0  0  0  0
   51.6668   13.7984   82.6878 C   0  0  0  0  0  0  0  0  0  0  0  0
   53.8300   13.9968   81.6390 C   0  0  0  0  0  0  0  0  0  0  0  0
   54.0999   15.2831   82.2626 C   0  0  0  0  0  0  0  0  0  0  0  0
   55.1141   16.0410   81.8769 O   0  0  0  0  0  0  0  0  0  0  0  0
   51.1203   10.1751   80.6907 C   0  0  0  0  0  0  0  0  0  0  0  0
   52.0913   10.0192   79.6602 C   0  0  0  0  0  0  0  0  0  0  0  0
   51.9107   15.1852   83.3174 C   0  0  0  0  0  0  0  0  0  0  0  0
   54.9928   17.3092   82.2834 C   0  0  0  0  0  0  0  0  0  0  0  0
   54.5799   12.6003   80.1496 C   0  0  0  0  0  0  0  0  0  0  0  0
   55.6747   12.1456   79.5250 O   0  0  0  0  0  0  0  0  0  0  0  0
   54.6545   13.6435   80.7780 N   0  0  0  0  0  0  0  0  0  0  0  0
   53.1041   15.8140   83.0780 C   0  0  0  0  0  0  0  0  0  0  0  0
   53.1782   10.6822   79.4885 C   0  0  0  0  0  0  0  0  0  0  0  0
   53.7461   17.3162   83.1950 C   0  0  0  0  0  0  0  0  0  0  0  0
   50.0027    9.4277   80.8735 C   0  0  0  0  0  0  0  0  0  0  0  0
  1  2  2  0
  1  3  1  0
  1  4  1  0
  3  5  1  0
  3  6  1  0
  6  7  1  0
  7  8  1  0
  2  9  1  0
  9 10  2  0
  5 11  2  0
  8 12  1  0
  4 13  1  0
 13 14  2  0
  6 15  1  0
 13 15  1  0
  7 16  2  0
 11 16  1  0
  4 17  2  0
 10 17  1  0
 12 18  1  0
 16 18  1  0
  9 19  1  0
M  END
>  <ID>  (1) 
conformer_0

$$$$
