
     RDKit          3D

 19 22  0  0  0  0  0  0  0  0999 V2000
   51.9114   15.2464   83.1045 C   0  0  0  0  0  0  0  0  0  0  0  0
   52.9938   14.7583   82.4076 C   0  0  0  0  0  0  0  0  0  0  0  0
   54.1740   15.5638   82.2703 C   0  0  0  0  0  0  0  0  0  0  0  0
   54.1929   16.7898   82.8081 C   0  0  0  0  0  0  0  0  0  0  0  0
   55.2372   14.9703   81.5546 N   0  0  0  0  0  0  0  0  0  0  0  0
   50.8721   14.4562   83.2374 N   0  0  0  0  0  0  0  0  0  0  0  0
   55.2394   13.6542   81.4097 C   0  0  0  0  0  0  0  0  0  0  0  0
   53.0088   13.3449   81.9268 C   0  0  0  0  0  0  0  0  0  0  0  0
   51.9883   16.4646   83.6033 N   0  0  0  0  0  0  0  0  0  0  0  0
   51.8620   12.5871   82.0041 C   0  0  0  0  0  0  0  0  0  0  0  0
   50.8251   13.1520   82.7951 C   0  0  0  0  0  0  0  0  0  0  0  0
   49.7101   12.2652   82.9672 N   0  0  0  0  0  0  0  0  0  0  0  0
   56.4936   13.1881   80.7940 N   0  0  0  0  0  0  0  0  0  0  0  0
   54.1529   12.7750   81.3908 N   0  0  0  0  0  0  0  0  0  0  0  0
   51.5397   11.2962   81.5010 C   0  0  0  0  0  0  0  0  0  0  0  0
   50.4807   10.5893   81.6403 C   0  0  0  0  0  0  0  0  0  0  0  0
   49.5446   10.9711   82.4498 C   0  0  0  0  0  0  0  0  0  0  0  0
   50.3087    9.2645   81.0492 F   0  0  0  0  0  0  0  0  0  0  0  0
   53.1753   17.4058   83.2909 C   0  0  0  0  0  0  0  0  0  0  0  0
  1  2  1  0
  2  3  2  0
  3  4  1  0
  3  5  1  0
  1  6  1  0
  5  7  2  0
  2  8  1  0
  1  9  2  0
  8 10  1  0
  6 11  2  0
 10 11  1  0
 11 12  1  0
  7 13  1  0
  7 14  1  0
  8 14  2  0
 10 15  2  0
 15 16  1  0
 12 17  1  0
 16 17  2  0
 16 18  1  0
  4 19  2  0
  9 19  1  0
M  END
>  <ID>  (1) 
conformer_0

$$$$
