
     RDKit          3D

 16 19  0  0  0  0  0  0  0  0999 V2000
   53.8487   15.8627   81.8716 N   0  0  0  0  0  0  0  0  0  0  0  0
   53.1906   15.3922   82.6499 C   0  0  0  0  0  0  0  0  0  0  0  0
   52.7706   14.0557   82.5732 C   0  0  0  0  0  0  0  0  0  0  0  0
   52.6157   16.2006   83.6841 C   0  0  0  0  0  0  0  0  0  0  0  0
   51.6380   13.4610   82.7796 N   0  0  0  0  0  0  0  0  0  0  0  0
   53.2323   17.5962   83.4597 C   0  0  0  0  0  0  0  0  0  0  0  0
   54.6645   15.0871   81.0343 C   0  0  0  0  0  0  0  0  0  0  0  0
   51.3892   12.2486   82.2292 C   0  0  0  0  0  0  0  0  0  0  0  0
   50.1586   11.5177   82.3935 C   0  0  0  0  0  0  0  0  0  0  0  0
   54.5850   13.7009   81.3222 C   0  0  0  0  0  0  0  0  0  0  0  0
   50.0206   10.3330   81.6909 C   0  0  0  0  0  0  0  0  0  0  0  0
   53.6062   13.2152   81.9135 C   0  0  0  0  0  0  0  0  0  0  0  0
   53.2072   11.7259   81.9189 C   0  0  0  0  0  0  0  0  0  0  0  0
   54.3356   17.3438   82.1057 C   0  0  0  0  0  0  0  0  0  0  0  0
   52.2772   11.4190   81.8764 C   0  0  0  0  0  0  0  0  0  0  0  0
   51.6817   10.1322   81.3978 N   0  0  0  0  0  0  0  0  0  0  0  0
  1  2  1  0
  2  3  1  0
  2  4  2  0
  3  5  1  0
  4  6  1  0
  1  7  1  0
  5  8  2  0
  8  9  1  0
  7 10  2  0
  9 11  2  0
  3 12  2  0
 10 12  1  0
 12 13  1  0
  1 14  1  0
  6 14  2  0
  8 15  1  0
 13 15  1  0
 11 16  1  0
 15 16  2  0
M  END
>  <ID>  (1) 
conformer_0

$$$$
