
     RDKit          3D

 19 22  0  0  0  0  0  0  0  0999 V2000
   51.6893   14.8189   83.3023 N   0  0  0  0  0  0  0  0  0  0  0  0
   52.4298   15.8891   83.4065 C   0  0  0  0  0  0  0  0  0  0  0  0
   52.4884   13.9934   82.3538 C   0  0  0  0  0  0  0  0  0  0  0  0
   53.7571   14.4087   81.9647 C   0  0  0  0  0  0  0  0  0  0  0  0
   54.5793   13.5009   81.2480 N   0  0  0  0  0  0  0  0  0  0  0  0
   53.8172   15.8228   82.6983 C   0  0  0  0  0  0  0  0  0  0  0  0
   55.8898   14.0753   81.0386 O   0  0  0  0  0  0  0  0  0  0  0  0
   52.1259   17.0861   84.1223 C   0  0  0  0  0  0  0  0  0  0  0  0
   51.9720   12.5969   81.9475 C   0  0  0  0  0  0  0  0  0  0  0  0
   53.0017   18.1997   83.7983 C   0  0  0  0  0  0  0  0  0  0  0  0
   54.4005   12.2745   80.9874 C   0  0  0  0  0  0  0  0  0  0  0  0
   52.9766   11.8603   81.2094 C   0  0  0  0  0  0  0  0  0  0  0  0
   51.0008   11.8403   82.4993 C   0  0  0  0  0  0  0  0  0  0  0  0
   54.4356   16.9424   82.4406 C   0  0  0  0  0  0  0  0  0  0  0  0
   50.9247   10.6476   81.7863 C   0  0  0  0  0  0  0  0  0  0  0  0
   52.3007   10.6704   80.8498 C   0  0  0  0  0  0  0  0  0  0  0  0
   55.0708   11.7834   79.9433 O   0  0  0  0  0  0  0  0  0  0  0  0
   49.9454    9.6205   81.7503 C   0  0  0  0  0  0  0  0  0  0  0  0
   54.1592   18.1010   83.1012 C   0  0  0  0  0  0  0  0  0  0  0  0
  1  2  2  0
  1  3  1  0
  3  4  2  0
  4  5  1  0
  2  6  1  0
  4  6  1  0
  5  7  1  0
  2  8  1  0
  3  9  1  0
  8 10  2  0
  5 11  1  0
  9 12  1  0
 11 12  1  0
  9 13  2  0
  6 14  1  0
 13 15  1  0
 12 16  1  0
 15 16  2  0
 11 17  2  0
 15 18  1  0
 10 19  1  0
 14 19  2  0
M  END
>  <ID>  (1) 
conformer_0

$$$$
