
     RDKit          3D

  5  5  0  0  0  0  0  0  0  0999 V2000
   49.3956    9.4562   82.6200 C   0  0  0  0  0  0  0  0  0  0  0  0
   50.2230    9.2461   81.5678 C   0  0  0  0  0  0  0  0  0  0  0  0
   49.3414   10.8084   83.1203 C   0  0  0  0  0  0  0  0  0  0  0  0
   50.3274   11.6362   82.3921 C   0  0  0  0  0  0  0  0  0  0  0  0
   50.9743   10.4775   81.2158 C   0  0  0  0  0  0  0  0  0  0  0  0
  1  2  1  0
  1  3  2  0
  3  4  1  0
  2  5  2  0
  4  5  2  0
M  END
>  <ID>  (1) 
conformer_0

$$$$
