
     RDKit          3D

 17 19  0  0  0  0  0  0  0  0999 V2000
   51.9114   15.2464   83.1045 C   0  0  0  0  0  0  0  0  0  0  0  0
   52.4407   14.1307   82.5121 C   0  0  0  0  0  0  0  0  0  0  0  0
   52.6453   16.2083   83.3288 C   0  0  0  0  0  0  0  0  0  0  0  0
   53.7822   14.4520   81.9996 C   0  0  0  0  0  0  0  0  0  0  0  0
   51.8770   12.8780   82.2430 C   0  0  0  0  0  0  0  0  0  0  0  0
   50.6393   12.5193   82.7168 N   0  0  0  0  0  0  0  0  0  0  0  0
   50.2005   11.3601   82.3596 C   0  0  0  0  0  0  0  0  0  0  0  0
   52.4820   11.8910   81.4856 C   0  0  0  0  0  0  0  0  0  0  0  0
   50.7984   10.4950   81.5525 C   0  0  0  0  0  0  0  0  0  0  0  0
   54.1814   15.8232   82.5382 S   0  0  0  0  0  0  0  0  0  0  0  0
   53.9016   12.4267   80.9603 C   0  0  0  0  0  0  0  0  0  0  0  0
   54.4884   13.5335   81.2882 C   0  0  0  0  0  0  0  0  0  0  0  0
   52.4149   17.6889   83.9683 C   0  0  0  0  0  0  0  0  0  0  0  0
   55.8521   13.7539   80.7936 C   0  0  0  0  0  0  0  0  0  0  0  0
   51.9598   10.6993   81.1842 C   0  0  0  0  0  0  0  0  0  0  0  0
   50.0285    9.0251   81.2443 Cl  0  0  0  0  0  0  0  0  0  0  0  0
   53.4733   18.6204   83.5733 C   0  0  0  0  0  0  0  0  0  0  0  0
  1  2  1  0
  1  3  2  0
  2  4  2  0
  2  5  1  0
  5  6  1  0
  6  7  2  0
  5  8  2  0
  7  9  1  0
  3 10  1  0
  4 10  1  0
  8 11  1  0
  4 12  1  0
 11 12  2  0
  3 13  1  0
 12 14  1  0
  8 15  1  0
  9 15  2  0
  9 16  1  0
 13 17  1  0
M  END
>  <ID>  (1) 
conformer_0

$$$$
