
     RDKit          3D

 19 22  0  0  0  0  0  0  0  0999 V2000
   51.9114   15.2464   83.1045 C   0  0  0  0  0  0  0  0  0  0  0  0
   52.4407   14.1307   82.5121 C   0  0  0  0  0  0  0  0  0  0  0  0
   52.6453   16.2083   83.3288 C   0  0  0  0  0  0  0  0  0  0  0  0
   53.7822   14.4520   81.9996 C   0  0  0  0  0  0  0  0  0  0  0  0
   51.8770   12.8780   82.2430 C   0  0  0  0  0  0  0  0  0  0  0  0
   54.4937   13.2793   81.3430 C   0  0  0  0  0  0  0  0  0  0  0  0
   52.0256   17.4394   83.9383 O   0  0  0  0  0  0  0  0  0  0  0  0
   54.3369   15.6618   82.2853 C   0  0  0  0  0  0  0  0  0  0  0  0
   52.6817   18.3929   84.0323 C   0  0  0  0  0  0  0  0  0  0  0  0
   52.4444   11.9317   81.4450 C   0  0  0  0  0  0  0  0  0  0  0  0
   54.0063   18.4853   83.2644 C   0  0  0  0  0  0  0  0  0  0  0  0
   50.7032   12.4108   82.8143 N   0  0  0  0  0  0  0  0  0  0  0  0
   51.7151   10.8095   81.1573 N   0  0  0  0  0  0  0  0  0  0  0  0
   53.8146   16.7033   82.8487 C   0  0  0  0  0  0  0  0  0  0  0  0
   50.4753   11.2438   82.1444 C   0  0  0  0  0  0  0  0  0  0  0  0
   51.7708    9.7123   80.4796 C   0  0  0  0  0  0  0  0  0  0  0  0
   53.8344   12.1741   80.9605 C   0  0  0  0  0  0  0  0  0  0  0  0
   49.2373   10.2582   82.2638 C   0  0  0  0  0  0  0  0  0  0  0  0
   55.7715   13.4853   80.8441 O   0  0  0  0  0  0  0  0  0  0  0  0
  1  2  1  0
  1  3  2  0
  2  4  2  0
  2  5  1  0
  4  6  1  0
  3  7  1  0
  4  8  1  0
  7  9  1  0
  5 10  2  0
  9 11  2  0
  5 12  1  0
 10 13  1  0
  3 14  1  0
  8 14  2  0
 11 14  1  0
 12 15  2  0
 13 15  1  0
 13 16  1  0
  6 17  2  0
 10 17  1  0
 15 18  1  0
  6 19  1  0
M  END
>  <ID>  (1) 
conformer_0

$$$$
