
     RDKit          3D

 18 21  0  0  0  0  0  0  0  0999 V2000
   52.6585   17.5760   83.3939 C   0  0  0  0  0  0  0  0  0  0  0  0
   52.3079   16.2314   83.4337 C   0  0  0  0  0  0  0  0  0  0  0  0
   53.0749   15.2889   82.8436 C   0  0  0  0  0  0  0  0  0  0  0  0
   52.6960   13.8844   82.7684 C   0  0  0  0  0  0  0  0  0  0  0  0
   53.3633   13.0541   81.8352 C   0  0  0  0  0  0  0  0  0  0  0  0
   54.6926   13.3733   81.4964 C   0  0  0  0  0  0  0  0  0  0  0  0
   51.5486   13.4987   83.2041 N   0  0  0  0  0  0  0  0  0  0  0  0
   54.3827   15.4776   82.5453 C   0  0  0  0  0  0  0  0  0  0  0  0
   54.7857   16.8890   82.7350 C   0  0  0  0  0  0  0  0  0  0  0  0
   52.9192   11.7877   81.5526 C   0  0  0  0  0  0  0  0  0  0  0  0
   51.0036   12.3210   82.8686 C   0  0  0  0  0  0  0  0  0  0  0  0
   51.6006   11.4109   82.0552 C   0  0  0  0  0  0  0  0  0  0  0  0
   54.0320   17.9198   83.0614 C   0  0  0  0  0  0  0  0  0  0  0  0
   49.8616   11.6449   83.4229 N   0  0  0  0  0  0  0  0  0  0  0  0
   50.8208   10.2513   81.9346 C   0  0  0  0  0  0  0  0  0  0  0  0
   49.5638   10.4209   82.8962 C   0  0  0  0  0  0  0  0  0  0  0  0
   55.2228   14.3787   82.0524 C   0  0  0  0  0  0  0  0  0  0  0  0
   55.5471   12.4557   80.7776 C   0  0  0  0  0  0  0  0  0  0  0  0
  1  2  2  0
  2  3  1  0
  3  4  1  0
  4  5  1  0
  5  6  2  0
  4  7  2  0
  3  8  2  0
  8  9  1  0
  5 10  1  0
  7 11  1  0
 10 12  2  0
 11 12  1  0
  1 13  1  0
  9 13  2  0
 11 14  2  0
 12 15  1  0
 14 16  1  0
 15 16  2  0
  6 17  1  0
  8 17  1  0
  6 18  1  0
M  END
>  <ID>  (1) 
conformer_0

$$$$
