
     RDKit          3D

 19 22  0  0  0  0  0  0  0  0999 V2000
   52.3065   16.2209   83.6099 C   0  0  0  0  0  0  0  0  0  0  0  0
   52.5501   14.9886   83.0698 C   0  0  0  0  0  0  0  0  0  0  0  0
   51.7672   13.8462   83.2249 N   0  0  0  0  0  0  0  0  0  0  0  0
   53.7311   14.8368   82.1543 C   0  0  0  0  0  0  0  0  0  0  0  0
   51.8607   12.8352   82.3861 C   0  0  0  0  0  0  0  0  0  0  0  0
   53.8548   13.4866   81.5752 C   0  0  0  0  0  0  0  0  0  0  0  0
   53.2424   17.2163   83.2692 C   0  0  0  0  0  0  0  0  0  0  0  0
   50.8080   11.8190   82.4240 C   0  0  0  0  0  0  0  0  0  0  0  0
   53.0368   18.5693   83.8012 C   0  0  0  0  0  0  0  0  0  0  0  0
   55.0914   13.3083   80.7525 C   0  0  0  0  0  0  0  0  0  0  0  0
   54.5400   16.8231   82.4315 C   0  0  0  0  0  0  0  0  0  0  0  0
   52.9002   12.5915   81.5733 C   0  0  0  0  0  0  0  0  0  0  0  0
   52.9294   11.3754   80.7999 C   0  0  0  0  0  0  0  0  0  0  0  0
   54.0374   11.2371   79.9582 C   0  0  0  0  0  0  0  0  0  0  0  0
   51.9483   10.4525   80.8586 C   0  0  0  0  0  0  0  0  0  0  0  0
   50.8105   10.7593   81.6516 C   0  0  0  0  0  0  0  0  0  0  0  0
   54.9867   12.1136   79.8689 C   0  0  0  0  0  0  0  0  0  0  0  0
   54.7998   15.7272   82.0125 C   0  0  0  0  0  0  0  0  0  0  0  0
   49.7296    9.7619   81.7067 C   0  0  0  0  0  0  0  0  0  0  0  0
  1  2  1  0
  2  3  1  0
  2  4  2  0
  3  5  2  0
  4  6  1  0
  1  7  2  0
  5  8  1  0
  7  9  1  0
  6 10  1  0
  7 11  1  0
  5 12  1  0
  6 12  2  0
 12 13  1  0
 13 14  1  0
 13 15  2  0
  8 16  2  0
 15 16  1  0
 10 17  1  0
 14 17  2  0
  4 18  1  0
 11 18  2  0
 16 19  1  0
M  END
>  <ID>  (1) 
conformer_0

$$$$
