
     RDKit          3D

 16 17  0  0  0  0  0  0  0  0999 V2000
   51.6893   14.8189   83.3023 N   0  0  0  0  0  0  0  0  0  0  0  0
   52.4298   15.8891   83.4065 C   0  0  0  0  0  0  0  0  0  0  0  0
   52.2341   13.8071   82.4519 C   0  0  0  0  0  0  0  0  0  0  0  0
   53.6366   16.0765   82.7869 C   0  0  0  0  0  0  0  0  0  0  0  0
   53.5304   13.9682   81.8283 C   0  0  0  0  0  0  0  0  0  0  0  0
   54.2550   15.0920   82.0564 C   0  0  0  0  0  0  0  0  0  0  0  0
   51.5417   12.5586   82.2545 C   0  0  0  0  0  0  0  0  0  0  0  0
   54.3572   17.4249   82.9194 C   0  0  0  0  0  0  0  0  0  0  0  0
   51.9877   11.5765   81.3397 C   0  0  0  0  0  0  0  0  0  0  0  0
   53.9706   12.8108   81.0092 C   0  0  0  0  0  0  0  0  0  0  0  0
   51.0591   10.4689   81.0200 C   0  0  0  0  0  0  0  0  0  0  0  0
   50.7195    9.6319   81.8695 C   0  0  0  0  0  0  0  0  0  0  0  0
   55.2725   12.8876   80.3371 C   0  0  0  0  0  0  0  0  0  0  0  0
   49.8882   10.1550   82.9059 C   0  0  0  0  0  0  0  0  0  0  0  0
   53.2297   11.6939   80.6894 C   0  0  0  0  0  0  0  0  0  0  0  0
   51.9027   16.8352   84.1154 O   0  0  0  0  0  0  0  0  0  0  0  0
  1  2  1  0
  1  3  2  0
  2  4  1  0
  3  5  1  0
  4  6  2  0
  5  6  1  0
  3  7  1  0
  4  8  1  0
  7  9  2  0
  5 10  2  0
  9 11  1  0
 11 12  1  0
 10 13  1  0
 12 14  1  0
  9 15  1  0
 10 15  1  0
  2 16  2  0
M  END
>  <ID>  (1) 
conformer_0

$$$$
