
     RDKit          3D

 19 22  0  0  0  0  0  0  0  0999 V2000
   51.6893   14.8189   83.3023 N   0  0  0  0  0  0  0  0  0  0  0  0
   52.4298   15.8891   83.4065 C   0  0  0  0  0  0  0  0  0  0  0  0
   52.4884   13.9934   82.3538 C   0  0  0  0  0  0  0  0  0  0  0  0
   53.7571   14.4087   81.9647 C   0  0  0  0  0  0  0  0  0  0  0  0
   54.5793   13.5009   81.2480 N   0  0  0  0  0  0  0  0  0  0  0  0
   51.9905   12.6958   81.9006 C   0  0  0  0  0  0  0  0  0  0  0  0
   55.8469   13.9963   80.9566 C   0  0  0  0  0  0  0  0  0  0  0  0
   50.8013   12.1021   82.2030 C   0  0  0  0  0  0  0  0  0  0  0  0
   51.7960   16.9677   84.2064 N   0  0  0  0  0  0  0  0  0  0  0  0
   52.8200   11.9985   81.0756 C   0  0  0  0  0  0  0  0  0  0  0  0
   53.7659   16.1932   82.8387 C   0  0  0  0  0  0  0  0  0  0  0  0
   52.6529   18.1246   84.0340 C   0  0  0  0  0  0  0  0  0  0  0  0
   54.4536   15.4582   82.1942 N   0  0  0  0  0  0  0  0  0  0  0  0
   52.2141   10.8264   80.5202 C   0  0  0  0  0  0  0  0  0  0  0  0
   51.0019   10.4753   80.9727 C   0  0  0  0  0  0  0  0  0  0  0  0
   50.2974   11.0284   81.8324 C   0  0  0  0  0  0  0  0  0  0  0  0
   53.8770   17.6697   83.3275 C   0  0  0  0  0  0  0  0  0  0  0  0
   54.1474   12.3826   80.5815 C   0  0  0  0  0  0  0  0  0  0  0  0
   48.6881   10.4171   82.3493 Cl  0  0  0  0  0  0  0  0  0  0  0  0
  1  2  2  0
  1  3  1  0
  3  4  2  0
  4  5  1  0
  3  6  1  0
  5  7  1  0
  6  8  1  0
  2  9  1  0
  6 10  2  0
  2 11  1  0
  9 12  2  0
  4 13  1  0
 11 13  2  0
 10 14  1  0
 14 15  2  0
  8 16  2  0
 15 16  1  0
 11 17  1  0
 12 17  1  0
  5 18  1  0
 10 18  1  0
 16 19  1  0
M  END
>  <ID>  (1) 
conformer_0

$$$$
