
     RDKit          3D

 19 22  0  0  0  0  0  0  0  0999 V2000
   52.3272   12.1904   81.1642 C   0  0  0  0  0  0  0  0  0  0  0  0
   51.3958   11.3966   81.4057 C   0  0  0  0  0  0  0  0  0  0  0  0
   52.5931   13.3677   81.7428 N   0  0  0  0  0  0  0  0  0  0  0  0
   53.4294   11.7570   80.2550 C   0  0  0  0  0  0  0  0  0  0  0  0
   51.6668   13.7984   82.6878 C   0  0  0  0  0  0  0  0  0  0  0  0
   53.8300   13.9968   81.6390 C   0  0  0  0  0  0  0  0  0  0  0  0
   54.0999   15.2831   82.2626 C   0  0  0  0  0  0  0  0  0  0  0  0
   55.1141   16.0410   81.8769 O   0  0  0  0  0  0  0  0  0  0  0  0
   51.1203   10.1751   80.6907 C   0  0  0  0  0  0  0  0  0  0  0  0
   52.0913   10.0192   79.6602 C   0  0  0  0  0  0  0  0  0  0  0  0
   50.6000   13.1763   82.8122 O   0  0  0  0  0  0  0  0  0  0  0  0
   50.0045    9.3488   81.1275 C   0  0  0  0  0  0  0  0  0  0  0  0
   53.1942   16.0224   83.1183 C   0  0  0  0  0  0  0  0  0  0  0  0
   54.9386   17.2203   82.5245 C   0  0  0  0  0  0  0  0  0  0  0  0
   53.7669   17.1842   83.2864 C   0  0  0  0  0  0  0  0  0  0  0  0
   54.7773   13.3727   80.9598 C   0  0  0  0  0  0  0  0  0  0  0  0
   53.1204   10.9569   79.2701 C   0  0  0  0  0  0  0  0  0  0  0  0
   54.6143   12.4054   80.1364 C   0  0  0  0  0  0  0  0  0  0  0  0
   51.9385   15.0211   83.4088 C   0  0  0  0  0  0  0  0  0  0  0  0
  1  2  2  0
  1  3  1  0
  1  4  1  0
  3  5  1  0
  3  6  1  0
  6  7  1  0
  7  8  1  0
  2  9  1  0
  9 10  2  0
  5 11  2  0
  9 12  1  0
  7 13  2  0
  8 14  1  0
 13 15  1  0
 14 15  2  0
  6 16  2  0
  4 17  2  0
 10 17  1  0
  4 18  1  0
 16 18  1  0
  5 19  1  0
 13 19  1  0
M  END
>  <ID>  (1) 
conformer_0

$$$$
