
     RDKit          3D

 18 20  0  0  0  0  0  0  0  0999 V2000
   53.8876   17.9356   82.6629 C   0  0  0  0  0  0  0  0  0  0  0  0
   54.4748   16.8088   81.9785 C   0  0  0  0  0  0  0  0  0  0  0  0
   54.2803   15.5163   82.5650 C   0  0  0  0  0  0  0  0  0  0  0  0
   54.9421   14.3070   81.9889 C   0  0  0  0  0  0  0  0  0  0  0  0
   55.9931   14.1461   81.7103 O   0  0  0  0  0  0  0  0  0  0  0  0
   53.8923   13.2123   81.8817 N   0  0  0  0  0  0  0  0  0  0  0  0
   52.4420   13.3447   81.9978 C   0  0  0  0  0  0  0  0  0  0  0  0
   51.7991   12.2857   81.9448 C   0  0  0  0  0  0  0  0  0  0  0  0
   50.3848   12.1501   82.1826 C   0  0  0  0  0  0  0  0  0  0  0  0
   52.5295   11.0688   81.5678 C   0  0  0  0  0  0  0  0  0  0  0  0
   53.0191   17.7185   83.5384 C   0  0  0  0  0  0  0  0  0  0  0  0
   53.2994   15.3702   83.5681 C   0  0  0  0  0  0  0  0  0  0  0  0
   54.4045   12.1186   81.2130 C   0  0  0  0  0  0  0  0  0  0  0  0
   49.8655   10.7892   82.1674 C   0  0  0  0  0  0  0  0  0  0  0  0
   55.8230   12.1736   80.8914 O   0  0  0  0  0  0  0  0  0  0  0  0
   52.6865   16.4486   84.0856 C   0  0  0  0  0  0  0  0  0  0  0  0
   53.7308   11.0611   81.2293 C   0  0  0  0  0  0  0  0  0  0  0  0
   51.5023    9.8931   81.5225 C   0  0  0  0  0  0  0  0  0  0  0  0
  1  2  1  0
  2  3  2  0
  3  4  1  0
  4  5  2  0
  4  6  1  0
  6  7  1  0
  7  8  2  0
  8  9  1  0
  8 10  1  0
  1 11  2  0
  3 12  1  0
  6 13  1  0
  9 14  2  0
 13 15  1  0
 11 16  1  0
 12 16  2  0
 10 17  1  0
 13 17  2  0
 10 18  1  0
 14 18  1  0
M  END
>  <ID>  (1) 
conformer_0

$$$$
