
     RDKit          3D

 19 21  0  0  0  0  0  0  0  0999 V2000
   51.9114   15.2464   83.1045 C   0  0  0  0  0  0  0  0  0  0  0  0
   52.3921   16.3678   83.4820 C   0  0  0  0  0  0  0  0  0  0  0  0
   52.7769   14.3565   82.3540 C   0  0  0  0  0  0  0  0  0  0  0  0
   53.5490   16.9582   83.0518 C   0  0  0  0  0  0  0  0  0  0  0  0
   53.9388   18.2724   83.4053 C   0  0  0  0  0  0  0  0  0  0  0  0
   52.4058   13.0718   81.9451 C   0  0  0  0  0  0  0  0  0  0  0  0
   54.0265   14.9360   82.0249 C   0  0  0  0  0  0  0  0  0  0  0  0
   51.2517   12.3903   82.1757 C   0  0  0  0  0  0  0  0  0  0  0  0
   50.9482   11.2685   81.9112 C   0  0  0  0  0  0  0  0  0  0  0  0
   51.7698   10.5472   81.0411 C   0  0  0  0  0  0  0  0  0  0  0  0
   49.4837   10.4982   82.4932 C   0  0  0  0  0  0  0  0  0  0  0  0
   49.1971    9.4947   81.7457 C   0  0  0  0  0  0  0  0  0  0  0  0
   54.4995   16.1605   82.4626 C   0  0  0  0  0  0  0  0  0  0  0  0
   53.2955   12.3801   81.0128 C   0  0  0  0  0  0  0  0  0  0  0  0
   54.5464   13.0167   80.5410 N   0  0  0  0  0  0  0  0  0  0  0  0
   54.9987   13.9395   81.2823 C   0  0  0  0  0  0  0  0  0  0  0  0
   49.7906   10.1996   83.7316 O   0  0  0  0  0  0  0  0  0  0  0  0
   55.4951   12.2018   79.8433 C   0  0  0  0  0  0  0  0  0  0  0  0
   52.9328   11.1062   80.5599 C   0  0  0  0  0  0  0  0  0  0  0  0
  1  2  2  0
  1  3  1  0
  2  4  1  0
  4  5  1  0
  3  6  1  0
  3  7  2  0
  6  8  1  0
  8  9  2  0
  9 10  1  0
  9 11  1  0
 11 12  1  0
  4 13  2  0
  7 13  1  0
  6 14  2  0
 14 15  1  0
  7 16  1  0
 15 16  1  0
 11 17  1  0
 15 18  1  0
 10 19  2  0
 14 19  1  0
M  END
>  <ID>  (1) 
conformer_0

$$$$
