
     RDKit          3D

 19 22  0  0  0  0  0  0  0  0999 V2000
   51.6893   14.8189   83.3023 N   0  0  0  0  0  0  0  0  0  0  0  0
   52.4298   15.8891   83.4065 C   0  0  0  0  0  0  0  0  0  0  0  0
   52.4884   13.9934   82.3538 C   0  0  0  0  0  0  0  0  0  0  0  0
   53.7571   14.4087   81.9647 C   0  0  0  0  0  0  0  0  0  0  0  0
   54.5793   13.5009   81.2480 N   0  0  0  0  0  0  0  0  0  0  0  0
   51.9905   12.6958   81.9006 C   0  0  0  0  0  0  0  0  0  0  0  0
   55.8469   13.9963   80.9566 C   0  0  0  0  0  0  0  0  0  0  0  0
   50.8013   12.1021   82.2030 C   0  0  0  0  0  0  0  0  0  0  0  0
   51.7960   16.9677   84.2064 N   0  0  0  0  0  0  0  0  0  0  0  0
   52.8200   11.9985   81.0756 C   0  0  0  0  0  0  0  0  0  0  0  0
   53.7659   16.1932   82.8387 C   0  0  0  0  0  0  0  0  0  0  0  0
   54.1541   12.4105   80.6852 C   0  0  0  0  0  0  0  0  0  0  0  0
   54.4309   15.4649   82.1992 C   0  0  0  0  0  0  0  0  0  0  0  0
   54.9031   11.5541   80.0490 O   0  0  0  0  0  0  0  0  0  0  0  0
   50.6837   10.8533   81.7109 C   0  0  0  0  0  0  0  0  0  0  0  0
   51.8983   10.5200   80.7847 S   0  0  0  0  0  0  0  0  0  0  0  0
   52.6909   18.0865   84.0527 C   0  0  0  0  0  0  0  0  0  0  0  0
   49.2892    9.8650   81.8872 Cl  0  0  0  0  0  0  0  0  0  0  0  0
   53.8654   17.6945   83.3371 C   0  0  0  0  0  0  0  0  0  0  0  0
  1  2  2  0
  1  3  1  0
  3  4  2  0
  4  5  1  0
  3  6  1  0
  5  7  1  0
  6  8  1  0
  2  9  1  0
  6 10  2  0
  2 11  1  0
  5 12  1  0
 10 12  1  0
  4 13  1  0
 11 13  2  0
 12 14  2  0
  8 15  2  0
 10 16  1  0
 15 16  1  0
  9 17  2  0
 15 18  1  0
 11 19  1  0
 17 19  1  0
M  END
>  <ID>  (1) 
conformer_0

$$$$
