
     RDKit          3D

 19 21  0  0  0  0  0  0  0  0999 V2000
   51.6893   14.8189   83.3023 N   0  0  0  0  0  0  0  0  0  0  0  0
   52.0923   13.6761   82.6046 C   0  0  0  0  0  0  0  0  0  0  0  0
   53.3602   13.7453   81.8258 N   0  0  0  0  0  0  0  0  0  0  0  0
   53.8725   12.6386   81.1425 C   0  0  0  0  0  0  0  0  0  0  0  0
   54.1757   14.8742   82.0229 C   0  0  0  0  0  0  0  0  0  0  0  0
   53.7768   15.9749   82.7313 C   0  0  0  0  0  0  0  0  0  0  0  0
   52.5522   15.9080   83.3214 C   0  0  0  0  0  0  0  0  0  0  0  0
   55.1930   12.5794   80.8604 C   0  0  0  0  0  0  0  0  0  0  0  0
   51.3894   12.5172   82.3567 N   0  0  0  0  0  0  0  0  0  0  0  0
   52.9556   11.5739   80.6609 C   0  0  0  0  0  0  0  0  0  0  0  0
   55.6690   11.4186   80.1133 C   0  0  0  0  0  0  0  0  0  0  0  0
   54.5948   17.2022   82.7547 C   0  0  0  0  0  0  0  0  0  0  0  0
   50.0784   12.2688   82.9651 C   0  0  0  0  0  0  0  0  0  0  0  0
   49.4269   10.9906   82.6384 C   0  0  0  0  0  0  0  0  0  0  0  0
   50.0791   10.1828   81.6610 C   0  0  0  0  0  0  0  0  0  0  0  0
   51.6404   11.6091   81.3304 C   0  0  0  0  0  0  0  0  0  0  0  0
   49.2381    8.9668   81.3738 C   0  0  0  0  0  0  0  0  0  0  0  0
   51.0809   10.4973   81.0317 N   0  0  0  0  0  0  0  0  0  0  0  0
   53.8637   18.4406   82.9816 C   0  0  0  0  0  0  0  0  0  0  0  0
  1  2  2  0
  2  3  1  0
  3  4  1  0
  3  5  1  0
  5  6  1  0
  1  7  1  0
  6  7  2  0
  4  8  2  3
  2  9  1  0
  4 10  1  0
  8 11  1  0
  6 12  1  0
  9 13  1  0
 13 14  2  0
 14 15  1  0
  9 16  1  0
 10 16  1  0
 15 17  1  0
 15 18  1  0
 16 18  2  0
 12 19  1  0
M  END
>  <ID>  (1) 
conformer_0

$$$$
