
     RDKit          3D

 18 20  0  0  0  0  0  0  0  0999 V2000
   51.6893   14.8189   83.3023 N   0  0  0  0  0  0  0  0  0  0  0  0
   52.4298   15.8891   83.4065 C   0  0  0  0  0  0  0  0  0  0  0  0
   52.4884   13.9934   82.3538 C   0  0  0  0  0  0  0  0  0  0  0  0
   53.7571   14.4087   81.9647 C   0  0  0  0  0  0  0  0  0  0  0  0
   54.5793   13.5009   81.2480 N   0  0  0  0  0  0  0  0  0  0  0  0
   53.8172   15.8228   82.6983 C   0  0  0  0  0  0  0  0  0  0  0  0
   55.8898   14.0753   81.0386 O   0  0  0  0  0  0  0  0  0  0  0  0
   52.1259   17.0861   84.1223 C   0  0  0  0  0  0  0  0  0  0  0  0
   51.9720   12.5969   81.9475 C   0  0  0  0  0  0  0  0  0  0  0  0
   54.2981   12.4340   80.7967 C   0  0  0  0  0  0  0  0  0  0  0  0
   55.0537   11.7661   80.0401 O   0  0  0  0  0  0  0  0  0  0  0  0
   52.8345   11.9054   81.1756 C   0  0  0  0  0  0  0  0  0  0  0  0
   52.3859   10.7249   80.6392 C   0  0  0  0  0  0  0  0  0  0  0  0
   51.3157   10.2091   81.4824 C   0  0  0  0  0  0  0  0  0  0  0  0
   50.6852   12.1392   82.3526 C   0  0  0  0  0  0  0  0  0  0  0  0
   50.3557   10.9594   81.9825 C   0  0  0  0  0  0  0  0  0  0  0  0
   49.2871   10.2859   82.8858 C   0  0  0  0  0  0  0  0  0  0  0  0
   53.0973   18.1374   84.0655 C   0  0  0  0  0  0  0  0  0  0  0  0
  1  2  2  0
  1  3  1  0
  3  4  2  0
  4  5  1  0
  2  6  1  0
  4  6  1  0
  5  7  1  0
  2  8  1  0
  3  9  1  0
  5 10  1  0
 10 11  2  0
  9 12  2  0
 10 12  1  0
 12 13  1  0
 13 14  1  0
  9 15  1  0
 14 16  1  0
 15 16  1  0
 16 17  1  0
  8 18  1  0
M  END
>  <ID>  (1) 
conformer_0

$$$$
