
     RDKit          3D

 13 14  0  0  0  0  0  0  0  0999 V2000
   53.8487   15.8627   81.8716 N   0  0  0  0  0  0  0  0  0  0  0  0
   53.1906   15.3922   82.6499 C   0  0  0  0  0  0  0  0  0  0  0  0
   52.7706   14.0557   82.5732 C   0  0  0  0  0  0  0  0  0  0  0  0
   51.6171   13.5576   82.7807 N   0  0  0  0  0  0  0  0  0  0  0  0
   51.0913   12.3783   82.3224 C   0  0  0  0  0  0  0  0  0  0  0  0
   54.4383   17.1416   82.0382 C   0  0  0  0  0  0  0  0  0  0  0  0
   52.6631   16.2706   83.7162 C   0  0  0  0  0  0  0  0  0  0  0  0
   49.8445   11.7877   82.4313 C   0  0  0  0  0  0  0  0  0  0  0  0
   49.7186   10.5277   81.8826 C   0  0  0  0  0  0  0  0  0  0  0  0
   50.9817   10.1667   81.1293 C   0  0  0  0  0  0  0  0  0  0  0  0
   53.9071   17.9853   83.1338 C   0  0  0  0  0  0  0  0  0  0  0  0
   51.9920   11.5321   81.4875 C   0  0  0  0  0  0  0  0  0  0  0  0
   53.1254   17.5868   83.8270 C   0  0  0  0  0  0  0  0  0  0  0  0
  1  2  1  0
  2  3  1  0
  3  4  2  3
  4  5  1  0
  1  6  2  0
  2  7  2  0
  5  8  1  0
  8  9  2  0
  9 10  1  0
  6 11  1  0
  5 12  2  0
 10 12  2  0
  7 13  1  0
 11 13  2  0
M  END
>  <ID>  (1) 
conformer_0

$$$$
