
     RDKit          3D

 19 21  0  0  0  0  0  0  0  0999 V2000
   54.0151   16.6005   82.2112 C   0  0  0  0  0  0  0  0  0  0  0  0
   53.4759   15.5511   82.7528 C   0  0  0  0  0  0  0  0  0  0  0  0
   53.3482   14.2628   82.5209 C   0  0  0  0  0  0  0  0  0  0  0  0
   54.0303   13.7168   81.4789 N   0  0  0  0  0  0  0  0  0  0  0  0
   52.9316   15.9595   84.1273 C   0  0  0  0  0  0  0  0  0  0  0  0
   52.9508   17.2388   84.5168 C   0  0  0  0  0  0  0  0  0  0  0  0
   53.7553   12.5186   80.9388 C   0  0  0  0  0  0  0  0  0  0  0  0
   55.5151   13.8577   81.5235 C   0  0  0  0  0  0  0  0  0  0  0  0
   52.3326   12.0490   81.0069 C   0  0  0  0  0  0  0  0  0  0  0  0
   51.6529   12.1912   82.1875 C   0  0  0  0  0  0  0  0  0  0  0  0
   51.9817   10.9630   80.2135 C   0  0  0  0  0  0  0  0  0  0  0  0
   50.3925   11.7372   82.3493 C   0  0  0  0  0  0  0  0  0  0  0  0
   54.1590   17.9013   82.5485 C   0  0  0  0  0  0  0  0  0  0  0  0
   52.1142   13.4471   83.0639 C   0  0  0  0  0  0  0  0  0  0  0  0
   54.5644   11.8257   80.2182 O   0  0  0  0  0  0  0  0  0  0  0  0
   50.7687   10.3512   80.4389 C   0  0  0  0  0  0  0  0  0  0  0  0
   49.6005   12.0730   83.4813 O   0  0  0  0  0  0  0  0  0  0  0  0
   50.0695   10.7873   81.4322 C   0  0  0  0  0  0  0  0  0  0  0  0
   53.5651   18.2178   83.7414 C   0  0  0  0  0  0  0  0  0  0  0  0
  1  2  2  0
  2  3  1  0
  3  4  1  0
  2  5  1  0
  5  6  2  0
  4  7  1  0
  4  8  1  0
  7  9  1  0
  9 10  1  0
  9 11  2  0
 10 12  2  0
  1 13  1  0
  3 14  1  0
 10 14  1  0
  7 15  2  0
 11 16  1  0
 12 17  1  0
 12 18  1  0
 16 18  2  0
  6 19  1  0
 13 19  2  0
M  END
>  <ID>  (1) 
conformer_0

$$$$
