
     RDKit          3D

 16 17  0  0  0  0  0  0  0  0999 V2000
   52.6585   17.5760   83.3939 C   0  0  0  0  0  0  0  0  0  0  0  0
   52.3079   16.2314   83.4337 C   0  0  0  0  0  0  0  0  0  0  0  0
   53.0749   15.2889   82.8436 C   0  0  0  0  0  0  0  0  0  0  0  0
   52.6960   13.8844   82.7684 C   0  0  0  0  0  0  0  0  0  0  0  0
   53.3633   13.0541   81.8352 C   0  0  0  0  0  0  0  0  0  0  0  0
   54.3080   15.6017   82.6054 C   0  0  0  0  0  0  0  0  0  0  0  0
   52.7548   11.9215   81.2649 C   0  0  0  0  0  0  0  0  0  0  0  0
   54.0233   17.9810   82.9958 C   0  0  0  0  0  0  0  0  0  0  0  0
   54.3308   13.6905   80.9651 C   0  0  0  0  0  0  0  0  0  0  0  0
   54.7986   16.9101   82.6717 C   0  0  0  0  0  0  0  0  0  0  0  0
   55.0405   14.7541   81.7030 C   0  0  0  0  0  0  0  0  0  0  0  0
   51.4889   11.6286   81.4254 C   0  0  0  0  0  0  0  0  0  0  0  0
   50.9577   10.3123   81.1159 C   0  0  0  0  0  0  0  0  0  0  0  0
   49.6186   10.1168   80.9850 C   0  0  0  0  0  0  0  0  0  0  0  0
   48.9859   10.3386   82.3928 C   0  0  0  0  0  0  0  0  0  0  0  0
   49.8040   10.4508   83.4675 C   0  0  0  0  0  0  0  0  0  0  0  0
  1  2  2  0
  2  3  1  0
  3  4  1  0
  4  5  1  0
  3  6  2  0
  5  7  1  0
  1  8  1  0
  5  9  2  0
  6 10  1  0
  8 10  2  0
  6 11  1  0
  9 11  1  0
  7 12  2  3
 12 13  1  0
 13 14  1  0
 14 15  1  0
 15 16  1  0
M  END
>  <ID>  (1) 
conformer_0

$$$$
