
     RDKit          3D

 17 19  0  0  0  0  0  0  0  0999 V2000
   53.8487   15.8627   81.8716 N   0  0  0  0  0  0  0  0  0  0  0  0
   53.1906   15.3922   82.6499 C   0  0  0  0  0  0  0  0  0  0  0  0
   52.7706   14.0557   82.5732 C   0  0  0  0  0  0  0  0  0  0  0  0
   51.6171   13.5576   82.7807 N   0  0  0  0  0  0  0  0  0  0  0  0
   51.0913   12.3783   82.3224 C   0  0  0  0  0  0  0  0  0  0  0  0
   54.4383   17.1416   82.0382 C   0  0  0  0  0  0  0  0  0  0  0  0
   52.6631   16.2706   83.7162 C   0  0  0  0  0  0  0  0  0  0  0  0
   49.8445   11.7877   82.4313 C   0  0  0  0  0  0  0  0  0  0  0  0
   49.7186   10.5277   81.8826 C   0  0  0  0  0  0  0  0  0  0  0  0
   53.9081   17.9778   83.1352 C   0  0  0  0  0  0  0  0  0  0  0  0
   53.7996   13.0561   82.2922 C   0  0  0  0  0  0  0  0  0  0  0  0
   53.0866   17.4545   83.9582 C   0  0  0  0  0  0  0  0  0  0  0  0
   50.9846   10.0937   81.2202 C   0  0  0  0  0  0  0  0  0  0  0  0
   53.4161   11.8869   81.6696 C   0  0  0  0  0  0  0  0  0  0  0  0
   52.0061   11.4365   81.7114 C   0  0  0  0  0  0  0  0  0  0  0  0
   55.2343   13.4444   82.0289 C   0  0  0  0  0  0  0  0  0  0  0  0
   55.9241   13.0621   80.8524 C   0  0  0  0  0  0  0  0  0  0  0  0
  1  2  1  0
  2  3  1  0
  3  4  2  0
  4  5  1  0
  1  6  2  0
  2  7  2  0
  5  8  1  0
  8  9  2  0
  6 10  1  0
  3 11  1  0
  7 12  1  0
 10 12  2  0
  9 13  1  0
 11 14  2  0
  5 15  1  0
 13 15  2  0
 14 15  1  0
 11 16  1  0
 16 17  1  0
M  END
>  <ID>  (1) 
conformer_0

$$$$
