
     RDKit          3D

 18 20  0  0  0  0  0  0  0  0999 V2000
   51.6893   14.8189   83.3023 N   0  0  0  0  0  0  0  0  0  0  0  0
   52.0923   13.6761   82.6046 C   0  0  0  0  0  0  0  0  0  0  0  0
   53.3602   13.7453   81.8258 N   0  0  0  0  0  0  0  0  0  0  0  0
   51.2773   12.5332   82.3563 N   0  0  0  0  0  0  0  0  0  0  0  0
   52.4403   15.8773   83.3763 C   0  0  0  0  0  0  0  0  0  0  0  0
   54.1654   14.8251   82.0415 C   0  0  0  0  0  0  0  0  0  0  0  0
   50.1089   12.2277   82.9599 C   0  0  0  0  0  0  0  0  0  0  0  0
   49.4575   11.0346   82.6190 C   0  0  0  0  0  0  0  0  0  0  0  0
   53.8078   12.5533   81.0861 C   0  0  0  0  0  0  0  0  0  0  0  0
   53.7777   15.9059   82.7728 C   0  0  0  0  0  0  0  0  0  0  0  0
   52.8172   11.6718   80.8730 C   0  0  0  0  0  0  0  0  0  0  0  0
   54.6798   12.8096   79.9495 C   0  0  0  0  0  0  0  0  0  0  0  0
   53.0068   10.6856   79.9080 O   0  0  0  0  0  0  0  0  0  0  0  0
   51.5702   11.5875   81.5406 C   0  0  0  0  0  0  0  0  0  0  0  0
   56.0890   12.7221   80.4707 C   0  0  0  0  0  0  0  0  0  0  0  0
   54.6353   17.0834   82.8556 C   0  0  0  0  0  0  0  0  0  0  0  0
   52.0148   16.8877   83.9840 O   0  0  0  0  0  0  0  0  0  0  0  0
   50.5760   10.5274   81.3775 C   0  0  0  0  0  0  0  0  0  0  0  0
  1  2  2  0
  2  3  1  0
  2  4  1  0
  1  5  1  0
  3  6  1  0
  4  7  1  0
  7  8  2  0
  3  9  1  0
  5 10  1  0
  6 10  2  0
  9 11  1  0
  9 12  1  0
 11 13  2  0
  4 14  1  0
 11 14  1  0
 12 15  1  0
 10 16  1  0
  5 17  2  0
  8 18  1  0
 14 18  2  0
M  END
>  <ID>  (1) 
conformer_0

$$$$
