
     RDKit          3D

 18 21  0  0  0  0  0  0  0  0999 V2000
   53.8487   15.8627   81.8716 N   0  0  0  0  0  0  0  0  0  0  0  0
   53.1906   15.3922   82.6499 C   0  0  0  0  0  0  0  0  0  0  0  0
   52.7706   14.0557   82.5732 C   0  0  0  0  0  0  0  0  0  0  0  0
   52.6157   16.2006   83.6841 C   0  0  0  0  0  0  0  0  0  0  0  0
   51.6380   13.4610   82.7796 N   0  0  0  0  0  0  0  0  0  0  0  0
   53.7299   13.1681   81.8766 C   0  0  0  0  0  0  0  0  0  0  0  0
   53.3131   11.8576   81.5910 N   0  0  0  0  0  0  0  0  0  0  0  0
   55.0222   13.5736   81.4259 C   0  0  0  0  0  0  0  0  0  0  0  0
   52.0629   11.4542   81.9315 C   0  0  0  0  0  0  0  0  0  0  0  0
   51.1649   12.3175   82.4652 C   0  0  0  0  0  0  0  0  0  0  0  0
   56.0093   12.7681   81.1838 N   0  0  0  0  0  0  0  0  0  0  0  0
   51.5958   10.1048   81.5375 C   0  0  0  0  0  0  0  0  0  0  0  0
   50.3864    9.7319   81.9623 C   0  0  0  0  0  0  0  0  0  0  0  0
   54.9462   14.8953   81.5762 C   0  0  0  0  0  0  0  0  0  0  0  0
   49.4279   10.7542   82.5627 C   0  0  0  0  0  0  0  0  0  0  0  0
   54.2951   17.2504   82.2355 C   0  0  0  0  0  0  0  0  0  0  0  0
   53.4755   17.8168   83.1903 C   0  0  0  0  0  0  0  0  0  0  0  0
   49.8974   11.9362   82.7722 C   0  0  0  0  0  0  0  0  0  0  0  0
  1  2  1  0
  2  3  1  0
  2  4  2  0
  3  5  1  0
  3  6  2  0
  6  7  1  0
  6  8  1  0
  7  9  2  0
  5 10  2  0
  9 10  1  0
  8 11  1  0
  9 12  1  0
 12 13  2  0
  1 14  1  0
  8 14  2  0
 13 15  1  0
  1 16  1  0
  4 17  1  0
 16 17  1  0
 10 18  1  0
 15 18  2  0
M  END
>  <ID>  (1) 
conformer_0

$$$$
