
     RDKit          3D

 16 18  0  0  0  0  0  0  0  0999 V2000
   51.6893   14.8189   83.3023 N   0  0  0  0  0  0  0  0  0  0  0  0
   52.0923   13.6761   82.6046 C   0  0  0  0  0  0  0  0  0  0  0  0
   53.3602   13.7453   81.8258 N   0  0  0  0  0  0  0  0  0  0  0  0
   53.8725   12.6386   81.1425 C   0  0  0  0  0  0  0  0  0  0  0  0
   54.1757   14.8742   82.0229 C   0  0  0  0  0  0  0  0  0  0  0  0
   53.7768   15.9749   82.7313 C   0  0  0  0  0  0  0  0  0  0  0  0
   52.5522   15.9080   83.3214 C   0  0  0  0  0  0  0  0  0  0  0  0
   54.6108   17.2023   82.7640 C   0  0  0  0  0  0  0  0  0  0  0  0
   51.3923   12.4911   82.4652 N   0  0  0  0  0  0  0  0  0  0  0  0
   53.8294   18.3716   82.8018 C   0  0  0  0  0  0  0  0  0  0  0  0
   52.9777   11.5778   80.9100 C   0  0  0  0  0  0  0  0  0  0  0  0
   51.7479   11.5234   81.6054 C   0  0  0  0  0  0  0  0  0  0  0  0
   50.8742   10.4527   81.5120 C   0  0  0  0  0  0  0  0  0  0  0  0
   55.1685   12.4830   80.6930 C   0  0  0  0  0  0  0  0  0  0  0  0
   49.6197   10.7409   82.1989 C   0  0  0  0  0  0  0  0  0  0  0  0
   50.0308   12.4372   82.9719 C   0  0  0  0  0  0  0  0  0  0  0  0
  1  2  2  0
  2  3  1  0
  3  4  1  0
  3  5  1  0
  5  6  1  0
  1  7  1  0
  6  7  2  0
  6  8  1  0
  2  9  1  0
  8 10  1  0
  4 11  2  0
  9 12  1  0
 11 12  1  0
 12 13  2  0
  4 14  1  0
 13 15  1  0
  9 16  1  0
 15 16  2  0
M  END
>  <ID>  (1) 
conformer_0

$$$$
