
     RDKit          3D

 17 19  0  0  0  0  0  0  0  0999 V2000
   51.6893   14.8189   83.3023 N   0  0  0  0  0  0  0  0  0  0  0  0
   52.6864   14.2785   82.5183 C   0  0  0  0  0  0  0  0  0  0  0  0
   52.6001   12.9297   81.9551 N   0  0  0  0  0  0  0  0  0  0  0  0
   53.6662   12.5660   81.2021 C   0  0  0  0  0  0  0  0  0  0  0  0
   51.4024   12.3240   81.8968 C   0  0  0  0  0  0  0  0  0  0  0  0
   51.3772   11.2357   81.0939 C   0  0  0  0  0  0  0  0  0  0  0  0
   51.8899   16.0396   83.8006 C   0  0  0  0  0  0  0  0  0  0  0  0
   53.1561   16.5726   83.2048 C   0  0  0  0  0  0  0  0  0  0  0  0
   53.6508   15.3102   82.4431 C   0  0  0  0  0  0  0  0  0  0  0  0
   54.9608   13.2547   81.2316 N   0  0  0  0  0  0  0  0  0  0  0  0
   52.4639   10.7709   80.4522 C   0  0  0  0  0  0  0  0  0  0  0  0
   54.8066   15.3103   81.6314 N   0  0  0  0  0  0  0  0  0  0  0  0
   49.8972   10.3826   81.2496 C   0  0  0  0  0  0  0  0  0  0  0  0
   49.6394    9.7440   82.4438 C   0  0  0  0  0  0  0  0  0  0  0  0
   53.5862   11.4366   80.5201 N   0  0  0  0  0  0  0  0  0  0  0  0
   53.8014   17.8085   83.3511 C   0  0  0  0  0  0  0  0  0  0  0  0
   55.3611   14.1464   81.4500 C   0  0  0  0  0  0  0  0  0  0  0  0
  1  2  2  0
  2  3  1  0
  3  4  1  0
  3  5  1  0
  5  6  2  0
  1  7  1  0
  7  8  2  0
  2  9  1  0
  8  9  1  0
  4 10  1  0
  6 11  1  0
  9 12  1  0
  6 13  1  0
 13 14  1  0
  4 15  2  0
 11 15  1  0
  8 16  1  0
 10 17  1  0
 12 17  1  0
M  END
>  <ID>  (1) 
conformer_0

$$$$
