
     RDKit          3D

 19 22  0  0  0  0  0  0  0  0999 V2000
   51.6893   14.8189   83.3023 N   0  0  0  0  0  0  0  0  0  0  0  0
   52.0923   13.6761   82.6046 C   0  0  0  0  0  0  0  0  0  0  0  0
   53.3602   13.7453   81.8258 N   0  0  0  0  0  0  0  0  0  0  0  0
   53.8725   12.6386   81.1425 C   0  0  0  0  0  0  0  0  0  0  0  0
   54.1757   14.8742   82.0229 C   0  0  0  0  0  0  0  0  0  0  0  0
   53.7768   15.9749   82.7313 C   0  0  0  0  0  0  0  0  0  0  0  0
   52.5522   15.9080   83.3214 C   0  0  0  0  0  0  0  0  0  0  0  0
   55.1930   12.5794   80.8604 C   0  0  0  0  0  0  0  0  0  0  0  0
   51.3894   12.5172   82.3567 N   0  0  0  0  0  0  0  0  0  0  0  0
   52.9556   11.5739   80.6609 C   0  0  0  0  0  0  0  0  0  0  0  0
   51.6818   11.5873   81.2114 C   0  0  0  0  0  0  0  0  0  0  0  0
   55.6157   14.7128   81.5858 C   0  0  0  0  0  0  0  0  0  0  0  0
   55.6482   11.3226   80.0489 C   0  0  0  0  0  0  0  0  0  0  0  0
   54.5250   17.2114   82.7709 C   0  0  0  0  0  0  0  0  0  0  0  0
   50.1400   12.2278   83.0320 C   0  0  0  0  0  0  0  0  0  0  0  0
   56.0089   13.6059   81.0089 C   0  0  0  0  0  0  0  0  0  0  0  0
   49.6490   10.8676   82.5026 C   0  0  0  0  0  0  0  0  0  0  0  0
   50.6544   10.5383   81.2400 C   0  0  0  0  0  0  0  0  0  0  0  0
   53.7219   18.4103   83.0042 C   0  0  0  0  0  0  0  0  0  0  0  0
  1  2  2  0
  2  3  1  0
  3  4  1  0
  3  5  1  0
  5  6  1  0
  1  7  1  0
  6  7  2  0
  4  8  2  0
  2  9  1  0
  4 10  1  0
  9 11  1  0
 10 11  1  0
  5 12  2  0
  8 13  1  0
  6 14  1  0
  9 15  1  0
  8 16  1  0
 12 16  1  0
 15 17  1  0
 11 18  1  0
 17 18  1  0
 14 19  1  0
M  END
>  <ID>  (1) 
conformer_0

$$$$
