
     RDKit          3D

 19 22  0  0  0  0  0  0  0  0999 V2000
   52.6585   17.5760   83.3939 C   0  0  0  0  0  0  0  0  0  0  0  0
   52.3079   16.2314   83.4337 C   0  0  0  0  0  0  0  0  0  0  0  0
   53.0749   15.2889   82.8436 C   0  0  0  0  0  0  0  0  0  0  0  0
   52.6960   13.8844   82.7684 C   0  0  0  0  0  0  0  0  0  0  0  0
   53.3633   13.0541   81.8352 C   0  0  0  0  0  0  0  0  0  0  0  0
   54.6926   13.3733   81.4964 C   0  0  0  0  0  0  0  0  0  0  0  0
   51.5486   13.4987   83.2041 N   0  0  0  0  0  0  0  0  0  0  0  0
   55.5094   12.5019   80.7895 C   0  0  0  0  0  0  0  0  0  0  0  0
   51.0832   12.2375   82.9182 C   0  0  0  0  0  0  0  0  0  0  0  0
   52.7578   11.8527   81.5629 C   0  0  0  0  0  0  0  0  0  0  0  0
   51.6205   11.4141   81.9960 C   0  0  0  0  0  0  0  0  0  0  0  0
   54.4142   15.4083   82.2882 C   0  0  0  0  0  0  0  0  0  0  0  0
   50.9270   10.1341   81.6522 C   0  0  0  0  0  0  0  0  0  0  0  0
   49.6909    9.9530   82.0286 C   0  0  0  0  0  0  0  0  0  0  0  0
   54.0417   17.9914   82.9478 C   0  0  0  0  0  0  0  0  0  0  0  0
   54.8936   16.8946   82.3863 C   0  0  0  0  0  0  0  0  0  0  0  0
   55.2147   14.5937   81.7309 C   0  0  0  0  0  0  0  0  0  0  0  0
   49.2679   11.0384   82.9366 C   0  0  0  0  0  0  0  0  0  0  0  0
   49.7815   12.0181   83.3247 N   0  0  0  0  0  0  0  0  0  0  0  0
  1  2  2  0
  2  3  1  0
  3  4  1  0
  4  5  1  0
  5  6  2  0
  4  7  2  0
  6  8  1  0
  7  9  1  0
  5 10  1  0
  9 11  1  0
 10 11  2  0
  3 12  2  0
 11 13  1  0
 13 14  1  0
  1 15  1  0
 12 16  1  0
 15 16  2  0
  6 17  1  0
 12 17  1  0
 14 18  2  0
  9 19  2  0
 18 19  1  0
M  END
>  <ID>  (1) 
conformer_0

$$$$
