
     RDKit          3D

 27 31  0  0  0  0  0  0  0  0999 V2000
   31.6524    5.4981   -6.5292 C   0  0  0  0  0  0  0  0  0  0  0  0
   30.5524    5.0981   -7.4292 N   0  0  0  0  0  0  0  0  0  0  0  0
   32.7524    4.4981   -6.6292 C   0  0  0  0  0  0  0  0  0  0  0  0
   32.3524    3.3981   -7.5292 C   0  0  0  0  0  0  0  0  0  0  0  0
   30.9524    3.5981   -7.9292 C   0  0  0  0  0  0  0  0  0  0  0  0
   31.0524    2.8981   -6.7292 C   0  0  0  0  0  0  0  0  0  0  0  0
   32.0524    4.5981   -5.3292 C   0  0  0  0  0  0  0  0  0  0  0  0
   31.0524    3.3981   -5.3292 C   0  0  0  0  0  0  0  0  0  0  0  0
   32.6524    5.2981   -4.2292 C   0  0  0  0  0  0  0  0  0  0  0  0
   34.1524    4.8981   -6.9292 C   0  0  0  0  0  0  0  0  0  0  0  0
   35.2524    3.8981   -6.9292 C   0  0  0  0  0  0  0  0  0  0  0  0
   36.6524    4.2981   -6.9292 C   0  0  0  0  0  0  0  0  0  0  0  0
   30.1524    3.1981   -9.0292 C   0  0  0  0  0  0  0  0  0  0  0  0
   30.4524    3.2981  -10.1292 O   0  0  0  0  0  0  0  0  0  0  0  0
   28.8524    2.6981   -8.6292 N   0  0  0  0  0  0  0  0  0  0  0  0
   27.9524    2.0981   -9.6292 C   0  0  0  0  0  0  0  0  0  0  0  0
   27.0524    1.1981   -8.9292 C   0  0  0  0  0  0  0  0  0  0  0  0
   37.4524    3.2981   -6.2292 C   0  0  0  0  0  0  0  0  0  0  0  0
   38.3524    3.3981   -5.1292 C   0  0  0  0  0  0  0  0  0  0  0  0
   37.9524    4.4981   -4.2292 C   0  0  0  0  0  0  0  0  0  0  0  0
   36.5524    4.8981   -4.5292 C   0  0  0  0  0  0  0  0  0  0  0  0
   28.0524    2.4981  -10.9292 C   0  0  0  0  0  0  0  0  0  0  0  0
   26.6524    0.9981   -7.5292 C   0  0  0  0  0  0  0  0  0  0  0  0
   27.2524    1.2981   -6.5292 O   0  0  0  0  0  0  0  0  0  0  0  0
   25.4524    0.2981   -7.3292 N   0  0  0  0  0  0  0  0  0  0  0  0
   25.6524   -0.9019   -6.6292 O   0  0  0  0  0  0  0  0  0  0  0  0
   37.5524    5.5981   -5.2292 C   0  0  0  0  0  0  0  0  0  0  0  0
  2  1  1  0
  3  1  1  0
  4  3  1  0
  5  2  1  0
  5  4  1  0
  6  4  1  0
  6  5  1  0
  7  1  1  0
  7  3  1  0
  8  6  1  0
  8  7  1  0
  9  7  1  0
 10  3  1  0
 11 10  2  3
 12 11  1  0
 13  5  1  0
 14 13  2  0
 15 13  1  0
 16 15  1  0
 17 16  1  0
 18 12  1  0
 19 18  1  0
 20 19  1  0
 21 20  1  0
 22 16  2  0
 23 17  1  0
 24 23  2  0
 25 23  1  0
 26 25  1  0
 27 20  1  0
 27 21  1  0
M  END
>  <ID>  (1) 
conformer_0

$$$$
