
     RDKit          3D

 15 19  0  0  0  0  0  0  0  0999 V2000
   31.6524    5.4981   -6.5292 C   0  0  0  0  0  0  0  0  0  0  0  0
   30.5524    5.0981   -7.4292 N   0  0  0  0  0  0  0  0  0  0  0  0
   32.7524    4.4981   -6.6292 C   0  0  0  0  0  0  0  0  0  0  0  0
   32.3524    3.3981   -7.5292 C   0  0  0  0  0  0  0  0  0  0  0  0
   30.9524    3.5981   -8.0292 C   0  0  0  0  0  0  0  0  0  0  0  0
   31.0524    2.8981   -6.7292 C   0  0  0  0  0  0  0  0  0  0  0  0
   31.9524    4.6981   -5.4292 C   0  0  0  0  0  0  0  0  0  0  0  0
   30.8524    3.5981   -5.4292 C   0  0  0  0  0  0  0  0  0  0  0  0
   33.4524    3.1981   -6.5292 C   0  0  0  0  0  0  0  0  0  0  0  0
   30.2524    3.2981   -9.1292 C   0  0  0  0  0  0  0  0  0  0  0  0
   32.6524    5.0981   -4.2292 C   0  0  0  0  0  0  0  0  0  0  0  0
   29.1524    2.2981   -9.0292 C   0  0  0  0  0  0  0  0  0  0  0  0
   27.9524    2.7981   -8.6292 N   0  0  0  0  0  0  0  0  0  0  0  0
   28.7524    2.3981   -7.5292 O   0  0  0  0  0  0  0  0  0  0  0  0
   30.4524    3.2981  -10.5292 O   0  0  0  0  0  0  0  0  0  0  0  0
  2  1  1  0
  3  1  1  0
  4  3  1  0
  5  2  1  0
  5  4  1  0
  6  4  1  0
  6  5  1  0
  7  1  1  0
  7  3  1  0
  8  6  1  0
  8  7  1  0
  9  3  1  0
  9  4  1  0
 10  5  1  0
 11  7  1  0
 12 10  1  0
 13 12  1  0
 14 12  1  0
 15 10  1  0
M  END
>  <ID>  (1) 
conformer_0

$$$$
