
     RDKit          3D

 18 21  0  0  0  0  0  0  0  0999 V2000
   31.6461    5.4608   -6.7811 C   0  0  0  0  0  0  0  0  0  0  0  0
   30.6461    5.0608   -7.6811 N   0  0  0  0  0  0  0  0  0  0  0  0
   32.7461    4.4608   -6.5811 C   0  0  0  0  0  0  0  0  0  0  0  0
   32.3461    3.2608   -7.3811 C   0  0  0  0  0  0  0  0  0  0  0  0
   30.9461    3.4608   -7.8811 C   0  0  0  0  0  0  0  0  0  0  0  0
   30.9461    2.9608   -6.5811 C   0  0  0  0  0  0  0  0  0  0  0  0
   31.9461    4.9608   -5.4811 C   0  0  0  0  0  0  0  0  0  0  0  0
   34.1461    4.8608   -6.8811 C   0  0  0  0  0  0  0  0  0  0  0  0
   35.3461    4.1608   -6.9811 C   0  0  0  0  0  0  0  0  0  0  0  0
   36.5461    4.3608   -6.1811 C   0  0  0  0  0  0  0  0  0  0  0  0
   36.4461    4.8608   -4.7811 C   0  0  0  0  0  0  0  0  0  0  0  0
   37.6461    5.2608   -4.0811 C   0  0  0  0  0  0  0  0  0  0  0  0
   38.6461    4.3608   -3.7811 C   0  0  0  0  0  0  0  0  0  0  0  0
   38.6461    3.4608   -4.9811 C   0  0  0  0  0  0  0  0  0  0  0  0
   37.5461    3.2608   -5.8811 C   0  0  0  0  0  0  0  0  0  0  0  0
   31.4461    2.5608   -5.2811 C   0  0  0  0  0  0  0  0  0  0  0  0
   31.6461    1.3608   -4.9811 O   0  0  0  0  0  0  0  0  0  0  0  0
   30.6461    2.9608   -4.2811 N   0  0  0  0  0  0  0  0  0  0  0  0
  2  1  1  0
  3  1  1  0
  4  3  1  0
  5  2  1  0
  5  4  1  0
  6  4  1  0
  6  5  1  0
  7  1  1  0
  7  3  1  0
  8  3  1  0
  9  8  1  0
 10  9  1  0
 11 10  1  0
 12 11  1  0
 13 12  1  0
 14 13  1  0
 15 10  1  0
 15 14  1  0
 16  6  1  0
 17 16  1  0
 18 16  1  0
M  END
>  <ID>  (1) 
conformer_0

$$$$
