
     RDKit          3D

 20 24  0  0  0  0  0  0  0  0999 V2000
   31.6461    5.4608   -6.7811 C   0  0  0  0  0  0  0  0  0  0  0  0
   30.6461    5.0608   -7.6811 N   0  0  0  0  0  0  0  0  0  0  0  0
   32.7461    4.4608   -6.5811 C   0  0  0  0  0  0  0  0  0  0  0  0
   32.3461    3.2608   -7.3811 C   0  0  0  0  0  0  0  0  0  0  0  0
   30.9461    3.4608   -7.8811 C   0  0  0  0  0  0  0  0  0  0  0  0
   31.6461    4.5608   -5.5811 C   0  0  0  0  0  0  0  0  0  0  0  0
   30.9461    2.6608   -6.7811 C   0  0  0  0  0  0  0  0  0  0  0  0
   30.9461    3.2608   -5.3811 C   0  0  0  0  0  0  0  0  0  0  0  0
   33.3461    3.0608   -6.3811 C   0  0  0  0  0  0  0  0  0  0  0  0
   30.3461    3.0608   -9.1811 C   0  0  0  0  0  0  0  0  0  0  0  0
   29.1461    2.2608   -9.1811 C   0  0  0  0  0  0  0  0  0  0  0  0
   27.8461    2.7608   -8.7811 N   0  0  0  0  0  0  0  0  0  0  0  0
   29.0461    1.0608   -9.9811 O   0  0  0  0  0  0  0  0  0  0  0  0
   28.6461    2.2608   -7.6811 O   0  0  0  0  0  0  0  0  0  0  0  0
   31.2461    2.5608   -4.3811 O   0  0  0  0  0  0  0  0  0  0  0  0
   32.2461    5.1608   -4.4811 C   0  0  0  0  0  0  0  0  0  0  0  0
   33.2461    4.5608   -3.7811 O   0  0  0  0  0  0  0  0  0  0  0  0
   34.4461    4.5608   -4.5811 C   0  0  0  0  0  0  0  0  0  0  0  0
   26.6461    2.6608   -9.5811 C   0  0  0  0  0  0  0  0  0  0  0  0
   26.6461    1.6608  -10.5811 C   0  0  0  0  0  0  0  0  0  0  0  0
  2  1  1  0
  3  1  1  0
  4  3  1  0
  5  2  1  0
  5  4  1  0
  6  1  1  0
  6  3  1  0
  7  4  1  0
  7  5  1  0
  8  6  1  0
  8  7  1  0
  9  3  1  0
  9  4  1  0
 10  5  1  0
 11 10  1  0
 12 11  1  0
 13 11  1  0
 14 11  1  0
 15  8  1  0
 16  6  1  0
 17 16  1  0
 18 17  1  0
 19 12  1  0
 20 19  1  0
M  END
>  <ID>  (1) 
conformer_0

$$$$
