
     RDKit          3D

 24 28  0  0  0  0  0  0  0  0999 V2000
   31.6524    5.4981   -6.5292 C   0  0  0  0  0  0  0  0  0  0  0  0
   30.5524    5.0981   -7.4292 N   0  0  0  0  0  0  0  0  0  0  0  0
   32.7524    4.4981   -6.6292 C   0  0  0  0  0  0  0  0  0  0  0  0
   32.3524    3.3981   -7.5292 C   0  0  0  0  0  0  0  0  0  0  0  0
   30.9524    3.5981   -7.9292 C   0  0  0  0  0  0  0  0  0  0  0  0
   31.0524    2.8981   -6.7292 C   0  0  0  0  0  0  0  0  0  0  0  0
   32.0524    4.5981   -5.3292 C   0  0  0  0  0  0  0  0  0  0  0  0
   31.0524    3.3981   -5.3292 C   0  0  0  0  0  0  0  0  0  0  0  0
   32.6524    5.2981   -4.2292 C   0  0  0  0  0  0  0  0  0  0  0  0
   34.1524    4.8981   -6.9292 C   0  0  0  0  0  0  0  0  0  0  0  0
   35.2524    3.8981   -6.9292 C   0  0  0  0  0  0  0  0  0  0  0  0
   36.6524    4.2981   -6.9292 C   0  0  0  0  0  0  0  0  0  0  0  0
   30.1524    3.1981   -9.0292 C   0  0  0  0  0  0  0  0  0  0  0  0
   30.4524    3.2981  -10.1292 O   0  0  0  0  0  0  0  0  0  0  0  0
   28.7524    2.7981   -8.7292 N   0  0  0  0  0  0  0  0  0  0  0  0
   27.8524    2.1981   -9.5292 C   0  0  0  0  0  0  0  0  0  0  0  0
   27.2524    0.8981   -9.1292 C   0  0  0  0  0  0  0  0  0  0  0  0
   26.5524    0.0981  -10.1292 C   0  0  0  0  0  0  0  0  0  0  0  0
   26.8524    2.6981  -10.4292 C   0  0  0  0  0  0  0  0  0  0  0  0
   25.7524    0.8981   -9.3292 C   0  0  0  0  0  0  0  0  0  0  0  0
   37.1524    4.3981   -5.5292 C   0  0  0  0  0  0  0  0  0  0  0  0
   36.0524    4.5981   -4.5292 C   0  0  0  0  0  0  0  0  0  0  0  0
   38.2524    3.4981   -5.1292 O   0  0  0  0  0  0  0  0  0  0  0  0
   39.0524    3.8981   -4.0292 C   0  0  0  0  0  0  0  0  0  0  0  0
  2  1  1  0
  3  1  1  0
  4  3  1  0
  5  2  1  0
  5  4  1  0
  6  4  1  0
  6  5  1  0
  7  1  1  0
  7  3  1  0
  8  6  1  0
  8  7  1  0
  9  7  1  0
 10  3  1  0
 11 10  2  3
 12 11  1  0
 13  5  1  0
 14 13  2  0
 15 13  1  0
 16 15  1  0
 17 16  1  0
 18 17  1  0
 19 16  1  0
 20 17  1  0
 20 18  1  0
 21 12  1  0
 22 21  1  0
 23 21  1  0
 24 23  1  0
M  END
>  <ID>  (1) 
conformer_0

$$$$
