
     RDKit          3D

 21 25  0  0  0  0  0  0  0  0999 V2000
   31.6461    5.4608   -6.7811 C   0  0  0  0  0  0  0  0  0  0  0  0
   30.6461    5.0608   -7.6811 N   0  0  0  0  0  0  0  0  0  0  0  0
   32.7461    4.4608   -6.5811 C   0  0  0  0  0  0  0  0  0  0  0  0
   32.3461    3.2608   -7.3811 C   0  0  0  0  0  0  0  0  0  0  0  0
   30.9461    3.4608   -7.7811 C   0  0  0  0  0  0  0  0  0  0  0  0
   31.6461    4.5608   -5.5811 C   0  0  0  0  0  0  0  0  0  0  0  0
   31.1461    2.6608   -6.6811 C   0  0  0  0  0  0  0  0  0  0  0  0
   34.0461    4.7608   -6.0811 C   0  0  0  0  0  0  0  0  0  0  0  0
   35.1461    4.1608   -6.8811 C   0  0  0  0  0  0  0  0  0  0  0  0
   36.5461    4.1608   -6.7811 C   0  0  0  0  0  0  0  0  0  0  0  0
   30.8461    3.3608   -5.2811 C   0  0  0  0  0  0  0  0  0  0  0  0
   37.3461    3.2608   -5.9811 C   0  0  0  0  0  0  0  0  0  0  0  0
   38.3461    3.6608   -5.0811 C   0  0  0  0  0  0  0  0  0  0  0  0
   37.8461    4.8608   -4.3811 C   0  0  0  0  0  0  0  0  0  0  0  0
   36.4461    5.0608   -4.1811 C   0  0  0  0  0  0  0  0  0  0  0  0
   30.2461    2.9608   -8.9811 C   0  0  0  0  0  0  0  0  0  0  0  0
   29.7461    3.7608   -9.8811 O   0  0  0  0  0  0  0  0  0  0  0  0
   32.1461    5.1608   -4.3811 C   0  0  0  0  0  0  0  0  0  0  0  0
   35.5461    3.8608   -4.1811 C   0  0  0  0  0  0  0  0  0  0  0  0
   30.6461    1.6608   -9.3811 O   0  0  0  0  0  0  0  0  0  0  0  0
   36.1461    2.7608   -4.9811 O   0  0  0  0  0  0  0  0  0  0  0  0
  2  1  1  0
  3  1  1  0
  4  3  1  0
  5  2  1  0
  5  4  1  0
  6  1  1  0
  6  3  1  0
  7  4  1  0
  7  5  1  0
  8  3  1  0
  9  8  1  0
 10  9  1  0
 11  6  1  0
 11  7  1  0
 12 10  1  0
 13 12  1  0
 14 13  1  0
 15 14  1  0
 16  5  1  0
 17 16  2  0
 18  6  1  0
 19 15  1  0
 20 16  1  0
 21 12  1  0
 21 19  1  0
M  END
>  <ID>  (1) 
conformer_0

$$$$
