
     RDKit          3D

 19 23  0  0  0  0  0  0  0  0999 V2000
   31.6461    5.4608   -6.7811 C   0  0  0  0  0  0  0  0  0  0  0  0
   30.6461    5.0608   -7.6811 N   0  0  0  0  0  0  0  0  0  0  0  0
   32.6461    4.3608   -6.5811 C   0  0  0  0  0  0  0  0  0  0  0  0
   32.4461    3.2608   -7.4811 C   0  0  0  0  0  0  0  0  0  0  0  0
   31.0461    2.7608   -7.5811 C   0  0  0  0  0  0  0  0  0  0  0  0
   30.0461    3.7608   -7.8811 C   0  0  0  0  0  0  0  0  0  0  0  0
   31.5461    4.4608   -5.5811 C   0  0  0  0  0  0  0  0  0  0  0  0
   31.2461    3.1608   -5.0811 C   0  0  0  0  0  0  0  0  0  0  0  0
   34.0461    4.5608   -6.2811 C   0  0  0  0  0  0  0  0  0  0  0  0
   31.0461    2.1608   -6.1811 C   0  0  0  0  0  0  0  0  0  0  0  0
   35.1461    4.1608   -6.9811 C   0  0  0  0  0  0  0  0  0  0  0  0
   36.5461    4.1608   -6.9811 C   0  0  0  0  0  0  0  0  0  0  0  0
   37.3461    3.7608   -5.7811 C   0  0  0  0  0  0  0  0  0  0  0  0
   36.4461    4.1608   -4.6811 C   0  0  0  0  0  0  0  0  0  0  0  0
   37.1461    5.2608   -3.9811 C   0  0  0  0  0  0  0  0  0  0  0  0
   38.5461    5.0608   -3.6811 C   0  0  0  0  0  0  0  0  0  0  0  0
   39.0461    3.6608   -3.8811 C   0  0  0  0  0  0  0  0  0  0  0  0
   38.5461    3.2608   -5.1811 C   0  0  0  0  0  0  0  0  0  0  0  0
   31.9461    2.9608   -8.6811 C   0  0  0  0  0  0  0  0  0  0  0  0
  2  1  1  0
  3  1  1  0
  4  3  1  0
  5  4  1  0
  6  2  1  0
  6  5  1  0
  7  1  1  0
  7  3  1  0
  8  7  1  0
  9  3  1  0
 10  5  1  0
 10  8  1  0
 11  9  2  3
 12 11  1  0
 13 12  1  0
 14 13  1  0
 15 14  1  0
 16 15  2  0
 17 16  1  0
 18 13  1  0
 18 17  1  0
 19  4  1  0
 19  5  1  0
M  END
>  <ID>  (1) 
conformer_0

$$$$
