
     RDKit          3D

 24 29  0  0  0  0  0  0  0  0999 V2000
   31.6524    5.4981   -6.5292 C   0  0  0  0  0  0  0  0  0  0  0  0
   30.5524    5.0981   -7.4292 N   0  0  0  0  0  0  0  0  0  0  0  0
   32.7524    4.4981   -6.6292 C   0  0  0  0  0  0  0  0  0  0  0  0
   32.3524    3.3981   -7.5292 C   0  0  0  0  0  0  0  0  0  0  0  0
   30.9524    3.5981   -7.9292 C   0  0  0  0  0  0  0  0  0  0  0  0
   31.0524    2.8981   -6.7292 C   0  0  0  0  0  0  0  0  0  0  0  0
   32.0524    4.5981   -5.3292 C   0  0  0  0  0  0  0  0  0  0  0  0
   31.0524    3.3981   -5.3292 C   0  0  0  0  0  0  0  0  0  0  0  0
   32.6524    5.2981   -4.2292 C   0  0  0  0  0  0  0  0  0  0  0  0
   34.1524    4.8981   -6.9292 C   0  0  0  0  0  0  0  0  0  0  0  0
   35.2524    3.8981   -6.9292 C   0  0  0  0  0  0  0  0  0  0  0  0
   36.6524    4.2981   -6.9292 C   0  0  0  0  0  0  0  0  0  0  0  0
   30.1524    3.1981   -9.0292 C   0  0  0  0  0  0  0  0  0  0  0  0
   30.4524    3.2981  -10.1292 O   0  0  0  0  0  0  0  0  0  0  0  0
   28.7524    2.8981   -8.6292 N   0  0  0  0  0  0  0  0  0  0  0  0
   27.9524    2.2981   -9.7292 C   0  0  0  0  0  0  0  0  0  0  0  0
   26.5524    2.5981   -9.4292 C   0  0  0  0  0  0  0  0  0  0  0  0
   25.6524    1.9981  -10.4292 C   0  0  0  0  0  0  0  0  0  0  0  0
   24.2524    1.7981  -10.1292 C   0  0  0  0  0  0  0  0  0  0  0  0
   37.3524    3.7981   -5.7292 C   0  0  0  0  0  0  0  0  0  0  0  0
   37.0524    4.5981   -4.5292 C   0  0  0  0  0  0  0  0  0  0  0  0
   35.6524    4.5981   -4.1292 C   0  0  0  0  0  0  0  0  0  0  0  0
   34.2524    4.9981   -4.4292 C   0  0  0  0  0  0  0  0  0  0  0  0
   34.7524    3.7981   -4.7292 C   0  0  0  0  0  0  0  0  0  0  0  0
  2  1  1  0
  3  1  1  0
  4  3  1  0
  5  2  1  0
  5  4  1  0
  6  4  1  0
  6  5  1  0
  7  1  1  0
  7  3  1  0
  8  6  1  0
  8  7  1  0
  9  7  1  0
 10  3  1  0
 11 10  2  0
 12 11  1  0
 13  5  1  0
 14 13  2  0
 15 13  1  0
 16 15  1  0
 17 16  1  0
 18 17  1  0
 19 18  1  0
 20 12  1  0
 21 20  1  0
 22 21  1  0
 23  9  1  0
 23 22  1  0
 24 22  1  0
 24 23  1  0
M  END
>  <ID>  (1) 
conformer_0

$$$$
