
     RDKit          3D

 21 29  0  0  0  0  0  0  0  0999 V2000
   31.6461    5.4608   -6.7811 C   0  0  0  0  0  0  0  0  0  0  0  0
   30.6461    5.0608   -7.6811 N   0  0  0  0  0  0  0  0  0  0  0  0
   32.7461    4.4608   -6.5811 C   0  0  0  0  0  0  0  0  0  0  0  0
   32.3461    3.2608   -7.3811 C   0  0  0  0  0  0  0  0  0  0  0  0
   30.9461    3.4608   -7.8811 C   0  0  0  0  0  0  0  0  0  0  0  0
   30.9461    2.9608   -6.5811 C   0  0  0  0  0  0  0  0  0  0  0  0
   31.8461    4.8608   -5.4811 C   0  0  0  0  0  0  0  0  0  0  0  0
   30.9461    3.5608   -5.2811 C   0  0  0  0  0  0  0  0  0  0  0  0
   33.3461    3.1608   -6.1811 C   0  0  0  0  0  0  0  0  0  0  0  0
   29.9461    3.0608   -8.8811 C   0  0  0  0  0  0  0  0  0  0  0  0
   28.8461    2.1608   -8.4811 C   0  0  0  0  0  0  0  0  0  0  0  0
   28.0461    1.4608   -9.2811 N   0  0  0  0  0  4  0  0  0  0  0  0
   28.4461    1.9608   -7.1811 O   0  0  0  0  0  0  0  0  0  0  0  0
   32.5461    5.5608   -4.3811 C   0  0  0  0  0  0  0  0  0  0  0  0
   28.5461    0.4608  -10.0811 O   0  0  0  0  0  0  0  0  0  0  0  0
   29.8461    3.0608  -10.2811 C   0  0  0  0  0  0  0  0  0  0  0  0
   28.7461    2.8608  -11.0811 C   0  0  0  0  0  0  0  0  0  0  0  0
   27.5461    2.6608   -9.1811 C   0  0  0  0  0  0  0  0  0  0  0  0
   26.2461    2.7608   -8.4811 C   0  0  0  0  0  0  0  0  0  0  0  0
   27.5461    3.3608  -10.4811 O   0  0  0  0  0  0  0  0  0  0  0  0
   29.0461    1.4608  -10.6811 C   0  0  0  0  0  0  0  0  0  0  0  0
  2  1  1  0
  3  1  1  0
  4  3  1  0
  5  2  1  0
  5  4  1  0
  6  4  1  0
  6  5  1  0
  7  1  1  0
  7  3  1  0
  8  6  1  0
  8  7  1  0
  9  3  1  0
  9  4  1  0
 10  5  1  0
 11 10  1  0
 12 11  1  0
 13 11  1  0
 14  7  1  0
 16 10  1  0
 17 16  1  0
 18 11  1  0
 18 12  1  0
 19 18  1  0
 20 17  1  0
 20 18  1  0
 21 12  1  0
 21 15  1  0
 21 16  1  0
 21 17  1  0
M  END
>  <ID>  (1) 
conformer_0

$$$$
