
     RDKit          3D

 28 32  0  0  0  0  0  0  0  0999 V2000
   31.6524    5.4981   -6.5292 C   0  0  0  0  0  0  0  0  0  0  0  0
   30.5524    5.0981   -7.4292 N   0  0  0  0  0  0  0  0  0  0  0  0
   32.7524    4.4981   -6.6292 C   0  0  0  0  0  0  0  0  0  0  0  0
   32.3524    3.3981   -7.5292 C   0  0  0  0  0  0  0  0  0  0  0  0
   30.9524    3.5981   -7.9292 C   0  0  0  0  0  0  0  0  0  0  0  0
   31.0524    2.8981   -6.7292 C   0  0  0  0  0  0  0  0  0  0  0  0
   32.0524    4.5981   -5.3292 C   0  0  0  0  0  0  0  0  0  0  0  0
   31.0524    3.3981   -5.3292 C   0  0  0  0  0  0  0  0  0  0  0  0
   32.6524    5.2981   -4.2292 C   0  0  0  0  0  0  0  0  0  0  0  0
   34.1524    4.8981   -6.9292 C   0  0  0  0  0  0  0  0  0  0  0  0
   35.2524    3.8981   -6.9292 C   0  0  0  0  0  0  0  0  0  0  0  0
   36.6524    4.2981   -6.9292 C   0  0  0  0  0  0  0  0  0  0  0  0
   30.1524    3.1981   -9.0292 C   0  0  0  0  0  0  0  0  0  0  0  0
   30.3524    3.3981  -10.2292 O   0  0  0  0  0  0  0  0  0  0  0  0
   28.7524    2.7981   -8.7292 N   0  0  0  0  0  0  0  0  0  0  0  0
   28.1524    1.8981   -9.7292 C   0  0  0  0  0  0  0  0  0  0  0  0
   26.7524    1.9981   -9.8292 C   0  0  0  0  0  0  0  0  0  0  0  0
   25.9524    2.2981   -8.6292 C   0  0  0  0  0  0  0  0  0  0  0  0
   24.6524    1.6981   -8.4292 C   0  0  0  0  0  0  0  0  0  0  0  0
   37.4524    3.6981   -5.8292 C   0  0  0  0  0  0  0  0  0  0  0  0
   37.4524    4.4981   -4.6292 C   0  0  0  0  0  0  0  0  0  0  0  0
   38.5524    4.3981   -3.6292 C   0  0  0  0  0  0  0  0  0  0  0  0
   24.6524    0.9981   -7.1292 C   0  0  0  0  0  0  0  0  0  0  0  0
   39.3524    3.1981   -3.9292 C   0  0  0  0  0  0  0  0  0  0  0  0
   39.1524    2.1981   -4.9292 C   0  0  0  0  0  0  0  0  0  0  0  0
   37.8524    2.3981   -5.6292 C   0  0  0  0  0  0  0  0  0  0  0  0
   25.6524    0.3981   -6.3292 C   0  0  0  0  0  0  0  0  0  0  0  0
   26.7524    0.5981   -5.7292 O   0  0  0  0  0  0  0  0  0  0  0  0
  2  1  1  0
  3  1  1  0
  4  3  1  0
  5  2  1  0
  5  4  1  0
  6  4  1  0
  6  5  1  0
  7  1  1  0
  7  3  1  0
  8  6  1  0
  8  7  1  0
  9  7  1  0
 10  3  1  0
 11 10  2  3
 12 11  1  0
 13  5  1  0
 14 13  2  0
 15 13  1  0
 16 15  1  0
 17 16  1  0
 18 17  1  0
 19 18  1  0
 20 12  1  0
 21 20  1  0
 22 21  1  0
 23 19  1  0
 24 22  1  0
 25 24  1  0
 26 20  1  0
 26 25  1  0
 27 23  1  0
 28 27  2  0
M  END
>  <ID>  (1) 
conformer_0

$$$$
