
     RDKit          3D

 14 16  0  0  0  0  0  0  0  0999 V2000
    1.1402    3.6077   -0.2764 N   0  0  0  0  0  0  0  0  0  0  0  0
    2.2385    2.9703    0.1230 C   0  0  0  0  0  0  0  0  0  0  0  0
    3.3413    3.6787    0.4356 N   0  0  0  0  0  0  0  0  0  0  0  0
    4.2146    2.8346    1.1489 C   0  0  0  0  0  0  0  0  0  0  0  0
    5.3428    3.4832    1.7530 O   0  0  0  0  0  0  0  0  0  0  0  0
    5.9301    2.9165    2.9121 C   0  0  0  0  0  0  0  0  0  0  0  0
    1.9422    1.6260    0.3622 C   0  0  0  0  0  0  0  0  0  0  0  0
   -0.0755    2.9368   -0.5424 C   0  0  0  0  0  0  0  0  0  0  0  0
    5.3024    1.7033    3.2691 C   0  0  0  0  0  0  0  0  0  0  0  0
    6.6787    3.5772    3.8110 O   0  0  0  0  0  0  0  0  0  0  0  0
    4.0048    1.6130    1.6369 C   0  0  0  0  0  0  0  0  0  0  0  0
    0.3965    1.4861   -0.1614 C   0  0  0  0  0  0  0  0  0  0  0  0
    2.8891    0.9505    1.2674 C   0  0  0  0  0  0  0  0  0  0  0  0
    0.0273    0.3780   -0.2466 O   0  0  0  0  0  0  0  0  0  0  0  0
  1  2  1  0
  2  3  2  0
  3  4  1  0
  4  5  1  0
  5  6  1  0
  2  7  1  0
  1  8  2  0
  6  9  1  0
  6 10  2  0
  4 11  2  0
  9 11  1  0
  7 12  1  0
  8 12  1  0
  7 13  2  0
 11 13  1  0
 12 14  2  0
M  END
>  <ID>  (1) 
conformer_0

$$$$
