
     RDKit          3D

 20 24  0  0  0  0  0  0  0  0999 V2000
    1.1402    3.6077   -0.2764 N   0  0  0  0  0  0  0  0  0  0  0  0
    2.2385    2.9703    0.1230 C   0  0  0  0  0  0  0  0  0  0  0  0
    3.3413    3.6787    0.4356 N   0  0  0  0  0  0  0  0  0  0  0  0
    4.2146    2.8346    1.1489 C   0  0  0  0  0  0  0  0  0  0  0  0
    5.3428    3.4832    1.7530 O   0  0  0  0  0  0  0  0  0  0  0  0
    5.9301    2.9165    2.9121 C   0  0  0  0  0  0  0  0  0  0  0  0
    1.9422    1.6260    0.3622 C   0  0  0  0  0  0  0  0  0  0  0  0
   -0.0755    2.9368   -0.5424 C   0  0  0  0  0  0  0  0  0  0  0  0
    5.3024    1.7033    3.2691 C   0  0  0  0  0  0  0  0  0  0  0  0
    0.8684    0.9349    0.0965 C   0  0  0  0  0  0  0  0  0  0  0  0
    0.7262   -0.3697    0.2660 N   0  0  0  0  0  0  0  0  0  0  0  0
    4.1723    1.1344    2.8058 C   0  0  0  0  0  0  0  0  0  0  0  0
    6.8011    3.7048    3.6288 C   0  0  0  0  0  0  0  0  0  0  0  0
    3.8264   -0.1351    3.1603 O   0  0  0  0  0  0  0  0  0  0  0  0
   -0.1955    1.6597   -0.3655 N   0  0  0  0  0  0  0  0  0  0  0  0
    3.9844   -1.2025    2.2048 C   0  0  0  0  0  0  0  0  0  0  0  0
    3.7620    1.6443    1.6860 C   0  0  0  0  0  0  0  0  0  0  0  0
    2.8927    0.8888    1.1881 C   0  0  0  0  0  0  0  0  0  0  0  0
    2.9054   -0.5678    1.1131 C   0  0  0  0  0  0  0  0  0  0  0  0
    1.6583   -1.1128    0.7378 C   0  0  0  0  0  0  0  0  0  0  0  0
  1  2  1  0
  2  3  2  0
  3  4  1  0
  4  5  1  0
  5  6  1  0
  2  7  1  0
  1  8  2  0
  6  9  2  0
  7 10  1  0
 10 11  1  0
  9 12  1  0
  6 13  1  0
 12 14  1  0
  8 15  1  0
 10 15  2  0
 14 16  1  0
  4 17  2  0
 12 17  1  0
  7 18  2  0
 17 18  1  0
 16 19  1  0
 18 19  1  0
 11 20  2  0
 19 20  1  0
M  END
>  <ID>  (1) 
conformer_0

$$$$
