
     RDKit          3D

 27 31  0  0  0  0  0  0  0  0999 V2000
    3.7947   -2.3347    1.9073 C   0  0  0  0  0  0  0  0  0  0  0  0
    2.9142   -1.5186    1.4456 C   0  0  0  0  0  0  0  0  0  0  0  0
    1.5530   -1.8248    1.2199 N   0  0  0  0  0  0  0  0  0  0  0  0
    5.1006   -2.0785    2.2198 C   0  0  0  0  0  0  0  0  0  0  0  0
    3.2255   -0.1310    1.2114 C   0  0  0  0  0  0  0  0  0  0  0  0
    2.2567    0.7486    0.7275 C   0  0  0  0  0  0  0  0  0  0  0  0
    1.0112    0.3551    0.3367 C   0  0  0  0  0  0  0  0  0  0  0  0
    6.0556   -3.0245    2.6269 C   0  0  0  0  0  0  0  0  0  0  0  0
    0.1254    1.3151   -0.2069 C   0  0  0  0  0  0  0  0  0  0  0  0
    4.6255   -0.0342    1.5018 C   0  0  0  0  0  0  0  0  0  0  0  0
    7.3264   -2.8657    2.3776 C   0  0  0  0  0  0  0  0  0  0  0  0
    5.0892    1.4519    1.2555 O   0  0  0  0  0  0  0  0  0  0  0  0
    5.4512    2.3088    2.2772 C   0  0  0  0  0  0  0  0  0  0  0  0
    7.6288   -1.6871    1.6036 C   0  0  0  0  0  0  0  0  0  0  0  0
    5.4981   -0.8830    1.7391 C   0  0  0  0  0  0  0  0  0  0  0  0
    2.6048    2.1182    0.5801 C   0  0  0  0  0  0  0  0  0  0  0  0
    6.8258   -0.6700    1.4644 C   0  0  0  0  0  0  0  0  0  0  0  0
    9.1135   -1.4150    1.4805 O   0  0  0  0  0  0  0  0  0  0  0  0
    0.7503   -0.9691    0.6191 C   0  0  0  0  0  0  0  0  0  0  0  0
    4.8820    3.4747    2.2579 C   0  0  0  0  0  0  0  0  0  0  0  0
    5.2221    4.4087    3.2894 C   0  0  0  0  0  0  0  0  0  0  0  0
    0.5087    2.4975   -0.3995 N   0  0  0  0  0  0  0  0  0  0  0  0
    1.6870    2.9744   -0.0035 C   0  0  0  0  0  0  0  0  0  0  0  0
    6.1319    1.8306    3.4514 C   0  0  0  0  0  0  0  0  0  0  0  0
    6.3962    2.6811    4.4326 C   0  0  0  0  0  0  0  0  0  0  0  0
    9.5996   -2.1142    0.3570 C   0  0  0  0  0  0  0  0  0  0  0  0
    5.8172    4.0285    4.3074 C   0  0  0  0  0  0  0  0  0  0  0  0
  1  2  2  0
  2  3  1  0
  1  4  1  0
  2  5  1  0
  5  6  1  0
  6  7  2  0
  4  8  1  0
  7  9  1  0
  5 10  2  0
  8 11  2  0
 10 12  1  0
 12 13  1  0
 11 14  1  0
  4 15  2  0
 10 15  1  0
  6 16  1  0
 14 17  2  0
 15 17  1  0
 14 18  1  0
  3 19  2  0
  7 19  1  0
 13 20  2  0
 20 21  1  0
  9 22  2  0
 16 23  2  0
 22 23  1  0
 13 24  1  0
 24 25  2  0
 18 26  1  0
 21 27  2  0
 25 27  1  0
M  END
>  <ID>  (1) 
conformer_0

$$$$
