
     RDKit          3D

 13 14  0  0  0  0  0  0  0  0999 V2000
    0.9325    3.0025   -0.5302 N   0  0  0  0  0  0  0  0  0  0  0  0
    0.9545    1.8083   -0.4533 C   0  0  0  0  0  0  0  0  0  0  0  0
    2.0033    1.0748    0.0284 C   0  0  0  0  0  0  0  0  0  0  0  0
    2.1124    3.6011    0.0330 C   0  0  0  0  0  0  0  0  0  0  0  0
    2.9995    2.6349    0.5194 C   0  0  0  0  0  0  0  0  0  0  0  0
    4.2240    3.4212    1.2237 C   0  0  0  0  0  0  0  0  0  0  0  0
    4.2194    4.2453    1.9733 N   0  0  0  0  0  0  0  0  0  0  0  0
   -0.2083    1.0467   -0.7174 O   0  0  0  0  0  0  0  0  0  0  0  0
    5.2125    2.5642    1.3924 N   0  0  0  0  0  0  0  0  0  0  0  0
    2.9548    1.3303    0.4657 C   0  0  0  0  0  0  0  0  0  0  0  0
    5.2584    4.6144    2.6922 N   0  0  0  0  0  0  0  0  0  0  0  0
    6.0037    3.2362    2.4519 N   0  0  0  0  0  0  0  0  0  0  0  0
    1.8122   -0.6115   -0.0294 N   0  0  0  0  0  0  0  0  0  0  0  0
  1  2  1  0
  2  3  1  0
  1  4  1  0
  4  5  2  0
  5  6  1  0
  6  7  1  0
  2  8  2  0
  6  9  2  0
  3 10  2  0
  5 10  1  0
  7 11  1  0
  9 12  1  0
 11 12  2  0
  3 13  1  0
M  END
>  <ID>  (1) 
conformer_0

$$$$
