
     RDKit          3D

 33 39  0  0  0  0  0  0  0  0999 V2000
    3.7947   -2.3347    1.9073 C   0  0  0  0  0  0  0  0  0  0  0  0
    2.9142   -1.5186    1.4456 C   0  0  0  0  0  0  0  0  0  0  0  0
    1.5530   -1.8248    1.2199 N   0  0  0  0  0  0  0  0  0  0  0  0
    5.1006   -2.0785    2.2198 C   0  0  0  0  0  0  0  0  0  0  0  0
    3.2255   -0.1310    1.2114 C   0  0  0  0  0  0  0  0  0  0  0  0
    2.2567    0.7486    0.7275 C   0  0  0  0  0  0  0  0  0  0  0  0
    1.0112    0.3551    0.3367 C   0  0  0  0  0  0  0  0  0  0  0  0
    6.0556   -3.0245    2.6269 C   0  0  0  0  0  0  0  0  0  0  0  0
    0.1254    1.3151   -0.2069 C   0  0  0  0  0  0  0  0  0  0  0  0
    4.6255   -0.0342    1.5018 C   0  0  0  0  0  0  0  0  0  0  0  0
    7.3264   -2.8657    2.3776 C   0  0  0  0  0  0  0  0  0  0  0  0
    5.0892    1.4519    1.2555 O   0  0  0  0  0  0  0  0  0  0  0  0
    5.4512    2.3088    2.2772 C   0  0  0  0  0  0  0  0  0  0  0  0
    7.6288   -1.6871    1.6036 C   0  0  0  0  0  0  0  0  0  0  0  0
    0.9145   -1.0840    0.4571 C   0  0  0  0  0  0  0  0  0  0  0  0
    0.5577    2.5969   -0.3574 C   0  0  0  0  0  0  0  0  0  0  0  0
    6.5537    2.0900    2.9785 C   0  0  0  0  0  0  0  0  0  0  0  0
   -0.4239    3.4700   -0.8001 N   0  0  0  0  0  0  0  0  0  0  0  0
    8.3959   -3.8564    2.7373 C   0  0  0  0  0  0  0  0  0  0  0  0
    2.6087    2.2083    0.6462 C   0  0  0  0  0  0  0  0  0  0  0  0
    9.1027   -1.5516    1.3234 C   0  0  0  0  0  0  0  0  0  0  0  0
    5.5200   -0.8487    1.8398 C   0  0  0  0  0  0  0  0  0  0  0  0
    4.5991    3.4041    2.4610 C   0  0  0  0  0  0  0  0  0  0  0  0
    9.6886   -3.6884    2.2613 C   0  0  0  0  0  0  0  0  0  0  0  0
    1.7732    2.9007    0.0939 C   0  0  0  0  0  0  0  0  0  0  0  0
    7.4117    0.9736    2.6161 C   0  0  0  0  0  0  0  0  0  0  0  0
    6.8199    2.9353    3.7979 C   0  0  0  0  0  0  0  0  0  0  0  0
    9.5327   -0.4384    0.5407 O   0  0  0  0  0  0  0  0  0  0  0  0
   10.0280   -2.5499    1.5801 C   0  0  0  0  0  0  0  0  0  0  0  0
    4.9043    4.3122    3.3362 C   0  0  0  0  0  0  0  0  0  0  0  0
    6.9278   -0.4744    1.8331 C   0  0  0  0  0  0  0  0  0  0  0  0
   10.5521   -4.6825    2.5590 C   0  0  0  0  0  0  0  0  0  0  0  0
    6.0381    4.0784    4.0231 C   0  0  0  0  0  0  0  0  0  0  0  0
  1  2  2  0
  2  3  1  0
  1  4  1  0
  2  5  1  0
  5  6  1  0
  6  7  2  0
  4  8  1  0
  7  9  1  0
  5 10  2  0
  8 11  2  0
 10 12  1  0
 12 13  1  0
 11 14  1  0
  3 15  2  0
  7 15  1  0
  9 16  2  0
 13 17  1  0
 16 18  1  0
 11 19  1  0
  6 20  1  0
 14 21  1  0
  4 22  2  0
 10 22  1  0
 13 23  2  0
 19 24  2  0
 16 25  1  0
 20 25  2  0
 17 26  1  0
 17 27  2  0
 21 28  2  0
 21 29  1  0
 24 29  1  0
 23 30  1  0
 14 31  2  0
 22 31  1  0
 26 31  1  0
 24 32  1  0
 27 33  1  0
 30 33  2  0
M  END
>  <ID>  (1) 
conformer_0

$$$$
