
     RDKit          3D

 20 22  0  0  0  0  0  0  0  0999 V2000
    1.2191    2.5374    0.2583 C   0  0  0  0  0  0  0  0  0  0  0  0
    2.2650    2.2917    0.6778 C   0  0  0  0  0  0  0  0  0  0  0  0
    2.6639    0.8606    0.8596 C   0  0  0  0  0  0  0  0  0  0  0  0
    3.9413    0.5038    1.4070 N   0  0  0  0  0  0  0  0  0  0  0  0
    0.4160    1.4232   -0.2718 C   0  0  0  0  0  0  0  0  0  0  0  0
    4.2940   -0.8108    1.2729 C   0  0  0  0  0  0  0  0  0  0  0  0
    3.3145    3.0746    1.3014 C   0  0  0  0  0  0  0  0  0  0  0  0
   -0.8429    1.8515   -0.9080 O   0  0  0  0  0  0  0  0  0  0  0  0
    3.1782   -1.6437    1.3327 C   0  0  0  0  0  0  0  0  0  0  0  0
    4.7030    1.5803    1.7553 C   0  0  0  0  0  0  0  0  0  0  0  0
    3.1980   -2.5796    2.5275 C   0  0  0  0  0  0  0  0  0  0  0  0
    5.2256   -1.0660    0.2945 O   0  0  0  0  0  0  0  0  0  0  0  0
    0.7889    0.1357   -0.0893 N   0  0  0  0  0  0  0  0  0  0  0  0
    1.9014   -0.0834    0.3549 C   0  0  0  0  0  0  0  0  0  0  0  0
    4.3891    2.7824    1.8492 C   0  0  0  0  0  0  0  0  0  0  0  0
    2.3008   -1.4610    0.5069 C   0  0  0  0  0  0  0  0  0  0  0  0
    4.1025   -3.3493    2.7817 N   0  0  0  0  0  0  0  0  0  0  0  0
    6.0281    1.2646    2.1910 O   0  0  0  0  0  0  0  0  0  0  0  0
    5.3685    3.7804    2.1963 O   0  0  0  0  0  0  0  0  0  0  0  0
    2.1993   -2.5728    3.3596 O   0  0  0  0  0  0  0  0  0  0  0  0
  1  2  1  0
  2  3  2  0
  3  4  1  0
  1  5  2  0
  4  6  1  0
  2  7  1  0
  5  8  1  0
  6  9  1  0
  4 10  1  0
  9 11  1  0
  6 12  1  0
  5 13  1  0
  3 14  1  0
 13 14  2  0
  7 15  1  0
 10 15  1  0
  9 16  2  0
 14 16  1  0
 11 17  1  0
 10 18  2  0
 15 19  1  0
 11 20  2  0
M  END
>  <ID>  (1) 
conformer_0

$$$$
