
     RDKit          3D

 26 29  0  0  0  0  0  0  0  0999 V2000
    1.5770    0.5062    0.1644 C   0  0  0  0  0  0  0  0  0  0  0  0
    2.5244    1.3360    0.2207 N   0  0  0  0  0  0  0  0  0  0  0  0
    3.7603    1.1684    0.8725 C   0  0  0  0  0  0  0  0  0  0  0  0
    4.1145   -0.1928    1.0414 C   0  0  0  0  0  0  0  0  0  0  0  0
    5.3245   -0.6340    1.5980 C   0  0  0  0  0  0  0  0  0  0  0  0
    4.4797    2.0963    1.5229 N   0  0  0  0  0  0  0  0  0  0  0  0
    3.0808   -1.1872    0.7507 C   0  0  0  0  0  0  0  0  0  0  0  0
    2.1471    2.7889   -0.0689 C   0  0  0  0  0  0  0  0  0  0  0  0
    5.4877   -1.9261    1.8634 C   0  0  0  0  0  0  0  0  0  0  0  0
    1.8917   -0.8751    0.2469 N   0  0  0  0  0  0  0  0  0  0  0  0
    6.7488   -2.4281    2.3529 C   0  0  0  0  0  0  0  0  0  0  0  0
    3.3052   -2.4559    1.0327 C   0  0  0  0  0  0  0  0  0  0  0  0
    5.1100    2.1102    2.6306 C   0  0  0  0  0  0  0  0  0  0  0  0
    6.7959   -3.5803    3.0766 C   0  0  0  0  0  0  0  0  0  0  0  0
    7.9133   -1.6764    2.1034 C   0  0  0  0  0  0  0  0  0  0  0  0
    8.0838   -0.4534    1.3502 O   0  0  0  0  0  0  0  0  0  0  0  0
    4.8648    1.6144    3.6538 O   0  0  0  0  0  0  0  0  0  0  0  0
    8.0305   -4.1307    3.3536 C   0  0  0  0  0  0  0  0  0  0  0  0
    0.7004    2.6431   -0.4276 C   0  0  0  0  0  0  0  0  0  0  0  0
    0.4383    1.1792   -0.3036 N   0  0  0  0  0  0  0  0  0  0  0  0
    9.1966   -3.5006    3.0453 C   0  0  0  0  0  0  0  0  0  0  0  0
    6.2105    3.2347    2.5910 O   0  0  0  0  0  0  0  0  0  0  0  0
    9.2022   -2.3046    2.3160 C   0  0  0  0  0  0  0  0  0  0  0  0
    4.4915   -2.8567    1.6398 C   0  0  0  0  0  0  0  0  0  0  0  0
   10.4195   -4.1129    3.3533 O   0  0  0  0  0  0  0  0  0  0  0  0
    6.9801    3.5548    3.7257 C   0  0  0  0  0  0  0  0  0  0  0  0
  1  2  1  0
  2  3  1  0
  3  4  1  0
  4  5  2  0
  3  6  2  3
  4  7  1  0
  2  8  1  0
  5  9  1  0
  1 10  1  0
  7 10  1  0
  9 11  1  0
  7 12  2  0
  6 13  1  0
 11 14  2  0
 11 15  1  0
 15 16  1  0
 13 17  2  0
 14 18  1  0
  8 19  2  0
  1 20  2  0
 19 20  1  0
 18 21  2  0
 13 22  1  0
 15 23  2  0
 21 23  1  0
  9 24  2  0
 12 24  1  0
 21 25  1  0
 22 26  1  0
M  END
>  <ID>  (1) 
conformer_0

$$$$
