
     RDKit          3D

 34 38  0  0  0  0  0  0  0  0999 V2000
    3.7947   -2.3347    1.9073 C   0  0  0  0  0  0  0  0  0  0  0  0
    4.8868   -1.7657    1.7689 N   0  0  0  0  0  0  0  0  0  0  0  0
    6.1349   -2.4039    2.1278 C   0  0  0  0  0  0  0  0  0  0  0  0
    4.9276   -0.7190    0.9031 C   0  0  0  0  0  0  0  0  0  0  0  0
    6.1003   -3.4706    3.0016 C   0  0  0  0  0  0  0  0  0  0  0  0
    2.6922   -1.5803    1.4580 C   0  0  0  0  0  0  0  0  0  0  0  0
    5.9358    0.1448    0.6992 O   0  0  0  0  0  0  0  0  0  0  0  0
    7.4598   -1.9145    1.7479 C   0  0  0  0  0  0  0  0  0  0  0  0
    6.3892    0.8681    1.8829 C   0  0  0  0  0  0  0  0  0  0  0  0
    7.5454    1.4636    1.8231 C   0  0  0  0  0  0  0  0  0  0  0  0
    8.5417    1.2414    0.8195 O   0  0  0  0  0  0  0  0  0  0  0  0
    1.4267   -1.8460    1.3186 C   0  0  0  0  0  0  0  0  0  0  0  0
    3.4742   -0.4367    0.7383 C   0  0  0  0  0  0  0  0  0  0  0  0
    2.8947    0.7617    0.2752 C   0  0  0  0  0  0  0  0  0  0  0  0
    8.4950   -2.5893    1.9145 C   0  0  0  0  0  0  0  0  0  0  0  0
    4.8522   -3.9020    3.5137 C   0  0  0  0  0  0  0  0  0  0  0  0
    3.1700    2.0016    0.6240 C   0  0  0  0  0  0  0  0  0  0  0  0
    1.4420    0.6759   -0.0845 C   0  0  0  0  0  0  0  0  0  0  0  0
    3.6768   -3.4102    2.9016 C   0  0  0  0  0  0  0  0  0  0  0  0
    7.4254   -4.0246    3.3944 C   0  0  0  0  0  0  0  0  0  0  0  0
    4.3819    2.4661    1.1175 N   0  0  0  0  0  0  0  0  0  0  0  0
    0.7490    1.7155   -0.5466 C   0  0  0  0  0  0  0  0  0  0  0  0
    5.4526    1.0420    2.9788 C   0  0  0  0  0  0  0  0  0  0  0  0
    9.8489   -2.1354    1.4155 C   0  0  0  0  0  0  0  0  0  0  0  0
   -0.5311    1.5546   -1.0834 O   0  0  0  0  0  0  0  0  0  0  0  0
    5.0208    2.4003    3.0255 C   0  0  0  0  0  0  0  0  0  0  0  0
    4.5409    3.0083    2.0700 C   0  0  0  0  0  0  0  0  0  0  0  0
    4.1244    4.4313    2.2166 C   0  0  0  0  0  0  0  0  0  0  0  0
    8.5297   -3.6308    2.9116 C   0  0  0  0  0  0  0  0  0  0  0  0
   10.2179   -1.0059    1.4802 O   0  0  0  0  0  0  0  0  0  0  0  0
    8.1987    2.1588    2.9379 C   0  0  0  0  0  0  0  0  0  0  0  0
    1.1989    3.0337   -0.3714 C   0  0  0  0  0  0  0  0  0  0  0  0
    2.3844    3.1682    0.2193 C   0  0  0  0  0  0  0  0  0  0  0  0
   10.4424   -3.0114    0.8398 O   0  0  0  0  0  0  0  0  0  0  0  0
  1  2  1  0
  2  3  1  0
  2  4  1  0
  3  5  2  0
  1  6  2  0
  4  7  1  0
  3  8  1  0
  7  9  1  0
  9 10  2  3
 10 11  1  0
  6 12  1  0
  4 13  2  0
  6 13  1  0
 13 14  1  0
  8 15  2  0
  5 16  1  0
 14 17  1  0
 14 18  2  0
  1 19  1  0
 16 19  2  0
  5 20  1  0
 17 21  1  0
 18 22  1  0
  9 23  1  0
 15 24  1  0
 22 25  1  0
 23 26  2  0
 21 27  2  0
 26 27  1  0
 27 28  1  0
 15 29  1  0
 20 29  2  0
 24 30  1  0
 10 31  1  0
 22 32  2  0
 17 33  2  0
 32 33  1  0
 24 34  2  0
M  END
>  <ID>  (1) 
conformer_0

$$$$
