
     RDKit          3D

 28 32  0  0  0  0  0  0  0  0999 V2000
    3.7947   -2.3347    1.9073 C   0  0  0  0  0  0  0  0  0  0  0  0
    2.9142   -1.5186    1.4456 C   0  0  0  0  0  0  0  0  0  0  0  0
    1.5530   -1.8248    1.2199 N   0  0  0  0  0  0  0  0  0  0  0  0
    5.1006   -2.0785    2.2198 C   0  0  0  0  0  0  0  0  0  0  0  0
    3.2255   -0.1310    1.2114 C   0  0  0  0  0  0  0  0  0  0  0  0
    2.2567    0.7486    0.7275 C   0  0  0  0  0  0  0  0  0  0  0  0
    1.0112    0.3551    0.3367 C   0  0  0  0  0  0  0  0  0  0  0  0
    6.0556   -3.0245    2.6269 C   0  0  0  0  0  0  0  0  0  0  0  0
    0.1254    1.3151   -0.2069 C   0  0  0  0  0  0  0  0  0  0  0  0
    4.6255   -0.0342    1.5018 C   0  0  0  0  0  0  0  0  0  0  0  0
    7.3264   -2.8657    2.3776 C   0  0  0  0  0  0  0  0  0  0  0  0
    5.0892    1.4519    1.2555 O   0  0  0  0  0  0  0  0  0  0  0  0
    5.4512    2.3088    2.2772 C   0  0  0  0  0  0  0  0  0  0  0  0
    0.5895    2.4769   -0.3189 C   0  0  0  0  0  0  0  0  0  0  0  0
    2.6628    2.1087    0.6963 N   0  0  0  0  0  0  0  0  0  0  0  0
    7.7353   -1.6345    1.8073 C   0  0  0  0  0  0  0  0  0  0  0  0
    6.2933    1.9393    3.2309 C   0  0  0  0  0  0  0  0  0  0  0  0
   -0.3126    3.5596   -0.8178 N   0  0  0  0  0  0  0  0  0  0  0  0
    0.7559   -1.0242    0.5543 C   0  0  0  0  0  0  0  0  0  0  0  0
    8.4166   -3.7096    2.7804 C   0  0  0  0  0  0  0  0  0  0  0  0
    1.7637    2.9832    0.1902 C   0  0  0  0  0  0  0  0  0  0  0  0
    9.5788   -3.4173    2.8302 O   0  0  0  0  0  0  0  0  0  0  0  0
    5.5159   -0.8386    1.8634 C   0  0  0  0  0  0  0  0  0  0  0  0
    6.5126    2.8685    4.2748 O   0  0  0  0  0  0  0  0  0  0  0  0
    6.7501    0.7300    3.3228 N   0  0  0  0  0  0  0  0  0  0  0  0
    6.8598   -0.4898    2.0502 C   0  0  0  0  0  0  0  0  0  0  0  0
    8.0988   -4.8889    3.0381 O   0  0  0  0  0  0  0  0  0  0  0  0
    4.3080    3.2470    2.5727 C   0  0  0  0  0  0  0  0  0  0  0  0
  1  2  2  0
  2  3  1  0
  1  4  1  0
  2  5  1  0
  5  6  1  0
  6  7  2  0
  4  8  1  0
  7  9  1  0
  5 10  2  0
  8 11  2  0
 10 12  1  0
 12 13  1  0
  9 14  2  0
  6 15  1  0
 11 16  1  0
 13 17  1  0
 14 18  1  0
  3 19  2  0
  7 19  1  0
 11 20  1  0
 14 21  1  0
 15 21  2  0
 20 22  2  0
  4 23  2  0
 10 23  1  0
 17 24  2  0
 17 25  1  0
 16 26  1  0
 23 26  1  0
 25 26  1  0
 20 27  1  0
 13 28  1  0
M  END
>  <ID>  (1) 
conformer_0

$$$$
