
     RDKit          3D

 27 29  0  0  0  0  0  0  0  0999 V2000
    3.7947   -2.3347    1.9073 C   0  0  0  0  0  0  0  0  0  0  0  0
    4.8868   -1.7657    1.7689 N   0  0  0  0  0  0  0  0  0  0  0  0
    6.1349   -2.4039    2.1278 C   0  0  0  0  0  0  0  0  0  0  0  0
    4.9276   -0.7190    0.9031 C   0  0  0  0  0  0  0  0  0  0  0  0
    6.1003   -3.4706    3.0016 C   0  0  0  0  0  0  0  0  0  0  0  0
    3.6681   -0.2424    0.8503 C   0  0  0  0  0  0  0  0  0  0  0  0
    5.9573    0.2211    1.4034 O   0  0  0  0  0  0  0  0  0  0  0  0
    3.0523    0.8482    0.1212 C   0  0  0  0  0  0  0  0  0  0  0  0
    5.7775    0.8832    2.6161 C   0  0  0  0  0  0  0  0  0  0  0  0
    3.5566    2.0940    0.3181 N   0  0  0  0  0  0  0  0  0  0  0  0
    2.8953    3.2394    0.0581 C   0  0  0  0  0  0  0  0  0  0  0  0
    7.3171   -1.8699    1.7130 C   0  0  0  0  0  0  0  0  0  0  0  0
    1.8041    0.7425   -0.4342 C   0  0  0  0  0  0  0  0  0  0  0  0
    4.8405   -3.9063    3.4821 C   0  0  0  0  0  0  0  0  0  0  0  0
    1.0743    1.9070   -0.7190 C   0  0  0  0  0  0  0  0  0  0  0  0
    3.6640   -3.4005    2.8903 C   0  0  0  0  0  0  0  0  0  0  0  0
    8.4533   -2.7988    1.6727 C   0  0  0  0  0  0  0  0  0  0  0  0
    1.5904    3.0920   -0.4352 N   0  0  0  0  0  0  0  0  0  0  0  0
    9.7646   -2.3356    1.0687 C   0  0  0  0  0  0  0  0  0  0  0  0
    6.3607    2.2454    2.6326 C   0  0  0  0  0  0  0  0  0  0  0  0
   10.8120   -2.7008    1.7313 O   0  0  0  0  0  0  0  0  0  0  0  0
    9.8557   -1.3351    0.2397 O   0  0  0  0  0  0  0  0  0  0  0  0
    7.5286    2.2856    2.5351 O   0  0  0  0  0  0  0  0  0  0  0  0
    5.6420    3.2564    3.2556 N   0  0  0  0  0  0  0  0  0  0  0  0
    2.7985   -1.3882    1.2994 C   0  0  0  0  0  0  0  0  0  0  0  0
    4.3122    3.2982    3.4904 C   0  0  0  0  0  0  0  0  0  0  0  0
   -0.2712    1.8316   -1.2229 N   0  0  0  0  0  0  0  0  0  0  0  0
  1  2  1  0
  2  3  1  0
  2  4  1  0
  3  5  2  0
  4  6  1  0
  4  7  1  0
  6  8  1  0
  7  9  1  0
  8 10  1  0
 10 11  2  0
  3 12  1  0
  8 13  2  0
  5 14  1  0
 13 15  1  0
  1 16  1  0
 14 16  2  0
 12 17  2  3
 11 18  1  0
 15 18  2  0
 17 19  1  0
  9 20  1  0
 19 21  2  0
 19 22  1  0
 20 23  2  0
 20 24  1  0
  1 25  2  0
  6 25  2  0
 24 26  1  0
 15 27  1  0
M  END
>  <ID>  (1) 
conformer_0

$$$$
