
     RDKit          3D

 24 26  0  0  0  0  0  0  0  0999 V2000
    3.7947   -2.3347    1.9073 C   0  0  0  0  0  0  0  0  0  0  0  0
    4.8868   -1.7657    1.7689 N   0  0  0  0  0  0  0  0  0  0  0  0
    6.1349   -2.4039    2.1278 C   0  0  0  0  0  0  0  0  0  0  0  0
    4.9276   -0.7190    0.9031 C   0  0  0  0  0  0  0  0  0  0  0  0
    6.1003   -3.4706    3.0016 C   0  0  0  0  0  0  0  0  0  0  0  0
    3.6681   -0.2424    0.8503 C   0  0  0  0  0  0  0  0  0  0  0  0
    5.9573    0.2211    1.4034 O   0  0  0  0  0  0  0  0  0  0  0  0
    3.0523    0.8482    0.1212 C   0  0  0  0  0  0  0  0  0  0  0  0
    5.7775    0.8832    2.6161 C   0  0  0  0  0  0  0  0  0  0  0  0
    3.5566    2.0940    0.3181 N   0  0  0  0  0  0  0  0  0  0  0  0
    2.8953    3.2394    0.0581 C   0  0  0  0  0  0  0  0  0  0  0  0
    7.3171   -1.8699    1.7130 C   0  0  0  0  0  0  0  0  0  0  0  0
    8.5345   -2.4865    1.9867 C   0  0  0  0  0  0  0  0  0  0  0  0
    1.5785    2.9062   -0.3768 N   0  0  0  0  0  0  0  0  0  0  0  0
    1.7114    0.6961   -0.1759 C   0  0  0  0  0  0  0  0  0  0  0  0
    1.0368    1.9016   -0.5141 C   0  0  0  0  0  0  0  0  0  0  0  0
    6.3792    2.2529    2.5961 C   0  0  0  0  0  0  0  0  0  0  0  0
    8.4967   -3.7120    2.8262 C   0  0  0  0  0  0  0  0  0  0  0  0
    5.9250    3.1732    3.5019 O   0  0  0  0  0  0  0  0  0  0  0  0
    4.7357    4.0489    3.2108 C   0  0  0  0  0  0  0  0  0  0  0  0
    7.3531   -4.1677    3.3449 C   0  0  0  0  0  0  0  0  0  0  0  0
    9.7244   -4.3544    3.0536 O   0  0  0  0  0  0  0  0  0  0  0  0
    2.8466   -1.3853    1.2325 C   0  0  0  0  0  0  0  0  0  0  0  0
   -0.2792    1.7761   -0.8831 O   0  0  0  0  0  0  0  0  0  0  0  0
  1  2  1  0
  2  3  1  0
  2  4  1  0
  3  5  2  0
  4  6  1  0
  4  7  1  0
  6  8  1  0
  7  9  1  0
  8 10  1  0
 10 11  2  0
  3 12  1  0
 12 13  2  0
 11 14  1  0
  8 15  2  0
 14 16  1  0
 15 16  1  0
  9 17  1  0
 13 18  1  0
 17 19  1  0
 19 20  1  0
  5 21  1  0
 18 21  2  0
 18 22  1  0
  1 23  1  0
  6 23  2  0
 16 24  2  0
M  END
>  <ID>  (1) 
conformer_0

$$$$
