
     RDKit          3D

 20 22  0  0  0  0  0  0  0  0999 V2000
    3.1809   -2.7117    2.2945 C   0  0  0  0  0  0  0  0  0  0  0  0
    2.8592   -1.7250    1.5608 N   0  0  0  0  0  0  0  0  0  0  0  0
    1.5654   -1.5231    1.0283 N   0  0  0  0  0  0  0  0  0  0  0  0
    1.6738   -0.3028    0.4627 C   0  0  0  0  0  0  0  0  0  0  0  0
    4.5734   -2.9990    2.5106 C   0  0  0  0  0  0  0  0  0  0  0  0
    3.8427   -0.8104    1.2659 C   0  0  0  0  0  0  0  0  0  0  0  0
    3.0664    0.1739    0.4707 C   0  0  0  0  0  0  0  0  0  0  0  0
    3.4650    1.4600   -0.0477 C   0  0  0  0  0  0  0  0  0  0  0  0
    2.3968    2.4335   -0.0793 N   0  0  0  0  0  0  0  0  0  0  0  0
    5.4919   -1.9161    2.0816 C   0  0  0  0  0  0  0  0  0  0  0  0
    6.9074   -2.1963    2.3503 N   0  0  0  0  0  0  0  0  0  0  0  0
    7.7244   -1.2643    1.9240 C   0  0  0  0  0  0  0  0  0  0  0  0
    1.0484    1.8911   -0.3534 C   0  0  0  0  0  0  0  0  0  0  0  0
    9.0972   -1.6883    1.9073 C   0  0  0  0  0  0  0  0  0  0  0  0
    2.5478    3.7695    0.1405 C   0  0  0  0  0  0  0  0  0  0  0  0
    5.1967   -0.8151    1.4435 C   0  0  0  0  0  0  0  0  0  0  0  0
    0.6719    0.5674   -0.0719 C   0  0  0  0  0  0  0  0  0  0  0  0
   -0.0083    2.7497   -0.7633 C   0  0  0  0  0  0  0  0  0  0  0  0
    9.2211   -3.0550    1.7857 C   0  0  0  0  0  0  0  0  0  0  0  0
    9.4414   -3.7726    2.9032 O   0  0  0  0  0  0  0  0  0  0  0  0
  1  2  1  0
  2  3  1  0
  3  4  2  0
  1  5  2  0
  2  6  1  0
  4  7  1  0
  6  7  2  0
  7  8  1  0
  8  9  1  0
  5 10  1  0
 10 11  1  0
 11 12  1  0
  9 13  1  0
 12 14  1  0
  9 15  1  0
  6 16  1  0
 10 16  2  0
  4 17  1  0
 13 17  2  0
 13 18  1  0
 14 19  1  0
 19 20  1  0
M  END
>  <ID>  (1) 
conformer_0

$$$$
