
     RDKit          3D

 17 19  0  0  0  0  0  0  0  0999 V2000
    3.6961   -2.0766    1.6718 C   0  0  0  0  0  0  0  0  0  0  0  0
    2.7867   -1.2885    1.2248 N   0  0  0  0  0  0  0  0  0  0  0  0
    3.0506    0.0390    0.8450 C   0  0  0  0  0  0  0  0  0  0  0  0
    4.3159    0.3159    1.1342 C   0  0  0  0  0  0  0  0  0  0  0  0
    4.6407    1.8177    0.9265 N   0  0  0  0  0  0  0  0  0  0  0  0
    3.3602   -3.3974    2.0213 C   0  0  0  0  0  0  0  0  0  0  0  0
    2.0878    0.9073    0.2876 C   0  0  0  0  0  0  0  0  0  0  0  0
    5.2059   -0.5098    1.6700 N   0  0  0  0  0  0  0  0  0  0  0  0
    2.3385    2.2582    0.1959 C   0  0  0  0  0  0  0  0  0  0  0  0
    0.8601    0.5222   -0.2534 N   0  0  0  0  0  0  0  0  0  0  0  0
    3.6310    2.6128    0.6274 C   0  0  0  0  0  0  0  0  0  0  0  0
    1.2127    2.8749   -0.2850 C   0  0  0  0  0  0  0  0  0  0  0  0
    0.9158    4.0825   -0.3920 N   0  0  0  0  0  0  0  0  0  0  0  0
    2.3556   -3.6164    3.0398 N   0  0  0  0  0  0  0  0  0  0  0  0
    0.1922    1.8245   -0.5391 C   0  0  0  0  0  0  0  0  0  0  0  0
    3.9050    3.8907    0.8399 O   0  0  0  0  0  0  0  0  0  0  0  0
    4.9902   -1.6693    1.9478 C   0  0  0  0  0  0  0  0  0  0  0  0
  1  2  1  0
  2  3  2  0
  3  4  1  0
  4  5  1  0
  1  6  1  0
  3  7  1  0
  4  8  2  0
  7  9  2  0
  7 10  1  0
  5 11  1  0
  9 11  1  0
  9 12  1  0
 12 13  1  0
  6 14  1  0
 10 15  1  0
 12 15  2  0
 11 16  2  0
  1 17  2  0
  8 17  1  0
M  END
>  <ID>  (1) 
conformer_0

$$$$
