
     RDKit          3D

 34 39  0  0  0  0  0  0  0  0999 V2000
    1.5770    0.5062    0.1644 C   0  0  0  0  0  0  0  0  0  0  0  0
    2.5244    1.3360    0.2207 N   0  0  0  0  0  0  0  0  0  0  0  0
    3.7603    1.1684    0.8725 C   0  0  0  0  0  0  0  0  0  0  0  0
    4.1145   -0.1928    1.0414 C   0  0  0  0  0  0  0  0  0  0  0  0
    5.3245   -0.6340    1.5980 C   0  0  0  0  0  0  0  0  0  0  0  0
    4.4797    2.0963    1.5229 N   0  0  0  0  0  0  0  0  0  0  0  0
    3.0808   -1.1872    0.7507 C   0  0  0  0  0  0  0  0  0  0  0  0
    2.1471    2.7889   -0.0689 C   0  0  0  0  0  0  0  0  0  0  0  0
    5.4877   -1.9261    1.8634 C   0  0  0  0  0  0  0  0  0  0  0  0
    1.8917   -0.8751    0.2469 N   0  0  0  0  0  0  0  0  0  0  0  0
    6.7488   -2.4281    2.3529 C   0  0  0  0  0  0  0  0  0  0  0  0
    3.3052   -2.4559    1.0327 C   0  0  0  0  0  0  0  0  0  0  0  0
    5.1100    2.1102    2.6306 C   0  0  0  0  0  0  0  0  0  0  0  0
    6.7959   -3.5803    3.0766 C   0  0  0  0  0  0  0  0  0  0  0  0
    7.9133   -1.6764    2.1034 C   0  0  0  0  0  0  0  0  0  0  0  0
    8.0838   -0.4534    1.3502 O   0  0  0  0  0  0  0  0  0  0  0  0
    5.6221   -4.1183    3.4527 C   0  0  0  0  0  0  0  0  0  0  0  0
    8.6845    0.5944    1.7434 C   0  0  0  0  0  0  0  0  0  0  0  0
    9.2559    1.3004    0.9294 C   0  0  0  0  0  0  0  0  0  0  0  0
    4.4252   -2.7454    1.8919 C   0  0  0  0  0  0  0  0  0  0  0  0
    9.8241    2.5276    1.6263 C   0  0  0  0  0  0  0  0  0  0  0  0
    5.7033   -5.3833    4.2081 O   0  0  0  0  0  0  0  0  0  0  0  0
    8.6901    0.6021    3.2618 C   0  0  0  0  0  0  0  0  0  0  0  0
    5.6900    3.3497    2.9462 C   0  0  0  0  0  0  0  0  0  0  0  0
    9.1172   -2.2558    2.4170 C   0  0  0  0  0  0  0  0  0  0  0  0
    8.1341   -4.1932    3.1264 C   0  0  0  0  0  0  0  0  0  0  0  0
    9.2864    1.5148    3.7324 C   0  0  0  0  0  0  0  0  0  0  0  0
    4.4806   -3.8838    2.7080 N   0  0  0  0  0  0  0  0  0  0  0  0
    5.6897    4.3256    2.1660 O   0  0  0  0  0  0  0  0  0  0  0  0
    0.6469    2.6122   -0.4021 C   0  0  0  0  0  0  0  0  0  0  0  0
    9.2323   -3.4955    2.9350 C   0  0  0  0  0  0  0  0  0  0  0  0
    0.4495    1.1213   -0.3324 N   0  0  0  0  0  0  0  0  0  0  0  0
    6.3029    3.4998    4.1767 N   0  0  0  0  0  0  0  0  0  0  0  0
   10.0182    2.6195    2.8652 C   0  0  0  0  0  0  0  0  0  0  0  0
  1  2  1  0
  2  3  1  0
  3  4  1  0
  4  5  2  0
  3  6  2  3
  4  7  1  0
  2  8  1  0
  5  9  1  0
  1 10  1  0
  7 10  1  0
  9 11  1  0
  7 12  2  0
  6 13  1  0
 11 14  2  0
 11 15  1  0
 15 16  1  0
 14 17  1  0
 16 18  1  0
 18 19  2  0
  9 20  2  0
 12 20  1  0
 19 21  1  0
 17 22  1  0
 18 23  1  0
 13 24  1  0
 15 25  2  0
 14 26  1  0
 23 27  2  0
 17 28  1  0
 20 28  1  0
 24 29  2  0
  8 30  2  0
 25 31  1  0
 26 31  2  0
  1 32  2  0
 30 32  1  0
 24 33  1  0
 21 34  2  0
 27 34  1  0
M  END
>  <ID>  (1) 
conformer_0

$$$$
