
     RDKit          3D

 21 25  0  0  0  0  0  0  0  0999 V2000
    1.5770    0.5062    0.1644 C   0  0  0  0  0  0  0  0  0  0  0  0
    2.5244    1.3360    0.2207 C   0  0  0  0  0  0  0  0  0  0  0  0
    3.6898    1.1523    1.0048 C   0  0  0  0  0  0  0  0  0  0  0  0
    4.3346    2.0913    1.7207 N   0  0  0  0  0  0  0  0  0  0  0  0
    3.8411   -0.1840    1.4189 C   0  0  0  0  0  0  0  0  0  0  0  0
    4.1131    3.4791    1.4560 C   0  0  0  0  0  0  0  0  0  0  0  0
    5.0528   -0.4501    2.2158 C   0  0  0  0  0  0  0  0  0  0  0  0
    2.9090   -1.1117    1.1589 C   0  0  0  0  0  0  0  0  0  0  0  0
    5.6502    1.9205    2.3282 C   0  0  0  0  0  0  0  0  0  0  0  0
    1.8439   -0.8387    0.4509 N   0  0  0  0  0  0  0  0  0  0  0  0
    0.3601    0.9815   -0.1750 N   0  0  0  0  0  0  0  0  0  0  0  0
    2.3123    2.6766   -0.2099 C   0  0  0  0  0  0  0  0  0  0  0  0
    5.3710   -1.6953    2.4500 O   0  0  0  0  0  0  0  0  0  0  0  0
    4.7319    4.5610    2.0274 O   0  0  0  0  0  0  0  0  0  0  0  0
    5.9036    0.5893    2.6132 C   0  0  0  0  0  0  0  0  0  0  0  0
    0.4516    2.3644   -0.5485 C   0  0  0  0  0  0  0  0  0  0  0  0
   -1.0391    2.7219   -0.9943 C   0  0  0  0  0  0  0  0  0  0  0  0
    3.2861    3.7188    0.4236 N   0  0  0  0  0  0  0  0  0  0  0  0
    5.2342    4.3331    3.3311 C   0  0  0  0  0  0  0  0  0  0  0  0
    1.2595    3.1848   -0.5242 N   0  0  0  0  0  0  0  0  0  0  0  0
    5.8137    2.7658    3.6658 C   0  0  0  0  0  0  0  0  0  0  0  0
  1  2  1  0
  2  3  1  0
  3  4  1  0
  3  5  2  0
  4  6  1  0
  5  7  1  0
  5  8  1  0
  4  9  1  0
  1 10  1  0
  8 10  1  0
  1 11  2  0
  2 12  2  0
  7 13  2  0
  6 14  1  0
  7 15  1  0
  9 15  1  0
 11 16  1  0
 16 17  1  0
  6 18  2  0
 12 18  1  0
 14 19  1  0
 12 20  1  0
 16 20  2  0
  9 21  1  0
 19 21  1  0
M  END
>  <ID>  (1) 
conformer_0

$$$$
