
     RDKit          3D

 34 40  0  0  0  0  0  0  0  0999 V2000
    3.7947   -2.3347    1.9073 C   0  0  0  0  0  0  0  0  0  0  0  0
    2.9142   -1.5186    1.4456 C   0  0  0  0  0  0  0  0  0  0  0  0
    1.5530   -1.8248    1.2199 N   0  0  0  0  0  0  0  0  0  0  0  0
    5.1006   -2.0785    2.2198 C   0  0  0  0  0  0  0  0  0  0  0  0
    3.2255   -0.1310    1.2114 C   0  0  0  0  0  0  0  0  0  0  0  0
    2.2567    0.7486    0.7275 C   0  0  0  0  0  0  0  0  0  0  0  0
    1.0112    0.3551    0.3367 C   0  0  0  0  0  0  0  0  0  0  0  0
    6.0556   -3.0245    2.6269 C   0  0  0  0  0  0  0  0  0  0  0  0
    0.1254    1.3151   -0.2069 C   0  0  0  0  0  0  0  0  0  0  0  0
    4.6255   -0.0342    1.5018 C   0  0  0  0  0  0  0  0  0  0  0  0
    7.3264   -2.8657    2.3776 C   0  0  0  0  0  0  0  0  0  0  0  0
    5.0892    1.4519    1.2555 O   0  0  0  0  0  0  0  0  0  0  0  0
    5.4512    2.3088    2.2772 C   0  0  0  0  0  0  0  0  0  0  0  0
    7.6288   -1.6871    1.6036 C   0  0  0  0  0  0  0  0  0  0  0  0
    0.9145   -1.0840    0.4571 C   0  0  0  0  0  0  0  0  0  0  0  0
    0.5577    2.5969   -0.3574 C   0  0  0  0  0  0  0  0  0  0  0  0
    6.5537    2.0900    2.9785 C   0  0  0  0  0  0  0  0  0  0  0  0
   -0.4239    3.4700   -0.8001 N   0  0  0  0  0  0  0  0  0  0  0  0
    8.3959   -3.8564    2.7373 C   0  0  0  0  0  0  0  0  0  0  0  0
    5.4851   -0.8380    1.8007 C   0  0  0  0  0  0  0  0  0  0  0  0
    7.5971    1.5273    2.5217 C   0  0  0  0  0  0  0  0  0  0  0  0
    6.6582    2.7108    4.3711 C   0  0  0  0  0  0  0  0  0  0  0  0
    1.8845    2.8999    0.0498 C   0  0  0  0  0  0  0  0  0  0  0  0
    5.6447    3.4002    4.8013 O   0  0  0  0  0  0  0  0  0  0  0  0
    7.6343    0.8564    1.2804 O   0  0  0  0  0  0  0  0  0  0  0  0
    7.8115    2.6750    4.9572 N   0  0  0  0  0  0  0  0  0  0  0  0
    9.5818   -3.6736    2.1612 C   0  0  0  0  0  0  0  0  0  0  0  0
    4.7262    3.5397    2.1154 C   0  0  0  0  0  0  0  0  0  0  0  0
    8.8062    1.3137    3.3305 C   0  0  0  0  0  0  0  0  0  0  0  0
    8.8344    1.9753    4.5066 C   0  0  0  0  0  0  0  0  0  0  0  0
    9.1277   -1.5295    1.2826 C   0  0  0  0  0  0  0  0  0  0  0  0
   10.1345   -2.3064    1.9657 C   0  0  0  0  0  0  0  0  0  0  0  0
    6.9011   -0.5375    1.6019 C   0  0  0  0  0  0  0  0  0  0  0  0
    2.6451    2.0727    0.5517 C   0  0  0  0  0  0  0  0  0  0  0  0
  1  2  2  0
  2  3  1  0
  1  4  1  0
  2  5  1  0
  5  6  1  0
  6  7  2  0
  4  8  1  0
  7  9  1  0
  5 10  2  0
  8 11  2  0
 10 12  1  0
 12 13  1  0
 11 14  1  0
  3 15  2  0
  7 15  1  0
  9 16  2  0
 13 17  1  0
 16 18  1  0
 11 19  1  0
  4 20  2  0
 10 20  1  0
 17 21  2  0
 17 22  1  0
 16 23  1  0
 22 24  1  0
 21 25  1  0
 22 26  2  0
 19 27  1  0
 13 28  2  0
 21 29  1  0
 26 30  1  0
 29 30  2  0
 14 31  1  0
 27 32  1  0
 31 32  1  0
 14 33  2  0
 20 33  1  0
 25 33  1  0
  6 34  1  0
 23 34  2  0
M  END
>  <ID>  (1) 
conformer_0

$$$$
