
     RDKit          3D

 30 34  0  0  0  0  0  0  0  0999 V2000
    3.7947   -2.3347    1.9073 C   0  0  0  0  0  0  0  0  0  0  0  0
    2.9142   -1.5186    1.4456 C   0  0  0  0  0  0  0  0  0  0  0  0
    1.5530   -1.8248    1.2199 N   0  0  0  0  0  0  0  0  0  0  0  0
    5.1006   -2.0785    2.2198 C   0  0  0  0  0  0  0  0  0  0  0  0
    3.2255   -0.1310    1.2114 C   0  0  0  0  0  0  0  0  0  0  0  0
    2.2567    0.7486    0.7275 C   0  0  0  0  0  0  0  0  0  0  0  0
    1.0112    0.3551    0.3367 C   0  0  0  0  0  0  0  0  0  0  0  0
    6.0556   -3.0245    2.6269 C   0  0  0  0  0  0  0  0  0  0  0  0
    0.1254    1.3151   -0.2069 C   0  0  0  0  0  0  0  0  0  0  0  0
    4.6255   -0.0342    1.5018 C   0  0  0  0  0  0  0  0  0  0  0  0
    7.3264   -2.8657    2.3776 C   0  0  0  0  0  0  0  0  0  0  0  0
    5.0892    1.4519    1.2555 O   0  0  0  0  0  0  0  0  0  0  0  0
    5.4512    2.3088    2.2772 C   0  0  0  0  0  0  0  0  0  0  0  0
    0.5895    2.4769   -0.3189 C   0  0  0  0  0  0  0  0  0  0  0  0
    2.6628    2.1087    0.6963 N   0  0  0  0  0  0  0  0  0  0  0  0
    7.7353   -1.6345    1.8073 C   0  0  0  0  0  0  0  0  0  0  0  0
    1.8301    3.0129    0.1072 C   0  0  0  0  0  0  0  0  0  0  0  0
    5.4203    3.5760    2.0785 O   0  0  0  0  0  0  0  0  0  0  0  0
    6.7578    2.0748    3.0336 C   0  0  0  0  0  0  0  0  0  0  0  0
    7.6491    2.8545    2.6480 O   0  0  0  0  0  0  0  0  0  0  0  0
    8.3333   -3.8527    2.7582 C   0  0  0  0  0  0  0  0  0  0  0  0
    6.7109    1.4218    4.1660 O   0  0  0  0  0  0  0  0  0  0  0  0
    5.5036   -0.8149    1.8724 C   0  0  0  0  0  0  0  0  0  0  0  0
    9.5808   -3.7791    2.2111 C   0  0  0  0  0  0  0  0  0  0  0  0
   10.1064   -2.6382    1.6993 C   0  0  0  0  0  0  0  0  0  0  0  0
    9.1869   -1.6061    1.4697 C   0  0  0  0  0  0  0  0  0  0  0  0
    6.9598   -0.5857    1.7111 C   0  0  0  0  0  0  0  0  0  0  0  0
    4.9102    4.4929    3.0416 C   0  0  0  0  0  0  0  0  0  0  0  0
    0.7276   -1.1284    0.7061 C   0  0  0  0  0  0  0  0  0  0  0  0
   10.5541   -4.7107    2.6962 O   0  0  0  0  0  0  0  0  0  0  0  0
  1  2  2  0
  2  3  1  0
  1  4  1  0
  2  5  1  0
  5  6  1  0
  6  7  2  0
  4  8  1  0
  7  9  1  0
  5 10  2  0
  8 11  2  0
 10 12  1  0
 12 13  1  0
  9 14  2  0
  6 15  1  0
 11 16  1  0
 14 17  1  0
 15 17  2  0
 13 18  1  0
 13 19  1  0
 19 20  1  0
 11 21  1  0
 19 22  2  0
  4 23  2  0
 10 23  1  0
 21 24  2  0
 24 25  1  0
 16 26  1  0
 25 26  2  0
 16 27  2  0
 23 27  1  0
 18 28  1  0
  3 29  2  0
  7 29  1  0
 24 30  1  0
M  END
>  <ID>  (1) 
conformer_0

$$$$
