
     RDKit          3D

 27 29  0  0  0  0  0  0  0  0999 V2000
    3.7947   -2.3347    1.9073 C   0  0  0  0  0  0  0  0  0  0  0  0
    4.8868   -1.7657    1.7689 N   0  0  0  0  0  0  0  0  0  0  0  0
    6.1349   -2.4039    2.1278 C   0  0  0  0  0  0  0  0  0  0  0  0
    4.9276   -0.7190    0.9031 C   0  0  0  0  0  0  0  0  0  0  0  0
    6.1003   -3.4706    3.0016 C   0  0  0  0  0  0  0  0  0  0  0  0
    2.6922   -1.5803    1.4580 C   0  0  0  0  0  0  0  0  0  0  0  0
    5.9358    0.1448    0.6992 O   0  0  0  0  0  0  0  0  0  0  0  0
    7.4598   -1.9145    1.7479 C   0  0  0  0  0  0  0  0  0  0  0  0
    6.3892    0.8681    1.8829 C   0  0  0  0  0  0  0  0  0  0  0  0
    7.5454    1.4636    1.8231 C   0  0  0  0  0  0  0  0  0  0  0  0
    8.5417    1.2414    0.8195 O   0  0  0  0  0  0  0  0  0  0  0  0
    1.4267   -1.8460    1.3186 C   0  0  0  0  0  0  0  0  0  0  0  0
    3.4742   -0.4367    0.7383 C   0  0  0  0  0  0  0  0  0  0  0  0
    7.9406    2.4472    2.9169 C   0  0  0  0  0  0  0  0  0  0  0  0
    2.9664    0.5031   -0.1992 C   0  0  0  0  0  0  0  0  0  0  0  0
    7.4665   -4.0728    3.2732 C   0  0  0  0  0  0  0  0  0  0  0  0
    8.3869   -3.7201    2.9124 C   0  0  0  0  0  0  0  0  0  0  0  0
    8.5490   -2.6186    1.9861 C   0  0  0  0  0  0  0  0  0  0  0  0
    9.8762   -4.3924    3.2610 C   0  0  0  0  0  0  0  0  0  0  0  0
    1.6929    1.1121    0.3098 C   0  0  0  0  0  0  0  0  0  0  0  0
   10.7878   -4.1840    2.4711 O   0  0  0  0  0  0  0  0  0  0  0  0
    0.5990    1.0888   -0.7472 C   0  0  0  0  0  0  0  0  0  0  0  0
    5.3152    1.1646    2.9471 C   0  0  0  0  0  0  0  0  0  0  0  0
    7.0160    2.7308    3.8399 C   0  0  0  0  0  0  0  0  0  0  0  0
    9.8646   -5.1926    4.2079 O   0  0  0  0  0  0  0  0  0  0  0  0
    5.7378    2.1103    3.8340 C   0  0  0  0  0  0  0  0  0  0  0  0
   -0.5716    1.2721   -0.2658 O   0  0  0  0  0  0  0  0  0  0  0  0
  1  2  1  0
  2  3  1  0
  2  4  1  0
  3  5  2  0
  1  6  2  0
  4  7  1  0
  3  8  1  0
  7  9  1  0
  9 10  2  0
 10 11  1  0
  6 12  1  0
  4 13  2  0
  6 13  1  0
 10 14  1  0
 13 15  1  0
  5 16  1  0
 16 17  2  0
  8 18  2  0
 17 18  1  0
 17 19  1  0
 15 20  1  0
 19 21  2  0
 20 22  1  0
  9 23  1  0
 14 24  2  0
 19 25  1  0
 23 26  2  0
 24 26  1  0
 22 27  1  0
M  END
>  <ID>  (1) 
conformer_0

$$$$
