
     RDKit          3D

 11 12  0  0  0  0  0  0  0  0999 V2000
    1.9948    3.1176   -0.3393 N   0  0  0  0  0  0  0  0  0  0  0  0
    2.8304    2.3971    0.2493 C   0  0  0  0  0  0  0  0  0  0  0  0
    0.6859    2.6287   -0.6057 C   0  0  0  0  0  0  0  0  0  0  0  0
    2.2124    1.1327    0.4776 C   0  0  0  0  0  0  0  0  0  0  0  0
    2.9674    0.0219    1.0576 C   0  0  0  0  0  0  0  0  0  0  0  0
    2.4626   -1.1729    0.9084 C   0  0  0  0  0  0  0  0  0  0  0  0
    4.3355    0.1847    1.3803 C   0  0  0  0  0  0  0  0  0  0  0  0
    4.7700   -1.0063    1.9060 N   0  0  0  0  0  0  0  0  0  0  0  0
    3.8134   -2.1019    1.7589 S   0  0  0  0  0  0  0  0  0  0  0  0
    0.7537    1.0253    0.0385 S   0  0  0  0  0  0  0  0  0  0  0  0
   -0.4025    3.2363   -1.1699 N   0  0  0  0  0  0  0  0  0  0  0  0
  1  2  1  0
  1  3  2  0
  2  4  2  0
  4  5  1  0
  5  6  2  0
  5  7  1  0
  7  8  2  0
  6  9  1  0
  8  9  1  0
  3 10  1  0
  4 10  1  0
  3 11  1  0
M  END
>  <ID>  (1) 
conformer_0

$$$$
