
     RDKit          3D

 20 22  0  0  0  0  0  0  0  0999 V2000
    3.7596   -2.0180    1.6422 C   0  0  0  0  0  0  0  0  0  0  0  0
    4.8594   -1.4612    1.4641 C   0  0  0  0  0  0  0  0  0  0  0  0
    3.6571   -3.1907    2.3499 C   0  0  0  0  0  0  0  0  0  0  0  0
    2.7370   -1.4612    0.7778 C   0  0  0  0  0  0  0  0  0  0  0  0
    3.1020   -0.2198    0.3319 C   0  0  0  0  0  0  0  0  0  0  0  0
    2.0229    0.6226   -0.3261 C   0  0  0  0  0  0  0  0  0  0  0  0
    6.0184   -1.9659    2.0888 C   0  0  0  0  0  0  0  0  0  0  0  0
    4.7387   -0.1999    0.7667 N   0  0  0  0  0  0  0  0  0  0  0  0
    0.8145    0.3778   -0.2567 N   0  0  0  0  0  0  0  0  0  0  0  0
    7.3221   -1.2274    1.8852 C   0  0  0  0  0  0  0  0  0  0  0  0
    6.0556   -2.9676    2.7305 C   0  0  0  0  0  0  0  0  0  0  0  0
   -0.0314    1.4043   -0.5676 C   0  0  0  0  0  0  0  0  0  0  0  0
    8.4544   -1.8238    1.9012 C   0  0  0  0  0  0  0  0  0  0  0  0
    9.7902   -1.2248    1.5204 C   0  0  0  0  0  0  0  0  0  0  0  0
    2.3744    1.9251   -0.7494 C   0  0  0  0  0  0  0  0  0  0  0  0
   10.7856   -2.0419    1.3035 O   0  0  0  0  0  0  0  0  0  0  0  0
    2.4447   -3.8337    2.7011 O   0  0  0  0  0  0  0  0  0  0  0  0
   10.0112    0.0571    1.6901 O   0  0  0  0  0  0  0  0  0  0  0  0
    4.8079   -3.6434    2.9716 C   0  0  0  0  0  0  0  0  0  0  0  0
    1.0369    2.5941   -0.9223 N   0  0  0  0  0  0  0  0  0  0  0  0
  1  2  1  0
  1  3  1  0
  1  4  2  0
  4  5  1  0
  5  6  1  0
  2  7  1  0
  2  8  1  0
  5  8  2  0
  6  9  1  0
  7 10  1  0
  7 11  2  0
  9 12  2  0
 10 13  2  3
 13 14  1  0
  6 15  2  0
 14 16  2  0
  3 17  1  0
 14 18  1  0
  3 19  2  0
 11 19  1  0
 12 20  1  0
 15 20  1  0
M  END
>  <ID>  (1) 
conformer_0

$$$$
