
     RDKit          3D

 25 30  0  0  0  0  0  0  0  0999 V2000
    1.5770    0.5062    0.1644 C   0  0  0  0  0  0  0  0  0  0  0  0
    2.5244    1.3360    0.2207 C   0  0  0  0  0  0  0  0  0  0  0  0
    3.6898    1.1523    1.0048 C   0  0  0  0  0  0  0  0  0  0  0  0
    4.3346    2.0913    1.7207 N   0  0  0  0  0  0  0  0  0  0  0  0
    3.8411   -0.1840    1.4189 C   0  0  0  0  0  0  0  0  0  0  0  0
    4.1131    3.4791    1.4560 C   0  0  0  0  0  0  0  0  0  0  0  0
    5.0528   -0.4501    2.2158 C   0  0  0  0  0  0  0  0  0  0  0  0
    2.2243    2.6125   -0.3628 C   0  0  0  0  0  0  0  0  0  0  0  0
    5.4518    1.8514    2.5225 C   0  0  0  0  0  0  0  0  0  0  0  0
    2.8540    3.7481   -0.1838 O   0  0  0  0  0  0  0  0  0  0  0  0
    5.4619   -1.6998    2.5325 N   0  0  0  0  0  0  0  0  0  0  0  0
    4.9757    4.2883    2.2310 O   0  0  0  0  0  0  0  0  0  0  0  0
    5.8065    0.5417    2.7677 C   0  0  0  0  0  0  0  0  0  0  0  0
    0.3782    0.8686   -0.4760 N   0  0  0  0  0  0  0  0  0  0  0  0
    2.9647   -1.2036    0.8796 C   0  0  0  0  0  0  0  0  0  0  0  0
    3.4247    4.0838    0.5879 C   0  0  0  0  0  0  0  0  0  0  0  0
    0.9344    2.7341   -0.9038 C   0  0  0  0  0  0  0  0  0  0  0  0
    3.2212   -2.5272    1.3432 C   0  0  0  0  0  0  0  0  0  0  0  0
    7.2312    0.4525    2.7161 O   0  0  0  0  0  0  0  0  0  0  0  0
    1.6635   -0.8865    0.6333 N   0  0  0  0  0  0  0  0  0  0  0  0
    4.4481   -2.7329    2.2804 C   0  0  0  0  0  0  0  0  0  0  0  0
    0.0463    1.8275   -0.9883 C   0  0  0  0  0  0  0  0  0  0  0  0
    5.6905    3.2850    2.8544 C   0  0  0  0  0  0  0  0  0  0  0  0
    6.6085    3.5649    4.0981 C   0  0  0  0  0  0  0  0  0  0  0  0
    4.9026   -3.9098    2.4688 O   0  0  0  0  0  0  0  0  0  0  0  0
  1  2  1  0
  2  3  1  0
  3  4  1  0
  3  5  2  0
  4  6  1  0
  5  7  1  0
  2  8  2  0
  4  9  1  0
  8 10  1  0
  7 11  1  0
  6 12  1  0
  7 13  1  0
  9 13  1  0
  1 14  2  0
  5 15  1  0
  6 16  2  0
 10 16  1  0
  8 17  1  0
 15 18  1  0
 13 19  1  0
  1 20  1  0
 15 20  2  0
 11 21  1  0
 18 21  1  0
 14 22  1  0
 17 22  2  0
  9 23  2  0
 12 23  1  0
 23 24  1  0
 21 25  2  0
M  END
>  <ID>  (1) 
conformer_0

$$$$
