
     RDKit          3D

 27 30  0  0  0  0  0  0  0  0999 V2000
    3.7947   -2.3347    1.9073 C   0  0  0  0  0  0  0  0  0  0  0  0
    2.9142   -1.5186    1.4456 C   0  0  0  0  0  0  0  0  0  0  0  0
    1.5530   -1.8248    1.2199 N   0  0  0  0  0  0  0  0  0  0  0  0
    5.1006   -2.0785    2.2198 C   0  0  0  0  0  0  0  0  0  0  0  0
    3.2255   -0.1310    1.2114 C   0  0  0  0  0  0  0  0  0  0  0  0
    2.2567    0.7486    0.7275 C   0  0  0  0  0  0  0  0  0  0  0  0
    1.0112    0.3551    0.3367 C   0  0  0  0  0  0  0  0  0  0  0  0
    6.0556   -3.0245    2.6269 C   0  0  0  0  0  0  0  0  0  0  0  0
    0.1254    1.3151   -0.2069 C   0  0  0  0  0  0  0  0  0  0  0  0
    4.6255   -0.0342    1.5018 C   0  0  0  0  0  0  0  0  0  0  0  0
    7.3264   -2.8657    2.3776 C   0  0  0  0  0  0  0  0  0  0  0  0
    5.0892    1.4519    1.2555 O   0  0  0  0  0  0  0  0  0  0  0  0
    5.4512    2.3088    2.2772 C   0  0  0  0  0  0  0  0  0  0  0  0
    7.6288   -1.6871    1.6036 C   0  0  0  0  0  0  0  0  0  0  0  0
    0.9145   -1.0840    0.4571 C   0  0  0  0  0  0  0  0  0  0  0  0
    0.5577    2.5969   -0.3574 C   0  0  0  0  0  0  0  0  0  0  0  0
    6.5537    2.0900    2.9785 C   0  0  0  0  0  0  0  0  0  0  0  0
   -0.4239    3.4700   -0.8001 N   0  0  0  0  0  0  0  0  0  0  0  0
    8.4388   -3.6237    2.8627 C   0  0  0  0  0  0  0  0  0  0  0  0
    8.3656   -4.4447    3.7590 O   0  0  0  0  0  0  0  0  0  0  0  0
    2.5972    2.2107    0.6372 C   0  0  0  0  0  0  0  0  0  0  0  0
    5.0048    3.5448    2.2687 O   0  0  0  0  0  0  0  0  0  0  0  0
    1.7703    2.9248    0.0881 C   0  0  0  0  0  0  0  0  0  0  0  0
    5.5669   -0.8913    1.9050 C   0  0  0  0  0  0  0  0  0  0  0  0
    9.6421   -3.7023    2.1470 O   0  0  0  0  0  0  0  0  0  0  0  0
    6.7899   -0.6700    1.4892 C   0  0  0  0  0  0  0  0  0  0  0  0
    7.1497    2.9969    3.7659 N   0  0  0  0  0  0  0  0  0  0  0  0
  1  2  2  0
  2  3  1  0
  1  4  1  0
  2  5  1  0
  5  6  1  0
  6  7  2  0
  4  8  1  0
  7  9  1  0
  5 10  2  0
  8 11  2  0
 10 12  1  0
 12 13  1  0
 11 14  1  0
  3 15  2  0
  7 15  1  0
  9 16  2  0
 13 17  1  0
 16 18  1  0
 11 19  1  0
 19 20  2  0
  6 21  1  0
 13 22  2  0
 16 23  1  0
 21 23  2  0
  4 24  2  0
 10 24  1  0
 19 25  1  0
 14 26  2  0
 24 26  1  0
 17 27  1  0
M  END
>  <ID>  (1) 
conformer_0

$$$$
