
     RDKit          3D

 25 28  0  0  0  0  0  0  0  0999 V2000
    3.7947   -2.3347    1.9073 C   0  0  0  0  0  0  0  0  0  0  0  0
    4.8868   -1.7657    1.7689 N   0  0  0  0  0  0  0  0  0  0  0  0
    6.1349   -2.4039    2.1278 C   0  0  0  0  0  0  0  0  0  0  0  0
    4.9276   -0.7190    0.9031 C   0  0  0  0  0  0  0  0  0  0  0  0
    6.1003   -3.4706    3.0016 C   0  0  0  0  0  0  0  0  0  0  0  0
    3.6529   -0.3841    0.5745 C   0  0  0  0  0  0  0  0  0  0  0  0
    7.4943   -1.9993    1.7304 C   0  0  0  0  0  0  0  0  0  0  0  0
    3.5254   -3.4113    2.7484 C   0  0  0  0  0  0  0  0  0  0  0  0
    2.8773   -1.4733    1.2986 C   0  0  0  0  0  0  0  0  0  0  0  0
    2.4004   -3.9223    3.2009 O   0  0  0  0  0  0  0  0  0  0  0  0
    8.5574   -2.7479    1.9225 C   0  0  0  0  0  0  0  0  0  0  0  0
    8.5221   -3.7309    2.8751 C   0  0  0  0  0  0  0  0  0  0  0  0
   10.0482   -2.2624    1.3311 C   0  0  0  0  0  0  0  0  0  0  0  0
   10.0573   -1.1459    1.0458 O   0  0  0  0  0  0  0  0  0  0  0  0
    2.9240    0.8204    0.1711 C   0  0  0  0  0  0  0  0  0  0  0  0
    9.7361   -4.4711    3.1899 O   0  0  0  0  0  0  0  0  0  0  0  0
    1.5481    0.6047   -0.2279 N   0  0  0  0  0  0  0  0  0  0  0  0
    3.2479    1.9817    0.1885 N   0  0  0  0  0  0  0  0  0  0  0  0
   10.8091   -3.1724    1.3144 O   0  0  0  0  0  0  0  0  0  0  0  0
    0.7619    1.5845   -0.5622 C   0  0  0  0  0  0  0  0  0  0  0  0
    1.3768    2.9244   -0.3418 C   0  0  0  0  0  0  0  0  0  0  0  0
   -0.5087    1.4250   -0.8928 N   0  0  0  0  0  0  0  0  0  0  0  0
    7.3186   -4.1740    3.3754 C   0  0  0  0  0  0  0  0  0  0  0  0
    4.7917   -4.0512    3.5266 C   0  0  0  0  0  0  0  0  0  0  0  0
    2.6264    3.0453   -0.0103 C   0  0  0  0  0  0  0  0  0  0  0  0
  1  2  1  0
  2  3  1  0
  2  4  1  0
  3  5  2  0
  4  6  2  0
  3  7  1  0
  1  8  1  0
  1  9  2  0
  6  9  1  0
  8 10  1  0
  7 11  2  0
 11 12  1  0
 11 13  1  0
 13 14  2  0
  6 15  1  0
 12 16  1  0
 15 17  1  0
 15 18  2  0
 13 19  1  0
 17 20  2  0
 20 21  1  0
 20 22  1  0
  5 23  1  0
 12 23  2  0
  5 24  1  0
  8 24  2  0
 18 25  1  0
 21 25  2  0
M  END
>  <ID>  (1) 
conformer_0

$$$$
