
     RDKit          3D

 19 21  0  0  0  0  0  0  0  0999 V2000
    1.9948    3.1176   -0.3393 N   0  0  0  0  0  0  0  0  0  0  0  0
    2.8304    2.3971    0.2493 C   0  0  0  0  0  0  0  0  0  0  0  0
    2.5247    1.0872    0.5687 N   0  0  0  0  0  0  0  0  0  0  0  0
    3.8093    2.9732    1.0879 C   0  0  0  0  0  0  0  0  0  0  0  0
    3.3777    0.3638    1.2494 C   0  0  0  0  0  0  0  0  0  0  0  0
    4.1024    4.3641    0.9995 O   0  0  0  0  0  0  0  0  0  0  0  0
    1.3536    0.5309    0.0898 C   0  0  0  0  0  0  0  0  0  0  0  0
    3.1552   -1.0768    1.2856 C   0  0  0  0  0  0  0  0  0  0  0  0
    4.7390    2.2165    1.8096 C   0  0  0  0  0  0  0  0  0  0  0  0
    4.4694    0.8676    1.8941 C   0  0  0  0  0  0  0  0  0  0  0  0
    1.8605   -1.4186    1.1392 N   0  0  0  0  0  0  0  0  0  0  0  0
    0.6180    2.9119   -0.2296 C   0  0  0  0  0  0  0  0  0  0  0  0
    4.1886   -2.0392    1.7765 C   0  0  0  0  0  0  0  0  0  0  0  0
    5.7656    2.9744    2.5176 C   0  0  0  0  0  0  0  0  0  0  0  0
   -0.2107    3.5278   -1.1700 N   0  0  0  0  0  0  0  0  0  0  0  0
    5.5688    3.5947    3.6658 N   0  0  0  0  0  0  0  0  0  0  0  0
    6.8783    3.0281    2.1377 O   0  0  0  0  0  0  0  0  0  0  0  0
    1.0919   -0.7698    0.3109 C   0  0  0  0  0  0  0  0  0  0  0  0
    0.3113    1.4535   -0.4734 C   0  0  0  0  0  0  0  0  0  0  0  0
  1  2  2  0
  2  3  1  0
  2  4  1  0
  3  5  1  0
  4  6  1  0
  3  7  1  0
  5  8  1  0
  4  9  2  0
  5 10  2  0
  9 10  1  0
  8 11  2  0
  1 12  1  0
  8 13  1  0
  9 14  1  0
 12 15  1  0
 14 16  1  0
 14 17  2  0
  7 18  2  0
 11 18  1  0
  7 19  1  0
 12 19  1  0
M  END
>  <ID>  (1) 
conformer_0

$$$$
