
     RDKit          3D

 29 33  0  0  0  0  0  0  0  0999 V2000
    3.7947   -2.3347    1.9073 C   0  0  0  0  0  0  0  0  0  0  0  0
    2.9142   -1.5186    1.4456 C   0  0  0  0  0  0  0  0  0  0  0  0
    1.5530   -1.8248    1.2199 N   0  0  0  0  0  0  0  0  0  0  0  0
    5.1006   -2.0785    2.2198 C   0  0  0  0  0  0  0  0  0  0  0  0
    3.2255   -0.1310    1.2114 C   0  0  0  0  0  0  0  0  0  0  0  0
    2.2567    0.7486    0.7275 C   0  0  0  0  0  0  0  0  0  0  0  0
    1.0112    0.3551    0.3367 C   0  0  0  0  0  0  0  0  0  0  0  0
    6.0556   -3.0245    2.6269 C   0  0  0  0  0  0  0  0  0  0  0  0
    0.1254    1.3151   -0.2069 C   0  0  0  0  0  0  0  0  0  0  0  0
    4.6255   -0.0342    1.5018 C   0  0  0  0  0  0  0  0  0  0  0  0
    7.3264   -2.8657    2.3776 C   0  0  0  0  0  0  0  0  0  0  0  0
    5.0892    1.4519    1.2555 O   0  0  0  0  0  0  0  0  0  0  0  0
    5.4512    2.3088    2.2772 C   0  0  0  0  0  0  0  0  0  0  0  0
    7.6288   -1.6871    1.6036 C   0  0  0  0  0  0  0  0  0  0  0  0
    5.4981   -0.8830    1.7391 C   0  0  0  0  0  0  0  0  0  0  0  0
    2.6048    2.1182    0.5801 C   0  0  0  0  0  0  0  0  0  0  0  0
    6.8258   -0.6700    1.4644 C   0  0  0  0  0  0  0  0  0  0  0  0
    1.7389    2.9868    0.0593 C   0  0  0  0  0  0  0  0  0  0  0  0
    9.1118   -1.4316    1.4731 O   0  0  0  0  0  0  0  0  0  0  0  0
    6.5691    2.2774    2.8844 C   0  0  0  0  0  0  0  0  0  0  0  0
    8.3887   -3.7307    2.7581 O   0  0  0  0  0  0  0  0  0  0  0  0
    0.5996   -0.9477    0.5456 C   0  0  0  0  0  0  0  0  0  0  0  0
    6.6801    3.4172    3.8570 N   0  0  0  0  0  0  0  0  0  0  0  0
    5.7796    4.3329    3.9080 N   0  0  0  0  0  0  0  0  0  0  0  0
    9.8152   -0.5885    1.8246 C   0  0  0  0  0  0  0  0  0  0  0  0
    4.5968    4.3214    3.2292 C   0  0  0  0  0  0  0  0  0  0  0  0
    4.2985    3.3144    2.4958 C   0  0  0  0  0  0  0  0  0  0  0  0
    2.0227    4.3639   -0.0723 O   0  0  0  0  0  0  0  0  0  0  0  0
    0.4490    2.5897   -0.3595 C   0  0  0  0  0  0  0  0  0  0  0  0
  1  2  2  0
  2  3  1  0
  1  4  1  0
  2  5  1  0
  5  6  1  0
  6  7  2  0
  4  8  1  0
  7  9  1  0
  5 10  2  0
  8 11  2  0
 10 12  1  0
 12 13  1  0
 11 14  1  0
  4 15  2  0
 10 15  1  0
  6 16  1  0
 14 17  2  0
 15 17  1  0
 16 18  2  0
 14 19  1  0
 13 20  2  0
 11 21  1  0
  3 22  2  0
  7 22  1  0
 20 23  1  0
 23 24  2  0
 19 25  1  0
 24 26  1  0
 13 27  1  0
 26 27  2  0
 18 28  1  0
  9 29  2  0
 18 29  1  0
M  END
>  <ID>  (1) 
conformer_0

$$$$
