
     RDKit          3D

 30 34  0  0  0  0  0  0  0  0999 V2000
    3.7947   -2.3347    1.9073 C   0  0  0  0  0  0  0  0  0  0  0  0
    2.9142   -1.5186    1.4456 C   0  0  0  0  0  0  0  0  0  0  0  0
    1.5530   -1.8248    1.2199 N   0  0  0  0  0  0  0  0  0  0  0  0
    5.1006   -2.0785    2.2198 C   0  0  0  0  0  0  0  0  0  0  0  0
    3.2255   -0.1310    1.2114 C   0  0  0  0  0  0  0  0  0  0  0  0
    2.2567    0.7486    0.7275 C   0  0  0  0  0  0  0  0  0  0  0  0
    1.0112    0.3551    0.3367 C   0  0  0  0  0  0  0  0  0  0  0  0
    6.0556   -3.0245    2.6269 C   0  0  0  0  0  0  0  0  0  0  0  0
    0.1254    1.3151   -0.2069 C   0  0  0  0  0  0  0  0  0  0  0  0
    4.6255   -0.0342    1.5018 C   0  0  0  0  0  0  0  0  0  0  0  0
    7.3264   -2.8657    2.3776 C   0  0  0  0  0  0  0  0  0  0  0  0
    5.0892    1.4519    1.2555 O   0  0  0  0  0  0  0  0  0  0  0  0
    5.4512    2.3088    2.2772 C   0  0  0  0  0  0  0  0  0  0  0  0
    7.6288   -1.6871    1.6036 C   0  0  0  0  0  0  0  0  0  0  0  0
    0.9145   -1.0840    0.4571 C   0  0  0  0  0  0  0  0  0  0  0  0
    0.5577    2.5969   -0.3574 C   0  0  0  0  0  0  0  0  0  0  0  0
    6.5537    2.0900    2.9785 C   0  0  0  0  0  0  0  0  0  0  0  0
   -0.4239    3.4700   -0.8001 N   0  0  0  0  0  0  0  0  0  0  0  0
    8.3959   -3.8564    2.7373 C   0  0  0  0  0  0  0  0  0  0  0  0
    7.4596    1.9192    2.3650 O   0  0  0  0  0  0  0  0  0  0  0  0
    9.0750   -1.5582    1.3248 O   0  0  0  0  0  0  0  0  0  0  0  0
    4.9291    3.7083    1.8713 C   0  0  0  0  0  0  0  0  0  0  0  0
    2.5430    2.2364    0.6762 C   0  0  0  0  0  0  0  0  0  0  0  0
    6.6115    2.0517    4.3141 O   0  0  0  0  0  0  0  0  0  0  0  0
    9.5900   -2.4851    0.5242 C   0  0  0  0  0  0  0  0  0  0  0  0
    8.4391   -4.6902    3.5733 O   0  0  0  0  0  0  0  0  0  0  0  0
    5.5155   -0.8414    1.8517 C   0  0  0  0  0  0  0  0  0  0  0  0
    1.7527    2.9264    0.1061 N   0  0  0  0  0  0  0  0  0  0  0  0
    9.5640   -3.8364    1.7827 C   0  0  0  0  0  0  0  0  0  0  0  0
    6.9168   -0.5951    1.5369 C   0  0  0  0  0  0  0  0  0  0  0  0
  1  2  2  0
  2  3  1  0
  1  4  1  0
  2  5  1  0
  5  6  1  0
  6  7  2  0
  4  8  1  0
  7  9  1  0
  5 10  2  0
  8 11  2  0
 10 12  1  0
 12 13  1  0
 11 14  1  0
  3 15  2  0
  7 15  1  0
  9 16  2  0
 13 17  1  0
 16 18  1  0
 11 19  1  0
 17 20  2  0
 14 21  1  0
 13 22  1  0
  6 23  1  0
 17 24  1  0
 21 25  1  0
 19 26  2  0
  4 27  2  0
 10 27  1  0
 16 28  1  0
 23 28  2  0
 19 29  1  0
 25 29  1  0
 14 30  2  0
 27 30  1  0
M  END
>  <ID>  (1) 
conformer_0

$$$$
