
     RDKit          3D

 19 22  0  0  0  0  0  0  0  0999 V2000
    1.2191    2.5374    0.2583 C   0  0  0  0  0  0  0  0  0  0  0  0
    2.2650    2.2917    0.6778 C   0  0  0  0  0  0  0  0  0  0  0  0
    2.6639    0.8606    0.8596 C   0  0  0  0  0  0  0  0  0  0  0  0
    3.9413    0.5038    1.4070 N   0  0  0  0  0  0  0  0  0  0  0  0
    0.4160    1.4232   -0.2718 C   0  0  0  0  0  0  0  0  0  0  0  0
    4.2940   -0.8108    1.2729 C   0  0  0  0  0  0  0  0  0  0  0  0
    3.3145    3.0746    1.3014 C   0  0  0  0  0  0  0  0  0  0  0  0
   -0.8429    1.8515   -0.9080 O   0  0  0  0  0  0  0  0  0  0  0  0
    3.1782   -1.6437    1.3327 C   0  0  0  0  0  0  0  0  0  0  0  0
    0.6623    0.1688   -0.1589 N   0  0  0  0  0  0  0  0  0  0  0  0
    1.8498   -0.1275    0.3351 C   0  0  0  0  0  0  0  0  0  0  0  0
    4.4474    2.6076    1.8520 C   0  0  0  0  0  0  0  0  0  0  0  0
    5.3779   -1.1053    2.3584 C   0  0  0  0  0  0  0  0  0  0  0  0
    2.1442   -1.4757    0.4599 C   0  0  0  0  0  0  0  0  0  0  0  0
    5.4091    3.6554    2.3905 O   0  0  0  0  0  0  0  0  0  0  0  0
    6.4769   -0.3710    2.2721 O   0  0  0  0  0  0  0  0  0  0  0  0
    4.7490    1.4375    1.9522 C   0  0  0  0  0  0  0  0  0  0  0  0
    5.3002   -1.9819    3.1765 O   0  0  0  0  0  0  0  0  0  0  0  0
    6.1841    1.2016    2.4209 C   0  0  0  0  0  0  0  0  0  0  0  0
  1  2  1  0
  2  3  2  0
  3  4  1  0
  1  5  2  0
  4  6  1  0
  2  7  1  0
  5  8  1  0
  6  9  1  0
  5 10  1  0
  3 11  1  0
 10 11  2  0
  7 12  2  0
  6 13  1  0
  9 14  1  0
 11 14  1  0
 12 15  1  0
 13 16  1  0
  4 17  1  0
 12 17  1  0
 13 18  2  0
 16 19  1  0
 17 19  1  0
M  END
>  <ID>  (1) 
conformer_0

$$$$
