
     RDKit          3D

 25 30  0  0  0  0  0  0  0  0999 V2000
    1.5770    0.5062    0.1644 C   0  0  0  0  0  0  0  0  0  0  0  0
    2.5244    1.3360    0.2207 C   0  0  0  0  0  0  0  0  0  0  0  0
    3.6898    1.1523    1.0048 C   0  0  0  0  0  0  0  0  0  0  0  0
    4.3346    2.0913    1.7207 N   0  0  0  0  0  0  0  0  0  0  0  0
    3.8411   -0.1840    1.4189 C   0  0  0  0  0  0  0  0  0  0  0  0
    4.1131    3.4791    1.4560 C   0  0  0  0  0  0  0  0  0  0  0  0
    5.0528   -0.4501    2.2158 C   0  0  0  0  0  0  0  0  0  0  0  0
    2.2243    2.6125   -0.3628 C   0  0  0  0  0  0  0  0  0  0  0  0
    5.4518    1.8514    2.5225 C   0  0  0  0  0  0  0  0  0  0  0  0
    2.8540    3.7481   -0.1838 O   0  0  0  0  0  0  0  0  0  0  0  0
    5.4619   -1.6998    2.5325 N   0  0  0  0  0  0  0  0  0  0  0  0
    5.7792    0.5683    2.7651 C   0  0  0  0  0  0  0  0  0  0  0  0
    0.3910    0.6678   -0.5406 N   0  0  0  0  0  0  0  0  0  0  0  0
    6.8259   -0.0312    3.5298 C   0  0  0  0  0  0  0  0  0  0  0  0
    0.9628    2.9262   -1.0036 N   0  0  0  0  0  0  0  0  0  0  0  0
    6.5743   -1.4480    3.3407 C   0  0  0  0  0  0  0  0  0  0  0  0
    3.1732   -1.2567    0.7461 C   0  0  0  0  0  0  0  0  0  0  0  0
    5.0650   -2.9208    2.1167 C   0  0  0  0  0  0  0  0  0  0  0  0
    5.5290   -3.9465    3.0581 C   0  0  0  0  0  0  0  0  0  0  0  0
    3.2010    4.0727    1.0534 C   0  0  0  0  0  0  0  0  0  0  0  0
    5.1889    4.0591    2.2209 O   0  0  0  0  0  0  0  0  0  0  0  0
    1.9155   -0.9296    0.2109 N   0  0  0  0  0  0  0  0  0  0  0  0
    0.1673    1.9569   -0.8539 C   0  0  0  0  0  0  0  0  0  0  0  0
    7.4027   -2.5525    3.8808 C   0  0  0  0  0  0  0  0  0  0  0  0
    7.0089   -3.8091    3.1786 C   0  0  0  0  0  0  0  0  0  0  0  0
  1  2  1  0
  2  3  1  0
  3  4  1  0
  3  5  2  0
  4  6  1  0
  5  7  1  0
  2  8  2  0
  4  9  1  0
  8 10  1  0
  7 11  1  0
  7 12  2  0
  9 12  1  0
  1 13  2  0
 12 14  1  0
  8 15  1  0
 11 16  1  0
 14 16  2  0
  5 17  1  0
 11 18  1  0
 18 19  1  0
  6 20  1  0
 10 20  1  0
  6 21  2  0
  1 22  1  0
 17 22  2  0
 13 23  1  0
 15 23  2  0
 16 24  1  0
 19 25  1  0
 24 25  1  0
M  END
>  <ID>  (1) 
conformer_0

$$$$
