
     RDKit          3D

 23 26  0  0  0  0  0  0  0  0999 V2000
    3.7596   -2.0180    1.6422 C   0  0  0  0  0  0  0  0  0  0  0  0
    4.8594   -1.4612    1.4641 C   0  0  0  0  0  0  0  0  0  0  0  0
    4.9691   -0.1834    0.9002 N   0  0  0  0  0  0  0  0  0  0  0  0
    6.1437   -2.0387    1.7890 C   0  0  0  0  0  0  0  0  0  0  0  0
    6.0712   -3.1950    2.6142 C   0  0  0  0  0  0  0  0  0  0  0  0
    7.4051   -1.5013    1.4481 C   0  0  0  0  0  0  0  0  0  0  0  0
    8.5478   -2.1424    1.5693 C   0  0  0  0  0  0  0  0  0  0  0  0
    3.6535   -3.1742    2.4823 C   0  0  0  0  0  0  0  0  0  0  0  0
    7.2750   -3.8562    3.1403 C   0  0  0  0  0  0  0  0  0  0  0  0
    7.3895   -4.9364    3.8760 O   0  0  0  0  0  0  0  0  0  0  0  0
    3.8247    0.4191    0.6372 C   0  0  0  0  0  0  0  0  0  0  0  0
    2.5439   -1.3454    1.3945 C   0  0  0  0  0  0  0  0  0  0  0  0
    3.8030    1.7396   -0.0852 O   0  0  0  0  0  0  0  0  0  0  0  0
    2.5719   -0.1711    0.7340 C   0  0  0  0  0  0  0  0  0  0  0  0
    2.5452    2.1928   -0.3172 C   0  0  0  0  0  0  0  0  0  0  0  0
    8.5186   -3.3158    2.4960 C   0  0  0  0  0  0  0  0  0  0  0  0
    1.4882    0.6338    0.1916 C   0  0  0  0  0  0  0  0  0  0  0  0
    9.8078   -3.9864    2.8824 O   0  0  0  0  0  0  0  0  0  0  0  0
    0.4231    0.4535   -0.0748 O   0  0  0  0  0  0  0  0  0  0  0  0
    2.0228    3.2923    0.5384 C   0  0  0  0  0  0  0  0  0  0  0  0
    4.7436   -3.6003    3.0687 C   0  0  0  0  0  0  0  0  0  0  0  0
    0.8698    3.7778   -0.1438 N   0  0  0  0  0  0  0  0  0  0  0  0
   10.9461   -3.7438    2.1589 C   0  0  0  0  0  0  0  0  0  0  0  0
  1  2  2  0
  2  3  1  0
  2  4  1  0
  4  5  2  0
  4  6  1  0
  6  7  2  0
  1  8  1  0
  5  9  1  0
  9 10  1  0
  3 11  2  0
  1 12  1  0
 11 13  1  0
 11 14  1  0
 12 14  2  0
 13 15  1  0
  7 16  1  0
  9 16  2  0
 14 17  1  0
 15 17  1  0
 16 18  1  0
 17 19  2  0
 15 20  1  0
  5 21  1  0
  8 21  2  0
 20 22  1  0
 18 23  1  0
M  END
>  <ID>  (1) 
conformer_0

$$$$
