
     RDKit          3D

 31 35  0  0  0  0  0  0  0  0999 V2000
    3.7947   -2.3347    1.9073 C   0  0  0  0  0  0  0  0  0  0  0  0
    2.9142   -1.5186    1.4456 C   0  0  0  0  0  0  0  0  0  0  0  0
    1.5530   -1.8248    1.2199 N   0  0  0  0  0  0  0  0  0  0  0  0
    5.1006   -2.0785    2.2198 C   0  0  0  0  0  0  0  0  0  0  0  0
    3.2255   -0.1310    1.2114 C   0  0  0  0  0  0  0  0  0  0  0  0
    2.2567    0.7486    0.7275 C   0  0  0  0  0  0  0  0  0  0  0  0
    1.0112    0.3551    0.3367 C   0  0  0  0  0  0  0  0  0  0  0  0
    6.0556   -3.0245    2.6269 C   0  0  0  0  0  0  0  0  0  0  0  0
    0.1254    1.3151   -0.2069 C   0  0  0  0  0  0  0  0  0  0  0  0
    4.6255   -0.0342    1.5018 C   0  0  0  0  0  0  0  0  0  0  0  0
    7.3264   -2.8657    2.3776 C   0  0  0  0  0  0  0  0  0  0  0  0
    5.0892    1.4519    1.2555 O   0  0  0  0  0  0  0  0  0  0  0  0
    5.4512    2.3088    2.2772 C   0  0  0  0  0  0  0  0  0  0  0  0
    7.6288   -1.6871    1.6036 C   0  0  0  0  0  0  0  0  0  0  0  0
    0.9145   -1.0840    0.4571 C   0  0  0  0  0  0  0  0  0  0  0  0
    0.5577    2.5969   -0.3574 C   0  0  0  0  0  0  0  0  0  0  0  0
    6.5537    2.0900    2.9785 C   0  0  0  0  0  0  0  0  0  0  0  0
   -0.4239    3.4700   -0.8001 N   0  0  0  0  0  0  0  0  0  0  0  0
    8.3959   -3.8564    2.7373 C   0  0  0  0  0  0  0  0  0  0  0  0
    7.4596    1.9192    2.3650 O   0  0  0  0  0  0  0  0  0  0  0  0
    9.0750   -1.5582    1.3248 O   0  0  0  0  0  0  0  0  0  0  0  0
    4.9291    3.7083    1.8713 C   0  0  0  0  0  0  0  0  0  0  0  0
    6.7580   -0.9040    1.3883 C   0  0  0  0  0  0  0  0  0  0  0  0
    5.5033   -0.8974    1.6546 C   0  0  0  0  0  0  0  0  0  0  0  0
    6.5942    2.5091    4.2989 N   0  0  0  0  0  0  0  0  0  0  0  0
    9.9092   -2.4301    1.6943 C   0  0  0  0  0  0  0  0  0  0  0  0
    8.1347   -4.9091    3.3403 O   0  0  0  0  0  0  0  0  0  0  0  0
    2.6162    2.1475    0.5458 C   0  0  0  0  0  0  0  0  0  0  0  0
    1.7318    3.0869    0.0960 N   0  0  0  0  0  0  0  0  0  0  0  0
    9.6485   -3.4386    2.4516 C   0  0  0  0  0  0  0  0  0  0  0  0
   11.2486   -2.0869    1.3136 C   0  0  0  0  0  0  0  0  0  0  0  0
  1  2  2  0
  2  3  1  0
  1  4  1  0
  2  5  1  0
  5  6  1  0
  6  7  2  0
  4  8  1  0
  7  9  1  0
  5 10  2  0
  8 11  2  0
 10 12  1  0
 12 13  1  0
 11 14  1  0
  3 15  2  0
  7 15  1  0
  9 16  2  0
 13 17  1  0
 16 18  1  0
 11 19  1  0
 17 20  2  0
 14 21  1  0
 13 22  1  0
 14 23  2  0
  4 24  2  0
 10 24  1  0
 23 24  1  0
 17 25  1  0
 21 26  1  0
 19 27  2  0
  6 28  1  0
 16 29  1  0
 28 29  2  0
 19 30  1  0
 26 30  2  0
 26 31  1  0
M  END
>  <ID>  (1) 
conformer_0

$$$$
