
     RDKit          3D

 33 39  0  0  0  0  0  0  0  0999 V2000
    3.7947   -2.3347    1.9073 C   0  0  0  0  0  0  0  0  0  0  0  0
    2.9142   -1.5186    1.4456 C   0  0  0  0  0  0  0  0  0  0  0  0
    1.5530   -1.8248    1.2199 N   0  0  0  0  0  0  0  0  0  0  0  0
    5.1006   -2.0785    2.2198 C   0  0  0  0  0  0  0  0  0  0  0  0
    3.2255   -0.1310    1.2114 C   0  0  0  0  0  0  0  0  0  0  0  0
    2.2567    0.7486    0.7275 C   0  0  0  0  0  0  0  0  0  0  0  0
    1.0112    0.3551    0.3367 C   0  0  0  0  0  0  0  0  0  0  0  0
    6.0556   -3.0245    2.6269 C   0  0  0  0  0  0  0  0  0  0  0  0
    0.1254    1.3151   -0.2069 C   0  0  0  0  0  0  0  0  0  0  0  0
    4.6255   -0.0342    1.5018 C   0  0  0  0  0  0  0  0  0  0  0  0
    7.3264   -2.8657    2.3776 C   0  0  0  0  0  0  0  0  0  0  0  0
    5.0892    1.4519    1.2555 O   0  0  0  0  0  0  0  0  0  0  0  0
    5.4512    2.3088    2.2772 C   0  0  0  0  0  0  0  0  0  0  0  0
    0.5895    2.4769   -0.3189 C   0  0  0  0  0  0  0  0  0  0  0  0
    2.6628    2.1087    0.6963 N   0  0  0  0  0  0  0  0  0  0  0  0
    7.7353   -1.6345    1.8073 C   0  0  0  0  0  0  0  0  0  0  0  0
    6.2933    1.9393    3.2309 C   0  0  0  0  0  0  0  0  0  0  0  0
   -0.3126    3.5596   -0.8178 N   0  0  0  0  0  0  0  0  0  0  0  0
    0.7559   -1.0242    0.5543 C   0  0  0  0  0  0  0  0  0  0  0  0
    8.4166   -3.7096    2.7804 C   0  0  0  0  0  0  0  0  0  0  0  0
    1.7637    2.9832    0.1902 C   0  0  0  0  0  0  0  0  0  0  0  0
    9.1553   -1.3553    1.5722 C   0  0  0  0  0  0  0  0  0  0  0  0
    4.8774    3.6149    2.1848 C   0  0  0  0  0  0  0  0  0  0  0  0
    5.5939   -0.8695    1.9067 C   0  0  0  0  0  0  0  0  0  0  0  0
    4.0647    4.0013    1.1284 O   0  0  0  0  0  0  0  0  0  0  0  0
    6.7849    0.5825    3.2846 C   0  0  0  0  0  0  0  0  0  0  0  0
    8.1229   -4.8824    3.3559 O   0  0  0  0  0  0  0  0  0  0  0  0
    5.1373    4.5329    3.2190 C   0  0  0  0  0  0  0  0  0  0  0  0
    5.8402    4.0788    4.1056 C   0  0  0  0  0  0  0  0  0  0  0  0
    9.7151   -3.5267    2.2897 C   0  0  0  0  0  0  0  0  0  0  0  0
   10.1677   -2.2139    2.2050 C   0  0  0  0  0  0  0  0  0  0  0  0
    6.4658    2.8781    4.2288 C   0  0  0  0  0  0  0  0  0  0  0  0
    6.7388   -0.3179    2.3328 C   0  0  0  0  0  0  0  0  0  0  0  0
  1  2  2  0
  2  3  1  0
  1  4  1  0
  2  5  1  0
  5  6  1  0
  6  7  2  0
  4  8  1  0
  7  9  1  0
  5 10  2  0
  8 11  2  0
 10 12  1  0
 12 13  1  0
  9 14  2  0
  6 15  1  0
 11 16  1  0
 13 17  1  0
 14 18  1  0
  3 19  2  0
  7 19  1  0
 11 20  1  0
 14 21  1  0
 15 21  2  0
 16 22  1  0
 13 23  2  0
  4 24  2  0
 10 24  1  0
 23 25  1  0
 17 26  1  0
 20 27  2  0
 23 28  1  0
 28 29  2  0
 20 30  1  0
 22 31  1  0
 30 31  1  0
 17 32  2  0
 29 32  1  0
 16 33  1  0
 24 33  1  0
 26 33  1  0
M  END
>  <ID>  (1) 
conformer_0

$$$$
