
     RDKit          3D

 19 21  0  0  0  0  0  0  0  0999 V2000
    3.7596   -2.0180    1.6422 C   0  0  0  0  0  0  0  0  0  0  0  0
    2.8315   -1.2680    1.2221 C   0  0  0  0  0  0  0  0  0  0  0  0
    3.0622    0.0834    0.8155 N   0  0  0  0  0  0  0  0  0  0  0  0
    5.0940   -1.5920    1.5602 C   0  0  0  0  0  0  0  0  0  0  0  0
    1.9911    0.9478    0.3904 C   0  0  0  0  0  0  0  0  0  0  0  0
    0.8552    0.4483   -0.1799 N   0  0  0  0  0  0  0  0  0  0  0  0
    6.1988   -2.4191    1.9374 N   0  0  0  0  0  0  0  0  0  0  0  0
    1.9782    2.2717    0.7180 C   0  0  0  0  0  0  0  0  0  0  0  0
    0.2135    1.5997   -0.4599 N   0  0  0  0  0  0  0  0  0  0  0  0
    7.4860   -1.9986    1.5869 C   0  0  0  0  0  0  0  0  0  0  0  0
    8.5859   -2.9586    1.8847 C   0  0  0  0  0  0  0  0  0  0  0  0
    7.7130   -0.7720    1.0852 C   0  0  0  0  0  0  0  0  0  0  0  0
    9.7258   -2.7811    1.1444 C   0  0  0  0  0  0  0  0  0  0  0  0
    5.2505   -0.3167    1.1815 C   0  0  0  0  0  0  0  0  0  0  0  0
    0.8072    2.6799    0.0373 C   0  0  0  0  0  0  0  0  0  0  0  0
    8.4216   -4.0263    2.5738 C   0  0  0  0  0  0  0  0  0  0  0  0
    4.3871    0.4105    0.9251 C   0  0  0  0  0  0  0  0  0  0  0  0
    6.6526    0.1324    1.0155 N   0  0  0  0  0  0  0  0  0  0  0  0
   10.7670   -3.7380    1.4645 O   0  0  0  0  0  0  0  0  0  0  0  0
  1  2  2  0
  2  3  1  0
  1  4  1  0
  3  5  1  0
  5  6  2  0
  4  7  1  0
  5  8  1  0
  6  9  1  0
  7 10  2  0
 10 11  1  0
 10 12  1  0
 11 13  2  3
  4 14  2  0
  8 15  2  0
  9 15  2  0
 11 16  1  0
  3 17  1  0
 14 17  1  0
 12 18  2  0
 14 18  1  0
 13 19  1  0
M  END
>  <ID>  (1) 
conformer_0

$$$$
