
     RDKit          3D

 34 39  0  0  0  0  0  0  0  0999 V2000
    3.7947   -2.3347    1.9073 C   0  0  0  0  0  0  0  0  0  0  0  0
    2.9142   -1.5186    1.4456 C   0  0  0  0  0  0  0  0  0  0  0  0
    1.5530   -1.8248    1.2199 N   0  0  0  0  0  0  0  0  0  0  0  0
    5.1006   -2.0785    2.2198 C   0  0  0  0  0  0  0  0  0  0  0  0
    3.2255   -0.1310    1.2114 C   0  0  0  0  0  0  0  0  0  0  0  0
    2.2567    0.7486    0.7275 C   0  0  0  0  0  0  0  0  0  0  0  0
    1.0112    0.3551    0.3367 C   0  0  0  0  0  0  0  0  0  0  0  0
    6.0556   -3.0245    2.6269 C   0  0  0  0  0  0  0  0  0  0  0  0
    0.1254    1.3151   -0.2069 C   0  0  0  0  0  0  0  0  0  0  0  0
    4.6255   -0.0342    1.5018 C   0  0  0  0  0  0  0  0  0  0  0  0
    7.3264   -2.8657    2.3776 C   0  0  0  0  0  0  0  0  0  0  0  0
    5.0892    1.4519    1.2555 O   0  0  0  0  0  0  0  0  0  0  0  0
    5.4512    2.3088    2.2772 C   0  0  0  0  0  0  0  0  0  0  0  0
    7.6288   -1.6871    1.6036 C   0  0  0  0  0  0  0  0  0  0  0  0
    0.9145   -1.0840    0.4571 C   0  0  0  0  0  0  0  0  0  0  0  0
    0.5577    2.5969   -0.3574 C   0  0  0  0  0  0  0  0  0  0  0  0
    6.5537    2.0900    2.9785 C   0  0  0  0  0  0  0  0  0  0  0  0
   -0.4239    3.4700   -0.8001 N   0  0  0  0  0  0  0  0  0  0  0  0
    8.3959   -3.8564    2.7373 C   0  0  0  0  0  0  0  0  0  0  0  0
    5.0985    3.6584    1.9628 O   0  0  0  0  0  0  0  0  0  0  0  0
    6.8252    2.7297    4.1490 O   0  0  0  0  0  0  0  0  0  0  0  0
    9.0637   -1.5432    1.3380 C   0  0  0  0  0  0  0  0  0  0  0  0
    1.8458    2.9880    0.1144 C   0  0  0  0  0  0  0  0  0  0  0  0
    7.5309    1.2661    2.5065 C   0  0  0  0  0  0  0  0  0  0  0  0
    9.9866   -2.5486    1.4853 C   0  0  0  0  0  0  0  0  0  0  0  0
    8.0405   -4.9717    3.4210 O   0  0  0  0  0  0  0  0  0  0  0  0
    6.6225   -0.8564    1.6181 C   0  0  0  0  0  0  0  0  0  0  0  0
    3.9834    4.3443    2.2423 C   0  0  0  0  0  0  0  0  0  0  0  0
    5.4353   -0.8926    1.7192 C   0  0  0  0  0  0  0  0  0  0  0  0
   11.3123   -2.3825    1.0682 O   0  0  0  0  0  0  0  0  0  0  0  0
    9.6918   -3.6964    2.2374 C   0  0  0  0  0  0  0  0  0  0  0  0
    7.4751    0.4764    1.3464 O   0  0  0  0  0  0  0  0  0  0  0  0
    2.6832    2.1668    0.5386 C   0  0  0  0  0  0  0  0  0  0  0  0
    5.9417    2.3311    5.0686 C   0  0  0  0  0  0  0  0  0  0  0  0
  1  2  2  0
  2  3  1  0
  1  4  1  0
  2  5  1  0
  5  6  1  0
  6  7  2  0
  4  8  1  0
  7  9  1  0
  5 10  2  0
  8 11  2  0
 10 12  1  0
 12 13  1  0
 11 14  1  0
  3 15  2  0
  7 15  1  0
  9 16  2  0
 13 17  1  0
 16 18  1  0
 11 19  1  0
 13 20  1  0
 17 21  1  0
 14 22  1  0
 16 23  1  0
 17 24  2  0
 22 25  2  0
 19 26  2  0
 14 27  2  0
 20 28  1  0
  4 29  2  0
 10 29  1  0
 27 29  1  0
 25 30  1  0
 19 31  1  0
 25 31  1  0
 24 32  1  0
 27 32  1  0
  6 33  1  0
 23 33  2  0
 21 34  1  0
M  END
>  <ID>  (1) 
conformer_0

$$$$
