
     RDKit          3D

 21 23  0  0  0  0  0  0  0  0999 V2000
    1.5770    0.5062    0.1644 C   0  0  0  0  0  0  0  0  0  0  0  0
    2.5244    1.3360    0.2207 N   0  0  0  0  0  0  0  0  0  0  0  0
    3.7603    1.1684    0.8725 C   0  0  0  0  0  0  0  0  0  0  0  0
    4.1145   -0.1928    1.0414 C   0  0  0  0  0  0  0  0  0  0  0  0
    5.3245   -0.6340    1.5980 C   0  0  0  0  0  0  0  0  0  0  0  0
    4.4797    2.0963    1.5229 N   0  0  0  0  0  0  0  0  0  0  0  0
    3.0808   -1.1872    0.7507 C   0  0  0  0  0  0  0  0  0  0  0  0
    2.1471    2.7889   -0.0689 C   0  0  0  0  0  0  0  0  0  0  0  0
    5.4877   -1.9261    1.8634 C   0  0  0  0  0  0  0  0  0  0  0  0
    1.8917   -0.8751    0.2469 N   0  0  0  0  0  0  0  0  0  0  0  0
    6.7488   -2.4281    2.3529 C   0  0  0  0  0  0  0  0  0  0  0  0
    3.3052   -2.4559    1.0327 C   0  0  0  0  0  0  0  0  0  0  0  0
    5.1100    2.1102    2.6306 C   0  0  0  0  0  0  0  0  0  0  0  0
    6.7959   -3.5803    3.0766 C   0  0  0  0  0  0  0  0  0  0  0  0
    5.8370   -4.2909    3.1230 C   0  0  0  0  0  0  0  0  0  0  0  0
    5.9007   -5.5798    3.9046 C   0  0  0  0  0  0  0  0  0  0  0  0
    4.5355   -3.9814    2.6974 C   0  0  0  0  0  0  0  0  0  0  0  0
    5.9228    3.3597    2.8082 O   0  0  0  0  0  0  0  0  0  0  0  0
    4.4236   -2.7735    1.9631 C   0  0  0  0  0  0  0  0  0  0  0  0
    6.4952    3.8572    4.0124 C   0  0  0  0  0  0  0  0  0  0  0  0
    0.4355    0.7636   -0.3820 O   0  0  0  0  0  0  0  0  0  0  0  0
  1  2  1  0
  2  3  1  0
  3  4  1  0
  4  5  2  0
  3  6  2  3
  4  7  1  0
  2  8  1  0
  5  9  1  0
  1 10  1  0
  7 10  1  0
  9 11  1  0
  7 12  2  0
  6 13  1  0
 11 14  2  0
 14 15  1  0
 15 16  1  0
 15 17  2  0
 13 18  1  0
  9 19  2  0
 12 19  1  0
 17 19  1  0
 18 20  1  0
  1 21  2  0
M  END
>  <ID>  (1) 
conformer_0

$$$$
