
     RDKit          3D

 22 25  0  0  0  0  0  0  0  0999 V2000
    0.3084    3.2854   -0.4483 C   0  0  0  0  0  0  0  0  0  0  0  0
   -0.4865    2.1620   -0.5117 C   0  0  0  0  0  0  0  0  0  0  0  0
    1.6043    3.1510   -0.0082 C   0  0  0  0  0  0  0  0  0  0  0  0
    2.4434    4.2020    0.2116 N   0  0  0  0  0  0  0  0  0  0  0  0
    3.7213    3.8547    0.7858 C   0  0  0  0  0  0  0  0  0  0  0  0
    2.0833    1.7257    0.2810 C   0  0  0  0  0  0  0  0  0  0  0  0
    4.4877    4.8198    1.2776 O   0  0  0  0  0  0  0  0  0  0  0  0
    3.4696    1.5327    0.7102 C   0  0  0  0  0  0  0  0  0  0  0  0
    3.9322    0.2439    1.0265 N   0  0  0  0  0  0  0  0  0  0  0  0
    4.9162    0.0094    1.6818 C   0  0  0  0  0  0  0  0  0  0  0  0
   -1.7298    2.3479   -0.8663 O   0  0  0  0  0  0  0  0  0  0  0  0
    5.4314   -1.3615    2.0363 C   0  0  0  0  0  0  0  0  0  0  0  0
    5.6214    0.9925    2.3846 C   0  0  0  0  0  0  0  0  0  0  0  0
    4.5511   -2.4444    2.1138 C   0  0  0  0  0  0  0  0  0  0  0  0
    4.1320    2.5782    1.2033 C   0  0  0  0  0  0  0  0  0  0  0  0
    6.7100   -1.6991    2.2602 C   0  0  0  0  0  0  0  0  0  0  0  0
    0.0272    0.7622   -0.2056 N   0  0  0  0  0  0  0  0  0  0  0  0
    5.2701   -3.6133    2.3911 N   0  0  0  0  0  0  0  0  0  0  0  0
    1.2256    0.6546    0.1487 C   0  0  0  0  0  0  0  0  0  0  0  0
    6.6009   -3.1406    2.4849 N   0  0  0  0  0  0  0  0  0  0  0  0
    5.1944    2.3972    2.1195 C   0  0  0  0  0  0  0  0  0  0  0  0
    7.7483   -1.1738    2.6828 O   0  0  0  0  0  0  0  0  0  0  0  0
  1  2  1  0
  1  3  2  0
  3  4  1  0
  4  5  1  0
  3  6  1  0
  5  7  2  0
  6  8  1  0
  8  9  2  0
  9 10  1  0
  2 11  2  0
 10 12  1  0
 10 13  2  0
 12 14  2  0
  5 15  1  0
  8 15  1  0
 12 16  1  0
  2 17  1  0
 14 18  1  0
  6 19  1  0
 17 19  2  0
 16 20  1  0
 18 20  2  0
 13 21  1  0
 15 21  2  0
 16 22  2  0
M  END
>  <ID>  (1) 
conformer_0

$$$$
