
     RDKit          3D

 18 21  0  0  0  0  0  0  0  0999 V2000
    3.1809   -2.7117    2.2945 C   0  0  0  0  0  0  0  0  0  0  0  0
    2.8592   -1.7250    1.5608 N   0  0  0  0  0  0  0  0  0  0  0  0
    2.4135   -3.5559    2.8106 N   0  0  0  0  0  0  0  0  0  0  0  0
    1.5814   -1.5975    1.0720 C   0  0  0  0  0  0  0  0  0  0  0  0
    1.3519   -0.3610    0.3547 C   0  0  0  0  0  0  0  0  0  0  0  0
    4.5700   -2.8181    2.6942 N   0  0  0  0  0  0  0  0  0  0  0  0
    0.4019    0.2935   -0.1510 N   0  0  0  0  0  0  0  0  0  0  0  0
    4.8746   -3.8801    3.4826 C   0  0  0  0  0  0  0  0  0  0  0  0
    3.7471   -0.7076    1.1848 C   0  0  0  0  0  0  0  0  0  0  0  0
    0.7925    1.6083   -0.4769 C   0  0  0  0  0  0  0  0  0  0  0  0
    3.8545   -4.8056    3.7538 C   0  0  0  0  0  0  0  0  0  0  0  0
    5.5585   -1.9496    2.2923 C   0  0  0  0  0  0  0  0  0  0  0  0
    4.8284   -0.5630    1.9018 C   0  0  0  0  0  0  0  0  0  0  0  0
    1.9847    2.0840   -0.1468 N   0  0  0  0  0  0  0  0  0  0  0  0
   -0.2846    2.3943   -1.0804 N   0  0  0  0  0  0  0  0  0  0  0  0
    2.6276   -4.5865    3.4709 C   0  0  0  0  0  0  0  0  0  0  0  0
    2.8124    0.4622    0.6588 C   0  0  0  0  0  0  0  0  0  0  0  0
    2.9283    1.5758    0.2925 C   0  0  0  0  0  0  0  0  0  0  0  0
  1  2  1  0
  1  3  2  0
  2  4  1  0
  4  5  1  0
  1  6  1  0
  5  7  2  0
  6  8  1  0
  2  9  1  0
  7 10  1  0
  8 11  2  0
  6 12  1  0
  9 13  1  0
 12 13  1  0
 10 14  2  0
 10 15  1  0
  3 16  1  0
 11 16  1  0
  5 17  1  0
  9 17  1  0
 14 18  1  0
 17 18  2  0
M  END
>  <ID>  (1) 
conformer_0

$$$$
