
     RDKit          3D

 31 35  0  0  0  0  0  0  0  0999 V2000
    3.7947   -2.3347    1.9073 C   0  0  0  0  0  0  0  0  0  0  0  0
    2.9142   -1.5186    1.4456 C   0  0  0  0  0  0  0  0  0  0  0  0
    1.5530   -1.8248    1.2199 N   0  0  0  0  0  0  0  0  0  0  0  0
    5.1006   -2.0785    2.2198 C   0  0  0  0  0  0  0  0  0  0  0  0
    3.2255   -0.1310    1.2114 C   0  0  0  0  0  0  0  0  0  0  0  0
    2.2567    0.7486    0.7275 C   0  0  0  0  0  0  0  0  0  0  0  0
    1.0112    0.3551    0.3367 C   0  0  0  0  0  0  0  0  0  0  0  0
    6.0556   -3.0245    2.6269 C   0  0  0  0  0  0  0  0  0  0  0  0
    0.1254    1.3151   -0.2069 C   0  0  0  0  0  0  0  0  0  0  0  0
    4.6255   -0.0342    1.5018 C   0  0  0  0  0  0  0  0  0  0  0  0
    7.3264   -2.8657    2.3776 C   0  0  0  0  0  0  0  0  0  0  0  0
    5.0892    1.4519    1.2555 O   0  0  0  0  0  0  0  0  0  0  0  0
    5.4512    2.3088    2.2772 C   0  0  0  0  0  0  0  0  0  0  0  0
    0.5895    2.4769   -0.3189 C   0  0  0  0  0  0  0  0  0  0  0  0
    2.6628    2.1087    0.6963 N   0  0  0  0  0  0  0  0  0  0  0  0
    7.7353   -1.6345    1.8073 C   0  0  0  0  0  0  0  0  0  0  0  0
    6.2933    1.9393    3.2309 C   0  0  0  0  0  0  0  0  0  0  0  0
   -0.3126    3.5596   -0.8178 N   0  0  0  0  0  0  0  0  0  0  0  0
    0.8489   -1.0046    0.6391 C   0  0  0  0  0  0  0  0  0  0  0  0
    8.3439   -3.8196    2.7689 C   0  0  0  0  0  0  0  0  0  0  0  0
    5.5874   -0.8911    1.9082 C   0  0  0  0  0  0  0  0  0  0  0  0
    9.1939   -1.3747    1.6835 C   0  0  0  0  0  0  0  0  0  0  0  0
    9.5574   -0.2114    1.0484 O   0  0  0  0  0  0  0  0  0  0  0  0
    4.2716    3.0845    2.7279 C   0  0  0  0  0  0  0  0  0  0  0  0
   10.0815   -2.3862    1.8373 N   0  0  0  0  0  0  0  0  0  0  0  0
    1.8184    2.9270    0.1178 C   0  0  0  0  0  0  0  0  0  0  0  0
    9.6869   -3.5556    2.4402 C   0  0  0  0  0  0  0  0  0  0  0  0
    6.9311   -0.5312    1.7220 C   0  0  0  0  0  0  0  0  0  0  0  0
   10.7432   -4.5282    2.7214 C   0  0  0  0  0  0  0  0  0  0  0  0
    6.5072    2.8397    4.2076 O   0  0  0  0  0  0  0  0  0  0  0  0
    4.3282    4.5874    2.4092 O   0  0  0  0  0  0  0  0  0  0  0  0
  1  2  2  0
  2  3  1  0
  1  4  1  0
  2  5  1  0
  5  6  1  0
  6  7  2  0
  4  8  1  0
  7  9  1  0
  5 10  2  0
  8 11  2  0
 10 12  1  0
 12 13  1  0
  9 14  2  0
  6 15  1  0
 11 16  1  0
 13 17  1  0
 14 18  1  0
  3 19  2  0
  7 19  1  0
 11 20  1  0
  4 21  2  0
 10 21  1  0
 16 22  1  0
 22 23  2  0
 13 24  1  0
 22 25  1  0
 14 26  1  0
 15 26  2  0
 20 27  2  0
 25 27  1  0
 16 28  2  0
 21 28  1  0
 27 29  1  0
 17 30  1  0
 24 31  1  0
M  END
>  <ID>  (1) 
conformer_0

$$$$
