
     RDKit          3D

 34 39  0  0  0  0  0  0  0  0999 V2000
    3.7947   -2.3347    1.9073 C   0  0  0  0  0  0  0  0  0  0  0  0
    2.9142   -1.5186    1.4456 C   0  0  0  0  0  0  0  0  0  0  0  0
    1.5530   -1.8248    1.2199 N   0  0  0  0  0  0  0  0  0  0  0  0
    5.1006   -2.0785    2.2198 C   0  0  0  0  0  0  0  0  0  0  0  0
    3.2255   -0.1310    1.2114 C   0  0  0  0  0  0  0  0  0  0  0  0
    2.2567    0.7486    0.7275 C   0  0  0  0  0  0  0  0  0  0  0  0
    1.0112    0.3551    0.3367 C   0  0  0  0  0  0  0  0  0  0  0  0
    6.0556   -3.0245    2.6269 C   0  0  0  0  0  0  0  0  0  0  0  0
    0.1254    1.3151   -0.2069 C   0  0  0  0  0  0  0  0  0  0  0  0
    4.6255   -0.0342    1.5018 C   0  0  0  0  0  0  0  0  0  0  0  0
    7.3264   -2.8657    2.3776 C   0  0  0  0  0  0  0  0  0  0  0  0
    5.0892    1.4519    1.2555 O   0  0  0  0  0  0  0  0  0  0  0  0
    5.4512    2.3088    2.2772 C   0  0  0  0  0  0  0  0  0  0  0  0
    7.6288   -1.6871    1.6036 C   0  0  0  0  0  0  0  0  0  0  0  0
    0.9145   -1.0840    0.4571 C   0  0  0  0  0  0  0  0  0  0  0  0
    0.5577    2.5969   -0.3574 C   0  0  0  0  0  0  0  0  0  0  0  0
    6.5537    2.0900    2.9785 C   0  0  0  0  0  0  0  0  0  0  0  0
   -0.4239    3.4700   -0.8001 N   0  0  0  0  0  0  0  0  0  0  0  0
    8.3959   -3.8564    2.7373 C   0  0  0  0  0  0  0  0  0  0  0  0
    5.0985    3.6584    1.9628 O   0  0  0  0  0  0  0  0  0  0  0  0
    1.8373    3.0249    0.0876 C   0  0  0  0  0  0  0  0  0  0  0  0
    5.5277   -0.7164    1.8251 C   0  0  0  0  0  0  0  0  0  0  0  0
    6.9194   -0.5839    1.5178 C   0  0  0  0  0  0  0  0  0  0  0  0
    9.6062   -3.6650    2.1933 C   0  0  0  0  0  0  0  0  0  0  0  0
    4.9682    4.5853    2.9527 C   0  0  0  0  0  0  0  0  0  0  0  0
    9.1113   -1.4742    1.4325 C   0  0  0  0  0  0  0  0  0  0  0  0
    9.9641   -2.5859    1.6659 C   0  0  0  0  0  0  0  0  0  0  0  0
    2.6705    2.1306    0.5381 C   0  0  0  0  0  0  0  0  0  0  0  0
   10.5321   -4.7077    2.5437 O   0  0  0  0  0  0  0  0  0  0  0  0
    6.8147    2.9318    4.1189 C   0  0  0  0  0  0  0  0  0  0  0  0
    7.8244    2.8721    4.7265 O   0  0  0  0  0  0  0  0  0  0  0  0
   11.2364   -2.3382    1.3373 O   0  0  0  0  0  0  0  0  0  0  0  0
    5.6956    4.2182    3.9935 C   0  0  0  0  0  0  0  0  0  0  0  0
    3.9544    5.1585    3.0054 O   0  0  0  0  0  0  0  0  0  0  0  0
  1  2  2  0
  2  3  1  0
  1  4  1  0
  2  5  1  0
  5  6  1  0
  6  7  2  0
  4  8  1  0
  7  9  1  0
  5 10  2  0
  8 11  2  0
 10 12  1  0
 12 13  1  0
 11 14  1  0
  3 15  2  0
  7 15  1  0
  9 16  2  0
 13 17  1  0
 16 18  1  0
 11 19  1  0
 13 20  1  0
 16 21  1  0
  4 22  2  0
 10 22  1  0
 14 23  1  0
 22 23  1  0
 19 24  2  0
 20 25  1  0
 14 26  2  0
 24 27  1  0
 26 27  1  0
  6 28  1  0
 21 28  2  0
 24 29  1  0
 17 30  1  0
 30 31  1  0
 27 32  2  0
 25 33  1  0
 30 33  2  0
 25 34  2  0
M  END
>  <ID>  (1) 
conformer_0

$$$$
