
     RDKit          3D

 33 38  0  0  0  0  0  0  0  0999 V2000
    3.7947   -2.3347    1.9073 C   0  0  0  0  0  0  0  0  0  0  0  0
    4.8868   -1.7657    1.7689 N   0  0  0  0  0  0  0  0  0  0  0  0
    6.1349   -2.4039    2.1278 C   0  0  0  0  0  0  0  0  0  0  0  0
    4.9276   -0.7190    0.9031 C   0  0  0  0  0  0  0  0  0  0  0  0
    6.1003   -3.4706    3.0016 C   0  0  0  0  0  0  0  0  0  0  0  0
    2.6922   -1.5803    1.4580 C   0  0  0  0  0  0  0  0  0  0  0  0
    5.9358    0.1448    0.6992 O   0  0  0  0  0  0  0  0  0  0  0  0
    7.4598   -1.9145    1.7479 C   0  0  0  0  0  0  0  0  0  0  0  0
    6.3892    0.8681    1.8829 C   0  0  0  0  0  0  0  0  0  0  0  0
    7.5454    1.4636    1.8231 C   0  0  0  0  0  0  0  0  0  0  0  0
    8.5417    1.2414    0.8195 O   0  0  0  0  0  0  0  0  0  0  0  0
    1.4267   -1.8460    1.3186 C   0  0  0  0  0  0  0  0  0  0  0  0
    3.4742   -0.4367    0.7383 C   0  0  0  0  0  0  0  0  0  0  0  0
    2.8947    0.7617    0.2752 C   0  0  0  0  0  0  0  0  0  0  0  0
    8.4950   -2.5893    1.9145 C   0  0  0  0  0  0  0  0  0  0  0  0
    4.8522   -3.9020    3.5137 C   0  0  0  0  0  0  0  0  0  0  0  0
    3.1700    2.0016    0.6240 C   0  0  0  0  0  0  0  0  0  0  0  0
    4.6748   -4.9143    4.3548 O   0  0  0  0  0  0  0  0  0  0  0  0
    2.3231    3.0038    0.3385 C   0  0  0  0  0  0  0  0  0  0  0  0
    7.3379   -4.0567    3.3475 C   0  0  0  0  0  0  0  0  0  0  0  0
    8.4991   -3.6825    2.8483 C   0  0  0  0  0  0  0  0  0  0  0  0
    7.9967    2.4890    2.8042 C   0  0  0  0  0  0  0  0  0  0  0  0
    5.5550    1.0763    3.1162 C   0  0  0  0  0  0  0  0  0  0  0  0
    7.1614    2.7429    3.8445 C   0  0  0  0  0  0  0  0  0  0  0  0
    3.5543   -3.5783    2.8110 C   0  0  0  0  0  0  0  0  0  0  0  0
    1.1618    2.2986   -0.3281 C   0  0  0  0  0  0  0  0  0  0  0  0
    1.4959    0.8884   -0.2536 C   0  0  0  0  0  0  0  0  0  0  0  0
   -0.1234    2.8495   -0.8618 C   0  0  0  0  0  0  0  0  0  0  0  0
    9.8805   -2.3222    1.4562 O   0  0  0  0  0  0  0  0  0  0  0  0
    9.7639   -4.2697    3.1299 O   0  0  0  0  0  0  0  0  0  0  0  0
    7.4974    3.7318    4.7546 F   0  0  0  0  0  0  0  0  0  0  0  0
    5.9307    2.1439    4.0057 C   0  0  0  0  0  0  0  0  0  0  0  0
   10.6936   -3.2517    2.1382 C   0  0  0  0  0  0  0  0  0  0  0  0
  1  2  1  0
  2  3  1  0
  2  4  1  0
  3  5  2  0
  1  6  2  0
  4  7  1  0
  3  8  1  0
  7  9  1  0
  9 10  2  0
 10 11  1  0
  6 12  1  0
  4 13  2  0
  6 13  1  0
 13 14  1  0
  8 15  2  0
  5 16  1  0
 14 17  1  0
 16 18  2  0
 17 19  2  0
  5 20  1  0
 15 21  1  0
 20 21  2  0
 10 22  1  0
  9 23  1  0
 22 24  2  0
  1 25  1  0
 16 25  1  0
 19 26  1  0
 14 27  2  0
 26 27  2  0
 26 28  1  0
 15 29  1  0
 21 30  1  0
 24 31  1  0
 23 32  2  0
 24 32  1  0
 29 33  1  0
 30 33  1  0
M  END
>  <ID>  (1) 
conformer_0

$$$$
