
     RDKit          3D

 30 34  0  0  0  0  0  0  0  0999 V2000
    3.7947   -2.3347    1.9073 C   0  0  0  0  0  0  0  0  0  0  0  0
    2.9142   -1.5186    1.4456 C   0  0  0  0  0  0  0  0  0  0  0  0
    1.5530   -1.8248    1.2199 N   0  0  0  0  0  0  0  0  0  0  0  0
    5.1006   -2.0785    2.2198 C   0  0  0  0  0  0  0  0  0  0  0  0
    3.2255   -0.1310    1.2114 C   0  0  0  0  0  0  0  0  0  0  0  0
    2.2567    0.7486    0.7275 C   0  0  0  0  0  0  0  0  0  0  0  0
    1.0112    0.3551    0.3367 C   0  0  0  0  0  0  0  0  0  0  0  0
    6.0556   -3.0245    2.6269 C   0  0  0  0  0  0  0  0  0  0  0  0
    0.1254    1.3151   -0.2069 C   0  0  0  0  0  0  0  0  0  0  0  0
    4.6255   -0.0342    1.5018 C   0  0  0  0  0  0  0  0  0  0  0  0
    7.3264   -2.8657    2.3776 C   0  0  0  0  0  0  0  0  0  0  0  0
    5.0892    1.4519    1.2555 O   0  0  0  0  0  0  0  0  0  0  0  0
    5.4512    2.3088    2.2772 C   0  0  0  0  0  0  0  0  0  0  0  0
    7.6288   -1.6871    1.6036 C   0  0  0  0  0  0  0  0  0  0  0  0
    0.9145   -1.0840    0.4571 C   0  0  0  0  0  0  0  0  0  0  0  0
    0.5577    2.5969   -0.3574 C   0  0  0  0  0  0  0  0  0  0  0  0
    6.5537    2.0900    2.9785 C   0  0  0  0  0  0  0  0  0  0  0  0
   -0.4239    3.4700   -0.8001 N   0  0  0  0  0  0  0  0  0  0  0  0
    8.3959   -3.8564    2.7373 C   0  0  0  0  0  0  0  0  0  0  0  0
    2.6087    2.2083    0.6462 C   0  0  0  0  0  0  0  0  0  0  0  0
    9.1027   -1.5516    1.3234 C   0  0  0  0  0  0  0  0  0  0  0  0
    5.5200   -0.8487    1.8398 C   0  0  0  0  0  0  0  0  0  0  0  0
    1.6792    3.0612    0.1748 C   0  0  0  0  0  0  0  0  0  0  0  0
    6.9170   -0.5941    1.5712 C   0  0  0  0  0  0  0  0  0  0  0  0
    9.6127   -0.3941    0.8756 O   0  0  0  0  0  0  0  0  0  0  0  0
    6.9232    2.9943    3.9823 O   0  0  0  0  0  0  0  0  0  0  0  0
    7.9784   -4.9567    3.3455 O   0  0  0  0  0  0  0  0  0  0  0  0
    7.5163    1.3524    2.5645 O   0  0  0  0  0  0  0  0  0  0  0  0
   10.0046   -2.6170    1.6088 C   0  0  0  0  0  0  0  0  0  0  0  0
    9.6051   -3.7097    2.2351 C   0  0  0  0  0  0  0  0  0  0  0  0
  1  2  2  0
  2  3  1  0
  1  4  1  0
  2  5  1  0
  5  6  1  0
  6  7  2  0
  4  8  1  0
  7  9  1  0
  5 10  2  0
  8 11  2  0
 10 12  1  0
 12 13  1  0
 11 14  1  0
  3 15  2  0
  7 15  1  0
  9 16  2  0
 13 17  1  0
 16 18  1  0
 11 19  1  0
  6 20  1  0
 14 21  1  0
  4 22  2  0
 10 22  1  0
 16 23  1  0
 20 23  2  0
 14 24  2  0
 22 24  1  0
 21 25  1  0
 17 26  2  0
 19 27  1  0
 17 28  1  0
 21 29  2  0
 19 30  2  0
 29 30  1  0
M  END
>  <ID>  (1) 
conformer_0

$$$$
