
     RDKit          3D

 33 38  0  0  0  0  0  0  0  0999 V2000
    3.7947   -2.3347    1.9073 C   0  0  0  0  0  0  0  0  0  0  0  0
    2.9142   -1.5186    1.4456 C   0  0  0  0  0  0  0  0  0  0  0  0
    1.5530   -1.8248    1.2199 N   0  0  0  0  0  0  0  0  0  0  0  0
    5.1006   -2.0785    2.2198 C   0  0  0  0  0  0  0  0  0  0  0  0
    3.2255   -0.1310    1.2114 C   0  0  0  0  0  0  0  0  0  0  0  0
    2.2567    0.7486    0.7275 C   0  0  0  0  0  0  0  0  0  0  0  0
    1.0112    0.3551    0.3367 C   0  0  0  0  0  0  0  0  0  0  0  0
    6.0556   -3.0245    2.6269 C   0  0  0  0  0  0  0  0  0  0  0  0
    0.1254    1.3151   -0.2069 C   0  0  0  0  0  0  0  0  0  0  0  0
    4.6255   -0.0342    1.5018 C   0  0  0  0  0  0  0  0  0  0  0  0
    7.3264   -2.8657    2.3776 C   0  0  0  0  0  0  0  0  0  0  0  0
    5.0892    1.4519    1.2555 O   0  0  0  0  0  0  0  0  0  0  0  0
    5.4512    2.3088    2.2772 C   0  0  0  0  0  0  0  0  0  0  0  0
    7.6288   -1.6871    1.6036 C   0  0  0  0  0  0  0  0  0  0  0  0
    0.9145   -1.0840    0.4571 C   0  0  0  0  0  0  0  0  0  0  0  0
    0.5577    2.5969   -0.3574 C   0  0  0  0  0  0  0  0  0  0  0  0
    6.5537    2.0900    2.9785 C   0  0  0  0  0  0  0  0  0  0  0  0
   -0.4239    3.4700   -0.8001 N   0  0  0  0  0  0  0  0  0  0  0  0
    8.4388   -3.6237    2.8627 C   0  0  0  0  0  0  0  0  0  0  0  0
    8.3656   -4.4447    3.7590 O   0  0  0  0  0  0  0  0  0  0  0  0
    2.5972    2.2107    0.6372 C   0  0  0  0  0  0  0  0  0  0  0  0
    7.4802    1.6229    2.6822 O   0  0  0  0  0  0  0  0  0  0  0  0
    4.4250    3.1867    2.6036 C   0  0  0  0  0  0  0  0  0  0  0  0
    9.0891   -1.5818    1.2899 O   0  0  0  0  0  0  0  0  0  0  0  0
    1.7243    3.1184    0.1054 C   0  0  0  0  0  0  0  0  0  0  0  0
    9.7221   -2.5703    1.6020 C   0  0  0  0  0  0  0  0  0  0  0  0
    9.6849   -3.4646    2.3806 N   0  0  0  0  0  0  0  0  0  0  0  0
    4.6181    4.0415    3.6387 C   0  0  0  0  0  0  0  0  0  0  0  0
    5.7951    3.9590    4.3515 C   0  0  0  0  0  0  0  0  0  0  0  0
   11.1407   -2.3023    1.2723 O   0  0  0  0  0  0  0  0  0  0  0  0
    5.4824   -0.8418    1.8303 C   0  0  0  0  0  0  0  0  0  0  0  0
    6.8958   -0.5792    1.5475 C   0  0  0  0  0  0  0  0  0  0  0  0
    6.7618    3.1030    3.9661 N   0  0  0  0  0  0  0  0  0  0  0  0
  1  2  2  0
  2  3  1  0
  1  4  1  0
  2  5  1  0
  5  6  1  0
  6  7  2  0
  4  8  1  0
  7  9  1  0
  5 10  2  0
  8 11  2  0
 10 12  1  0
 12 13  1  0
 11 14  1  0
  3 15  2  0
  7 15  1  0
  9 16  2  0
 13 17  1  0
 16 18  1  0
 11 19  1  0
 19 20  2  0
  6 21  1  0
 17 22  2  0
 13 23  2  0
 14 24  1  0
 16 25  1  0
 21 25  2  0
 24 26  1  0
 19 27  1  0
 26 27  1  0
 23 28  1  0
 28 29  2  0
 26 30  2  0
  4 31  2  0
 10 31  1  0
 14 32  2  0
 31 32  1  0
 17 33  1  0
 29 33  1  0
M  END
>  <ID>  (1) 
conformer_0

$$$$
