
     RDKit          3D

 12 12  0  0  0  0  0  0  0  0999 V2000
    0.6315    0.6324   -0.3296 N   0  0  0  0  0  0  0  0  0  0  0  0
    1.7877    0.5147    0.1328 C   0  0  0  0  0  0  0  0  0  0  0  0
    2.3467   -0.8561    0.3108 C   0  0  0  0  0  0  0  0  0  0  0  0
    3.1629   -0.9917    1.3373 N   0  0  0  0  0  0  0  0  0  0  0  0
    0.0891    1.9223   -0.5322 C   0  0  0  0  0  0  0  0  0  0  0  0
    0.9510    2.9592   -0.1697 C   0  0  0  0  0  0  0  0  0  0  0  0
    2.5025    1.8279    0.4363 C   0  0  0  0  0  0  0  0  0  0  0  0
    2.9799   -2.0369    2.2019 C   0  0  0  0  0  0  0  0  0  0  0  0
    4.0410   -2.4085    3.0433 C   0  0  0  0  0  0  0  0  0  0  0  0
    2.0541    2.9209    0.2988 N   0  0  0  0  0  0  0  0  0  0  0  0
    4.8830   -3.3522    2.4910 N   0  0  0  0  0  0  0  0  0  0  0  0
    1.9787   -2.7527    2.0691 O   0  0  0  0  0  0  0  0  0  0  0  0
  1  2  2  0
  2  3  1  0
  3  4  1  0
  1  5  1  0
  5  6  2  0
  2  7  1  0
  4  8  1  0
  8  9  1  0
  6 10  1  0
  7 10  2  0
  9 11  1  0
  8 12  2  0
M  END
>  <ID>  (1) 
conformer_0

$$$$
