
     RDKit          3D

 31 35  0  0  0  0  0  0  0  0999 V2000
    3.7947   -2.3347    1.9073 C   0  0  0  0  0  0  0  0  0  0  0  0
    2.9142   -1.5186    1.4456 C   0  0  0  0  0  0  0  0  0  0  0  0
    1.5530   -1.8248    1.2199 N   0  0  0  0  0  0  0  0  0  0  0  0
    5.1006   -2.0785    2.2198 C   0  0  0  0  0  0  0  0  0  0  0  0
    3.2255   -0.1310    1.2114 C   0  0  0  0  0  0  0  0  0  0  0  0
    2.2567    0.7486    0.7275 C   0  0  0  0  0  0  0  0  0  0  0  0
    1.0112    0.3551    0.3367 C   0  0  0  0  0  0  0  0  0  0  0  0
    6.0556   -3.0245    2.6269 C   0  0  0  0  0  0  0  0  0  0  0  0
    0.1254    1.3151   -0.2069 C   0  0  0  0  0  0  0  0  0  0  0  0
    4.6255   -0.0342    1.5018 C   0  0  0  0  0  0  0  0  0  0  0  0
    7.3264   -2.8657    2.3776 C   0  0  0  0  0  0  0  0  0  0  0  0
    5.0892    1.4519    1.2555 O   0  0  0  0  0  0  0  0  0  0  0  0
    5.4512    2.3088    2.2772 C   0  0  0  0  0  0  0  0  0  0  0  0
    0.5895    2.4769   -0.3189 C   0  0  0  0  0  0  0  0  0  0  0  0
    2.6628    2.1087    0.6963 N   0  0  0  0  0  0  0  0  0  0  0  0
    7.7353   -1.6345    1.8073 C   0  0  0  0  0  0  0  0  0  0  0  0
    6.2933    1.9393    3.2309 C   0  0  0  0  0  0  0  0  0  0  0  0
   -0.3126    3.5596   -0.8178 N   0  0  0  0  0  0  0  0  0  0  0  0
    0.8489   -1.0046    0.6391 C   0  0  0  0  0  0  0  0  0  0  0  0
    8.3439   -3.8196    2.7689 C   0  0  0  0  0  0  0  0  0  0  0  0
    5.5874   -0.8911    1.9082 C   0  0  0  0  0  0  0  0  0  0  0  0
    9.1939   -1.3747    1.6835 C   0  0  0  0  0  0  0  0  0  0  0  0
    9.5574   -0.2114    1.0484 O   0  0  0  0  0  0  0  0  0  0  0  0
    4.2716    3.0845    2.7279 C   0  0  0  0  0  0  0  0  0  0  0  0
    6.8686   -0.6299    1.7060 C   0  0  0  0  0  0  0  0  0  0  0  0
    3.7978    3.8372    1.6622 N   0  0  0  0  0  0  0  0  0  0  0  0
   10.0568   -2.4161    1.9097 N   0  0  0  0  0  0  0  0  0  0  0  0
    9.6647   -3.5966    2.4219 C   0  0  0  0  0  0  0  0  0  0  0  0
    4.0806    3.3543    3.9236 O   0  0  0  0  0  0  0  0  0  0  0  0
    1.8415    3.0424    0.1507 C   0  0  0  0  0  0  0  0  0  0  0  0
   11.4810   -2.1629    1.6784 C   0  0  0  0  0  0  0  0  0  0  0  0
  1  2  2  0
  2  3  1  0
  1  4  1  0
  2  5  1  0
  5  6  1  0
  6  7  2  0
  4  8  1  0
  7  9  1  0
  5 10  2  0
  8 11  2  0
 10 12  1  0
 12 13  1  0
  9 14  2  0
  6 15  1  0
 11 16  1  0
 13 17  1  0
 14 18  1  0
  3 19  2  0
  7 19  1  0
 11 20  1  0
  4 21  2  0
 10 21  1  0
 16 22  1  0
 22 23  2  0
 13 24  1  0
 16 25  2  0
 21 25  1  0
 24 26  1  0
 22 27  1  0
 20 28  2  0
 27 28  1  0
 24 29  2  0
 14 30  1  0
 15 30  2  0
 27 31  1  0
M  END
>  <ID>  (1) 
conformer_0

$$$$
