
     RDKit          3D

 16 18  0  0  0  0  0  0  0  0999 V2000
    1.9948    3.1176   -0.3393 N   0  0  0  0  0  0  0  0  0  0  0  0
    2.8304    2.3971    0.2493 C   0  0  0  0  0  0  0  0  0  0  0  0
    3.9101    2.9655    0.9041 N   0  0  0  0  0  0  0  0  0  0  0  0
    2.5616    1.0915    0.4592 C   0  0  0  0  0  0  0  0  0  0  0  0
    4.5031    1.9462    1.6001 C   0  0  0  0  0  0  0  0  0  0  0  0
    5.6381    2.0590    2.3350 N   0  0  0  0  0  0  0  0  0  0  0  0
    6.1690    1.0478    2.9095 C   0  0  0  0  0  0  0  0  0  0  0  0
    0.8666    2.3085   -0.5783 C   0  0  0  0  0  0  0  0  0  0  0  0
   -0.2968    2.5995   -1.2587 N   0  0  0  0  0  0  0  0  0  0  0  0
    1.1608    0.9042   -0.1694 C   0  0  0  0  0  0  0  0  0  0  0  0
    4.0985    0.6360    1.6996 C   0  0  0  0  0  0  0  0  0  0  0  0
    3.1157    0.1242    1.1997 N   0  0  0  0  0  0  0  0  0  0  0  0
    6.1917    3.5514    2.3955 O   0  0  0  0  0  0  0  0  0  0  0  0
    5.2505   -0.1063    2.5443 C   0  0  0  0  0  0  0  0  0  0  0  0
    2.7541   -1.2499    1.1696 C   0  0  0  0  0  0  0  0  0  0  0  0
    6.2981    3.9525    3.7554 C   0  0  0  0  0  0  0  0  0  0  0  0
  1  2  1  0
  2  3  1  0
  2  4  2  0
  3  5  1  0
  5  6  1  0
  6  7  1  0
  1  8  2  0
  8  9  1  0
  4 10  1  0
  8 10  1  0
  5 11  2  0
  4 12  1  0
 11 12  1  0
  6 13  1  0
  7 14  1  0
 11 14  1  0
 12 15  1  0
 13 16  1  0
M  END
>  <ID>  (1) 
conformer_0

$$$$
