
     RDKit          3D

 34 39  0  0  0  0  0  0  0  0999 V2000
    3.7947   -2.3347    1.9073 C   0  0  0  0  0  0  0  0  0  0  0  0
    4.8868   -1.7657    1.7689 N   0  0  0  0  0  0  0  0  0  0  0  0
    6.1349   -2.4039    2.1278 C   0  0  0  0  0  0  0  0  0  0  0  0
    4.9276   -0.7190    0.9031 C   0  0  0  0  0  0  0  0  0  0  0  0
    6.1003   -3.4706    3.0016 C   0  0  0  0  0  0  0  0  0  0  0  0
    2.6922   -1.5803    1.4580 C   0  0  0  0  0  0  0  0  0  0  0  0
    5.9358    0.1448    0.6992 O   0  0  0  0  0  0  0  0  0  0  0  0
    7.4598   -1.9145    1.7479 C   0  0  0  0  0  0  0  0  0  0  0  0
    6.3892    0.8681    1.8829 C   0  0  0  0  0  0  0  0  0  0  0  0
    7.5454    1.4636    1.8231 C   0  0  0  0  0  0  0  0  0  0  0  0
    8.5417    1.2414    0.8195 O   0  0  0  0  0  0  0  0  0  0  0  0
    1.4267   -1.8460    1.3186 C   0  0  0  0  0  0  0  0  0  0  0  0
    3.4742   -0.4367    0.7383 C   0  0  0  0  0  0  0  0  0  0  0  0
    2.8947    0.7617    0.2752 C   0  0  0  0  0  0  0  0  0  0  0  0
    8.4950   -2.5893    1.9145 C   0  0  0  0  0  0  0  0  0  0  0  0
    4.8522   -3.9020    3.5137 C   0  0  0  0  0  0  0  0  0  0  0  0
    3.1700    2.0016    0.6240 C   0  0  0  0  0  0  0  0  0  0  0  0
    1.4420    0.6759   -0.0845 C   0  0  0  0  0  0  0  0  0  0  0  0
    3.6768   -3.4102    2.9016 C   0  0  0  0  0  0  0  0  0  0  0  0
    7.4254   -4.0246    3.3944 C   0  0  0  0  0  0  0  0  0  0  0  0
    4.3819    2.4661    1.1175 N   0  0  0  0  0  0  0  0  0  0  0  0
    0.7490    1.7155   -0.5466 C   0  0  0  0  0  0  0  0  0  0  0  0
    5.3244    1.2381    2.8011 C   0  0  0  0  0  0  0  0  0  0  0  0
    9.8456   -2.1318    1.4136 C   0  0  0  0  0  0  0  0  0  0  0  0
    2.2337    3.0656    0.0883 C   0  0  0  0  0  0  0  0  0  0  0  0
    9.9405   -1.7792    0.3876 O   0  0  0  0  0  0  0  0  0  0  0  0
    5.7500    1.1224    4.1687 C   0  0  0  0  0  0  0  0  0  0  0  0
    8.0516    1.7693    3.2047 C   0  0  0  0  0  0  0  0  0  0  0  0
    9.3330    2.2612    3.3132 C   0  0  0  0  0  0  0  0  0  0  0  0
    1.0833    2.9009   -0.3361 C   0  0  0  0  0  0  0  0  0  0  0  0
    4.3232    1.8890    2.4036 O   0  0  0  0  0  0  0  0  0  0  0  0
   10.8002   -2.0756    2.1956 O   0  0  0  0  0  0  0  0  0  0  0  0
    7.1975    1.5401    4.4277 C   0  0  0  0  0  0  0  0  0  0  0  0
    8.5451   -3.6265    2.9324 C   0  0  0  0  0  0  0  0  0  0  0  0
  1  2  1  0
  2  3  1  0
  2  4  1  0
  3  5  2  0
  1  6  2  0
  4  7  1  0
  3  8  1  0
  7  9  1  0
  9 10  2  0
 10 11  1  0
  6 12  1  0
  4 13  2  0
  6 13  1  0
 13 14  1  0
  8 15  2  0
  5 16  1  0
 14 17  1  0
 14 18  2  0
  1 19  1  0
 16 19  2  0
  5 20  1  0
 17 21  1  0
 18 22  1  0
  9 23  1  0
 15 24  1  0
 17 25  2  0
 24 26  2  0
 23 27  2  0
 10 28  1  0
 28 29  1  0
 22 30  2  0
 25 30  1  0
 21 31  1  0
 23 31  1  0
 24 32  1  0
 27 33  1  0
 28 33  2  0
 15 34  1  0
 20 34  2  0
M  END
>  <ID>  (1) 
conformer_0

$$$$
