
     RDKit          3D

 33 38  0  0  0  0  0  0  0  0999 V2000
    3.7947   -2.3347    1.9073 C   0  0  0  0  0  0  0  0  0  0  0  0
    2.9142   -1.5186    1.4456 C   0  0  0  0  0  0  0  0  0  0  0  0
    1.5530   -1.8248    1.2199 N   0  0  0  0  0  0  0  0  0  0  0  0
    5.1006   -2.0785    2.2198 C   0  0  0  0  0  0  0  0  0  0  0  0
    3.2255   -0.1310    1.2114 C   0  0  0  0  0  0  0  0  0  0  0  0
    2.2567    0.7486    0.7275 C   0  0  0  0  0  0  0  0  0  0  0  0
    1.0112    0.3551    0.3367 C   0  0  0  0  0  0  0  0  0  0  0  0
    6.0556   -3.0245    2.6269 C   0  0  0  0  0  0  0  0  0  0  0  0
    0.1254    1.3151   -0.2069 C   0  0  0  0  0  0  0  0  0  0  0  0
    4.6255   -0.0342    1.5018 C   0  0  0  0  0  0  0  0  0  0  0  0
    7.3264   -2.8657    2.3776 C   0  0  0  0  0  0  0  0  0  0  0  0
    5.0892    1.4519    1.2555 O   0  0  0  0  0  0  0  0  0  0  0  0
    5.4512    2.3088    2.2772 C   0  0  0  0  0  0  0  0  0  0  0  0
    7.6288   -1.6871    1.6036 C   0  0  0  0  0  0  0  0  0  0  0  0
    0.9145   -1.0840    0.4571 C   0  0  0  0  0  0  0  0  0  0  0  0
    0.5577    2.5969   -0.3574 C   0  0  0  0  0  0  0  0  0  0  0  0
    6.5537    2.0900    2.9785 C   0  0  0  0  0  0  0  0  0  0  0  0
   -0.4239    3.4700   -0.8001 N   0  0  0  0  0  0  0  0  0  0  0  0
    8.3959   -3.8564    2.7373 C   0  0  0  0  0  0  0  0  0  0  0  0
    2.6087    2.2083    0.6462 C   0  0  0  0  0  0  0  0  0  0  0  0
    5.5589   -0.8968    1.8848 C   0  0  0  0  0  0  0  0  0  0  0  0
    8.2196   -4.7315    3.5111 O   0  0  0  0  0  0  0  0  0  0  0  0
    9.0949   -1.4662    1.3210 C   0  0  0  0  0  0  0  0  0  0  0  0
    9.7263   -3.5745    2.3003 C   0  0  0  0  0  0  0  0  0  0  0  0
   10.0615   -2.1547    2.0132 C   0  0  0  0  0  0  0  0  0  0  0  0
    6.9019   -0.5666    1.6008 C   0  0  0  0  0  0  0  0  0  0  0  0
    4.6250    3.3876    2.5153 C   0  0  0  0  0  0  0  0  0  0  0  0
    5.0522    4.3050    3.4951 C   0  0  0  0  0  0  0  0  0  0  0  0
   10.1380   -1.5641    3.3885 C   0  0  0  0  0  0  0  0  0  0  0  0
    1.7250    3.0772    0.1763 N   0  0  0  0  0  0  0  0  0  0  0  0
    6.2219    3.9480    4.0451 N   0  0  0  0  0  0  0  0  0  0  0  0
   11.1995   -2.1040    1.7079 C   0  0  0  0  0  0  0  0  0  0  0  0
    6.9908    2.9910    3.7962 C   0  0  0  0  0  0  0  0  0  0  0  0
  1  2  2  0
  2  3  1  0
  1  4  1  0
  2  5  1  0
  5  6  1  0
  6  7  2  0
  4  8  1  0
  7  9  1  0
  5 10  2  0
  8 11  2  0
 10 12  1  0
 12 13  1  0
 11 14  1  0
  3 15  2  0
  7 15  1  0
  9 16  2  0
 13 17  1  0
 16 18  1  0
 11 19  1  0
  6 20  1  0
  4 21  2  0
 10 21  1  0
 19 22  2  0
 14 23  1  0
 19 24  1  0
 23 25  1  0
 24 25  1  0
 14 26  2  0
 21 26  1  0
 13 27  2  0
 27 28  1  0
 25 29  1  0
 16 30  1  0
 20 30  2  0
 28 31  2  0
 25 32  1  0
 17 33  2  0
 31 33  1  0
M  END
>  <ID>  (1) 
conformer_0

$$$$
