
     RDKit          3D

 34 40  0  0  0  0  0  0  0  0999 V2000
    3.7947   -2.3347    1.9073 C   0  0  0  0  0  0  0  0  0  0  0  0
    2.9142   -1.5186    1.4456 C   0  0  0  0  0  0  0  0  0  0  0  0
    1.5530   -1.8248    1.2199 N   0  0  0  0  0  0  0  0  0  0  0  0
    5.1006   -2.0785    2.2198 C   0  0  0  0  0  0  0  0  0  0  0  0
    3.2255   -0.1310    1.2114 C   0  0  0  0  0  0  0  0  0  0  0  0
    2.2567    0.7486    0.7275 C   0  0  0  0  0  0  0  0  0  0  0  0
    1.0112    0.3551    0.3367 C   0  0  0  0  0  0  0  0  0  0  0  0
    6.0556   -3.0245    2.6269 C   0  0  0  0  0  0  0  0  0  0  0  0
    0.1254    1.3151   -0.2069 C   0  0  0  0  0  0  0  0  0  0  0  0
    4.6255   -0.0342    1.5018 C   0  0  0  0  0  0  0  0  0  0  0  0
    7.3264   -2.8657    2.3776 C   0  0  0  0  0  0  0  0  0  0  0  0
    5.0892    1.4519    1.2555 O   0  0  0  0  0  0  0  0  0  0  0  0
    5.4512    2.3088    2.2772 C   0  0  0  0  0  0  0  0  0  0  0  0
    7.6288   -1.6871    1.6036 C   0  0  0  0  0  0  0  0  0  0  0  0
    0.9145   -1.0840    0.4571 C   0  0  0  0  0  0  0  0  0  0  0  0
    0.5577    2.5969   -0.3574 C   0  0  0  0  0  0  0  0  0  0  0  0
    6.5537    2.0900    2.9785 C   0  0  0  0  0  0  0  0  0  0  0  0
   -0.4239    3.4700   -0.8001 N   0  0  0  0  0  0  0  0  0  0  0  0
    8.3959   -3.8564    2.7373 C   0  0  0  0  0  0  0  0  0  0  0  0
    2.6087    2.2083    0.6462 C   0  0  0  0  0  0  0  0  0  0  0  0
    9.1027   -1.5516    1.3234 C   0  0  0  0  0  0  0  0  0  0  0  0
    5.5200   -0.8487    1.8398 C   0  0  0  0  0  0  0  0  0  0  0  0
    4.5991    3.4041    2.4610 C   0  0  0  0  0  0  0  0  0  0  0  0
    9.6886   -3.6884    2.2613 C   0  0  0  0  0  0  0  0  0  0  0  0
    7.4093    0.9328    2.6399 O   0  0  0  0  0  0  0  0  0  0  0  0
   10.6381   -4.6610    2.6257 O   0  0  0  0  0  0  0  0  0  0  0  0
    5.0629    4.3197    3.4334 C   0  0  0  0  0  0  0  0  0  0  0  0
    6.9412    2.9006    3.9025 C   0  0  0  0  0  0  0  0  0  0  0  0
    9.5920   -0.4586    0.5557 O   0  0  0  0  0  0  0  0  0  0  0  0
    6.9452   -0.5163    1.5666 C   0  0  0  0  0  0  0  0  0  0  0  0
    8.1979    2.6972    4.6409 O   0  0  0  0  0  0  0  0  0  0  0  0
    1.6990    3.1045    0.1476 N   0  0  0  0  0  0  0  0  0  0  0  0
   10.1006   -2.5282    1.5817 C   0  0  0  0  0  0  0  0  0  0  0  0
    6.2012    4.0552    4.1614 C   0  0  0  0  0  0  0  0  0  0  0  0
  1  2  2  0
  2  3  1  0
  1  4  1  0
  2  5  1  0
  5  6  1  0
  6  7  2  0
  4  8  1  0
  7  9  1  0
  5 10  2  0
  8 11  2  0
 10 12  1  0
 12 13  1  0
 11 14  1  0
  3 15  2  0
  7 15  1  0
  9 16  2  0
 13 17  1  0
 16 18  1  0
 11 19  1  0
  6 20  1  0
 14 21  1  0
  4 22  2  0
 10 22  1  0
 13 23  2  0
 19 24  2  0
 17 25  1  0
 24 26  1  0
 23 27  1  0
 17 28  2  0
 21 29  1  0
 14 30  2  0
 22 30  1  0
 25 30  1  0
 28 31  1  0
 16 32  1  0
 20 32  2  0
 21 33  2  0
 24 33  1  0
 27 34  2  0
 28 34  1  0
M  END
>  <ID>  (1) 
conformer_0

$$$$
