
     RDKit          3D

 14 15  0  0  0  0  0  0  0  0999 V2000
    0.0891    0.6412   -0.2498 N   0  0  0  0  0  0  0  0  0  0  0  0
    1.3250    0.4861    0.1816 C   0  0  0  0  0  0  0  0  0  0  0  0
    1.9261   -0.6939    0.5176 N   0  0  0  0  0  0  0  0  0  0  0  0
    3.1994   -0.8552    0.9808 C   0  0  0  0  0  0  0  0  0  0  0  0
    3.6651   -2.1276    1.3574 C   0  0  0  0  0  0  0  0  0  0  0  0
    2.1021    1.7156    0.4189 C   0  0  0  0  0  0  0  0  0  0  0  0
    3.9667   -2.4246    2.6204 N   0  0  0  0  0  0  0  0  0  0  0  0
    1.3935    2.8795    0.1193 C   0  0  0  0  0  0  0  0  0  0  0  0
    0.1997    2.9348   -0.4332 C   0  0  0  0  0  0  0  0  0  0  0  0
    3.3767    1.7417    1.0015 C   0  0  0  0  0  0  0  0  0  0  0  0
    3.1830   -2.8930    3.4620 C   0  0  0  0  0  0  0  0  0  0  0  0
    4.0198    0.4856    1.2163 C   0  0  0  0  0  0  0  0  0  0  0  0
    3.4660   -3.1999    4.8012 N   0  0  0  0  0  0  0  0  0  0  0  0
   -0.4275    1.8128   -0.5079 C   0  0  0  0  0  0  0  0  0  0  0  0
  1  2  1  0
  2  3  1  0
  3  4  2  0
  4  5  1  0
  2  6  2  0
  5  7  1  0
  6  8  1  0
  8  9  2  0
  6 10  1  0
  7 11  2  3
  4 12  1  0
 10 12  2  0
 11 13  1  0
  1 14  2  0
  9 14  1  0
M  END
>  <ID>  (1) 
conformer_0

$$$$
