
     RDKit          3D

 16 18  0  0  0  0  0  0  0  0999 V2000
    1.1402    3.6077   -0.2764 N   0  0  0  0  0  0  0  0  0  0  0  0
    2.2385    2.9703    0.1230 C   0  0  0  0  0  0  0  0  0  0  0  0
    3.3413    3.6787    0.4356 N   0  0  0  0  0  0  0  0  0  0  0  0
    4.2146    2.8346    1.1489 C   0  0  0  0  0  0  0  0  0  0  0  0
    5.3428    3.4832    1.7530 O   0  0  0  0  0  0  0  0  0  0  0  0
    5.9301    2.9165    2.9121 C   0  0  0  0  0  0  0  0  0  0  0  0
    1.9422    1.6260    0.3622 C   0  0  0  0  0  0  0  0  0  0  0  0
   -0.0755    2.9368   -0.5424 C   0  0  0  0  0  0  0  0  0  0  0  0
    5.3024    1.7033    3.2691 C   0  0  0  0  0  0  0  0  0  0  0  0
    0.8684    0.9349    0.0965 C   0  0  0  0  0  0  0  0  0  0  0  0
    0.7262   -0.3697    0.2660 N   0  0  0  0  0  0  0  0  0  0  0  0
    4.1723    1.1344    2.8058 C   0  0  0  0  0  0  0  0  0  0  0  0
    6.8011    3.7048    3.6288 C   0  0  0  0  0  0  0  0  0  0  0  0
   -0.1665    1.6688   -0.3616 N   0  0  0  0  0  0  0  0  0  0  0  0
    3.7754    1.6563    1.6898 C   0  0  0  0  0  0  0  0  0  0  0  0
    2.8740    0.9331    1.1767 C   0  0  0  0  0  0  0  0  0  0  0  0
  1  2  1  0
  2  3  2  0
  3  4  1  0
  4  5  1  0
  5  6  1  0
  2  7  1  0
  1  8  2  0
  6  9  2  0
  7 10  1  0
 10 11  1  0
  9 12  1  0
  6 13  1  0
  8 14  1  0
 10 14  2  0
  4 15  2  0
 12 15  1  0
  7 16  2  0
 15 16  1  0
M  END
>  <ID>  (1) 
conformer_0

$$$$
