
     RDKit          3D

 26 29  0  0  0  0  0  0  0  0999 V2000
    3.7947   -2.3347    1.9073 C   0  0  0  0  0  0  0  0  0  0  0  0
    2.9142   -1.5186    1.4456 C   0  0  0  0  0  0  0  0  0  0  0  0
    1.5530   -1.8248    1.2199 N   0  0  0  0  0  0  0  0  0  0  0  0
    5.1006   -2.0785    2.2198 C   0  0  0  0  0  0  0  0  0  0  0  0
    3.2255   -0.1310    1.2114 C   0  0  0  0  0  0  0  0  0  0  0  0
    2.2567    0.7486    0.7275 C   0  0  0  0  0  0  0  0  0  0  0  0
    1.0112    0.3551    0.3367 C   0  0  0  0  0  0  0  0  0  0  0  0
    6.0556   -3.0245    2.6269 C   0  0  0  0  0  0  0  0  0  0  0  0
    0.1254    1.3151   -0.2069 C   0  0  0  0  0  0  0  0  0  0  0  0
    4.6255   -0.0342    1.5018 C   0  0  0  0  0  0  0  0  0  0  0  0
    7.3264   -2.8657    2.3776 C   0  0  0  0  0  0  0  0  0  0  0  0
    5.0892    1.4519    1.2555 O   0  0  0  0  0  0  0  0  0  0  0  0
    5.4512    2.3088    2.2772 C   0  0  0  0  0  0  0  0  0  0  0  0
    7.6288   -1.6871    1.6036 C   0  0  0  0  0  0  0  0  0  0  0  0
    0.9145   -1.0840    0.4571 C   0  0  0  0  0  0  0  0  0  0  0  0
    0.5577    2.5969   -0.3574 C   0  0  0  0  0  0  0  0  0  0  0  0
    8.4451   -3.6236    2.8115 C   0  0  0  0  0  0  0  0  0  0  0  0
    2.5841    2.2218    0.6365 C   0  0  0  0  0  0  0  0  0  0  0  0
   -0.4362    3.4896   -0.8824 O   0  0  0  0  0  0  0  0  0  0  0  0
    5.1656    3.5366    2.1457 O   0  0  0  0  0  0  0  0  0  0  0  0
    1.7378    2.9209    0.0859 C   0  0  0  0  0  0  0  0  0  0  0  0
    5.4674   -0.8282    1.8302 C   0  0  0  0  0  0  0  0  0  0  0  0
    8.2664   -4.4922    3.7252 O   0  0  0  0  0  0  0  0  0  0  0  0
    9.6154   -3.6978    2.1452 O   0  0  0  0  0  0  0  0  0  0  0  0
    6.8966   -0.6011    1.5109 C   0  0  0  0  0  0  0  0  0  0  0  0
    5.2224    4.4989    3.2437 C   0  0  0  0  0  0  0  0  0  0  0  0
  1  2  2  0
  2  3  1  0
  1  4  1  0
  2  5  1  0
  5  6  1  0
  6  7  2  0
  4  8  1  0
  7  9  1  0
  5 10  2  0
  8 11  2  0
 10 12  1  0
 12 13  1  0
 11 14  1  0
  3 15  2  0
  7 15  1  0
  9 16  2  0
 11 17  1  0
  6 18  1  0
 16 19  1  0
 13 20  1  0
 16 21  1  0
 18 21  2  0
  4 22  2  0
 10 22  1  0
 17 23  2  0
 17 24  1  0
 14 25  2  0
 22 25  1  0
 20 26  1  0
M  END
>  <ID>  (1) 
conformer_0

$$$$
