
     RDKit          3D

 18 20  0  0  0  0  0  0  0  0999 V2000
    3.6961   -2.0766    1.6718 C   0  0  0  0  0  0  0  0  0  0  0  0
    2.7867   -1.2885    1.2248 N   0  0  0  0  0  0  0  0  0  0  0  0
    3.0506    0.0390    0.8450 C   0  0  0  0  0  0  0  0  0  0  0  0
    4.3159    0.3159    1.1342 C   0  0  0  0  0  0  0  0  0  0  0  0
    4.6407    1.8177    0.9265 N   0  0  0  0  0  0  0  0  0  0  0  0
    3.3602   -3.3974    2.0213 C   0  0  0  0  0  0  0  0  0  0  0  0
    2.0878    0.9073    0.2876 C   0  0  0  0  0  0  0  0  0  0  0  0
    4.9818   -1.6349    1.8813 C   0  0  0  0  0  0  0  0  0  0  0  0
    2.2052    2.2411    0.2095 C   0  0  0  0  0  0  0  0  0  0  0  0
    3.4414   -3.7388    3.4149 N   0  0  0  0  0  0  0  0  0  0  0  0
    5.2950   -0.3881    1.6191 N   0  0  0  0  0  0  0  0  0  0  0  0
    1.1860    2.9688   -0.3414 N   0  0  0  0  0  0  0  0  0  0  0  0
    3.5665    2.7646    0.4157 C   0  0  0  0  0  0  0  0  0  0  0  0
    3.9346    4.0806    0.4185 O   0  0  0  0  0  0  0  0  0  0  0  0
    0.0469    2.5696   -0.5653 C   0  0  0  0  0  0  0  0  0  0  0  0
   -0.2326    1.2071   -0.4062 C   0  0  0  0  0  0  0  0  0  0  0  0
    0.6992    0.3473    0.0567 N   0  0  0  0  0  0  0  0  0  0  0  0
    4.7520    4.4638    1.5398 C   0  0  0  0  0  0  0  0  0  0  0  0
  1  2  1  0
  2  3  2  0
  3  4  1  0
  4  5  1  0
  1  6  1  0
  3  7  1  0
  1  8  2  0
  7  9  2  0
  6 10  1  0
  4 11  2  0
  8 11  1  0
  9 12  1  0
  5 13  2  0
  9 13  1  0
 13 14  1  0
 12 15  2  0
 15 16  1  0
  7 17  1  0
 16 17  2  0
 14 18  1  0
M  END
>  <ID>  (1) 
conformer_0

$$$$
