
     RDKit          3D

 34 40  0  0  0  0  0  0  0  0999 V2000
    3.7947   -2.3347    1.9073 C   0  0  0  0  0  0  0  0  0  0  0  0
    2.9142   -1.5186    1.4456 C   0  0  0  0  0  0  0  0  0  0  0  0
    1.5530   -1.8248    1.2199 N   0  0  0  0  0  0  0  0  0  0  0  0
    5.1006   -2.0785    2.2198 C   0  0  0  0  0  0  0  0  0  0  0  0
    3.2255   -0.1310    1.2114 C   0  0  0  0  0  0  0  0  0  0  0  0
    2.2567    0.7486    0.7275 C   0  0  0  0  0  0  0  0  0  0  0  0
    1.0112    0.3551    0.3367 C   0  0  0  0  0  0  0  0  0  0  0  0
    6.0556   -3.0245    2.6269 C   0  0  0  0  0  0  0  0  0  0  0  0
    0.1254    1.3151   -0.2069 C   0  0  0  0  0  0  0  0  0  0  0  0
    4.6255   -0.0342    1.5018 C   0  0  0  0  0  0  0  0  0  0  0  0
    7.3264   -2.8657    2.3776 C   0  0  0  0  0  0  0  0  0  0  0  0
    5.0892    1.4519    1.2555 O   0  0  0  0  0  0  0  0  0  0  0  0
    5.4512    2.3088    2.2772 C   0  0  0  0  0  0  0  0  0  0  0  0
    7.6288   -1.6871    1.6036 C   0  0  0  0  0  0  0  0  0  0  0  0
    0.9145   -1.0840    0.4571 C   0  0  0  0  0  0  0  0  0  0  0  0
    0.5577    2.5969   -0.3574 C   0  0  0  0  0  0  0  0  0  0  0  0
    6.5537    2.0900    2.9785 C   0  0  0  0  0  0  0  0  0  0  0  0
   -0.4239    3.4700   -0.8001 N   0  0  0  0  0  0  0  0  0  0  0  0
    8.3959   -3.8564    2.7373 C   0  0  0  0  0  0  0  0  0  0  0  0
    1.7328    3.0890    0.0746 C   0  0  0  0  0  0  0  0  0  0  0  0
    9.0970   -1.5090    1.3309 C   0  0  0  0  0  0  0  0  0  0  0  0
    4.8676    3.4454    2.3685 C   0  0  0  0  0  0  0  0  0  0  0  0
    5.3704    4.2981    3.3943 C   0  0  0  0  0  0  0  0  0  0  0  0
    4.5954    5.4326    3.5504 O   0  0  0  0  0  0  0  0  0  0  0  0
    5.4906   -0.6832    1.8350 C   0  0  0  0  0  0  0  0  0  0  0  0
    7.2978    0.7834    2.6862 C   0  0  0  0  0  0  0  0  0  0  0  0
    6.8428   -0.4951    2.0070 C   0  0  0  0  0  0  0  0  0  0  0  0
    9.4317   -0.6224    0.3888 O   0  0  0  0  0  0  0  0  0  0  0  0
    9.9336   -2.6179    1.4430 C   0  0  0  0  0  0  0  0  0  0  0  0
    7.0056    2.8102    3.9383 C   0  0  0  0  0  0  0  0  0  0  0  0
    8.0833   -4.8565    3.3116 O   0  0  0  0  0  0  0  0  0  0  0  0
    2.6475    2.2108    0.5654 C   0  0  0  0  0  0  0  0  0  0  0  0
    6.2933    3.9835    4.1991 C   0  0  0  0  0  0  0  0  0  0  0  0
    9.5790   -3.7137    2.1234 N   0  0  0  0  0  0  0  0  0  0  0  0
  1  2  2  0
  2  3  1  0
  1  4  1  0
  2  5  1  0
  5  6  1  0
  6  7  2  0
  4  8  1  0
  7  9  1  0
  5 10  2  0
  8 11  2  0
 10 12  1  0
 12 13  1  0
 11 14  1  0
  3 15  2  0
  7 15  1  0
  9 16  2  0
 13 17  1  0
 16 18  1  0
 11 19  1  0
 16 20  1  0
 14 21  1  0
 13 22  2  0
 22 23  1  0
 23 24  1  0
  4 25  2  0
 10 25  1  0
 17 26  1  0
 14 27  1  0
 25 27  1  0
 26 27  1  0
 21 28  2  0
 21 29  1  0
 17 30  2  0
 19 31  2  0
  6 32  1  0
 20 32  2  0
 23 33  2  0
 30 33  1  0
 19 34  1  0
 29 34  2  0
M  END
>  <ID>  (1) 
conformer_0

$$$$
