
     RDKit          3D

 21 24  0  0  0  0  0  0  0  0999 V2000
    1.1402    3.6077   -0.2764 N   0  0  0  0  0  0  0  0  0  0  0  0
    2.2385    2.9703    0.1230 C   0  0  0  0  0  0  0  0  0  0  0  0
    3.3413    3.6787    0.4356 N   0  0  0  0  0  0  0  0  0  0  0  0
    4.2146    2.8346    1.1489 C   0  0  0  0  0  0  0  0  0  0  0  0
    5.3428    3.4832    1.7530 O   0  0  0  0  0  0  0  0  0  0  0  0
    5.9301    2.9165    2.9121 C   0  0  0  0  0  0  0  0  0  0  0  0
    1.9422    1.6260    0.3622 C   0  0  0  0  0  0  0  0  0  0  0  0
   -0.0755    2.9368   -0.5424 C   0  0  0  0  0  0  0  0  0  0  0  0
    5.3024    1.7033    3.2691 C   0  0  0  0  0  0  0  0  0  0  0  0
    4.2249    1.6753    2.0565 C   0  0  0  0  0  0  0  0  0  0  0  0
    2.8492    0.5979    0.7771 N   0  0  0  0  0  0  0  0  0  0  0  0
    5.6208    0.7137    3.8291 O   0  0  0  0  0  0  0  0  0  0  0  0
    0.5494    1.3956   -0.0751 C   0  0  0  0  0  0  0  0  0  0  0  0
   -0.2705    0.2736   -0.3014 O   0  0  0  0  0  0  0  0  0  0  0  0
    2.1702   -0.7427    0.3582 C   0  0  0  0  0  0  0  0  0  0  0  0
    3.0809   -1.6989    1.3488 C   0  0  0  0  0  0  0  0  0  0  0  0
    2.4162   -2.2053    2.3824 O   0  0  0  0  0  0  0  0  0  0  0  0
    3.5950    0.5830    1.5964 C   0  0  0  0  0  0  0  0  0  0  0  0
    7.3102    2.7122    3.0862 C   0  0  0  0  0  0  0  0  0  0  0  0
    5.6486    3.9514    4.1034 C   0  0  0  0  0  0  0  0  0  0  0  0
    4.2829   -0.9696    1.5583 C   0  0  0  0  0  0  0  0  0  0  0  0
  1  2  1  0
  2  3  2  0
  3  4  1  0
  4  5  1  0
  5  6  1  0
  2  7  1  0
  1  8  2  0
  6  9  1  0
  4 10  1  0
  9 10  1  0
  7 11  1  0
  9 12  2  0
  7 13  2  0
  8 13  1  0
 13 14  1  0
 11 15  1  0
 15 16  1  0
 16 17  2  0
 10 18  2  0
 11 18  1  0
  6 19  1  0
  6 20  1  0
 16 21  1  0
 18 21  1  0
M  END
>  <ID>  (1) 
conformer_0

$$$$
