
     RDKit          3D

 22 26  0  0  0  0  0  0  0  0999 V2000
    1.5770    0.5062    0.1644 C   0  0  0  0  0  0  0  0  0  0  0  0
    2.5244    1.3360    0.2207 C   0  0  0  0  0  0  0  0  0  0  0  0
    3.6898    1.1523    1.0048 C   0  0  0  0  0  0  0  0  0  0  0  0
    4.3346    2.0913    1.7207 N   0  0  0  0  0  0  0  0  0  0  0  0
    3.8411   -0.1840    1.4189 C   0  0  0  0  0  0  0  0  0  0  0  0
    4.1131    3.4791    1.4560 C   0  0  0  0  0  0  0  0  0  0  0  0
    5.0528   -0.4501    2.2158 C   0  0  0  0  0  0  0  0  0  0  0  0
    2.2243    2.6125   -0.3628 C   0  0  0  0  0  0  0  0  0  0  0  0
    5.4518    1.8514    2.5225 C   0  0  0  0  0  0  0  0  0  0  0  0
    2.8540    3.7481   -0.1838 O   0  0  0  0  0  0  0  0  0  0  0  0
    5.4619   -1.6998    2.5325 N   0  0  0  0  0  0  0  0  0  0  0  0
    4.9757    4.2883    2.2310 O   0  0  0  0  0  0  0  0  0  0  0  0
    5.7426    0.5674    2.7531 C   0  0  0  0  0  0  0  0  0  0  0  0
    0.7954    2.8107   -0.6146 C   0  0  0  0  0  0  0  0  0  0  0  0
    5.9628    3.2486    2.9471 C   0  0  0  0  0  0  0  0  0  0  0  0
    0.3632    0.5135   -0.3816 N   0  0  0  0  0  0  0  0  0  0  0  0
   -0.0082    1.7771   -0.7748 C   0  0  0  0  0  0  0  0  0  0  0  0
    6.8850    0.0646    3.5376 C   0  0  0  0  0  0  0  0  0  0  0  0
    4.8624   -2.9044    2.1870 C   0  0  0  0  0  0  0  0  0  0  0  0
    4.4600   -3.6728    3.3346 C   0  0  0  0  0  0  0  0  0  0  0  0
    3.6034    4.1665    0.5257 C   0  0  0  0  0  0  0  0  0  0  0  0
    6.6180   -1.4211    3.3756 C   0  0  0  0  0  0  0  0  0  0  0  0
  1  2  1  0
  2  3  1  0
  3  4  1  0
  3  5  2  0
  4  6  1  0
  5  7  1  0
  2  8  2  0
  4  9  1  0
  8 10  1  0
  7 11  1  0
  6 12  1  0
  7 13  2  0
  9 13  1  0
  8 14  1  0
  9 15  1  0
 12 15  1  0
  1 16  2  0
 14 17  2  0
 16 17  1  0
 13 18  1  0
 11 19  1  0
 19 20  1  0
  6 21  2  0
 10 21  1  0
 11 22  1  0
 18 22  2  0
M  END
>  <ID>  (1) 
conformer_0

$$$$
