
     RDKit          3D

 28 30  0  0  0  0  0  0  0  0999 V2000
    3.7947   -2.3347    1.9073 C   0  0  0  0  0  0  0  0  0  0  0  0
    4.8868   -1.7657    1.7689 N   0  0  0  0  0  0  0  0  0  0  0  0
    6.1349   -2.4039    2.1278 C   0  0  0  0  0  0  0  0  0  0  0  0
    4.9276   -0.7190    0.9031 C   0  0  0  0  0  0  0  0  0  0  0  0
    6.1003   -3.4706    3.0016 C   0  0  0  0  0  0  0  0  0  0  0  0
    3.6681   -0.2424    0.8503 C   0  0  0  0  0  0  0  0  0  0  0  0
    5.9573    0.2211    1.4034 O   0  0  0  0  0  0  0  0  0  0  0  0
    3.0523    0.8482    0.1212 C   0  0  0  0  0  0  0  0  0  0  0  0
    5.7775    0.8832    2.6161 C   0  0  0  0  0  0  0  0  0  0  0  0
    3.5566    2.0940    0.3181 N   0  0  0  0  0  0  0  0  0  0  0  0
    2.8953    3.2394    0.0581 C   0  0  0  0  0  0  0  0  0  0  0  0
    7.3171   -1.8699    1.7130 C   0  0  0  0  0  0  0  0  0  0  0  0
    1.8041    0.7425   -0.4342 C   0  0  0  0  0  0  0  0  0  0  0  0
    8.3568   -2.4293    1.7931 C   0  0  0  0  0  0  0  0  0  0  0  0
    4.8950   -3.9625    3.5447 O   0  0  0  0  0  0  0  0  0  0  0  0
    7.3056   -4.1489    3.2032 C   0  0  0  0  0  0  0  0  0  0  0  0
    6.3905    2.2016    2.6686 C   0  0  0  0  0  0  0  0  0  0  0  0
    7.5683    2.2435    2.7984 O   0  0  0  0  0  0  0  0  0  0  0  0
    1.0659    1.8355   -0.7645 C   0  0  0  0  0  0  0  0  0  0  0  0
    5.8023    3.0671    1.8580 O   0  0  0  0  0  0  0  0  0  0  0  0
    2.8650   -1.3118    1.4025 C   0  0  0  0  0  0  0  0  0  0  0  0
    7.3993   -5.3011    4.0604 O   0  0  0  0  0  0  0  0  0  0  0  0
    9.7108   -1.9801    1.3102 C   0  0  0  0  0  0  0  0  0  0  0  0
    1.5631    3.0442   -0.4881 N   0  0  0  0  0  0  0  0  0  0  0  0
   -0.2593    1.7738   -1.2652 N   0  0  0  0  0  0  0  0  0  0  0  0
   10.6988   -2.5221    1.5579 O   0  0  0  0  0  0  0  0  0  0  0  0
    8.5529   -3.6416    2.7502 C   0  0  0  0  0  0  0  0  0  0  0  0
    9.7826   -0.7949    0.7861 O   0  0  0  0  0  0  0  0  0  0  0  0
  1  2  1  0
  2  3  1  0
  2  4  1  0
  3  5  2  0
  4  6  1  0
  4  7  1  0
  6  8  1  0
  7  9  1  0
  8 10  1  0
 10 11  2  0
  3 12  1  0
  8 13  2  0
 12 14  2  0
  5 15  1  0
  5 16  1  0
  9 17  1  0
 17 18  1  0
 13 19  1  0
 17 20  2  0
  1 21  1  0
  6 21  2  0
 16 22  1  0
 14 23  1  0
 11 24  1  0
 19 24  2  0
 19 25  1  0
 23 26  2  0
 14 27  1  0
 16 27  2  0
 23 28  1  0
M  END
>  <ID>  (1) 
conformer_0

$$$$
