
     RDKit          3D

 22 24  0  0  0  0  0  0  0  0999 V2000
    1.2191    2.5374    0.2583 C   0  0  0  0  0  0  0  0  0  0  0  0
    2.2650    2.2917    0.6778 C   0  0  0  0  0  0  0  0  0  0  0  0
    2.6639    0.8606    0.8596 C   0  0  0  0  0  0  0  0  0  0  0  0
    3.9413    0.5038    1.4070 N   0  0  0  0  0  0  0  0  0  0  0  0
    0.4160    1.4232   -0.2718 C   0  0  0  0  0  0  0  0  0  0  0  0
    4.2940   -0.8108    1.2729 C   0  0  0  0  0  0  0  0  0  0  0  0
    3.3145    3.0746    1.3014 C   0  0  0  0  0  0  0  0  0  0  0  0
    3.2050   -1.6940    1.4482 C   0  0  0  0  0  0  0  0  0  0  0  0
    4.7457    1.5437    1.7653 C   0  0  0  0  0  0  0  0  0  0  0  0
    5.3269   -1.2772    2.2219 C   0  0  0  0  0  0  0  0  0  0  0  0
    6.5051   -1.6797    1.8322 C   0  0  0  0  0  0  0  0  0  0  0  0
    1.6768    0.0148    0.3282 C   0  0  0  0  0  0  0  0  0  0  0  0
   -0.9210    1.9985   -0.9282 O   0  0  0  0  0  0  0  0  0  0  0  0
    7.2521   -2.6737    2.3766 C   0  0  0  0  0  0  0  0  0  0  0  0
    2.9401    4.4104    1.2744 O   0  0  0  0  0  0  0  0  0  0  0  0
    5.9696    1.1961    2.3382 O   0  0  0  0  0  0  0  0  0  0  0  0
    8.5676   -3.1169    1.8232 C   0  0  0  0  0  0  0  0  0  0  0  0
    4.4191    2.7466    1.8529 N   0  0  0  0  0  0  0  0  0  0  0  0
    9.1640   -2.4788    0.7644 O   0  0  0  0  0  0  0  0  0  0  0  0
    0.7277    0.2719   -0.2217 N   0  0  0  0  0  0  0  0  0  0  0  0
    8.9349   -4.3281    1.9599 O   0  0  0  0  0  0  0  0  0  0  0  0
    2.1897   -1.4535    0.4243 C   0  0  0  0  0  0  0  0  0  0  0  0
  1  2  1  0
  2  3  2  0
  3  4  1  0
  1  5  2  0
  4  6  1  0
  2  7  1  0
  6  8  1  0
  4  9  1  0
  6 10  1  0
 10 11  1  0
  3 12  1  0
  5 13  1  0
 11 14  2  3
  7 15  2  0
  9 16  1  0
 14 17  1  0
  7 18  1  0
  9 18  2  0
 17 19  1  0
  5 20  1  0
 12 20  2  0
 17 21  2  0
  8 22  1  0
 12 22  1  0
M  END
>  <ID>  (1) 
conformer_0

$$$$
