
     RDKit          3D

 28 32  0  0  0  0  0  0  0  0999 V2000
    3.7947   -2.3347    1.9073 C   0  0  0  0  0  0  0  0  0  0  0  0
    2.9142   -1.5186    1.4456 C   0  0  0  0  0  0  0  0  0  0  0  0
    1.5530   -1.8248    1.2199 N   0  0  0  0  0  0  0  0  0  0  0  0
    5.1006   -2.0785    2.2198 C   0  0  0  0  0  0  0  0  0  0  0  0
    3.2255   -0.1310    1.2114 C   0  0  0  0  0  0  0  0  0  0  0  0
    2.2567    0.7486    0.7275 C   0  0  0  0  0  0  0  0  0  0  0  0
    1.0112    0.3551    0.3367 C   0  0  0  0  0  0  0  0  0  0  0  0
    6.0556   -3.0245    2.6269 C   0  0  0  0  0  0  0  0  0  0  0  0
    0.1254    1.3151   -0.2069 C   0  0  0  0  0  0  0  0  0  0  0  0
    4.6255   -0.0342    1.5018 C   0  0  0  0  0  0  0  0  0  0  0  0
    7.3264   -2.8657    2.3776 C   0  0  0  0  0  0  0  0  0  0  0  0
    5.0892    1.4519    1.2555 O   0  0  0  0  0  0  0  0  0  0  0  0
    5.4512    2.3088    2.2772 C   0  0  0  0  0  0  0  0  0  0  0  0
    7.6288   -1.6871    1.6036 C   0  0  0  0  0  0  0  0  0  0  0  0
    0.9145   -1.0840    0.4571 C   0  0  0  0  0  0  0  0  0  0  0  0
    0.5577    2.5969   -0.3574 C   0  0  0  0  0  0  0  0  0  0  0  0
    9.0941   -1.5638    1.2985 C   0  0  0  0  0  0  0  0  0  0  0  0
    2.5241    2.2482    0.4716 C   0  0  0  0  0  0  0  0  0  0  0  0
    1.6845    3.0543    0.0079 N   0  0  0  0  0  0  0  0  0  0  0  0
    5.1846    3.5775    2.1171 O   0  0  0  0  0  0  0  0  0  0  0  0
    9.6046   -0.4186    1.4185 O   0  0  0  0  0  0  0  0  0  0  0  0
    9.9124   -2.4968    1.9434 C   0  0  0  0  0  0  0  0  0  0  0  0
    9.2040   -3.8259    2.0647 C   0  0  0  0  0  0  0  0  0  0  0  0
    6.7594   -0.7536    1.3421 C   0  0  0  0  0  0  0  0  0  0  0  0
    5.4697   -0.8959    1.6034 C   0  0  0  0  0  0  0  0  0  0  0  0
    5.0808    4.3841    3.3199 C   0  0  0  0  0  0  0  0  0  0  0  0
   11.2414   -2.7132    1.5021 O   0  0  0  0  0  0  0  0  0  0  0  0
    8.1469   -3.8274    2.6744 O   0  0  0  0  0  0  0  0  0  0  0  0
  1  2  2  0
  2  3  1  0
  1  4  1  0
  2  5  1  0
  5  6  1  0
  6  7  2  0
  4  8  1  0
  7  9  1  0
  5 10  2  0
  8 11  2  0
 10 12  1  0
 12 13  1  0
 11 14  1  0
  3 15  2  0
  7 15  1  0
  9 16  2  0
 14 17  1  0
  6 18  1  0
 16 19  1  0
 18 19  2  0
 13 20  1  0
 17 21  1  0
 17 22  1  0
 22 23  1  0
 14 24  2  0
  4 25  2  0
 10 25  1  0
 24 25  1  0
 20 26  1  0
 22 27  1  0
 11 28  1  0
 23 28  1  0
M  END
>  <ID>  (1) 
conformer_0

$$$$
