
     RDKit          3D

 30 33  0  0  0  0  0  0  0  0999 V2000
    3.7596   -2.0180    1.6422 C   0  0  0  0  0  0  0  0  0  0  0  0
    2.8315   -1.2680    1.2221 C   0  0  0  0  0  0  0  0  0  0  0  0
    3.0622    0.0834    0.8155 N   0  0  0  0  0  0  0  0  0  0  0  0
    5.0940   -1.5920    1.5602 C   0  0  0  0  0  0  0  0  0  0  0  0
    1.9911    0.9478    0.3904 C   0  0  0  0  0  0  0  0  0  0  0  0
    0.8552    0.4483   -0.1799 N   0  0  0  0  0  0  0  0  0  0  0  0
    6.1988   -2.4191    1.9374 N   0  0  0  0  0  0  0  0  0  0  0  0
    1.9782    2.2717    0.7180 C   0  0  0  0  0  0  0  0  0  0  0  0
    4.4860    0.3916    0.7904 C   0  0  0  0  0  0  0  0  0  0  0  0
    6.2011   -3.5723    2.6804 C   0  0  0  0  0  0  0  0  0  0  0  0
    3.0196    3.1033    1.1809 N   0  0  0  0  0  0  0  0  0  0  0  0
    7.3966   -4.1704    2.9313 C   0  0  0  0  0  0  0  0  0  0  0  0
    0.7621    2.9474    0.2551 C   0  0  0  0  0  0  0  0  0  0  0  0
   -0.1082    1.3184   -0.5471 C   0  0  0  0  0  0  0  0  0  0  0  0
    3.7419    2.8297    2.2022 C   0  0  0  0  0  0  0  0  0  0  0  0
    5.2953   -0.3842    1.2227 C   0  0  0  0  0  0  0  0  0  0  0  0
    3.7520    2.0282    3.0442 O   0  0  0  0  0  0  0  0  0  0  0  0
    7.4343   -2.0375    1.5151 C   0  0  0  0  0  0  0  0  0  0  0  0
    8.5917   -3.7700    2.4321 C   0  0  0  0  0  0  0  0  0  0  0  0
    4.9274    3.9967    2.2424 C   0  0  0  0  0  0  0  0  0  0  0  0
    4.9714    4.7544    3.2132 F   0  0  0  0  0  0  0  0  0  0  0  0
    0.9193    4.4752    0.4207 O   0  0  0  0  0  0  0  0  0  0  0  0
    8.5868   -2.6476    1.6922 C   0  0  0  0  0  0  0  0  0  0  0  0
    4.9454    4.6258    1.1508 F   0  0  0  0  0  0  0  0  0  0  0  0
   -0.0786    2.3859   -0.2631 C   0  0  0  0  0  0  0  0  0  0  0  0
    6.1205    3.1757    2.4049 F   0  0  0  0  0  0  0  0  0  0  0  0
    9.8898   -4.5227    2.7233 C   0  0  0  0  0  0  0  0  0  0  0  0
    9.9664   -5.3539    3.5919 O   0  0  0  0  0  0  0  0  0  0  0  0
    6.8629   -0.5272    0.9680 N   0  0  0  0  0  0  0  0  0  0  0  0
   10.9014   -4.1184    2.0080 O   0  0  0  0  0  0  0  0  0  0  0  0
  1  2  2  0
  2  3  1  0
  1  4  1  0
  3  5  1  0
  5  6  2  0
  4  7  1  0
  5  8  1  0
  3  9  1  0
  7 10  1  0
  8 11  1  0
 10 12  2  0
  8 13  2  0
  6 14  1  0
 11 15  1  0
  4 16  1  0
  9 16  1  0
 15 17  2  0
  7 18  1  0
 12 19  1  0
 15 20  1  0
 20 21  1  0
 13 22  1  0
 18 23  1  0
 19 23  2  0
 20 24  1  0
 13 25  1  0
 14 25  2  0
 20 26  1  0
 19 27  1  0
 27 28  2  0
 16 29  1  0
 18 29  2  0
 27 30  1  0
M  END
>  <ID>  (1) 
conformer_0

$$$$
