
     RDKit          3D

 20 22  0  0  0  0  0  0  0  0999 V2000
    1.2191    2.5374    0.2583 C   0  0  0  0  0  0  0  0  0  0  0  0
    2.2650    2.2917    0.6778 C   0  0  0  0  0  0  0  0  0  0  0  0
    2.6639    0.8606    0.8596 C   0  0  0  0  0  0  0  0  0  0  0  0
    3.9413    0.5038    1.4070 N   0  0  0  0  0  0  0  0  0  0  0  0
    0.4160    1.4232   -0.2718 C   0  0  0  0  0  0  0  0  0  0  0  0
    4.2940   -0.8108    1.2729 C   0  0  0  0  0  0  0  0  0  0  0  0
    4.5811    1.1766    2.3493 C   0  0  0  0  0  0  0  0  0  0  0  0
    3.3552    3.1654    1.1125 C   0  0  0  0  0  0  0  0  0  0  0  0
    4.4250    2.7203    2.0221 C   0  0  0  0  0  0  0  0  0  0  0  0
    1.8983   -0.2421    0.3863 C   0  0  0  0  0  0  0  0  0  0  0  0
    5.4792    3.4476    2.2797 O   0  0  0  0  0  0  0  0  0  0  0  0
    3.2498    4.3861    0.8177 O   0  0  0  0  0  0  0  0  0  0  0  0
    2.4370   -1.5120    0.5194 C   0  0  0  0  0  0  0  0  0  0  0  0
    0.7148    0.1821   -0.2082 N   0  0  0  0  0  0  0  0  0  0  0  0
    6.0305    3.5043    3.6012 P   0  0  0  0  0  0  0  0  0  0  0  0
    3.5825   -1.7057    1.0892 C   0  0  0  0  0  0  0  0  0  0  0  0
   -0.8605    1.8431   -0.9500 C   0  0  0  0  0  0  0  0  0  0  0  0
    7.5172    3.6868    3.3185 O   0  0  0  0  0  0  0  0  0  0  0  0
    5.8985    2.2797    4.3276 O   0  0  0  0  0  0  0  0  0  0  0  0
    5.5349    4.7874    4.1777 O   0  0  0  0  0  0  0  0  0  0  0  0
  1  2  1  0
  2  3  2  0
  3  4  1  0
  1  5  2  0
  4  6  1  0
  4  7  1  0
  2  8  1  0
  7  9  1  0
  8  9  1  0
  3 10  1  0
  9 11  1  0
  8 12  2  0
 10 13  2  0
  5 14  1  0
 10 14  1  0
 11 15  1  0
  6 16  2  0
 13 16  1  0
  5 17  1  0
 15 18  1  0
 15 19  2  0
 15 20  1  0
M  END
>  <ID>  (1) 
conformer_0

$$$$
