
     RDKit          3D

 30 34  0  0  0  0  0  0  0  0999 V2000
    3.7947   -2.3347    1.9073 C   0  0  0  0  0  0  0  0  0  0  0  0
    2.9142   -1.5186    1.4456 C   0  0  0  0  0  0  0  0  0  0  0  0
    1.5530   -1.8248    1.2199 N   0  0  0  0  0  0  0  0  0  0  0  0
    5.1006   -2.0785    2.2198 C   0  0  0  0  0  0  0  0  0  0  0  0
    3.2255   -0.1310    1.2114 C   0  0  0  0  0  0  0  0  0  0  0  0
    2.2567    0.7486    0.7275 C   0  0  0  0  0  0  0  0  0  0  0  0
    1.0112    0.3551    0.3367 C   0  0  0  0  0  0  0  0  0  0  0  0
    6.0556   -3.0245    2.6269 C   0  0  0  0  0  0  0  0  0  0  0  0
    0.1254    1.3151   -0.2069 C   0  0  0  0  0  0  0  0  0  0  0  0
    4.6255   -0.0342    1.5018 C   0  0  0  0  0  0  0  0  0  0  0  0
    7.3264   -2.8657    2.3776 C   0  0  0  0  0  0  0  0  0  0  0  0
    5.0892    1.4519    1.2555 O   0  0  0  0  0  0  0  0  0  0  0  0
    5.4512    2.3088    2.2772 C   0  0  0  0  0  0  0  0  0  0  0  0
    7.6288   -1.6871    1.6036 C   0  0  0  0  0  0  0  0  0  0  0  0
    0.9145   -1.0840    0.4571 C   0  0  0  0  0  0  0  0  0  0  0  0
    0.5577    2.5969   -0.3574 C   0  0  0  0  0  0  0  0  0  0  0  0
    6.5537    2.0900    2.9785 C   0  0  0  0  0  0  0  0  0  0  0  0
   -0.4239    3.4700   -0.8001 N   0  0  0  0  0  0  0  0  0  0  0  0
    8.4388   -3.6237    2.8627 C   0  0  0  0  0  0  0  0  0  0  0  0
    8.3656   -4.4447    3.7590 O   0  0  0  0  0  0  0  0  0  0  0  0
    5.4940   -0.8301    1.8733 C   0  0  0  0  0  0  0  0  0  0  0  0
    6.7896   -0.7015    1.4694 C   0  0  0  0  0  0  0  0  0  0  0  0
    9.0740   -1.5035    1.2946 C   0  0  0  0  0  0  0  0  0  0  0  0
    1.8173    3.0277    0.0636 C   0  0  0  0  0  0  0  0  0  0  0  0
    9.9538   -2.5592    1.7416 C   0  0  0  0  0  0  0  0  0  0  0  0
    5.0595    3.6847    1.9450 O   0  0  0  0  0  0  0  0  0  0  0  0
    9.6590   -3.5126    2.4395 N   0  0  0  0  0  0  0  0  0  0  0  0
    6.9273    2.9060    4.0629 O   0  0  0  0  0  0  0  0  0  0  0  0
    2.7018    2.2085    0.5492 C   0  0  0  0  0  0  0  0  0  0  0  0
   11.3699   -2.3047    1.2567 O   0  0  0  0  0  0  0  0  0  0  0  0
  1  2  2  0
  2  3  1  0
  1  4  1  0
  2  5  1  0
  5  6  1  0
  6  7  2  0
  4  8  1  0
  7  9  1  0
  5 10  2  0
  8 11  2  0
 10 12  1  0
 12 13  1  0
 11 14  1  0
  3 15  2  0
  7 15  1  0
  9 16  2  0
 13 17  1  0
 16 18  1  0
 11 19  1  0
 19 20  2  0
  4 21  2  0
 10 21  1  0
 14 22  1  0
 21 22  1  0
 14 23  2  0
 16 24  1  0
 23 25  1  0
 13 26  1  0
 19 27  1  0
 25 27  2  0
 17 28  1  0
  6 29  1  0
 24 29  2  0
 25 30  1  0
M  END
>  <ID>  (1) 
conformer_0

$$$$
