
     RDKit          3D

 29 33  0  0  0  0  0  0  0  0999 V2000
    3.7947   -2.3347    1.9073 C   0  0  0  0  0  0  0  0  0  0  0  0
    2.9142   -1.5186    1.4456 C   0  0  0  0  0  0  0  0  0  0  0  0
    1.5530   -1.8248    1.2199 N   0  0  0  0  0  0  0  0  0  0  0  0
    5.1006   -2.0785    2.2198 C   0  0  0  0  0  0  0  0  0  0  0  0
    3.2255   -0.1310    1.2114 C   0  0  0  0  0  0  0  0  0  0  0  0
    2.2567    0.7486    0.7275 C   0  0  0  0  0  0  0  0  0  0  0  0
    1.0112    0.3551    0.3367 C   0  0  0  0  0  0  0  0  0  0  0  0
    6.0556   -3.0245    2.6269 C   0  0  0  0  0  0  0  0  0  0  0  0
    0.1254    1.3151   -0.2069 C   0  0  0  0  0  0  0  0  0  0  0  0
    4.6255   -0.0342    1.5018 C   0  0  0  0  0  0  0  0  0  0  0  0
    7.3264   -2.8657    2.3776 C   0  0  0  0  0  0  0  0  0  0  0  0
    5.0892    1.4519    1.2555 O   0  0  0  0  0  0  0  0  0  0  0  0
    5.4512    2.3088    2.2772 C   0  0  0  0  0  0  0  0  0  0  0  0
    7.6288   -1.6871    1.6036 C   0  0  0  0  0  0  0  0  0  0  0  0
    0.9145   -1.0840    0.4571 C   0  0  0  0  0  0  0  0  0  0  0  0
    0.5577    2.5969   -0.3574 C   0  0  0  0  0  0  0  0  0  0  0  0
    6.5537    2.0900    2.9785 C   0  0  0  0  0  0  0  0  0  0  0  0
   -0.4239    3.4700   -0.8001 N   0  0  0  0  0  0  0  0  0  0  0  0
    8.3959   -3.8564    2.7373 C   0  0  0  0  0  0  0  0  0  0  0  0
    5.0985    3.6584    1.9628 O   0  0  0  0  0  0  0  0  0  0  0  0
    6.8252    2.7297    4.1490 O   0  0  0  0  0  0  0  0  0  0  0  0
    2.5410    2.1680    0.4993 C   0  0  0  0  0  0  0  0  0  0  0  0
    5.4619   -0.8054    1.8702 C   0  0  0  0  0  0  0  0  0  0  0  0
    9.6183   -3.7426    2.2050 C   0  0  0  0  0  0  0  0  0  0  0  0
    1.7197    3.0898    0.0993 C   0  0  0  0  0  0  0  0  0  0  0  0
    7.5154    1.1689    2.5446 C   0  0  0  0  0  0  0  0  0  0  0  0
    7.6635    0.6788    1.3755 C   0  0  0  0  0  0  0  0  0  0  0  0
   10.6977   -4.5596    2.5866 C   0  0  0  0  0  0  0  0  0  0  0  0
    6.9837   -0.7126    1.9627 C   0  0  0  0  0  0  0  0  0  0  0  0
  1  2  2  0
  2  3  1  0
  1  4  1  0
  2  5  1  0
  5  6  1  0
  6  7  2  0
  4  8  1  0
  7  9  1  0
  5 10  2  0
  8 11  2  0
 10 12  1  0
 12 13  1  0
 11 14  1  0
  3 15  2  0
  7 15  1  0
  9 16  2  0
 13 17  1  0
 16 18  1  0
 11 19  1  0
 13 20  1  0
 17 21  1  0
  6 22  1  0
  4 23  2  0
 10 23  1  0
 19 24  2  3
 16 25  1  0
 22 25  2  0
 17 26  2  0
 26 27  1  0
 24 28  1  0
 14 29  1  0
 23 29  1  0
 27 29  1  0
M  END
>  <ID>  (1) 
conformer_0

$$$$
