
     RDKit          3D

 31 36  0  0  0  0  0  0  0  0999 V2000
    3.7947   -2.3347    1.9073 C   0  0  0  0  0  0  0  0  0  0  0  0
    4.8868   -1.7657    1.7689 N   0  0  0  0  0  0  0  0  0  0  0  0
    6.1349   -2.4039    2.1278 C   0  0  0  0  0  0  0  0  0  0  0  0
    4.9276   -0.7190    0.9031 C   0  0  0  0  0  0  0  0  0  0  0  0
    6.1003   -3.4706    3.0016 C   0  0  0  0  0  0  0  0  0  0  0  0
    2.6922   -1.5803    1.4580 C   0  0  0  0  0  0  0  0  0  0  0  0
    5.9358    0.1448    0.6992 O   0  0  0  0  0  0  0  0  0  0  0  0
    7.4598   -1.9145    1.7479 C   0  0  0  0  0  0  0  0  0  0  0  0
    6.3892    0.8681    1.8829 C   0  0  0  0  0  0  0  0  0  0  0  0
    7.5454    1.4636    1.8231 C   0  0  0  0  0  0  0  0  0  0  0  0
    8.5417    1.2414    0.8195 O   0  0  0  0  0  0  0  0  0  0  0  0
    1.4267   -1.8460    1.3186 C   0  0  0  0  0  0  0  0  0  0  0  0
    3.4742   -0.4367    0.7383 C   0  0  0  0  0  0  0  0  0  0  0  0
    2.8947    0.7617    0.2752 C   0  0  0  0  0  0  0  0  0  0  0  0
    8.4950   -2.5893    1.9145 C   0  0  0  0  0  0  0  0  0  0  0  0
    4.8522   -3.9020    3.5137 C   0  0  0  0  0  0  0  0  0  0  0  0
    3.1700    2.0016    0.6240 C   0  0  0  0  0  0  0  0  0  0  0  0
    1.4420    0.6759   -0.0845 C   0  0  0  0  0  0  0  0  0  0  0  0
    3.6768   -3.4102    2.9016 C   0  0  0  0  0  0  0  0  0  0  0  0
    7.4254   -4.0246    3.3944 C   0  0  0  0  0  0  0  0  0  0  0  0
    7.3915   -5.1554    4.3325 O   0  0  0  0  0  0  0  0  0  0  0  0
    4.3817    2.4682    1.1161 N   0  0  0  0  0  0  0  0  0  0  0  0
    8.0447    2.4638    2.7505 C   0  0  0  0  0  0  0  0  0  0  0  0
    8.5117   -3.6294    2.8481 C   0  0  0  0  0  0  0  0  0  0  0  0
    0.7344   -0.5301   -0.1499 O   0  0  0  0  0  0  0  0  0  0  0  0
    5.4191    1.3349    2.8972 C   0  0  0  0  0  0  0  0  0  0  0  0
    9.8098   -4.2705    3.2696 O   0  0  0  0  0  0  0  0  0  0  0  0
    2.1041    2.8810   -0.0179 C   0  0  0  0  0  0  0  0  0  0  0  0
    1.0023    1.9834   -0.4278 N   0  0  0  0  0  0  0  0  0  0  0  0
    0.7468   -1.2583    0.6894 N   0  0  0  0  0  0  0  0  0  0  0  0
    4.6566    2.2400    2.2988 C   0  0  0  0  0  0  0  0  0  0  0  0
  1  2  1  0
  2  3  1  0
  2  4  1  0
  3  5  2  0
  1  6  2  0
  4  7  1  0
  3  8  1  0
  7  9  1  0
  9 10  2  3
 10 11  1  0
  6 12  1  0
  4 13  2  0
  6 13  1  0
 13 14  1  0
  8 15  2  0
  5 16  1  0
 14 17  1  0
 14 18  2  0
  1 19  1  0
 16 19  2  0
  5 20  1  0
 20 21  1  0
 17 22  1  0
 10 23  1  0
 15 24  1  0
 20 24  2  0
 18 25  1  0
  9 26  1  0
 24 27  1  0
 17 28  1  0
 18 29  1  0
 28 29  2  0
 12 30  2  0
 25 30  1  0
 22 31  1  0
 26 31  2  0
M  END
>  <ID>  (1) 
conformer_0

$$$$
