
     RDKit          3D

 19 22  0  0  0  0  0  0  0  0999 V2000
    1.1402    3.6077   -0.2764 N   0  0  0  0  0  0  0  0  0  0  0  0
    2.2385    2.9703    0.1230 C   0  0  0  0  0  0  0  0  0  0  0  0
    3.3413    3.6787    0.4356 N   0  0  0  0  0  0  0  0  0  0  0  0
    4.2146    2.8346    1.1489 C   0  0  0  0  0  0  0  0  0  0  0  0
    5.3428    3.4832    1.7530 O   0  0  0  0  0  0  0  0  0  0  0  0
    5.9301    2.9165    2.9121 C   0  0  0  0  0  0  0  0  0  0  0  0
    1.9422    1.6260    0.3622 C   0  0  0  0  0  0  0  0  0  0  0  0
   -0.0755    2.9368   -0.5424 C   0  0  0  0  0  0  0  0  0  0  0  0
    5.3024    1.7033    3.2691 C   0  0  0  0  0  0  0  0  0  0  0  0
    0.8684    0.9349    0.0965 C   0  0  0  0  0  0  0  0  0  0  0  0
    0.7262   -0.3697    0.2660 N   0  0  0  0  0  0  0  0  0  0  0  0
    6.9261    3.4427    3.6705 C   0  0  0  0  0  0  0  0  0  0  0  0
    2.9874    0.9432    1.1460 C   0  0  0  0  0  0  0  0  0  0  0  0
    5.9763    1.1270    4.2602 C   0  0  0  0  0  0  0  0  0  0  0  0
    7.4067    2.8106    4.6603 C   0  0  0  0  0  0  0  0  0  0  0  0
   -0.2047    1.6443   -0.3634 N   0  0  0  0  0  0  0  0  0  0  0  0
    6.9009    1.5634    4.9885 C   0  0  0  0  0  0  0  0  0  0  0  0
    4.1318    1.5718    1.4811 C   0  0  0  0  0  0  0  0  0  0  0  0
    5.0379    0.7463    2.1540 O   0  0  0  0  0  0  0  0  0  0  0  0
  1  2  1  0
  2  3  2  0
  3  4  1  0
  4  5  1  0
  5  6  1  0
  2  7  1  0
  1  8  2  0
  6  9  2  0
  7 10  1  0
 10 11  1  0
  6 12  1  0
  7 13  2  0
  9 14  1  0
 12 15  2  0
  8 16  1  0
 10 16  2  0
 14 17  2  0
 15 17  1  0
  4 18  2  0
 13 18  1  0
  9 19  1  0
 18 19  1  0
M  END
>  <ID>  (1) 
conformer_0

$$$$
