
     RDKit          3D

 17 19  0  0  0  0  0  0  0  0999 V2000
    1.5770    0.5062    0.1644 C   0  0  0  0  0  0  0  0  0  0  0  0
    2.5244    1.3360    0.2207 C   0  0  0  0  0  0  0  0  0  0  0  0
    3.6898    1.1523    1.0048 C   0  0  0  0  0  0  0  0  0  0  0  0
    4.3346    2.0913    1.7207 N   0  0  0  0  0  0  0  0  0  0  0  0
    3.8411   -0.1840    1.4189 C   0  0  0  0  0  0  0  0  0  0  0  0
    4.1131    3.4791    1.4560 C   0  0  0  0  0  0  0  0  0  0  0  0
    5.0528   -0.4501    2.2158 C   0  0  0  0  0  0  0  0  0  0  0  0
    2.9090   -1.1117    1.1589 C   0  0  0  0  0  0  0  0  0  0  0  0
    5.6502    1.9205    2.3282 C   0  0  0  0  0  0  0  0  0  0  0  0
    1.8439   -0.8387    0.4509 N   0  0  0  0  0  0  0  0  0  0  0  0
    4.7506    4.3860    2.1163 O   0  0  0  0  0  0  0  0  0  0  0  0
    2.9456    3.8430    0.7345 C   0  0  0  0  0  0  0  0  0  0  0  0
    2.2026    2.7552   -0.0545 C   0  0  0  0  0  0  0  0  0  0  0  0
    5.8535    0.5615    2.6212 C   0  0  0  0  0  0  0  0  0  0  0  0
    0.4594    0.7948   -0.5245 O   0  0  0  0  0  0  0  0  0  0  0  0
    7.2917    0.3403    2.2597 O   0  0  0  0  0  0  0  0  0  0  0  0
    3.1168   -2.3790    1.5007 O   0  0  0  0  0  0  0  0  0  0  0  0
  1  2  1  0
  2  3  1  0
  3  4  1  0
  3  5  2  0
  4  6  1  0
  5  7  1  0
  5  8  1  0
  4  9  1  0
  1 10  1  0
  8 10  1  0
  6 11  2  0
  6 12  1  0
  2 13  1  0
 12 13  1  0
  7 14  1  0
  9 14  1  0
  1 15  2  0
 14 16  1  0
  8 17  2  0
M  END
>  <ID>  (1) 
conformer_0

$$$$
