
     RDKit          3D

 16 18  0  0  0  0  0  0  0  0999 V2000
    1.2191    2.5374    0.2583 C   0  0  0  0  0  0  0  0  0  0  0  0
    2.2650    2.2917    0.6778 C   0  0  0  0  0  0  0  0  0  0  0  0
    2.6639    0.8606    0.8596 C   0  0  0  0  0  0  0  0  0  0  0  0
    3.9413    0.5038    1.4070 N   0  0  0  0  0  0  0  0  0  0  0  0
    0.4160    1.4232   -0.2718 C   0  0  0  0  0  0  0  0  0  0  0  0
    4.2940   -0.8108    1.2729 C   0  0  0  0  0  0  0  0  0  0  0  0
    3.3145    3.0746    1.3014 C   0  0  0  0  0  0  0  0  0  0  0  0
   -0.8429    1.8515   -0.9080 O   0  0  0  0  0  0  0  0  0  0  0  0
    3.1782   -1.6437    1.3327 C   0  0  0  0  0  0  0  0  0  0  0  0
    3.1674    4.3683    1.3151 O   0  0  0  0  0  0  0  0  0  0  0  0
    0.8569    0.0771   -0.1925 N   0  0  0  0  0  0  0  0  0  0  0  0
    4.5371    1.4626    2.0425 C   0  0  0  0  0  0  0  0  0  0  0  0
    1.9674   -0.1164    0.2947 C   0  0  0  0  0  0  0  0  0  0  0  0
    5.7319    1.1101    2.6657 O   0  0  0  0  0  0  0  0  0  0  0  0
    2.1606   -1.4582    0.3838 C   0  0  0  0  0  0  0  0  0  0  0  0
    4.3743    2.6717    1.9729 N   0  0  0  0  0  0  0  0  0  0  0  0
  1  2  1  0
  2  3  2  0
  3  4  1  0
  1  5  2  0
  4  6  1  0
  2  7  1  0
  5  8  1  0
  6  9  1  0
  7 10  1  0
  5 11  1  0
  4 12  1  0
  3 13  1  0
 11 13  2  0
 12 14  2  0
  9 15  1  0
 13 15  1  0
  7 16  2  0
 12 16  1  0
M  END
>  <ID>  (1) 
conformer_0

$$$$
