
     RDKit          3D

 24 27  0  0  0  0  0  0  0  0999 V2000
    3.7596   -2.0180    1.6422 C   0  0  0  0  0  0  0  0  0  0  0  0
    2.8315   -1.2680    1.2221 C   0  0  0  0  0  0  0  0  0  0  0  0
    3.0622    0.0834    0.8155 N   0  0  0  0  0  0  0  0  0  0  0  0
    5.0940   -1.5920    1.5602 C   0  0  0  0  0  0  0  0  0  0  0  0
    1.9911    0.9478    0.3904 C   0  0  0  0  0  0  0  0  0  0  0  0
    0.8552    0.4483   -0.1799 N   0  0  0  0  0  0  0  0  0  0  0  0
    6.1988   -2.4191    1.9374 N   0  0  0  0  0  0  0  0  0  0  0  0
    1.9782    2.2717    0.7180 C   0  0  0  0  0  0  0  0  0  0  0  0
    0.2135    1.5997   -0.4599 N   0  0  0  0  0  0  0  0  0  0  0  0
    7.4860   -1.9986    1.5869 C   0  0  0  0  0  0  0  0  0  0  0  0
    8.5859   -2.9586    1.8847 C   0  0  0  0  0  0  0  0  0  0  0  0
    7.7130   -0.7720    1.0852 C   0  0  0  0  0  0  0  0  0  0  0  0
    9.7258   -2.7811    1.1444 C   0  0  0  0  0  0  0  0  0  0  0  0
    5.2505   -0.3167    1.1815 C   0  0  0  0  0  0  0  0  0  0  0  0
    8.5399   -3.8480    2.8254 C   0  0  0  0  0  0  0  0  0  0  0  0
    6.6781    0.1341    1.0859 N   0  0  0  0  0  0  0  0  0  0  0  0
    9.6462   -4.6878    3.0724 C   0  0  0  0  0  0  0  0  0  0  0  0
    9.9097   -1.7625    0.0998 O   0  0  0  0  0  0  0  0  0  0  0  0
   10.5368   -0.4974    0.4476 C   0  0  0  0  0  0  0  0  0  0  0  0
    0.8119    2.6863    0.0333 C   0  0  0  0  0  0  0  0  0  0  0  0
    4.2477    0.5898    0.8450 C   0  0  0  0  0  0  0  0  0  0  0  0
   10.7961   -4.5628    2.3247 C   0  0  0  0  0  0  0  0  0  0  0  0
   10.8543   -3.5839    1.3431 C   0  0  0  0  0  0  0  0  0  0  0  0
   -1.0961    1.6197   -1.0542 C   0  0  0  0  0  0  0  0  0  0  0  0
  1  2  2  0
  2  3  1  0
  1  4  1  0
  3  5  1  0
  5  6  2  0
  4  7  1  0
  5  8  1  0
  6  9  1  0
  7 10  2  0
 10 11  1  0
 10 12  1  0
 11 13  2  0
  4 14  2  0
 11 15  1  0
 12 16  2  0
 14 16  1  0
 15 17  2  0
 13 18  1  0
 18 19  1  0
  8 20  2  0
  9 20  1  0
  3 21  1  0
 14 21  1  0
 17 22  1  0
 13 23  1  0
 22 23  2  0
  9 24  1  0
M  END
>  <ID>  (1) 
conformer_0

$$$$
