
     RDKit          3D

 21 23  0  0  0  0  0  0  0  0999 V2000
    1.4174    2.9642   -0.1824 N   0  0  0  0  0  0  0  0  0  0  0  0
    5.2368    3.3936    2.9359 P   0  0  0  0  0  4  0  0  0  0  0  0
    2.1946   -0.3847    0.6028 O   0  0  0  0  0  0  0  0  0  0  0  0
   -0.0775    1.1154   -0.3994 O   0  0  0  0  0  0  0  0  0  0  0  0
    2.1401    0.9327    0.5094 C   0  0  0  0  0  0  0  0  0  0  0  0
    5.2984    4.0385    1.7994 O   0  0  0  0  0  0  0  0  0  0  0  0
    6.7949   -2.9719    2.5952 C   0  0  0  0  0  0  0  0  0  0  0  0
    6.7794    1.6544    3.8409 C   0  0  0  0  0  0  0  0  0  0  0  0
    5.4291    1.8154    2.8876 C   0  0  0  0  0  0  0  0  0  0  0  0
    5.5278   -2.2372    2.2407 C   0  0  0  0  0  0  0  0  0  0  0  0
    3.1869   -2.2804    1.5431 C   0  0  0  0  0  0  0  0  0  0  0  0
    2.6995    3.1215    0.5067 C   0  0  0  0  0  0  0  0  0  0  0  0
    3.1417    1.8122    0.9584 C   0  0  0  0  0  0  0  0  0  0  0  0
    1.0617    1.6033   -0.1043 C   0  0  0  0  0  0  0  0  0  0  0  0
    3.2746   -0.8921    1.2938 C   0  0  0  0  0  0  0  0  0  0  0  0
    7.5953    2.9925    3.8739 O   0  0  0  0  0  0  0  0  0  0  0  0
    4.3260   -2.9399    2.0564 C   0  0  0  0  0  0  0  0  0  0  0  0
    5.5457   -0.8554    2.1184 C   0  0  0  0  0  0  0  0  0  0  0  0
    4.3114    1.3588    1.7574 C   0  0  0  0  0  0  0  0  0  0  0  0
    5.0442    4.0167    4.0682 O   0  0  0  0  0  1  0  0  0  0  0  0
    4.3981   -0.1528    1.7157 C   0  0  0  0  0  0  0  0  0  0  0  0
  1 12  1  0
  1 14  1  0
  2  6  1  0
  2  9  1  0
  2 20  2  0
  3  5  1  0
  3 15  1  0
  4 14  2  0
  5 13  2  0
  5 14  1  0
  7 10  1  0
  8  9  1  0
  8 16  1  0
  9 19  1  0
 10 17  1  0
 10 18  2  0
 11 15  2  0
 11 17  1  0
 12 13  1  0
 13 19  1  0
 15 21  1  0
 18 21  1  0
 19 21  1  0
M  END
>  <ID>  (1) 
conformer_0

$$$$
