
     RDKit          3D

 16 15  0  0  0  0  0  0  0  0999 V2000
    7.4786   -0.9171    2.0761 C   0  0  0  0  0  0  0  0  0  0  0  0
    4.9067    0.6913    2.0785 C   0  0  0  0  0  0  0  0  0  0  0  0
    9.0241    2.3168    3.1544 O   0  0  0  0  0  0  0  0  0  0  0  0
    6.0414   -0.4445    1.9423 C   0  0  0  0  0  0  0  0  0  0  0  0
    7.1461    2.3299    2.0373 O   0  0  0  0  0  0  0  0  0  0  0  0
    0.6171    1.6337   -0.4314 C   0  0  0  0  0  0  0  0  0  0  0  0
    2.7855    0.9312    0.5335 N   0  0  0  0  0  0  0  0  0  0  0  0
    8.1130    1.6612    2.5042 C   0  0  0  0  0  0  0  0  0  0  0  0
    2.4672   -0.7023    0.5563 S   0  0  0  0  0  0  0  0  0  0  0  0
    8.4062    0.1804    2.2806 C   0  0  0  0  0  0  0  0  0  0  0  0
    2.5367    2.9853   -0.4511 O   0  0  0  0  0  0  0  0  0  0  0  0
    5.0795   -1.9109    1.5385 S   0  0  0  0  0  0  0  0  0  0  0  0
    3.7597    1.4896    1.4623 C   0  0  0  0  0  0  0  0  0  0  0  0
    2.0971    1.7552   -0.3297 C   0  0  0  0  0  0  0  0  0  0  0  0
   -0.0321    2.8910   -0.8433 N   0  0  0  0  0  0  0  0  0  0  0  0
    8.0829   -2.1018    1.2443 C   0  0  0  0  0  0  0  0  0  0  0  0
  1  4  1  0
  1 10  1  0
  1 16  1  0
  2  4  1  0
  2 13  1  0
  3  8  2  0
  4 12  1  0
  5  8  1  0
  6 14  1  0
  6 15  1  0
  7  9  1  0
  7 13  1  0
  7 14  1  0
  8 10  1  0
 11 14  2  0
M  END
>  <ID>  (1) 
conformer_0

$$$$
