
     RDKit          3D

 29 30  0  0  0  0  0  0  0  0999 V2000
    5.5956    4.7581    3.8694 O   0  0  0  0  0  1  0  0  0  0  0  0
    9.1899    0.0306    0.5840 C   0  0  0  0  0  0  0  0  0  0  0  0
    6.0791    2.6908    2.2275 O   0  0  0  0  0  0  0  0  0  0  0  0
    6.4241    3.4267    3.7725 P   0  0  0  0  0  4  0  0  0  0  0  0
    7.9788    0.2530    4.8773 C   0  0  0  0  0  0  0  0  0  0  0  0
    3.7598    2.2080    1.4047 C   0  0  0  0  0  0  0  0  0  0  0  0
    0.3243    3.4907   -0.6120 N   0  0  0  0  0  0  0  0  0  0  0  0
    2.7046    2.8781    0.8244 C   0  0  0  0  0  0  0  0  0  0  0  0
    7.9032    3.6252    3.8189 O   0  0  0  0  0  0  0  0  0  0  0  0
    0.6903    2.1971   -0.3646 N   0  0  0  0  0  0  0  0  0  0  0  0
    7.4149   -1.2212    1.7690 C   0  0  0  0  0  0  0  0  0  0  0  0
    2.4763    0.5618    0.6058 C   0  0  0  0  0  0  0  0  0  0  0  0
    1.8768    1.8845    0.2878 C   0  0  0  0  0  0  0  0  0  0  0  0
    7.4298   -0.8795    4.7883 C   0  0  0  0  0  0  0  0  0  0  0  0
    4.3831   -1.4902    1.4943 C   0  0  0  0  0  0  0  0  0  0  0  0
    9.3114   -2.4656    0.7476 C   0  0  0  0  0  0  0  0  0  0  0  0
    8.5697   -1.1966    1.1253 N   0  0  0  0  0  0  0  0  0  0  0  0
   -0.2262    1.3296   -0.4804 O   0  0  0  0  0  0  0  0  0  0  0  0
    4.7447   -0.0961    1.3633 C   0  0  0  0  0  0  0  0  0  0  0  0
    4.7447    2.7837    2.0612 C   0  0  0  0  0  0  0  0  0  0  0  0
    6.4917   -1.7509    2.6611 C   0  0  0  0  0  0  0  0  0  0  0  0
    2.0752   -0.8683    0.5552 C   0  0  0  0  0  0  0  0  0  0  0  0
    8.6933    1.1832    5.3549 C   0  0  0  0  0  0  0  0  0  0  0  0
    2.9038   -1.7747    1.3860 C   0  0  0  0  0  0  0  0  0  0  0  0
    5.2381   -2.2712    2.2242 N   0  0  0  0  0  0  0  0  0  0  0  0
    5.7810    2.4186    4.8258 O   0  0  0  0  0  0  0  0  0  0  0  0
    4.8825   -3.5584    2.7636 C   0  0  0  0  0  0  0  0  0  0  0  0
    6.7836   -1.7142    4.0336 C   0  0  0  0  0  0  0  0  0  0  0  0
    3.6835    0.8309    1.1735 C   0  0  0  0  0  0  0  0  0  0  0  0
  1  4  2  0
  2 17  1  0
  3  4  1  0
  3 20  1  0
  4  9  1  0
  4 26  1  0
  5 14  1  0
  5 23  3  0
  6  8  1  0
  6 20  1  0
  6 29  2  0
  7 10  1  0
  8 13  1  0
 10 13  1  0
 10 18  1  0
 11 17  1  0
 11 21  1  0
 12 13  2  0
 12 22  1  0
 12 29  1  0
 14 28  2  3
 15 19  1  0
 15 24  1  0
 15 25  1  0
 16 17  1  0
 19 29  1  0
 21 25  1  0
 21 28  1  0
 22 24  1  0
 25 27  1  0
M  END
>  <ID>  (1) 
conformer_0

$$$$
