
     RDKit          3D

 35 38  0  0  0  0  0  0  0  0999 V2000
    1.4123    2.2100   -0.4298 N   0  0  0  0  0  0  0  0  0  0  0  0
    2.3261   -1.1416    0.7895 C   0  0  0  0  0  0  0  0  0  0  0  0
    7.9382   -1.7981    0.6035 O   0  0  0  0  0  0  0  0  0  0  0  0
    6.5359   -1.3110    3.8864 C   0  0  0  0  0  0  0  0  0  0  0  0
    9.0770   -2.4670   -0.0945 C   0  0  0  0  0  0  0  0  0  0  0  0
    4.8246   -2.3587    2.0217 C   0  0  0  0  0  0  0  0  0  0  0  0
    7.2847    1.5605    3.8872 C   0  0  0  0  0  0  0  0  0  0  0  0
    2.9743   -3.5406    3.0464 C   0  0  0  0  0  0  0  0  0  0  0  0
    5.4119    4.6392    4.1111 O   0  0  0  0  0  0  0  0  0  0  0  0
    0.1510    2.9899   -0.4042 C   0  0  0  0  0  0  0  0  0  0  0  0
    3.7492   -1.3934    1.5193 C   0  0  0  0  0  0  0  0  0  0  0  0
    7.7579    0.6860    2.7164 C   0  0  0  0  0  0  0  0  0  0  0  0
    2.2613    0.2282    0.4787 C   0  0  0  0  0  0  0  0  0  0  0  0
    5.8744    3.6030    3.4703 C   0  0  0  0  0  0  0  0  0  0  0  0
    8.0413   -2.0457    2.0376 C   0  0  0  0  0  0  0  0  0  0  0  0
    2.5514    2.9462   -0.1136 C   0  0  0  0  0  0  0  0  0  0  0  0
    9.0843    2.2386    1.4509 O   0  0  0  0  0  0  0  0  0  0  0  0
    3.7513   -3.8025    4.2837 C   0  0  0  0  0  0  0  0  0  0  0  0
    6.1239   -4.2833    4.6486 O   0  0  0  0  0  0  0  0  0  0  0  0
    5.0387    2.7526    2.7020 C   0  0  0  0  0  0  0  0  0  0  0  0
    9.0252    1.0961    1.9382 C   0  0  0  0  0  0  0  0  0  0  0  0
    4.2956   -0.0175    1.4209 C   0  0  0  0  0  0  0  0  0  0  0  0
    3.4806   -4.9188    4.9482 O   0  0  0  0  0  0  0  0  0  0  0  0
    7.5938   -0.8450    2.8687 C   0  0  0  0  0  0  0  0  0  0  0  0
    4.1698    3.2096    1.6536 C   0  0  0  0  0  0  0  0  0  0  0  0
    7.2441    3.0899    3.6957 C   0  0  0  0  0  0  0  0  0  0  0  0
    5.6780   -2.4595    3.2386 C   0  0  0  0  0  0  0  0  0  0  0  0
    3.4155    0.9351    0.9054 C   0  0  0  0  0  0  0  0  0  0  0  0
    5.1155   -3.4033    4.2663 C   0  0  0  0  0  0  0  0  0  0  0  0
   10.0295    0.2861    2.0032 O   0  0  0  0  0  0  0  0  0  0  0  0
    3.4643    2.3476    0.7687 C   0  0  0  0  0  0  0  0  0  0  0  0
    1.2099    0.8477   -0.1641 C   0  0  0  0  0  0  0  0  0  0  0  0
    3.5434   -2.7643    2.0686 C   0  0  0  0  0  0  0  0  0  0  0  0
    9.5491   -3.5948    0.8425 C   0  0  0  0  0  0  0  0  0  0  0  0
    4.1185   -2.6518    5.0808 C   0  0  0  0  0  0  0  0  0  0  0  0
  1 10  1  0
  1 16  1  0
  1 32  1  0
  2 11  1  0
  2 13  1  0
  3  5  1  0
  3 15  1  0
  4 24  1  0
  4 27  1  0
  5 34  1  0
  6 27  1  0
  6 33  1  0
  7 12  1  0
  7 26  1  0
  8 18  1  0
  8 33  1  0
  9 14  1  0
 11 22  1  0
 11 33  1  0
 12 21  1  0
 12 24  1  0
 13 28  2  0
 13 32  1  0
 14 20  1  0
 14 26  1  0
 15 24  1  0
 16 31  1  0
 17 21  2  0
 18 23  1  0
 18 29  1  0
 18 35  1  0
 19 29  1  0
 20 25  1  0
 21 30  1  0
 22 28  1  0
 25 31  2  0
 27 29  1  0
 28 31  1  0
M  END
>  <ID>  (1) 
conformer_0

$$$$
