
     RDKit          3D

 21 21  0  0  0  0  0  0  0  0999 V2000
    8.3566   -2.5660    1.6997 C   0  0  0  0  0  0  0  0  0  0  0  0
    5.1999    1.3666    3.7896 O   0  0  0  0  0  0  0  0  0  0  0  0
    9.2521   -3.4334    0.8949 C   0  0  0  0  0  0  0  0  0  0  0  0
    7.4852   -1.5842    0.9357 C   0  0  0  0  0  0  0  0  0  0  0  0
    4.8772    2.1275    2.7882 C   0  0  0  0  0  0  0  0  0  0  0  0
    3.1516   -0.1303    0.3012 C   0  0  0  0  0  0  0  0  0  0  0  0
    8.3271   -2.5792    2.9246 O   0  0  0  0  0  0  0  0  0  0  0  0
    2.3788    1.0956    0.1496 C   0  0  0  0  0  0  0  0  0  0  0  0
    1.3151    1.2941   -0.7079 N   0  0  0  0  0  0  0  0  0  0  0  0
    0.2223    2.0700   -0.5106 C   0  0  0  0  0  0  0  0  0  0  0  0
    0.4326    3.3979   -0.1064 N   0  0  0  0  0  0  0  0  0  0  0  0
    5.2463    3.5399    2.6565 C   0  0  0  0  0  0  0  0  0  0  0  0
    5.1875   -1.0160    1.4514 C   0  0  0  0  0  0  0  0  0  0  0  0
    2.9999    2.0430    1.0837 O   0  0  0  0  0  0  0  0  0  0  0  0
    5.9449    4.0034    3.6881 N   0  0  0  0  0  0  0  0  0  0  0  0
    5.3214    3.7591    4.8995 O   0  0  0  0  0  0  0  0  0  0  0  0
    4.2355    0.1067    1.2428 C   0  0  0  0  0  0  0  0  0  0  0  0
    4.1026    1.4518    1.7317 C   0  0  0  0  0  0  0  0  0  0  0  0
   -0.9527    1.6125   -0.5213 O   0  0  0  0  0  0  0  0  0  0  0  0
    4.8875    4.3123    1.7468 O   0  0  0  0  0  0  0  0  0  0  0  0
    6.5159   -0.9385    1.8220 N   0  0  0  0  0  0  0  0  0  0  0  0
  1  3  1  0
  1  4  1  0
  1  7  2  0
  2  5  1  0
  4 21  1  0
  5 12  1  0
  5 18  1  0
  6  8  1  0
  6 17  1  0
  8  9  1  0
  8 14  1  0
  9 10  1  0
 10 11  1  0
 10 19  2  0
 12 15  1  0
 12 20  2  0
 13 17  1  0
 13 21  1  0
 14 18  1  0
 15 16  1  0
 17 18  2  0
M  END
>  <ID>  (1) 
conformer_0

$$$$
