
     RDKit          3D

 25 27  0  0  0  0  0  0  0  0999 V2000
    2.3807   -2.1042    1.6479 C   0  0  0  0  0  0  0  0  0  0  0  0
    4.9839    4.0779    4.1697 O   0  0  0  0  0  1  0  0  0  0  0  0
    7.8016   -4.0341    2.6170 C   0  0  0  0  0  0  0  0  0  0  0  0
    8.7160   -3.4570    1.7223 C   0  0  0  0  0  0  0  0  0  0  0  0
    4.7994    4.3874    1.6909 O   0  0  0  0  0  0  0  0  0  0  0  0
    4.4192    2.0419    2.8728 O   0  0  0  0  0  0  0  0  0  0  0  0
    0.8235    3.2171   -0.4471 O   0  0  0  0  0  0  0  0  0  0  0  0
   -0.0359    1.0705   -0.4311 O   0  0  0  0  0  0  0  0  0  0  0  0
    6.3410   -2.1218    2.2935 C   0  0  0  0  0  0  0  0  0  0  0  0
    2.1757    0.1965    0.4890 C   0  0  0  0  0  0  0  0  0  0  0  0
    3.2049    1.0052    1.0304 N   0  0  0  0  0  0  0  0  0  0  0  0
    3.6637   -3.5095    3.0380 C   0  0  0  0  0  0  0  0  0  0  0  0
    5.2774    0.0061    2.2093 O   0  0  0  0  0  0  0  0  0  0  0  0
    7.2493   -1.5508    1.4164 C   0  0  0  0  0  0  0  0  0  0  0  0
    3.8349   -2.1620    2.2304 C   0  0  0  0  0  0  0  0  0  0  0  0
    6.6148   -3.3330    2.8974 C   0  0  0  0  0  0  0  0  0  0  0  0
    4.3124    0.9338    1.9986 C   0  0  0  0  0  0  0  0  0  0  0  0
    1.6632    2.3429    0.0267 C   0  0  0  0  0  0  0  0  0  0  0  0
    1.1839    1.0332   -0.0120 C   0  0  0  0  0  0  0  0  0  0  0  0
    2.9246    2.2869    0.6324 C   0  0  0  0  0  0  0  0  0  0  0  0
    6.7534    3.1088    2.5293 O   0  0  0  0  0  0  0  0  0  0  0  0
   -0.4007    2.4329   -0.7379 C   0  0  0  0  0  0  0  0  0  0  0  0
    8.4312   -2.2202    1.1382 C   0  0  0  0  0  0  0  0  0  0  0  0
    5.0581   -1.3642    2.6095 C   0  0  0  0  0  0  0  0  0  0  0  0
    5.2568    3.4113    2.7883 P   0  0  0  0  0  4  0  0  0  0  0  0
  1 15  1  0
  2 25  2  0
  3  4  2  0
  3 16  1  0
  4 23  1  0
  5 25  1  0
  6 17  1  0
  6 25  1  0
  7 18  1  0
  7 22  1  0
  8 19  1  0
  8 22  1  0
  9 14  1  0
  9 16  2  0
  9 24  1  0
 10 11  1  0
 10 19  1  0
 11 17  1  0
 11 20  1  0
 12 15  1  0
 13 17  1  0
 13 24  1  0
 14 23  2  0
 15 24  1  0
 18 19  2  0
 18 20  1  0
 21 25  1  0
M  END
>  <ID>  (1) 
conformer_0

$$$$
