
     RDKit          3D

 32 35  0  0  0  0  0  0  0  0999 V2000
    4.9722    0.3604    1.8540 C   0  0  0  0  0  0  0  0  0  0  0  0
    4.6613    5.4501    2.1862 O   0  0  0  0  0  0  0  0  0  0  0  0
    0.5625    3.8955   -0.3334 N   0  0  0  0  0  0  0  0  0  0  0  0
    5.5108   -3.1812    3.4580 O   0  0  0  0  0  0  0  0  0  0  0  0
    0.9327    0.3506   -0.2166 C   0  0  0  0  0  0  0  0  0  0  0  0
    2.0612    0.2104    0.5316 C   0  0  0  0  0  0  0  0  0  0  0  0
    3.6952   -1.6386    1.0102 C   0  0  0  0  0  0  0  0  0  0  0  0
    9.7478   -1.9985   -0.0323 C   0  0  0  0  0  0  0  0  0  0  0  0
    4.1991   -3.2968    3.6776 C   0  0  0  0  0  0  0  0  0  0  0  0
    8.7277    1.1848    3.5648 O   0  0  0  0  0  0  0  0  0  0  0  0
    1.0905    2.6614   -0.1156 C   0  0  0  0  0  0  0  0  0  0  0  0
    2.2518    2.5581    0.5867 C   0  0  0  0  0  0  0  0  0  0  0  0
    5.2739    4.8009    3.2728 C   0  0  0  0  0  0  0  0  0  0  0  0
    4.3110   -0.8971    2.0163 N   0  0  0  0  0  0  0  0  0  0  0  0
    7.5918   -3.6347    2.4445 C   0  0  0  0  0  0  0  0  0  0  0  0
    8.2081    2.6285    3.8241 S   0  0  0  0  0  4  0  0  0  0  0  0
    6.4057    0.0034    2.2742 C   0  0  0  0  0  0  0  0  0  0  0  0
    8.6657   -1.0638    0.2555 C   0  0  0  0  0  0  0  0  0  0  0  0
    4.5989    2.6912    2.1814 O   0  0  0  0  0  0  0  0  0  0  0  0
    9.2688    3.5617    3.2117 O   0  0  0  0  0  0  0  0  0  0  0  0
    6.7686    2.9761    3.1629 N   0  0  0  0  0  0  0  0  0  0  0  0
    6.8848   -1.4293    2.0533 C   0  0  0  0  0  0  0  0  0  0  0  0
    8.1002    2.8642    5.3358 O   0  0  0  0  0  0  0  0  0  0  0  0
    2.8532    1.3788    0.9155 C   0  0  0  0  0  0  0  0  0  0  0  0
    9.5942   -3.1725    0.7693 C   0  0  0  0  0  0  0  0  0  0  0  0
    0.4229    1.5580   -0.5219 N   0  0  0  0  0  0  0  0  0  0  0  0
    7.9178   -1.6604    1.2045 C   0  0  0  0  0  0  0  0  0  0  0  0
    2.2680   -1.2291    0.9557 C   0  0  0  0  0  0  0  0  0  0  0  0
    6.5695   -2.6547    2.6929 C   0  0  0  0  0  0  0  0  0  0  0  0
    4.1789    1.5195    1.6445 C   0  0  0  0  0  0  0  0  0  0  0  0
    5.4523    3.3293    3.0070 C   0  0  0  0  0  0  0  0  0  0  0  0
    8.4363   -2.9864    1.4964 N   0  0  0  0  0  0  0  0  0  0  0  0
  1 14  1  0
  1 17  1  0
  1 30  1  0
  2 13  1  0
  3 11  2  0
  4  9  1  0
  4 29  1  0
  5  6  1  0
  5 26  2  0
  6 24  1  0
  6 28  1  0
  7 14  1  0
  7 28  1  0
  8 18  1  0
  8 25  1  0
 10 16  1  0
 11 12  1  0
 11 26  1  0
 12 24  1  0
 13 31  1  0
 15 29  1  0
 15 32  1  0
 16 20  1  0
 16 21  1  0
 16 23  1  0
 17 22  1  0
 18 27  1  0
 19 30  1  0
 19 31  1  0
 21 31  1  0
 22 27  2  0
 22 29  1  0
 24 30  2  0
 25 32  1  0
 27 32  1  0
M  END
>  <ID>  (1) 
conformer_0

$$$$
