
     RDKit          3D

 19 19  0  0  0  0  0  0  0  0999 V2000
    9.1418   -2.6145    0.7128 C   0  0  0  0  0  0  0  0  0  0  0  0
    5.8989   -1.1987    2.3565 C   0  0  0  0  0  0  0  0  0  0  0  0
    4.9767   -0.4871    1.5249 N   0  0  0  0  0  0  0  0  0  0  0  0
    6.6315    3.2638    2.8277 O   0  0  0  0  0  1  0  0  0  0  0  0
    1.6524    3.5778   -0.2024 O   0  0  0  0  0  0  0  0  0  0  0  0
    3.7365   -1.1386    1.0230 C   0  0  0  0  0  0  0  0  0  0  0  0
    4.5733    4.6474    2.4085 O   0  0  0  0  0  0  0  0  0  0  0  0
    5.0996    3.3057    3.0092 P   0  0  0  0  0  4  0  0  0  0  0  0
    5.0562    0.9136    1.5550 C   0  0  0  0  0  0  0  0  0  0  0  0
    6.8771   -2.0878    1.6496 C   0  0  0  0  0  0  0  0  0  0  0  0
    4.2784    1.9615    2.1796 C   0  0  0  0  0  0  0  0  0  0  0  0
    4.7025    3.2131    4.5086 O   0  0  0  0  0  0  0  0  0  0  0  0
    8.1467   -1.4825    1.0905 C   0  0  0  0  0  0  0  0  0  0  0  0
    9.1466   -3.6417    1.7789 C   0  0  0  0  0  0  0  0  0  0  0  0
    1.3609    2.2650   -0.1611 C   0  0  0  0  0  0  0  0  0  0  0  0
    2.6158   -0.0813    0.3652 S   0  0  0  0  0  0  0  0  0  0  0  0
    0.2758    1.5063   -0.2893 O   0  0  0  0  0  0  0  0  0  0  0  0
    3.0559    2.3050    1.5936 O   0  0  0  0  0  0  0  0  0  0  0  0
    2.5369    1.5755    0.4702 C   0  0  0  0  0  0  0  0  0  0  0  0
  1 13  1  0
  1 14  1  0
  2  3  1  0
  2 10  1  0
  3  6  1  0
  3  9  1  0
  4  8  2  0
  5 15  2  0
  6 16  1  0
  7  8  1  0
  8 11  1  0
  8 12  1  0
  9 11  1  0
 10 13  1  0
 11 18  1  0
 15 17  1  0
 15 19  1  0
 16 19  1  0
 18 19  1  0
M  END
>  <ID>  (1) 
conformer_0

$$$$
