
     RDKit          3D

 22 22  0  0  0  0  0  0  0  0999 V2000
    5.2874   -0.9728    1.3635 C   0  0  0  0  0  0  0  0  0  0  0  0
    6.0817    2.7955    3.0171 C   0  0  0  0  0  0  0  0  0  0  0  0
    0.8851    3.2417    0.0413 C   0  0  0  0  0  0  0  0  0  0  0  0
    4.8605   -1.6592    2.6194 O   0  0  0  0  0  0  0  0  0  0  0  0
    1.5029   -0.3881   -0.1693 C   0  0  0  0  0  0  0  0  0  0  0  0
    3.4123    0.5865    0.8880 C   0  0  0  0  0  0  0  0  0  0  0  0
    4.9449    3.7425    4.9123 O   0  0  0  0  0  0  0  0  0  0  0  0
    8.1900   -1.2729    0.5036 C   0  0  0  0  0  0  0  0  0  0  0  0
    9.0771   -2.4147    0.0302 C   0  0  0  0  0  0  0  0  0  0  0  0
    1.5114    1.9410    0.2335 N   0  0  0  0  0  0  0  0  0  0  0  0
    2.7608   -0.4991    0.3852 C   0  0  0  0  0  0  0  0  0  0  0  0
    5.7631    1.4537    2.1320 C   0  0  0  0  0  0  0  0  0  0  0  0
    7.1739    0.7420    2.4198 C   0  0  0  0  0  0  0  0  0  0  0  0
    3.2490    2.9680    1.4546 N   0  0  0  0  0  0  0  0  0  0  0  0
    4.5903   -3.7700    3.7512 C   0  0  0  0  0  0  0  0  0  0  0  0
    5.1827    2.7159    4.1847 C   0  0  0  0  0  0  0  0  0  0  0  0
    5.0927   -3.0836    2.6096 C   0  0  0  0  0  0  0  0  0  0  0  0
    4.8114    0.4766    1.3913 C   0  0  0  0  0  0  0  0  0  0  0  0
    2.7554    1.8482    0.8887 C   0  0  0  0  0  0  0  0  0  0  0  0
    0.8815    0.8571   -0.2720 C   0  0  0  0  0  0  0  0  0  0  0  0
    7.4318    3.2570    3.5405 C   0  0  0  0  0  0  0  0  0  0  0  0
    6.7304   -1.5687    1.0067 C   0  0  0  0  0  0  0  0  0  0  0  0
  1  4  1  0
  1 18  1  0
  1 22  1  0
  2 12  1  0
  2 16  1  0
  2 21  1  0
  3 10  1  0
  4 17  1  0
  5 11  1  0
  5 20  2  0
  6 11  2  0
  6 18  1  0
  6 19  1  0
  7 16  2  0
  8  9  1  0
  8 22  2  3
 10 19  1  0
 10 20  1  0
 12 13  1  0
 12 18  1  0
 14 19  2  0
 15 17  1  0
M  END
>  <ID>  (1) 
conformer_0

$$$$
