
     RDKit          3D

 21 22  0  0  0  0  0  0  0  0999 V2000
    6.1451   -1.8156    1.4608 C   0  0  0  0  0  0  0  0  0  0  0  0
    4.6178    1.6460    1.9152 C   0  0  0  0  0  0  0  0  0  0  0  0
    2.6334    1.1706    0.4934 C   0  0  0  0  0  0  0  0  0  0  0  0
    8.3550   -2.7553    1.6334 C   0  0  0  0  0  0  0  0  0  0  0  0
    0.1916    1.3807   -0.4422 C   0  0  0  0  0  0  0  0  0  0  0  0
    5.2869    0.4730    1.9464 C   0  0  0  0  0  0  0  0  0  0  0  0
    5.2722    4.9344    3.5278 O   0  0  0  0  0  1  0  0  0  0  0  0
    3.4334    1.9236    1.2698 C   0  0  0  0  0  0  0  0  0  0  0  0
    8.3955   -0.3360    1.4609 C   0  0  0  0  0  0  0  0  0  0  0  0
    7.2099    3.4347    3.6522 O   0  0  0  0  0  0  0  0  0  0  0  0
    7.5065   -1.4957    1.6784 N   0  0  0  0  0  0  0  0  0  0  0  0
    5.6885    3.4804    3.6371 P   0  0  0  0  0  4  0  0  0  0  0  0
    1.7298   -0.9205    0.0274 O   0  0  0  0  0  0  0  0  0  0  0  0
    2.8152   -0.2606    0.4402 C   0  0  0  0  0  0  0  0  0  0  0  0
    5.2346    2.6986    2.4845 O   0  0  0  0  0  0  0  0  0  0  0  0
    3.8973   -1.0117    0.7316 C   0  0  0  0  0  0  0  0  0  0  0  0
    1.6439    1.7600   -0.4224 C   0  0  0  0  0  0  0  0  0  0  0  0
    5.0303    2.9430    4.9074 O   0  0  0  0  0  0  0  0  0  0  0  0
    5.0859   -0.7334    1.3798 C   0  0  0  0  0  0  0  0  0  0  0  0
   -0.2392    2.8678   -0.5365 C   0  0  0  0  0  0  0  0  0  0  0  0
    1.3218    3.2177   -0.2190 N   0  0  0  0  0  0  0  0  0  0  0  0
  1 11  1  0
  1 19  1  0
  2  6  2  0
  2  8  1  0
  2 15  1  0
  3  8  2  0
  3 14  1  0
  3 17  1  0
  4 11  1  0
  5 17  1  0
  5 20  1  0
  6 19  1  0
  7 12  2  0
  9 11  1  0
 10 12  1  0
 12 15  1  0
 12 18  1  0
 13 14  1  0
 14 16  2  0
 16 19  1  0
 17 21  1  0
 20 21  1  0
M  END
>  <ID>  (1) 
conformer_0

$$$$
