
     RDKit          3D

 24 26  0  0  0  0  0  0  0  0999 V2000
    8.2934   -3.8334    2.2977 C   0  0  0  0  0  0  0  0  0  0  0  0
    0.3436    0.8208   -0.3605 O   0  0  0  0  0  0  0  0  0  0  0  0
    5.0720    4.5374    4.0607 O   0  0  0  0  0  1  0  0  0  0  0  0
    4.0143    1.0776    1.5455 C   0  0  0  0  0  0  0  0  0  0  0  0
    9.2772   -3.6940    1.2861 C   0  0  0  0  0  0  0  0  0  0  0  0
    7.2253   -2.9756    2.3752 C   0  0  0  0  0  0  0  0  0  0  0  0
    7.2388    3.3473    4.0321 O   0  0  0  0  0  0  0  0  0  0  0  0
    8.0433   -1.7542    0.5136 N   0  0  0  0  0  0  0  0  0  0  0  0
    3.2181    2.1660    1.3171 C   0  0  0  0  0  0  0  0  0  0  0  0
    5.9465    3.6313    1.9293 O   0  0  0  0  0  0  0  0  0  0  0  0
    4.7240   -1.2062    0.9143 C   0  0  0  0  0  0  0  0  0  0  0  0
    5.0523    1.9485    3.6519 N   0  0  0  0  0  0  0  0  0  0  0  0
    2.0616    2.1018    0.6232 C   0  0  0  0  0  0  0  0  0  0  0  0
    5.9957   -0.9946    1.5406 N   0  0  0  0  0  0  0  0  0  0  0  0
   -0.2436    1.9961   -0.8365 C   0  0  0  0  0  0  0  0  0  0  0  0
    1.6070    0.8702    0.1498 C   0  0  0  0  0  0  0  0  0  0  0  0
    0.1800    3.3546   -0.4719 N   0  0  0  0  0  0  0  0  0  0  0  0
    7.0873   -1.9372    1.4632 C   0  0  0  0  0  0  0  0  0  0  0  0
    9.1143   -2.6224    0.4040 C   0  0  0  0  0  0  0  0  0  0  0  0
    3.7260   -0.1649    0.9098 C   0  0  0  0  0  0  0  0  0  0  0  0
    5.8661    3.4385    3.4211 P   0  0  0  0  0  4  0  0  0  0  0  0
    2.4498   -0.2691    0.2828 C   0  0  0  0  0  0  0  0  0  0  0  0
    6.1568    0.1871    2.2819 C   0  0  0  0  0  0  0  0  0  0  0  0
    5.1109    1.1044    2.4195 C   0  0  0  0  0  0  0  0  0  0  0  0
  1  5  2  0
  1  6  1  0
  2 15  1  0
  2 16  1  0
  3 21  2  0
  4  9  1  0
  4 20  1  0
  4 24  1  0
  5 19  1  0
  6 18  2  0
  7 21  1  0
  8 18  1  0
  8 19  2  0
  9 13  2  0
 10 21  1  0
 11 14  1  0
 11 20  2  0
 12 21  1  0
 12 24  1  0
 13 16  1  0
 14 18  1  0
 14 23  1  0
 15 17  1  0
 16 22  2  0
 20 22  1  0
 23 24  1  0
M  END
>  <ID>  (1) 
conformer_0

$$$$
