
     RDKit          3D

 24 26  0  0  0  0  0  0  0  0999 V2000
    7.0416    4.1428    3.6129 O   0  0  0  0  0  1  0  0  0  0  0  0
    9.4962   -2.2953    2.2348 C   0  0  0  0  0  0  0  0  0  0  0  0
    1.5014    3.2487   -0.2070 N   0  0  0  0  0  0  0  0  0  0  0  0
    0.1647    2.6897   -0.3887 C   0  0  0  0  0  0  0  0  0  0  0  0
    4.8713   -1.7652    1.0389 C   0  0  0  0  0  0  0  0  0  0  0  0
    0.2670    1.2666   -0.2373 O   0  0  0  0  0  0  0  0  0  0  0  0
    1.5548    0.6896   -0.5679 C   0  0  0  0  0  0  0  0  0  0  0  0
    5.6125    4.0539    3.1610 P   0  0  0  0  0  4  0  0  0  0  0  0
    5.8129   -1.2457    1.8816 C   0  0  0  0  0  0  0  0  0  0  0  0
    5.7829    2.7357    2.1411 O   0  0  0  0  0  0  0  0  0  0  0  0
    7.0033   -2.0468    2.3400 C   0  0  0  0  0  0  0  0  0  0  0  0
    9.4996   -3.8550    2.1841 C   0  0  0  0  0  0  0  0  0  0  0  0
    8.2288   -1.8564    1.4479 C   0  0  0  0  0  0  0  0  0  0  0  0
    4.4491    2.1960    2.0481 C   0  0  0  0  0  0  0  0  0  0  0  0
    5.0725    5.1104    2.2051 O   0  0  0  0  0  0  0  0  0  0  0  0
    7.0978   -3.3764    3.0052 C   0  0  0  0  0  0  0  0  0  0  0  0
    5.6205    0.0706    2.2067 O   0  0  0  0  0  0  0  0  0  0  0  0
    4.6552    3.7619    4.2623 O   0  0  0  0  0  0  0  0  0  0  0  0
    2.5930    1.2144    0.2793 C   0  0  0  0  0  0  0  0  0  0  0  0
    3.6644    0.3143    0.7875 C   0  0  0  0  0  0  0  0  0  0  0  0
    3.8413   -1.0056    0.4970 C   0  0  0  0  0  0  0  0  0  0  0  0
    2.1824    2.4987    0.8354 C   0  0  0  0  0  0  0  0  0  0  0  0
    8.3503   -4.3139    3.1023 C   0  0  0  0  0  0  0  0  0  0  0  0
    4.5900    0.8313    1.6844 C   0  0  0  0  0  0  0  0  0  0  0  0
  1  8  2  0
  2 12  1  0
  2 13  1  0
  3  4  1  0
  3 22  1  0
  4  6  1  0
  5  9  2  0
  5 21  1  0
  6  7  1  0
  7 19  1  0
  8 10  1  0
  8 15  1  0
  8 18  1  0
  9 11  1  0
  9 17  1  0
 10 14  1  0
 11 13  1  0
 11 16  2  0
 12 23  1  0
 14 24  1  0
 16 23  1  0
 17 24  1  0
 19 20  1  0
 19 22  1  0
 20 21  2  0
 20 24  1  0
M  END
>  <ID>  (1) 
conformer_0

$$$$
