
     RDKit          3D

 14 13  0  0  0  0  0  0  0  0999 V2000
    4.8961    3.9283    4.0581 O   0  0  0  0  0  0  0  0  0  0  0  0
    1.6876    1.1550   -0.1057 C   0  0  0  0  0  0  0  0  0  0  0  0
    7.0964   -1.3402    1.3281 C   0  0  0  0  0  0  0  0  0  0  0  0
    4.9210    4.4249    1.8728 O   0  0  0  0  0  0  0  0  0  0  0  0
    2.8424    0.6257    0.6235 C   0  0  0  0  0  0  0  0  0  0  0  0
    4.8979    3.5985    2.8209 C   0  0  0  0  0  0  0  0  0  0  0  0
    4.5674   -0.8911    1.0298 S   0  0  0  0  0  0  0  0  0  0  0  0
    6.0192   -0.4732    1.9380 C   0  0  0  0  0  0  0  0  0  0  0  0
    1.6376    2.5733   -0.0866 N   0  0  0  0  0  0  0  0  0  0  0  0
    4.8103    2.0909    2.4527 C   0  0  0  0  0  0  0  0  0  0  0  0
    7.4081   -2.5866    1.9992 C   0  0  0  0  0  0  0  0  0  0  0  0
    3.7024    1.7250    1.4387 C   0  0  0  0  0  0  0  0  0  0  0  0
    7.8564   -0.8333    0.4536 O   0  0  0  0  0  0  0  0  0  0  0  0
    0.5154    0.5235   -0.1697 O   0  0  0  0  0  0  0  0  0  0  0  0
  1  6  2  0
  2  5  1  0
  2  9  1  0
  2 14  2  0
  3  8  1  0
  3 11  1  0
  3 13  2  0
  4  6  1  0
  5  7  1  0
  5 12  1  0
  6 10  1  0
  7  8  1  0
 10 12  2  3
M  END
>  <ID>  (1) 
conformer_0

$$$$
