
     RDKit          3D

 29 31  0  0  0  0  0  0  0  0999 V2000
   -0.1820    2.0159   -0.6511 C   0  0  0  0  0  0  0  0  0  0  0  0
    1.7148    0.4285    0.1103 C   0  0  0  0  0  0  0  0  0  0  0  0
    4.1913    2.2018    1.9917 N   0  0  0  0  0  0  0  0  0  0  0  0
   10.2542    0.3721   -1.4211 C   0  0  0  0  0  0  0  0  0  0  0  0
    5.5470    0.4856    5.7039 C   0  0  0  0  0  0  0  0  0  0  0  0
    5.5370    0.4408    3.2919 C   0  0  0  0  0  0  0  0  0  0  0  0
    5.0133   -1.8207    2.8160 N   0  0  0  0  0  0  0  0  0  0  0  0
    3.1043    2.0396    1.1314 C   0  0  0  0  0  0  0  0  0  0  0  0
    9.5927   -1.0084    2.0322 C   0  0  0  0  0  0  0  0  0  0  0  0
    4.8262   -3.0879    3.6646 C   0  0  0  0  0  0  0  0  0  0  0  0
    7.4108   -1.2344    1.0499 C   0  0  0  0  0  0  0  0  0  0  0  0
    3.9843   -1.4920    1.9322 C   0  0  0  0  0  0  0  0  0  0  0  0
    8.8527   -1.5195    0.8375 C   0  0  0  0  0  0  0  0  0  0  0  0
    5.9900   -0.8891    3.0384 C   0  0  0  0  0  0  0  0  0  0  0  0
   10.4901   -0.8213   -0.6635 C   0  0  0  0  0  0  0  0  0  0  0  0
    4.5914    0.8713    2.3850 C   0  0  0  0  0  0  0  0  0  0  0  0
    2.8620    0.6176    0.9038 C   0  0  0  0  0  0  0  0  0  0  0  0
    4.4255    4.4921    1.6230 O   0  0  0  0  0  0  0  0  0  0  0  0
    4.6820    3.5188    2.3435 C   0  0  0  0  0  0  0  0  0  0  0  0
    5.8939    1.1411    4.4608 O   0  0  0  0  0  0  0  0  0  0  0  0
    2.0606    2.7546    0.4160 C   0  0  0  0  0  0  0  0  0  0  0  0
    3.7738   -0.1052    1.6822 C   0  0  0  0  0  0  0  0  0  0  0  0
    5.3026    3.7176    3.3793 O   0  0  0  0  0  0  0  0  0  0  0  0
    7.4037   -1.0002    2.6672 C   0  0  0  0  0  0  0  0  0  0  0  0
    1.1344    1.7628   -0.1581 C   0  0  0  0  0  0  0  0  0  0  0  0
   11.4691   -1.0398    0.0894 O   0  0  0  0  0  0  0  0  0  0  0  0
   -0.5553    3.2988   -0.8950 N   0  0  0  0  0  0  0  0  0  0  0  0
   -1.0862    1.1459   -0.5063 O   0  0  0  0  0  0  0  0  0  0  0  0
    9.2973   -1.6035   -0.4657 N   0  0  0  0  0  0  0  0  0  0  0  0
  1 25  1  0
  1 27  1  0
  1 28  2  0
  2 17  1  0
  2 25  1  0
  3  8  1  0
  3 16  1  0
  3 19  1  0
  4 15  1  0
  5 20  1  0
  6 14  1  0
  6 16  1  0
  6 20  1  0
  7 10  1  0
  7 12  1  0
  7 14  1  0
  8 17  2  0
  8 21  1  0
  9 13  1  0
 11 13  1  0
 11 24  1  0
 12 22  1  0
 13 29  1  0
 14 24  1  0
 15 26  2  0
 15 29  1  0
 16 22  2  0
 17 22  1  0
 18 19  2  0
 19 23  1  0
 21 25  1  0
M  END
>  <ID>  (1) 
conformer_0

$$$$
