
     RDKit          3D

 32 34  0  0  0  0  0  0  0  0999 V2000
    9.1683   -2.9136    0.3119 C   0  0  0  0  0  0  0  0  0  0  0  0
    1.9114    0.2858    0.4243 C   0  0  0  0  0  0  0  0  0  0  0  0
    4.2723    0.2333    1.1889 C   0  0  0  0  0  0  0  0  0  0  0  0
    7.4155   -2.6049    3.8230 O   0  0  0  0  0  0  0  0  0  0  0  0
    9.5039    0.8269    4.1997 C   0  0  0  0  0  0  0  0  0  0  0  0
   -1.4772    2.5575   -1.0145 C   0  0  0  0  0  0  0  0  0  0  0  0
    9.5777   -2.1795    2.7150 C   0  0  0  0  0  0  0  0  0  0  0  0
    6.3338   -0.1150    2.2743 C   0  0  0  0  0  0  0  0  0  0  0  0
    5.4775    3.4461    3.0120 P   0  0  0  0  0  4  0  0  0  0  0  0
    8.1939   -1.6840    3.0833 C   0  0  0  0  0  0  0  0  0  0  0  0
    1.8734    3.0518    0.1324 C   0  0  0  0  0  0  0  0  0  0  0  0
    5.2301    4.1531    4.4028 O   0  0  0  0  0  1  0  0  0  0  0  0
    9.5520   -3.3661    1.7633 C   0  0  0  0  0  0  0  0  0  0  0  0
    8.8059    0.7265    2.8580 C   0  0  0  0  0  0  0  0  0  0  0  0
    7.6432   -0.2720    2.9414 C   0  0  0  0  0  0  0  0  0  0  0  0
    5.3421    0.8945    1.8861 C   0  0  0  0  0  0  0  0  0  0  0  0
    6.9627    3.3806    2.6355 O   0  0  0  0  0  0  0  0  0  0  0  0
   -0.1530    2.9807   -1.1281 O   0  0  0  0  0  0  0  0  0  0  0  0
    0.7855    2.2969   -0.3986 C   0  0  0  0  0  0  0  0  0  0  0  0
    6.1428   -1.1719    1.2821 O   0  0  0  0  0  0  0  0  0  0  0  0
    7.8199   -4.0447    3.6167 C   0  0  0  0  0  0  0  0  0  0  0  0
    4.7075    4.3405    1.9535 O   0  0  0  0  0  0  0  0  0  0  0  0
    4.7906   -1.0863    0.8116 C   0  0  0  0  0  0  0  0  0  0  0  0
    8.4472    2.5426    5.6026 C   0  0  0  0  0  0  0  0  0  0  0  0
    3.0605    0.9941    0.7825 C   0  0  0  0  0  0  0  0  0  0  0  0
    4.8549    1.7582    3.0364 C   0  0  0  0  0  0  0  0  0  0  0  0
    0.7982    0.8924   -0.1509 C   0  0  0  0  0  0  0  0  0  0  0  0
    8.4193   -4.3194    2.2514 C   0  0  0  0  0  0  0  0  0  0  0  0
    9.6260    2.2519    4.6751 C   0  0  0  0  0  0  0  0  0  0  0  0
    9.1223   -0.1097    5.3356 C   0  0  0  0  0  0  0  0  0  0  0  0
    2.9431    2.3326    0.6285 C   0  0  0  0  0  0  0  0  0  0  0  0
    1.9217   -1.0656    0.6429 O   0  0  0  0  0  0  0  0  0  0  0  0
  1 13  1  0
  2 25  2  0
  2 27  1  0
  2 32  1  0
  3 16  1  0
  3 23  1  0
  3 25  1  0
  4 10  1  0
  4 21  1  0
  5 14  1  0
  5 29  1  0
  5 30  1  0
  6 18  1  0
  7 10  1  0
  7 13  1  0
  8 15  1  0
  8 16  1  0
  8 20  1  0
  9 12  2  0
  9 17  1  0
  9 22  1  0
  9 26  1  0
 10 15  1  0
 11 19  1  0
 11 31  2  0
 13 28  1  0
 14 15  1  0
 16 26  1  0
 18 19  1  0
 19 27  2  0
 20 23  1  0
 21 28  1  0
 24 29  1  0
 25 31  1  0
M  END
>  <ID>  (1) 
conformer_0

$$$$
