
     RDKit          3D

 19 20  0  0  0  0  0  0  0  0999 V2000
    5.6759   -1.9316    1.5621 C   0  0  0  0  0  0  0  0  0  0  0  0
    5.8484    1.2960    2.0676 N   0  0  0  0  0  0  0  0  0  0  0  0
    9.4879   -3.1363    0.9818 O   0  0  0  0  0  0  0  0  0  0  0  0
    8.0904   -1.3881    1.9042 C   0  0  0  0  0  0  0  0  0  0  0  0
    0.8179    2.2457   -0.1964 C   0  0  0  0  0  0  0  0  0  0  0  0
    7.8502   -3.4425    3.0916 C   0  0  0  0  0  0  0  0  0  0  0  0
    3.6921   -0.0620    0.8828 C   0  0  0  0  0  0  0  0  0  0  0  0
    6.4987    0.1810    2.8636 C   0  0  0  0  0  0  0  0  0  0  0  0
    8.5417   -2.8007    1.9332 C   0  0  0  0  0  0  0  0  0  0  0  0
    6.7448   -2.4591    3.6363 C   0  0  0  0  0  0  0  0  0  0  0  0
    6.6821   -1.3167    2.5221 C   0  0  0  0  0  0  0  0  0  0  0  0
    7.2064    3.0951    2.7942 O   0  0  0  0  0  0  0  0  0  0  0  0
    6.1231    2.6176    2.5073 C   0  0  0  0  0  0  0  0  0  0  0  0
   -0.0090    1.3053   -0.4059 O   0  0  0  0  0  0  0  0  0  0  0  0
    2.1347    1.9365    0.5210 C   0  0  0  0  0  0  0  0  0  0  0  0
    3.4642    2.4409    1.5699 S   0  0  0  0  0  0  0  0  0  0  0  0
    0.5290    3.5579   -0.2886 N   0  0  0  0  0  0  0  0  0  0  0  0
    4.5137    1.0787    1.5195 C   0  0  0  0  0  0  0  0  0  0  0  0
    2.5135    0.4767    0.0998 C   0  0  0  0  0  0  0  0  0  0  0  0
  1 11  1  0
  2  8  1  0
  2 13  1  0
  2 18  1  0
  3  9  1  0
  4  9  1  0
  4 11  1  0
  5 14  2  0
  5 15  1  0
  5 17  1  0
  6  9  1  0
  6 10  1  0
  7 18  1  0
  7 19  1  0
  8 11  1  0
 10 11  1  0
 12 13  2  0
 15 16  1  0
 15 19  1  0
 16 18  1  0
M  END
>  <ID>  (1) 
conformer_0

$$$$
