
     RDKit          3D

 28 30  0  0  0  0  0  0  0  0999 V2000
    3.9723   -2.9311    3.7415 O   0  0  0  0  0  0  0  0  0  0  0  0
    5.2250   -1.3449    2.6088 O   0  0  0  0  0  0  0  0  0  0  0  0
    3.7729    3.3575    1.5614 C   0  0  0  0  0  0  0  0  0  0  0  0
    3.0627    1.1145    1.0322 C   0  0  0  0  0  0  0  0  0  0  0  0
    2.7994    2.4401    0.8272 C   0  0  0  0  0  0  0  0  0  0  0  0
    5.3440    1.3082    2.2841 C   0  0  0  0  0  0  0  0  0  0  0  0
    7.6123   -1.8910    2.1552 C   0  0  0  0  0  0  0  0  0  0  0  0
    5.0110   -2.7522    2.9996 C   0  0  0  0  0  0  0  0  0  0  0  0
    6.5043   -0.9145    2.0460 C   0  0  0  0  0  0  0  0  0  0  0  0
    6.6537    0.5373    2.1285 C   0  0  0  0  0  0  0  0  0  0  0  0
    4.2905    0.5562    1.5622 C   0  0  0  0  0  0  0  0  0  0  0  0
    7.6176    1.2093    1.4437 O   0  0  0  0  0  0  0  0  0  0  0  0
    1.6967    2.7850    0.0467 N   0  0  0  0  0  0  0  0  0  0  0  0
    2.1457    0.1868    0.6981 C   0  0  0  0  0  0  0  0  0  0  0  0
    0.9834    0.5616    0.0700 N   0  0  0  0  0  0  0  0  0  0  0  0
    9.8250   -1.7169    1.2598 C   0  0  0  0  0  0  0  0  0  0  0  0
    4.6782    2.6955    2.6278 C   0  0  0  0  0  0  0  0  0  0  0  0
    2.6687   -1.1630    1.0973 C   0  0  0  0  0  0  0  0  0  0  0  0
    5.1479    3.1768    5.1097 O   0  0  0  0  0  1  0  0  0  0  0  0
    5.3338    5.1493    3.5470 O   0  0  0  0  0  0  0  0  0  0  0  0
    7.1465    3.4739    3.5204 O   0  0  0  0  0  0  0  0  0  0  0  0
    8.3866   -1.9784    0.9320 O   0  0  0  0  0  0  0  0  0  0  0  0
    0.8448    1.8320   -0.2912 C   0  0  0  0  0  0  0  0  0  0  0  0
    1.8713   -2.0988    1.4067 O   0  0  0  0  0  0  0  0  0  0  0  0
    5.8294   -3.6933    2.8110 O   0  0  0  0  0  0  0  0  0  0  0  0
    4.0602   -0.9235    1.7631 C   0  0  0  0  0  0  0  0  0  0  0  0
   -0.2748    2.1690   -1.0181 N   0  0  0  0  0  0  0  0  0  0  0  0
    5.6073    3.6544    3.7234 P   0  0  0  0  0  4  0  0  0  0  0  0
  1  8  2  0
  2  8  1  0
  2  9  1  0
  3  5  1  0
  3 17  1  0
  4  5  1  0
  4 11  1  0
  4 14  2  0
  5 13  2  0
  6 10  1  0
  6 11  1  0
  6 17  1  0
  7  9  1  0
  7 22  1  0
  8 25  1  0
  9 10  1  0
 10 12  1  0
 11 26  1  0
 13 23  1  0
 14 15  1  0
 14 18  1  0
 15 23  1  0
 16 22  1  0
 17 28  1  0
 18 24  2  0
 18 26  1  0
 19 28  2  0
 20 28  1  0
 21 28  1  0
 23 27  2  0
M  END
>  <ID>  (1) 
conformer_0

$$$$
