
     RDKit          3D

 31 32  0  0  0  0  0  0  0  0999 V2000
    6.4449    0.6362    1.9028 C   0  0  0  0  0  0  0  0  0  0  0  0
    7.5809   -1.2789    1.1242 C   0  0  0  0  0  0  0  0  0  0  0  0
    8.9284   -4.6615    2.8343 O   0  0  0  0  0  0  0  0  0  0  0  0
    5.1422   -1.4443    1.3634 C   0  0  0  0  0  0  0  0  0  0  0  0
    0.1283    2.6134   -0.5057 C   0  0  0  0  0  0  0  0  0  0  0  0
    3.9545   -1.2445    0.7953 O   0  0  0  0  0  0  0  0  0  0  0  0
    7.8363   -4.7839    3.4626 C   0  0  0  0  0  0  0  0  0  0  0  0
    5.2875   -2.5631    2.1673 C   0  0  0  0  0  0  0  0  0  0  0  0
    6.7153   -3.9711    3.4415 N   0  0  0  0  0  0  0  0  0  0  0  0
    1.7386   -0.7034    0.2191 C   0  0  0  0  0  0  0  0  0  0  0  0
    9.2803    2.3994    4.9680 O   0  0  0  0  0  0  0  0  0  0  0  0
    6.5701   -3.0364    2.4529 C   0  0  0  0  0  0  0  0  0  0  0  0
    0.7960    0.2496   -0.0595 N   0  0  0  0  0  0  0  0  0  0  0  0
    2.4663    1.9397   -0.0422 C   0  0  0  0  0  0  0  0  0  0  0  0
    7.6721   -2.4774    1.8215 C   0  0  0  0  0  0  0  0  0  0  0  0
    6.3377   -0.6522    1.3017 C   0  0  0  0  0  0  0  0  0  0  0  0
    3.3817    0.9899    0.2698 C   0  0  0  0  0  0  0  0  0  0  0  0
    5.1158    4.8168    3.8802 O   0  0  0  0  0  0  0  0  0  0  0  0
   -1.0571    2.3800   -0.7029 O   0  0  0  0  0  0  0  0  0  0  0  0
    0.5717    3.8866   -0.4168 N   0  0  0  0  0  0  0  0  0  0  0  0
    7.3133    3.1563    3.9378 C   0  0  0  0  0  0  0  0  0  0  0  0
    4.8481    4.0745    1.7735 O   0  0  0  0  0  0  0  0  0  0  0  0
    6.1800    1.9250    2.1071 C   0  0  0  0  0  0  0  0  0  0  0  0
    3.0361   -0.3160    0.4248 C   0  0  0  0  0  0  0  0  0  0  0  0
    7.6886   -5.9000    4.4120 C   0  0  0  0  0  0  0  0  0  0  0  0
    5.2407    3.9236    2.9794 C   0  0  0  0  0  0  0  0  0  0  0  0
    1.1133    1.5870   -0.2219 C   0  0  0  0  0  0  0  0  0  0  0  0
    5.1362    1.7817    4.3494 C   0  0  0  0  0  0  0  0  0  0  0  0
    6.0315    2.6436    3.3893 C   0  0  0  0  0  0  0  0  0  0  0  0
    4.0623   -3.0889    2.8297 C   0  0  0  0  0  0  0  0  0  0  0  0
    8.6125    2.5381    3.7267 C   0  0  0  0  0  0  0  0  0  0  0  0
  1 16  2  0
  1 23  2  0
  2 15  1  0
  2 16  1  0
  3  7  2  0
  4  6  1  0
  4  8  1  0
  4 16  1  0
  5 19  2  0
  5 20  1  0
  5 27  1  0
  6 24  1  0
  7  9  1  0
  7 25  1  0
  8 12  1  0
  8 30  1  0
  9 12  1  0
 10 13  2  0
 10 24  1  0
 11 31  1  0
 12 15  2  0
 13 27  1  0
 14 17  1  0
 14 27  2  0
 17 24  2  0
 18 26  2  0
 21 29  1  0
 21 31  1  0
 22 26  1  0
 23 29  1  0
 26 29  1  0
 28 29  1  0
M  END
>  <ID>  (1) 
conformer_0

$$$$
