
     RDKit          3D

 32 34  0  0  0  0  0  0  0  0999 V2000
    9.2177   -2.7141    1.1945 C   0  0  0  0  0  0  0  0  0  0  0  0
    6.7550    3.1501    2.9701 O   0  0  0  0  0  0  0  0  0  0  0  0
    1.7272    2.3151    0.2666 C   0  0  0  0  0  0  0  0  0  0  0  0
    9.9711   -2.0442    2.4061 C   0  0  0  0  0  0  0  0  0  0  0  0
    3.0208   -0.1814    0.7807 C   0  0  0  0  0  0  0  0  0  0  0  0
    0.2426    1.4055   -1.2262 O   0  0  0  0  0  0  0  0  0  0  0  0
    5.9021    2.1888    5.3086 C   0  0  0  0  0  0  0  0  0  0  0  0
    8.3171    2.0116    1.4101 O   0  0  0  0  0  0  0  0  0  0  0  0
    3.5542   -1.4541    1.3237 C   0  0  0  0  0  0  0  0  0  0  0  0
    1.2414    1.1753   -0.3598 C   0  0  0  0  0  0  0  0  0  0  0  0
    8.3270   -1.6451    0.4776 C   0  0  0  0  0  0  0  0  0  0  0  0
    6.8660   -2.6420    3.0572 C   0  0  0  0  0  0  0  0  0  0  0  0
    2.6691   -2.4467    1.8273 C   0  0  0  0  0  0  0  0  0  0  0  0
    9.0569   -1.2559    3.3882 C   0  0  0  0  0  0  0  0  0  0  0  0
    6.9401    0.9491    5.2521 C   0  0  0  0  0  0  0  0  0  0  0  0
    5.6813    3.4803    4.0594 P   0  0  0  0  0  4  0  0  0  0  0  0
    7.8639    2.0630    2.8868 S   0  0  0  0  0  4  0  0  0  0  0  0
    1.8790   -0.0805   -0.0543 C   0  0  0  0  0  0  0  0  0  0  0  0
    2.9013    2.2087    0.9897 C   0  0  0  0  0  0  0  0  0  0  0  0
    5.8277    5.0357    4.2001 O   0  0  0  0  0  1  0  0  0  0  0  0
    3.5666    1.0324    1.1751 C   0  0  0  0  0  0  0  0  0  0  0  0
    6.9311    0.5358    3.5991 S   0  0  0  0  0  0  0  0  0  0  0  0
    9.0474    2.3769    3.8811 O   0  0  0  0  0  0  0  0  0  0  0  0
    7.5369   -0.7874    1.3779 N   0  0  0  0  0  0  0  0  0  0  0  0
    7.5191   -1.2036    2.8465 C   0  0  0  0  0  0  0  0  0  0  0  0
    4.4901   -3.5383    2.9852 N   0  0  0  0  0  0  0  0  0  0  0  0
    4.8710   -1.6777    1.5602 C   0  0  0  0  0  0  0  0  0  0  0  0
    3.1524   -3.4390    2.6838 C   0  0  0  0  0  0  0  0  0  0  0  0
    5.3782   -2.6214    2.4688 C   0  0  0  0  0  0  0  0  0  0  0  0
   -0.5732    2.5899   -0.8722 C   0  0  0  0  0  0  0  0  0  0  0  0
    4.5555    1.3236    5.5521 C   0  0  0  0  0  0  0  0  0  0  0  0
    4.2483    3.3236    3.5968 O   0  0  0  0  0  0  0  0  0  0  0  0
  1  4  1  0
  1 11  1  0
  2 16  1  0
  2 17  1  0
  3 10  2  0
  3 19  1  0
  4 14  1  0
  5  9  1  0
  5 18  2  0
  5 21  1  0
  6 10  1  0
  6 30  1  0
  7 15  1  0
  7 16  1  0
  7 31  1  0
  8 17  1  0
  9 13  2  0
  9 27  1  0
 10 18  1  0
 11 24  2  0
 12 25  1  0
 12 29  1  0
 13 28  1  0
 14 25  1  0
 16 20  2  0
 16 32  1  0
 17 22  1  0
 17 23  1  0
 19 21  2  0
 22 25  1  0
 24 25  1  0
 26 28  2  0
 26 29  1  0
 27 29  2  0
M  END
>  <ID>  (1) 
conformer_0

$$$$
