
     RDKit          3D

 33 34  0  0  0  0  0  0  0  0999 V2000
    9.7968    0.3359   -0.2295 C   0  0  0  0  0  0  0  0  0  0  0  0
   11.3865   -0.3382   -1.7946 C   0  0  0  0  0  0  0  0  0  0  0  0
    7.0427    3.1438    3.3885 C   0  0  0  0  0  0  0  0  0  0  0  0
    1.4117    3.5060   -0.1175 O   0  0  0  0  0  0  0  0  0  0  0  0
    4.8723   -1.9488    2.5991 C   0  0  0  0  0  0  0  0  0  0  0  0
    5.5990    3.3091    3.3179 C   0  0  0  0  0  0  0  0  0  0  0  0
    7.9734    2.0786    3.9959 C   0  0  0  0  0  0  0  0  0  0  0  0
    5.0240    3.0833    4.5452 O   0  0  0  0  0  0  0  0  0  0  0  0
    2.5359    0.1669    0.6352 C   0  0  0  0  0  0  0  0  0  0  0  0
    5.6342   -1.9140    5.0690 N   0  0  0  0  0  0  0  0  0  0  0  0
    6.3368    2.6664    2.3362 O   0  0  0  0  0  0  0  0  0  0  0  0
    4.6005    4.1514    2.4873 C   0  0  0  0  0  0  0  0  0  0  0  0
    8.1239    0.5983    1.6793 C   0  0  0  0  0  0  0  0  0  0  0  0
    3.1787    2.3946    1.1254 C   0  0  0  0  0  0  0  0  0  0  0  0
    1.9775    2.4296    0.3671 C   0  0  0  0  0  0  0  0  0  0  0  0
    3.5744    0.9989    1.1009 C   0  0  0  0  0  0  0  0  0  0  0  0
    4.4725   -1.3985    5.7685 O   0  0  0  0  0  0  0  0  0  0  0  0
    4.8272   -3.3329    2.6220 O   0  0  0  0  0  0  0  0  0  0  0  0
    0.4188    0.7007   -0.3843 O   0  0  0  0  0  0  0  0  0  0  0  0
    5.7116   -1.3661    3.6867 C   0  0  0  0  0  0  0  0  0  0  0  0
    4.9512    5.2883    2.2333 O   0  0  0  0  0  0  0  0  0  0  0  0
   11.2611    0.0467   -0.3270 C   0  0  0  0  0  0  0  0  0  0  0  0
    8.0840   -0.8036    1.1041 O   0  0  0  0  0  0  0  0  0  0  0  0
    6.8890   -1.9244    5.8586 C   0  0  0  0  0  0  0  0  0  0  0  0
    4.4051   -1.2816    1.3453 C   0  0  0  0  0  0  0  0  0  0  0  0
    6.9194   -0.3705    3.6576 C   0  0  0  0  0  0  0  0  0  0  0  0
    2.9357   -1.3032    0.9219 C   0  0  0  0  0  0  0  0  0  0  0  0
    3.5949    3.5278    1.8702 N   0  0  0  0  0  0  0  0  0  0  0  0
    8.9987   -0.9839   -0.0468 C   0  0  0  0  0  0  0  0  0  0  0  0
    9.5654    1.6777   -0.3763 O   0  0  0  0  0  0  0  0  0  0  0  0
    1.5450    1.1056    0.1402 C   0  0  0  0  0  0  0  0  0  0  0  0
    7.8494    0.7858    3.1813 C   0  0  0  0  0  0  0  0  0  0  0  0
    4.6921    0.1949    1.3554 O   0  0  0  0  0  0  0  0  0  0  0  0
  1 22  1  0
  1 29  1  0
  1 30  1  0
  2 22  1  0
  3  7  1  0
  3 11  1  0
  4 15  1  0
  5 18  1  0
  5 20  1  0
  5 25  1  0
  6  8  1  0
  6 12  1  0
  7 32  1  0
  9 16  2  0
  9 27  1  0
  9 31  1  0
 10 17  1  0
 10 20  1  0
 10 24  1  0
 12 21  2  0
 12 28  1  0
 13 23  1  0
 13 32  1  0
 14 15  1  0
 14 16  1  0
 14 28  1  0
 15 31  2  0
 16 33  1  0
 19 31  1  0
 20 26  2  0
 23 29  1  0
 25 27  1  0
 25 33  1  0
 26 32  2  0
M  END
>  <ID>  (1) 
conformer_0

$$$$
