
     RDKit          3D

 33 36  0  0  0  0  0  0  0  0999 V2000
    7.9786    3.1502    3.6136 N   0  0  0  0  0  0  0  0  0  0  0  0
    9.4820   -3.5670    1.1117 C   0  0  0  0  0  0  0  0  0  0  0  0
    1.6804    2.7495   -0.4254 N   0  0  0  0  0  0  0  0  0  0  0  0
    0.2603    0.4249   -0.1359 N   0  0  0  0  0  0  0  0  0  0  0  0
    0.2663    2.8542   -0.4284 C   0  0  0  0  0  0  0  0  0  0  0  0
    4.2307   -1.6769    2.0935 C   0  0  0  0  0  0  0  0  0  0  0  0
    5.6366    4.1286    3.1884 C   0  0  0  0  0  0  0  0  0  0  0  0
    7.4657   -0.8307    0.8565 C   0  0  0  0  0  0  0  0  0  0  0  0
    6.6237    2.9925    3.2918 C   0  0  0  0  0  0  0  0  0  0  0  0
    8.3230    0.7706    3.0737 C   0  0  0  0  0  0  0  0  0  0  0  0
    9.2102   -2.4252    0.1517 C   0  0  0  0  0  0  0  0  0  0  0  0
    5.0078    4.3786    4.2111 O   0  0  0  0  0  0  0  0  0  0  0  0
    6.1549    1.7570    2.9423 C   0  0  0  0  0  0  0  0  0  0  0  0
    2.2221   -0.7122    0.8394 C   0  0  0  0  0  0  0  0  0  0  0  0
    2.6229    3.8106   -0.4644 O   0  0  0  0  0  0  0  0  0  0  0  0
    5.6006   -1.5032    2.4985 C   0  0  0  0  0  0  0  0  0  0  0  0
    1.5518    0.4347    0.3257 C   0  0  0  0  0  0  0  0  0  0  0  0
    3.5243   -2.7498    2.6552 C   0  0  0  0  0  0  0  0  0  0  0  0
    8.8104    1.9945    3.5035 C   0  0  0  0  0  0  0  0  0  0  0  0
    3.5039   -0.6075    1.3667 C   0  0  0  0  0  0  0  0  0  0  0  0
    5.2540    4.4356    2.0132 O   0  0  0  0  0  0  0  0  0  0  0  0
    4.0985    0.6307    1.2911 C   0  0  0  0  0  0  0  0  0  0  0  0
    6.4738   -0.5177    1.9178 N   0  0  0  0  0  0  0  0  0  0  0  0
    2.2374    1.6604    0.2461 C   0  0  0  0  0  0  0  0  0  0  0  0
   -0.3700    1.5369   -0.6707 C   0  0  0  0  0  0  0  0  0  0  0  0
    6.0409   -2.2697    3.5013 N   0  0  0  0  0  0  0  0  0  0  0  0
    2.0630   -2.9681    2.3612 C   0  0  0  0  0  0  0  0  0  0  0  0
    5.3749   -3.3192    4.0514 N   0  0  0  0  0  0  0  0  0  0  0  0
   10.1821   -1.2764    0.2392 C   0  0  0  0  0  0  0  0  0  0  0  0
    4.0920   -3.5867    3.5751 C   0  0  0  0  0  0  0  0  0  0  0  0
    6.9566    0.6725    2.6773 C   0  0  0  0  0  0  0  0  0  0  0  0
    7.8382   -2.0341    0.4160 O   0  0  0  0  0  0  0  0  0  0  0  0
    3.5089    1.7545    0.7974 C   0  0  0  0  0  0  0  0  0  0  0  0
  1  9  2  0
  1 19  1  0
  2 11  1  0
  3  5  1  0
  3 15  1  0
  3 24  1  0
  4 17  2  0
  4 25  1  0
  5 25  1  0
  6 16  1  0
  6 18  1  0
  6 20  1  0
  7  9  1  0
  7 12  2  0
  7 21  1  0
  8 23  1  0
  8 32  1  0
  9 13  1  0
 10 19  2  0
 10 31  1  0
 11 29  1  0
 11 32  1  0
 13 31  2  0
 14 17  1  0
 14 20  2  0
 16 23  1  0
 16 26  2  0
 17 24  1  0
 18 27  1  0
 18 30  2  0
 20 22  1  0
 22 33  2  0
 23 31  1  0
 24 33  1  0
 26 28  1  0
 28 30  1  0
M  END
>  <ID>  (1) 
conformer_0

$$$$
