
     RDKit          3D

 24 25  0  0  0  0  0  0  0  0999 V2000
    3.4063    2.4105    0.8624 O   0  0  0  0  0  0  0  0  0  0  0  0
    6.7935   -1.4397    1.1781 C   0  0  0  0  0  0  0  0  0  0  0  0
    6.7884   -3.3335    2.7383 C   0  0  0  0  0  0  0  0  0  0  0  0
    5.4104   -1.3194    1.3510 C   0  0  0  0  0  0  0  0  0  0  0  0
    7.5037   -2.4367    1.9017 C   0  0  0  0  0  0  0  0  0  0  0  0
    7.8348    2.6615    3.4893 C   0  0  0  0  0  0  0  0  0  0  0  0
    1.2178   -0.2383    0.0342 N   0  0  0  0  0  0  0  0  0  0  0  0
    4.5458    3.4964    2.7755 C   0  0  0  0  0  0  0  0  0  0  0  0
    4.6993   -0.2302    0.7761 N   0  0  0  0  0  0  0  0  0  0  0  0
    7.5030    3.2262    4.6270 O   0  0  0  0  0  0  0  0  0  0  0  0
    5.4089    2.2723    3.1466 C   0  0  0  0  0  0  0  0  0  0  0  0
    5.3834   -3.2319    2.8828 C   0  0  0  0  0  0  0  0  0  0  0  0
    9.4310   -3.5494    1.1002 C   0  0  0  0  0  0  0  0  0  0  0  0
    3.3859    0.0277    0.6069 C   0  0  0  0  0  0  0  0  0  0  0  0
   -0.6068    2.0058   -0.6532 N   0  0  0  0  0  0  0  0  0  0  0  0
    0.6416    2.1631   -0.3762 C   0  0  0  0  0  0  0  0  0  0  0  0
    6.7993    2.4234    2.4938 C   0  0  0  0  0  0  0  0  0  0  0  0
    8.8778   -2.4673    1.8957 O   0  0  0  0  0  0  0  0  0  0  0  0
    1.1332    3.4149   -0.3404 N   0  0  0  0  0  0  0  0  0  0  0  0
    4.7187   -2.2442    2.1812 C   0  0  0  0  0  0  0  0  0  0  0  0
    2.3907   -0.9068    0.3631 C   0  0  0  0  0  0  0  0  0  0  0  0
    1.4593    1.1087    0.0461 C   0  0  0  0  0  0  0  0  0  0  0  0
    4.0177    3.4207    1.3883 C   0  0  0  0  0  0  0  0  0  0  0  0
    2.7981    1.2777    0.5081 C   0  0  0  0  0  0  0  0  0  0  0  0
  1 23  1  0
  1 24  1  0
  2  4  2  0
  2  5  1  0
  3  5  2  0
  3 12  1  0
  4  9  1  0
  4 20  1  0
  5 18  1  0
  6 10  1  0
  6 17  1  0
  7 21  1  0
  7 22  1  0
  8 11  1  0
  8 23  1  0
  9 14  1  0
 11 17  1  0
 12 20  2  0
 13 18  1  0
 14 21  1  0
 14 24  1  0
 15 16  2  0
 16 19  1  0
 16 22  1  0
 22 24  2  0
M  END
>  <ID>  (1) 
conformer_0

$$$$
