
     RDKit          3D

 22 23  0  0  0  0  0  0  0  0999 V2000
    0.2322    2.2065   -0.7337 N   0  0  0  0  0  0  0  0  0  0  0  0
    3.9513   -2.4220    2.2630 C   0  0  0  0  0  0  0  0  0  0  0  0
    3.1230    3.8107    0.6863 C   0  0  0  0  0  0  0  0  0  0  0  0
    3.8065    2.7508    1.1835 N   0  0  0  0  0  0  0  0  0  0  0  0
    7.5906    2.2990    3.1893 P   0  0  0  0  0  4  0  0  0  0  0  0
    3.5446    0.2676    0.8311 C   0  0  0  0  0  0  0  0  0  0  0  0
    7.4876    0.7152    2.4793 O   0  0  0  0  0  0  0  0  0  0  0  0
    9.1151    2.6596    3.2346 O   0  0  0  0  0  1  0  0  0  0  0  0
    6.3955   -1.5788    2.3496 N   0  0  0  0  0  0  0  0  0  0  0  0
    8.3764   -1.9565    0.5012 C   0  0  0  0  0  0  0  0  0  0  0  0
    6.8492   -0.3984    3.0391 C   0  0  0  0  0  0  0  0  0  0  0  0
    3.2510    1.6204    0.8122 C   0  0  0  0  0  0  0  0  0  0  0  0
    4.8388   -0.3069    1.0859 C   0  0  0  0  0  0  0  0  0  0  0  0
    2.4654   -0.5247    0.3730 C   0  0  0  0  0  0  0  0  0  0  0  0
    8.4725   -2.8287    1.8238 C   0  0  0  0  0  0  0  0  0  0  0  0
    2.0232    3.3408   -0.0416 N   0  0  0  0  0  0  0  0  0  0  0  0
    6.7435    3.1526    2.2638 O   0  0  0  0  0  0  0  0  0  0  0  0
    5.1415   -1.5696    1.6815 C   0  0  0  0  0  0  0  0  0  0  0  0
    1.4546    0.3248   -0.0938 C   0  0  0  0  0  0  0  0  0  0  0  0
    6.9986    2.3496    4.6681 O   0  0  0  0  0  0  0  0  0  0  0  0
    1.7594    1.9008   -0.0134 C   0  0  0  0  0  0  0  0  0  0  0  0
    7.1281   -2.8756    2.5228 C   0  0  0  0  0  0  0  0  0  0  0  0
  1 21  1  0
  2 18  1  0
  3  4  1  0
  3 16  1  0
  4 12  1  0
  5  7  1  0
  5  8  2  0
  5 17  1  0
  5 20  1  0
  6 12  2  0
  6 13  1  0
  6 14  1  0
  7 11  1  0
  9 11  1  0
  9 18  1  0
  9 22  1  0
 10 15  1  0
 12 21  1  0
 13 18  1  0
 14 19  1  0
 15 22  1  0
 16 21  1  0
 19 21  1  0
M  END
>  <ID>  (1) 
conformer_0

$$$$
