
     RDKit          3D

 21 23  0  0  0  0  0  0  0  0999 V2000
    7.9821   -2.3891    2.8747 C   0  0  0  0  0  0  0  0  0  0  0  0
    7.4057   -1.2917    3.7640 C   0  0  0  0  0  0  0  0  0  0  0  0
    0.4743    1.5408   -0.3031 C   0  0  0  0  0  0  0  0  0  0  0  0
    2.9698    1.9488    0.8048 C   0  0  0  0  0  0  0  0  0  0  0  0
    8.0476   -3.9378    2.7035 C   0  0  0  0  0  0  0  0  0  0  0  0
    1.1400    0.5271    0.2910 N   0  0  0  0  0  0  0  0  0  0  0  0
   -0.7736    1.3828   -0.7306 O   0  0  0  0  0  0  0  0  0  0  0  0
    2.3144    2.9476    0.1527 C   0  0  0  0  0  0  0  0  0  0  0  0
    6.0365    1.1020    3.0930 C   0  0  0  0  0  0  0  0  0  0  0  0
    6.6207   -0.3295    2.9263 N   0  0  0  0  0  0  0  0  0  0  0  0
    6.4708   -0.9312    1.5656 C   0  0  0  0  0  0  0  0  0  0  0  0
    6.1899    2.6978    3.6297 C   0  0  0  0  0  0  0  0  0  0  0  0
    4.8870    1.0703    2.0733 C   0  0  0  0  0  0  0  0  0  0  0  0
    4.3065    3.5925    2.0578 C   0  0  0  0  0  0  0  0  0  0  0  0
    2.3904    0.7119    0.7785 C   0  0  0  0  0  0  0  0  0  0  0  0
    1.0958    2.7418   -0.4326 N   0  0  0  0  0  0  0  0  0  0  0  0
    4.9753    3.7575    3.3871 C   0  0  0  0  0  0  0  0  0  0  0  0
    6.3176    2.5697    5.0261 O   0  0  0  0  0  0  0  0  0  0  0  0
    7.3116    3.1797    2.9730 O   0  0  0  0  0  0  0  0  0  0  0  0
    4.1865    2.2156    1.5967 C   0  0  0  0  0  0  0  0  0  0  0  0
    7.6501   -1.9197    1.4325 C   0  0  0  0  0  0  0  0  0  0  0  0
  1  2  1  0
  1  5  1  0
  1 21  1  0
  2 10  1  0
  3  6  1  0
  3  7  2  0
  3 16  1  0
  4  8  2  0
  4 15  1  0
  4 20  1  0
  6 15  2  0
  8 16  1  0
  9 10  1  0
  9 12  1  0
  9 13  1  0
 10 11  1  0
 11 21  1  0
 12 17  1  0
 12 18  1  0
 12 19  1  0
 13 20  2  0
 14 17  1  0
 14 20  1  0
M  END
>  <ID>  (1) 
conformer_0

$$$$
