
     RDKit          3D

 30 33  0  0  0  0  0  0  0  0999 V2000
    7.4642    1.4109    2.4071 C   0  0  0  0  0  0  0  0  0  0  0  0
    7.0895   -2.9462    2.0469 C   0  0  0  0  0  0  0  0  0  0  0  0
    2.7404   -1.1081    0.9227 C   0  0  0  0  0  0  0  0  0  0  0  0
    8.4192    1.7261    1.4302 O   0  0  0  0  0  0  0  0  0  0  0  0
    7.6970    3.3770    3.7905 O   0  0  0  0  0  0  0  0  0  0  0  0
    3.8661    0.9977    1.4699 C   0  0  0  0  0  0  0  0  0  0  0  0
    4.8753    3.6784    3.4025 O   0  0  0  0  0  0  0  0  0  0  0  0
    5.5324    2.7649    2.7233 C   0  0  0  0  0  0  0  0  0  0  0  0
    5.8521   -4.4625    3.4284 O   0  0  0  0  0  0  0  0  0  0  0  0
    6.2689    0.6850    1.9619 C   0  0  0  0  0  0  0  0  0  0  0  0
    7.1219   -1.6912    1.4644 C   0  0  0  0  0  0  0  0  0  0  0  0
    3.7549   -2.5090    3.7897 C   0  0  0  0  0  0  0  0  0  0  0  0
    3.5885   -3.5080    4.5735 O   0  0  0  0  0  0  0  0  0  0  0  0
    9.0528   -2.3652    0.1825 C   0  0  0  0  0  0  0  0  0  0  0  0
    6.9717    2.6781    3.0281 C   0  0  0  0  0  0  0  0  0  0  0  0
    4.8110   -2.3774    2.8213 C   0  0  0  0  0  0  0  0  0  0  0  0
    3.7735   -0.4125    1.4905 C   0  0  0  0  0  0  0  0  0  0  0  0
    2.9169    1.9200    0.9336 C   0  0  0  0  0  0  0  0  0  0  0  0
    6.1423   -0.7343    1.7924 C   0  0  0  0  0  0  0  0  0  0  0  0
    0.9530    3.9019   -0.2388 N   0  0  0  0  0  0  0  0  0  0  0  0
    4.8571   -1.2210    2.0406 C   0  0  0  0  0  0  0  0  0  0  0  0
    3.2110    3.2090    1.0101 O   0  0  0  0  0  0  0  0  0  0  0  0
    5.1074    1.5457    2.0300 C   0  0  0  0  0  0  0  0  0  0  0  0
    1.6789    1.6530    0.2756 C   0  0  0  0  0  0  0  0  0  0  0  0
    1.0783    0.4064    0.0916 C   0  0  0  0  0  0  0  0  0  0  0  0
    5.9236   -3.2775    2.7981 C   0  0  0  0  0  0  0  0  0  0  0  0
    1.6240   -0.8007    0.3328 C   0  0  0  0  0  0  0  0  0  0  0  0
    8.0560   -1.3787    0.5059 O   0  0  0  0  0  0  0  0  0  0  0  0
    0.9289    2.6376   -0.4604 C   0  0  0  0  0  0  0  0  0  0  0  0
   -0.0989    0.3909   -0.4188 O   0  0  0  0  0  0  0  0  0  0  0  0
  1  4  1  0
  1 10  1  0
  1 15  1  0
  2 11  1  0
  2 26  2  0
  3 17  1  0
  3 27  2  0
  5 15  2  0
  6 17  2  0
  6 18  1  0
  6 23  1  0
  7  8  1  0
  8 15  1  0
  8 23  1  0
  9 26  1  0
 10 19  1  0
 10 23  1  0
 11 19  1  0
 11 28  1  0
 12 13  2  0
 12 16  1  0
 14 28  1  0
 16 21  1  0
 16 26  1  0
 17 21  1  0
 18 22  1  0
 18 24  2  0
 19 21  1  0
 20 29  2  0
 24 25  1  0
 24 29  1  0
 25 27  1  0
 25 30  2  0
M  END
>  <ID>  (1) 
conformer_0

$$$$
