
     RDKit          3D

 40 44  0  0  0  0  0  0  0  0999 V2000
    3.3431    1.7872    0.9551 C   0  0  0  0  0  0  0  0  0  0  0  0
    1.5838    0.3495    0.2917 C   0  0  0  0  0  0  0  0  0  0  0  0
    5.4094   -1.3964    2.7507 C   0  0  0  0  0  0  0  0  0  0  0  0
    5.6063    3.1199    2.2084 O   0  0  0  0  0  0  0  0  0  0  0  0
    9.6804   -0.9338   -1.3605 C   0  0  0  0  0  0  0  0  0  0  0  0
    3.1031   -4.7408    3.4363 O   0  0  0  0  0  0  0  0  0  0  0  0
    9.2755   -1.8661   -0.1360 C   0  0  0  0  0  0  0  0  0  0  0  0
    3.5487   -2.7730    2.1967 N   0  0  0  0  0  0  0  0  0  0  0  0
    1.3417    2.6350   -0.1849 N   0  0  0  0  0  0  0  0  0  0  0  0
    3.3721    3.0777    1.1377 N   0  0  0  0  0  0  0  0  0  0  0  0
   10.3879    1.3996   -0.7432 C   0  0  0  0  0  0  0  0  0  0  0  0
    3.9179   -3.6480    3.1745 C   0  0  0  0  0  0  0  0  0  0  0  0
    6.4848    2.1169    2.7557 C   0  0  0  0  0  0  0  0  0  0  0  0
    9.9576   -3.9343    1.4990 C   0  0  0  0  0  0  0  0  0  0  0  0
   10.2666    1.4193    0.7901 C   0  0  0  0  0  0  0  0  0  0  0  0
    0.3306    0.1521   -0.1585 N   0  0  0  0  0  0  0  0  0  0  0  0
    3.5833   -0.5488    1.2498 C   0  0  0  0  0  0  0  0  0  0  0  0
   10.4166   -2.6023    2.0677 C   0  0  0  0  0  0  0  0  0  0  0  0
    9.7550    3.0577    3.6278 O   0  0  0  0  0  0  0  0  0  0  0  0
    9.8325   -0.0180    2.9008 C   0  0  0  0  0  0  0  0  0  0  0  0
    2.1140    1.6755    0.3653 C   0  0  0  0  0  0  0  0  0  0  0  0
   -0.6585    3.4539   -1.0719 F   0  0  0  0  0  0  0  0  0  0  0  0
    5.7755   -2.3090    3.7066 C   0  0  0  0  0  0  0  0  0  0  0  0
   10.9404   -0.0220   -1.1253 C   0  0  0  0  0  0  0  0  0  0  0  0
   10.2868   -1.5133    0.9991 C   0  0  0  0  0  0  0  0  0  0  0  0
    4.0749    0.7181    1.1963 N   0  0  0  0  0  0  0  0  0  0  0  0
    4.2330   -1.5913    2.0304 C   0  0  0  0  0  0  0  0  0  0  0  0
    6.3686    1.9980    4.2886 C   0  0  0  0  0  0  0  0  0  0  0  0
    8.9245    0.6534    3.9372 C   0  0  0  0  0  0  0  0  0  0  0  0
    3.4176    3.9321    2.1295 C   0  0  0  0  0  0  0  0  0  0  0  0
    4.5857    3.6233    2.9682 C   0  0  0  0  0  0  0  0  0  0  0  0
    7.6766    2.6605    4.8170 C   0  0  0  0  0  0  0  0  0  0  0  0
    7.8769    2.2801    2.4411 O   0  0  0  0  0  0  0  0  0  0  0  0
    0.0803    2.4012   -0.6337 C   0  0  0  0  0  0  0  0  0  0  0  0
   -0.3648    1.1659   -0.5795 C   0  0  0  0  0  0  0  0  0  0  0  0
    5.0453   -3.4311    3.9321 N   0  0  0  0  0  0  0  0  0  0  0  0
    4.5492    3.8439    4.1725 O   0  0  0  0  0  0  0  0  0  0  0  0
    8.7010    2.2104    3.7051 C   0  0  0  0  0  0  0  0  0  0  0  0
    2.3293   -0.7586    0.6747 C   0  0  0  0  0  0  0  0  0  0  0  0
   10.1508   -0.0281    1.3850 C   0  0  0  0  0  0  0  0  0  0  0  0
  1 10  2  3
  1 21  1  0
  1 26  1  0
  2 16  1  0
  2 21  1  0
  2 39  2  0
  3 23  1  0
  3 27  1  0
  4 13  1  0
  4 31  1  0
  5  7  1  0
  5 24  1  0
  6 12  2  0
  7 25  1  0
  8 12  1  0
  8 27  1  0
  9 21  1  0
  9 34  2  0
 10 30  1  0
 11 15  1  0
 11 24  1  0
 12 36  1  0
 13 28  1  0
 13 33  1  0
 14 18  1  0
 15 40  1  0
 16 35  2  0
 17 26  1  0
 17 27  2  3
 17 39  1  0
 18 25  1  0
 19 38  1  0
 20 29  1  0
 20 40  1  0
 22 34  1  0
 23 36  2  0
 25 40  1  0
 28 32  1  0
 29 38  1  0
 30 31  1  0
 31 37  2  0
 32 38  1  0
 33 38  1  0
 34 35  1  0
M  END
>  <ID>  (1) 
conformer_0

$$$$
