
     RDKit          3D

 32 34  0  0  0  0  0  0  0  0999 V2000
    8.8065   -4.8687    3.0293 O   0  0  0  0  0  0  0  0  0  0  0  0
    9.8389   -3.7028    1.1123 C   0  0  0  0  0  0  0  0  0  0  0  0
    9.2132   -3.7851    2.4831 C   0  0  0  0  0  0  0  0  0  0  0  0
    6.4393   -1.2400    2.2195 C   0  0  0  0  0  0  0  0  0  0  0  0
    0.2066    1.8127   -0.6572 C   0  0  0  0  0  0  0  0  0  0  0  0
    5.2921   -1.8726    1.6647 N   0  0  0  0  0  0  0  0  0  0  0  0
    3.0394   -1.4735    0.7863 C   0  0  0  0  0  0  0  0  0  0  0  0
    8.2684   -1.7681    4.3024 C   0  0  0  0  0  0  0  0  0  0  0  0
   -0.5512    0.8286   -0.3123 N   0  0  0  0  0  0  0  0  0  0  0  0
    7.6209   -0.3533    4.2469 C   0  0  0  0  0  0  0  0  0  0  0  0
    8.5977   -2.5249    2.9840 C   0  0  0  0  0  0  0  0  0  0  0  0
    2.1861    3.1044   -0.3330 C   0  0  0  0  0  0  0  0  0  0  0  0
    4.6946    2.9058    5.1729 O   0  0  0  0  0  1  0  0  0  0  0  0
    4.5170    0.3384    1.0900 C   0  0  0  0  0  0  0  0  0  0  0  0
    8.4373   -1.7091    0.6599 C   0  0  0  0  0  0  0  0  0  0  0  0
    9.9146   -2.1824    0.7425 C   0  0  0  0  0  0  0  0  0  0  0  0
    6.4156   -0.5041    3.4090 O   0  0  0  0  0  0  0  0  0  0  0  0
    7.1014    2.9008    3.9146 C   0  0  0  0  0  0  0  0  0  0  0  0
    7.5228    2.0648    5.0527 C   0  0  0  0  0  0  0  0  0  0  0  0
    1.5542    1.8252   -0.4375 N   0  0  0  0  0  0  0  0  0  0  0  0
    3.6102    1.1998    0.5990 C   0  0  0  0  0  0  0  0  0  0  0  0
   -0.3505    2.9523   -1.0774 N   0  0  0  0  0  0  0  0  0  0  0  0
    4.6857    2.9065    2.8198 O   0  0  0  0  0  0  0  0  0  0  0  0
    2.0793   -0.5679    0.2717 C   0  0  0  0  0  0  0  0  0  0  0  0
    7.6944   -1.9567    1.9472 C   0  0  0  0  0  0  0  0  0  0  0  0
    2.3681    0.8024    0.1394 C   0  0  0  0  0  0  0  0  0  0  0  0
    5.5141    4.9958    3.9792 O   0  0  0  0  0  0  0  0  0  0  0  0
    5.4308    3.4859    4.0060 P   0  0  0  0  0  4  0  0  0  0  0  0
    7.3709    2.5796    2.4524 C   0  0  0  0  0  0  0  0  0  0  0  0
    6.9095    0.1953    6.5152 O   0  0  0  0  0  0  0  0  0  0  0  0
    4.2833   -0.9870    1.1823 C   0  0  0  0  0  0  0  0  0  0  0  0
    7.3221    0.6506    5.3338 C   0  0  0  0  0  0  0  0  0  0  0  0
  1  3  2  0
  2  3  1  0
  2 16  1  0
  3 11  1  0
  4  6  1  0
  4 17  1  0
  4 25  1  0
  5  9  2  0
  5 20  1  0
  5 22  1  0
  6 31  2  3
  7 24  1  0
  7 31  1  0
  8 10  1  0
  8 11  1  0
 10 17  1  0
 10 32  1  0
 11 25  1  0
 12 20  1  0
 13 28  2  0
 14 21  2  0
 14 31  1  0
 15 16  1  0
 15 25  1  0
 18 19  1  0
 18 28  1  0
 18 29  1  0
 19 32  1  0
 20 26  1  0
 21 26  1  0
 23 28  1  0
 24 26  2  0
 27 28  1  0
 30 32  1  0
M  END
>  <ID>  (1) 
conformer_0

$$$$
