
     RDKit          3D

 23 23  0  0  0  0  0  0  0  0999 V2000
    9.4491   -0.9603   -0.6619 C   0  0  0  0  0  0  0  0  0  0  0  0
    1.9370    0.5333   -0.0481 C   0  0  0  0  0  0  0  0  0  0  0  0
    5.1711   -0.5589    0.6212 C   0  0  0  0  0  0  0  0  0  0  0  0
    1.7246    2.0285    0.1989 C   0  0  0  0  0  0  0  0  0  0  0  0
    4.8807   -2.8591    2.2338 C   0  0  0  0  0  0  0  0  0  0  0  0
    2.7497   -0.0508    1.0349 C   0  0  0  0  0  0  0  0  0  0  0  0
    3.9221   -0.9833    1.1089 N   0  0  0  0  0  0  0  0  0  0  0  0
    9.1479    0.0253   -1.3217 O   0  0  0  0  0  0  0  0  0  0  0  0
    0.5663    2.6288   -0.3698 C   0  0  0  0  0  0  0  0  0  0  0  0
   10.5591   -1.3249   -0.2448 O   0  0  0  0  0  0  0  0  0  0  0  0
    4.8821    4.0407    2.9262 C   0  0  0  0  0  0  0  0  0  0  0  0
    8.3022   -1.6841    0.0077 C   0  0  0  0  0  0  0  0  0  0  0  0
    3.7706   -2.2041    1.7849 C   0  0  0  0  0  0  0  0  0  0  0  0
    5.5002    4.6339    3.8638 O   0  0  0  0  0  0  0  0  0  0  0  0
    6.1463   -2.3597    1.8829 C   0  0  0  0  0  0  0  0  0  0  0  0
    2.8132    2.5309    1.1054 C   0  0  0  0  0  0  0  0  0  0  0  0
    3.7800    1.9736    2.1822 C   0  0  0  0  0  0  0  0  0  0  0  0
    4.8126    4.5729    1.7667 O   0  0  0  0  0  0  0  0  0  0  0  0
    7.5582   -0.7060    0.7535 O   0  0  0  0  0  0  0  0  0  0  0  0
    2.5072   -2.6449    2.0561 O   0  0  0  0  0  0  0  0  0  0  0  0
    4.0947    2.7810    3.3471 C   0  0  0  0  0  0  0  0  0  0  0  0
    6.2774   -1.2229    1.0842 C   0  0  0  0  0  0  0  0  0  0  0  0
   -0.3802    1.7188   -0.8767 O   0  0  0  0  0  0  0  0  0  0  0  0
  1  8  2  0
  1 10  1  0
  1 12  1  0
  2  4  1  0
  2  6  1  0
  3  7  1  0
  3 22  2  0
  4  9  1  0
  4 16  1  0
  5 13  1  0
  5 15  2  0
  6  7  1  0
  7 13  1  0
  9 23  1  0
 11 14  2  0
 11 18  1  0
 11 21  1  0
 12 19  1  0
 13 20  2  0
 15 22  1  0
 16 17  1  0
 17 21  1  0
 19 22  1  0
M  END
>  <ID>  (1) 
conformer_0

$$$$
