
     RDKit          3D

 28 29  0  0  0  0  0  0  0  0999 V2000
    7.6214   -2.2635    1.5592 N   0  0  0  0  0  0  0  0  0  0  0  0
    2.7575    2.1589    0.6762 C   0  0  0  0  0  0  0  0  0  0  0  0
    7.0989    1.6066    3.6630 C   0  0  0  0  0  0  0  0  0  0  0  0
    3.7608   -2.2412    4.2884 C   0  0  0  0  0  0  0  0  0  0  0  0
    2.4207   -0.5476    0.4320 C   0  0  0  0  0  0  0  0  0  0  0  0
    9.8609   -0.4778   -0.6541 C   0  0  0  0  0  0  0  0  0  0  0  0
    5.3771    2.8560    2.4957 C   0  0  0  0  0  0  0  0  0  0  0  0
    5.6650   -3.0715    3.1706 C   0  0  0  0  0  0  0  0  0  0  0  0
    6.5536    2.6902    3.1906 N   0  0  0  0  0  0  0  0  0  0  0  0
    7.7723    0.5500    3.2616 C   0  0  0  0  0  0  0  0  0  0  0  0
    0.4902    2.5584   -0.3366 C   0  0  0  0  0  0  0  0  0  0  0  0
    8.2488   -0.9542    1.2543 C   0  0  0  0  0  0  0  0  0  0  0  0
    1.4342    0.2804   -0.0569 C   0  0  0  0  0  0  0  0  0  0  0  0
   10.1427    2.0155   -0.3835 C   0  0  0  0  0  0  0  0  0  0  0  0
    4.9441    4.0746    2.4762 O   0  0  0  0  0  0  0  0  0  0  0  0
    3.7217    1.2866    1.2600 C   0  0  0  0  0  0  0  0  0  0  0  0
    6.9409   -2.5938    2.6661 C   0  0  0  0  0  0  0  0  0  0  0  0
    4.5909   -2.6506    2.1384 C   0  0  0  0  0  0  0  0  0  0  0  0
    5.0955   -2.7798    4.4371 O   0  0  0  0  0  0  0  0  0  0  0  0
    4.7274    1.8157    1.9344 N   0  0  0  0  0  0  0  0  0  0  0  0
    2.0453   -2.4257    2.2836 O   0  0  0  0  0  0  0  0  0  0  0  0
    1.5699    1.6570    0.0869 C   0  0  0  0  0  0  0  0  0  0  0  0
    2.9189    3.5083    0.6113 O   0  0  0  0  0  0  0  0  0  0  0  0
    8.6195   -0.6429   -0.0184 N   0  0  0  0  0  0  0  0  0  0  0  0
    8.2268   -0.1078    2.3086 C   0  0  0  0  0  0  0  0  0  0  0  0
    3.2921   -2.4797    2.8847 C   0  0  0  0  0  0  0  0  0  0  0  0
   10.7809    0.6262   -0.0884 C   0  0  0  0  0  0  0  0  0  0  0  0
    3.5503   -0.0800    1.0703 C   0  0  0  0  0  0  0  0  0  0  0  0
  1 12  1  0
  1 17  1  0
  2 16  1  0
  2 22  2  0
  2 23  1  0
  3  9  1  0
  3 10  1  0
  4 19  1  0
  4 26  1  0
  5 13  1  0
  5 28  2  0
  6 24  1  0
  6 27  1  0
  7  9  1  0
  7 15  2  0
  7 20  1  0
  8 17  1  0
  8 18  1  0
  8 19  1  0
 10 25  2  0
 11 22  1  0
 12 24  1  0
 12 25  2  0
 13 22  1  0
 14 27  1  0
 16 20  2  3
 16 28  1  0
 18 26  1  0
 21 26  1  0
M  END
>  <ID>  (1) 
conformer_0

$$$$
