
     RDKit          3D

 21 23  0  0  0  0  0  0  0  0999 V2000
    5.5304   -0.2594    1.6283 C   0  0  0  0  0  0  0  0  0  0  0  0
    0.9429    1.0852   -0.0722 C   0  0  0  0  0  0  0  0  0  0  0  0
    7.4371   -2.0983    1.3581 O   0  0  0  0  0  0  0  0  0  0  0  0
    3.1643    2.5525    0.8419 C   0  0  0  0  0  0  0  0  0  0  0  0
    1.8232    0.2187    0.4019 N   0  0  0  0  0  0  0  0  0  0  0  0
    5.4516    3.4224    3.2606 P   0  0  0  0  0  4  0  0  0  0  0  0
    5.1033    4.2506    2.0286 O   0  0  0  0  0  1  0  0  0  0  0  0
    2.1701    3.1003    0.1860 C   0  0  0  0  0  0  0  0  0  0  0  0
    5.4072   -2.5421    2.6809 C   0  0  0  0  0  0  0  0  0  0  0  0
    6.8460    3.7936    3.6864 O   0  0  0  0  0  0  0  0  0  0  0  0
    3.9822   -2.0335    2.2741 C   0  0  0  0  0  0  0  0  0  0  0  0
   -0.2462    0.6466   -0.3634 O   0  0  0  0  0  0  0  0  0  0  0  0
    5.0859    1.2088    1.7950 C   0  0  0  0  0  0  0  0  0  0  0  0
    3.7254    1.4144    1.1873 C   0  0  0  0  0  0  0  0  0  0  0  0
    3.1425    0.1984    0.9011 C   0  0  0  0  0  0  0  0  0  0  0  0
    1.0917    2.4289   -0.3098 N   0  0  0  0  0  0  0  0  0  0  0  0
    5.3836    1.8504    2.9505 O   0  0  0  0  0  0  0  0  0  0  0  0
    4.4433    3.6016    4.3741 O   0  0  0  0  0  0  0  0  0  0  0  0
    5.5747   -3.8754    2.6705 O   0  0  0  0  0  0  0  0  0  0  0  0
    4.1215   -0.9566    1.1335 C   0  0  0  0  0  0  0  0  0  0  0  0
    6.3369   -1.6241    1.9131 C   0  0  0  0  0  0  0  0  0  0  0  0
  1 13  1  0
  1 20  1  0
  1 21  1  0
  2  5  1  0
  2 12  2  0
  2 16  1  0
  3 21  1  0
  4  8  1  0
  4 14  2  0
  5 15  2  0
  6  7  2  0
  6 10  1  0
  6 17  1  0
  6 18  1  0
  8 16  2  0
  9 11  1  0
  9 19  1  0
  9 21  1  0
 11 20  1  0
 13 14  1  0
 13 17  1  0
 14 15  1  0
 15 20  1  0
M  END
>  <ID>  (1) 
conformer_0

$$$$
