
     RDKit          3D

 31 32  0  0  0  0  0  0  0  0999 V2000
    8.4011    2.1829    1.5562 O   0  0  0  0  0  1  0  0  0  0  0  0
    5.4748   -0.7999    2.1896 C   0  0  0  0  0  0  0  0  0  0  0  0
    1.0858    2.8948   -0.6127 N   0  0  0  0  0  0  0  0  0  0  0  0
    3.8249   -1.9938    3.4664 O   0  0  0  0  0  0  0  0  0  0  0  0
    4.0687   -0.4633    0.0397 C   0  0  0  0  0  0  0  0  0  0  0  0
    5.2569    4.5127    4.3250 O   0  0  0  0  0  1  0  0  0  0  0  0
    2.9156    0.5532    0.0795 C   0  0  0  0  0  0  0  0  0  0  0  0
    8.2138   -1.9879    2.7627 C   0  0  0  0  0  0  0  0  0  0  0  0
    8.0296   -4.1444    2.3942 C   0  0  0  0  0  0  0  0  0  0  0  0
    4.0899    2.6398    2.9847 O   0  0  0  0  0  0  0  0  0  0  0  0
    8.4680    3.1237    3.9981 O   0  0  0  0  0  0  0  0  0  0  0  0
    6.4618    3.4397    2.5034 O   0  0  0  0  0  0  0  0  0  0  0  0
    2.3800    2.8410   -0.3974 C   0  0  0  0  0  0  0  0  0  0  0  0
    6.0170    0.2499    3.0485 C   0  0  0  0  0  0  0  0  0  0  0  0
    0.1968    1.8818   -0.4411 C   0  0  0  0  0  0  0  0  0  0  0  0
    6.8876    1.1130    3.3723 O   0  0  0  0  0  0  0  0  0  0  0  0
    4.9608   -2.0379    2.7152 C   0  0  0  0  0  0  0  0  0  0  0  0
    7.6333    2.4866    2.8651 P   0  0  0  0  0  4  0  0  0  0  0  0
    5.0842    3.8498    2.9382 P   0  0  0  0  0  4  0  0  0  0  0  0
    9.4735   -2.4083    2.4449 O   0  0  0  0  0  0  0  0  0  0  0  0
    0.4828    0.6414   -0.0102 N   0  0  0  0  0  0  0  0  0  0  0  0
    5.3134   -4.3339    3.1817 O   0  0  0  0  0  0  0  0  0  0  0  0
    3.1444    1.8575   -0.0936 N   0  0  0  0  0  0  0  0  0  0  0  0
    4.5608    4.8176    1.8852 O   0  0  0  0  0  0  0  0  0  0  0  0
    5.1549   -0.3978    0.9412 O   0  0  0  0  0  0  0  0  0  0  0  0
    9.3559   -3.8489    2.2174 N   0  0  0  0  0  0  0  0  0  0  0  0
    7.3075   -3.0540    2.6857 C   0  0  0  0  0  0  0  0  0  0  0  0
    1.5791   -1.2470    0.7428 O   0  0  0  0  0  0  0  0  0  0  0  0
   -1.0338    2.1300   -0.6895 N   0  0  0  0  0  0  0  0  0  0  0  0
    5.9141   -3.1241    2.8566 N   0  0  0  0  0  0  0  0  0  0  0  0
    1.5787    0.0034    0.2732 C   0  0  0  0  0  0  0  0  0  0  0  0
  1 18  2  0
  2 14  1  0
  2 17  1  0
  2 25  1  0
  3 13  1  0
  3 15  1  0
  4 17  2  0
  5  7  1  0
  5 25  1  0
  6 19  2  0
  7 23  1  0
  7 31  1  0
  8 20  1  0
  8 27  1  0
  9 26  1  0
  9 27  1  0
 10 19  1  0
 11 18  1  0
 12 18  1  0
 12 19  1  0
 13 23  2  0
 14 16  1  0
 15 21  1  0
 15 29  2  0
 16 18  1  0
 17 30  1  0
 19 24  1  0
 20 26  1  0
 21 31  1  0
 22 30  1  0
 27 30  1  0
 28 31  2  0
M  END
>  <ID>  (1) 
conformer_0

$$$$
