
     RDKit          3D

 23 25  0  0  0  0  0  0  0  0999 V2000
    5.5367    5.0167    3.7108 O   0  0  0  0  0  1  0  0  0  0  0  0
    4.2809    3.1477    4.2396 O   0  0  0  0  0  0  0  0  0  0  0  0
    3.8573   -1.6771    1.6115 C   0  0  0  0  0  0  0  0  0  0  0  0
    7.3115   -2.9702    1.8964 O   0  0  0  0  0  0  0  0  0  0  0  0
    0.2685    1.8510   -0.9622 N   0  0  0  0  0  0  0  0  0  0  0  0
    9.5631   -3.6223    1.1738 C   0  0  0  0  0  0  0  0  0  0  0  0
    8.6044   -2.6003    1.6561 C   0  0  0  0  0  0  0  0  0  0  0  0
    4.0621   -0.2953    1.4758 C   0  0  0  0  0  0  0  0  0  0  0  0
    1.3351    1.6717   -0.2007 C   0  0  0  0  0  0  0  0  0  0  0  0
    9.0465   -2.3684    0.2835 C   0  0  0  0  0  0  0  0  0  0  0  0
    3.1107    0.6608    1.0005 C   0  0  0  0  0  0  0  0  0  0  0  0
    2.1539    2.7327    0.3516 C   0  0  0  0  0  0  0  0  0  0  0  0
    4.5138    2.4112    1.8695 C   0  0  0  0  0  0  0  0  0  0  0  0
    3.3207    2.0581    1.1466 C   0  0  0  0  0  0  0  0  0  0  0  0
    1.4452   -0.7638   -0.0364 O   0  0  0  0  0  0  0  0  0  0  0  0
    5.3526    0.1347    1.8465 C   0  0  0  0  0  0  0  0  0  0  0  0
    1.9345    0.4660    0.2285 C   0  0  0  0  0  0  0  0  0  0  0  0
    6.4038   -0.7269    1.9384 C   0  0  0  0  0  0  0  0  0  0  0  0
    4.8679   -2.5814    1.8676 C   0  0  0  0  0  0  0  0  0  0  0  0
    5.5537    1.5081    2.1426 O   0  0  0  0  0  0  0  0  0  0  0  0
    4.6299    4.8949    1.5753 O   0  0  0  0  0  0  0  0  0  0  0  0
    6.2205   -2.1083    1.9065 C   0  0  0  0  0  0  0  0  0  0  0  0
    4.7832    3.9320    2.9017 P   0  0  0  0  0  4  0  0  0  0  0  0
  1 23  2  0
  2 23  1  0
  3  8  1  0
  3 19  2  0
  4  7  1  0
  4 22  1  0
  5  9  2  0
  6  7  1  0
  7 10  1  0
  8 11  1  0
  8 16  1  0
  9 12  1  0
  9 17  1  0
 11 14  1  0
 11 17  2  0
 12 14  1  0
 13 14  1  0
 13 20  1  0
 13 23  1  0
 15 17  1  0
 16 18  2  0
 16 20  1  0
 18 22  1  0
 19 22  1  0
 21 23  1  0
M  END
>  <ID>  (1) 
conformer_0

$$$$
