
     RDKit          3D

 27 29  0  0  0  0  0  0  0  0999 V2000
    3.6776   -2.2891    2.0253 C   0  0  0  0  0  0  0  0  0  0  0  0
    8.9029   -2.2383    0.0296 C   0  0  0  0  0  0  0  0  0  0  0  0
    3.1780    1.7641    1.0871 C   0  0  0  0  0  0  0  0  0  0  0  0
    2.9712    3.0542    0.6578 C   0  0  0  0  0  0  0  0  0  0  0  0
    3.5090   -0.9451    1.6534 C   0  0  0  0  0  0  0  0  0  0  0  0
    8.0016   -1.4907    1.0120 C   0  0  0  0  0  0  0  0  0  0  0  0
   -0.3395    2.8863   -0.8453 N   0  0  0  0  0  0  0  0  0  0  0  0
    9.1578   -1.1677   -1.1263 C   0  0  0  0  0  0  0  0  0  0  0  0
    4.8148    2.6302    2.6918 C   0  0  0  0  0  0  0  0  0  0  0  0
    4.5145    0.0245    1.9803 C   0  0  0  0  0  0  0  0  0  0  0  0
    7.4623   -2.2812    2.1969 C   0  0  0  0  0  0  0  0  0  0  0  0
    2.1996    0.7877    0.6813 C   0  0  0  0  0  0  0  0  0  0  0  0
    1.0327    1.1898    0.0376 C   0  0  0  0  0  0  0  0  0  0  0  0
    4.3415    4.0002    2.7148 O   0  0  0  0  0  0  0  0  0  0  0  0
    6.3694    2.8762    4.4503 O   0  0  0  0  0  0  0  0  0  0  0  0
    9.6347   -3.4064    0.7798 C   0  0  0  0  0  0  0  0  0  0  0  0
    1.8309    3.4131   -0.0257 N   0  0  0  0  0  0  0  0  0  0  0  0
    7.7421   -3.5073    3.0397 C   0  0  0  0  0  0  0  0  0  0  0  0
    6.2305    2.7426    3.1760 C   0  0  0  0  0  0  0  0  0  0  0  0
    7.1769    2.7071    2.3416 O   0  0  0  0  0  0  0  0  0  0  0  0
    6.0436   -1.8209    2.3936 C   0  0  0  0  0  0  0  0  0  0  0  0
    4.2907    1.4828    1.9357 N   0  0  0  0  0  0  0  0  0  0  0  0
    4.9359   -2.7523    2.4721 C   0  0  0  0  0  0  0  0  0  0  0  0
    0.8746    2.5019   -0.2885 C   0  0  0  0  0  0  0  0  0  0  0  0
    5.7430   -0.4768    2.3539 C   0  0  0  0  0  0  0  0  0  0  0  0
    1.4339   -1.5863    0.7533 N   0  0  0  0  0  0  0  0  0  0  0  0
    2.3341   -0.6254    0.9441 C   0  0  0  0  0  0  0  0  0  0  0  0
  1  5  1  0
  1 23  2  0
  2  6  1  0
  2  8  1  0
  2 16  1  0
  3  4  2  0
  3 12  1  0
  3 22  1  0
  4 17  1  0
  5 10  1  0
  5 27  1  0
  6 11  1  0
  7 24  2  0
  9 14  2  0
  9 19  1  0
  9 22  1  0
 10 22  1  0
 10 25  2  0
 11 18  1  0
 11 21  1  0
 12 13  2  0
 12 27  1  0
 13 24  1  0
 15 19  2  0
 17 24  1  0
 19 20  1  0
 21 23  1  0
 21 25  1  0
 26 27  2  0
M  END
>  <ID>  (1) 
conformer_0

$$$$
