
     RDKit          3D

 27 29  0  0  0  0  0  0  0  0999 V2000
    7.6533    1.4506    1.9288 C   0  0  0  0  0  0  0  0  0  0  0  0
    3.8150    2.9965    0.9789 O   0  0  0  0  0  0  0  0  0  0  0  0
    9.3189   -3.6269    1.1612 C   0  0  0  0  0  0  0  0  0  0  0  0
    1.8634    0.5806    0.3162 C   0  0  0  0  0  0  0  0  0  0  0  0
    5.1370    3.5135    3.7473 C   0  0  0  0  0  0  0  0  0  0  0  0
    8.2499   -1.6435    0.2531 C   0  0  0  0  0  0  0  0  0  0  0  0
    9.2818   -2.5814    0.2294 C   0  0  0  0  0  0  0  0  0  0  0  0
    7.7252    2.6617    2.2666 O   0  0  0  0  0  0  0  0  0  0  0  0
    1.0483    2.7138   -0.6507 N   0  0  0  0  0  0  0  0  0  0  0  0
    6.2589   -0.6712    1.3805 C   0  0  0  0  0  0  0  0  0  0  0  0
   -0.3644    1.0452   -0.2574 O   0  0  0  0  0  0  0  0  0  0  0  0
    5.0537    3.7082    4.9708 O   0  0  0  0  0  0  0  0  0  0  0  0
    4.9744   -1.0462    1.1238 C   0  0  0  0  0  0  0  0  0  0  0  0
    5.2535    2.0906    3.4685 C   0  0  0  0  0  0  0  0  0  0  0  0
    8.7670    0.9667    1.6266 O   0  0  0  0  0  0  0  0  0  0  0  0
    7.2865   -1.6963    1.2534 C   0  0  0  0  0  0  0  0  0  0  0  0
    0.8382    1.4054   -0.2578 C   0  0  0  0  0  0  0  0  0  0  0  0
    7.3078   -2.7467    2.1577 C   0  0  0  0  0  0  0  0  0  0  0  0
    1.5809   -0.8742    0.2912 C   0  0  0  0  0  0  0  0  0  0  0  0
    3.1878    0.7243    0.8353 C   0  0  0  0  0  0  0  0  0  0  0  0
    8.2911   -3.6973    2.1312 C   0  0  0  0  0  0  0  0  0  0  0  0
    4.0672    1.8008    1.2905 C   0  0  0  0  0  0  0  0  0  0  0  0
    3.7425   -0.6066    0.9333 C   0  0  0  0  0  0  0  0  0  0  0  0
    5.1863    1.4883    2.0936 C   0  0  0  0  0  0  0  0  0  0  0  0
    2.7187   -1.5868    0.6505 C   0  0  0  0  0  0  0  0  0  0  0  0
    6.3172    0.7108    1.7702 C   0  0  0  0  0  0  0  0  0  0  0  0
    4.9988    4.4801    2.9661 O   0  0  0  0  0  0  0  0  0  0  0  0
  1  8  2  0
  1 15  1  0
  1 26  1  0
  2 22  2  0
  3  7  2  0
  3 21  1  0
  4 17  1  0
  4 19  1  0
  4 20  1  0
  5 12  2  0
  5 14  1  0
  5 27  1  0
  6  7  1  0
  6 16  2  0
  9 17  1  0
 10 13  1  0
 10 16  1  0
 10 26  2  0
 11 17  2  0
 13 23  2  0
 14 24  1  0
 16 18  1  0
 18 21  2  0
 19 25  1  0
 20 22  1  0
 20 23  1  0
 22 24  1  0
 23 25  1  0
 24 26  1  0
M  END
>  <ID>  (1) 
conformer_0

$$$$
