
     RDKit          3D

 31 32  0  0  0  0  0  0  0  0999 V2000
    6.9484   -1.5975    1.9664 C   0  0  0  0  0  0  0  0  0  0  0  0
    2.5315    0.8260    0.6900 C   0  0  0  0  0  0  0  0  0  0  0  0
    4.5414   -3.2154    2.8078 C   0  0  0  0  0  0  0  0  0  0  0  0
    5.5915   -1.2692    1.3931 C   0  0  0  0  0  0  0  0  0  0  0  0
   10.5258   -0.6700    0.6830 C   0  0  0  0  0  0  0  0  0  0  0  0
    8.7956   -2.2751    0.4416 C   0  0  0  0  0  0  0  0  0  0  0  0
    1.2728    0.6224    0.2284 N   0  0  0  0  0  0  0  0  0  0  0  0
    8.4849    0.9846    4.1945 O   0  0  0  0  0  1  0  0  0  0  0  0
   -0.6879    1.4765   -0.6244 O   0  0  0  0  0  0  0  0  0  0  0  0
    2.0395   -2.0571    1.8630 O   0  0  0  0  0  0  0  0  0  0  0  0
    1.1534    2.8523   -0.4735 N   0  0  0  0  0  0  0  0  0  0  0  0
    5.5295    5.4206    3.8763 O   0  0  0  0  0  1  0  0  0  0  0  0
    8.7681    2.0009    3.0077 P   0  0  0  0  0  4  0  0  0  0  0  0
    7.3298    2.7097    2.6807 O   0  0  0  0  0  0  0  0  0  0  0  0
    4.4381   -2.1364    1.8460 C   0  0  0  0  0  0  0  0  0  0  0  0
    3.1454   -1.4886    1.4768 C   0  0  0  0  0  0  0  0  0  0  0  0
    8.2565   -1.1465    1.2893 C   0  0  0  0  0  0  0  0  0  0  0  0
    9.4377   -0.2743    1.5870 C   0  0  0  0  0  0  0  0  0  0  0  0
    3.2710   -0.1425    1.3420 O   0  0  0  0  0  0  0  0  0  0  0  0
    4.6779   -3.0079    4.1546 O   0  0  0  0  0  0  0  0  0  0  0  0
    3.1110    2.0814    0.5827 C   0  0  0  0  0  0  0  0  0  0  0  0
    2.4082    3.0861    0.0142 C   0  0  0  0  0  0  0  0  0  0  0  0
    6.9649   -1.6372    3.3454 O   0  0  0  0  0  0  0  0  0  0  0  0
    9.7629    3.1194    3.4267 O   0  0  0  0  0  0  0  0  0  0  0  0
    9.2024    1.1744    1.7094 O   0  0  0  0  0  0  0  0  0  0  0  0
    0.5680    1.6380   -0.3061 C   0  0  0  0  0  0  0  0  0  0  0  0
    6.7113    3.2282    3.9319 C   0  0  0  0  0  0  0  0  0  0  0  0
    5.2517    4.0411    3.4218 P   0  0  0  0  0  4  0  0  0  0  0  0
    4.1675    3.3377    4.0653 O   0  0  0  0  0  0  0  0  0  0  0  0
   10.2760   -2.1835    0.6021 C   0  0  0  0  0  0  0  0  0  0  0  0
    5.1555    3.9532    1.9589 O   0  0  0  0  0  0  0  0  0  0  0  0
  1  4  1  0
  1 17  1  0
  1 23  1  0
  2  7  1  0
  2 19  1  0
  2 21  2  0
  3 15  1  0
  3 20  1  0
  4 15  2  3
  5 18  1  0
  5 30  1  0
  6 17  1  0
  6 30  1  0
  7 26  1  0
  8 13  2  0
  9 26  2  0
 10 16  2  0
 11 22  2  0
 11 26  1  0
 12 28  2  0
 13 14  1  0
 13 24  1  0
 13 25  1  0
 14 27  1  0
 15 16  1  0
 16 19  1  0
 17 18  1  0
 18 25  1  0
 21 22  1  0
 27 28  1  0
 28 29  1  0
 28 31  1  0
M  END
>  <ID>  (1) 
conformer_0

$$$$
