
     RDKit          3D

 21 22  0  0  0  0  0  0  0  0999 V2000
    7.6245   -2.9798    2.3668 C   0  0  0  0  0  0  0  0  0  0  0  0
    1.8176    1.5542    0.2694 C   0  0  0  0  0  0  0  0  0  0  0  0
    6.7012   -3.7473    2.9181 O   0  0  0  0  0  0  0  0  0  0  0  0
   -0.4425    1.2055   -0.3741 O   0  0  0  0  0  0  0  0  0  0  0  0
    5.7547    0.2390    1.9826 C   0  0  0  0  0  0  0  0  0  0  0  0
    8.2624    2.3873    1.7450 O   0  0  0  0  0  0  0  0  0  0  0  0
    7.2883   -1.6695    2.1001 N   0  0  0  0  0  0  0  0  0  0  0  0
    8.9030   -3.4314    1.7354 C   0  0  0  0  0  0  0  0  0  0  0  0
    2.2203    0.2054    0.1456 C   0  0  0  0  0  0  0  0  0  0  0  0
    7.3579   -0.4092    2.9230 C   0  0  0  0  0  0  0  0  0  0  0  0
    6.1108    1.7375    2.5733 C   0  0  0  0  0  0  0  0  0  0  0  0
    3.8930    1.9169    1.5326 C   0  0  0  0  0  0  0  0  0  0  0  0
    0.3232    3.3428   -0.5291 N   0  0  0  0  0  0  0  0  0  0  0  0
    2.6978    2.4056    0.9789 C   0  0  0  0  0  0  0  0  0  0  0  0
    4.3164    0.6008    1.3649 C   0  0  0  0  0  0  0  0  0  0  0  0
    3.4402   -0.2628    0.6769 C   0  0  0  0  0  0  0  0  0  0  0  0
    4.8925    2.7228    2.3509 C   0  0  0  0  0  0  0  0  0  0  0  0
    7.6593    3.2019    3.7642 O   0  0  0  0  0  0  0  0  0  0  0  0
    5.8835   -1.4464    1.3612 C   0  0  0  0  0  0  0  0  0  0  0  0
    0.5563    1.9874   -0.3012 C   0  0  0  0  0  0  0  0  0  0  0  0
    7.4615    2.5303    2.7133 C   0  0  0  0  0  0  0  0  0  0  0  0
  1  3  2  0
  1  7  1  0
  1  8  1  0
  2  9  2  0
  2 14  1  0
  2 20  1  0
  4 20  2  0
  5 11  1  0
  5 15  1  0
  5 19  1  0
  6 21  2  0
  7 10  1  0
  7 19  1  0
  9 16  1  0
 11 17  1  0
 11 21  1  0
 12 14  2  0
 12 15  1  0
 12 17  1  0
 13 20  1  0
 15 16  2  0
 18 21  1  0
M  END
>  <ID>  (1) 
conformer_0

$$$$
