
     RDKit          3D

 29 30  0  0  0  0  0  0  0  0999 V2000
    4.7621   -1.3999    0.9689 C   0  0  0  0  0  0  0  0  0  0  0  0
    9.6730   -4.2247    2.0551 O   0  0  0  0  0  0  0  0  0  0  0  0
    6.5294   -2.3158    2.4236 C   0  0  0  0  0  0  0  0  0  0  0  0
    1.8848    3.8722   -0.1343 N   0  0  0  0  0  0  0  0  0  0  0  0
    8.9601    2.3406    4.3676 O   0  0  0  0  0  0  0  0  0  0  0  0
   10.6046    3.8666    3.0892 O   0  0  0  0  0  1  0  0  0  0  0  0
    6.2437   -1.4374    1.2295 C   0  0  0  0  0  0  0  0  0  0  0  0
    7.5116    2.2284    4.2976 C   0  0  0  0  0  0  0  0  0  0  0  0
   -0.3254    2.4202   -0.7097 O   0  0  0  0  0  0  0  0  0  0  0  0
    9.8528    2.5377    2.9358 P   0  0  0  0  0  4  0  0  0  0  0  0
    7.0263    1.2728    3.2626 N   0  0  0  0  0  0  0  0  0  0  0  0
   10.8310    1.2631    2.8613 O   0  0  0  0  0  0  0  0  0  0  0  0
    4.3159   -0.1282    0.6646 N   0  0  0  0  0  0  0  0  0  0  0  0
    8.9789    2.5572    1.6336 O   0  0  0  0  0  0  0  0  0  0  0  0
    7.9987   -2.6179    2.6243 C   0  0  0  0  0  0  0  0  0  0  0  0
    8.6593   -1.2356    2.7434 N   0  0  0  0  0  0  0  0  0  0  0  0
    7.7429   -0.0808    3.1880 C   0  0  0  0  0  0  0  0  0  0  0  0
    4.6955    2.4150    3.9388 O   0  0  0  0  0  0  0  0  0  0  0  0
    1.9368    2.5014   -0.0086 C   0  0  0  0  0  0  0  0  0  0  0  0
    8.7498   -3.3634    1.4743 C   0  0  0  0  0  0  0  0  0  0  0  0
    2.0215   -0.2345    0.0823 N   0  0  0  0  0  0  0  0  0  0  0  0
    5.2289   -3.0176    2.7819 C   0  0  0  0  0  0  0  0  0  0  0  0
    4.0851   -2.2453    2.0505 C   0  0  0  0  0  0  0  0  0  0  0  0
    6.6406    2.1563    5.5251 C   0  0  0  0  0  0  0  0  0  0  0  0
    0.8123    1.7806   -0.3592 N   0  0  0  0  0  0  0  0  0  0  0  0
    3.1330    0.4903    0.4192 C   0  0  0  0  0  0  0  0  0  0  0  0
    5.2647    2.5082    5.1612 C   0  0  0  0  0  0  0  0  0  0  0  0
    3.0622    1.8790    0.4559 C   0  0  0  0  0  0  0  0  0  0  0  0
    0.8824    0.3910   -0.2877 C   0  0  0  0  0  0  0  0  0  0  0  0
  1  7  1  0
  1 13  1  0
  1 23  1  0
  2 20  1  0
  3  7  1  0
  3 15  1  0
  3 22  1  0
  4 19  2  0
  5  8  1  0
  5 10  1  0
  6 10  2  0
  8 11  1  0
  8 24  1  0
  9 25  1  0
 10 12  1  0
 10 14  1  0
 11 17  1  0
 13 26  1  0
 15 16  1  0
 15 20  1  0
 16 17  1  0
 18 27  1  0
 19 25  1  0
 19 28  1  0
 21 26  1  0
 21 29  2  0
 22 23  1  0
 24 27  1  0
 25 29  1  0
 26 28  2  0
M  END
>  <ID>  (1) 
conformer_0

$$$$
