
     RDKit          3D

 26 27  0  0  0  0  0  0  0  0999 V2000
    6.1841   -1.5599    2.2261 C   0  0  0  0  0  0  0  0  0  0  0  0
    6.6267   -0.1394    2.0187 C   0  0  0  0  0  0  0  0  0  0  0  0
    8.2410    1.2277    3.9818 O   0  0  0  0  0  1  0  0  0  0  0  0
    2.2720   -0.7535   -0.0844 C   0  0  0  0  0  0  0  0  0  0  0  0
   -1.0221    2.9168   -0.7547 N   0  0  0  0  0  0  0  0  0  0  0  0
    3.3173   -1.2790    0.5087 C   0  0  0  0  0  0  0  0  0  0  0  0
    3.4377    1.7145    1.1753 C   0  0  0  0  0  0  0  0  0  0  0  0
    4.3228    0.7178    1.5392 C   0  0  0  0  0  0  0  0  0  0  0  0
    7.0226   -2.6743    2.5791 C   0  0  0  0  0  0  0  0  0  0  0  0
    3.9010   -3.9041    3.8720 O   0  0  0  0  0  0  0  0  0  0  0  0
    4.8296   -1.7943    2.2471 N   0  0  0  0  0  0  0  0  0  0  0  0
    1.7980    0.4676   -0.0646 C   0  0  0  0  0  0  0  0  0  0  0  0
    6.2501   -3.7224    3.1710 C   0  0  0  0  0  0  0  0  0  0  0  0
    6.2798    2.2877    2.5626 O   0  0  0  0  0  0  0  0  0  0  0  0
    4.1679   -0.7217    1.4454 C   0  0  0  0  0  0  0  0  0  0  0  0
    8.7172    2.4106    1.7028 O   0  0  0  0  0  0  0  0  0  0  0  0
    1.2580    2.7766    0.0267 C   0  0  0  0  0  0  0  0  0  0  0  0
    8.0202    3.7096    3.7703 O   0  0  0  0  0  0  0  0  0  0  0  0
    6.7036   -4.9234    3.6990 O   0  0  0  0  0  0  0  0  0  0  0  0
    8.3884   -2.7258    2.3515 O   0  0  0  0  0  0  0  0  0  0  0  0
    7.8461    2.4286    3.0112 P   0  0  0  0  0  4  0  0  0  0  0  0
    5.6805    1.0534    2.1109 C   0  0  0  0  0  0  0  0  0  0  0  0
    4.9095   -3.3465    3.1548 C   0  0  0  0  0  0  0  0  0  0  0  0
    2.2240    1.6523    0.4221 C   0  0  0  0  0  0  0  0  0  0  0  0
    1.9589    3.8274   -0.3457 N   0  0  0  0  0  0  0  0  0  0  0  0
    0.0862    2.2797   -0.7698 C   0  0  0  0  0  0  0  0  0  0  0  0
  1  2  1  0
  1  9  1  0
  1 11  1  0
  2 22  1  0
  3 21  2  0
  4  6  1  0
  4 12  2  0
  5 26  2  0
  6 15  1  0
  7  8  1  0
  7 24  2  0
  8 15  1  0
  8 22  1  0
  9 13  2  3
  9 20  1  0
 10 23  1  0
 11 15  1  0
 12 24  1  0
 13 19  1  0
 13 23  1  0
 14 21  1  0
 14 22  1  0
 16 21  1  0
 17 24  1  0
 17 25  1  0
 17 26  1  0
 18 21  1  0
M  END
>  <ID>  (1) 
conformer_0

$$$$
