
     RDKit          3D

 25 26  0  0  0  0  0  0  0  0999 V2000
    2.4942   -0.2118    0.3699 C   0  0  0  0  0  0  0  0  0  0  0  0
    3.6353   -0.3522    1.4204 C   0  0  0  0  0  0  0  0  0  0  0  0
    4.0751    1.0282    1.6627 O   0  0  0  0  0  0  0  0  0  0  0  0
    4.8386   -1.2458    1.8581 C   0  0  0  0  0  0  0  0  0  0  0  0
    5.0251   -2.5681    2.0904 C   0  0  0  0  0  0  0  0  0  0  0  0
    5.4999    0.9919    1.9762 C   0  0  0  0  0  0  0  0  0  0  0  0
    7.1817   -0.9734    1.8479 N   0  0  0  0  0  0  0  0  0  0  0  0
    2.3509    2.5392    0.5700 C   0  0  0  0  0  0  0  0  0  0  0  0
    0.1388    2.7882   -0.8733 O   0  0  0  0  0  0  0  0  0  0  0  0
    5.9862    4.7774    3.7899 O   0  0  0  0  0  1  0  0  0  0  0  0
    1.5272   -1.2473    0.7457 O   0  0  0  0  0  0  0  0  0  0  0  0
    6.2812   -3.1400    2.1624 N   0  0  0  0  0  0  0  0  0  0  0  0
    9.0104   -4.0860    2.3097 O   0  0  0  0  0  0  0  0  0  0  0  0
    5.9233   -0.4632    1.9273 C   0  0  0  0  0  0  0  0  0  0  0  0
    7.3748   -2.3462    1.8992 C   0  0  0  0  0  0  0  0  0  0  0  0
    5.3242    3.4471    3.4211 P   0  0  0  0  0  4  0  0  0  0  0  0
    6.2961    1.9678    2.8060 C   0  0  0  0  0  0  0  0  0  0  0  0
    0.5743    1.5582   -0.6055 C   0  0  0  0  0  0  0  0  0  0  0  0
    2.5820    3.3366   -0.6161 O   0  0  0  0  0  0  0  0  0  0  0  0
    8.7598   -2.9622    1.7133 C   0  0  0  0  0  0  0  0  0  0  0  0
    4.5441    2.9375    4.6476 O   0  0  0  0  0  0  0  0  0  0  0  0
   -0.4417    0.7504   -0.3110 O   0  0  0  0  0  0  0  0  0  0  0  0
    1.8399    1.1781    0.2337 C   0  0  0  0  0  0  0  0  0  0  0  0
    4.4436    3.8880    2.1478 O   0  0  0  0  0  0  0  0  0  0  0  0
    9.6172   -2.2213    0.7805 C   0  0  0  0  0  0  0  0  0  0  0  0
  1  2  1  0
  1 11  1  0
  1 23  1  0
  2  3  1  0
  2  4  1  0
  3  6  1  0
  4  5  1  0
  4 14  2  0
  5 12  2  0
  6 14  1  0
  6 17  1  0
  7 14  1  0
  7 15  2  0
  8 19  1  0
  8 23  1  0
  9 18  2  0
 10 16  2  0
 12 15  1  0
 13 20  1  0
 15 20  1  0
 16 17  1  0
 16 21  1  0
 16 24  1  0
 18 22  1  0
 18 23  1  0
 20 25  1  0
M  END
>  <ID>  (1) 
conformer_0

$$$$
