
     RDKit          3D

 40 41  0  0  0  0  0  0  0  0999 V2000
    6.7552   -4.8921    3.4255 C   0  0  0  0  0  0  0  0  0  0  0  0
    3.6686    1.1959    0.8689 C   0  0  0  0  0  0  0  0  0  0  0  0
    1.3144    0.2537   -0.2311 C   0  0  0  0  0  0  0  0  0  0  0  0
    5.8743   -4.3430    4.8295 P   0  0  0  0  0  0  0  0  0  0  0  0
    8.9355   -0.5963    2.0518 C   0  0  0  0  0  0  0  0  0  0  0  0
    4.5785   -0.2427    4.7857 C   0  0  0  0  0  0  0  0  0  0  0  0
    4.0921   -2.5084    5.3696 C   0  0  0  0  0  0  0  0  0  0  0  0
    5.4502    4.1125    3.1169 C   0  0  0  0  0  0  0  0  0  0  0  0
    7.8685    1.3400    3.0660 C   0  0  0  0  0  0  0  0  0  0  0  0
    7.0294    2.3364    3.2688 C   0  0  0  0  0  0  0  0  0  0  0  0
    8.9000   -2.9332    1.0104 C   0  0  0  0  0  0  0  0  0  0  0  0
    5.4701   -2.1695    3.1808 N   0  0  0  0  0  0  0  0  0  0  0  0
    5.9086    2.8169    3.7048 C   0  0  0  0  0  0  0  0  0  0  0  0
    3.4995   -0.1785    0.7060 C   0  0  0  0  0  0  0  0  0  0  0  0
    9.1468   -1.4290    0.8380 C   0  0  0  0  0  0  0  0  0  0  0  0
    5.3710   -2.7383    4.5310 C   0  0  0  0  0  0  0  0  0  0  0  0
    4.4804   -2.1300    2.0927 C   0  0  0  0  0  0  0  0  0  0  0  0
   -0.8200    2.1665   -0.6388 N   0  0  0  0  0  0  0  0  0  0  0  0
    2.6631    2.0727    0.4464 C   0  0  0  0  0  0  0  0  0  0  0  0
    7.5892   -3.0963    1.7667 C   0  0  0  0  0  0  0  0  0  0  0  0
    5.0962    2.2164    4.6599 C   0  0  0  0  0  0  0  0  0  0  0  0
   10.1103   -1.1776   -0.2750 C   0  0  0  0  0  0  0  0  0  0  0  0
   10.0197    1.3251    0.1916 N   0  0  0  0  0  0  0  0  0  0  0  0
    6.5960   -4.2481    6.2502 O   0  0  0  0  0  0  0  0  0  0  0  0
    5.4809    5.1126    3.9360 O   0  0  0  0  0  0  0  0  0  0  0  0
    4.5910   -1.1327    1.0731 C   0  0  0  0  0  0  0  0  0  0  0  0
    9.6646    1.8164    1.4810 C   0  0  0  0  0  0  0  0  0  0  0  0
    0.3766    2.5847   -0.4146 C   0  0  0  0  0  0  0  0  0  0  0  0
    5.0755    0.9615    5.0411 C   0  0  0  0  0  0  0  0  0  0  0  0
    4.2598   -1.0945    5.9545 C   0  0  0  0  0  0  0  0  0  0  0  0
    2.3085   -0.6368    0.1613 C   0  0  0  0  0  0  0  0  0  0  0  0
    5.1804    4.0860    1.8594 O   0  0  0  0  0  0  0  0  0  0  0  0
   10.0039    2.9585    1.9609 O   0  0  0  0  0  0  0  0  0  0  0  0
    7.7258   -3.7423    3.0583 C   0  0  0  0  0  0  0  0  0  0  0  0
    1.4640    1.6602   -0.1011 C   0  0  0  0  0  0  0  0  0  0  0  0
   10.8551    0.1552   -0.0990 C   0  0  0  0  0  0  0  0  0  0  0  0
    8.8804    0.8683    2.2703 C   0  0  0  0  0  0  0  0  0  0  0  0
    0.5595    3.8835   -0.3276 N   0  0  0  0  0  0  0  0  0  0  0  0
    4.7901   -5.4218    4.9836 O   0  0  0  0  0  0  0  0  0  0  0  0
    5.7181   -0.9737    0.4410 O   0  0  0  0  0  0  0  0  0  0  0  0
  1 34  1  0
  2 14  1  0
  2 19  1  0
  3 31  1  0
  3 35  1  0
  4 16  1  0
  4 24  1  0
  4 39  1  0
  5 15  1  0
  5 37  1  0
  6 29  1  0
  6 30  1  0
  7 16  1  0
  7 30  1  0
  8 13  1  0
  8 25  2  0
  8 32  1  0
  9 10  1  0
  9 37  1  0
 10 13  1  0
 11 15  1  0
 11 20  1  0
 12 16  1  0
 12 17  1  0
 13 21  1  0
 14 26  1  0
 14 31  2  0
 15 22  1  0
 17 26  1  0
 18 28  2  0
 19 35  2  0
 20 34  1  0
 21 29  1  0
 22 36  1  0
 23 27  1  0
 23 36  1  0
 26 40  1  0
 27 33  2  0
 27 37  1  0
 28 35  1  0
 28 38  1  0
M  END
>  <ID>  (1) 
conformer_0

$$$$
