
     RDKit          3D

 26 27  0  0  0  0  0  0  0  0999 V2000
    9.8442   -2.6021    0.4330 O   0  0  0  0  0  0  0  0  0  0  0  0
    1.0856    2.1396   -0.1337 C   0  0  0  0  0  0  0  0  0  0  0  0
    7.1948   -2.5945    2.3324 C   0  0  0  0  0  0  0  0  0  0  0  0
    2.0221    2.9897    0.3569 C   0  0  0  0  0  0  0  0  0  0  0  0
    8.5557    0.4091    1.4888 C   0  0  0  0  0  0  0  0  0  0  0  0
   10.2273   -0.4798   -0.6819 C   0  0  0  0  0  0  0  0  0  0  0  0
    1.1862    0.7927    0.0874 C   0  0  0  0  0  0  0  0  0  0  0  0
    6.1370    2.3925    3.1909 O   0  0  0  0  0  1  0  0  0  0  0  0
    4.9825   -1.5470    2.1534 C   0  0  0  0  0  0  0  0  0  0  0  0
    3.2394    1.1004    1.1478 C   0  0  0  0  0  0  0  0  0  0  0  0
    3.6994   -1.8866    1.4482 C   0  0  0  0  0  0  0  0  0  0  0  0
    2.4140   -1.2718    1.0162 C   0  0  0  0  0  0  0  0  0  0  0  0
    3.7941    3.4446    3.0426 O   0  0  0  0  0  0  0  0  0  0  0  0
    0.0450    2.6432   -0.8439 F   0  0  0  0  0  0  0  0  0  0  0  0
    3.1105    2.4346    1.0139 C   0  0  0  0  0  0  0  0  0  0  0  0
    5.6952   -2.7031    2.7521 C   0  0  0  0  0  0  0  0  0  0  0  0
    4.9138    2.9840    5.2160 O   0  0  0  0  0  0  0  0  0  0  0  0
    7.1999   -1.5669    1.1809 C   0  0  0  0  0  0  0  0  0  0  0  0
    2.2863    0.2451    0.7392 C   0  0  0  0  0  0  0  0  0  0  0  0
    5.9686   -0.6852    1.4302 C   0  0  0  0  0  0  0  0  0  0  0  0
    0.2309   -0.0225   -0.3876 O   0  0  0  0  0  0  0  0  0  0  0  0
    8.3735   -0.8768    0.8608 N   0  0  0  0  0  0  0  0  0  0  0  0
    4.0425    3.4137    1.6043 C   0  0  0  0  0  0  0  0  0  0  0  0
    5.2518    3.4435    3.8578 P   0  0  0  0  0  4  0  0  0  0  0  0
    5.7390    4.8692    3.6986 O   0  0  0  0  0  0  0  0  0  0  0  0
    9.4841   -1.4321    0.2068 C   0  0  0  0  0  0  0  0  0  0  0  0
  1 26  2  0
  2  4  2  0
  2  7  1  0
  2 14  1  0
  3 16  1  0
  3 18  1  0
  4 15  1  0
  5 22  1  0
  6 26  1  0
  7 19  2  0
  7 21  1  0
  8 24  2  0
  9 11  1  0
  9 16  1  0
  9 20  1  0
 10 15  2  0
 10 19  1  0
 11 12  1  0
 12 19  1  0
 13 23  1  0
 13 24  1  0
 15 23  1  0
 17 24  1  0
 18 20  1  0
 18 22  1  0
 22 26  1  0
 24 25  1  0
M  END
>  <ID>  (1) 
conformer_0

$$$$
