
     RDKit          3D

 31 34  0  0  0  0  0  0  0  0999 V2000
    2.5175    3.4386    0.5594 C   0  0  0  0  0  0  0  0  0  0  0  0
    1.6415    2.5410   -0.0397 C   0  0  0  0  0  0  0  0  0  0  0  0
    3.7820    1.6114    1.5291 C   0  0  0  0  0  0  0  0  0  0  0  0
    4.7179   -0.6259    4.9853 C   0  0  0  0  0  0  0  0  0  0  0  0
    8.3195   -0.3651    1.1344 C   0  0  0  0  0  0  0  0  0  0  0  0
    4.8738   -2.4068    1.8595 C   0  0  0  0  0  0  0  0  0  0  0  0
    2.9537    0.7084    0.8729 C   0  0  0  0  0  0  0  0  0  0  0  0
    5.8846   -0.0240    4.3909 C   0  0  0  0  0  0  0  0  0  0  0  0
    4.1433   -0.1738    6.1426 C   0  0  0  0  0  0  0  0  0  0  0  0
    4.6974    0.9287    6.8260 C   0  0  0  0  0  0  0  0  0  0  0  0
    7.4355   -2.6011    2.0225 C   0  0  0  0  0  0  0  0  0  0  0  0
    4.2786    4.0096    2.1998 C   0  0  0  0  0  0  0  0  0  0  0  0
    3.7755   -3.3495    3.9716 O   0  0  0  0  0  0  0  0  0  0  0  0
    4.6265    5.0289    1.6614 O   0  0  0  0  0  0  0  0  0  0  0  0
    3.8849   -2.6849    2.9924 C   0  0  0  0  0  0  0  0  0  0  0  0
    5.8266    1.5757    6.2560 C   0  0  0  0  0  0  0  0  0  0  0  0
    1.8236    1.1835    0.2458 C   0  0  0  0  0  0  0  0  0  0  0  0
    2.5904   -1.7450    1.2282 C   0  0  0  0  0  0  0  0  0  0  0  0
    6.4174    1.1005    5.0790 C   0  0  0  0  0  0  0  0  0  0  0  0
    7.7471    0.2092    2.4549 C   0  0  0  0  0  0  0  0  0  0  0  0
    8.3823   -1.9793    0.9069 C   0  0  0  0  0  0  0  0  0  0  0  0
    6.1898   -1.6082    2.2646 C   0  0  0  0  0  0  0  0  0  0  0  0
    9.4318   -1.6782   -0.2191 C   0  0  0  0  0  0  0  0  0  0  0  0
    0.7865    0.3496   -0.0938 O   0  0  0  0  0  0  0  0  0  0  0  0
    4.4247    3.7324    3.4175 O   0  0  0  0  0  0  0  0  0  0  0  0
    2.7567   -1.8215    2.6471 N   0  0  0  0  0  0  0  0  0  0  0  0
    3.5508    2.9925    1.4023 C   0  0  0  0  0  0  0  0  0  0  0  0
    3.3328   -0.6730    0.7415 O   0  0  0  0  0  0  0  0  0  0  0  0
    9.4338   -0.1398    0.2719 N   0  0  0  0  0  0  0  0  0  0  0  0
    6.5294   -0.4508    3.0775 N   0  0  0  0  0  0  0  0  0  0  0  0
    0.6500    2.9557   -0.9019 O   0  0  0  0  0  0  0  0  0  0  0  0
  1  2  2  0
  1 27  1  0
  2 17  1  0
  2 31  1  0
  3  7  2  0
  3 27  1  0
  4  8  1  0
  4  9  2  0
  5 20  1  0
  5 21  1  0
  5 29  1  0
  6 15  1  0
  6 22  1  0
  7 17  1  0
  7 28  1  0
  8 19  1  0
  8 30  1  0
  9 10  1  0
 10 16  1  0
 11 21  1  0
 11 22  1  0
 12 14  2  0
 12 25  1  0
 12 27  1  0
 13 15  2  0
 15 26  1  0
 16 19  2  0
 17 24  1  0
 18 26  1  0
 18 28  1  0
 20 30  1  0
 21 23  1  0
 22 30  1  0
 23 29  1  0
M  END
>  <ID>  (1) 
conformer_0

$$$$
