
     RDKit          3D

 24 26  0  0  0  0  0  0  0  0999 V2000
    2.0719   -1.5690    1.0082 C   0  0  0  0  0  0  0  0  0  0  0  0
   -0.6270    1.0676   -0.4267 N   0  0  0  0  0  0  0  0  0  0  0  0
    9.2754   -3.0589    0.4718 N   0  0  0  0  0  0  0  0  0  0  0  0
    7.7244   -0.0346    1.9518 C   0  0  0  0  0  0  0  0  0  0  0  0
    5.3804   -0.3885    1.7454 N   0  0  0  0  0  0  0  0  0  0  0  0
    6.4061    4.4077    3.3400 O   0  0  0  0  0  0  0  0  0  0  0  0
    1.5013    1.9715    0.0771 C   0  0  0  0  0  0  0  0  0  0  0  0
    1.4088   -0.4824    0.5178 N   0  0  0  0  0  0  0  0  0  0  0  0
    2.4524    2.9340    0.3358 N   0  0  0  0  0  0  0  0  0  0  0  0
    7.4043    2.6172    4.8212 O   0  0  0  0  0  1  0  0  0  0  0  0
    3.9856   -0.2565    1.4427 C   0  0  0  0  0  0  0  0  0  0  0  0
    2.0015    0.7265    0.5471 C   0  0  0  0  0  0  0  0  0  0  0  0
    8.4072    3.0142    2.4369 O   0  0  0  0  0  0  0  0  0  0  0  0
    3.5182    2.2728    0.9685 C   0  0  0  0  0  0  0  0  0  0  0  0
    6.0765    1.9079    2.5316 O   0  0  0  0  0  0  0  0  0  0  0  0
    8.3864   -2.4177    1.1805 N   0  0  0  0  0  0  0  0  0  0  0  0
    6.0430   -1.6468    1.3493 C   0  0  0  0  0  0  0  0  0  0  0  0
    7.1631    2.9052    3.3130 P   0  0  0  0  0  4  0  0  0  0  0  0
    3.3614   -1.4562    1.4825 C   0  0  0  0  0  0  0  0  0  0  0  0
    6.2556    0.5336    2.1944 C   0  0  0  0  0  0  0  0  0  0  0  0
    3.2921    0.8895    1.0603 C   0  0  0  0  0  0  0  0  0  0  0  0
    7.4576   -1.3239    1.1232 C   0  0  0  0  0  0  0  0  0  0  0  0
    0.2104    2.2259   -0.4563 C   0  0  0  0  0  0  0  0  0  0  0  0
    4.9436    4.0951    3.5279 C   0  0  0  0  0  0  0  0  0  0  0  0
  1  8  1  0
  1 19  1  0
  2 23  1  0
  3 16  1  0
  4 20  1  0
  4 22  1  0
  5 11  1  0
  5 17  1  0
  5 20  1  0
  6 18  1  0
  6 24  1  0
  7  9  1  0
  7 12  1  0
  7 23  1  0
  8 12  2  0
  9 14  1  0
 10 18  2  0
 11 19  2  0
 11 21  1  0
 12 21  1  0
 13 18  1  0
 14 21  1  0
 15 18  1  0
 15 20  1  0
 16 22  1  0
 17 22  1  0
M  END
>  <ID>  (1) 
conformer_0

$$$$
