
     RDKit          3D

 31 33  0  0  0  0  0  0  0  0999 V2000
    6.8410   -2.3804    2.3217 C   0  0  0  0  0  0  0  0  0  0  0  0
    5.4407   -2.5160    2.6835 N   0  0  0  0  0  0  0  0  0  0  0  0
    6.0246    0.0466    2.3076 O   0  0  0  0  0  0  0  0  0  0  0  0
    1.6580    0.7845    0.1952 C   0  0  0  0  0  0  0  0  0  0  0  0
    8.0061    0.2905    6.3836 O   0  0  0  0  0  0  0  0  0  0  0  0
    4.3108   -1.7889    1.9156 C   0  0  0  0  0  0  0  0  0  0  0  0
    5.0064    2.3052    2.5313 C   0  0  0  0  0  0  0  0  0  0  0  0
    7.1766   -0.8636    2.2323 C   0  0  0  0  0  0  0  0  0  0  0  0
    0.6492    1.6605   -0.3450 C   0  0  0  0  0  0  0  0  0  0  0  0
    3.7145    0.5601    1.2499 C   0  0  0  0  0  0  0  0  0  0  0  0
    6.3186   -4.6111    3.0790 O   0  0  0  0  0  0  0  0  0  0  0  0
    8.5561    1.2105    5.8722 C   0  0  0  0  0  0  0  0  0  0  0  0
    2.8271    1.4708    0.6625 N   0  0  0  0  0  0  0  0  0  0  0  0
    4.1168    3.3219    2.6276 O   0  0  0  0  0  0  0  0  0  0  0  0
    9.1181    2.3080    3.3247 P   0  0  0  0  0  4  0  0  0  0  0  0
   -0.5257    1.1564   -0.5832 N   0  0  0  0  0  0  0  0  0  0  0  0
    1.8929   -0.6004    0.4431 C   0  0  0  0  0  0  0  0  0  0  0  0
   10.1974    3.4302    3.3325 O   0  0  0  0  0  1  0  0  0  0  0  0
    8.3878    2.4526    1.9063 O   0  0  0  0  0  0  0  0  0  0  0  0
    0.6768    2.9809   -0.6021 N   0  0  0  0  0  0  0  0  0  0  0  0
    5.1237   -3.8183    3.2023 C   0  0  0  0  0  0  0  0  0  0  0  0
    4.9718    0.9023    1.9487 C   0  0  0  0  0  0  0  0  0  0  0  0
    5.9374    2.4666    3.4438 O   0  0  0  0  0  0  0  0  0  0  0  0
    7.4724   -3.7010    2.7247 C   0  0  0  0  0  0  0  0  0  0  0  0
    8.4750    2.4245    5.0973 C   0  0  0  0  0  0  0  0  0  0  0  0
    2.8898    2.7513    0.4695 N   0  0  0  0  0  0  0  0  0  0  0  0
    8.5636   -1.4814    4.1160 O   0  0  0  0  0  0  0  0  0  0  0  0
    3.1712   -0.7246    1.2914 C   0  0  0  0  0  0  0  0  0  0  0  0
    3.1265    3.8384    0.1192 O   0  0  0  0  0  0  0  0  0  0  0  0
    9.4657    0.5719    3.3606 C   0  0  0  0  0  0  0  0  0  0  0  0
    8.3619   -0.4806    3.1126 C   0  0  0  0  0  0  0  0  0  0  0  0
  1  2  1  0
  1  8  1  0
  1 24  1  0
  2  6  1  0
  2 21  1  0
  3  8  1  0
  3 22  1  0
  4  9  1  0
  4 13  1  0
  4 17  1  0
  5 12  2  0
  6 28  1  0
  7 14  2  0
  7 22  1  0
  7 23  1  0
  8 31  1  0
  9 16  2  0
  9 20  1  0
 10 13  1  0
 10 22  1  0
 10 28  2  0
 11 21  1  0
 11 24  1  0
 12 25  1  0
 13 26  1  0
 15 18  2  0
 15 19  1  0
 15 25  1  0
 15 30  1  0
 17 28  1  0
 26 29  1  0
 27 31  1  0
 30 31  1  0
M  END
>  <ID>  (1) 
conformer_0

$$$$
