
     RDKit          3D

 24 25  0  0  0  0  0  0  0  0999 V2000
    6.0021    0.8633    3.3902 O   0  0  0  0  0  0  0  0  0  0  0  0
    7.7113   -2.2569    1.6533 C   0  0  0  0  0  0  0  0  0  0  0  0
    2.8242   -0.5971    0.6695 C   0  0  0  0  0  0  0  0  0  0  0  0
    6.4390   -1.7417    2.4646 C   0  0  0  0  0  0  0  0  0  0  0  0
    6.0819    3.4443    3.4922 C   0  0  0  0  0  0  0  0  0  0  0  0
    1.5767   -0.4479    0.1073 C   0  0  0  0  0  0  0  0  0  0  0  0
    1.4916    3.3774   -0.2050 C   0  0  0  0  0  0  0  0  0  0  0  0
    4.9063    0.3489    1.4463 N   0  0  0  0  0  0  0  0  0  0  0  0
    3.5621    0.5350    0.9993 C   0  0  0  0  0  0  0  0  0  0  0  0
    3.0216    1.7683    0.8072 C   0  0  0  0  0  0  0  0  0  0  0  0
    5.4568    1.3889    2.2338 C   0  0  0  0  0  0  0  0  0  0  0  0
    5.3846    2.8735    2.2672 C   0  0  0  0  0  0  0  0  0  0  0  0
    4.7828    3.8265    1.5381 O   0  0  0  0  0  0  0  0  0  0  0  0
    1.0877    0.8634   -0.1355 C   0  0  0  0  0  0  0  0  0  0  0  0
    0.2692    3.5171   -0.7505 N   0  0  0  0  0  0  0  0  0  0  0  0
    5.5288   -0.9609    1.4477 C   0  0  0  0  0  0  0  0  0  0  0  0
    8.4054   -3.5799    2.1340 C   0  0  0  0  0  0  0  0  0  0  0  0
    5.5984   -2.9746    3.0038 C   0  0  0  0  0  0  0  0  0  0  0  0
    6.2937   -4.3684    3.1646 C   0  0  0  0  0  0  0  0  0  0  0  0
    7.3342    3.2191    3.7539 O   0  0  0  0  0  0  0  0  0  0  0  0
    2.3773    4.2649   -0.1042 O   0  0  0  0  0  0  0  0  0  0  0  0
    5.3121    4.1167    4.2924 O   0  0  0  0  0  0  0  0  0  0  0  0
    1.8549    2.0216    0.1803 C   0  0  0  0  0  0  0  0  0  0  0  0
    7.8130   -4.0681    3.4970 C   0  0  0  0  0  0  0  0  0  0  0  0
  1 11  2  0
  2  4  1  0
  2 17  1  0
  3  6  2  0
  3  9  1  0
  4 16  1  0
  4 18  1  0
  5 12  1  0
  5 20  2  0
  5 22  1  0
  6 14  1  0
  7 15  1  0
  7 21  2  0
  7 23  1  0
  8  9  1  0
  8 11  1  0
  8 16  1  0
  9 10  2  0
 10 23  1  0
 11 12  1  0
 12 13  1  0
 14 23  2  0
 17 24  1  0
 18 19  1  0
 19 24  1  0
M  END
>  <ID>  (1) 
conformer_0

$$$$
