
     RDKit          3D

 31 34  0  0  0  0  0  0  0  0999 V2000
    8.9210   -2.0766    3.0864 C   0  0  0  0  0  0  0  0  0  0  0  0
    4.0302    3.4290    1.8904 C   0  0  0  0  0  0  0  0  0  0  0  0
    3.0047    1.7856    0.7879 N   0  0  0  0  0  0  0  0  0  0  0  0
    4.0022    1.2178    1.5349 C   0  0  0  0  0  0  0  0  0  0  0  0
    8.2104   -1.7991    0.5065 C   0  0  0  0  0  0  0  0  0  0  0  0
    6.0053   -0.4267    1.0513 C   0  0  0  0  0  0  0  0  0  0  0  0
    1.9754    1.0335    0.0784 C   0  0  0  0  0  0  0  0  0  0  0  0
   10.1861   -0.0372   -0.9599 C   0  0  0  0  0  0  0  0  0  0  0  0
    3.0267    3.1516    0.9697 C   0  0  0  0  0  0  0  0  0  0  0  0
    3.5956   -0.9552    0.5825 C   0  0  0  0  0  0  0  0  0  0  0  0
    5.3765    2.0107    3.4331 O   0  0  0  0  0  0  0  0  0  0  0  0
    4.7448   -0.9481    2.9834 N   0  0  0  0  0  0  0  0  0  0  0  0
    9.7042   -1.7061    0.7612 C   0  0  0  0  0  0  0  0  0  0  0  0
    6.0182    3.2464    3.5799 C   0  0  0  0  0  0  0  0  0  0  0  0
    7.0548   -1.4595    1.4649 C   0  0  0  0  0  0  0  0  0  0  0  0
   10.3315   -3.8445    1.8745 C   0  0  0  0  0  0  0  0  0  0  0  0
   10.1085   -2.3281    2.0464 C   0  0  0  0  0  0  0  0  0  0  0  0
    2.1625   -0.4345    0.3520 C   0  0  0  0  0  0  0  0  0  0  0  0
    5.3775    4.1525    4.2518 O   0  0  0  0  0  0  0  0  0  0  0  0
    0.7268    2.8531   -0.8187 O   0  0  0  0  0  0  0  0  0  0  0  0
    0.7070    1.6363   -0.3837 C   0  0  0  0  0  0  0  0  0  0  0  0
    4.5231   -0.1785    1.5608 C   0  0  0  0  0  0  0  0  0  0  0  0
   10.1228    1.3006   -0.3235 C   0  0  0  0  0  0  0  0  0  0  0  0
    4.5741    2.1991    2.3106 C   0  0  0  0  0  0  0  0  0  0  0  0
    7.1415    3.3647    3.0604 O   0  0  0  0  0  0  0  0  0  0  0  0
    4.6362   -3.3369    4.8534 O   0  0  0  0  0  0  0  0  0  0  0  0
    5.8573   -2.9996    4.4392 C   0  0  0  0  0  0  0  0  0  0  0  0
   -0.3434    0.9655   -0.2681 O   0  0  0  0  0  0  0  0  0  0  0  0
    5.9361   -1.7695    3.6248 N   0  0  0  0  0  0  0  0  0  0  0  0
   10.6102   -1.1042   -0.0943 O   0  0  0  0  0  0  0  0  0  0  0  0
    7.3803   -1.5947    2.9706 C   0  0  0  0  0  0  0  0  0  0  0  0
  1 17  1  0
  1 31  1  0
  2  9  1  0
  2 24  1  0
  3  4  1  0
  3  7  1  0
  3  9  1  0
  4 22  1  0
  4 24  1  0
  5 13  1  0
  5 15  1  0
  6 15  1  0
  6 22  1  0
  7 18  1  0
  7 21  1  0
  8 23  1  0
  8 30  1  0
 10 18  1  0
 10 22  1  0
 11 14  1  0
 11 24  1  0
 12 22  1  0
 12 29  1  0
 13 17  1  0
 13 30  1  0
 14 19  2  0
 14 25  1  0
 15 31  1  0
 16 17  1  0
 20 21  2  0
 21 28  1  0
 26 27  1  0
 27 29  1  0
 29 31  1  0
M  END
>  <ID>  (1) 
conformer_0

$$$$
