
     RDKit          3D

 19 20  0  0  0  0  0  0  0  0999 V2000
    4.6688    1.9022    2.0099 N   0  0  0  0  0  0  0  0  0  0  0  0
    5.0815    3.4005    4.1146 O   0  0  0  0  0  0  0  0  0  0  0  0
    6.2564   -2.6603    2.7937 C   0  0  0  0  0  0  0  0  0  0  0  0
    0.3799    2.3444   -0.7601 N   0  0  0  0  0  0  0  0  0  0  0  0
    3.4284    0.2192    1.0859 C   0  0  0  0  0  0  0  0  0  0  0  0
    2.3860   -0.4516    0.5359 N   0  0  0  0  0  0  0  0  0  0  0  0
    6.9870    2.9975    2.4449 O   0  0  0  0  0  0  0  0  0  0  0  0
    6.7474   -4.0508    2.8090 O   0  0  0  0  0  0  0  0  0  0  0  0
    6.8629   -1.9042    3.6939 O   0  0  0  0  0  0  0  0  0  0  0  0
    5.0496    4.4942    1.8617 O   0  0  0  0  0  0  0  0  0  0  0  0
    2.5035    2.3126    0.4125 C   0  0  0  0  0  0  0  0  0  0  0  0
    4.6046   -0.5377    1.7076 C   0  0  0  0  0  0  0  0  0  0  0  0
    5.0503   -1.9850    2.0728 C   0  0  0  0  0  0  0  0  0  0  0  0
    5.2809    0.5561    2.6032 C   0  0  0  0  0  0  0  0  0  0  0  0
    3.4938    1.5858    1.1323 C   0  0  0  0  0  0  0  0  0  0  0  0
    2.6111    3.6669    0.1997 N   0  0  0  0  0  0  0  0  0  0  0  0
    1.3939    1.6666   -0.1421 C   0  0  0  0  0  0  0  0  0  0  0  0
    5.4886    3.3138    2.6715 S   0  0  0  0  0  4  0  0  0  0  0  0
    1.3640    0.2664   -0.0595 C   0  0  0  0  0  0  0  0  0  0  0  0
  1 14  1  0
  1 15  1  0
  1 18  1  0
  2 18  1  0
  3  8  2  0
  3  9  1  0
  3 13  1  0
  4 17  1  0
  5  6  2  0
  5 12  1  0
  5 15  1  0
  6 19  1  0
  7 18  1  0
 10 18  1  0
 11 15  2  0
 11 16  1  0
 11 17  1  0
 12 13  1  0
 12 14  1  0
 17 19  2  0
M  END
>  <ID>  (1) 
conformer_0

$$$$
