
     RDKit          3D

 19 19  0  0  0  0  0  0  0  0999 V2000
    7.5289   -1.3387    1.6448 C   0  0  0  0  0  0  0  0  0  0  0  0
    7.9864   -1.5237    0.4002 O   0  0  0  0  0  0  0  0  0  0  0  0
    2.3663    0.5293    0.6019 C   0  0  0  0  0  0  0  0  0  0  0  0
    1.2979    1.2835    0.0557 C   0  0  0  0  0  0  0  0  0  0  0  0
    1.6006    2.6787    0.2571 C   0  0  0  0  0  0  0  0  0  0  0  0
    5.0108    4.4477    1.8660 O   0  0  0  0  0  1  0  0  0  0  0  0
    8.3455   -1.2898    2.6791 O   0  0  0  0  0  0  0  0  0  0  0  0
    5.3492    1.8722    2.3110 N   0  0  0  0  0  0  0  0  0  0  0  0
    5.6267   -1.8667    3.1060 O   0  0  0  0  0  0  0  0  0  0  0  0
    0.1261    0.9152   -0.5062 N   0  0  0  0  0  0  0  0  0  0  0  0
    5.3211   -0.1725    1.4319 N   0  0  0  0  0  0  0  0  0  0  0  0
    4.6100    3.4757    4.1597 O   0  0  0  0  0  0  0  0  0  0  0  0
    2.8730    2.6984    0.9089 C   0  0  0  0  0  0  0  0  0  0  0  0
    2.4453   -0.9280    0.6197 C   0  0  0  0  0  0  0  0  0  0  0  0
    4.5810    0.9343    1.6816 C   0  0  0  0  0  0  0  0  0  0  0  0
    3.3507    1.3732    1.1004 C   0  0  0  0  0  0  0  0  0  0  0  0
    6.9871    3.5631    3.1621 O   0  0  0  0  0  0  0  0  0  0  0  0
    5.4728    3.3754    2.8846 P   0  0  0  0  0  4  0  0  0  0  0  0
    6.0497   -1.2771    1.9015 C   0  0  0  0  0  0  0  0  0  0  0  0
  1  2  2  0
  1  7  1  0
  1 19  1  0
  3  4  2  0
  3 14  1  0
  3 16  1  0
  4  5  1  0
  4 10  1  0
  5 13  1  0
  6 18  2  0
  8 15  2  3
  8 18  1  0
  9 19  2  0
 11 15  1  0
 11 19  1  0
 12 18  1  0
 13 16  1  0
 15 16  1  0
 17 18  1  0
M  END
>  <ID>  (1) 
conformer_0

$$$$
