
     RDKit          3D

 31 33  0  0  0  0  0  0  0  0999 V2000
    3.9811   -1.8668    1.8880 C   0  0  0  0  0  0  0  0  0  0  0  0
    8.8981   -2.1191    1.9403 C   0  0  0  0  0  0  0  0  0  0  0  0
    0.1317    3.4848   -0.5964 O   0  0  0  0  0  0  0  0  0  0  0  0
    6.4961   -1.9434    2.0846 C   0  0  0  0  0  0  0  0  0  0  0  0
    3.1430    1.9361    0.6459 C   0  0  0  0  0  0  0  0  0  0  0  0
   10.9930   -2.0398    0.7189 O   0  0  0  0  0  0  0  0  0  0  0  0
    4.5745   -5.6859    4.2113 Cl  0  0  0  0  0  0  0  0  0  0  0  0
    2.7586    4.1539    0.0014 O   0  0  0  0  0  0  0  0  0  0  0  0
    3.0184   -3.8022    2.9917 N   0  0  0  0  0  0  0  0  0  0  0  0
    2.3139    2.8837    0.1365 C   0  0  0  0  0  0  0  0  0  0  0  0
    0.6698    1.2210   -0.1391 C   0  0  0  0  0  0  0  0  0  0  0  0
    1.0254    2.5445   -0.2564 N   0  0  0  0  0  0  0  0  0  0  0  0
    5.3766   -3.5762    3.0401 C   0  0  0  0  0  0  0  0  0  0  0  0
   -0.6025    0.9204   -0.4196 O   0  0  0  0  0  0  0  0  0  0  0  0
    8.9559   -1.0618   -0.1295 C   0  0  0  0  0  0  0  0  0  0  0  0
    7.6515   -1.7843    1.5603 C   0  0  0  0  0  0  0  0  0  0  0  0
    5.1957    3.8946    4.3778 O   0  0  0  0  0  1  0  0  0  0  0  0
    3.7862   -0.4993    1.2224 N   0  0  0  0  0  0  0  0  0  0  0  0
    2.8183    0.5704    0.7119 C   0  0  0  0  0  0  0  0  0  0  0  0
    7.6408    3.3845    3.9847 O   0  0  0  0  0  0  0  0  0  0  0  0
    1.5121    0.2526    0.2945 N   0  0  0  0  0  0  0  0  0  0  0  0
    7.6588   -1.1025    0.2612 C   0  0  0  0  0  0  0  0  0  0  0  0
    5.1614    0.0915    1.2532 C   0  0  0  0  0  0  0  0  0  0  0  0
    6.2233    3.0830    3.5635 P   0  0  0  0  0  4  0  0  0  0  0  0
    4.2902   -4.2581    3.3381 C   0  0  0  0  0  0  0  0  0  0  0  0
    9.7607   -1.7369    0.8771 C   0  0  0  0  0  0  0  0  0  0  0  0
    5.2312   -2.4351    2.2946 C   0  0  0  0  0  0  0  0  0  0  0  0
    6.0371    3.3814    2.1145 O   0  0  0  0  0  0  0  0  0  0  0  0
    5.4905    0.6769    2.6157 C   0  0  0  0  0  0  0  0  0  0  0  0
    5.8973    1.4544    3.8551 N   0  0  0  0  0  0  0  0  0  0  0  0
    2.8581   -2.6235    2.2409 C   0  0  0  0  0  0  0  0  0  0  0  0
  1 18  1  0
  1 27  1  0
  1 31  2  0
  2 16  1  0
  2 26  1  0
  3 12  1  0
  4 16  2  0
  4 27  2  0
  5 10  1  0
  5 19  2  0
  6 26  2  0
  7 25  1  0
  8 10  2  0
  9 25  2  0
  9 31  1  0
 10 12  1  0
 11 12  1  0
 11 14  2  0
 11 21  1  0
 13 25  1  0
 13 27  1  0
 15 22  1  0
 15 26  1  0
 16 22  1  0
 17 24  2  0
 18 19  1  0
 18 23  1  0
 19 21  1  0
 20 24  1  0
 23 29  1  0
 24 28  1  0
 24 30  1  0
 29 30  1  0
M  END
>  <ID>  (1) 
conformer_0

$$$$
