
     RDKit          3D

 25 27  0  0  0  0  0  0  0  0999 V2000
    0.9796    1.7224   -0.4617 C   0  0  0  0  0  0  0  0  0  0  0  0
    4.2922    1.2785    1.1947 O   0  0  0  0  0  0  0  0  0  0  0  0
    7.1570   -0.9950    2.4408 C   0  0  0  0  0  0  0  0  0  0  0  0
    1.7449   -1.9978    1.8967 O   0  0  0  0  0  0  0  0  0  0  0  0
    2.2523    2.3171   -0.1455 C   0  0  0  0  0  0  0  0  0  0  0  0
    7.0548    1.4510    2.0240 O   0  0  0  0  0  0  0  0  0  0  0  0
    2.2582    0.1264    0.6377 C   0  0  0  0  0  0  0  0  0  0  0  0
    3.0347    1.3051    0.5320 N   0  0  0  0  0  0  0  0  0  0  0  0
    4.9557    0.1200    1.7457 C   0  0  0  0  0  0  0  0  0  0  0  0
    9.4919   -1.0241    0.6733 C   0  0  0  0  0  0  0  0  0  0  0  0
    4.7489   -2.1668    2.6823 C   0  0  0  0  0  0  0  0  0  0  0  0
    2.7205   -1.0026    1.4708 C   0  0  0  0  0  0  0  0  0  0  0  0
    4.1924   -3.3699    2.6165 O   0  0  0  0  0  0  0  0  0  0  0  0
    8.6503   -0.6536    1.9017 C   0  0  0  0  0  0  0  0  0  0  0  0
    6.1392   -2.0582    2.9855 O   0  0  0  0  0  0  0  0  0  0  0  0
   -0.0729    2.3738   -0.8618 N   0  0  0  0  0  0  0  0  0  0  0  0
    3.9739   -0.9372    2.2940 C   0  0  0  0  0  0  0  0  0  0  0  0
    6.2966    0.3510    2.5187 C   0  0  0  0  0  0  0  0  0  0  0  0
    9.5119    2.1765    0.0202 O   0  0  0  0  0  1  0  0  0  0  0  0
    2.3457    3.6476   -0.2727 N   0  0  0  0  0  0  0  0  0  0  0  0
   11.4466    1.2355   -0.6262 O   0  0  0  0  0  1  0  0  0  0  0  0
   10.1926    1.2049   -0.4181 N   0  0  0  0  0  0  0  0  0  0  0  0
    6.0020    0.6012    3.9483 O   0  0  0  0  0  0  0  0  0  0  0  0
    9.5576   -0.1616   -0.6209 C   0  0  0  0  0  0  0  0  0  0  0  0
    1.0285    0.4093    0.0116 N   0  0  0  0  0  0  0  0  0  0  0  0
  1  5  1  0
  1 16  2  0
  1 25  1  0
  2  8  1  0
  2  9  1  0
  3 14  1  0
  3 15  1  0
  3 18  1  0
  4 12  1  0
  5  8  1  0
  5 20  2  0
  6 18  1  0
  7  8  1  0
  7 12  2  0
  7 25  1  0
  9 17  1  0
  9 18  1  0
 10 14  1  0
 10 24  1  0
 11 13  2  0
 11 15  1  0
 11 17  1  0
 12 17  1  0
 18 23  1  0
 19 22  1  0
 21 22  1  0
 22 24  1  0
M  END
>  <ID>  (1) 
conformer_0

$$$$
