
     RDKit          3D

 25 26  0  0  0  0  0  0  0  0999 V2000
    1.9714    0.1930    0.3102 C   0  0  0  0  0  0  0  0  0  0  0  0
    9.1929   -3.3932    0.8346 C   0  0  0  0  0  0  0  0  0  0  0  0
    4.5498    0.6401    2.2959 C   0  0  0  0  0  0  0  0  0  0  0  0
   10.0382   -3.8591    2.0408 C   0  0  0  0  0  0  0  0  0  0  0  0
    6.2317    3.4271    4.2078 P   0  0  0  0  0  4  0  0  0  0  0  0
    6.4291   -1.0180    1.8305 C   0  0  0  0  0  0  0  0  0  0  0  0
    3.1214    2.2250    0.1659 N   0  0  0  0  0  0  0  0  0  0  0  0
    0.7889    2.1214   -0.3680 C   0  0  0  0  0  0  0  0  0  0  0  0
   -0.4054    2.6196   -0.8169 N   0  0  0  0  0  0  0  0  0  0  0  0
    4.3572    0.1944    0.9024 N   0  0  0  0  0  0  0  0  0  0  0  0
    6.0576    2.2623    2.9045 C   0  0  0  0  0  0  0  0  0  0  0  0
    7.2298   -2.2921    1.8908 C   0  0  0  0  0  0  0  0  0  0  0  0
    5.7773    2.8438    5.5298 O   0  0  0  0  0  1  0  0  0  0  0  0
    5.6436    0.8376    3.1830 C   0  0  0  0  0  0  0  0  0  0  0  0
    7.1830   -2.8395    3.0856 O   0  0  0  0  0  0  0  0  0  0  0  0
    3.1360    0.9253    0.4245 C   0  0  0  0  0  0  0  0  0  0  0  0
    6.6103   -0.1898    2.9180 O   0  0  0  0  0  0  0  0  0  0  0  0
    5.6592    2.7807    1.7619 O   0  0  0  0  0  0  0  0  0  0  0  0
    5.3917    4.6607    3.8800 O   0  0  0  0  0  0  0  0  0  0  0  0
    8.4340   -2.2157    1.2041 O   0  0  0  0  0  0  0  0  0  0  0  0
    1.9710    2.8700   -0.2083 C   0  0  0  0  0  0  0  0  0  0  0  0
    2.0484   -1.2606    0.6165 C   0  0  0  0  0  0  0  0  0  0  0  0
    0.8112    0.8059   -0.0744 N   0  0  0  0  0  0  0  0  0  0  0  0
    5.1388   -1.1492    1.1416 C   0  0  0  0  0  0  0  0  0  0  0  0
    7.7180    3.6876    4.0641 O   0  0  0  0  0  0  0  0  0  0  0  0
  1 16  1  0
  1 22  1  0
  1 23  2  0
  2  4  1  0
  2 20  1  0
  3 10  1  0
  3 14  1  0
  5 11  1  0
  5 13  2  0
  5 19  1  0
  5 25  1  0
  6 12  1  0
  6 17  1  0
  6 24  1  0
  7 16  2  0
  7 21  1  0
  8  9  2  0
  8 21  1  0
  8 23  1  0
 10 16  1  0
 10 24  1  0
 11 14  1  0
 11 18  1  0
 12 15  2  0
 12 20  1  0
 14 17  1  0
M  END
>  <ID>  (1) 
conformer_0

$$$$
