
     RDKit          3D

 33 33  0  0  0  0  0  0  0  0999 V2000
    5.2721    3.1150    5.0728 O   0  0  0  0  0  1  0  0  0  0  0  0
   10.0373    1.4972   -0.6369 C   0  0  0  0  0  0  0  0  0  0  0  0
    6.1018    3.4521    3.7706 P   0  0  0  0  0  4  0  0  0  0  0  0
    1.1104    0.1320    0.1914 N   0  0  0  0  0  0  0  0  0  0  0  0
    0.0435    2.1544   -0.6552 C   0  0  0  0  0  0  0  0  0  0  0  0
    4.7534   -2.5027    2.2529 C   0  0  0  0  0  0  0  0  0  0  0  0
    7.5581    3.9218    3.9558 O   0  0  0  0  0  0  0  0  0  0  0  0
    5.2569    4.4755    2.9772 O   0  0  0  0  0  0  0  0  0  0  0  0
    6.3093   -6.3566    4.0379 C   0  0  0  0  0  0  0  0  0  0  0  0
    3.5985   -2.6094    1.9023 C   0  0  0  0  0  0  0  0  0  0  0  0
    4.9581    1.5244    2.2922 C   0  0  0  0  0  0  0  0  0  0  0  0
    2.3421    0.5727    0.5258 C   0  0  0  0  0  0  0  0  0  0  0  0
    5.7250   -4.1633    3.2668 N   0  0  0  0  0  0  0  0  0  0  0  0
    8.0609   -4.8070    3.3099 C   0  0  0  0  0  0  0  0  0  0  0  0
    7.6950   -1.2403    2.6117 C   0  0  0  0  0  0  0  0  0  0  0  0
    6.7061   -4.3594    5.3085 O   0  0  0  0  0  0  0  0  0  0  0  0
    7.5989    1.2957    2.2656 C   0  0  0  0  0  0  0  0  0  0  0  0
    0.2079    0.8289   -0.3024 C   0  0  0  0  0  0  0  0  0  0  0  0
    6.8538   -2.0499    3.3013 N   0  0  0  0  0  0  0  0  0  0  0  0
    2.7176    1.9058    0.4781 C   0  0  0  0  0  0  0  0  0  0  0  0
    9.9058   -0.9093   -0.0574 C   0  0  0  0  0  0  0  0  0  0  0  0
    2.8574   -1.6881    1.1990 C   0  0  0  0  0  0  0  0  0  0  0  0
    9.4730    0.4889    0.3916 C   0  0  0  0  0  0  0  0  0  0  0  0
    6.6911   -4.8860    4.0029 C   0  0  0  0  0  0  0  0  0  0  0  0
    9.2480    1.3521    1.7608 C   0  0  0  0  0  0  0  0  0  0  0  0
    2.1738    2.9901    0.0761 C   0  0  0  0  0  0  0  0  0  0  0  0
   -1.0962    2.5480   -1.1408 O   0  0  0  0  0  0  0  0  0  0  0  0
    5.8039   -2.8797    2.9300 C   0  0  0  0  0  0  0  0  0  0  0  0
    0.9503    3.1466   -0.5094 N   0  0  0  0  0  0  0  0  0  0  0  0
    7.2014   -0.1339    1.9325 N   0  0  0  0  0  0  0  0  0  0  0  0
    6.3431    1.8755    2.8903 C   0  0  0  0  0  0  0  0  0  0  0  0
    8.8931   -1.4929    2.6767 O   0  0  0  0  0  0  0  0  0  0  0  0
    3.1746   -0.4804    0.9060 C   0  0  0  0  0  0  0  0  0  0  0  0
  1  3  2  0
  2 23  1  0
  3  7  1  0
  3  8  1  0
  3 31  1  0
  4 12  1  0
  4 18  2  0
  5 18  1  0
  5 27  2  0
  5 29  1  0
  6 10  2  3
  6 28  1  0
  9 24  1  0
 10 22  1  0
 11 31  1  0
 12 20  1  0
 12 33  1  0
 13 24  1  0
 13 28  2  3
 14 24  1  0
 15 19  1  0
 15 30  1  0
 15 32  2  0
 16 24  1  0
 17 25  1  0
 17 30  1  0
 17 31  1  0
 19 28  1  0
 20 26  2  0
 21 23  1  0
 22 33  2  3
 23 25  1  0
 26 29  1  0
M  END
>  <ID>  (1) 
conformer_0

$$$$
