
     RDKit          3D

 31 33  0  0  0  0  0  0  0  0999 V2000
   -0.2826    0.7001   -0.1858 F   0  0  0  0  0  0  0  0  0  0  0  0
    2.4277    3.1309   -0.3070 N   0  0  0  0  0  0  0  0  0  0  0  0
    5.1554   -0.7020    2.1460 C   0  0  0  0  0  0  0  0  0  0  0  0
    7.8847   -3.2371    2.9810 C   0  0  0  0  0  0  0  0  0  0  0  0
    5.5057   -3.1990    4.0857 C   0  0  0  0  0  0  0  0  0  0  0  0
    4.6724    1.5711    2.2595 O   0  0  0  0  0  0  0  0  0  0  0  0
    7.0360    3.4509    3.0473 O   0  0  0  0  0  1  0  0  0  0  0  0
    5.3632    4.9158    4.1440 O   0  0  0  0  0  0  0  0  0  0  0  0
   10.4411   -0.3518   -0.2518 C   0  0  0  0  0  0  0  0  0  0  0  0
    9.3885    1.6850   -0.9962 O   0  0  0  0  0  0  0  0  0  0  0  0
    6.6700   -2.3396    3.5196 C   0  0  0  0  0  0  0  0  0  0  0  0
    5.0766    4.4153    1.7644 O   0  0  0  0  0  0  0  0  0  0  0  0
    9.9763    1.0326    0.0661 C   0  0  0  0  0  0  0  0  0  0  0  0
    1.7800   -1.0667    0.8098 O   0  0  0  0  0  0  0  0  0  0  0  0
    4.4218   -3.4408    2.9093 C   0  0  0  0  0  0  0  0  0  0  0  0
    4.0422   -0.5851    1.1300 C   0  0  0  0  0  0  0  0  0  0  0  0
    9.3655   -1.3800   -0.3518 C   0  0  0  0  0  0  0  0  0  0  0  0
    0.0877    3.3124   -0.2592 O   0  0  0  0  0  0  0  0  0  0  0  0
    3.2979   -2.4165    2.6176 C   0  0  0  0  0  0  0  0  0  0  0  0
    4.5663    2.4040    3.4413 C   0  0  0  0  0  0  0  0  0  0  0  0
    3.3182    0.5028    0.5815 O   0  0  0  0  0  0  0  0  0  0  0  0
    5.5822    3.8619    3.0803 P   0  0  0  0  0  4  0  0  0  0  0  0
    8.3741   -2.5864    1.6588 C   0  0  0  0  0  0  0  0  0  0  0  0
    2.0603    0.1617    0.2053 C   0  0  0  0  0  0  0  0  0  0  0  0
    5.7463    0.6224    2.2763 O   0  0  0  0  0  0  0  0  0  0  0  0
    1.0375    1.0980   -0.3019 C   0  0  0  0  0  0  0  0  0  0  0  0
    3.0284   -1.6800    1.2884 C   0  0  0  0  0  0  0  0  0  0  0  0
    1.2135    2.5648   -0.2460 C   0  0  0  0  0  0  0  0  0  0  0  0
    9.5644   -2.4453    0.7445 C   0  0  0  0  0  0  0  0  0  0  0  0
    6.1746   -1.7376    2.2284 N   0  0  0  0  0  0  0  0  0  0  0  0
    7.3728   -1.4519    1.3905 C   0  0  0  0  0  0  0  0  0  0  0  0
  1 26  1  0
  2 28  1  0
  3 16  1  0
  3 25  1  0
  3 30  1  0
  4 11  1  0
  4 23  1  0
  5 11  1  0
  5 15  1  0
  6 20  1  0
  6 25  1  0
  7 22  2  0
  8 22  1  0
  9 13  1  0
  9 17  1  0
 10 13  1  0
 11 30  1  0
 12 22  1  0
 14 24  1  0
 14 27  1  0
 15 19  1  0
 16 21  1  0
 16 27  1  0
 17 29  1  0
 18 28  2  0
 19 27  1  0
 20 22  1  0
 21 24  1  0
 23 29  1  0
 23 31  1  0
 24 26  1  0
 26 28  1  0
 30 31  1  0
M  END
>  <ID>  (1) 
conformer_0

$$$$
