
     RDKit          3D

 30 33  0  0  0  0  0  0  0  0999 V2000
   -0.6799    1.4396   -0.4985 N   0  0  0  0  0  0  0  0  0  0  0  0
    0.6123    1.4979   -0.4101 C   0  0  0  0  0  0  0  0  0  0  0  0
    6.8310    2.5687    3.9541 C   0  0  0  0  0  0  0  0  0  0  0  0
    5.2993    4.1332    2.9577 C   0  0  0  0  0  0  0  0  0  0  0  0
    9.3937   -1.3747    1.5223 C   0  0  0  0  0  0  0  0  0  0  0  0
    4.1437   -2.3795    2.3210 C   0  0  0  0  0  0  0  0  0  0  0  0
    2.4123   -0.5641    0.1593 C   0  0  0  0  0  0  0  0  0  0  0  0
    5.3733   -0.3575    2.4339 C   0  0  0  0  0  0  0  0  0  0  0  0
    7.7207   -0.1720    3.3304 C   0  0  0  0  0  0  0  0  0  0  0  0
    4.2525   -0.9846    1.9571 C   0  0  0  0  0  0  0  0  0  0  0  0
    4.7604    4.5018    1.8077 O   0  0  0  0  0  0  0  0  0  0  0  0
    7.8203   -3.1377    3.0001 C   0  0  0  0  0  0  0  0  0  0  0  0
    2.3860    3.0325   -0.0720 C   0  0  0  0  0  0  0  0  0  0  0  0
    8.9712    1.8915    2.9748 C   0  0  0  0  0  0  0  0  0  0  0  0
    8.6328   -2.7675    1.6700 C   0  0  0  0  0  0  0  0  0  0  0  0
    9.8610    0.6783    2.7179 C   0  0  0  0  0  0  0  0  0  0  0  0
    9.4359    2.9393    3.6529 O   0  0  0  0  0  0  0  0  0  0  0  0
    3.6428    1.2356    1.2121 C   0  0  0  0  0  0  0  0  0  0  0  0
    3.3020   -0.1678    1.1140 C   0  0  0  0  0  0  0  0  0  0  0  0
    2.7231    2.2641    0.9878 N   0  0  0  0  0  0  0  0  0  0  0  0
    6.4534   -2.4023    2.9377 C   0  0  0  0  0  0  0  0  0  0  0  0
    6.5285    3.4670    2.8926 O   0  0  0  0  0  0  0  0  0  0  0  0
    1.1685    2.7419   -0.6119 N   0  0  0  0  0  0  0  0  0  0  0  0
    2.9062   -2.9826    2.3232 O   0  0  0  0  0  0  0  0  0  0  0  0
    5.2266   -3.0837    2.7736 C   0  0  0  0  0  0  0  0  0  0  0  0
    6.4761   -0.9666    2.9043 C   0  0  0  0  0  0  0  0  0  0  0  0
    7.5884    1.3697    3.4055 C   0  0  0  0  0  0  0  0  0  0  0  0
    4.8183    4.3354    4.1105 O   0  0  0  0  0  0  0  0  0  0  0  0
    8.9807   -0.4616    2.6248 N   0  0  0  0  0  0  0  0  0  0  0  0
    1.3009    0.3360   -0.0851 N   0  0  0  0  0  0  0  0  0  0  0  0
  1  2  2  0
  2 23  1  0
  2 30  1  0
  3 22  1  0
  3 27  1  0
  4 11  2  0
  4 22  1  0
  4 28  1  0
  5 15  1  0
  5 29  1  0
  6 10  1  0
  6 24  1  0
  6 25  2  0
  7 19  1  0
  7 30  1  0
  8 10  1  0
  8 26  2  0
  9 26  1  0
  9 27  1  0
  9 29  1  0
 10 19  1  0
 12 15  1  0
 12 21  1  0
 13 20  1  0
 13 23  1  0
 14 16  1  0
 14 17  1  0
 14 27  1  0
 16 29  1  0
 18 19  1  0
 18 20  1  0
 21 25  1  0
 21 26  1  0
M  END
>  <ID>  (1) 
conformer_0

$$$$
