
     RDKit          3D

 33 34  0  0  0  0  0  0  0  0999 V2000
   10.1455    1.1203    3.7042 O   0  0  0  0  0  1  0  0  0  0  0  0
    4.0412   -3.1709    2.4431 O   0  0  0  0  0  0  0  0  0  0  0  0
    5.1238    3.1441    3.3776 N   0  0  0  0  0  0  0  0  0  0  0  0
    7.7189   -0.6940    3.0136 C   0  0  0  0  0  0  0  0  0  0  0  0
    5.3674    0.7214    6.7905 C   0  0  0  0  0  0  0  0  0  0  0  0
    4.1918    2.5263    2.5860 O   0  0  0  0  0  0  0  0  0  0  0  0
    5.7161   -1.9083    4.2351 C   0  0  0  0  0  0  0  0  0  0  0  0
    3.3857   -1.0421    1.1658 C   0  0  0  0  0  0  0  0  0  0  0  0
    4.1113    4.3300    1.2197 O   0  0  0  0  0  0  0  0  0  0  0  0
    5.5774    0.6062    4.3730 O   0  0  0  0  0  0  0  0  0  0  0  0
    1.5027    2.6946   -0.2939 C   0  0  0  0  0  0  0  0  0  0  0  0
    2.0316   -0.9479    0.6155 C   0  0  0  0  0  0  0  0  0  0  0  0
    2.9506    1.1608    0.6883 C   0  0  0  0  0  0  0  0  0  0  0  0
    0.6182    3.7179   -0.2273 O   0  0  0  0  0  0  0  0  0  0  0  0
    6.5716   -1.7460    2.9660 C   0  0  0  0  0  0  0  0  0  0  0  0
    0.9049    1.3226   -0.4515 C   0  0  0  0  0  0  0  0  0  0  0  0
    5.6547    4.3373    3.7554 O   0  0  0  0  0  0  0  0  0  0  0  0
    2.7195    2.6148    0.6290 N   0  0  0  0  0  0  0  0  0  0  0  0
    9.0715    2.5460    1.7734 O   0  0  0  0  0  0  0  0  0  0  0  0
    5.7046   -1.5277    1.7883 C   0  0  0  0  0  0  0  0  0  0  0  0
   -0.3733    1.0572   -0.3409 O   0  0  0  0  0  0  0  0  0  0  0  0
    8.5547    3.0724    4.2154 O   0  0  0  0  0  0  0  0  0  0  0  0
    3.8504    0.2252    1.0354 N   0  0  0  0  0  0  0  0  0  0  0  0
    6.2858   -1.0714    0.6608 O   0  0  0  0  0  0  0  0  0  0  0  0
    3.7133    3.2566    1.4842 C   0  0  0  0  0  0  0  0  0  0  0  0
    8.8834    1.9020    3.2084 P   0  0  0  0  0  4  0  0  0  0  0  0
    4.3181   -2.0278    1.8274 C   0  0  0  0  0  0  0  0  0  0  0  0
    4.8375   -0.6705    4.6013 C   0  0  0  0  0  0  0  0  0  0  0  0
    1.8214    0.4286    0.2228 C   0  0  0  0  0  0  0  0  0  0  0  0
    5.4596    1.5318    5.5266 C   0  0  0  0  0  0  0  0  0  0  0  0
    7.3604   -3.1391    2.6936 C   0  0  0  0  0  0  0  0  0  0  0  0
    7.6917    0.7688    3.0297 O   0  0  0  0  0  0  0  0  0  0  0  0
    5.5757    2.8279    5.6986 O   0  0  0  0  0  0  0  0  0  0  0  0
  1 26  2  0
  2 27  1  0
  3  6  1  0
  3 17  1  0
  4 15  1  0
  4 32  1  0
  5 30  1  0
  6 25  1  0
  7 15  1  0
  7 28  1  0
  8 12  1  0
  8 23  1  0
  8 27  1  0
  9 25  2  0
 10 28  1  0
 10 30  1  0
 11 14  2  0
 11 16  1  0
 11 18  1  0
 12 29  1  0
 13 18  1  0
 13 23  2  0
 13 29  1  0
 15 20  1  0
 15 31  1  0
 16 21  1  0
 16 29  1  0
 18 25  1  0
 19 26  1  0
 20 24  1  0
 20 27  1  0
 22 26  1  0
 26 32  1  0
 30 33  2  0
M  END
>  <ID>  (1) 
conformer_0

$$$$
