
     RDKit          3D

 28 30  0  0  0  0  0  0  0  0999 V2000
    2.7103   -1.7322    1.3670 C   0  0  0  0  0  0  0  0  0  0  0  0
    0.4893    0.3406   -0.1622 O   0  0  0  0  0  0  0  0  0  0  0  0
    5.7143    3.2611    2.3887 C   0  0  0  0  0  0  0  0  0  0  0  0
    9.0330   -3.4806    0.9605 C   0  0  0  0  0  0  0  0  0  0  0  0
    7.9783    1.5411    2.7494 C   0  0  0  0  0  0  0  0  0  0  0  0
    2.3792    3.3385    0.5620 C   0  0  0  0  0  0  0  0  0  0  0  0
    9.3568   -2.1171    0.2287 C   0  0  0  0  0  0  0  0  0  0  0  0
    7.3894    0.2928    2.3739 N   0  0  0  0  0  0  0  0  0  0  0  0
    0.1663    3.1015   -0.3259 Cl  0  0  0  0  0  0  0  0  0  0  0  0
    3.2817   -2.7724    1.9223 N   0  0  0  0  0  0  0  0  0  0  0  0
    7.8724   -0.8462    1.7801 C   0  0  0  0  0  0  0  0  0  0  0  0
    7.0223   -2.0895    1.8066 C   0  0  0  0  0  0  0  0  0  0  0  0
    7.8248    1.8093    4.2418 C   0  0  0  0  0  0  0  0  0  0  0  0
    7.9621   -3.3112    2.1575 C   0  0  0  0  0  0  0  0  0  0  0  0
    4.8182   -0.6585    1.1823 C   0  0  0  0  0  0  0  0  0  0  0  0
    1.5479    1.0863    0.1982 C   0  0  0  0  0  0  0  0  0  0  0  0
    5.7702    3.1080    3.8253 C   0  0  0  0  0  0  0  0  0  0  0  0
    3.4505    3.0429    1.2505 C   0  0  0  0  0  0  0  0  0  0  0  0
    6.2507    1.8698    4.5145 C   0  0  0  0  0  0  0  0  0  0  0  0
    4.6245   -2.7932    2.1271 C   0  0  0  0  0  0  0  0  0  0  0  0
    4.4273    3.7543    1.9571 C   0  0  0  0  0  0  0  0  0  0  0  0
    9.2913   -0.9405    1.2811 C   0  0  0  0  0  0  0  0  0  0  0  0
    1.3810    2.5211    0.1003 C   0  0  0  0  0  0  0  0  0  0  0  0
    5.4782   -1.7898    1.7086 C   0  0  0  0  0  0  0  0  0  0  0  0
    8.4904    2.2754    1.8917 O   0  0  0  0  0  0  0  0  0  0  0  0
    5.1733    4.0177    4.5112 O   0  0  0  0  0  0  0  0  0  0  0  0
    3.4253   -0.5824    1.0323 C   0  0  0  0  0  0  0  0  0  0  0  0
    2.6705    0.4987    0.6306 N   0  0  0  0  0  0  0  0  0  0  0  0
  1 10  2  0
  1 27  1  0
  2 16  2  0
  3 17  1  0
  3 21  1  0
  4  7  1  0
  4 14  1  0
  5  8  1  0
  5 13  1  0
  5 25  2  0
  6 18  2  0
  6 23  1  0
  7 22  1  0
  8 11  2  0
  9 23  1  0
 10 20  1  0
 11 12  1  0
 11 22  1  0
 12 14  1  0
 12 24  1  0
 13 19  1  0
 15 24  1  0
 15 27  2  0
 16 23  1  0
 16 28  1  0
 17 19  1  0
 17 26  1  0
 18 21  1  0
 20 24  2  0
 27 28  1  0
M  END
>  <ID>  (1) 
conformer_0

$$$$
