
     RDKit          3D

 25 27  0  0  0  0  0  0  0  0999 V2000
    5.5268    3.2175    3.8248 C   0  0  0  0  0  0  0  0  0  0  0  0
   10.3551   -0.7008   -0.9731 C   0  0  0  0  0  0  0  0  0  0  0  0
    2.3680    1.1707    0.3290 C   0  0  0  0  0  0  0  0  0  0  0  0
    5.4080    3.8389    2.7408 O   0  0  0  0  0  0  0  0  0  0  0  0
    5.2399    0.1129    2.8723 N   0  0  0  0  0  0  0  0  0  0  0  0
    9.3208    0.7211    0.5835 O   0  0  0  0  0  0  0  0  0  0  0  0
    1.1734    2.9496   -0.6644 N   0  0  0  0  0  0  0  0  0  0  0  0
    6.7758   -1.7828    2.2390 C   0  0  0  0  0  0  0  0  0  0  0  0
    1.2374    0.3842    0.1368 N   0  0  0  0  0  0  0  0  0  0  0  0
    5.9787    0.7178    4.0133 C   0  0  0  0  0  0  0  0  0  0  0  0
    9.5929   -1.6956   -0.1095 C   0  0  0  0  0  0  0  0  0  0  0  0
    0.1188    0.9849   -0.2264 N   0  0  0  0  0  0  0  0  0  0  0  0
    3.6167    0.4495    0.7357 C   0  0  0  0  0  0  0  0  0  0  0  0
    3.1056    3.4005    0.5027 O   0  0  0  0  0  0  0  0  0  0  0  0
    6.5675    2.0907    3.9031 C   0  0  0  0  0  0  0  0  0  0  0  0
    8.8332   -2.8939    0.8395 C   0  0  0  0  0  0  0  0  0  0  0  0
    4.7598    3.3536    4.8090 O   0  0  0  0  0  0  0  0  0  0  0  0
    8.7218   -0.5579    0.7423 N   0  0  0  0  0  0  0  0  0  0  0  0
    7.9495   -1.6369    1.4419 C   0  0  0  0  0  0  0  0  0  0  0  0
   10.5611    0.5788   -0.1609 C   0  0  0  0  0  0  0  0  0  0  0  0
    5.5203   -1.0838    2.1942 C   0  0  0  0  0  0  0  0  0  0  0  0
    3.2422   -0.9011    1.2914 C   0  0  0  0  0  0  0  0  0  0  0  0
    4.4144   -1.7877    1.5107 C   0  0  0  0  0  0  0  0  0  0  0  0
    2.2447    2.5611    0.0172 C   0  0  0  0  0  0  0  0  0  0  0  0
    0.0517    2.1779   -0.7995 C   0  0  0  0  0  0  0  0  0  0  0  0
  1  4  2  0
  1 15  1  0
  1 17  1  0
  2 11  1  0
  2 20  1  0
  3  9  2  0
  3 13  1  0
  3 24  1  0
  5 10  1  0
  5 21  1  0
  6 18  1  0
  6 20  1  0
  7 24  1  0
  7 25  2  0
  8 19  1  0
  8 21  1  0
  9 12  1  0
 10 15  1  0
 11 16  1  0
 11 18  1  0
 12 25  1  0
 13 22  1  0
 14 24  2  0
 16 19  1  0
 18 19  1  0
 21 23  1  0
 22 23  1  0
M  END
>  <ID>  (1) 
conformer_0

$$$$
