
     RDKit          3D

 24 25  0  0  0  0  0  0  0  0999 V2000
    2.0763   -1.1871    0.4621 O   0  0  0  0  0  0  0  0  0  0  0  0
    5.0282    1.1358    2.5668 C   0  0  0  0  0  0  0  0  0  0  0  0
    0.0669    2.8246   -0.8320 N   0  0  0  0  0  0  0  0  0  0  0  0
    1.0712    0.8555   -0.0982 N   0  0  0  0  0  0  0  0  0  0  0  0
    2.0824    0.1464    0.4615 C   0  0  0  0  0  0  0  0  0  0  0  0
    5.7065    3.4449    3.4302 S   0  0  0  0  0  4  0  0  0  0  0  0
    4.2686   -0.0143    1.7694 C   0  0  0  0  0  0  0  0  0  0  0  0
    6.8410    3.3651    2.4925 O   0  0  0  0  0  0  0  0  0  0  0  0
    2.0350    2.9321    0.5093 N   0  0  0  0  0  0  0  0  0  0  0  0
    3.1378    0.8152    1.0953 C   0  0  0  0  0  0  0  0  0  0  0  0
    7.6041   -1.6324    0.9796 C   0  0  0  0  0  0  0  0  0  0  0  0
    1.0746    2.2140   -0.1436 C   0  0  0  0  0  0  0  0  0  0  0  0
    3.0277    2.1943    1.0762 C   0  0  0  0  0  0  0  0  0  0  0  0
    6.5373   -4.3849    3.0657 O   0  0  0  0  0  0  0  0  0  0  0  0
    5.4709   -2.3604    2.4781 N   0  0  0  0  0  0  0  0  0  0  0  0
    5.0003    4.7614    3.4129 O   0  0  0  0  0  0  0  0  0  0  0  0
    5.4177   -1.1166    1.7672 C   0  0  0  0  0  0  0  0  0  0  0  0
    6.1345    3.0665    4.7874 O   0  0  0  0  0  0  0  0  0  0  0  0
    8.7921   -3.6708    1.6125 O   0  0  0  0  0  0  0  0  0  0  0  0
    6.5351   -0.7726    1.0197 C   0  0  0  0  0  0  0  0  0  0  0  0
    4.5726    2.4326    2.9692 N   0  0  0  0  0  0  0  0  0  0  0  0
    9.6580   -3.1823    0.7112 C   0  0  0  0  0  0  0  0  0  0  0  0
    7.6779   -2.8585    1.6427 C   0  0  0  0  0  0  0  0  0  0  0  0
    6.5392   -3.2097    2.3908 C   0  0  0  0  0  0  0  0  0  0  0  0
  1  5  2  0
  2  7  1  0
  2 21  2  3
  3 12  2  0
  4  5  1  0
  4 12  1  0
  5 10  1  0
  6  8  1  0
  6 16  1  0
  6 18  1  0
  6 21  1  0
  7 10  1  0
  7 17  1  0
  9 12  1  0
  9 13  2  0
 10 13  1  0
 11 20  2  0
 11 23  1  0
 14 24  2  0
 15 17  2  0
 15 24  1  0
 17 20  1  0
 19 22  1  0
 19 23  1  0
 23 24  1  0
M  END
>  <ID>  (1) 
conformer_0

$$$$
