
     RDKit          3D

 28 27  0  0  0  0  0  0  0  0999 V2000
   -0.0212    0.6406   -0.3036 O   0  0  0  0  0  0  0  0  0  0  0  0
    2.7891   -0.9168    0.5393 C   0  0  0  0  0  0  0  0  0  0  0  0
   -0.8345    3.2511   -0.7010 C   0  0  0  0  0  0  0  0  0  0  0  0
    4.5086   -2.2825    1.5909 O   0  0  0  0  0  0  0  0  0  0  0  0
    7.1787   -1.0667    3.7608 C   0  0  0  0  0  0  0  0  0  0  0  0
    0.6118    2.9414   -0.2575 C   0  0  0  0  0  0  0  0  0  0  0  0
    5.9922   -0.5359    4.5487 O   0  0  0  0  0  0  0  0  0  0  0  0
    4.5566    2.7595    3.5579 C   0  0  0  0  0  0  0  0  0  0  0  0
    9.7867   -3.8439    1.3079 C   0  0  0  0  0  0  0  0  0  0  0  0
    2.3322    1.0877   -0.7052 C   0  0  0  0  0  0  0  0  0  0  0  0
    2.5316    0.5250    0.6168 O   0  0  0  0  0  0  0  0  0  0  0  0
    0.9069    1.4621   -0.9136 C   0  0  0  0  0  0  0  0  0  0  0  0
    5.7861    1.9348    4.0731 C   0  0  0  0  0  0  0  0  0  0  0  0
    8.5309   -3.2380    3.2104 O   0  0  0  0  0  0  0  0  0  0  0  0
    4.8209   -2.9033    3.8339 O   0  0  0  0  0  0  0  0  0  0  0  0
    7.5036   -3.0598    2.1955 C   0  0  0  0  0  0  0  0  0  0  0  0
    6.6211    2.6903    4.9465 O   0  0  0  0  0  0  0  0  0  0  0  0
    5.4048    4.9552    3.7185 O   0  0  0  0  0  0  0  0  0  0  0  0
    5.2526    0.6443    4.9295 C   0  0  0  0  0  0  0  0  0  0  0  0
    4.7568    4.1593    1.6960 O   0  0  0  0  0  0  0  0  0  0  0  0
    6.4426    1.4768    2.8597 O   0  0  0  0  0  0  0  0  0  0  0  0
    4.9712    4.0332    2.9315 C   0  0  0  0  0  0  0  0  0  0  0  0
    5.0766   -0.4721    0.1431 O   0  0  0  0  0  0  0  0  0  0  0  0
    1.9989    3.5645   -0.2376 N   0  0  0  0  0  0  0  0  0  0  0  0
    6.6535   -1.8140    2.5063 C   0  0  0  0  0  0  0  0  0  0  0  0
    5.2316   -2.2252    2.8095 C   0  0  0  0  0  0  0  0  0  0  0  0
    4.2518   -1.1367    0.8277 C   0  0  0  0  0  0  0  0  0  0  0  0
    9.4925   -4.1818    2.7696 C   0  0  0  0  0  0  0  0  0  0  0  0
  1 12  1  0
  2 11  1  0
  2 27  1  0
  3  6  1  0
  4 26  1  0
  4 27  1  0
  5  7  1  0
  5 25  1  0
  6 12  1  0
  6 24  1  0
  7 19  1  0
  8 13  1  0
  8 22  1  0
  9 28  1  0
 10 11  1  0
 10 12  1  0
 13 17  1  0
 13 19  1  0
 13 21  1  0
 14 16  1  0
 14 28  1  0
 15 26  2  0
 16 25  1  0
 18 22  2  0
 20 22  1  0
 23 27  2  0
 25 26  1  0
M  END
>  <ID>  (1) 
conformer_0

$$$$
