
     RDKit          3D

 23 25  0  0  0  0  0  0  0  0999 V2000
    4.4541    2.1495    1.8336 C   0  0  0  0  0  0  0  0  0  0  0  0
    6.6529    2.3760    3.2118 C   0  0  0  0  0  0  0  0  0  0  0  0
    0.2408    0.6254   -0.1787 C   0  0  0  0  0  0  0  0  0  0  0  0
    2.9657    3.6632   -0.0706 O   0  0  0  0  0  0  0  0  0  0  0  0
    7.8528   -1.7616    1.0233 C   0  0  0  0  0  0  0  0  0  0  0  0
    4.9543    4.1014    3.4255 C   0  0  0  0  0  0  0  0  0  0  0  0
    3.6704    1.1047    1.2476 C   0  0  0  0  0  0  0  0  0  0  0  0
    2.1395    2.6785   -0.0192 C   0  0  0  0  0  0  0  0  0  0  0  0
    5.7712    3.1232    4.2415 C   0  0  0  0  0  0  0  0  0  0  0  0
    3.8946   -0.2271    1.7195 C   0  0  0  0  0  0  0  0  0  0  0  0
    0.9013    2.8712   -0.5414 N   0  0  0  0  0  0  0  0  0  0  0  0
    7.2696   -2.5625    2.3303 C   0  0  0  0  0  0  0  0  0  0  0  0
    8.9575   -2.8024    0.4857 C   0  0  0  0  0  0  0  0  0  0  0  0
    2.4126    1.3619    0.5142 C   0  0  0  0  0  0  0  0  0  0  0  0
    8.6281   -0.4650    1.2092 C   0  0  0  0  0  0  0  0  0  0  0  0
    5.8132    1.8274    2.1337 O   0  0  0  0  0  0  0  0  0  0  0  0
    5.0702    1.9797    5.0657 C   0  0  0  0  0  0  0  0  0  0  0  0
   -0.0417    1.8874   -0.5800 C   0  0  0  0  0  0  0  0  0  0  0  0
    5.6830   -2.1462    1.9339 C   0  0  0  0  0  0  0  0  0  0  0  0
    1.4632    0.3763    0.3406 C   0  0  0  0  0  0  0  0  0  0  0  0
    4.0378    3.4620    2.3851 C   0  0  0  0  0  0  0  0  0  0  0  0
    6.3327   -1.2518    0.8662 O   0  0  0  0  0  0  0  0  0  0  0  0
    4.1816   -1.6856    1.8223 C   0  0  0  0  0  0  0  0  0  0  0  0
  1  7  1  0
  1 16  1  0
  1 21  1  0
  2  9  1  0
  2 16  1  0
  3 18  1  0
  3 20  2  0
  4  8  2  0
  5 12  1  0
  5 13  1  0
  5 15  1  0
  5 22  1  0
  6  9  1  0
  6 21  1  0
  7 10  2  0
  7 14  1  0
  8 11  1  0
  8 14  1  0
  9 17  1  0
 10 23  2  0
 11 18  2  0
 12 19  1  0
 14 20  1  0
 19 22  1  0
 19 23  1  0
M  END
>  <ID>  (1) 
conformer_0

$$$$
