
     RDKit          3D

 25 26  0  0  0  0  0  0  0  0999 V2000
    8.7377   -0.6783    1.2288 C   0  0  0  0  0  0  0  0  0  0  0  0
    5.8075    3.4793    3.3178 P   0  0  0  0  0  4  0  0  0  0  0  0
   -0.8333    1.1614   -0.4651 O   0  0  0  0  0  0  0  0  0  0  0  0
    2.2692    2.5361    0.1497 C   0  0  0  0  0  0  0  0  0  0  0  0
    1.4618    1.6015   -0.0063 C   0  0  0  0  0  0  0  0  0  0  0  0
    5.0670    4.1351    4.4993 O   0  0  0  0  0  1  0  0  0  0  0  0
    8.0388   -2.9500    1.6255 C   0  0  0  0  0  0  0  0  0  0  0  0
    4.1634   -1.9816    1.3255 C   0  0  0  0  0  0  0  0  0  0  0  0
    9.0085   -2.0472    1.2328 C   0  0  0  0  0  0  0  0  0  0  0  0
    5.3565    4.1973    2.0097 O   0  0  0  0  0  0  0  0  0  0  0  0
    6.7754   -2.5037    1.8031 C   0  0  0  0  0  0  0  0  0  0  0  0
    4.4882    1.5252    2.0325 C   0  0  0  0  0  0  0  0  0  0  0  0
   10.1796   -2.5601    0.7743 O   0  0  0  0  0  0  0  0  0  0  0  0
    0.1277    1.9467   -0.4885 C   0  0  0  0  0  0  0  0  0  0  0  0
    4.1153    0.2838    1.3968 C   0  0  0  0  0  0  0  0  0  0  0  0
    6.4103   -1.1710    1.6173 C   0  0  0  0  0  0  0  0  0  0  0  0
    3.0062   -1.6654    0.9118 N   0  0  0  0  0  0  0  0  0  0  0  0
    7.3524    3.5444    3.4837 O   0  0  0  0  0  0  0  0  0  0  0  0
    1.7927    0.2894    0.2589 C   0  0  0  0  0  0  0  0  0  0  0  0
    7.4252   -0.2530    1.4368 C   0  0  0  0  0  0  0  0  0  0  0  0
    2.9423   -0.2104    0.8393 C   0  0  0  0  0  0  0  0  0  0  0  0
    5.0086   -0.8274    1.5540 N   0  0  0  0  0  0  0  0  0  0  0  0
    5.2193    1.7537    3.2927 C   0  0  0  0  0  0  0  0  0  0  0  0
    2.7648    3.6364    0.2441 N   0  0  0  0  0  0  0  0  0  0  0  0
   -0.0834    3.2772   -0.7406 N   0  0  0  0  0  0  0  0  0  0  0  0
  1  9  2  0
  1 20  1  0
  2  6  2  0
  2 10  1  0
  2 18  1  0
  2 23  1  0
  3 14  2  0
  4  5  1  0
  4 24  3  0
  5 14  1  0
  5 19  2  3
  7  9  1  0
  7 11  2  0
  8 17  1  0
  8 22  1  0
  9 13  1  0
 11 16  1  0
 12 15  1  0
 12 23  1  0
 14 25  1  0
 15 21  1  0
 15 22  1  0
 16 20  2  0
 16 22  1  0
 17 21  1  0
 19 21  1  0
M  END
>  <ID>  (1) 
conformer_0

$$$$
