
     RDKit          3D

 30 32  0  0  0  0  0  0  0  0999 V2000
    6.0401    1.2763    4.4144 O   0  0  0  0  0  0  0  0  0  0  0  0
    8.7088    2.7210    3.3861 O   0  0  0  0  0  0  0  0  0  0  0  0
    0.3872    3.3496   -0.3417 N   0  0  0  0  0  0  0  0  0  0  0  0
    1.6896   -0.0505    0.1805 C   0  0  0  0  0  0  0  0  0  0  0  0
    8.4930    1.0833    1.9977 C   0  0  0  0  0  0  0  0  0  0  0  0
    2.8777    0.2093    0.8335 C   0  0  0  0  0  0  0  0  0  0  0  0
    0.8438    0.9985   -0.2333 N   0  0  0  0  0  0  0  0  0  0  0  0
    6.4346    1.9729    3.2441 C   0  0  0  0  0  0  0  0  0  0  0  0
    3.9139   -0.7740    1.4327 C   0  0  0  0  0  0  0  0  0  0  0  0
    5.9609    3.4856    3.2592 C   0  0  0  0  0  0  0  0  0  0  0  0
    4.3415   -2.0986    1.8323 C   0  0  0  0  0  0  0  0  0  0  0  0
    3.1987   -1.9983    1.6937 C   0  0  0  0  0  0  0  0  0  0  0  0
    6.7637   -2.7087    2.0674 C   0  0  0  0  0  0  0  0  0  0  0  0
    6.4063   -0.3741    1.6744 C   0  0  0  0  0  0  0  0  0  0  0  0
    6.5503    4.3310    3.9453 O   0  0  0  0  0  0  0  0  0  0  0  0
    9.4051    0.5326    1.2741 C   0  0  0  0  0  0  0  0  0  0  0  0
    8.6206   -1.6653    1.0216 C   0  0  0  0  0  0  0  0  0  0  0  0
    3.2817    1.5267    0.9657 C   0  0  0  0  0  0  0  0  0  0  0  0
    2.0620   -2.4173    1.8985 N   0  0  0  0  0  0  0  0  0  0  0  0
    1.2294    2.2744    0.0068 C   0  0  0  0  0  0  0  0  0  0  0  0
    4.9615    3.8554    2.5587 O   0  0  0  0  0  0  0  0  0  0  0  0
    9.0460   -3.0556    0.5355 C   0  0  0  0  0  0  0  0  0  0  0  0
    5.1115    0.1464    1.5985 C   0  0  0  0  0  0  0  0  0  0  0  0
    9.5538   -0.6935    0.7853 N   0  0  0  0  0  0  0  0  0  0  0  0
    6.2789    1.8268    5.7329 C   0  0  0  0  0  0  0  0  0  0  0  0
    4.6403    1.5271    1.4311 O   0  0  0  0  0  0  0  0  0  0  0  0
    2.4002    2.5606    0.6345 N   0  0  0  0  0  0  0  0  0  0  0  0
    5.3869   -2.8246    2.1725 C   0  0  0  0  0  0  0  0  0  0  0  0
    7.3196   -1.4294    1.5804 C   0  0  0  0  0  0  0  0  0  0  0  0
    7.8793    1.8635    2.8660 C   0  0  0  0  0  0  0  0  0  0  0  0
  1  8  1  0
  1 25  1  0
  2 30  1  0
  3 20  2  0
  4  6  1  0
  4  7  2  0
  5 16  2  0
  5 30  2  0
  6  9  1  0
  6 18  2  0
  7 20  1  0
  8 10  1  0
  8 30  1  0
  9 12  1  0
  9 23  1  0
 10 15  2  0
 10 21  1  0
 11 12  2  0
 11 28  1  0
 12 19  1  0
 13 28  2  0
 13 29  1  0
 14 23  1  0
 14 29  1  0
 16 24  1  0
 17 22  1  0
 17 24  2  3
 17 29  1  0
 18 26  1  0
 18 27  1  0
 20 27  1  0
 23 26  1  0
M  END
>  <ID>  (1) 
conformer_0

$$$$
