
     RDKit          3D

 42 45  0  0  0  0  0  0  0  0999 V2000
    6.6376   -4.4313    3.1815 C   0  0  0  0  0  0  0  0  0  0  0  0
    9.8876    0.4326    4.2149 C   0  0  0  0  0  0  0  0  0  0  0  0
   11.5508    1.1483    2.4586 C   0  0  0  0  0  0  0  0  0  0  0  0
    5.6711   -1.2290    1.7071 N   0  0  0  0  0  0  0  0  0  0  0  0
    1.1525    2.6122   -0.1693 C   0  0  0  0  0  0  0  0  0  0  0  0
    2.3943    2.9512    0.4013 C   0  0  0  0  0  0  0  0  0  0  0  0
    8.0399   -4.3281    3.0773 C   0  0  0  0  0  0  0  0  0  0  0  0
   10.4450    1.4564    3.4321 N   0  0  0  0  0  0  0  0  0  0  0  0
    5.2801    4.8282    3.7408 O   0  0  0  0  0  0  0  0  0  0  0  0
    5.5291    3.6334    3.5131 C   0  0  0  0  0  0  0  0  0  0  0  0
    8.6713    2.4805    2.0770 O   0  0  0  0  0  0  0  0  0  0  0  0
    8.1710    2.8379    3.4119 C   0  0  0  0  0  0  0  0  0  0  0  0
    8.9039   -5.3352    3.7466 C   0  0  0  0  0  0  0  0  0  0  0  0
   -0.5049    1.2975   -0.7411 N   0  0  0  0  0  0  0  0  0  0  0  0
    6.1771   -0.7213    5.4116 O   0  0  0  0  0  1  0  0  0  0  0  0
    4.4184   -1.4291    1.1891 C   0  0  0  0  0  0  0  0  0  0  0  0
    4.4857    2.5748    1.6241 C   0  0  0  0  0  0  0  0  0  0  0  0
    5.7434    3.1093    2.2226 O   0  0  0  0  0  0  0  0  0  0  0  0
    6.4438   -2.3362    2.0045 C   0  0  0  0  0  0  0  0  0  0  0  0
    4.4893    0.8480    6.6852 O   0  0  0  0  0  0  0  0  0  0  0  0
    4.4147   -3.3267    2.5759 N   0  0  0  0  0  0  0  0  0  0  0  0
    5.8219   -3.4198    2.6047 C   0  0  0  0  0  0  0  0  0  0  0  0
    3.2759    1.9530    0.7489 C   0  0  0  0  0  0  0  0  0  0  0  0
   -0.9414    2.6070   -0.9120 C   0  0  0  0  0  0  0  0  0  0  0  0
    7.0140    0.8365    7.4077 O   0  0  0  0  0  0  0  0  0  0  0  0
    3.6490   -2.4175    1.9079 C   0  0  0  0  0  0  0  0  0  0  0  0
    9.6742    2.7093    3.0779 P   0  0  0  0  0  4  0  0  0  0  0  0
    7.8237   -2.3110    1.8032 C   0  0  0  0  0  0  0  0  0  0  0  0
    0.1238    3.4714   -0.5786 N   0  0  0  0  0  0  0  0  0  0  0  0
    3.0027    0.6228    0.3391 C   0  0  0  0  0  0  0  0  0  0  0  0
    2.3340   -2.2940    1.9198 O   0  0  0  0  0  0  0  0  0  0  0  0
    8.6184   -3.2950    2.3394 C   0  0  0  0  0  0  0  0  0  0  0  0
    8.5844    0.6319    4.6951 N   0  0  0  0  0  0  0  0  0  0  0  0
    0.8092    1.3214   -0.3149 C   0  0  0  0  0  0  0  0  0  0  0  0
   10.4552   -1.1390    4.1113 C   0  0  0  0  0  0  0  0  0  0  0  0
    4.0903   -0.4514    0.1759 C   0  0  0  0  0  0  0  0  0  0  0  0
    6.4876    2.0892    5.1356 C   0  0  0  0  0  0  0  0  0  0  0  0
    1.7460    0.3073   -0.0678 C   0  0  0  0  0  0  0  0  0  0  0  0
    7.7197    1.7553    4.3200 C   0  0  0  0  0  0  0  0  0  0  0  0
    5.1979    2.5544    4.4305 C   0  0  0  0  0  0  0  0  0  0  0  0
   10.4791    3.8787    3.1162 O   0  0  0  0  0  1  0  0  0  0  0  0
    6.0371    0.6908    6.1936 P   0  0  0  0  0  4  0  0  0  0  0  0
  1  7  2  0
  1 22  1  0
  2  8  1  0
  2 33  1  0
  2 35  1  0
  3  8  1  0
  4 16  1  0
  4 19  1  0
  5  6  2  0
  5 29  1  0
  5 34  1  0
  6 23  1  0
  7 13  1  0
  7 32  1  0
  8 27  1  0
  9 10  2  0
 10 18  1  0
 10 40  1  0
 11 27  1  0
 12 39  1  0
 14 24  1  0
 14 34  1  0
 15 42  2  0
 16 26  1  0
 16 36  1  0
 17 18  1  0
 17 23  1  0
 19 22  2  0
 19 28  1  0
 20 42  1  0
 21 22  1  0
 21 26  1  0
 23 30  2  0
 24 29  1  0
 25 42  1  0
 26 31  2  0
 27 41  2  0
 28 32  2  0
 30 36  1  0
 30 38  1  0
 33 39  2  3
 34 38  2  0
 37 39  1  0
 37 40  1  0
 37 42  1  0
M  END
>  <ID>  (1) 
conformer_0

$$$$
