
     RDKit          3D

 28 30  0  0  0  0  0  0  0  0999 V2000
    3.2918   -0.8112    1.1202 C   0  0  0  0  0  0  0  0  0  0  0  0
    3.8717    2.9096    1.6138 C   0  0  0  0  0  0  0  0  0  0  0  0
    0.3046    0.5773   -0.3725 O   0  0  0  0  0  0  0  0  0  0  0  0
    2.0613    3.0836    0.0831 C   0  0  0  0  0  0  0  0  0  0  0  0
    3.8763    0.3559    1.4640 C   0  0  0  0  0  0  0  0  0  0  0  0
    8.0451    2.9887    4.1955 O   0  0  0  0  0  0  0  0  0  0  0  0
    9.5251   -3.8370    0.8052 C   0  0  0  0  0  0  0  0  0  0  0  0
    7.0167    2.1215    4.2128 C   0  0  0  0  0  0  0  0  0  0  0  0
    5.7912    3.8941    2.1709 O   0  0  0  0  0  0  0  0  0  0  0  0
    7.0828   -0.3966    3.2024 N   0  0  0  0  0  0  0  0  0  0  0  0
    5.1529   -1.9526    2.2349 C   0  0  0  0  0  0  0  0  0  0  0  0
    8.3558   -0.9096    2.5042 C   0  0  0  0  0  0  0  0  0  0  0  0
    2.2432    1.6882    0.4305 N   0  0  0  0  0  0  0  0  0  0  0  0
    5.8087    2.6370    4.7030 O   0  0  0  0  0  0  0  0  0  0  0  0
    0.8333    3.5217   -0.3313 N   0  0  0  0  0  0  0  0  0  0  0  0
    1.5245    0.4915    0.1604 C   0  0  0  0  0  0  0  0  0  0  0  0
    7.7208    0.1358    5.4393 O   0  0  0  0  0  0  0  0  0  0  0  0
    3.0485    3.8586    0.6739 N   0  0  0  0  0  0  0  0  0  0  0  0
    4.7218    3.1518    3.9224 N   0  0  0  0  0  0  0  0  0  0  0  0
    5.5671   -3.1550    2.6889 O   0  0  0  0  0  0  0  0  0  0  0  0
    7.3316    0.6439    4.2137 C   0  0  0  0  0  0  0  0  0  0  0  0
    3.9116   -2.0538    1.4709 O   0  0  0  0  0  0  0  0  0  0  0  0
    5.8984   -0.8185    2.5794 N   0  0  0  0  0  0  0  0  0  0  0  0
    8.4399   -2.4341    2.4402 C   0  0  0  0  0  0  0  0  0  0  0  0
    2.0318   -0.7530    0.4403 C   0  0  0  0  0  0  0  0  0  0  0  0
    9.7605   -2.9983    2.0635 C   0  0  0  0  0  0  0  0  0  0  0  0
    3.4272    1.6132    1.2249 C   0  0  0  0  0  0  0  0  0  0  0  0
    4.8103    3.3898    2.5677 C   0  0  0  0  0  0  0  0  0  0  0  0
  1  5  2  0
  1 22  1  0
  1 25  1  0
  2 18  1  0
  2 27  2  0
  2 28  1  0
  3 16  2  0
  4 13  1  0
  4 15  2  0
  4 18  1  0
  5 27  1  0
  6  8  2  0
  7 26  1  0
  8 14  1  0
  8 21  1  0
  9 28  2  0
 10 12  1  0
 10 21  1  0
 10 23  1  0
 11 20  2  0
 11 22  1  0
 11 23  1  0
 12 24  1  0
 13 16  1  0
 13 27  1  0
 14 19  1  0
 16 25  1  0
 17 21  2  0
 19 28  1  0
 24 26  1  0
M  END
>  <ID>  (1) 
conformer_0

$$$$
