
     RDKit          3D

 22 21  0  0  0  0  0  0  0  0999 V2000
    7.1452    2.3555    2.2071 O   0  0  0  0  0  1  0  0  0  0  0  0
    3.3843    2.2797    1.3465 C   0  0  0  0  0  3  0  0  0  0  0  0
    4.5157    4.4239    1.4122 O   0  0  0  0  0  0  0  0  0  0  0  0
    1.1162    2.5497   -0.4044 N   0  0  0  0  0  0  0  0  0  0  0  0
    8.4380    3.6217    3.9641 O   0  0  0  0  0  0  0  0  0  0  0  0
    7.1174    2.9576    3.6582 P   0  0  0  0  0  4  0  0  0  0  0  0
    0.5904    0.4114   -0.0850 O   0  0  0  0  0  0  0  0  0  0  0  0
    6.6561    1.9681    4.8120 O   0  0  0  0  0  0  0  0  0  0  0  0
    5.8955    4.0608    3.6707 O   0  0  0  0  0  0  0  0  0  0  0  0
    7.6202   -4.8035    3.6000 C   0  0  0  0  0  0  0  0  0  0  0  0
    5.5709   -2.4032    2.3241 C   0  0  0  0  0  0  0  0  0  0  0  0
    4.5074    3.3189    3.3412 O   0  0  0  0  0  0  0  0  0  0  0  0
    4.5503   -0.1629    1.5297 C   0  0  0  0  0  0  0  0  0  0  0  0
    2.6637    1.1490    0.7049 C   0  0  0  0  0  0  0  0  0  0  0  0
    1.4604    1.3002   -0.0261 C   0  0  0  0  0  0  0  0  0  0  0  0
    6.6862   -3.7320    4.0529 O   0  0  0  0  0  0  0  0  0  0  0  0
    3.5343   -0.0410    0.4769 C   0  0  0  0  0  0  0  0  0  0  0  0
    6.9374   -2.5636    3.0488 C   0  0  0  0  0  0  0  0  0  0  0  0
    0.0176    2.6499   -1.2338 N   0  0  0  0  0  0  0  0  0  0  0  0
    4.1836    0.0778    2.8294 O   0  0  0  0  0  0  0  0  0  0  0  0
    4.1836    3.3680    1.9509 C   0  0  0  0  0  0  0  0  0  0  0  0
    5.6464   -1.1675    1.3203 C   0  0  0  0  0  0  0  0  0  0  0  0
  1  6  2  0
  2 14  2  0
  2 21  1  0
  3 21  2  0
  4 15  1  0
  4 19  1  0
  5  6  1  0
  6  8  1  0
  6  9  1  0
  7 15  2  0
  9 12  1  0
 10 16  1  0
 11 18  1  0
 11 22  1  0
 12 21  1  0
 13 17  1  0
 13 20  1  0
 13 22  1  0
 14 15  1  0
 14 17  1  0
 16 18  1  0
M  END
>  <ID>  (1) 
conformer_0

$$$$
