
     RDKit          3D

 17 17  0  0  0  0  0  0  0  0999 V2000
    5.4175    0.9718    2.2204 C   0  0  0  0  0  0  0  0  0  0  0  0
    5.6015   -0.6499    1.4977 S   0  0  0  0  0  0  0  0  0  0  0  0
    7.6027   -2.1533    1.3953 C   0  0  0  0  0  0  0  0  0  0  0  0
    3.8990    1.3253    1.7334 C   0  0  0  0  0  0  0  0  0  0  0  0
    6.9365    2.8483    3.3535 C   0  0  0  0  0  0  0  0  0  0  0  0
    3.3587    0.6460    0.4341 C   0  0  0  0  0  0  0  0  0  0  0  0
    5.9359    3.6588    3.4030 O   0  0  0  0  0  0  0  0  0  0  0  0
    1.7326   -1.1828    0.7448 O   0  0  0  0  0  0  0  0  0  0  0  0
    6.7297    1.3872    2.9463 C   0  0  0  0  0  0  0  0  0  0  0  0
    8.0974    3.2318    3.7073 O   0  0  0  0  0  0  0  0  0  0  0  0
    2.3975    3.0277   -0.4321 O   0  0  0  0  0  0  0  0  0  0  0  0
    7.6903    0.1223    2.8731 C   0  0  0  0  0  0  0  0  0  0  0  0
    0.1010    3.1838   -0.3557 N   0  0  0  0  0  0  0  0  0  0  0  0
    2.1122    0.0115    0.1435 C   0  0  0  0  0  0  0  0  0  0  0  0
    1.3011    2.3702   -0.2136 C   0  0  0  0  0  0  0  0  0  0  0  0
    1.0121    0.9287   -0.2513 C   0  0  0  0  0  0  0  0  0  0  0  0
    7.0331   -1.0609    2.1427 C   0  0  0  0  0  0  0  0  0  0  0  0
  1  2  1  0
  1  4  1  0
  1  9  2  0
  2 17  1  0
  3 17  1  0
  4  6  1  0
  5  7  2  0
  5  9  1  0
  5 10  1  0
  6 14  1  0
  8 14  1  0
  9 12  1  0
 11 15  2  0
 12 17  1  0
 13 15  1  0
 14 16  1  0
 15 16  1  0
M  END
>  <ID>  (1) 
conformer_0

$$$$
