
     RDKit          3D

 16 16  0  0  0  0  0  0  0  0999 V2000
    2.6526    1.6146    0.9119 C   0  0  0  0  0  0  0  0  0  0  0  0
    8.0297   -1.4207    1.1036 C   0  0  0  0  0  0  0  0  0  0  0  0
    3.8945    1.8738    1.6720 C   0  0  0  0  0  0  0  0  0  0  0  0
    9.0162    1.9710    1.9247 C   0  0  0  0  0  0  0  0  0  0  0  0
    4.3266   -0.5668    1.3900 C   0  0  0  0  0  0  0  0  0  0  0  0
    9.0759   -0.4026    1.2083 C   0  0  0  0  0  0  0  0  0  0  0  0
    0.0939    1.7780   -0.7599 C   0  0  0  0  0  0  0  0  0  0  0  0
    2.2284    2.6708   -0.0351 C   0  0  0  0  0  0  0  0  0  0  0  0
    4.6033    0.7261    2.0401 N   0  0  0  0  0  0  0  0  0  0  0  0
    6.8801   -0.8200    1.5729 C   0  0  0  0  0  0  0  0  0  0  0  0
    0.1553    0.5545   -0.1160 O   0  0  0  0  0  0  0  0  0  0  0  0
    8.4279    0.6998    1.7086 N   0  0  0  0  0  0  0  0  0  0  0  0
    7.1759    0.4518    1.9700 N   0  0  0  0  0  0  0  0  0  0  0  0
    4.3617    2.9593    1.9478 O   0  0  0  0  0  0  0  0  0  0  0  0
    5.5223   -1.5292    1.5335 C   0  0  0  0  0  0  0  0  0  0  0  0
    0.7351    2.8771   -0.0317 C   0  0  0  0  0  0  0  0  0  0  0  0
  1  3  1  0
  1  8  1  0
  2  6  1  0
  2 10  1  0
  3  9  1  0
  3 14  2  0
  4 12  1  0
  5  9  1  0
  5 15  1  0
  6 12  1  0
  7 11  1  0
  7 16  1  0
  8 16  1  0
 10 13  1  0
 10 15  1  0
 12 13  1  0
M  END
>  <ID>  (1) 
conformer_0

$$$$
