
     RDKit          3D

 30 31  0  0  0  0  0  0  0  0999 V2000
    6.5870    1.6438    3.4143 C   0  0  0  0  0  0  0  0  0  0  0  0
    5.7091    2.9343    3.7081 C   0  0  0  0  0  0  0  0  0  0  0  0
    4.5718   -2.8613    3.4444 C   0  0  0  0  0  0  0  0  0  0  0  0
    4.9685    2.2213    5.8806 O   0  0  0  0  0  0  0  0  0  0  0  0
    6.0326    2.5624    5.2732 C   0  0  0  0  0  0  0  0  0  0  0  0
    5.6845   -3.5879    3.0212 C   0  0  0  0  0  0  0  0  0  0  0  0
    7.1858    2.6690    5.7215 O   0  0  0  0  0  0  0  0  0  0  0  0
    2.7265    2.6064    0.6664 C   0  0  0  0  0  0  0  0  0  0  0  0
    7.4913    1.9923    2.1923 N   0  0  0  0  0  0  0  0  0  0  0  0
    6.7007   -3.0274    2.2264 C   0  0  0  0  0  0  0  0  0  0  0  0
    5.3676    4.4030    4.0422 O   0  0  0  0  0  0  0  0  0  0  0  0
    6.4408   -1.7423    1.6876 C   0  0  0  0  0  0  0  0  0  0  0  0
    2.6409    0.3068    0.7561 C   0  0  0  0  0  0  0  0  0  0  0  0
    0.8959    1.5447   -0.2385 C   0  0  0  0  0  0  0  0  0  0  0  0
    3.3260    1.4661    1.0849 C   0  0  0  0  0  0  0  0  0  0  0  0
    5.0150    3.9510    1.6436 O   0  0  0  0  0  0  0  0  0  0  0  0
    7.8620   -3.7554    2.1416 N   0  0  0  0  0  0  0  0  0  0  0  0
    1.4145    0.3130    0.1748 N   0  0  0  0  0  0  0  0  0  0  0  0
   10.2350   -4.2594    2.7255 C   0  0  0  0  0  0  0  0  0  0  0  0
    4.5855    1.5032    1.8651 C   0  0  0  0  0  0  0  0  0  0  0  0
   -0.4199    1.6216   -0.8637 C   0  0  0  0  0  0  0  0  0  0  0  0
    4.4856   -1.5044    3.0712 C   0  0  0  0  0  0  0  0  0  0  0  0
    7.1183   -1.1701    0.6621 O   0  0  0  0  0  0  0  0  0  0  0  0
    5.3974   -0.9566    2.1852 C   0  0  0  0  0  0  0  0  0  0  0  0
   -0.6444    2.8675   -1.3272 N   0  0  0  0  0  0  0  0  0  0  0  0
    5.3369    0.3619    1.7376 N   0  0  0  0  0  0  0  0  0  0  0  0
    9.1270   -3.6084    1.8997 C   0  0  0  0  0  0  0  0  0  0  0  0
    4.9622    2.8358    2.3478 C   0  0  0  0  0  0  0  0  0  0  0  0
    1.6023    2.6829   -0.0566 N   0  0  0  0  0  0  0  0  0  0  0  0
    9.5423   -2.9663    0.5724 C   0  0  0  0  0  0  0  0  0  0  0  0
  1  2  1  0
  1  9  1  0
  2  5  1  0
  2 11  1  0
  2 28  1  0
  3  6  2  0
  3 22  1  0
  4  5  2  0
  5  7  1  0
  6 10  1  0
  8 15  2  0
  8 29  1  0
 10 12  2  0
 10 17  1  0
 12 23  1  0
 12 24  1  0
 13 15  1  0
 13 18  2  0
 14 18  1  0
 14 21  1  0
 14 29  2  0
 15 20  1  0
 16 28  1  0
 17 27  1  0
 19 27  1  0
 20 26  1  0
 20 28  1  0
 21 25  1  0
 22 24  2  0
 24 26  1  0
 27 30  1  0
M  END
>  <ID>  (1) 
conformer_0

$$$$
