
     RDKit          3D

 27 28  0  0  0  0  0  0  0  0999 V2000
    1.8856    3.3626   -0.2118 N   0  0  0  0  0  0  0  0  0  0  0  0
    8.2555   -2.9901    2.0622 O   0  0  0  0  0  0  0  0  0  0  0  0
    3.7131    2.9621    1.7188 C   0  0  0  0  0  0  0  0  0  0  0  0
    3.5201   -1.9338    1.9530 C   0  0  0  0  0  0  0  0  0  0  0  0
    8.7803   -2.1793   -0.1835 C   0  0  0  0  0  0  0  0  0  0  0  0
    4.8716    2.9163    2.7987 S   0  0  0  0  0  0  0  0  0  0  0  0
    9.0691    0.4561    4.3231 C   0  0  0  0  0  0  0  0  0  0  0  0
    2.1413    2.1630    0.1184 C   0  0  0  0  0  0  0  0  0  0  0  0
    2.1043   -2.3762    1.8937 C   0  0  0  0  0  0  0  0  0  0  0  0
    8.3596    0.8192    1.9781 C   0  0  0  0  0  0  0  0  0  0  0  0
    5.4864   -0.9213    1.6463 C   0  0  0  0  0  0  0  0  0  0  0  0
    6.4509    3.1840    3.0699 C   0  0  0  0  0  0  0  0  0  0  0  0
    7.6565    2.5727    3.6073 C   0  0  0  0  0  0  0  0  0  0  0  0
    8.5534   -0.5716    1.6844 N   0  0  0  0  0  0  0  0  0  0  0  0
    8.5853    1.7362    1.1349 O   0  0  0  0  0  0  0  0  0  0  0  0
    5.7070   -2.0328    2.3898 C   0  0  0  0  0  0  0  0  0  0  0  0
    4.0643   -3.7584    3.5141 C   0  0  0  0  0  0  0  0  0  0  0  0
    4.1215   -0.7776    1.4188 C   0  0  0  0  0  0  0  0  0  0  0  0
    3.2692    0.2836    0.8783 C   0  0  0  0  0  0  0  0  0  0  0  0
    1.3648    0.9760   -0.2317 C   0  0  0  0  0  0  0  0  0  0  0  0
    8.3980   -1.9330    1.2730 C   0  0  0  0  0  0  0  0  0  0  0  0
    8.0044    1.1190    3.4519 C   0  0  0  0  0  0  0  0  0  0  0  0
    0.0398    1.0895   -0.3636 O   0  0  0  0  0  0  0  0  0  0  0  0
    8.6309    3.4291    3.9160 O   0  0  0  0  0  0  0  0  0  0  0  0
    1.9941   -0.0965    0.3840 N   0  0  0  0  0  0  0  0  0  0  0  0
    3.2623    1.7004    0.9499 N   0  0  0  0  0  0  0  0  0  0  0  0
    4.4946   -2.6391    2.5949 N   0  0  0  0  0  0  0  0  0  0  0  0
  1  8  2  0
  2 21  2  0
  3  6  1  0
  3 26  1  0
  4  9  1  0
  4 18  2  0
  4 27  1  0
  5 21  1  0
  6 12  1  0
  7 22  1  0
  8 20  1  0
  8 26  1  0
 10 14  1  0
 10 15  2  0
 10 22  1  0
 11 16  1  0
 11 18  1  0
 12 13  1  0
 13 22  1  0
 13 24  1  0
 14 21  1  0
 16 27  1  0
 17 27  1  0
 18 19  1  0
 19 25  2  0
 19 26  1  0
 20 23  2  0
 20 25  1  0
M  END
>  <ID>  (1) 
conformer_0

$$$$
