
     RDKit          3D

 27 28  0  0  0  0  0  0  0  0999 V2000
    3.1261    2.1050    1.0750 C   0  0  0  0  0  0  0  0  0  0  0  0
    6.7114    2.9692    2.0826 O   0  0  0  0  0  0  0  0  0  0  0  0
    9.1315    0.6628    0.4027 N   0  0  0  0  0  0  0  0  0  0  0  0
    3.8810    1.0586    1.6451 C   0  0  0  0  0  0  0  0  0  0  0  0
    5.1798    1.2223    2.4218 C   0  0  0  0  0  0  0  0  0  0  0  0
    9.0799   -0.5466   -0.0856 C   0  0  0  0  0  0  0  0  0  0  0  0
    6.0863    0.0509    2.3335 N   0  0  0  0  0  0  0  0  0  0  0  0
    5.8905    2.8040    4.1225 O   0  0  0  0  0  0  0  0  0  0  0  0
   10.0682    0.1918   -2.1693 C   0  0  0  0  0  0  0  0  0  0  0  0
    1.5923    0.5326    0.0794 C   0  0  0  0  0  0  0  0  0  0  0  0
    2.9951   -2.3762    2.7768 C   0  0  0  0  0  0  0  0  0  0  0  0
    4.0797   -1.4195    2.2153 C   0  0  0  0  0  0  0  0  0  0  0  0
    1.9729    1.9058    0.2759 C   0  0  0  0  0  0  0  0  0  0  0  0
    1.1490    2.9174   -0.3805 C   0  0  0  0  0  0  0  0  0  0  0  0
    6.0771   -3.5230    2.5794 O   0  0  0  0  0  0  0  0  0  0  0  0
    2.3049   -0.5099    0.6746 C   0  0  0  0  0  0  0  0  0  0  0  0
    5.5829   -1.2461    1.9955 C   0  0  0  0  0  0  0  0  0  0  0  0
   10.0262   -0.8970   -1.1332 C   0  0  0  0  0  0  0  0  0  0  0  0
    5.9677    2.4654    2.9017 C   0  0  0  0  0  0  0  0  0  0  0  0
    7.9046   -1.3129    0.2184 O   0  0  0  0  0  0  0  0  0  0  0  0
    7.9120   -1.8449    1.6119 C   0  0  0  0  0  0  0  0  0  0  0  0
   -0.0057    2.6140   -0.9951 N   0  0  0  0  0  0  0  0  0  0  0  0
    3.4088   -0.2876    1.4908 C   0  0  0  0  0  0  0  0  0  0  0  0
    1.5290    4.1596   -0.2722 N   0  0  0  0  0  0  0  0  0  0  0  0
    1.7462   -2.4677    2.2855 O   0  0  0  0  0  0  0  0  0  0  0  0
    3.4125   -3.0740    3.7649 O   0  0  0  0  0  0  0  0  0  0  0  0
    6.5405   -2.3504    1.9980 C   0  0  0  0  0  0  0  0  0  0  0  0
  1  4  2  0
  1 13  1  0
  2 19  2  0
  3  6  2  0
  4  5  1  0
  4 23  1  0
  5  7  1  0
  5 19  1  0
  6 18  1  0
  6 20  1  0
  7 17  1  0
  8 19  1  0
  9 18  1  0
 10 13  2  0
 10 16  1  0
 11 12  1  0
 11 25  2  0
 11 26  1  0
 12 17  1  0
 12 23  1  0
 13 14  1  0
 14 22  2  0
 14 24  1  0
 15 27  1  0
 16 23  2  0
 17 27  1  0
 20 21  1  0
 21 27  1  0
M  END
>  <ID>  (1) 
conformer_0

$$$$
