
     RDKit          3D

 31 34  0  0  0  0  0  0  0  0999 V2000
    5.8205    3.7050    3.5129 S   0  0  0  0  0  3  0  0  0  0  0  0
   -0.4224    1.0357   -0.6145 O   0  0  0  0  0  0  0  0  0  0  0  0
    7.0090   -1.4062    1.9971 C   0  0  0  0  0  0  0  0  0  0  0  0
    7.4616   -3.5641    5.4541 C   0  0  0  0  0  0  0  0  0  0  0  0
    5.1491   -3.3222    2.9535 C   0  0  0  0  0  0  0  0  0  0  0  0
    9.6698   -2.3032    1.5339 C   0  0  0  0  0  0  0  0  0  0  0  0
    2.3512    2.8581    0.5522 C   0  0  0  0  0  0  0  0  0  0  0  0
    0.3806    3.5111   -0.5039 O   0  0  0  0  0  0  0  0  0  0  0  0
    7.0477    3.6354    3.9092 O   0  0  0  0  0  0  0  0  0  0  0  0
    3.6514    0.8205    1.2083 C   0  0  0  0  0  0  0  0  0  0  0  0
    5.7836   -5.1506    4.9645 O   0  0  0  0  0  0  0  0  0  0  0  0
    5.0614    2.6334    2.7446 C   0  0  0  0  0  0  0  0  0  0  0  0
    4.7335   -2.0940    2.3852 C   0  0  0  0  0  0  0  0  0  0  0  0
    4.1565    3.0735    1.8967 N   0  0  0  0  0  0  0  0  0  0  0  0
    6.5356   -3.5523    3.1659 C   0  0  0  0  0  0  0  0  0  0  0  0
    1.5627    0.1390    0.1650 C   0  0  0  0  0  0  0  0  0  0  0  0
    6.8884   -4.3986    4.3324 C   0  0  0  0  0  0  0  0  0  0  0  0
    8.7189   -3.1721    2.0939 C   0  0  0  0  0  0  0  0  0  0  0  0
    5.1695    4.7714    3.7829 O   0  0  0  0  0  1  0  0  0  0  0  0
    4.9331    0.3080    1.7604 N   0  0  0  0  0  0  0  0  0  0  0  0
    7.4212   -2.7451    2.4231 C   0  0  0  0  0  0  0  0  0  0  0  0
    3.3409    2.1867    1.1588 C   0  0  0  0  0  0  0  0  0  0  0  0
    9.2930   -0.9356    1.2672 C   0  0  0  0  0  0  0  0  0  0  0  0
    7.9952   -0.5584    1.4718 C   0  0  0  0  0  0  0  0  0  0  0  0
    6.9398    1.0951    3.1304 C   0  0  0  0  0  0  0  0  0  0  0  0
    6.6213    0.6972    4.5459 O   0  0  0  0  0  0  0  0  0  0  0  0
    5.6171   -1.0408    2.0178 C   0  0  0  0  0  0  0  0  0  0  0  0
    1.1960    2.5416   -0.0222 C   0  0  0  0  0  0  0  0  0  0  0  0
    2.7552   -0.1023    0.6978 C   0  0  0  0  0  0  0  0  0  0  0  0
    5.7169    1.3722    2.3136 C   0  0  0  0  0  0  0  0  0  0  0  0
    0.8132    1.2382   -0.1395 C   0  0  0  0  0  0  0  0  0  0  0  0
  1  9  1  0
  1 12  1  0
  1 19  2  0
  2 31  1  0
  3 21  1  0
  3 24  1  0
  3 27  2  0
  4 17  1  0
  5 13  2  0
  5 15  1  0
  6 18  1  0
  6 23  1  0
  7 22  1  0
  7 28  2  0
  8 28  1  0
 10 20  1  0
 10 22  2  0
 10 29  1  0
 11 17  1  0
 12 14  1  0
 12 30  1  0
 13 27  1  0
 14 22  1  0
 15 17  1  0
 15 21  1  0
 16 29  2  0
 16 31  1  0
 18 21  2  0
 20 27  1  0
 20 30  1  0
 23 24  2  0
 25 26  1  0
 25 30  1  0
 28 31  1  0
M  END
>  <ID>  (1) 
conformer_0

$$$$
