
     RDKit          3D

 22 23  0  0  0  0  0  0  0  0999 V2000
    2.0414    2.4960    0.5765 C   0  0  0  0  0  0  0  0  0  0  0  0
    6.7192   -2.1275    2.8153 C   0  0  0  0  0  0  0  0  0  0  0  0
    4.2596    2.7362    1.6090 C   0  0  0  0  0  0  0  0  0  0  0  0
    8.7807   -2.6493    1.2514 C   0  0  0  0  0  0  0  0  0  0  0  0
    1.0303    0.4557   -0.0999 C   0  0  0  0  0  0  0  0  0  0  0  0
    7.6771   -4.4546    2.8014 C   0  0  0  0  0  0  0  0  0  0  0  0
   -0.0337    2.5818   -0.7338 C   0  0  0  0  0  0  0  0  0  0  0  0
    6.8631    3.6748    3.5510 O   0  0  0  0  0  0  0  0  0  0  0  0
    5.0405   -0.3106    2.6595 C   0  0  0  0  0  0  0  0  0  0  0  0
    3.1271    0.3889    1.0494 C   0  0  0  0  0  0  0  0  0  0  0  0
    6.4268   -0.7764    2.3492 C   0  0  0  0  0  0  0  0  0  0  0  0
    0.1768    3.9863   -0.3860 O   0  0  0  0  0  0  0  0  0  0  0  0
    1.0260    1.8498   -0.0691 C   0  0  0  0  0  0  0  0  0  0  0  0
    7.0943   -0.0884    1.5060 O   0  0  0  0  0  0  0  0  0  0  0  0
    7.6832   -3.0699    2.1573 C   0  0  0  0  0  0  0  0  0  0  0  0
    4.1782   -0.5684    1.5171 C   0  0  0  0  0  0  0  0  0  0  0  0
    3.1237    1.8402    1.1040 C   0  0  0  0  0  0  0  0  0  0  0  0
    4.8124    3.6857    4.4331 O   0  0  0  0  0  0  0  0  0  0  0  0
    4.9339    1.0538    3.1204 N   0  0  0  0  0  0  0  0  0  0  0  0
    5.6729    3.3429    3.5674 C   0  0  0  0  0  0  0  0  0  0  0  0
    2.0669   -0.2575    0.4369 C   0  0  0  0  0  0  0  0  0  0  0  0
    5.2243    2.3199    2.5560 C   0  0  0  0  0  0  0  0  0  0  0  0
  1 13  2  0
  1 17  1  0
  2 11  1  0
  2 15  1  0
  3 17  1  0
  3 22  1  0
  4 15  1  0
  5 13  1  0
  5 21  2  0
  6 15  1  0
  7 12  1  0
  7 13  1  0
  8 20  2  0
  9 11  1  0
  9 16  1  0
  9 19  1  0
 10 16  1  0
 10 17  2  0
 10 21  1  0
 11 14  2  0
 18 20  1  0
 19 22  1  0
 20 22  1  0
M  END
>  <ID>  (1) 
conformer_0

$$$$
