
     RDKit          3D

 28 28  0  0  0  0  0  0  0  0999 V2000
    7.7542    2.6908    5.7975 O   0  0  0  0  0  0  0  0  0  0  0  0
    9.2714   -0.7056    1.7817 C   0  0  0  0  0  0  0  0  0  0  0  0
    9.1830   -2.7040    0.2942 C   0  0  0  0  0  0  0  0  0  0  0  0
    4.7249   -1.2731    1.3307 C   0  0  0  0  0  0  0  0  0  0  0  0
    3.8862    1.0621    1.6863 C   0  0  0  0  0  0  0  0  0  0  0  0
    4.9928    3.4400    2.5922 C   0  0  0  0  0  0  0  0  0  0  0  0
    9.4386    1.2996    4.8099 C   0  0  0  0  0  0  0  0  0  0  0  0
    7.1383   -3.8806    2.6007 C   0  0  0  0  0  0  0  0  0  0  0  0
    1.6162    4.1451   -0.1794 N   0  0  0  0  0  0  0  0  0  0  0  0
   -0.7929    0.8935   -0.3943 O   0  0  0  0  0  0  0  0  0  0  0  0
    4.4365    3.6838    3.7100 O   0  0  0  0  0  0  0  0  0  0  0  0
    6.7199   -1.4515    2.9805 C   0  0  0  0  0  0  0  0  0  0  0  0
    5.8430    2.2971    2.4597 N   0  0  0  0  0  0  0  0  0  0  0  0
    7.3195   -2.4889    1.9368 C   0  0  0  0  0  0  0  0  0  0  0  0
    1.7398    0.3268   -0.4565 C   0  0  0  0  0  0  0  0  0  0  0  0
    2.4415   -0.5558    0.4981 C   0  0  0  0  0  0  0  0  0  0  0  0
    7.5387   -0.5504    3.9977 C   0  0  0  0  0  0  0  0  0  0  0  0
    2.3185    2.8592   -0.0053 C   0  0  0  0  0  0  0  0  0  0  0  0
    7.0458    0.8812    4.3501 C   0  0  0  0  0  0  0  0  0  0  0  0
    8.0873    1.8173    4.8709 C   0  0  0  0  0  0  0  0  0  0  0  0
    5.7184   -0.5389    2.2808 C   0  0  0  0  0  0  0  0  0  0  0  0
    1.3766    1.7098    0.0584 C   0  0  0  0  0  0  0  0  0  0  0  0
    5.7775    0.9698    5.0163 O   0  0  0  0  0  0  0  0  0  0  0  0
    3.8910   -0.0986    0.6269 C   0  0  0  0  0  0  0  0  0  0  0  0
    5.2745    0.9239    2.3880 C   0  0  0  0  0  0  0  0  0  0  0  0
    8.8366   -2.1948    1.7183 C   0  0  0  0  0  0  0  0  0  0  0  0
    0.0228    2.0214   -0.6384 C   0  0  0  0  0  0  0  0  0  0  0  0
    4.8868    4.1990    1.6393 O   0  0  0  0  0  0  0  0  0  0  0  0
  1 20  1  0
  2 26  1  0
  3 26  1  0
  4 21  1  0
  4 24  1  0
  5 24  1  0
  5 25  1  0
  6 11  2  0
  6 13  1  0
  6 28  1  0
  7 20  1  0
  8 14  1  0
  9 18  1  0
 10 27  1  0
 12 14  1  0
 12 17  1  0
 12 21  1  0
 13 25  1  0
 14 26  1  0
 15 16  1  0
 15 22  1  0
 16 24  1  0
 17 19  1  0
 18 22  1  0
 19 20  1  0
 19 23  1  0
 21 25  1  0
 22 27  1  0
M  END
>  <ID>  (1) 
conformer_0

$$$$
