
     RDKit          3D

 24 26  0  0  0  0  0  0  0  0999 V2000
    0.5470    3.3795   -0.6368 N   0  0  0  0  0  0  0  0  0  0  0  0
    3.9975   -1.7593    2.9512 C   0  0  0  0  0  0  0  0  0  0  0  0
    9.1782    2.2014    4.0096 O   0  0  0  0  0  1  0  0  0  0  0  0
    4.9191   -2.9654    2.6815 O   0  0  0  0  0  0  0  0  0  0  0  0
    1.9106    2.9509   -0.1534 C   0  0  0  0  0  0  0  0  0  0  0  0
    4.0259   -1.0993    1.5629 C   0  0  0  0  0  0  0  0  0  0  0  0
    6.1714   -2.1731    2.2255 C   0  0  0  0  0  0  0  0  0  0  0  0
    4.9588   -0.9419    3.7703 O   0  0  0  0  0  0  0  0  0  0  0  0
    3.1737   -0.3068    0.5009 C   0  0  0  0  0  0  0  0  0  0  0  0
    2.1889    1.5656   -0.3697 C   0  0  0  0  0  0  0  0  0  0  0  0
    5.4338    3.5391    2.0220 O   0  0  0  0  0  1  0  0  0  0  0  0
    7.8223    2.3873    3.7450 P   0  0  0  0  0  4  0  0  0  0  0  0
    5.7296    3.6467    3.4105 P   0  0  0  0  0  0  0  0  0  0  0  0
    6.3678   -1.3111    3.5182 C   0  0  0  0  0  0  0  0  0  0  0  0
    6.9035    1.2200    3.5027 O   0  0  0  0  0  0  0  0  0  0  0  0
    5.5331   -1.1643    1.2227 C   0  0  0  0  0  0  0  0  0  0  0  0
    7.1810    3.7295    3.8216 O   0  0  0  0  0  0  0  0  0  0  0  0
    4.7810    3.5139    4.4427 O   0  0  0  0  0  1  0  0  0  0  0  0
   -0.0710    0.7412   -0.2338 O   0  0  0  0  0  0  0  0  0  0  0  0
    7.3351   -0.1436    3.5200 C   0  0  0  0  0  0  0  0  0  0  0  0
    1.8073   -0.5224    0.4366 N   0  0  0  0  0  0  0  0  0  0  0  0
    3.3967    0.9527    0.0185 N   0  0  0  0  0  0  0  0  0  0  0  0
    1.1550    0.5798   -0.1182 C   0  0  0  0  0  0  0  0  0  0  0  0
    6.1499    0.1032    1.1857 O   0  0  0  0  0  0  0  0  0  0  0  0
  1  5  1  0
  2  4  1  0
  2  6  1  0
  2  8  1  0
  3 12  2  0
  4  7  1  0
  5 10  1  0
  6  9  1  0
  6 16  1  0
  7 14  1  0
  7 16  1  0
  8 14  1  0
  9 21  2  0
  9 22  1  0
 10 22  1  0
 10 23  1  0
 11 13  1  0
 12 15  1  0
 12 17  1  0
 13 17  1  0
 13 18  1  0
 14 20  1  0
 15 20  1  0
 16 24  1  0
 19 23  2  0
 21 23  1  0
M  END
>  <ID>  (1) 
conformer_0

$$$$
