
     RDKit          3D

 33 35  0  0  0  0  0  0  0  0999 V2000
    6.3612   -2.3553    2.1124 C   0  0  0  0  0  0  0  0  0  0  0  0
    5.9174    3.1436    3.2976 C   0  0  0  0  0  0  0  0  0  0  0  0
    1.4863   -0.5526    0.5282 O   0  0  0  0  0  0  0  0  0  0  0  0
    4.8441    0.5855    5.6499 C   0  0  0  0  0  0  0  0  0  0  0  0
    5.5266    0.8277    4.2708 C   0  0  0  0  0  0  0  0  0  0  0  0
    7.9387   -2.4403    2.1876 C   0  0  0  0  0  0  0  0  0  0  0  0
    8.7673   -1.3856    0.0502 C   0  0  0  0  0  0  0  0  0  0  0  0
    7.4091   -3.8779    3.9862 O   0  0  0  0  0  0  0  0  0  0  0  0
    0.1566    2.0282   -0.6046 C   0  0  0  0  0  0  0  0  0  0  0  0
    3.5443    0.2926    0.0563 C   0  0  0  0  0  0  0  0  0  0  0  0
    1.6129    1.6690   -0.6866 C   0  0  0  0  0  0  0  0  0  0  0  0
    5.5320    3.6455    4.4228 O   0  0  0  0  0  0  0  0  0  0  0  0
    2.4576    2.4101    0.3545 C   0  0  0  0  0  0  0  0  0  0  0  0
    2.1022    0.2183   -0.5451 C   0  0  0  0  0  0  0  0  0  0  0  0
   -0.6542    1.0844   -0.3168 O   0  0  0  0  0  0  0  0  0  0  0  0
    8.4218   -1.1451    1.5458 C   0  0  0  0  0  0  0  0  0  0  0  0
    6.0240   -0.8963    2.3529 O   0  0  0  0  0  0  0  0  0  0  0  0
    4.7468   -1.9172    1.9195 C   0  0  0  0  0  0  0  0  0  0  0  0
    9.4816    1.1765    1.4925 C   0  0  0  0  0  0  0  0  0  0  0  0
    2.1740   -2.3738    1.9990 O   0  0  0  0  0  0  0  0  0  0  0  0
    8.2742    0.3203    1.9445 C   0  0  0  0  0  0  0  0  0  0  0  0
    7.6406    1.0650    3.0227 O   0  0  0  0  0  0  0  0  0  0  0  0
    9.1587   -4.4156    2.6465 O   0  0  0  0  0  0  0  0  0  0  0  0
    8.2280   -3.6789    3.0181 C   0  0  0  0  0  0  0  0  0  0  0  0
    5.8261   -0.6015    3.7540 O   0  0  0  0  0  0  0  0  0  0  0  0
    3.7980   -0.9872    0.9366 C   0  0  0  0  0  0  0  0  0  0  0  0
    3.4299    1.5268    0.8267 O   0  0  0  0  0  0  0  0  0  0  0  0
   -0.0826    3.3396   -0.5528 O   0  0  0  0  0  0  0  0  0  0  0  0
    6.3949    1.6962    3.3040 C   0  0  0  0  0  0  0  0  0  0  0  0
    9.0802    2.5002    1.4894 O   0  0  0  0  0  0  0  0  0  0  0  0
    2.8403    3.6149    0.0749 O   0  0  0  0  0  0  0  0  0  0  0  0
    5.7048    3.6150    2.1655 O   0  0  0  0  0  0  0  0  0  0  0  0
    2.4146   -1.5322    1.0504 C   0  0  0  0  0  0  0  0  0  0  0  0
  1  6  1  0
  1 17  1  0
  1 18  1  0
  2 12  2  0
  2 29  1  0
  2 32  1  0
  3 14  1  0
  3 33  1  0
  4  5  1  0
  5 25  1  0
  5 29  1  0
  6 16  1  0
  6 24  1  0
  7 16  1  0
  8 24  2  0
  9 11  1  0
  9 15  2  0
  9 28  1  0
 10 14  1  0
 10 26  1  0
 10 27  1  0
 11 13  1  0
 11 14  1  0
 13 27  1  0
 13 31  1  0
 16 21  1  0
 17 25  1  0
 18 26  1  0
 19 21  1  0
 19 30  1  0
 20 33  2  0
 21 22  1  0
 22 29  1  0
 23 24  1  0
 26 33  1  0
M  END
>  <ID>  (1) 
conformer_0

$$$$
