
     RDKit          3D

 22 23  0  0  0  0  0  0  0  0999 V2000
   -0.2237    3.4289   -0.5942 O   0  0  0  0  0  0  0  0  0  0  0  0
    8.9983   -1.4729    0.4265 C   0  0  0  0  0  0  0  0  0  0  0  0
    2.7503    0.8025    0.4704 C   0  0  0  0  0  0  0  0  0  0  0  0
    7.1190   -1.2478    1.9044 C   0  0  0  0  0  0  0  0  0  0  0  0
    1.5129    0.3202    0.0953 C   0  0  0  0  0  0  0  0  0  0  0  0
   10.0080   -0.8585   -0.5056 C   0  0  0  0  0  0  0  0  0  0  0  0
    8.0764   -3.4181    1.5355 C   0  0  0  0  0  0  0  0  0  0  0  0
    8.1048   -0.6759    1.0802 C   0  0  0  0  0  0  0  0  0  0  0  0
    4.3149    0.2875    4.7397 O   0  0  0  0  0  1  0  0  0  0  0  0
    6.0640   -0.4232    2.5095 C   0  0  0  0  0  0  0  0  0  0  0  0
    9.0153   -2.8553    0.6543 C   0  0  0  0  0  0  0  0  0  0  0  0
    4.9484    0.0800    1.5984 C   0  0  0  0  0  0  0  0  0  0  0  0
    0.7434    2.5718   -0.2437 C   0  0  0  0  0  0  0  0  0  0  0  0
    2.9534    2.1607    0.5410 C   0  0  0  0  0  0  0  0  0  0  0  0
    6.7296    0.6572    3.5202 C   0  0  0  0  0  0  0  0  0  0  0  0
    5.5318    2.3323    5.6865 O   0  0  0  0  0  0  0  0  0  0  0  0
    5.2764    1.5473    4.3896 P   0  0  0  0  0  4  0  0  0  0  0  0
    0.5215    1.1944   -0.2694 C   0  0  0  0  0  0  0  0  0  0  0  0
    1.9733    3.0389    0.1784 C   0  0  0  0  0  0  0  0  0  0  0  0
    4.7633    2.6249    3.2497 O   0  0  0  0  0  0  0  0  0  0  0  0
    7.1356   -2.6207    2.1695 C   0  0  0  0  0  0  0  0  0  0  0  0
    3.8560   -0.2216    0.6548 C   0  0  0  0  0  0  0  0  0  0  0  0
  1 13  1  0
  2  6  1  0
  2  8  2  0
  2 11  1  0
  3  5  2  0
  3 14  1  0
  3 22  1  0
  4  8  1  0
  4 10  1  0
  4 21  1  0
  5 18  1  0
  7 11  1  0
  7 21  2  0
  9 17  2  0
 10 12  1  0
 10 15  1  0
 12 22  1  0
 13 18  2  0
 13 19  1  0
 14 19  2  0
 15 17  1  0
 16 17  1  0
 17 20  1  0
M  END
>  <ID>  (1) 
conformer_0

$$$$
