
     RDKit          3D

 25 25  0  0  0  0  0  0  0  0999 V2000
    2.9835   -2.5268    2.1179 C   0  0  0  0  0  0  0  0  0  0  0  0
    9.5398    2.1127    4.3969 O   0  0  0  0  0  0  0  0  0  0  0  0
    2.7142   -0.3812    0.8241 C   0  0  0  0  0  0  0  0  0  0  0  0
    1.0266    2.1019   -0.1534 C   0  0  0  0  0  0  0  0  0  0  0  0
    7.3486   -2.0664    1.4495 C   0  0  0  0  0  0  0  0  0  0  0  0
    8.7502    0.9985    4.6495 C   0  0  0  0  0  0  0  0  0  0  0  0
    2.1827    2.6524    0.4328 N   0  0  0  0  0  0  0  0  0  0  0  0
    5.1871   -1.8159    2.9838 C   0  0  0  0  0  0  0  0  0  0  0  0
    8.7424    0.0018    3.5280 C   0  0  0  0  0  0  0  0  0  0  0  0
    9.8704   -0.6145    3.1031 O   0  0  0  0  0  0  0  0  0  0  0  0
    0.1255    3.0183   -0.6409 N   0  0  0  0  0  0  0  0  0  0  0  0
    5.7519   -1.9969    1.3687 S   0  0  0  0  0  0  0  0  0  0  0  0
    4.0396   -2.7978    3.1495 C   0  0  0  0  0  0  0  0  0  0  0  0
    6.2658    3.0508    4.3231 O   0  0  0  0  0  0  0  0  0  0  0  0
    7.9535   -0.7782    1.3334 N   0  0  0  0  0  0  0  0  0  0  0  0
    0.7540    0.7404   -0.2120 C   0  0  0  0  0  0  0  0  0  0  0  0
    6.3385    2.6054    3.1046 C   0  0  0  0  0  0  0  0  0  0  0  0
    1.5397   -0.2529    0.2197 C   0  0  0  0  0  0  0  0  0  0  0  0
    6.8050    1.3010    2.8879 O   0  0  0  0  0  0  0  0  0  0  0  0
    7.7383    0.2992    2.4048 C   0  0  0  0  0  0  0  0  0  0  0  0
    5.8333    3.2585    2.1559 O   0  0  0  0  0  0  0  0  0  0  0  0
    3.4999    0.7121    1.1697 C   0  0  0  0  0  0  0  0  0  0  0  0
    3.2509   -1.6577    1.0993 O   0  0  0  0  0  0  0  0  0  0  0  0
    7.9745   -3.2624    2.0972 C   0  0  0  0  0  0  0  0  0  0  0  0
    3.1680    1.9954    0.9830 C   0  0  0  0  0  0  0  0  0  0  0  0
  1 13  1  0
  1 23  1  0
  2  6  1  0
  3 18  2  0
  3 22  1  0
  3 23  1  0
  4  7  1  0
  4 11  2  0
  4 16  1  0
  5 12  1  0
  5 15  1  0
  5 24  1  0
  6  9  1  0
  7 25  2  0
  8 12  1  0
  8 13  1  0
  9 10  1  0
  9 20  1  0
 14 17  2  0
 15 20  1  0
 16 18  1  0
 17 19  1  0
 17 21  1  0
 19 20  1  0
 22 25  1  0
M  END
>  <ID>  (1) 
conformer_0

$$$$
