
     RDKit          3D

 10 10  0  0  0  0  0  0  0  0999 V2000
   24.8593  -21.6660  -10.7055 O   0  0  0  0  0  0  0  0  0  0  0  0
   24.5529  -23.6004   -7.0324 C   0  0  0  0  0  0  0  0  0  0  0  0
   25.1547  -23.1975   -8.2240 C   0  0  0  0  0  0  0  0  0  0  0  0
   26.9441  -22.2421   -6.9254 C   0  0  0  0  0  0  0  0  0  0  0  0
   25.1505  -23.3320   -5.8304 C   0  0  0  0  0  0  0  0  0  0  0  0
   24.5723  -23.6512   -9.4917 C   0  0  0  0  0  0  0  0  0  0  0  0
   26.3653  -22.6485   -5.7753 C   0  0  0  0  0  0  0  0  0  0  0  0
   26.3262  -22.4831   -8.1579 C   0  0  0  0  0  0  0  0  0  0  0  0
   24.3405  -22.7825  -10.6336 C   0  0  0  0  0  0  0  0  0  0  0  0
   23.6775  -23.3359  -11.5186 O   0  0  0  0  0  0  0  0  0  0  0  0
  1  9  2  0
  2  3  2  0
  2  5  1  0
  3  6  1  0
  3  8  1  0
  4  7  1  0
  4  8  2  0
  5  7  2  0
  6  9  1  0
  9 10  1  0
M  END
>  <ID>  (1) 
conformer_0

$$$$
