
     RDKit          3D

 16 16  0  0  0  0  0  0  0  0999 V2000
   25.4546  -21.6444   -8.7844 C   0  0  0  0  0  0  0  0  0  0  0  0
   25.1075  -21.3946   -6.1349 O   0  0  0  0  0  0  0  0  0  0  0  0
   23.4986  -23.5102   -1.6390 O   0  0  0  0  0  0  0  0  0  0  0  0
   25.2138  -23.8653   -3.1809 C   0  0  0  0  0  0  0  0  0  0  0  0
   25.2612  -23.8434   -9.7026 O   0  0  0  0  0  0  0  0  0  0  0  0
   26.0944  -24.1943   -7.0751 O   0  0  0  0  0  0  0  0  0  0  0  0
   22.8413  -24.0694   -5.5927 O   0  0  0  0  0  0  0  0  0  0  0  0
   23.9395  -23.2387   -5.1231 C   0  0  0  0  0  0  0  0  0  0  0  0
   24.3736  -22.5241   -6.4552 C   0  0  0  0  0  0  0  0  0  0  0  0
   25.2537  -23.7776   -4.6852 O   0  0  0  0  0  0  0  0  0  0  0  0
   23.3143  -22.7298   -3.8392 C   0  0  0  0  0  0  0  0  0  0  0  0
   23.7554  -23.8249   -2.8772 C   0  0  0  0  0  0  0  0  0  0  0  0
   23.1730  -21.1915   -9.0918 O   0  0  0  0  0  0  0  0  0  0  0  0
   24.4644  -20.8399   -9.6124 C   0  0  0  0  0  0  0  0  0  0  0  0
   24.8693  -23.0186   -8.7465 C   0  0  0  0  0  0  0  0  0  0  0  0
   24.8389  -23.7090   -7.3576 C   0  0  0  0  0  0  0  0  0  0  0  0
  1 14  1  0
  1 15  1  0
  2  9  1  0
  3 12  1  0
  4 10  1  0
  4 12  1  0
  5 15  1  0
  6 16  1  0
  7  8  1  0
  8  9  1  0
  8 10  1  0
  8 11  1  0
  9 16  1  0
 11 12  1  0
 13 14  1  0
 15 16  1  0
M  END
>  <ID>  (1) 
conformer_0

$$$$
