
     RDKit          3D

 27 29  0  0  0  0  0  0  0  0999 V2000
   22.5457  -21.6221   -6.6183 O   0  0  0  0  0  0  0  0  0  0  0  0
   22.0624  -21.2075   -8.8972 C   0  0  0  0  0  0  0  0  0  0  0  0
   23.6166  -21.5462  -16.1206 O   0  0  0  0  0  0  0  0  0  0  0  0
   21.6639  -17.7783  -10.7619 O   0  0  0  0  0  0  0  0  0  0  0  0
   23.8222  -23.5101  -14.3536 O   0  0  0  0  0  0  0  0  0  0  0  0
   22.9065  -22.0049   -7.9205 C   0  0  0  0  0  0  0  0  0  0  0  0
   25.7549  -23.4749   -7.6491 O   0  0  0  0  0  0  0  0  0  0  0  0
   23.8774  -21.7000  -12.6257 C   0  0  0  0  0  0  0  0  0  0  0  0
   21.2532  -19.0336  -12.7152 O   0  0  0  0  0  0  0  0  0  0  0  0
   24.7474  -23.6348   -5.5440 C   0  0  0  0  0  0  0  0  0  0  0  0
   24.0185  -21.4172  -10.1940 C   0  0  0  0  0  0  0  0  0  0  0  0
   24.3781  -21.8644   -8.2344 C   0  0  0  0  0  0  0  0  0  0  0  0
   25.0914  -23.0676   -8.9220 C   0  0  0  0  0  0  0  0  0  0  0  0
   23.3029  -24.0951   -5.4179 N   0  0  0  0  0  0  0  0  0  0  0  0
   23.5201  -22.2991  -13.9363 C   0  0  0  0  0  0  0  0  0  0  0  0
   24.9993  -20.6284   -8.1629 O   0  0  0  0  0  0  0  0  0  0  0  0
   22.5086  -19.9842  -11.0028 C   0  0  0  0  0  0  0  0  0  0  0  0
   21.9609  -20.2212  -13.2269 C   0  0  0  0  0  0  0  0  0  0  0  0
   20.2122  -19.5658  -10.5820 O   0  0  0  0  0  0  0  0  0  0  0  0
   22.9805  -20.5892  -12.2567 C   0  0  0  0  0  0  0  0  0  0  0  0
   21.3615  -19.0696  -11.1706 C   0  0  0  0  0  0  0  0  0  0  0  0
   22.9415  -20.6677   -9.8750 O   0  0  0  0  0  0  0  0  0  0  0  0
   23.1547  -21.3664  -14.9485 C   0  0  0  0  0  0  0  0  0  0  0  0
   22.4645  -20.1493  -14.5778 C   0  0  0  0  0  0  0  0  0  0  0  0
   25.0092  -22.5889   -6.7177 C   0  0  0  0  0  0  0  0  0  0  0  0
   24.4619  -22.7935  -10.3129 O   0  0  0  0  0  0  0  0  0  0  0  0
   25.3031  -21.6773  -12.4503 O   0  0  0  0  0  0  0  0  0  0  0  0
  1  6  1  0
  2  6  1  0
  3 23  2  0
  4 21  1  0
  5 15  1  0
  6 12  1  0
  7 13  1  0
  7 25  1  0
  8 15  1  0
  8 20  1  0
  8 27  1  0
  9 18  1  0
  9 21  1  0
 10 14  1  0
 10 25  1  0
 11 22  1  0
 11 26  1  0
 12 13  1  0
 12 16  1  0
 12 25  1  0
 13 26  1  0
 15 23  1  0
 17 20  1  0
 17 21  1  0
 17 22  1  0
 18 20  1  0
 18 24  1  0
 19 21  1  0
 23 24  1  0
M  END
>  <ID>  (1) 
conformer_0

$$$$
