
     RDKit          3D

 16 17  0  0  0  0  0  0  0  0999 V2000
   25.9457  -22.6090   -8.5765 C   0  0  0  0  0  0  0  0  0  0  0  0
   21.2506  -23.6235  -11.7945 C   0  0  0  0  0  0  0  0  0  0  0  0
   22.5536  -23.6171  -11.2236 C   0  0  0  0  0  0  0  0  0  0  0  0
   24.0787  -21.7482   -6.1875 C   0  0  0  0  0  0  0  0  0  0  0  0
   22.3948  -20.1906   -6.5278 O   0  0  0  0  0  0  0  0  0  0  0  0
   25.4579  -22.4348   -6.1276 C   0  0  0  0  0  0  0  0  0  0  0  0
   22.7058  -20.6957   -7.8570 C   0  0  0  0  0  0  0  0  0  0  0  0
   22.9870  -20.9318   -5.5396 C   0  0  0  0  0  0  0  0  0  0  0  0
   24.6185  -22.0248   -8.7399 C   0  0  0  0  0  0  0  0  0  0  0  0
   25.7863  -23.4219   -7.2668 C   0  0  0  0  0  0  0  0  0  0  0  0
   24.0541  -22.1504  -10.0683 C   0  0  0  0  0  0  0  0  0  0  0  0
   22.7603  -22.6817  -10.1750 O   0  0  0  0  0  0  0  0  0  0  0  0
   24.9058  -21.8416  -11.0058 O   0  0  0  0  0  0  0  0  0  0  0  0
   23.6580  -21.8164   -7.6728 C   0  0  0  0  0  0  0  0  0  0  0  0
   23.3610  -24.5725  -11.3445 O   0  0  0  0  0  0  0  0  0  0  0  0
   22.5909  -21.2770   -4.4064 O   0  0  0  0  0  0  0  0  0  0  0  0
  1  9  1  0
  1 10  1  0
  2  3  1  0
  3 12  1  0
  3 15  2  0
  4  6  1  0
  4  8  1  0
  4 14  1  0
  5  7  1  0
  5  8  1  0
  6 10  1  0
  7 14  1  0
  8 16  2  0
  9 11  1  0
  9 14  1  0
 11 12  1  0
 11 13  2  0
M  END
>  <ID>  (1) 
conformer_0

$$$$
