
     RDKit          3D

 27 29  0  0  0  0  0  0  0  0999 V2000
   24.5449  -21.3115   -9.7397 C   0  0  0  0  0  0  0  0  0  0  0  0
   24.3819  -23.6343   -6.8653 C   0  0  0  0  0  0  0  0  0  0  0  0
   25.7317  -19.6594  -12.8547 C   0  0  0  0  0  0  0  0  0  0  0  0
   24.3668  -22.6626   -9.2330 C   0  0  0  0  0  0  0  0  0  0  0  0
   24.9348  -21.0364  -10.9747 C   0  0  0  0  0  0  0  0  0  0  0  0
   27.1565  -21.5175   -3.6163 O   0  0  0  0  0  0  0  0  0  0  0  0
   25.2350  -22.5707   -4.1155 C   0  0  0  0  0  0  0  0  0  0  0  0
   25.8735  -21.9095   -3.0926 C   0  0  0  0  0  0  0  0  0  0  0  0
   26.2858  -22.3360   -7.6021 C   0  0  0  0  0  0  0  0  0  0  0  0
   23.9209  -20.3389   -7.6099 O   0  0  0  0  0  0  0  0  0  0  0  0
   23.8880  -24.5542   -6.0939 O   0  0  0  0  0  0  0  0  0  0  0  0
   25.2223  -18.7311  -10.5325 C   0  0  0  0  0  0  0  0  0  0  0  0
   23.6596  -23.0585   -7.9996 C   0  0  0  0  0  0  0  0  0  0  0  0
   26.0185  -22.5888   -5.2094 C   0  0  0  0  0  0  0  0  0  0  0  0
   22.6801  -22.8149  -12.0842 O   0  0  0  0  0  0  0  0  0  0  0  0
   23.4209  -23.4525   -9.9571 C   0  0  0  0  0  0  0  0  0  0  0  0
   27.2236  -21.9411   -4.9450 C   0  0  0  0  0  0  0  0  0  0  0  0
   25.2783  -19.8161  -11.4575 C   0  0  0  0  0  0  0  0  0  0  0  0
   25.7348  -23.0843   -6.5227 C   0  0  0  0  0  0  0  0  0  0  0  0
   22.8131  -23.7413  -11.1966 C   0  0  0  0  0  0  0  0  0  0  0  0
   26.0023  -21.0400  -13.4716 C   0  0  0  0  0  0  0  0  0  0  0  0
   22.2691  -24.8138  -11.2728 O   0  0  0  0  0  0  0  0  0  0  0  0
   24.4032  -20.1975   -8.8785 C   0  0  0  0  0  0  0  0  0  0  0  0
   22.8369  -23.9519   -8.7871 O   0  0  0  0  0  0  0  0  0  0  0  0
   24.7971  -18.9337   -9.2435 C   0  0  0  0  0  0  0  0  0  0  0  0
   25.0504  -21.8326  -13.7395 O   0  0  0  0  0  0  0  0  0  0  0  0
   27.1803  -21.2917  -13.6801 O   0  0  0  0  0  0  0  0  0  0  0  0
  1  4  1  0
  1  5  2  0
  1 23  1  0
  2 11  1  0
  2 13  1  0
  2 19  1  0
  3 18  1  0
  3 21  1  0
  4 13  1  0
  4 16  1  0
  5 18  1  0
  6  8  1  0
  6 17  1  0
  7  8  1  0
  7 14  1  0
  9 19  1  0
 10 23  1  0
 12 18  2  0
 12 25  1  0
 13 24  1  0
 14 17  1  0
 14 19  1  0
 15 20  2  0
 16 20  1  0
 16 24  1  0
 20 22  1  0
 21 26  2  0
 21 27  1  0
 23 25  2  0
M  END
>  <ID>  (1) 
conformer_0

$$$$
