
     RDKit          3D

 11 11  0  0  0  0  0  0  0  0999 V2000
   22.9356  -24.4951   -5.2774 O   0  0  0  0  0  0  0  0  0  0  0  0
   22.8534  -23.2377   -9.9032 O   0  0  0  0  0  0  0  0  0  0  0  0
   25.0720  -23.8761   -9.5790 O   0  0  0  0  0  0  0  0  0  0  0  0
   24.9387  -21.9196   -8.2726 C   0  0  0  0  0  0  0  0  0  0  0  0
   26.3044  -22.4948   -7.6910 C   0  0  0  0  0  0  0  0  0  0  0  0
   24.7531  -23.1259   -5.9510 C   0  0  0  0  0  0  0  0  0  0  0  0
   23.6767  -24.1540   -6.3586 C   0  0  0  0  0  0  0  0  0  0  0  0
   24.0144  -23.1883   -8.8104 C   0  0  0  0  0  0  0  0  0  0  0  0
   25.9845  -23.4920   -6.6727 O   0  0  0  0  0  0  0  0  0  0  0  0
   22.9443  -23.5708   -7.5885 C   0  0  0  0  0  0  0  0  0  0  0  0
   25.3077  -21.0557   -9.3770 O   0  0  0  0  0  0  0  0  0  0  0  0
  1  7  1  0
  2  8  1  0
  3  8  1  0
  4  5  1  0
  4  8  1  0
  4 11  1  0
  5  9  1  0
  6  7  1  0
  6  9  1  0
  7 10  1  0
  8 10  1  0
M  END
>  <ID>  (1) 
conformer_0

$$$$
