
     RDKit          3D

 25 27  0  0  0  0  0  0  0  0999 V2000
   23.3407  -23.9274   -6.2572 C   0  0  0  0  0  0  0  0  0  0  0  0
   23.9602  -19.9908  -11.9899 C   0  0  0  0  0  0  0  0  0  0  0  0
   24.8725  -20.0346   -7.9082 C   0  0  0  0  0  0  0  0  0  0  0  0
   23.5021  -22.2721   -8.0734 C   0  0  0  0  0  0  0  0  0  0  0  0
   25.5242  -22.9969   -6.5534 C   0  0  0  0  0  0  0  0  0  0  0  0
   24.7704  -21.0538  -10.0156 C   0  0  0  0  0  0  0  0  0  0  0  0
   24.9376  -20.4958  -13.0518 C   0  0  0  0  0  0  0  0  0  0  0  0
   25.3023  -18.8410   -8.2407 O   0  0  0  0  0  0  0  0  0  0  0  0
   25.5485  -18.2336  -12.6406 O   0  0  0  0  0  0  0  0  0  0  0  0
   23.7975  -22.6320  -13.1770 O   0  0  0  0  0  0  0  0  0  0  0  0
   25.8724  -18.8625  -11.3810 C   0  0  0  0  0  0  0  0  0  0  0  0
   25.1407  -22.0016  -14.8348 O   0  0  0  0  0  0  0  0  0  0  0  0
   24.5581  -21.8064  -13.7592 C   0  0  0  0  0  0  0  0  0  0  0  0
   24.0508  -22.7128   -6.7502 C   0  0  0  0  0  0  0  0  0  0  0  0
   25.1882  -20.4119   -6.5474 C   0  0  0  0  0  0  0  0  0  0  0  0
   22.1263  -24.0844   -7.0358 C   0  0  0  0  0  0  0  0  0  0  0  0
   25.2260  -22.1121  -10.5099 O   0  0  0  0  0  0  0  0  0  0  0  0
   25.3924  -19.1547  -13.7470 C   0  0  0  0  0  0  0  0  0  0  0  0
   24.7326  -19.6281   -5.3903 C   0  0  0  0  0  0  0  0  0  0  0  0
   26.5425  -20.9317   -6.1848 C   0  0  0  0  0  0  0  0  0  0  0  0
   22.2753  -23.1640   -8.2359 C   0  0  0  0  0  0  0  0  0  0  0  0
   24.7541  -19.6627  -10.7021 C   0  0  0  0  0  0  0  0  0  0  0  0
   24.1970  -25.0505   -6.3785 N   0  0  0  0  0  0  0  0  0  0  0  0
   26.0755  -22.2044   -5.3927 C   0  0  0  0  0  0  0  0  0  0  0  0
   24.2535  -21.1087   -8.7089 N   0  0  0  0  0  0  0  0  0  0  0  0
  1 14  1  0
  1 16  1  0
  1 23  1  0
  2  7  1  0
  2 22  1  0
  3  8  2  0
  3 15  1  0
  3 25  1  0
  4 14  1  0
  4 21  1  0
  4 25  1  0
  5 14  1  0
  5 24  1  0
  6 17  2  0
  6 22  1  0
  6 25  1  0
  7 13  1  0
  7 18  1  0
  9 11  1  0
  9 18  1  0
 10 13  2  0
 11 22  1  0
 12 13  1  0
 15 19  1  0
 15 20  1  0
 16 21  1  0
 20 24  1  0
M  END
>  <ID>  (1) 
conformer_0

$$$$
