
     RDKit          3D

 12 11  0  0  0  0  0  0  0  0999 V2000
   26.3123  -21.9637   -8.0581 C   0  0  0  0  0  0  0  0  0  0  0  0
   24.9579  -22.3360   -8.7437 C   0  0  0  0  0  0  0  0  0  0  0  0
   24.7314  -21.8132  -10.0995 C   0  0  0  0  0  0  0  0  0  0  0  0
   26.5867  -20.6026   -8.0148 O   0  0  0  0  0  0  0  0  0  0  0  0
   23.9704  -22.4948   -6.4576 O   0  0  0  0  0  0  0  0  0  0  0  0
   23.9695  -22.7815  -10.9418 C   0  0  0  0  0  0  0  0  0  0  0  0
   24.0302  -23.9685  -10.5527 O   0  0  0  0  0  0  0  0  0  0  0  0
   25.8399  -24.2158   -7.3620 O   0  0  0  0  0  0  0  0  0  0  0  0
   23.9985  -20.4789   -7.6468 O   0  0  0  0  0  0  0  0  0  0  0  0
   23.4788  -22.3308  -12.0274 N   0  0  0  0  0  0  0  0  0  0  0  0
   26.4011  -22.9351   -6.8655 C   0  0  0  0  0  0  0  0  0  0  0  0
   24.0041  -21.8507   -7.6406 C   0  0  0  0  0  0  0  0  0  0  0  0
  1  2  1  0
  1  4  1  0
  1 11  1  0
  2  3  1  0
  2 12  1  0
  3  6  1  0
  5 12  2  0
  6  7  2  0
  6 10  1  0
  8 11  1  0
  9 12  1  0
M  END
>  <ID>  (1) 
conformer_0

$$$$
