
     RDKit          3D

 12 12  0  0  0  0  0  0  0  0999 V2000
   25.1067  -23.1803   -8.8367 C   0  0  0  0  0  0  0  0  0  0  0  0
   23.3085  -21.9722  -12.7472 O   0  0  0  0  0  1  0  0  0  0  0  0
   26.7917  -21.1228   -8.1299 C   0  0  0  0  0  0  0  0  0  0  0  0
   26.7724  -22.2781   -7.3619 C   0  0  0  0  0  0  0  0  0  0  0  0
   22.1703  -22.7317   -9.9212 O   0  0  0  0  0  0  0  0  0  0  0  0
   25.9079  -23.3056   -7.6989 C   0  0  0  0  0  0  0  0  0  0  0  0
   23.4235  -24.4609  -11.1190 O   0  0  0  0  0  0  0  0  0  0  0  0
   25.1903  -22.0873   -9.6889 C   0  0  0  0  0  0  0  0  0  0  0  0
   23.1863  -23.2535  -10.7319 C   0  0  0  0  0  0  0  0  0  0  0  0
   26.0134  -21.0382   -9.3064 C   0  0  0  0  0  0  0  0  0  0  0  0
   25.4247  -21.0056  -11.9620 O   0  0  0  0  0  1  0  0  0  0  0  0
   24.4247  -22.0346  -11.1593 S   0  0  0  0  0  4  0  0  0  0  0  0
  1  6  1  0
  1  8  1  0
  2 12  1  0
  3  4  1  0
  3 10  1  0
  4  6  2  0
  5  9  2  0
  7  9  1  0
  8 10  2  0
  8 12  1  0
  9 12  1  0
 11 12  1  0
M  END
>  <ID>  (1) 
conformer_0

$$$$
