
     RDKit          3D

 11 11  0  0  0  0  0  0  0  0999 V2000
   24.0264  -22.6301   -9.8001 C   0  0  0  0  0  0  0  0  0  0  0  0
   23.1686  -22.9843  -11.3793 S   0  0  0  0  0  4  0  0  0  0  0  0
   24.3308  -21.4108   -7.8659 C   0  0  0  0  0  0  0  0  0  0  0  0
   23.6460  -21.6434   -8.9991 C   0  0  0  0  0  0  0  0  0  0  0  0
   26.0878  -21.8986   -6.4179 F   0  0  0  0  0  0  0  0  0  0  0  0
   25.0811  -23.4462   -9.5058 C   0  0  0  0  0  0  0  0  0  0  0  0
   21.8275  -22.0431  -11.3508 O   0  0  0  0  0  0  0  0  0  0  0  0
   25.4108  -22.1768   -7.5403 C   0  0  0  0  0  0  0  0  0  0  0  0
   22.8364  -24.4593  -11.2779 O   0  0  0  0  0  0  0  0  0  0  0  0
   24.0454  -22.5717  -12.5059 O   0  0  0  0  0  0  0  0  0  0  0  0
   25.7701  -23.1865   -8.3279 C   0  0  0  0  0  0  0  0  0  0  0  0
  1  2  1  0
  1  4  2  0
  1  6  1  0
  2  7  1  0
  2  9  1  0
  2 10  1  0
  3  4  1  0
  3  8  1  0
  5  8  1  0
  6 11  1  0
  8 11  2  0
M  END
>  <ID>  (1) 
conformer_0

$$$$
