
     RDKit          3D

 23 25  0  0  0  0  0  0  0  0999 V2000
   25.4822  -22.5919   -5.9423 C   0  0  0  0  0  0  0  0  0  0  0  0
   25.1618  -21.6713   -8.1031 C   0  0  0  0  0  0  0  0  0  0  0  0
   26.1725  -22.4790   -7.3196 C   0  0  0  0  0  0  0  0  0  0  0  0
   23.3664  -22.5863  -12.1824 C   0  0  0  0  0  0  0  0  0  0  0  0
   23.2164  -22.9788   -8.4774 O   0  0  0  0  0  0  0  0  0  0  0  0
   26.3951  -22.3251   -4.8451 C   0  0  0  0  0  0  0  0  0  0  0  0
   22.9404  -21.1504   -9.9386 C   0  0  0  0  0  0  0  0  0  0  0  0
   23.9905  -22.5694   -6.2016 C   0  0  0  0  0  0  0  0  0  0  0  0
   27.5963  -21.7657   -5.4117 O   0  0  0  0  0  0  0  0  0  0  0  0
   23.7920  -21.9702   -7.6275 C   0  0  0  0  0  0  0  0  0  0  0  0
   22.5698  -22.5829   -9.6966 C   0  0  0  0  0  0  0  0  0  0  0  0
   23.4945  -21.5941   -5.1433 C   0  0  0  0  0  0  0  0  0  0  0  0
   24.3711  -21.4804  -11.9043 C   0  0  0  0  0  0  0  0  0  0  0  0
   25.3257  -20.9441   -9.3765 C   0  0  0  0  0  0  0  0  0  0  0  0
   26.0520  -23.8402   -7.8095 O   0  0  0  0  0  0  0  0  0  0  0  0
   22.7639  -23.3403  -10.9555 C   0  0  0  0  0  0  0  0  0  0  0  0
   26.0959  -19.8964  -12.1104 O   0  0  0  0  0  0  0  0  0  0  0  0
   22.6468  -20.7536   -5.6275 O   0  0  0  0  0  0  0  0  0  0  0  0
   25.6613  -21.2645  -13.8199 O   0  0  0  0  0  0  0  0  0  0  0  0
   25.4308  -20.7951  -12.7001 C   0  0  0  0  0  0  0  0  0  0  0  0
   25.6232  -19.6215   -9.0576 O   0  0  0  0  0  0  0  0  0  0  0  0
   24.0917  -21.4224   -4.0082 O   0  0  0  0  0  0  0  0  0  0  0  0
   24.3369  -21.0773  -10.4702 C   0  0  0  0  0  0  0  0  0  0  0  0
  1  3  1  0
  1  6  1  0
  1  8  1  0
  2  3  1  0
  2 10  1  0
  2 14  1  0
  3 15  1  0
  4 13  1  0
  4 16  1  0
  5 10  1  0
  5 11  1  0
  6  9  1  0
  7 11  1  0
  7 23  1  0
  8 10  1  0
  8 12  1  0
 11 16  1  0
 12 18  2  0
 12 22  1  0
 13 20  1  0
 13 23  1  0
 14 21  1  0
 14 23  1  0
 17 20  2  0
 19 20  1  0
M  END
>  <ID>  (1) 
conformer_0

$$$$
