
     RDKit          3D

 10 10  0  0  0  0  0  0  0  0999 V2000
   22.6770  -22.9697   -9.4024 C   0  0  0  0  0  0  0  0  0  0  0  0
   23.6251  -23.6104   -6.9182 O   0  0  0  0  0  0  0  0  0  0  0  0
   25.0540  -23.6438   -7.3223 C   0  0  0  0  0  0  0  0  0  0  0  0
   25.6744  -22.3005   -7.7450 C   0  0  0  0  0  0  0  0  0  0  0  0
   23.9695  -24.0101   -5.4727 C   0  0  0  0  0  0  0  0  0  0  0  0
   24.7367  -21.6755   -8.7698 C   0  0  0  0  0  0  0  0  0  0  0  0
   24.2363  -22.8943   -9.5739 C   0  0  0  0  0  0  0  0  0  0  0  0
   25.3954  -23.7291   -5.8510 O   0  0  0  0  0  0  0  0  0  0  0  0
   22.1288  -21.6780   -9.0365 O   0  0  0  0  0  0  0  0  0  0  0  0
   25.3490  -23.7552   -9.8140 O   0  0  0  0  0  0  0  0  0  0  0  0
  1  7  1  0
  1  9  1  0
  2  3  1  0
  2  5  1  0
  3  4  1  0
  3  8  1  0
  4  6  1  0
  5  8  1  0
  6  7  1  0
  7 10  1  0
M  END
>  <ID>  (1) 
conformer_0

$$$$
