
     RDKit          3D

 13 13  0  0  0  0  0  0  0  0999 V2000
   23.9237  -23.4295  -10.4364 C   0  0  0  0  0  0  0  0  0  0  0  0
   24.2290  -22.3811  -11.0771 O   0  0  0  0  0  0  0  0  0  0  0  0
   26.3791  -22.3863   -6.9480 C   0  0  0  0  0  0  0  0  0  0  0  0
   26.3453  -20.4227   -8.8932 C   0  0  0  0  0  0  0  0  0  0  0  0
   25.4110  -22.4559   -7.9423 C   0  0  0  0  0  0  0  0  0  0  0  0
   22.3138  -22.5866   -8.7716 O   0  0  0  0  0  0  0  0  0  0  0  0
   23.3696  -23.5385   -9.0099 C   0  0  0  0  0  0  0  0  0  0  0  0
   23.4552  -24.3948  -11.1473 O   0  0  0  0  0  0  0  0  0  0  0  0
   27.3234  -21.3504   -6.9423 C   0  0  0  0  0  0  0  0  0  0  0  0
   27.2926  -20.3784   -7.9017 C   0  0  0  0  0  0  0  0  0  0  0  0
   24.4525  -23.5806   -7.9468 C   0  0  0  0  0  0  0  0  0  0  0  0
   24.2174  -24.2753   -6.7996 O   0  0  0  0  0  0  0  0  0  0  0  0
   25.4352  -21.4717   -8.8998 C   0  0  0  0  0  0  0  0  0  0  0  0
  1  2  2  0
  1  7  1  0
  1  8  1  0
  3  5  2  0
  3  9  1  0
  4 10  1  0
  4 13  2  0
  5 11  1  0
  5 13  1  0
  6  7  1  0
  7 11  1  0
  9 10  2  0
 11 12  1  0
M  END
>  <ID>  (1) 
conformer_0

$$$$
