
     RDKit          3D

 11 11  0  0  0  0  0  0  0  0999 V2000
   22.8702  -24.3414  -11.0896 O   0  0  0  0  0  0  0  0  0  0  0  0
   23.8706  -22.7277  -12.2041 O   0  0  0  0  0  0  0  0  0  0  0  0
   25.3833  -22.1120   -9.8618 C   0  0  0  0  0  0  0  0  0  0  0  0
   26.0112  -21.7779   -8.6693 C   0  0  0  0  0  0  0  0  0  0  0  0
   25.4944  -22.1469   -7.4710 C   0  0  0  0  0  0  0  0  0  0  0  0
   23.6175  -23.3280  -11.1566 C   0  0  0  0  0  0  0  0  0  0  0  0
   24.3675  -23.9199   -5.4565 C   0  0  0  0  0  0  0  0  0  0  0  0
   24.1977  -22.8419   -9.8726 C   0  0  0  0  0  0  0  0  0  0  0  0
   23.6594  -23.1859   -8.6304 C   0  0  0  0  0  0  0  0  0  0  0  0
   23.6121  -22.9339   -6.2448 O   0  0  0  0  0  0  0  0  0  0  0  0
   24.2633  -22.7892   -7.4694 C   0  0  0  0  0  0  0  0  0  0  0  0
  1  6  2  0
  2  6  1  0
  3  4  2  0
  3  8  1  0
  4  5  1  0
  5 11  2  0
  6  8  1  0
  7 10  1  0
  8  9  2  0
  9 11  1  0
 10 11  1  0
M  END
>  <ID>  (1) 
conformer_0

$$$$
