
     RDKit          3D

 32 34  0  0  0  0  0  0  0  0999 V2000
   27.3734  -19.0800  -12.6883 C   0  0  0  0  0  0  0  0  0  0  0  0
   24.3882  -24.4305   -6.1657 C   0  0  0  0  0  0  0  0  0  0  0  0
   25.4972  -20.1051  -11.6430 N   0  0  0  0  0  0  0  0  0  0  0  0
   27.1725  -21.8399   -6.7242 C   0  0  0  0  0  0  0  0  0  0  0  0
   22.2810  -21.1079   -9.1082 C   0  0  0  0  0  0  0  0  0  0  0  0
   25.8945  -21.7375   -8.7172 C   0  0  0  0  0  0  0  0  0  0  0  0
   22.7295  -22.1193  -11.2825 C   0  0  0  0  0  0  0  0  0  0  0  0
   28.4596  -20.2032  -14.4794 C   0  0  0  0  0  0  0  0  0  0  0  0
   24.7676  -17.9978  -10.5711 O   0  0  0  0  0  1  0  0  0  0  0  0
   25.0552  -22.7088   -8.1946 C   0  0  0  0  0  0  0  0  0  0  0  0
   25.2210  -23.2683   -6.8909 C   0  0  0  0  0  0  0  0  0  0  0  0
   24.4244  -23.9952  -10.2017 O   0  0  0  0  0  1  0  0  0  0  0  0
   24.7341  -24.4971   -3.6393 O   0  0  0  0  0  0  0  0  0  0  0  0
   23.8032  -23.2732   -9.1773 S   0  0  0  0  0  4  0  0  0  0  0  0
   22.0054  -24.0884   -5.8201 O   0  0  0  0  0  0  0  0  0  0  0  0
   24.3511  -19.0096  -11.4734 S   0  0  0  0  0  4  0  0  0  0  0  0
   23.1644  -19.7762  -10.8244 N   0  0  0  0  0  0  0  0  0  0  0  0
   26.3910  -21.1092  -13.6108 C   0  0  0  0  0  0  0  0  0  0  0  0
   26.9338  -21.2715   -7.9992 C   0  0  0  0  0  0  0  0  0  0  0  0
   23.3215  -24.6991   -3.8736 C   0  0  0  0  0  0  0  0  0  0  0  0
   27.4376  -21.1708  -14.4872 C   0  0  0  0  0  0  0  0  0  0  0  0
   26.3853  -20.0758  -12.6617 C   0  0  0  0  0  0  0  0  0  0  0  0
   22.3810  -20.6837  -11.6271 C   0  0  0  0  0  0  0  0  0  0  0  0
   23.2274  -24.7109   -5.4473 C   0  0  0  0  0  0  0  0  0  0  0  0
   23.6649  -25.8768   -5.8598 N   0  0  0  0  0  0  0  0  0  0  0  0
   24.1640  -25.8406   -3.4174 C   0  0  0  0  0  0  0  0  0  0  0  0
   26.3285  -22.7619   -6.1878 C   0  0  0  0  0  0  0  0  0  0  0  0
   22.8102  -23.9513   -8.4248 O   0  0  0  0  0  1  0  0  0  0  0  0
   23.9167  -18.4799  -12.7567 O   0  0  0  0  0  1  0  0  0  0  0  0
   22.8972  -19.7436   -9.4160 C   0  0  0  0  0  0  0  0  0  0  0  0
   28.4143  -19.1277  -13.5791 C   0  0  0  0  0  0  0  0  0  0  0  0
   23.0332  -22.0901   -9.8389 N   0  0  0  0  0  0  0  0  0  0  0  0
  1 22  2  0
  1 31  1  0
  2 11  1  0
  2 24  1  0
  3 16  1  0
  3 22  1  0
  4 19  2  0
  4 27  1  0
  5 30  1  0
  5 32  1  0
  6 10  2  0
  6 19  1  0
  7 23  1  0
  7 32  1  0
  8 21  1  0
  8 31  2  0
  9 16  1  0
 10 11  1  0
 10 14  1  0
 11 27  2  0
 12 14  1  0
 13 20  1  0
 14 28  1  0
 14 32  1  0
 15 24  1  0
 16 17  1  0
 16 29  1  0
 17 23  1  0
 17 30  1  0
 18 21  2  0
 18 22  1  0
 20 24  1  0
 20 26  1  0
 24 25  1  0
M  END
>  <ID>  (1) 
conformer_0

$$$$
