
     RDKit          3D

 10 10  0  0  0  0  0  0  0  0999 V2000
   25.1000  -22.6884   -9.8258 C   0  0  0  0  0  0  0  0  0  0  0  0
   25.9977  -21.2028   -6.4955 C   0  0  0  0  0  0  0  0  0  0  0  0
   25.6305  -23.6965   -7.6267 C   0  0  0  0  0  0  0  0  0  0  0  0
   24.5745  -23.7562  -10.2205 O   0  0  0  0  0  0  0  0  0  0  0  0
   25.6045  -21.3107   -7.7848 C   0  0  0  0  0  0  0  0  0  0  0  0
   25.4072  -21.7449  -10.5773 O   0  0  0  0  0  0  0  0  0  0  0  0
   26.0563  -23.5633   -6.3085 C   0  0  0  0  0  0  0  0  0  0  0  0
   26.7441  -22.1761   -4.4136 C   0  0  0  0  0  0  0  0  0  0  0  0
   26.2555  -22.3208   -5.7770 C   0  0  0  0  0  0  0  0  0  0  0  0
   25.4260  -22.5564   -8.3829 C   0  0  0  0  0  0  0  0  0  0  0  0
  1  4  2  0
  1  6  1  0
  1 10  1  0
  2  5  2  0
  2  9  1  0
  3  7  1  0
  3 10  2  0
  5 10  1  0
  7  9  2  0
  8  9  1  0
M  END
>  <ID>  (1) 
conformer_0

$$$$
