
     RDKit          3D

 15 15  0  0  0  0  0  0  0  0999 V2000
   24.7534  -21.5378  -12.8802 C   0  0  0  0  0  0  0  0  0  0  0  0
   23.7503  -22.4079   -8.0431 C   0  0  0  0  0  0  0  0  0  0  0  0
   27.3132  -22.2110   -6.7555 O   0  0  0  0  0  0  0  0  0  0  0  0
   22.8246  -21.2277  -11.5036 O   0  0  0  0  0  0  0  0  0  0  0  0
   24.0194  -21.8936  -11.6568 C   0  0  0  0  0  0  0  0  0  0  0  0
   23.5318  -22.8057   -9.5060 C   0  0  0  0  0  0  0  0  0  0  0  0
   24.1895  -21.9482  -13.9725 O   0  0  0  0  0  0  0  0  0  0  0  0
   25.3494  -22.5284   -5.4052 O   0  0  0  0  0  0  0  0  0  0  0  0
   24.0131  -23.4858   -7.2742 O   0  0  0  0  0  0  0  0  0  0  0  0
   25.9630  -21.1540  -12.7502 O   0  0  0  0  0  0  0  0  0  0  0  0
   25.7626  -22.4555   -9.1248 O   0  0  0  0  0  0  0  0  0  0  0  0
   22.2658  -23.2075   -9.8015 O   0  0  0  0  0  0  0  0  0  0  0  0
   24.7189  -22.2292  -10.2703 C   0  0  0  0  0  0  0  0  0  0  0  0
   26.0489  -22.4854   -6.5750 C   0  0  0  0  0  0  0  0  0  0  0  0
   25.2653  -22.8792   -7.8176 C   0  0  0  0  0  0  0  0  0  0  0  0
  1  5  1  0
  1  7  2  0
  1 10  1  0
  2  6  1  0
  2  9  1  0
  3 14  2  0
  4  5  1  0
  5 13  1  0
  6 12  1  0
  6 13  1  0
  8 14  1  0
  9 15  1  0
 11 13  1  0
 11 15  1  0
 14 15  1  0
M  END
>  <ID>  (1) 
conformer_0

$$$$
