
     RDKit          3D

 16 17  0  0  0  0  0  0  0  0999 V2000
   27.3986  -21.3430   -3.4483 O   0  0  0  0  0  0  0  0  0  0  0  0
   24.7375  -23.7850  -10.2335 O   0  0  0  0  0  0  0  0  0  0  0  0
   21.7826  -21.8728  -10.5763 O   0  0  0  0  0  0  0  0  0  0  0  0
   27.6850  -21.0389   -5.8264 C   0  0  0  0  0  0  0  0  0  0  0  0
   25.7576  -23.6812   -4.3449 O   0  0  0  0  0  0  0  0  0  0  0  0
   26.8374  -21.5793   -4.7200 C   0  0  0  0  0  0  0  0  0  0  0  0
   24.1739  -21.5756   -9.2163 C   0  0  0  0  0  0  0  0  0  0  0  0
   26.6004  -23.0943   -6.6907 C   0  0  0  0  0  0  0  0  0  0  0  0
   25.8218  -22.5995   -5.3164 C   0  0  0  0  0  0  0  0  0  0  0  0
   24.4392  -22.7950   -6.2308 C   0  0  0  0  0  0  0  0  0  0  0  0
   25.2581  -23.0476   -7.6176 C   0  0  0  0  0  0  0  0  0  0  0  0
   23.9702  -22.6663  -10.2230 C   0  0  0  0  0  0  0  0  0  0  0  0
   25.3571  -21.8509   -8.4375 O   0  0  0  0  0  0  0  0  0  0  0  0
   22.7180  -23.2115  -12.1493 O   0  0  0  0  0  0  0  0  0  0  0  0
   22.7231  -22.6108  -11.0516 C   0  0  0  0  0  0  0  0  0  0  0  0
   27.4590  -21.9551   -7.0145 O   0  0  0  0  0  0  0  0  0  0  0  0
  1  6  1  0
  2 12  1  0
  3 15  2  0
  4  6  1  0
  4 16  1  0
  5  9  1  0
  6  9  1  0
  7 12  1  0
  7 13  1  0
  8  9  1  0
  8 11  1  0
  8 16  1  0
  9 10  1  0
 10 11  1  0
 11 13  1  0
 12 15  1  0
 14 15  1  0
M  END
>  <ID>  (1) 
conformer_0

$$$$
