
     RDKit          3D

 11 11  0  0  0  0  0  0  0  0999 V2000
   22.9353  -23.4555  -11.1242 P   0  0  0  0  0  0  0  0  0  0  0  0
   24.1917  -23.2747   -8.7617 C   0  0  0  0  0  0  0  0  0  0  0  0
   23.2175  -24.6749  -11.8336 O   0  0  0  0  0  0  0  0  0  0  0  0
   21.7418  -22.6296  -11.5727 O   0  0  0  0  0  0  0  0  0  0  0  0
   24.6074  -23.6136   -7.5108 C   0  0  0  0  0  0  0  0  0  0  0  0
   25.8279  -23.1683   -7.0310 C   0  0  0  0  0  0  0  0  0  0  0  0
   22.9637  -23.8316   -9.3487 N   0  0  0  0  0  0  0  0  0  0  0  0
   24.4345  -22.0780  -10.9514 C   0  0  0  0  0  0  0  0  0  0  0  0
   26.1066  -21.9328   -9.0135 N   0  0  0  0  0  0  0  0  0  0  0  0
   24.9283  -22.4231   -9.5509 C   0  0  0  0  0  0  0  0  0  0  0  0
   26.5357  -22.3280   -7.7967 C   0  0  0  0  0  0  0  0  0  0  0  0
  1  3  1  0
  1  4  1  0
  1  7  1  0
  2  5  2  0
  2  7  1  0
  2 10  1  0
  5  6  1  0
  6 11  2  0
  8 10  1  0
  9 10  2  0
  9 11  1  0
M  END
>  <ID>  (1) 
conformer_0

$$$$
