
     RDKit          3D

 12 12  0  0  0  0  0  0  0  0999 V2000
   22.6595  -24.0490   -9.7616 O   0  0  0  0  0  0  0  0  0  0  0  0
   26.1075  -23.1259   -6.0026 C   0  0  0  0  0  0  0  0  0  0  0  0
   23.5254  -23.5229  -10.6056 C   0  0  0  0  0  0  0  0  0  0  0  0
   26.7977  -22.2341   -7.0259 C   0  0  0  0  0  0  0  0  0  0  0  0
   24.1402  -23.3603   -7.6898 C   0  0  0  0  0  0  0  0  0  0  0  0
   23.4546  -23.6346  -11.8929 O   0  0  0  0  0  0  0  0  0  0  0  0
   24.0124  -22.2896   -5.4121 O   0  0  0  0  0  0  0  0  0  0  0  0
   25.2359  -21.8237  -11.0102 O   0  0  0  0  0  0  0  0  0  0  0  0
   24.3942  -22.4259  -10.0859 C   0  0  0  0  0  0  0  0  0  0  0  0
   25.0641  -22.7929   -8.7716 C   0  0  0  0  0  0  0  0  0  0  0  0
   24.6519  -23.1766   -6.2933 C   0  0  0  0  0  0  0  0  0  0  0  0
   25.9580  -21.8057   -8.1676 C   0  0  0  0  0  0  0  0  0  0  0  0
  1  3  2  0
  2  4  1  0
  2 11  1  0
  3  6  1  0
  3  9  1  0
  4 12  1  0
  5 10  1  0
  5 11  1  0
  7 11  1  0
  8  9  1  0
  9 10  1  0
 10 12  1  0
M  END
>  <ID>  (1) 
conformer_0

$$$$
