
     RDKit          3D

 44 46  0  0  0  0  0  0  0  0999 V2000
   23.1784  -22.4822   -8.6407 O   0  0  0  0  0  0  0  0  0  0  0  0
   20.2482  -19.1696   -8.0282 C   0  0  0  0  0  0  0  0  0  0  0  0
   25.8072  -20.4920   -9.6855 N   0  0  0  0  0  0  0  0  0  0  0  0
   28.6633  -20.5897   -2.9815 C   0  0  0  0  0  0  0  0  0  0  0  0
   18.8613  -19.2790   -7.7675 O   0  0  0  0  0  0  0  0  0  0  0  0
   26.5030  -20.1359   -5.9501 C   0  0  0  0  0  0  0  0  0  0  0  0
   20.7950  -20.6296   -7.6503 C   0  0  0  0  0  0  0  0  0  0  0  0
   25.5948  -19.6360  -10.7817 C   0  0  0  0  0  0  0  0  0  0  0  0
   22.6375  -22.5507   -5.5680 C   0  0  0  0  0  0  0  0  0  0  0  0
   21.7207  -22.5701   -9.1439 P   0  0  0  0  0  4  0  0  0  0  0  0
   25.1988  -21.4694   -7.5276 C   0  0  0  0  0  0  0  0  0  0  0  0
   22.7434  -22.1387   -7.0091 C   0  0  0  0  0  0  0  0  0  0  0  0
   20.5004  -18.9356   -9.5068 C   0  0  0  0  0  0  0  0  0  0  0  0
   23.7246  -22.0059   -3.5036 O   0  0  0  0  0  0  0  0  0  0  0  0
   21.0759  -18.2182   -7.2260 C   0  0  0  0  0  0  0  0  0  0  0  0
   27.0163  -18.9773   -2.4311 C   0  0  0  0  0  0  0  0  0  0  0  0
   25.3718  -21.0550   -6.0932 C   0  0  0  0  0  0  0  0  0  0  0  0
   29.9163  -21.2831   -2.6876 C   0  0  0  0  0  0  0  0  0  0  0  0
   21.8646  -22.8111  -10.7206 O   0  0  0  0  0  0  0  0  0  0  0  0
   20.7472  -20.7561   -6.3128 O   0  0  0  0  0  0  0  0  0  0  0  0
   27.5180  -19.2554  -13.9455 C   0  0  0  0  0  0  0  0  0  0  0  0
   26.9612  -18.9310  -12.7395 C   0  0  0  0  0  0  0  0  0  0  0  0
   27.3943  -20.8928   -8.2028 O   0  0  0  0  0  0  0  0  0  0  0  0
   23.8522  -19.4263   -4.7272 O   0  0  0  0  0  0  0  0  0  0  0  0
   26.4068  -18.9461   -6.5896 O   0  0  0  0  0  0  0  0  0  0  0  0
   21.0230  -23.7766   -8.5449 O   0  0  0  0  0  1  0  0  0  0  0  0
   26.0727  -21.1735  -12.6790 C   0  0  0  0  0  0  0  0  0  0  0  0
   23.8124  -23.5464   -9.5821 C   0  0  0  0  0  0  0  0  0  0  0  0
   22.4092  -18.1098   -7.3561 C   0  0  0  0  0  0  0  0  0  0  0  0
   26.4568  -19.1271   -3.6625 C   0  0  0  0  0  0  0  0  0  0  0  0
   28.1386  -19.6891   -2.0851 C   0  0  0  0  0  0  0  0  0  0  0  0
   20.9492  -21.3265   -8.8660 C   0  0  0  0  0  0  0  0  0  0  0  0
   24.1480  -20.6209   -5.4018 C   0  0  0  0  0  0  0  0  0  0  0  0
   24.0226  -22.3691   -7.5459 C   0  0  0  0  0  0  0  0  0  0  0  0
   26.1902  -20.8904   -8.3968 C   0  0  0  0  0  0  0  0  0  0  0  0
   28.1465  -18.3509  -14.6199 F   0  0  0  0  0  0  0  0  0  0  0  0
   24.9289  -23.1356  -10.1862 O   0  0  0  0  0  0  0  0  0  0  0  0
   26.9967  -19.9994   -4.5523 C   0  0  0  0  0  0  0  0  0  0  0  0
   22.8141  -23.9139  -10.7066 C   0  0  0  0  0  0  0  0  0  0  0  0
   26.6516  -21.4607  -13.8635 C   0  0  0  0  0  0  0  0  0  0  0  0
   23.4226  -21.7113   -4.7198 C   0  0  0  0  0  0  0  0  0  0  0  0
   28.0375  -20.7975   -4.1691 C   0  0  0  0  0  0  0  0  0  0  0  0
   27.3750  -20.5183  -14.5072 C   0  0  0  0  0  0  0  0  0  0  0  0
   26.2156  -19.9171  -12.0947 C   0  0  0  0  0  0  0  0  0  0  0  0
  1 10  1  0
  1 34  1  0
  2  5  1  0
  2  7  1  0
  2 13  1  0
  2 15  1  0
  3  8  1  0
  3 35  1  0
  4 18  1  0
  4 31  2  0
  4 42  1  0
  6 17  1  0
  6 25  1  0
  6 38  1  0
  7 20  1  0
  7 32  1  0
  8 44  1  0
  9 12  1  0
  9 41  1  0
 10 19  1  0
 10 26  2  0
 10 32  1  0
 11 17  1  0
 11 34  1  0
 11 35  1  0
 12 34  1  0
 14 41  1  0
 15 29  2  0
 16 30  2  0
 16 31  1  0
 17 33  1  0
 19 39  1  0
 21 22  2  0
 21 36  1  0
 21 43  1  0
 22 44  1  0
 23 35  2  0
 24 33  1  0
 27 40  2  0
 27 44  1  0
 28 37  1  0
 28 39  1  0
 30 38  1  0
 33 41  1  0
 38 42  2  0
 40 43  1  0
M  END
>  <ID>  (1) 
conformer_0

$$$$
