
     RDKit          3D

 12 12  0  0  0  0  0  0  0  0999 V2000
   23.6712  -22.3716  -11.1970 C   0  0  0  0  0  0  0  0  0  0  0  0
   26.6783  -21.8808   -3.6676 C   0  0  0  0  0  0  0  0  0  0  0  0
   22.5891  -24.0113  -11.2363 C   0  0  0  0  0  0  0  0  0  0  0  0
   25.7801  -23.0403   -7.0622 N   0  0  0  0  0  0  0  0  0  0  0  0
   25.2374  -21.8053   -3.5848 N   0  0  0  0  0  0  0  0  0  0  0  0
   23.9523  -23.8338  -11.4228 O   0  0  0  0  0  0  0  0  0  0  0  0
   25.7752  -22.8799   -5.6309 C   0  0  0  0  0  0  0  0  0  0  0  0
   23.4387  -22.3453   -9.7213 C   0  0  0  0  0  0  0  0  0  0  0  0
   24.6683  -23.1435   -9.2272 C   0  0  0  0  0  0  0  0  0  0  0  0
   27.0000  -22.0846   -5.1607 C   0  0  0  0  0  0  0  0  0  0  0  0
   24.6477  -22.2346   -4.8444 C   0  0  0  0  0  0  0  0  0  0  0  0
   24.4872  -23.1336   -7.7148 O   0  0  0  0  0  0  0  0  0  0  0  0
  1  6  1  0
  1  8  1  0
  2  5  1  0
  2 10  1  0
  3  6  1  0
  4  7  1  0
  4 12  1  0
  5 11  1  0
  7 10  1  0
  7 11  1  0
  8  9  1  0
  9 12  1  0
M  END
>  <ID>  (1) 
conformer_0

$$$$
