
     RDKit          3D

 12 12  0  0  0  0  0  0  0  0999 V2000
   25.5011  -23.4637   -7.7186 C   0  0  0  0  0  0  0  0  0  0  0  0
   22.9874  -24.0829   -8.9301 N   0  0  0  0  0  0  0  0  0  0  0  0
   23.9167  -23.4061   -9.6106 C   0  0  0  0  0  0  0  0  0  0  0  0
   24.0806  -23.5117  -10.9270 N   0  0  0  0  0  0  0  0  0  0  0  0
   22.8972  -24.6065  -12.5368 O   0  0  0  0  0  0  0  0  0  0  0  0
   26.5778  -22.9270   -6.9828 C   0  0  0  0  0  0  0  0  0  0  0  0
   23.2777  -22.4089  -12.7165 O   0  0  0  0  0  0  0  0  0  0  0  0
   27.1119  -21.7182   -7.3160 C   0  0  0  0  0  0  0  0  0  0  0  0
   26.6019  -21.0250   -8.4196 C   0  0  0  0  0  0  0  0  0  0  0  0
   25.5605  -21.5494   -9.1643 C   0  0  0  0  0  0  0  0  0  0  0  0
   24.9825  -22.7884   -8.8290 C   0  0  0  0  0  0  0  0  0  0  0  0
   23.3528  -23.5302  -12.0102 C   0  0  0  0  0  0  0  0  0  0  0  0
  1  6  2  0
  1 11  1  0
  2  3  2  0
  3  4  1  0
  3 11  1  0
  4 12  1  0
  5 12  2  0
  6  8  1  0
  7 12  1  0
  8  9  2  0
  9 10  1  0
 10 11  2  0
M  END
>  <ID>  (1) 
conformer_0

$$$$
