
     RDKit          3D

 16 17  0  0  0  0  0  0  0  0999 V2000
   22.2179  -20.3103  -13.1600 C   0  0  0  0  0  0  0  0  0  0  0  0
   23.6335  -19.8266  -13.3530 C   0  0  0  0  0  0  0  0  0  0  0  0
   26.5139  -22.1003   -6.1637 C   0  0  0  0  0  0  0  0  0  0  0  0
   25.5621  -23.5974   -7.8099 C   0  0  0  0  0  0  0  0  0  0  0  0
   24.6638  -22.5934   -8.1836 C   0  0  0  0  0  0  0  0  0  0  0  0
   25.7430  -21.1008  -12.6507 O   0  0  0  0  0  0  0  0  0  0  0  0
   22.2374  -21.8231  -13.3664 C   0  0  0  0  0  0  0  0  0  0  0  0
   26.4789  -23.3400   -6.7973 C   0  0  0  0  0  0  0  0  0  0  0  0
   23.6147  -22.1896  -12.7209 C   0  0  0  0  0  0  0  0  0  0  0  0
   24.7761  -21.3498   -7.5894 C   0  0  0  0  0  0  0  0  0  0  0  0
   24.5085  -20.9792  -13.0710 C   0  0  0  0  0  0  0  0  0  0  0  0
   23.4218  -22.0827  -11.2519 N   0  0  0  0  0  0  0  0  0  0  0  0
   25.6570  -21.1089   -6.5649 C   0  0  0  0  0  0  0  0  0  0  0  0
   23.6040  -22.8722   -9.0648 C   0  0  0  0  0  0  0  0  0  0  0  0
   23.7310  -23.1448  -10.4382 C   0  0  0  0  0  0  0  0  0  0  0  0
   23.7618  -24.2742  -10.9089 O   0  0  0  0  0  0  0  0  0  0  0  0
  1  2  1  0
  1  7  1  0
  2 11  1  0
  3  8  2  0
  3 13  1  0
  4  5  2  0
  4  8  1  0
  5 10  1  0
  5 14  1  0
  6 11  1  0
  7  9  1  0
  9 11  1  0
  9 12  1  0
 10 13  2  0
 12 15  1  0
 14 15  1  0
 15 16  2  0
M  END
>  <ID>  (1) 
conformer_0

$$$$
