
     RDKit          3D

 13 12  0  0  0  0  0  0  0  0999 V2000
   24.2039  -22.6085   -6.7865 C   0  0  0  0  0  0  0  0  0  0  0  0
   25.5735  -23.1421   -6.3180 C   0  0  0  0  0  0  0  0  0  0  0  0
   23.8082  -20.1537  -11.0573 O   0  0  0  0  0  0  0  0  0  0  0  0
   23.1001  -22.2530   -9.0381 C   0  0  0  0  0  0  0  0  0  0  0  0
   25.7327  -21.2904  -10.8253 O   0  0  0  0  0  0  0  0  0  0  0  0
   25.8987  -24.2155   -7.2612 N   0  0  0  0  0  0  0  0  0  0  0  0
   23.1161  -23.3869   -5.9379 C   0  0  0  0  0  0  0  0  0  0  0  0
   26.6669  -22.0892   -6.2857 C   0  0  0  0  0  0  0  0  0  0  0  0
   27.4868  -22.2828   -7.4304 O   0  0  0  0  0  0  0  0  0  0  0  0
   24.2362  -21.9103   -8.0806 N   0  0  0  0  0  0  0  0  0  0  0  0
   24.5094  -21.2108  -10.8018 C   0  0  0  0  0  0  0  0  0  0  0  0
   24.4599  -23.7112  -10.2982 O   0  0  0  0  0  0  0  0  0  0  0  0
   23.7322  -22.4816  -10.4256 C   0  0  0  0  0  0  0  0  0  0  0  0
  1  2  1  0
  1  7  1  0
  1 10  1  0
  2  6  1  0
  2  8  1  0
  3 11  2  0
  4 10  1  0
  4 13  1  0
  5 11  1  0
  8  9  1  0
 11 13  1  0
 12 13  1  0
M  END
>  <ID>  (1) 
conformer_0

$$$$
