
     RDKit          3D

  7  6  0  0  0  0  0  0  0  0999 V2000
   24.7028  -22.9951   -9.5244 C   0  0  0  0  0  0  0  0  0  0  0  0
   25.6186  -22.2614   -9.8772 O   0  0  0  0  0  0  0  0  0  0  0  0
   24.0522  -22.8619   -8.1114 C   0  0  0  0  0  0  0  0  0  0  0  0
   26.4302  -22.8614   -7.3806 C   0  0  0  0  0  0  0  0  0  0  0  0
   25.5773  -22.4854   -6.3001 C   0  0  0  0  0  0  0  0  0  0  0  0
   25.0104  -23.5699   -7.0774 C   0  0  0  0  0  0  0  0  0  0  0  0
   24.1754  -23.9233  -10.2486 O   0  0  0  0  0  0  0  0  0  0  0  0
  1  2  2  0
  1  3  1  0
  1  7  1  0
  3  6  1  0
  4  5  1  0
  5  6  1  0
M  END
>  <ID>  (1) 
conformer_0

$$$$
