
     RDKit          3D

 13 13  0  0  0  0  0  0  0  0999 V2000
   25.5387  -23.1181   -7.0407 C   0  0  0  0  0  0  0  0  0  0  0  0
   23.6327  -23.3235  -10.2074 C   0  0  0  0  0  0  0  0  0  0  0  0
   21.6753  -23.9491  -11.5520 O   0  0  0  0  0  0  0  0  0  0  0  0
   24.3658  -23.4386   -7.6856 C   0  0  0  0  0  0  0  0  0  0  0  0
   22.1510  -23.8114   -6.9439 O   0  0  0  0  0  0  0  0  0  0  0  0
   26.3574  -22.4835   -7.9853 O   0  0  0  0  0  0  0  0  0  0  0  0
   25.6894  -22.4298   -9.1859 C   0  0  0  0  0  0  0  0  0  0  0  0
   23.7211  -25.1065   -6.1881 O   0  0  0  0  0  0  0  0  0  0  0  0
   24.2072  -23.3265  -11.3227 O   0  0  0  0  0  0  0  0  0  0  0  0
   23.3563  -24.1650   -6.9539 C   0  0  0  0  0  0  0  0  0  0  0  0
   24.4440  -23.0459   -9.0151 C   0  0  0  0  0  0  0  0  0  0  0  0
   21.2040  -22.8180   -9.5098 C   0  0  0  0  0  0  0  0  0  0  0  0
   22.2519  -23.5242  -10.2657 N   0  0  0  0  0  0  0  0  0  0  0  0
  1  4  1  0
  1  6  1  0
  2  9  2  0
  2 11  1  0
  2 13  1  0
  3 13  1  0
  4 10  1  0
  4 11  2  0
  5 10  2  0
  6  7  1  0
  7 11  1  0
  8 10  1  0
 12 13  1  0
M  END
>  <ID>  (1) 
conformer_0

$$$$
