
     RDKit          3D

 10 10  0  0  0  0  0  0  0  0999 V2000
   25.7324  -21.4801   -9.1222 C   0  0  0  0  0  0  0  0  0  0  0  0
   26.7273  -22.6124   -5.7768 C   0  0  0  0  0  0  0  0  0  0  0  0
   26.2510  -21.7026   -7.8144 C   0  0  0  0  0  0  0  0  0  0  0  0
   26.9813  -20.7806   -7.0528 C   0  0  0  0  0  0  0  0  0  0  0  0
   26.1177  -22.8280   -7.0467 C   0  0  0  0  0  0  0  0  0  0  0  0
   27.2732  -21.3593   -5.7806 C   0  0  0  0  0  0  0  0  0  0  0  0
   25.0569  -22.7268   -9.6067 C   0  0  0  0  0  0  0  0  0  0  0  0
   25.5605  -23.8706   -9.5584 O   0  0  0  0  0  0  0  0  0  0  0  0
   23.6905  -23.2192  -11.4096 O   0  0  0  0  0  0  0  0  0  0  0  0
   23.8170  -22.5153  -10.1483 N   0  0  0  0  0  0  0  0  0  0  0  0
  1  3  1  0
  1  7  1  0
  2  5  1  0
  2  6  1  0
  3  4  1  0
  3  5  1  0
  4  6  1  0
  7  8  2  0
  7 10  1  0
  9 10  1  0
M  END
>  <ID>  (1) 
conformer_0

$$$$
