
     RDKit          3D

 19 19  0  0  0  0  0  0  0  0999 V2000
   26.6264  -21.2760   -4.9588 C   0  0  0  0  0  0  0  0  0  0  0  0
   22.4787  -21.3319   -8.9891 O   0  0  0  0  0  0  0  0  0  0  0  0
   27.7638  -22.1961   -6.8497 O   0  0  0  0  0  0  0  0  0  0  0  0
   24.6623  -19.9958   -5.6790 O   0  0  0  0  0  0  0  0  0  0  0  0
   28.0659  -21.3827   -4.5149 O   0  0  0  0  0  0  0  0  0  0  0  0
   23.3997  -22.7525  -11.0424 C   0  0  0  0  0  0  0  0  0  0  0  0
   24.7983  -21.9016   -9.2923 C   0  0  0  0  0  0  0  0  0  0  0  0
   25.4351  -22.7437   -7.0310 C   0  0  0  0  0  0  0  0  0  0  0  0
   24.6633  -21.6536   -7.7955 C   0  0  0  0  0  0  0  0  0  0  0  0
   26.6180  -22.3853   -6.0660 C   0  0  0  0  0  0  0  0  0  0  0  0
   22.5067  -21.5924   -6.6800 O   0  0  0  0  0  0  0  0  0  0  0  0
   24.4124  -22.1998  -11.8985 O   0  0  0  0  0  0  0  0  0  0  0  0
   26.0279  -23.6685   -7.9698 O   0  0  0  0  0  0  0  0  0  0  0  0
   23.1000  -24.1075  -13.0440 O   0  0  0  0  0  0  0  0  0  0  0  0
   23.0473  -24.1587  -11.6702 C   0  0  0  0  0  0  0  0  0  0  0  0
   23.1482  -21.5543   -7.7538 C   0  0  0  0  0  0  0  0  0  0  0  0
   25.1103  -21.0067   -4.6810 C   0  0  0  0  0  0  0  0  0  0  0  0
   22.4199  -21.6607  -10.4835 C   0  0  0  0  0  0  0  0  0  0  0  0
   23.9773  -23.1131   -9.6502 O   0  0  0  0  0  0  0  0  0  0  0  0
  1  5  1  0
  1 10  1  0
  1 17  1  0
  2 16  1  0
  2 18  1  0
  3 10  1  0
  4 17  1  0
  6 12  1  0
  6 15  1  0
  6 18  1  0
  6 19  1  0
  7  9  1  0
  7 19  1  0
  8  9  1  0
  8 10  1  0
  8 13  1  0
  9 16  1  0
 11 16  2  0
 14 15  1  0
M  END
>  <ID>  (1) 
conformer_0

$$$$
