
     RDKit          3D

 19 20  0  0  0  0  0  0  0  0999 V2000
   23.4748  -24.3549  -11.1799 O   0  0  0  0  0  0  0  0  0  0  0  0
   24.6347  -22.4758   -3.5599 C   0  0  0  0  0  0  0  0  0  0  0  0
   25.2188  -22.0030   -4.9071 C   0  0  0  0  0  0  0  0  0  0  0  0
   25.0072  -25.2924   -3.1540 C   0  0  0  0  0  3  0  0  0  0  0  0
   25.0175  -23.1907   -5.8116 C   0  0  0  0  0  0  0  0  0  0  0  0
   25.5127  -20.7410   -9.4302 C   0  0  0  0  0  0  0  0  0  0  0  0
   24.6907  -21.7859   -9.8912 C   0  0  0  0  0  0  0  0  0  0  0  0
   21.7538  -23.1420  -10.4313 O   0  0  0  0  0  0  0  0  0  0  0  0
   22.9821  -23.2558  -10.8255 C   0  0  0  0  0  0  0  0  0  0  0  0
   24.9297  -23.7998   -3.2685 N   0  0  0  0  0  0  0  0  0  0  0  0
   24.9121  -22.9306   -9.0282 C   0  0  0  0  0  0  0  0  0  0  0  0
   25.9147  -23.1330   -6.8800 N   0  0  0  0  0  0  0  0  0  0  0  0
   23.7508  -22.0070  -10.8891 N   0  0  0  0  0  0  0  0  0  0  0  0
   23.4373  -23.4560   -3.5693 C   0  0  0  0  0  0  0  0  0  0  0  0
   26.0304  -21.1422   -8.2080 N   0  0  0  0  0  0  0  0  0  0  0  0
   25.7232  -22.4039   -7.9724 C   0  0  0  0  0  0  0  0  0  0  0  0
   23.0513  -24.5634   -4.6423 C   0  0  0  0  0  0  0  0  0  0  0  0
   24.8028  -21.5039   -2.6626 O   0  0  0  0  0  0  0  0  0  0  0  0
   24.1964  -24.4783   -5.7182 C   0  0  0  0  0  0  0  0  0  0  0  0
  1  9  2  0
  2  3  1  0
  2 10  1  0
  2 14  1  0
  2 18  1  0
  3  5  1  0
  4 10  2  0
  5 12  1  0
  5 19  1  0
  6  7  1  0
  6 15  1  0
  7 11  1  0
  7 13  2  3
  8  9  1  0
  9 13  1  0
 11 16  1  0
 12 16  2  3
 14 17  1  0
 15 16  1  0
 17 19  1  0
M  END
>  <ID>  (1) 
conformer_0

$$$$
