
     RDKit          3D

 27 31  0  0  0  0  0  0  0  0999 V2000
   24.5750  -22.8478  -15.5279 C   0  0  0  0  0  0  0  0  0  0  0  0
   24.4029  -20.0154  -12.5632 N   0  0  0  0  0  0  0  0  0  0  0  0
   24.7927  -24.6423   -4.7510 O   0  0  0  0  0  0  0  0  0  0  0  0
   24.0579  -18.8212   -8.6382 O   0  0  0  0  0  0  0  0  0  0  0  0
   25.8109  -21.2794  -14.1960 O   0  0  0  0  0  0  0  0  0  0  0  0
   23.7316  -20.5349  -11.3513 C   0  0  0  0  0  0  0  0  0  0  0  0
   21.7033  -19.0837   -9.8312 O   0  0  0  0  0  0  0  0  0  0  0  0
   24.4263  -21.9861   -7.4609 N   0  0  0  0  0  0  0  0  0  0  0  0
   24.6434  -22.8780   -6.3583 C   0  0  0  0  0  0  0  0  0  0  0  0
   24.5273  -23.9183  -16.3768 C   0  0  0  0  0  0  0  0  0  0  0  0
   23.7488  -20.1067   -9.1248 C   0  0  0  0  0  0  0  0  0  0  0  0
   24.8662  -20.5258  -10.2444 C   0  0  0  0  0  0  0  0  0  0  0  0
   26.0960  -23.2982   -6.4171 C   0  0  0  0  0  0  0  0  0  0  0  0
   23.4325  -21.2957  -14.2375 C   0  0  0  0  0  0  0  0  0  0  0  0
   26.9043  -22.5557  -15.9865 C   0  0  0  0  0  0  0  0  0  0  0  0
   25.2595  -21.8288   -9.6723 O   0  0  0  0  0  0  0  0  0  0  0  0
   22.5989  -20.1533  -10.2749 C   0  0  0  0  0  0  0  0  0  0  0  0
   23.9349  -24.0829   -5.7893 C   0  0  0  0  0  0  0  0  0  0  0  0
   24.6763  -20.9796  -13.5655 C   0  0  0  0  0  0  0  0  0  0  0  0
   26.5969  -22.4921   -7.5867 C   0  0  0  0  0  0  0  0  0  0  0  0
   26.0878  -20.0171  -10.7815 O   0  0  0  0  0  0  0  0  0  0  0  0
   25.6528  -24.3149  -17.0688 C   0  0  0  0  0  0  0  0  0  0  0  0
   23.4053  -22.4417  -14.9146 O   0  0  0  0  0  0  0  0  0  0  0  0
   23.3546  -21.1056   -8.0476 C   0  0  0  0  0  0  0  0  0  0  0  0
   25.7858  -22.1932  -15.2559 C   0  0  0  0  0  0  0  0  0  0  0  0
   26.8213  -23.6199  -16.8849 C   0  0  0  0  0  0  0  0  0  0  0  0
   25.5141  -21.8512   -8.2989 C   0  0  0  0  0  0  0  0  0  0  0  0
  1 10  1  0
  1 23  1  0
  1 25  2  0
  2  6  1  0
  2 19  1  0
  3 18  1  0
  4 11  1  0
  5 19  1  0
  5 25  1  0
  6 12  1  0
  6 17  1  0
  7 17  1  0
  8  9  1  0
  8 24  1  0
  8 27  1  0
  9 13  1  0
  9 18  1  0
 10 22  2  0
 11 12  1  0
 11 17  1  0
 11 24  1  0
 12 16  1  0
 12 21  1  0
 13 20  1  0
 14 19  1  0
 14 23  1  0
 15 25  1  0
 15 26  2  0
 16 27  1  0
 20 27  1  0
 22 26  1  0
M  END
>  <ID>  (1) 
conformer_0

$$$$
