
     RDKit          3D

 18 18  0  0  0  0  0  0  0  0999 V2000
   22.9620  -22.7627  -10.8614 C   0  0  0  0  0  0  0  0  0  0  0  0
   23.8707  -22.0759   -6.4505 O   0  0  0  0  0  0  0  0  0  0  0  0
   26.0253  -23.1353   -7.1956 C   0  0  0  0  0  0  0  0  0  0  0  0
   21.5705  -22.5211   -6.0698 C   0  0  0  0  0  0  0  0  0  0  0  0
   24.0214  -23.1393  -11.4221 O   0  0  0  0  0  0  0  0  0  0  0  0
   25.0613  -21.1022   -8.7141 O   0  0  0  0  0  0  0  0  0  0  0  0
   22.5571  -22.8526   -9.5867 O   0  0  0  0  0  0  0  0  0  0  0  0
   23.6616  -23.0907   -8.7922 C   0  0  0  0  0  0  0  0  0  0  0  0
   24.9049  -22.4134   -9.1740 C   0  0  0  0  0  0  0  0  0  0  0  0
   26.0175  -23.2447   -8.6476 C   0  0  0  0  0  0  0  0  0  0  0  0
   22.0141  -23.3719   -7.1354 C   0  0  0  0  0  0  0  0  0  0  0  0
   23.4679  -23.0350   -7.3195 C   0  0  0  0  0  0  0  0  0  0  0  0
   21.8552  -24.7024   -6.9755 O   0  0  0  0  0  0  0  0  0  0  0  0
   27.0612  -22.5809   -6.4880 O   0  0  0  0  0  0  0  0  0  0  0  0
   24.6000  -24.1208   -5.5888 O   0  0  0  0  0  0  0  0  0  0  0  0
   21.8967  -21.2384   -5.9137 C   0  0  0  0  0  0  0  0  0  0  0  0
   22.8684  -22.0904   -5.3994 C   0  0  0  0  0  0  0  0  0  0  0  0
   24.6733  -23.1487   -6.5656 C   0  0  0  0  0  0  0  0  0  0  0  0
  1  5  2  0
  1  7  1  0
  2 17  1  0
  3 10  1  0
  3 14  1  0
  3 18  1  0
  4 11  1  0
  4 16  1  0
  6  9  1  0
  7  8  1  0
  8  9  1  0
  8 12  1  0
  9 10  1  0
 11 12  1  0
 11 13  1  0
 12 18  1  0
 15 18  1  0
 16 17  1  0
M  END
>  <ID>  (1) 
conformer_0

$$$$
