
     RDKit          3D

 23 24  0  0  0  0  0  0  0  0999 V2000
   23.5536  -25.0250  -15.1819 O   0  0  0  0  0  0  0  0  0  0  0  0
   24.0837  -24.1818   -6.1609 O   0  0  0  0  0  0  0  0  0  0  0  0
   24.4792  -22.7875   -5.8953 C   0  0  0  0  0  0  0  0  0  0  0  0
   25.8247  -21.0813   -7.2394 C   0  0  0  0  0  0  0  0  0  0  0  0
   25.7721  -23.6446   -9.1879 O   0  0  0  0  0  0  0  0  0  0  0  0
   24.2133  -21.5642  -11.3207 C   0  0  0  0  0  0  0  0  0  0  0  0
   24.5933  -20.8850  -13.6049 C   0  0  0  0  0  0  0  0  0  0  0  0
   24.8414  -23.2758   -8.2720 C   0  0  0  0  0  0  0  0  0  0  0  0
   22.9233  -23.9642  -14.9687 C   0  0  0  0  0  0  0  0  0  0  0  0
   21.8338  -23.6497  -15.4333 O   0  0  0  0  0  0  0  0  0  0  0  0
   23.3008  -23.3710  -10.2004 O   0  0  0  0  0  0  0  0  0  0  0  0
   22.8548  -24.0978   -7.0228 C   0  0  0  0  0  0  0  0  0  0  0  0
   23.2959  -23.4128  -12.5932 C   0  0  0  0  0  0  0  0  0  0  0  0
   23.5744  -22.8743   -8.9874 C   0  0  0  0  0  0  0  0  0  0  0  0
   22.5575  -22.8810   -7.9437 C   0  0  0  0  0  0  0  0  0  0  0  0
   26.7253  -20.9504   -6.3340 O   0  0  0  0  0  0  0  0  0  0  0  0
   25.0227  -22.3011   -7.1913 C   0  0  0  0  0  0  0  0  0  0  0  0
   22.5865  -25.0278  -12.2623 S   0  0  0  0  0  0  0  0  0  0  0  0
   23.6250  -22.7404  -11.3812 C   0  0  0  0  0  0  0  0  0  0  0  0
   24.6852  -20.7270  -12.2630 C   0  0  0  0  0  0  0  0  0  0  0  0
   24.0262  -21.8725  -14.2744 C   0  0  0  0  0  0  0  0  0  0  0  0
   23.4384  -23.0183  -13.9170 C   0  0  0  0  0  0  0  0  0  0  0  0
   25.3226  -20.0783   -7.8800 O   0  0  0  0  0  0  0  0  0  0  0  0
  1  9  2  0
  2  3  1  0
  2 12  1  0
  3 17  1  0
  4 16  2  0
  4 17  1  0
  4 23  1  0
  5  8  1  0
  6 19  2  0
  6 20  1  0
  7 20  1  0
  7 21  2  0
  8 14  1  0
  8 17  1  0
  9 10  1  0
  9 22  1  0
 11 14  1  0
 11 19  1  0
 12 15  1  0
 13 18  1  0
 13 19  1  0
 13 22  2  0
 14 15  1  0
 21 22  1  0
M  END
>  <ID>  (1) 
conformer_0

$$$$
