
     RDKit          3D

 22 23  0  0  0  0  0  0  0  0999 V2000
   24.8916  -21.2289   -9.5998 O   0  0  0  0  0  0  0  0  0  0  0  0
   24.8877  -21.7806   -7.3049 C   0  0  0  0  0  0  0  0  0  0  0  0
   23.6955  -19.1633  -10.9902 C   0  0  0  0  0  0  0  0  0  0  0  0
   21.7564  -23.3197   -7.2842 O   0  0  0  0  0  0  0  0  0  0  0  0
   24.3210  -19.6496  -11.9878 O   0  0  0  0  0  0  0  0  0  0  0  0
   23.2799  -22.5752  -10.8280 C   0  0  0  0  0  0  0  0  0  0  0  0
   23.6404  -23.7555   -9.9300 C   0  0  0  0  0  0  0  0  0  0  0  0
   23.8969  -23.6502   -6.1166 C   0  0  0  0  0  0  0  0  0  0  0  0
   23.7458  -23.2534   -8.5862 C   0  0  0  0  0  0  0  0  0  0  0  0
   26.0626  -22.7923   -5.2730 C   0  0  0  0  0  0  0  0  0  0  0  0
   23.4883  -17.9403  -10.7672 O   0  0  0  0  0  0  0  0  0  0  0  0
   25.5874  -20.5575   -7.2668 O   0  0  0  0  0  0  0  0  0  0  0  0
   24.1009  -21.8185   -8.6555 C   0  0  0  0  0  0  0  0  0  0  0  0
   25.2234  -22.9879   -6.5135 C   0  0  0  0  0  0  0  0  0  0  0  0
   23.0506  -23.5821   -7.4021 C   0  0  0  0  0  0  0  0  0  0  0  0
   25.8195  -23.8710   -4.4395 O   0  0  0  0  0  0  0  0  0  0  0  0
   24.0335  -22.6724  -11.9452 O   0  0  0  0  0  0  0  0  0  0  0  0
   23.7095  -21.3686  -10.0595 C   0  0  0  0  0  0  0  0  0  0  0  0
   21.8050  -22.7234  -10.9483 C   0  0  0  0  0  0  0  0  0  0  0  0
   24.0315  -25.0327   -5.9428 O   0  0  0  0  0  0  0  0  0  0  0  0
   22.9220  -20.1633  -10.1785 C   0  0  0  0  0  0  0  0  0  0  0  0
   25.9633  -21.5159   -4.7925 O   0  0  0  0  0  0  0  0  0  0  0  0
  1 13  1  0
  1 18  1  0
  2 12  1  0
  2 13  1  0
  2 14  1  0
  3  5  2  0
  3 11  1  0
  3 21  1  0
  4 15  1  0
  6  7  1  0
  6 17  1  0
  6 18  1  0
  6 19  1  0
  7  9  1  0
  8 14  1  0
  8 15  1  0
  8 20  1  0
  9 13  1  0
  9 15  1  0
 10 14  1  0
 10 16  1  0
 10 22  1  0
 18 21  1  0
M  END
>  <ID>  (1) 
conformer_0

$$$$
