
     RDKit          3D

 12 12  0  0  0  0  0  0  0  0999 V2000
   23.2140  -24.4920  -11.4602 O   0  0  0  0  0  0  0  0  0  0  0  0
   25.4616  -22.8269   -7.8747 C   0  0  0  0  0  0  0  0  0  0  0  0
   24.9079  -22.1420   -3.6052 O   0  0  0  0  0  0  0  0  0  0  0  0
   24.7891  -22.2029   -9.0610 C   0  0  0  0  0  0  0  0  0  0  0  0
   24.4230  -22.5656  -11.6358 O   0  0  0  0  0  0  0  0  0  0  0  0
   23.7522  -23.4093  -11.0062 C   0  0  0  0  0  0  0  0  0  0  0  0
   23.6616  -23.3375   -9.4632 C   0  0  0  0  0  0  0  0  0  0  0  0
   26.6890  -22.3343   -7.2172 C   0  0  0  0  0  0  0  0  0  0  0  0
   26.6860  -22.4774   -5.6789 C   0  0  0  0  0  0  0  0  0  0  0  0
   24.1516  -23.0250   -5.7556 C   0  0  0  0  0  0  0  0  0  0  0  0
   24.5975  -23.7186   -7.0590 C   0  0  0  0  0  0  0  0  0  0  0  0
   25.3739  -22.5831   -4.9410 C   0  0  0  0  0  0  0  0  0  0  0  0
  1  6  2  0
  2  4  1  0
  2  8  1  0
  2 11  1  0
  3 12  1  0
  4  7  1  0
  5  6  1  0
  6  7  1  0
  8  9  1  0
  9 12  1  0
 10 11  1  0
 10 12  1  0
M  END
>  <ID>  (1) 
conformer_0

$$$$
