
     RDKit          3D

 24 27  0  0  0  0  0  0  0  0999 V2000
   23.6509  -23.6055   -6.9163 C   0  0  0  0  0  0  0  0  0  0  0  0
   22.4161  -20.5677  -10.0131 O   0  0  0  0  0  0  0  0  0  0  0  0
   24.0386  -24.3651   -5.6473 C   0  0  0  0  0  0  0  0  0  0  0  0
   26.0989  -23.0584   -6.9505 C   0  0  0  0  0  0  0  0  0  0  0  0
   22.6214  -21.7854  -10.9264 C   0  0  0  0  0  0  0  0  0  0  0  0
   24.4963  -21.7214   -8.1804 C   0  0  0  0  0  0  0  0  0  0  0  0
   25.7493  -21.4608  -10.1439 O   0  0  0  0  0  0  0  0  0  0  0  0
   21.9731  -22.3988  -12.0571 C   0  0  0  0  0  0  0  0  0  0  0  0
   22.3555  -23.7171  -12.4250 C   0  0  0  0  0  0  0  0  0  0  0  0
   22.2682  -18.8659   -8.2775 C   0  0  0  0  0  0  0  0  0  0  0  0
   22.2701  -18.4975   -6.9104 C   0  0  0  0  0  0  0  0  0  0  0  0
   26.0837  -22.9608   -4.6036 N   0  0  0  0  0  0  0  0  0  0  0  0
   24.6851  -21.7998   -9.5911 C   0  0  0  0  0  0  0  0  0  0  0  0
   24.6552  -23.3555   -4.6225 C   0  0  0  0  0  0  0  0  0  0  0  0
   21.8352  -24.3834  -13.4562 N   0  0  0  0  0  0  0  0  0  0  0  0
   24.7379  -22.6122   -7.1064 C   0  0  0  0  0  0  0  0  0  0  0  0
   22.7695  -20.1120   -8.6675 C   0  0  0  0  0  0  0  0  0  0  0  0
   23.3430  -20.5278   -6.3997 C   0  0  0  0  0  0  0  0  0  0  0  0
   23.2892  -24.3745  -11.6424 N   0  0  0  0  0  0  0  0  0  0  0  0
   22.7527  -19.3456   -5.9465 C   0  0  0  0  0  0  0  0  0  0  0  0
   23.7125  -22.4836  -10.4498 C   0  0  0  0  0  0  0  0  0  0  0  0
   26.7221  -22.2400   -5.7682 C   0  0  0  0  0  0  0  0  0  0  0  0
   23.5094  -20.8232   -7.7158 C   0  0  0  0  0  0  0  0  0  0  0  0
   23.9099  -23.7556  -10.7047 N   0  0  0  0  0  0  0  0  0  0  0  0
  1  3  1  0
  1 16  1  0
  2  5  1  0
  2 17  1  0
  3 14  1  0
  4 16  1  0
  4 22  1  0
  5  8  2  0
  5 21  1  0
  6 13  1  0
  6 16  1  0
  6 23  1  0
  7 13  2  0
  8  9  1  0
  9 15  2  0
  9 19  1  0
 10 11  2  0
 10 17  1  0
 11 20  1  0
 12 14  1  0
 12 22  1  0
 13 21  1  0
 17 23  1  0
 18 20  2  0
 18 23  1  0
 19 24  2  0
 21 24  1  0
M  END
>  <ID>  (1) 
conformer_0

$$$$
