
     RDKit          3D

  9  9  0  0  0  0  0  0  0  0999 V2000
   24.8674  -22.6357   -9.1463 C   0  0  0  0  0  0  0  0  0  0  0  0
   23.4617  -23.2136   -8.7017 C   0  0  0  0  0  0  0  0  0  0  0  0
   25.3574  -23.6841  -10.0070 O   0  0  0  0  0  0  0  0  0  0  0  0
   24.9392  -23.0901   -6.6457 C   0  0  0  0  0  0  0  0  0  0  0  0
   26.1141  -21.1807   -7.5553 O   0  0  0  0  0  0  0  0  0  0  0  0
   22.4858  -22.7501   -9.5782 O   0  0  0  0  0  0  0  0  0  0  0  0
   25.8126  -22.5916   -7.8928 C   0  0  0  0  0  0  0  0  0  0  0  0
   25.9018  -23.0571   -5.5986 O   0  0  0  0  0  0  0  0  0  0  0  0
   23.6516  -23.6695   -7.2602 S   0  0  0  0  0  0  0  0  0  0  0  0
  1  2  1  0
  1  3  1  0
  1  7  1  0
  2  6  2  0
  2  9  1  0
  4  7  1  0
  4  8  2  0
  4  9  1  0
  5  7  1  0
M  END
>  <ID>  (1) 
conformer_0

$$$$
