
     RDKit          3D

 14 14  0  0  0  0  0  0  0  0999 V2000
   22.7397  -20.4085  -10.8549 S   0  0  0  0  0  0  0  0  0  0  0  0
   26.1424  -23.0143   -5.4316 O   0  0  0  0  0  0  0  0  0  0  0  0
   24.2466  -24.0605   -6.2110 O   0  0  0  0  0  0  0  0  0  0  0  0
   23.5487  -24.5616  -11.1219 N   0  0  0  0  0  0  0  0  0  0  0  0
   24.3273  -21.6166   -6.2896 C   0  0  0  0  0  0  0  0  0  0  0  0
   25.6816  -22.9199   -7.7828 C   0  0  0  0  0  0  0  0  0  0  0  0
   24.2802  -22.1238  -12.4022 O   0  0  0  0  0  1  0  0  0  0  0  0
   25.0696  -22.9183   -6.2978 C   0  0  0  0  0  0  0  0  0  0  0  0
   26.5294  -21.7827   -7.9326 O   0  0  0  0  0  0  0  0  0  0  0  0
   22.5469  -23.4991  -10.8093 C   0  0  0  0  0  0  0  0  0  0  0  0
   24.3416  -22.5227   -8.5165 C   0  0  0  0  0  0  0  0  0  0  0  0
   24.6711  -22.2301   -9.9119 O   0  0  0  0  0  0  0  0  0  0  0  0
   23.6715  -22.0451  -11.0675 P   0  0  0  0  0  4  0  0  0  0  0  0
   23.9149  -21.3216   -7.7348 C   0  0  0  0  0  0  0  0  0  0  0  0
  1 13  1  0
  2  8  1  0
  3  8  1  0
  4 10  1  0
  5  8  1  0
  5 14  1  0
  6  8  1  0
  6  9  1  0
  6 11  1  0
  7 13  2  0
 10 13  1  0
 11 12  1  0
 11 14  1  0
 12 13  1  0
M  END
>  <ID>  (1) 
conformer_0

$$$$
