
     RDKit          3D

 12 13  0  0  0  0  0  0  0  0999 V2000
   26.6820  -22.5660   -6.7107 C   0  0  0  0  0  0  0  0  0  0  0  0
   24.3079  -22.5158   -7.1418 C   0  0  0  0  0  0  0  0  0  0  0  0
   23.6217  -23.4250   -8.1420 C   0  0  0  0  0  0  0  0  0  0  0  0
   22.2541  -23.6894   -8.0304 O   0  0  0  0  0  0  0  0  0  0  0  0
   24.8514  -22.0752   -9.9043 C   0  0  0  0  0  0  0  0  0  0  0  0
   23.3191  -24.0729  -10.4195 O   0  0  0  0  0  0  0  0  0  0  0  0
   24.0403  -23.2608   -9.5735 C   0  0  0  0  0  0  0  0  0  0  0  0
   25.1090  -21.9145  -11.1837 O   0  0  0  0  0  0  0  0  0  0  0  0
   25.2851  -21.2599   -8.8842 O   0  0  0  0  0  0  0  0  0  0  0  0
   24.6345  -23.3257   -5.9078 C   0  0  0  0  0  0  0  0  0  0  0  0
   25.6415  -21.9885   -7.6670 C   0  0  0  0  0  0  0  0  0  0  0  0
   25.9681  -22.9896   -5.5238 O   0  0  0  0  0  0  0  0  0  0  0  0
  1 11  1  0
  1 12  1  0
  2  3  1  0
  2 10  1  0
  2 11  1  0
  3  4  1  0
  3  7  1  0
  5  7  1  0
  5  8  2  0
  5  9  1  0
  6  7  1  0
  9 11  1  0
 10 12  1  0
M  END
>  <ID>  (1) 
conformer_0

$$$$
