
     RDKit          3D

 21 22  0  0  0  0  0  0  0  0999 V2000
   22.3279  -18.3152  -13.0190 O   0  0  0  0  0  0  0  0  0  0  0  0
   24.1757  -23.0545   -7.2605 C   0  0  0  0  0  0  0  0  0  0  0  0
   23.8114  -19.9946   -9.0425 O   0  0  0  0  0  1  0  0  0  0  0  0
   23.9888  -19.1319  -11.6110 C   0  0  0  0  0  0  0  0  0  0  0  0
   25.7895  -20.8174   -6.7873 O   0  0  0  0  0  0  0  0  0  0  0  0
   24.6202  -20.8804   -9.8484 P   0  0  0  0  0  4  0  0  0  0  0  0
   25.5624  -22.8909   -7.8664 O   0  0  0  0  0  0  0  0  0  0  0  0
   25.8360  -21.5680   -7.9405 C   0  0  0  0  0  0  0  0  0  0  0  0
   24.6535  -22.8004   -5.7316 C   0  0  0  0  0  0  0  0  0  0  0  0
   24.1205  -22.3834   -9.8282 C   0  0  0  0  0  0  0  0  0  0  0  0
   26.7713  -21.3789   -5.8079 C   0  0  0  0  0  0  0  0  0  0  0  0
   24.7119  -20.4336  -11.3652 C   0  0  0  0  0  0  0  0  0  0  0  0
   25.1657  -21.4692  -12.0570 O   0  0  0  0  0  0  0  0  0  0  0  0
   23.5571  -24.3231   -7.0656 O   0  0  0  0  0  0  0  0  0  0  0  0
   26.2230  -22.7925   -5.5407 C   0  0  0  0  0  0  0  0  0  0  0  0
   23.3394  -19.0837  -12.9267 C   0  0  0  0  0  0  0  0  0  0  0  0
   25.9603  -20.9038   -9.1846 O   0  0  0  0  0  0  0  0  0  0  0  0
   23.3832  -22.5725   -8.5470 C   0  0  0  0  0  0  0  0  0  0  0  0
   22.0582  -22.8560   -8.5736 O   0  0  0  0  0  0  0  0  0  0  0  0
   26.4241  -22.9666   -4.1174 O   0  0  0  0  0  0  0  0  0  0  0  0
   23.9670  -19.6769  -13.8912 O   0  0  0  0  0  0  0  0  0  0  0  0
  1 16  2  0
  2  7  1  0
  2  9  1  0
  2 14  1  0
  2 18  1  0
  3  6  2  0
  4 12  1  0
  4 16  1  0
  5  8  1  0
  5 11  1  0
  6 10  1  0
  6 12  1  0
  6 17  1  0
  7  8  1  0
  8 17  1  0
  9 15  1  0
 10 18  1  0
 11 15  1  0
 12 13  1  0
 15 20  1  0
 16 21  1  0
 18 19  1  0
M  END
>  <ID>  (1) 
conformer_0

$$$$
