
     RDKit          3D

 11 11  0  0  0  0  0  0  0  0999 V2000
   23.2268  -24.4166  -10.6416 O   0  0  0  0  0  0  0  0  0  0  0  0
   27.2471  -21.0288   -6.8649 C   0  0  0  0  0  0  0  0  0  0  0  0
   26.4514  -23.3644   -6.7990 C   0  0  0  0  0  0  0  0  0  0  0  0
   24.5594  -21.3950   -9.4278 C   0  0  0  0  0  0  0  0  0  0  0  0
   25.3154  -23.2287   -7.8235 C   0  0  0  0  0  0  0  0  0  0  0  0
   23.4606  -22.4225   -9.5576 N   0  0  0  0  0  0  0  0  0  0  0  0
   26.6871  -21.1027   -8.1942 C   0  0  0  0  0  0  0  0  0  0  0  0
   25.5398  -21.9450   -8.5021 C   0  0  0  0  0  0  0  0  0  0  0  0
   23.5894  -23.2356  -10.7854 C   0  0  0  0  0  0  0  0  0  0  0  0
   26.6156  -22.0696   -6.0215 C   0  0  0  0  0  0  0  0  0  0  0  0
   23.9838  -22.7444  -11.8454 O   0  0  0  0  0  0  0  0  0  0  0  0
  1  9  2  0
  2  7  1  0
  2 10  1  0
  3  5  1  0
  3 10  1  0
  4  6  1  0
  4  8  1  0
  5  8  1  0
  6  9  1  0
  7  8  1  0
  9 11  1  0
M  END
>  <ID>  (1) 
conformer_0

$$$$
