
     RDKit          3D

 23 24  0  0  0  0  0  0  0  0999 V2000
   24.8480  -22.6153   -6.2029 C   0  0  0  0  0  0  0  0  0  0  0  0
   24.2545  -20.2207   -7.2091 O   0  0  0  0  0  0  0  0  0  0  0  0
   25.1539  -21.2767   -6.8365 N   0  0  0  0  0  0  0  0  0  0  0  0
   23.9372  -18.9929  -13.5530 N   0  0  0  0  0  0  0  0  0  0  0  0
   25.9758  -21.4622   -8.0484 C   0  0  0  0  0  0  0  0  0  0  0  0
   25.7259  -23.9408   -8.0352 C   0  0  0  0  0  0  0  0  0  0  0  0
   24.9108  -23.3486   -9.1302 C   0  0  0  0  0  0  0  0  0  0  0  0
   26.0885  -23.4678   -6.6111 C   0  0  0  0  0  0  0  0  0  0  0  0
   23.1809  -20.7755  -12.1225 C   0  0  0  0  0  0  0  0  0  0  0  0
   22.6201  -21.0666   -5.7930 O   0  0  0  0  0  0  0  0  0  0  0  0
   23.4985  -20.2929  -13.4277 C   0  0  0  0  0  0  0  0  0  0  0  0
   22.7713  -20.7259   -9.4013 N   0  0  0  0  0  0  0  0  0  0  0  0
   24.2353  -22.8703  -11.6402 O   0  0  0  0  0  0  0  0  0  0  0  0
   23.9221  -21.2621   -9.8915 C   0  0  0  0  0  0  0  0  0  0  0  0
   23.0149  -20.1707   -6.5435 C   0  0  0  0  0  0  0  0  0  0  0  0
   21.9008  -19.7117   -9.1827 C   0  0  0  0  0  0  0  0  0  0  0  0
   21.6678  -18.8667   -8.1239 C   0  0  0  0  0  0  0  0  0  0  0  0
   21.7762  -20.5455  -11.7236 C   0  0  0  0  0  0  0  0  0  0  0  0
   22.5031  -20.6850  -14.4258 C   0  0  0  0  0  0  0  0  0  0  0  0
   22.1835  -19.0734   -6.8854 C   0  0  0  0  0  0  0  0  0  0  0  0
   23.8973  -21.7143  -11.2655 C   0  0  0  0  0  0  0  0  0  0  0  0
   21.4376  -19.2107  -11.5874 O   0  0  0  0  0  0  0  0  0  0  0  0
   25.0472  -21.8503   -9.1569 C   0  0  0  0  0  0  0  0  0  0  0  0
  1  3  1  0
  1  8  1  0
  2  3  1  0
  2 15  1  0
  3  5  1  0
  4 11  1  0
  5 23  1  0
  6  7  1  0
  6  8  1  0
  7 23  1  0
  9 11  1  0
  9 18  1  0
  9 21  1  0
 10 15  2  0
 11 19  1  0
 12 14  1  0
 12 16  1  0
 13 21  2  0
 14 21  1  0
 14 23  1  0
 15 20  1  0
 16 17  2  0
 17 20  1  0
 18 22  1  0
M  END
>  <ID>  (1) 
conformer_0

$$$$
