
     RDKit          3D

 13 13  0  0  0  0  0  0  0  0999 V2000
   25.5788  -22.2247   -5.7313 C   0  0  0  0  0  0  0  0  0  0  0  0
   25.0792  -21.4732  -11.4584 O   0  0  0  0  0  0  0  0  0  0  0  0
   23.8981  -23.6263  -10.4711 O   0  0  0  0  0  0  0  0  0  0  0  0
   25.3778  -23.5729   -8.3537 O   0  0  0  0  0  0  0  0  0  0  0  0
   26.6430  -22.8423   -6.4551 C   0  0  0  0  0  0  0  0  0  0  0  0
   24.6102  -21.2682   -5.4288 O   0  0  0  0  0  0  0  0  0  0  0  0
   24.7895  -19.5511  -10.2399 O   0  0  0  0  0  0  0  0  0  0  0  0
   25.4210  -21.2972   -7.9791 C   0  0  0  0  0  0  0  0  0  0  0  0
   24.7873  -20.8604  -10.4055 C   0  0  0  0  0  0  0  0  0  0  0  0
   24.4081  -23.1219   -9.2789 C   0  0  0  0  0  0  0  0  0  0  0  0
   26.7419  -21.2521   -8.4634 O   0  0  0  0  0  0  0  0  0  0  0  0
   24.4046  -21.5907   -9.1586 C   0  0  0  0  0  0  0  0  0  0  0  0
   25.3647  -22.6538   -7.1889 C   0  0  0  0  0  0  0  0  0  0  0  0
  1  5  1  0
  1  6  1  0
  2  9  2  0
  3 10  2  0
  4 10  1  0
  4 13  1  0
  5 13  1  0
  7  9  1  0
  8 11  1  0
  8 12  1  0
  8 13  1  0
  9 12  1  0
 10 12  1  0
M  END
>  <ID>  (1) 
conformer_0

$$$$
