
     RDKit          3D

 10 10  0  0  0  0  0  0  0  0999 V2000
   25.7997  -21.3954   -8.9636 C   0  0  0  0  0  0  0  0  0  0  0  0
   25.8436  -23.1908   -6.9008 C   0  0  0  0  0  0  0  0  0  0  0  0
   26.4413  -21.0700   -7.7744 C   0  0  0  0  0  0  0  0  0  0  0  0
   24.5410  -22.2746  -11.3939 O   0  0  0  0  0  0  0  0  0  0  0  0
   25.1899  -23.5070   -8.0682 C   0  0  0  0  0  0  0  0  0  0  0  0
   25.1387  -22.6219   -9.1382 C   0  0  0  0  0  0  0  0  0  0  0  0
   26.4689  -21.9745   -6.7258 C   0  0  0  0  0  0  0  0  0  0  0  0
   25.8782  -24.1090   -5.9057 N   0  0  0  0  0  0  0  0  0  0  0  0
   23.7604  -24.0723  -10.4287 N   0  0  0  0  0  0  0  0  0  0  0  0
   24.4530  -22.9727  -10.3980 C   0  0  0  0  0  0  0  0  0  0  0  0
  1  3  2  0
  1  6  1  0
  2  5  1  0
  2  7  2  0
  2  8  1  0
  3  7  1  0
  4 10  2  0
  5  6  2  0
  6 10  1  0
  9 10  1  0
M  END
>  <ID>  (1) 
conformer_0

$$$$
