
     RDKit          3D

 17 17  0  0  0  0  0  0  0  0999 V2000
   23.5609  -22.5694   -6.2849 O   0  0  0  0  0  0  0  0  0  0  0  0
   23.5159  -23.2634  -11.1340 P   0  0  0  0  0  0  0  0  0  0  0  0
   27.0911  -21.5173   -6.0248 C   0  0  0  0  0  0  0  0  0  0  0  0
   24.1087  -22.4626  -12.0883 O   0  0  0  0  0  1  0  0  0  0  0  0
   24.9206  -22.5456   -5.9782 C   0  0  0  0  0  0  0  0  0  0  0  0
   27.8531  -22.0461   -3.9069 O   0  0  0  0  0  0  0  0  0  0  0  0
   23.0481  -24.5580  -11.2691 O   0  0  0  0  0  1  0  0  0  0  0  0
   24.1307  -20.3656   -8.1455 O   0  0  0  0  0  0  0  0  0  0  0  0
   24.5428  -22.7181   -8.9209 C   0  0  0  0  0  0  0  0  0  0  0  0
   25.5343  -23.5099   -9.3520 O   0  0  0  0  0  0  0  0  0  0  0  0
   25.5382  -22.7457   -4.6520 C   0  0  0  0  0  0  0  0  0  0  0  0
   23.3344  -22.6057   -9.7494 O   0  0  0  0  0  0  0  0  0  0  0  0
   24.9614  -21.4614   -8.2166 C   0  0  0  0  0  0  0  0  0  0  0  0
   26.2572  -21.2164   -8.2089 O   0  0  0  0  0  0  0  0  0  0  0  0
   27.2518  -20.0694   -6.0060 O   0  0  0  0  0  0  0  0  0  0  0  0
   25.7653  -21.6568   -6.9360 C   0  0  0  0  0  0  0  0  0  0  0  0
   26.7588  -21.9297   -4.6161 C   0  0  0  0  0  0  0  0  0  0  0  0
  1  5  1  0
  2  4  1  0
  2  7  1  0
  2 12  1  0
  3 15  1  0
  3 16  1  0
  3 17  1  0
  5 11  1  0
  5 16  1  0
  6 17  1  0
  8 13  1  0
  9 10  2  0
  9 12  1  0
  9 13  1  0
 11 17  1  0
 13 14  1  0
 13 16  1  0
M  END
>  <ID>  (1) 
conformer_0

$$$$
