
     RDKit          3D

 13 14  0  0  0  0  0  0  0  0999 V2000
   26.4882  -21.3372   -7.8233 C   0  0  0  0  0  0  0  0  0  0  0  0
   25.9919  -20.9777   -9.0586 C   0  0  0  0  0  0  0  0  0  0  0  0
   23.9593  -23.9124   -9.8822 N   0  0  0  0  0  0  0  0  0  0  0  0
   25.2411  -23.3633   -7.9304 C   0  0  0  0  0  0  0  0  0  0  0  0
   25.0829  -21.8432   -9.7769 C   0  0  0  0  0  0  0  0  0  0  0  0
   23.7761  -22.3988  -11.6994 C   0  0  0  0  0  0  0  0  0  0  0  0
   24.7576  -23.0301   -9.1969 C   0  0  0  0  0  0  0  0  0  0  0  0
   26.1120  -22.5380   -7.2841 C   0  0  0  0  0  0  0  0  0  0  0  0
   22.7103  -24.5708  -11.7362 N   0  0  0  0  0  0  0  0  0  0  0  0
   23.2263  -22.1254  -12.9420 O   0  0  0  0  0  0  0  0  0  0  0  0
   24.5518  -21.5187  -11.0073 C   0  0  0  0  0  0  0  0  0  0  0  0
   23.4889  -23.6687  -11.0969 C   0  0  0  0  0  0  0  0  0  0  0  0
   26.6020  -22.8963   -6.0855 F   0  0  0  0  0  0  0  0  0  0  0  0
  1  2  2  0
  1  8  1  0
  2  5  1  0
  3  7  1  0
  3 12  1  0
  4  7  1  0
  4  8  2  0
  5  7  2  0
  5 11  1  0
  6 10  1  0
  6 11  2  0
  6 12  1  0
  8 13  1  0
  9 12  2  0
M  END
>  <ID>  (1) 
conformer_0

$$$$
