
     RDKit          3D

 14 14  0  0  0  0  0  0  0  0999 V2000
   23.2421  -25.1527   -4.8906 C   0  0  0  0  0  0  0  0  0  0  0  0
   24.0525  -27.1168   -5.8939 O   0  0  0  0  0  0  0  0  0  0  0  0
   26.3033  -22.0345   -7.0274 C   0  0  0  0  0  0  0  0  0  0  0  0
   25.1471  -22.5641   -9.1470 C   0  0  0  0  0  0  0  0  0  0  0  0
   25.1321  -23.7008   -9.6861 O   0  0  0  0  0  0  0  0  0  0  0  0
   22.7970  -27.3357   -4.0237 O   0  0  0  0  0  0  0  0  0  0  0  0
   25.0918  -23.5716   -5.7479 C   0  0  0  0  0  0  0  0  0  0  0  0
   25.3475  -21.4221   -9.6104 O   0  0  0  0  0  0  0  0  0  0  0  0
   26.6418  -20.6094   -6.9788 C   0  0  0  0  0  0  0  0  0  0  0  0
   23.8115  -24.5065   -6.2352 C   0  0  0  0  0  0  0  0  0  0  0  0
   23.6008  -23.4548   -7.5043 O   0  0  0  0  0  0  0  0  0  0  0  0
   23.4182  -26.6109   -4.8711 C   0  0  0  0  0  0  0  0  0  0  0  0
   26.3314  -22.6724   -5.7553 O   0  0  0  0  0  0  0  0  0  0  0  0
   24.9403  -22.6526   -7.5816 C   0  0  0  0  0  0  0  0  0  0  0  0
  1 10  1  0
  1 12  1  0
  2 12  2  0
  3  9  1  0
  3 13  1  0
  3 14  1  0
  4  5  2  0
  4  8  1  0
  4 14  1  0
  6 12  1  0
  7 10  1  0
  7 13  1  0
 10 11  1  0
 11 14  1  0
M  END
>  <ID>  (1) 
conformer_0

$$$$
