
     RDKit          3D

 13 13  0  0  0  0  0  0  0  0999 V2000
   25.7350  -24.0295   -4.2764 O   0  0  0  0  0  0  0  0  0  0  0  0
   23.8202  -23.9927  -10.6603 N   0  0  0  0  0  0  0  0  0  0  0  0
   25.9657  -22.8558   -4.7804 C   0  0  0  0  0  0  0  0  0  0  0  0
   25.8182  -22.6235   -6.2185 C   0  0  0  0  0  0  0  0  0  0  0  0
   25.2993  -22.1287   -8.9731 C   0  0  0  0  0  0  0  0  0  0  0  0
   23.8641  -22.4221  -12.3359 O   0  0  0  0  0  0  0  0  0  0  0  0
   26.1341  -21.8794   -3.9785 O   0  0  0  0  0  0  0  0  0  0  0  0
   25.2236  -23.3807   -8.4439 C   0  0  0  0  0  0  0  0  0  0  0  0
   24.1809  -22.7611  -11.1248 C   0  0  0  0  0  0  0  0  0  0  0  0
   25.4635  -23.6513   -7.1188 C   0  0  0  0  0  0  0  0  0  0  0  0
   24.9059  -21.8363  -10.2936 N   0  0  0  0  0  0  0  0  0  0  0  0
   25.7790  -21.1026   -8.1284 C   0  0  0  0  0  0  0  0  0  0  0  0
   26.0240  -21.3533   -6.7833 C   0  0  0  0  0  0  0  0  0  0  0  0
  1  3  2  0
  2  9  1  0
  3  4  1  0
  3  7  1  0
  4 10  2  0
  4 13  1  0
  5  8  2  0
  5 11  1  0
  5 12  1  0
  6  9  2  0
  8 10  1  0
  9 11  1  0
 12 13  2  0
M  END
>  <ID>  (1) 
conformer_0

$$$$
