
     RDKit          3D

 14 14  0  0  0  0  0  0  0  0999 V2000
   25.9169  -21.0582   -4.7474 C   0  0  0  0  0  0  0  0  0  0  0  0
   25.0631  -20.0906   -4.3139 O   0  0  0  0  0  0  0  0  0  0  0  0
   24.5875  -21.4763   -9.9357 O   0  0  0  0  0  0  0  0  0  0  0  0
   24.7385  -21.7159   -8.4993 C   0  0  0  0  0  0  0  0  0  0  0  0
   25.1393  -23.8960   -9.7042 O   0  0  0  0  0  0  0  0  0  0  0  0
   25.2945  -21.8117   -5.9528 C   0  0  0  0  0  0  0  0  0  0  0  0
   26.2027  -23.4275   -7.5209 C   0  0  0  0  0  0  0  0  0  0  0  0
   23.0880  -24.3864  -11.3854 O   0  0  0  0  0  0  0  0  0  0  0  0
   25.0963  -20.9880   -7.2040 C   0  0  0  0  0  0  0  0  0  0  0  0
   23.5228  -23.1785  -11.6386 C   0  0  0  0  0  0  0  0  0  0  0  0
   26.3901  -22.6599   -6.3033 O   0  0  0  0  0  0  0  0  0  0  0  0
   24.9597  -23.2192   -8.4241 C   0  0  0  0  0  0  0  0  0  0  0  0
   23.8011  -22.7865  -12.7825 O   0  0  0  0  0  0  0  0  0  0  0  0
   23.4081  -22.1341  -10.4877 C   0  0  0  0  0  0  0  0  0  0  0  0
  1  2  1  0
  1  6  1  0
  3  4  1  0
  3 14  1  0
  4  9  2  0
  4 12  1  0
  5 12  1  0
  6  9  1  0
  6 11  1  0
  7 11  1  0
  7 12  1  0
  8 10  2  0
 10 13  1  0
 10 14  1  0
M  END
>  <ID>  (1) 
conformer_0

$$$$
