
     RDKit          3D

 11 11  0  0  0  0  0  0  0  0999 V2000
   27.1468  -20.4392   -7.9815 C   0  0  0  0  0  0  0  0  0  0  0  0
   24.6134  -22.1689  -10.2059 C   0  0  0  0  0  0  0  0  0  0  0  0
   27.4188  -21.4152   -7.0583 C   0  0  0  0  0  0  0  0  0  0  0  0
   25.5592  -21.8980   -9.1059 C   0  0  0  0  0  0  0  0  0  0  0  0
   26.7764  -22.6458   -7.1105 C   0  0  0  0  0  0  0  0  0  0  0  0
   23.7426  -23.3767   -9.9187 C   0  0  0  0  0  0  0  0  0  0  0  0
   26.2238  -20.6868   -8.9900 C   0  0  0  0  0  0  0  0  0  0  0  0
   24.6304  -21.7202  -11.3446 O   0  0  0  0  0  0  0  0  0  0  0  0
   25.8454  -22.8918   -8.1253 C   0  0  0  0  0  0  0  0  0  0  0  0
   25.3346  -24.1598   -8.0758 N   0  0  0  0  0  0  0  0  0  0  0  0
   23.7015  -24.1876  -11.1454 N   0  0  0  0  0  0  0  0  0  0  0  0
  1  3  2  0
  1  7  1  0
  2  4  1  0
  2  6  1  0
  2  8  2  0
  3  5  1  0
  4  7  2  0
  4  9  1  0
  5  9  2  0
  6 11  1  0
  9 10  1  0
M  END
>  <ID>  (1) 
conformer_0

$$$$
