
     RDKit          3D

 12 12  0  0  0  0  0  0  0  0999 V2000
   26.0339  -21.6955   -8.4067 C   0  0  0  0  0  0  0  0  0  0  0  0
   23.8748  -21.3500   -9.5816 C   0  0  0  0  0  0  0  0  0  0  0  0
   25.5006  -20.8715  -11.5693 O   0  0  0  0  0  0  0  0  0  0  0  0
   24.5881  -21.5856  -10.9170 C   0  0  0  0  0  0  0  0  0  0  0  0
   26.1947  -22.9624   -6.4051 C   0  0  0  0  0  0  0  0  0  0  0  0
   23.9692  -22.7681  -11.5984 C   0  0  0  0  0  0  0  0  0  0  0  0
   23.9041  -23.8415  -10.8917 O   0  0  0  0  0  0  0  0  0  0  0  0
   24.6855  -21.9566   -8.4893 C   0  0  0  0  0  0  0  0  0  0  0  0
   26.7833  -22.1993   -7.3495 C   0  0  0  0  0  0  0  0  0  0  0  0
   24.0949  -22.7461   -7.5134 C   0  0  0  0  0  0  0  0  0  0  0  0
   24.8374  -23.2439   -6.4638 C   0  0  0  0  0  0  0  0  0  0  0  0
   23.6983  -22.6044  -12.7963 O   0  0  0  0  0  0  0  0  0  0  0  0
  1  8  2  0
  1  9  1  0
  2  4  1  0
  2  8  1  0
  3  4  1  0
  4  6  1  0
  5  9  2  0
  5 11  1  0
  6  7  2  0
  6 12  1  0
  8 10  1  0
 10 11  2  0
M  END
>  <ID>  (1) 
conformer_0

$$$$
