
     RDKit          3D

 21 23  0  0  0  0  0  0  0  0999 V2000
   23.0357  -24.7670  -11.3396 O   0  0  0  0  0  0  0  0  0  0  0  0
   22.5496  -23.6206  -11.3048 C   0  0  0  0  0  0  0  0  0  0  0  0
   21.5070  -23.0961  -12.0636 C   0  0  0  0  0  0  0  0  0  0  0  0
   26.2997  -21.3972   -5.4906 C   0  0  0  0  0  0  0  0  0  0  0  0
   24.9402  -19.4975   -5.8796 C   0  0  0  0  0  0  0  0  0  0  0  0
   25.6709  -21.6905   -9.5776 O   0  0  0  0  0  0  0  0  0  0  0  0
   23.8305  -24.0225   -6.9816 C   0  0  0  0  0  0  0  0  0  0  0  0
   23.4047  -22.6071  -10.7424 C   0  0  0  0  0  0  0  0  0  0  0  0
   23.1892  -21.5490   -6.8419 O   0  0  0  0  0  0  0  0  0  0  0  0
   25.5671  -22.2027   -6.5407 C   0  0  0  0  0  0  0  0  0  0  0  0
   23.2968  -23.8152   -8.5024 C   0  0  0  0  0  0  0  0  0  0  0  0
   24.8966  -19.9044   -7.3833 C   0  0  0  0  0  0  0  0  0  0  0  0
   24.8162  -23.3924   -5.9000 C   0  0  0  0  0  0  0  0  0  0  0  0
   23.8516  -21.6437  -11.7030 C   0  0  0  0  0  0  0  0  0  0  0  0
   26.4981  -19.8899   -7.4283 C   0  0  0  0  0  0  0  0  0  0  0  0
   26.6186  -22.9745   -7.3282 C   0  0  0  0  0  0  0  0  0  0  0  0
   27.7604  -21.8181   -5.6108 C   0  0  0  0  0  0  0  0  0  0  0  0
   26.4447  -19.9097   -5.8423 C   0  0  0  0  0  0  0  0  0  0  0  0
   24.6382  -21.8215   -8.8461 C   0  0  0  0  0  0  0  0  0  0  0  0
   23.4594  -22.5680   -9.3378 C   0  0  0  0  0  0  0  0  0  0  0  0
   24.5255  -21.4285   -7.3741 C   0  0  0  0  0  0  0  0  0  0  0  0
  1  2  2  0
  2  3  1  0
  2  8  1  0
  4 10  1  0
  4 17  1  0
  4 18  1  0
  5 12  1  0
  5 18  1  0
  6 19  2  0
  7 11  1  0
  7 13  1  0
  8 14  1  0
  8 20  1  0
  9 21  1  0
 10 13  1  0
 10 16  1  0
 10 21  1  0
 11 20  1  0
 12 15  1  0
 12 21  1  0
 15 18  1  0
 19 20  1  0
 19 21  1  0
M  END
>  <ID>  (1) 
conformer_0

$$$$
