
     RDKit          3D

 20 21  0  0  0  0  0  0  0  0999 V2000
   23.7625  -22.3628  -13.4650 O   0  0  0  0  0  0  0  0  0  0  0  0
   25.5355  -22.9067   -5.7758 C   0  0  0  0  0  0  0  0  0  0  0  0
   22.7765  -24.3539  -13.1329 O   0  0  0  0  0  0  0  0  0  0  0  0
   23.4245  -20.3002   -7.4576 O   0  0  0  0  0  0  0  0  0  0  0  0
   25.4966  -23.0699   -7.3274 C   0  0  0  0  0  0  0  0  0  0  0  0
   23.6669  -21.6744  -10.7471 C   0  0  0  0  0  0  0  0  0  0  0  0
   26.8482  -22.6547   -7.6451 O   0  0  0  0  0  0  0  0  0  0  0  0
   23.1668  -23.2084  -12.7505 C   0  0  0  0  0  0  0  0  0  0  0  0
   24.5370  -23.9712   -5.2604 C   0  0  0  0  0  0  0  0  0  0  0  0
   23.1577  -22.9479  -11.3117 C   0  0  0  0  0  0  0  0  0  0  0  0
   24.6354  -21.9516   -9.5969 C   0  0  0  0  0  0  0  0  0  0  0  0
   23.3807  -23.6672   -6.1228 O   0  0  0  0  0  0  0  0  0  0  0  0
   23.3222  -22.2341   -6.1050 C   0  0  0  0  0  0  0  0  0  0  0  0
   24.6458  -21.7277   -5.5902 O   0  0  0  0  0  0  0  0  0  0  0  0
   23.0218  -20.4974  -10.5971 O   0  0  0  0  0  0  0  0  0  0  0  0
   22.1865  -22.2447   -8.3196 O   0  0  0  0  0  0  0  0  0  0  0  0
   25.8955  -22.0422  -10.0998 O   0  0  0  0  0  0  0  0  0  0  0  0
   24.5098  -22.3656   -8.1909 C   0  0  0  0  0  0  0  0  0  0  0  0
   23.6240  -24.0223  -10.6133 O   0  0  0  0  0  0  0  0  0  0  0  0
   23.2624  -21.7263   -7.6083 C   0  0  0  0  0  0  0  0  0  0  0  0
  1  8  2  0
  2  5  1  0
  2  9  1  0
  2 14  1  0
  3  8  1  0
  4 20  1  0
  5  7  1  0
  5 18  1  0
  6 10  1  0
  6 11  1  0
  6 15  1  0
  8 10  1  0
  9 12  1  0
 10 19  1  0
 11 17  1  0
 11 18  1  0
 12 13  1  0
 13 14  1  0
 13 20  1  0
 16 20  1  0
 18 20  1  0
M  END
>  <ID>  (1) 
conformer_0

$$$$
