
     RDKit          3D

 17 18  0  0  0  0  0  0  0  0999 V2000
   24.7459  -23.7679   -6.7062 C   0  0  0  0  0  0  0  0  0  0  0  0
   26.1179  -20.8439   -9.2613 O   0  0  0  0  0  0  0  0  0  0  0  0
   24.0390  -24.6445   -5.8759 N   0  0  0  0  0  0  0  0  0  0  0  0
   24.0349  -22.8432  -10.1709 C   0  0  0  0  0  0  0  0  0  0  0  0
   21.0300  -23.5007  -11.5518 C   0  0  0  0  0  0  0  0  0  0  0  0
   26.4920  -22.2863   -7.3868 C   0  0  0  0  0  0  0  0  0  0  0  0
   23.0211  -23.7936  -10.2404 O   0  0  0  0  0  0  0  0  0  0  0  0
   24.6161  -22.6832   -8.8470 C   0  0  0  0  0  0  0  0  0  0  0  0
   23.7484  -25.4472   -4.5525 C   0  0  0  0  0  0  0  0  0  0  0  0
   25.7400  -21.9652   -8.5392 C   0  0  0  0  0  0  0  0  0  0  0  0
   25.9719  -23.2220   -6.5032 C   0  0  0  0  0  0  0  0  0  0  0  0
   22.6706  -24.7129   -6.5190 C   0  0  0  0  0  0  0  0  0  0  0  0
   23.4152  -26.9343   -5.1314 C   0  0  0  0  0  0  0  0  0  0  0  0
   24.0643  -23.4286   -7.8277 C   0  0  0  0  0  0  0  0  0  0  0  0
   24.5147  -22.4407  -11.2516 O   0  0  0  0  0  0  0  0  0  0  0  0
   22.4841  -24.0073  -11.6037 C   0  0  0  0  0  0  0  0  0  0  0  0
   22.7424  -23.9525   -7.7135 O   0  0  0  0  0  0  0  0  0  0  0  0
  1  3  1  0
  1 11  1  0
  1 14  2  0
  2 10  1  0
  3  9  1  0
  3 12  1  0
  4  7  1  0
  4  8  1  0
  4 15  2  0
  5 16  1  0
  6 10  1  0
  6 11  2  0
  7 16  1  0
  8 10  1  0
  8 14  1  0
  9 13  1  0
 12 17  1  0
 14 17  1  0
M  END
>  <ID>  (1) 
conformer_0

$$$$
