
     RDKit          3D

 12 12  0  0  0  0  0  0  0  0999 V2000
   23.4178  -24.2251  -10.8244 O   0  0  0  0  0  0  0  0  0  0  0  0
   23.8468  -23.1000  -11.2015 C   0  0  0  0  0  0  0  0  0  0  0  0
   25.0874  -21.0467  -10.4556 C   0  0  0  0  0  0  0  0  0  0  0  0
   26.4915  -22.0539   -7.5214 C   0  0  0  0  0  0  0  0  0  0  0  0
   25.5032  -24.1259   -7.1241 N   0  0  0  0  0  0  0  0  0  0  0  0
   25.6530  -23.1653   -7.9752 C   0  0  0  0  0  0  0  0  0  0  0  0
   27.1268  -22.3095   -6.4123 O   0  0  0  0  0  0  0  0  0  0  0  0
   26.4476  -20.8947   -8.3119 C   0  0  0  0  0  0  0  0  0  0  0  0
   25.9265  -20.4794   -9.4908 O   0  0  0  0  0  0  0  0  0  0  0  0
   24.6398  -22.3228  -10.2513 C   0  0  0  0  0  0  0  0  0  0  0  0
   23.7267  -22.6692  -12.3246 O   0  0  0  0  0  0  0  0  0  0  0  0
   24.9824  -22.9902   -9.1322 C   0  0  0  0  0  0  0  0  0  0  0  0
  1  2  2  0
  2 10  1  0
  2 11  1  0
  3  9  1  0
  3 10  1  0
  4  6  1  0
  4  7  1  0
  4  8  2  0
  5  6  2  0
  6 12  1  0
  8  9  1  0
 10 12  2  0
M  END
>  <ID>  (1) 
conformer_0

$$$$
