
     RDKit          3D

 12 12  0  0  0  0  0  0  0  0999 V2000
   24.1737  -22.9911   -8.9679 C   0  0  0  0  0  0  0  0  0  0  0  0
   25.1585  -24.2683   -6.7600 O   0  0  0  0  0  0  0  0  0  0  0  0
   26.8143  -22.2635   -6.4679 C   0  0  0  0  0  0  0  0  0  0  0  0
   25.5615  -22.9498   -6.9091 C   0  0  0  0  0  0  0  0  0  0  0  0
   23.4401  -24.2862  -11.0381 O   0  0  0  0  0  0  0  0  0  0  0  0
   23.9503  -22.1012  -10.2673 C   0  0  0  0  0  0  0  0  0  0  0  0
   23.2189  -22.5530   -7.9494 O   0  0  0  0  0  0  0  0  0  0  0  0
   25.6466  -22.7216   -8.4710 C   0  0  0  0  0  0  0  0  0  0  0  0
   26.8217  -21.0444   -7.2840 O   0  0  0  0  0  0  0  0  0  0  0  0
   25.0522  -21.8965  -11.1529 O   0  0  0  0  0  0  0  0  0  0  0  0
   26.0174  -21.2520   -8.4307 C   0  0  0  0  0  0  0  0  0  0  0  0
   22.8507  -22.9472  -11.0030 C   0  0  0  0  0  0  0  0  0  0  0  0
  1  6  1  0
  1  7  1  0
  1  8  1  0
  2  4  1  0
  3  4  1  0
  3  9  1  0
  4  8  1  0
  5 12  1  0
  6 10  1  0
  6 12  1  0
  8 11  1  0
  9 11  1  0
M  END
>  <ID>  (1) 
conformer_0

$$$$
