
     RDKit          3D

 12 12  0  0  0  0  0  0  0  0999 V2000
   25.4057  -22.4426  -10.5017 O   0  0  0  0  0  1  0  0  0  0  0  0
   25.7983  -21.3464   -4.4835 C   0  0  0  0  0  0  0  0  0  0  0  0
   26.8325  -22.2687   -6.4826 C   0  0  0  0  0  0  0  0  0  0  0  0
   23.6393  -24.1649  -11.0698 O   0  0  0  0  0  0  0  0  0  0  0  0
   25.2094  -23.2034   -7.9808 C   0  0  0  0  0  0  0  0  0  0  0  0
   24.6216  -23.3315   -5.7387 O   0  0  0  0  0  0  0  0  0  0  0  0
   25.2592  -22.3325   -6.6381 C   0  0  0  0  0  0  0  0  0  0  0  0
   26.9869  -22.1831   -4.9549 C   0  0  0  0  0  0  0  0  0  0  0  0
   23.9992  -22.8976  -10.3053 P   0  0  0  0  0  4  0  0  0  0  0  0
   22.9216  -21.5313  -10.7139 C   0  0  0  0  0  0  0  0  0  0  0  0
   23.7077  -23.2824   -8.5612 C   0  0  0  0  0  0  0  0  0  0  0  0
   24.9975  -20.9870   -5.7364 C   0  0  0  0  0  0  0  0  0  0  0  0
  1  9  2  0
  2  8  1  0
  2 12  1  0
  3  7  1  0
  3  8  1  0
  4  9  1  0
  5  7  1  0
  5 11  1  0
  6  7  1  0
  7 12  1  0
  9 10  1  0
  9 11  1  0
M  END
>  <ID>  (1) 
conformer_0

$$$$
