
     RDKit          3D

  8  7  0  0  0  0  0  0  0  0999 V2000
   26.5974  -21.2878   -8.4399 O   0  0  0  0  0  0  0  0  0  0  0  0
   25.8647  -22.5948   -6.6582 C   0  0  0  0  0  0  0  0  0  0  0  0
   27.2629  -22.3852   -6.2278 O   0  0  0  0  0  0  0  0  0  0  0  0
   23.7986  -23.6550  -11.0381 O   0  0  0  0  0  0  0  0  0  0  0  0
   24.5461  -22.7979  -10.3804 C   0  0  0  0  0  0  0  0  0  0  0  0
   25.1698  -21.8607  -10.9395 O   0  0  0  0  0  0  0  0  0  0  0  0
   24.8590  -23.2806   -8.9496 C   0  0  0  0  0  0  0  0  0  0  0  0
   25.8600  -22.4055   -8.1818 C   0  0  0  0  0  0  0  0  0  0  0  0
  1  8  1  0
  2  3  1  0
  2  8  1  0
  4  5  2  0
  5  6  1  0
  5  7  1  0
  7  8  1  0
M  END
>  <ID>  (1) 
conformer_0

$$$$
