
     RDKit          3D

 19 18  0  0  0  0  0  0  0  0999 V2000
   25.6123  -21.9732   -2.6564 O   0  0  0  0  0  0  0  0  0  0  0  0
   24.8227  -19.8811   -3.1652 N   0  0  0  0  0  0  0  0  0  0  0  0
   21.8592  -20.5696   -9.2502 C   0  0  0  0  0  0  0  0  0  0  0  0
   25.5286  -21.7149  -10.7230 O   0  0  0  0  0  1  0  0  0  0  0  0
   27.3220  -21.1678   -5.4352 C   0  0  0  0  0  0  0  0  0  0  0  0
   24.7122  -22.8938  -10.0452 P   0  0  0  0  0  4  0  0  0  0  0  0
   24.9207  -21.4706   -4.9378 C   0  0  0  0  0  0  0  0  0  0  0  0
   25.9581  -21.7876   -7.5715 C   0  0  0  0  0  0  0  0  0  0  0  0
   25.6107  -20.5057   -7.2972 O   0  0  0  0  0  0  0  0  0  0  0  0
   25.5020  -21.0521   -3.6050 C   0  0  0  0  0  0  0  0  0  0  0  0
   22.2826  -21.7712   -8.4531 O   0  0  0  0  0  0  0  0  0  0  0  0
   24.6044  -21.3499   -7.7030 C   0  0  0  0  0  0  0  0  0  0  0  0
   23.7574  -23.6273  -11.0638 O   0  0  0  0  0  0  0  0  0  0  0  0
   26.6499  -22.3204   -6.2879 C   0  0  0  0  0  0  0  0  0  0  0  0
   25.4300  -22.6193   -5.5074 O   0  0  0  0  0  0  0  0  0  0  0  0
   23.6342  -22.0517   -8.7955 C   0  0  0  0  0  0  0  0  0  0  0  0
   27.9056  -21.7850   -4.3921 O   0  0  0  0  0  0  0  0  0  0  0  0
   27.9399  -20.3592   -6.3332 O   0  0  0  0  0  0  0  0  0  0  0  0
   25.6272  -23.9201   -9.3389 O   0  0  0  0  0  0  0  0  0  0  0  0
  1 10  1  0
  2 10  1  0
  3 11  1  0
  4  6  2  0
  5 14  1  0
  5 17  1  0
  5 18  1  0
  6 13  1  0
  6 16  1  0
  6 19  1  0
  7 10  1  0
  7 15  1  0
  8  9  1  0
  8 12  1  0
  8 14  1  0
 11 16  1  0
 12 16  1  0
 14 15  1  0
M  END
>  <ID>  (1) 
conformer_0

$$$$
