
     RDKit          3D

  9  9  0  0  0  0  0  0  0  0999 V2000
   24.4683  -23.5257   -9.1665 C   0  0  0  0  0  0  0  0  0  0  0  0
   27.0002  -20.9179   -8.1241 C   0  0  0  0  0  0  0  0  0  0  0  0
   24.5858  -23.6378  -10.3838 O   0  0  0  0  0  0  0  0  0  0  0  0
   25.4819  -22.8010   -8.3908 C   0  0  0  0  0  0  0  0  0  0  0  0
   27.4052  -21.3787   -6.9002 C   0  0  0  0  0  0  0  0  0  0  0  0
   26.8804  -22.5350   -6.4118 C   0  0  0  0  0  0  0  0  0  0  0  0
   26.0687  -21.6264   -8.8811 C   0  0  0  0  0  0  0  0  0  0  0  0
   25.9167  -23.2582   -7.1364 C   0  0  0  0  0  0  0  0  0  0  0  0
   23.4246  -23.9444   -8.5649 O   0  0  0  0  0  0  0  0  0  0  0  0
  1  3  2  0
  1  4  1  0
  1  9  1  0
  2  5  2  0
  2  7  1  0
  4  7  2  0
  4  8  1  0
  5  6  1  0
  6  8  2  0
M  END
>  <ID>  (1) 
conformer_0

$$$$
