
     RDKit          3D

 21 22  0  0  0  0  0  0  0  0999 V2000
   23.8751  -21.9790   -3.4396 O   0  0  0  0  0  0  0  0  0  0  0  0
   24.2787  -21.8986   -5.8183 C   0  0  0  0  0  0  0  0  0  0  0  0
   24.4862  -18.7329  -11.3756 C   0  0  0  0  0  0  0  0  0  0  0  0
   23.1791  -22.6839   -6.4488 O   0  0  0  0  0  0  0  0  0  0  0  0
   25.0979  -23.1963   -7.6662 C   0  0  0  0  0  0  0  0  0  0  0  0
   25.9339  -24.1966   -8.0752 O   0  0  0  0  0  0  0  0  0  0  0  0
   22.4520  -20.0315  -10.6767 C   0  0  0  0  0  0  0  0  0  0  0  0
   22.7846  -18.2578  -14.2780 N   0  0  0  0  0  0  0  0  0  0  0  0
   24.5329  -22.1941   -9.7845 P   0  0  0  0  0  0  0  0  0  0  0  0
   24.6974  -21.0459  -10.7958 O   0  0  0  0  0  0  0  0  0  0  0  0
   25.4679  -21.9519   -8.4543 O   0  0  0  0  0  0  0  0  0  0  0  0
   25.4508  -23.0042   -6.1470 C   0  0  0  0  0  0  0  0  0  0  0  0
   24.7303  -23.5128  -10.4299 O   0  0  0  0  0  0  0  0  0  0  0  0
   23.5472  -23.1988   -7.7652 C   0  0  0  0  0  0  0  0  0  0  0  0
   23.9393  -19.9347  -10.9586 C   0  0  0  0  0  0  0  0  0  0  0  0
   25.0291  -23.5688   -4.7963 O   0  0  0  0  0  0  0  0  0  0  0  0
   21.3314  -18.0099  -12.6085 C   0  0  0  0  0  0  0  0  0  0  0  0
   23.1438  -22.2499   -8.8933 O   0  0  0  0  0  0  0  0  0  0  0  0
   23.7024  -18.0559  -12.2167 N   0  0  0  0  0  0  0  0  0  0  0  0
   22.6653  -18.3454  -12.9741 C   0  0  0  0  0  0  0  0  0  0  0  0
   24.3810  -22.3235   -4.4026 C   0  0  0  0  0  0  0  0  0  0  0  0
  1 21  2  0
  2  4  1  0
  2 12  1  0
  2 21  1  0
  3 15  1  0
  3 19  1  0
  4 14  1  0
  5  6  1  0
  5 11  1  0
  5 12  1  0
  5 14  1  0
  7 15  1  0
  8 20  2  0
  9 10  1  0
  9 11  1  0
  9 13  1  0
 10 15  1  0
 12 16  1  0
 14 18  1  0
 16 21  1  0
 17 20  1  0
 19 20  1  0
M  END
>  <ID>  (1) 
conformer_0

$$$$
