
     RDKit          3D

 15 15  0  0  0  0  0  0  0  0999 V2000
   26.7878  -22.0444   -6.2707 C   0  0  0  0  0  0  0  0  0  0  0  0
   25.3987  -22.0525   -8.2676 C   0  0  0  0  0  0  0  0  0  0  0  0
   24.7132  -24.2024   -5.4127 N   0  0  0  0  0  0  0  0  0  0  0  0
   23.6536  -23.8587   -8.2168 C   0  0  0  0  0  0  0  0  0  0  0  0
   24.0270  -24.2952   -6.7580 C   0  0  0  0  0  0  0  0  0  0  0  0
   24.0130  -22.0380  -11.7996 O   0  0  0  0  0  1  0  0  0  0  0  0
   25.7887  -22.5253   -7.0599 C   0  0  0  0  0  0  0  0  0  0  0  0
   23.5672  -22.9747  -10.6680 P   0  0  0  0  0  4  0  0  0  0  0  0
   23.7102  -24.4684  -10.9902 O   0  0  0  0  0  0  0  0  0  0  0  0
   26.0548  -20.8822   -8.6959 C   0  0  0  0  0  0  0  0  0  0  0  0
   24.3885  -22.7285   -9.0978 C   0  0  0  0  0  0  0  0  0  0  0  0
   25.6930  -20.2427   -9.8334 O   0  0  0  0  0  0  0  0  0  0  0  0
   21.9722  -22.6442  -10.2478 O   0  0  0  0  0  0  0  0  0  0  0  0
   27.4612  -20.9393   -6.7160 C   0  0  0  0  0  0  0  0  0  0  0  0
   27.1112  -20.3147   -7.9340 C   0  0  0  0  0  0  0  0  0  0  0  0
  1  7  2  0
  1 14  1  0
  2  7  1  0
  2 10  2  0
  2 11  1  0
  3  5  1  0
  4  5  1  0
  4 11  2  3
  6  8  2  0
  8  9  1  0
  8 11  1  0
  8 13  1  0
 10 12  1  0
 10 15  1  0
 14 15  2  0
M  END
>  <ID>  (1) 
conformer_0

$$$$
