
     RDKit          3D

 14 14  0  0  0  0  0  0  0  0999 V2000
   25.1657  -23.1169   -5.6033 C   0  0  0  0  0  0  0  0  0  0  0  0
   26.6870  -21.5377   -8.4759 O   0  0  0  0  0  0  0  0  0  0  0  0
   23.6664  -23.3791  -10.2310 P   0  0  0  0  0  4  0  0  0  0  0  0
   23.4541  -24.1237   -7.7813 O   0  0  0  0  0  0  0  0  0  0  0  0
   24.6119  -23.4372   -7.9467 C   0  0  0  0  0  0  0  0  0  0  0  0
   24.0761  -23.8582   -5.1939 O   0  0  0  0  0  0  0  0  0  0  0  0
   27.3828  -21.5556   -6.2910 C   0  0  0  0  0  0  0  0  0  0  0  0
   26.0647  -22.6761   -4.6365 C   0  0  0  0  0  0  0  0  0  0  0  0
   26.4645  -21.9747   -7.2592 C   0  0  0  0  0  0  0  0  0  0  0  0
   22.5262  -22.5344   -9.8967 O   0  0  0  0  0  0  0  0  0  0  0  0
   25.3830  -22.8163   -6.9539 C   0  0  0  0  0  0  0  0  0  0  0  0
   25.0507  -23.3541   -9.4007 C   0  0  0  0  0  0  0  0  0  0  0  0
   27.1669  -21.9242   -5.0043 C   0  0  0  0  0  0  0  0  0  0  0  0
   23.5639  -24.2692  -11.1775 O   0  0  0  0  0  1  0  0  0  0  0  0
  1  6  1  0
  1  8  2  0
  1 11  1  0
  2  9  1  0
  3 10  1  0
  3 12  1  0
  3 14  2  0
  4  5  1  0
  5 11  1  0
  5 12  1  0
  7  9  1  0
  7 13  2  0
  8 13  1  0
  9 11  2  0
M  END
>  <ID>  (1) 
conformer_0

$$$$
