
     RDKit          3D

 12 12  0  0  0  0  0  0  0  0999 V2000
   24.0510  -22.7755   -9.1839 C   0  0  0  0  0  0  0  0  0  0  0  0
   23.3130  -24.1098  -10.9865 O   0  0  0  0  0  0  0  0  0  0  0  0
   26.8424  -22.7284   -7.2164 O   0  0  0  0  0  0  0  0  0  0  0  0
   24.2320  -24.5584   -5.8237 O   0  0  0  0  0  0  0  0  0  0  0  0
   26.0457  -23.0168   -6.0175 C   0  0  0  0  0  0  0  0  0  0  0  0
   25.9247  -21.7025   -7.7398 C   0  0  0  0  0  0  0  0  0  0  0  0
   23.8376  -23.1377   -7.7502 O   0  0  0  0  0  0  0  0  0  0  0  0
   23.8240  -22.9679  -10.7420 C   0  0  0  0  0  0  0  0  0  0  0  0
   24.6543  -23.4009   -6.5725 C   0  0  0  0  0  0  0  0  0  0  0  0
   24.4376  -24.2454   -4.3346 C   0  0  0  0  0  0  0  0  0  0  0  0
   24.5060  -22.2446  -11.5291 O   0  0  0  0  0  0  0  0  0  0  0  0
   25.5099  -22.1597   -9.1431 C   0  0  0  0  0  0  0  0  0  0  0  0
  1  7  1  0
  1  8  1  0
  1 12  1  0
  2  8  2  0
  3  5  1  0
  3  6  1  0
  4  9  1  0
  4 10  1  0
  5  9  1  0
  6 12  1  0
  7  9  1  0
  8 11  1  0
M  END
>  <ID>  (1) 
conformer_0

$$$$
