
     RDKit          3D

 12 13  0  0  0  0  0  0  0  0999 V2000
   24.5274  -21.3327  -10.1900 O   0  0  0  0  0  0  0  0  0  0  0  0
   23.8306  -22.3247  -12.2543 C   0  0  0  0  0  0  0  0  0  0  0  0
   24.9969  -21.8526   -9.0233 C   0  0  0  0  0  0  0  0  0  0  0  0
   23.2252  -23.3795  -12.9420 C   0  0  0  0  0  0  0  0  0  0  0  0
   26.0785  -23.0792   -7.2697 C   0  0  0  0  0  0  0  0  0  0  0  0
   26.2146  -21.9661   -8.2763 C   0  0  0  0  0  0  0  0  0  0  0  0
   23.6521  -22.1851  -10.8311 C   0  0  0  0  0  0  0  0  0  0  0  0
   24.0686  -24.2330   -6.5240 N   0  0  0  0  0  0  0  0  0  0  0  0
   24.1476  -22.9851   -8.6454 C   0  0  0  0  0  0  0  0  0  0  0  0
   23.5060  -23.3036   -9.9233 N   0  0  0  0  0  0  0  0  0  0  0  0
   24.7509  -23.5464   -7.4744 C   0  0  0  0  0  0  0  0  0  0  0  0
   24.6701  -21.5702  -12.8554 O   0  0  0  0  0  0  0  0  0  0  0  0
  1  3  1  0
  1  7  1  0
  2  4  1  0
  2  7  1  0
  2 12  2  0
  3  6  1  0
  3  9  1  0
  5  6  1  0
  5 11  1  0
  7 10  1  0
  8 11  1  0
  9 10  1  0
  9 11  1  0
M  END
>  <ID>  (1) 
conformer_0

$$$$
