
     RDKit          3D

 17 18  0  0  0  0  0  0  0  0999 V2000
   25.7163  -22.5240   -6.3231 C   0  0  0  0  0  0  0  0  0  0  0  0
   23.6260  -24.0272  -10.3861 O   0  0  0  0  0  0  0  0  0  0  0  0
   26.4700  -20.4754   -7.2109 C   0  0  0  0  0  0  0  0  0  0  0  0
   24.4623  -21.7843  -10.2106 C   0  0  0  0  0  0  0  0  0  0  0  0
   24.2451  -23.0629   -9.6415 C   0  0  0  0  0  0  0  0  0  0  0  0
   23.0962  -23.7945  -11.6714 C   0  0  0  0  0  0  0  0  0  0  0  0
   23.4158  -23.2252  -13.0364 C   0  0  0  0  0  0  0  0  0  0  0  0
   25.6895  -21.4632  -13.1655 O   0  0  0  0  0  1  0  0  0  0  0  0
   24.5848  -23.3064   -8.3947 N   0  0  0  0  0  0  0  0  0  0  0  0
   25.2607  -20.8595   -9.4945 C   0  0  0  0  0  0  0  0  0  0  0  0
   25.6728  -21.1626   -8.1816 N   0  0  0  0  0  0  0  0  0  0  0  0
   26.2590  -21.2682   -5.9420 N   0  0  0  0  0  0  0  0  0  0  0  0
   23.3707  -20.6794  -13.8370 O   0  0  0  0  0  1  0  0  0  0  0  0
   25.7716  -23.5041   -5.4960 N   0  0  0  0  0  0  0  0  0  0  0  0
   24.1932  -21.5631  -12.9123 P   0  0  0  0  0  0  0  0  0  0  0  0
   23.8507  -21.3538  -11.4091 O   0  0  0  0  0  0  0  0  0  0  0  0
   25.2885  -22.3793   -7.6899 C   0  0  0  0  0  0  0  0  0  0  0  0
  1 12  1  0
  1 14  2  0
  1 17  1  0
  2  5  1  0
  2  6  1  0
  3 11  1  0
  3 12  1  0
  4  5  1  0
  4 10  2  0
  4 16  1  0
  5  9  2  0
  6  7  1  0
  8 15  1  0
  9 17  1  0
 10 11  1  0
 11 17  1  0
 13 15  1  0
 15 16  1  0
M  END
>  <ID>  (1) 
conformer_0

$$$$
