
     RDKit          3D

 15 16  0  0  0  0  0  0  0  0999 V2000
   25.7278  -20.7332   -6.3002 C   0  0  0  0  0  0  0  0  0  0  0  0
   21.9191  -22.8131  -10.6505 C   0  0  0  0  0  0  0  0  0  0  0  0
   24.1337  -23.3374  -10.7963 O   0  0  0  0  0  0  0  0  0  0  0  0
   21.0444  -21.3969   -9.0077 C   0  0  0  0  0  0  0  0  0  0  0  0
   23.1857  -22.6913  -10.1042 C   0  0  0  0  0  0  0  0  0  0  0  0
   25.3422  -23.6871   -6.9999 N   0  0  0  0  0  0  0  0  0  0  0  0
   26.5106  -21.9513   -5.9016 C   0  0  0  0  0  0  0  0  0  0  0  0
   20.8697  -22.1603  -10.1146 C   0  0  0  0  0  0  0  0  0  0  0  0
   25.5618  -22.9866   -8.1797 C   0  0  0  0  0  0  0  0  0  0  0  0
   24.6746  -21.7925   -8.2661 C   0  0  0  0  0  0  0  0  0  0  0  0
   22.2857  -21.2893   -8.4543 O   0  0  0  0  0  0  0  0  0  0  0  0
   25.2873  -22.8739   -5.7494 C   0  0  0  0  0  0  0  0  0  0  0  0
   23.4006  -21.9519   -8.9575 C   0  0  0  0  0  0  0  0  0  0  0  0
   24.5780  -20.8921   -7.0967 C   0  0  0  0  0  0  0  0  0  0  0  0
   26.0152  -23.6542   -9.1432 O   0  0  0  0  0  0  0  0  0  0  0  0
  1  7  1  0
  1 14  1  0
  2  5  1  0
  2  8  2  0
  3  5  1  0
  4  8  1  0
  4 11  1  0
  5 13  2  0
  6  9  1  0
  6 12  1  0
  7 12  1  0
  9 10  1  0
  9 15  2  0
 10 13  1  0
 10 14  1  0
 11 13  1  0
M  END
>  <ID>  (1) 
conformer_0

$$$$
