
     RDKit          3D

  9  9  0  0  0  0  0  0  0  0999 V2000
   26.0613  -21.0295   -8.1050 C   0  0  0  0  0  0  0  0  0  0  0  0
   24.6075  -22.9033  -10.8219 O   0  0  0  0  0  0  0  0  0  0  0  0
   25.2215  -21.9756  -10.2943 C   0  0  0  0  0  0  0  0  0  0  0  0
   26.6455  -22.4239   -6.2905 C   0  0  0  0  0  0  0  0  0  0  0  0
   25.8082  -23.4037   -8.3285 C   0  0  0  0  0  0  0  0  0  0  0  0
   26.2992  -23.5311   -7.0258 C   0  0  0  0  0  0  0  0  0  0  0  0
   25.5477  -20.9420  -10.8967 O   0  0  0  0  0  0  0  0  0  0  0  0
   25.6896  -22.1282   -8.8909 C   0  0  0  0  0  0  0  0  0  0  0  0
   26.5054  -21.1739   -6.8149 C   0  0  0  0  0  0  0  0  0  0  0  0
  1  8  2  0
  1  9  1  0
  2  3  2  0
  3  7  1  0
  3  8  1  0
  4  6  1  0
  4  9  2  0
  5  6  2  0
  5  8  1  0
M  END
>  <ID>  (1) 
conformer_0

$$$$
