
     RDKit          3D

 19 20  0  0  0  0  0  0  0  0999 V2000
   23.7779  -23.7464   -9.8265 O   0  0  0  0  0  0  0  0  0  0  0  0
   24.0135  -21.3037   -9.1702 C   0  0  0  0  0  0  0  0  0  0  0  0
   23.4310  -22.0800   -6.9381 C   0  0  0  0  0  0  0  0  0  0  0  0
   25.5269  -23.2717   -7.5717 C   0  0  0  0  0  0  0  0  0  0  0  0
   23.4471  -22.6986   -9.0191 C   0  0  0  0  0  0  0  0  0  0  0  0
   24.3923  -21.0794   -7.5890 C   0  0  0  0  0  0  0  0  0  0  0  0
   24.2119  -22.6482  -12.0653 O   0  0  0  0  0  1  0  0  0  0  0  0
   26.8196  -21.2809   -7.4808 O   0  0  0  0  0  0  0  0  0  0  0  0
   22.9952  -24.9183  -11.9218 O   0  0  0  0  0  0  0  0  0  0  0  0
   23.1808  -23.5367  -11.3684 P   0  0  0  0  0  4  0  0  0  0  0  0
   22.5148  -22.5881   -8.0337 O   0  0  0  0  0  0  0  0  0  0  0  0
   22.7394  -21.7577   -5.7849 O   0  0  0  0  0  0  0  0  0  0  0  0
   24.2576  -23.3651   -6.7006 C   0  0  0  0  0  0  0  0  0  0  0  0
   23.4731  -24.5013   -6.7844 O   0  0  0  0  0  0  0  0  0  0  0  0
   25.6545  -21.7795   -7.8387 C   0  0  0  0  0  0  0  0  0  0  0  0
   26.5814  -23.6159   -6.6877 O   0  0  0  0  0  0  0  0  0  0  0  0
   23.0218  -20.3603   -9.4410 O   0  0  0  0  0  0  0  0  0  0  0  0
   21.8004  -22.8046  -11.1991 O   0  0  0  0  0  0  0  0  0  0  0  0
   24.5428  -19.7882   -7.1606 O   0  0  0  0  0  0  0  0  0  0  0  0
  1  5  1  0
  1 10  1  0
  2  5  1  0
  2  6  1  0
  2 17  1  0
  3  6  1  0
  3 11  1  0
  3 12  1  0
  3 13  1  0
  4 13  1  0
  4 15  1  0
  4 16  1  0
  5 11  1  0
  6 15  1  0
  6 19  1  0
  7 10  2  0
  8 15  1  0
  9 10  1  0
 10 18  1  0
 13 14  1  0
M  END
>  <ID>  (1) 
conformer_0

$$$$
