
     RDKit          3D

 10 10  0  0  0  0  0  0  0  0999 V2000
   24.8282  -23.5040   -5.7765 C   0  0  0  0  0  0  0  0  0  0  0  0
   24.5503  -23.4689   -7.1063 C   0  0  0  0  0  0  0  0  0  0  0  0
   25.9992  -22.9185   -5.2891 C   0  0  0  0  0  0  0  0  0  0  0  0
   23.6523  -23.1720   -9.6786 C   0  0  0  0  0  0  0  0  0  0  0  0
   25.0839  -22.7526   -9.4244 C   0  0  0  0  0  0  0  0  0  0  0  0
   26.5919  -22.3008   -7.5003 C   0  0  0  0  0  0  0  0  0  0  0  0
   26.8810  -22.3440   -6.1586 C   0  0  0  0  0  0  0  0  0  0  0  0
   23.8179  -24.2156  -10.7044 O   0  0  0  0  0  0  0  0  0  0  0  0
   25.6061  -21.9299  -10.1760 O   0  0  0  0  0  0  0  0  0  0  0  0
   25.4235  -22.8513   -7.9761 C   0  0  0  0  0  0  0  0  0  0  0  0
  1  2  2  0
  1  3  1  0
  2 10  1  0
  3  7  2  0
  4  5  1  0
  4  8  1  0
  5  9  2  0
  5 10  1  0
  6  7  1  0
  6 10  2  0
M  END
>  <ID>  (1) 
conformer_0

$$$$
