
     RDKit          3D

 23 24  0  0  0  0  0  0  0  0999 V2000
   26.5733  -20.8878   -4.0045 C   0  0  0  0  0  0  0  0  0  0  0  0
   27.1197  -20.8365   -6.2624 C   0  0  0  0  0  0  0  0  0  0  0  0
   24.3463  -19.7873   -4.4618 O   0  0  0  0  0  0  0  0  0  0  0  0
   26.4306  -22.5371   -7.8774 C   0  0  0  0  0  0  0  0  0  0  0  0
   23.5821  -23.1134  -10.5224 C   0  0  0  0  0  0  0  0  0  0  0  0
   25.3883  -21.3785   -7.9899 C   0  0  0  0  0  0  0  0  0  0  0  0
   23.4187  -21.5523  -12.4962 O   0  0  0  0  0  0  0  0  0  0  0  0
   25.4594  -23.4527   -8.9162 O   0  0  0  0  0  0  0  0  0  0  0  0
   21.2317  -23.0600  -10.0529 C   0  0  0  0  0  0  0  0  0  0  0  0
   24.6261  -20.2039   -8.4794 O   0  0  0  0  0  0  0  0  0  0  0  0
   26.4383  -18.6720   -5.2870 C   0  0  0  0  0  0  0  0  0  0  0  0
   25.4342  -21.6937  -10.5128 O   0  0  0  0  0  0  0  0  0  0  0  0
   27.5781  -21.7280   -7.2306 O   0  0  0  0  0  0  0  0  0  0  0  0
   26.8472  -18.4717   -6.7315 O   0  0  0  0  0  0  0  0  0  0  0  0
   27.7374  -20.8145   -5.0149 O   0  0  0  0  0  0  0  0  0  0  0  0
   25.5804  -20.8735   -6.3793 C   0  0  0  0  0  0  0  0  0  0  0  0
   22.5207  -23.6579   -9.7169 O   0  0  0  0  0  0  0  0  0  0  0  0
   22.8080  -22.4654  -11.7128 C   0  0  0  0  0  0  0  0  0  0  0  0
   25.0063  -22.0052   -5.7412 O   0  0  0  0  0  0  0  0  0  0  0  0
   22.1829  -23.5632  -12.5251 C   0  0  0  0  0  0  0  0  0  0  0  0
   21.5637  -21.8774  -10.9502 C   0  0  0  0  0  0  0  0  0  0  0  0
   25.7290  -19.7949   -4.5119 C   0  0  0  0  0  0  0  0  0  0  0  0
   24.7031  -22.4392   -9.5590 C   0  0  0  0  0  0  0  0  0  0  0  0
  1 15  1  0
  1 22  1  0
  2 13  1  0
  2 15  1  0
  2 16  1  0
  3 22  1  0
  4  6  1  0
  4  8  1  0
  4 13  1  0
  5 17  1  0
  5 18  1  0
  5 23  1  0
  6 10  1  0
  6 16  1  0
  7 18  1  0
  8 23  1  0
  9 17  1  0
  9 21  1  0
 11 14  1  0
 11 22  1  0
 12 23  1  0
 16 19  1  0
 18 20  1  0
 18 21  1  0
M  END
>  <ID>  (1) 
conformer_0

$$$$
