
     RDKit          3D

 12 12  0  0  0  0  0  0  0  0999 V2000
   23.8415  -23.3469   -9.2186 C   0  0  0  0  0  0  0  0  0  0  0  0
   25.7708  -20.6720   -8.4476 O   0  0  0  0  0  0  0  0  0  0  0  0
   23.2736  -23.3932  -10.5448 C   0  0  0  0  0  0  0  0  0  0  0  0
   22.1589  -24.0161  -10.9376 N   0  0  0  0  0  0  0  0  0  0  0  0
   23.9426  -22.9152  -11.5865 N   0  0  0  0  0  0  0  0  0  0  0  0
   23.1770  -23.7954   -8.2562 O   0  0  0  0  0  0  0  0  0  0  0  0
   25.1209  -22.9378   -9.0132 N   0  0  0  0  0  0  0  0  0  0  0  0
   26.1633  -23.7242   -6.6989 N   0  0  0  0  0  0  0  0  0  0  0  0
   22.1992  -24.0738  -12.3254 C   0  0  0  0  0  0  0  0  0  0  0  0
   26.7043  -22.4694   -7.2438 C   0  0  0  0  0  0  0  0  0  0  0  0
   23.2890  -23.2534  -12.7036 C   0  0  0  0  0  0  0  0  0  0  0  0
   25.7812  -22.0020   -8.3038 C   0  0  0  0  0  0  0  0  0  0  0  0
  1  3  1  0
  1  6  2  0
  1  7  1  0
  2 12  2  0
  3  4  2  0
  3  5  1  0
  4  9  1  0
  5 11  1  0
  7 12  1  0
  8 10  1  0
  9 11  1  0
 10 12  1  0
M  END
>  <ID>  (1) 
conformer_0

$$$$
