
     RDKit          3D

 12 13  0  0  0  0  0  0  0  0999 V2000
   25.4076  -23.0153   -6.8417 C   0  0  0  0  0  0  0  0  0  0  0  0
   23.6799  -23.3042   -8.4205 C   0  0  0  0  0  0  0  0  0  0  0  0
   24.8495  -23.6427  -10.4278 O   0  0  0  0  0  0  0  0  0  0  0  0
   25.6188  -21.5123   -8.6451 C   0  0  0  0  0  0  0  0  0  0  0  0
   23.7266  -23.5859   -9.9406 C   0  0  0  0  0  0  0  0  0  0  0  0
   27.1985  -21.4380   -6.8614 C   0  0  0  0  0  0  0  0  0  0  0  0
   26.7327  -20.9113   -8.0209 C   0  0  0  0  0  0  0  0  0  0  0  0
   24.9535  -22.5511   -8.0295 C   0  0  0  0  0  0  0  0  0  0  0  0
   23.3745  -24.1263   -7.1366 C   0  0  0  0  0  0  0  0  0  0  0  0
   26.5560  -22.4813   -6.2583 N   0  0  0  0  0  0  0  0  0  0  0  0
   24.6242  -24.0267   -6.2680 N   0  0  0  0  0  0  0  0  0  0  0  0
   22.6414  -23.8705  -10.4686 O   0  0  0  0  0  0  0  0  0  0  0  0
  1  8  2  0
  1 10  1  0
  1 11  1  0
  2  5  1  0
  2  8  1  0
  2  9  1  0
  3  5  2  0
  4  7  2  0
  4  8  1  0
  5 12  1  0
  6  7  1  0
  6 10  2  0
  9 11  1  0
M  END
>  <ID>  (1) 
conformer_0

$$$$
