
     RDKit          3D

 18 18  0  0  0  0  0  0  0  0999 V2000
   22.8150  -22.9629   -8.6220 C   0  0  0  0  0  0  0  0  0  0  0  0
   24.2486  -22.7566   -8.6732 C   0  0  0  0  0  0  0  0  0  0  0  0
   23.0523  -21.5131  -11.3375 O   0  0  0  0  0  0  0  0  0  0  0  0
   25.2557  -22.3249   -7.6699 C   0  0  0  0  0  0  0  0  0  0  0  0
   26.1852  -21.4122   -8.0997 C   0  0  0  0  0  0  0  0  0  0  0  0
   23.9736  -23.7298  -10.8172 C   0  0  0  0  0  0  0  0  0  0  0  0
   27.2333  -20.9877   -7.2910 C   0  0  0  0  0  0  0  0  0  0  0  0
   22.2182  -23.5963  -12.3108 C   0  0  0  0  0  0  0  0  0  0  0  0
   22.4471  -24.1452   -7.9858 O   0  0  0  0  0  0  0  0  0  0  0  0
   22.7466  -22.8418  -11.0013 C   0  0  0  0  0  0  0  0  0  0  0  0
   21.7266  -24.7999  -11.8903 O   0  0  0  0  0  0  0  0  0  0  0  0
   24.4263  -23.7045   -5.6796 C   0  0  0  0  0  0  0  0  0  0  0  0
   25.3650  -22.7944   -6.3365 C   0  0  0  0  0  0  0  0  0  0  0  0
   24.8200  -23.4274   -9.7431 O   0  0  0  0  0  0  0  0  0  0  0  0
   26.4413  -22.3605   -5.5456 C   0  0  0  0  0  0  0  0  0  0  0  0
   27.3681  -21.4806   -6.0179 C   0  0  0  0  0  0  0  0  0  0  0  0
   23.1006  -23.6862  -13.3246 O   0  0  0  0  0  0  0  0  0  0  0  0
   24.2540  -24.9721   -6.1264 O   0  0  0  0  0  0  0  0  0  0  0  0
  1  2  1  0
  1  9  1  0
  2  4  1  0
  2 14  1  0
  3 10  1  0
  4  5  2  0
  4 13  1  0
  5  7  1  0
  6 10  1  0
  6 14  1  0
  7 16  1  0
  8 10  1  0
  8 11  1  0
  8 17  1  0
 12 13  1  0
 12 18  1  0
 13 15  1  0
 15 16  2  0
M  END
>  <ID>  (1) 
conformer_0

$$$$
