
     RDKit          3D

 12 13  0  0  0  0  0  0  0  0999 V2000
   24.0310  -22.6725  -12.0738 O   0  0  0  0  0  0  0  0  0  0  0  0
   24.4508  -23.0453   -8.9925 C   0  0  0  0  0  0  0  0  0  0  0  0
   22.5088  -23.4751   -7.8334 N   0  0  0  0  0  0  0  0  0  0  0  0
   24.5240  -22.8008   -6.6072 C   0  0  0  0  0  0  0  0  0  0  0  0
   23.0997  -24.6724  -11.8850 O   0  0  0  0  0  0  0  0  0  0  0  0
   25.8493  -22.4484   -6.6810 C   0  0  0  0  0  0  0  0  0  0  0  0
   25.7578  -22.6850   -9.0513 C   0  0  0  0  0  0  0  0  0  0  0  0
   26.4463  -22.4100   -7.8877 C   0  0  0  0  0  0  0  0  0  0  0  0
   23.4748  -23.4794   -9.9778 C   0  0  0  0  0  0  0  0  0  0  0  0
   23.5351  -23.5987  -11.4313 C   0  0  0  0  0  0  0  0  0  0  0  0
   22.2098  -23.7658   -9.2519 C   0  0  0  0  0  0  0  0  0  0  0  0
   23.8692  -23.0821   -7.7713 C   0  0  0  0  0  0  0  0  0  0  0  0
  1 10  2  0
  2  7  1  0
  2  9  1  0
  2 12  2  0
  3 11  1  0
  3 12  1  0
  4  6  1  0
  4 12  1  0
  5 10  1  0
  6  8  2  0
  7  8  1  0
  9 10  1  0
  9 11  1  0
M  END
>  <ID>  (1) 
conformer_0

$$$$
