
     RDKit          3D

 14 14  0  0  0  0  0  0  0  0999 V2000
   25.4532  -21.0405  -11.1910 O   0  0  0  0  0  0  0  0  0  0  0  0
   23.4564  -23.0425  -10.7452 C   0  0  0  0  0  0  0  0  0  0  0  0
   26.9478  -22.9620   -5.7342 O   0  0  0  0  0  0  0  0  0  0  0  0
   26.1923  -21.2943   -8.9408 C   0  0  0  0  0  0  0  0  0  0  0  0
   25.4808  -23.1889   -7.7128 C   0  0  0  0  0  0  0  0  0  0  0  0
   23.3036  -24.4089  -11.2331 O   0  0  0  0  0  0  0  0  0  0  0  0
   25.3911  -21.7092   -9.9823 C   0  0  0  0  0  0  0  0  0  0  0  0
   24.5258  -22.7913   -9.8183 C   0  0  0  0  0  0  0  0  0  0  0  0
   23.1291  -23.6618  -13.3506 O   0  0  0  0  0  0  0  0  0  0  0  0
   22.6415  -24.4390  -12.5245 C   0  0  0  0  0  0  0  0  0  0  0  0
   27.1230  -21.7662   -6.5936 C   0  0  0  0  0  0  0  0  0  0  0  0
   21.5386  -25.3129  -12.4842 C   0  0  0  0  0  0  0  0  0  0  0  0
   24.6445  -23.5269   -8.7002 N   0  0  0  0  0  0  0  0  0  0  0  0
   26.2582  -22.0671   -7.7627 C   0  0  0  0  0  0  0  0  0  0  0  0
  1  7  1  0
  2  6  1  0
  2  8  1  0
  3 11  1  0
  4  7  1  0
  4 14  2  0
  5 13  2  0
  5 14  1  0
  6 10  1  0
  7  8  1  0
  8 13  1  0
  9 10  2  0
 10 12  1  0
 11 14  1  0
M  END
>  <ID>  (1) 
conformer_0

$$$$
