
     RDKit          3D

 11 10  0  0  0  0  0  0  0  0999 V2000
   25.0371  -22.2292  -10.8801 O   0  0  0  0  0  0  0  0  0  0  0  0
   27.8369  -21.8595   -6.8487 O   0  0  0  0  0  0  0  0  0  0  0  0
   24.5618  -22.8679   -8.6209 C   0  0  0  0  0  0  0  0  0  0  0  0
   24.4021  -22.9760  -10.1362 C   0  0  0  0  0  0  0  0  0  0  0  0
   24.8766  -23.9883   -6.2357 O   0  0  0  0  0  0  0  0  0  0  0  0
   26.5143  -22.3261   -7.0336 C   0  0  0  0  0  0  0  0  0  0  0  0
   26.1132  -23.0084   -8.3314 C   0  0  0  0  0  0  0  0  0  0  0  0
   25.7234  -21.9971   -4.7967 O   0  0  0  0  0  0  0  0  0  0  0  0
   23.6279  -23.9455  -10.4684 O   0  0  0  0  0  0  0  0  0  0  0  0
   24.2293  -24.3523   -4.8999 C   0  0  0  0  0  0  0  0  0  0  0  0
   25.9857  -23.0381   -5.8034 C   0  0  0  0  0  0  0  0  0  0  0  0
  1  4  2  0
  2  6  1  0
  3  4  1  0
  3  7  1  0
  4  9  1  0
  5 10  1  0
  5 11  1  0
  6  7  1  0
  6 11  1  0
  8 11  1  0
M  END
>  <ID>  (1) 
conformer_0

$$$$
