
     RDKit          3D

 10 10  0  0  0  0  0  0  0  0999 V2000
   23.6403  -24.5526  -11.2177 O   0  0  0  0  0  0  0  0  0  0  0  0
   26.6879  -22.1248   -7.6759 C   0  0  0  0  0  0  0  0  0  0  0  0
   24.9493  -23.6079   -8.3461 C   0  0  0  0  0  0  0  0  0  0  0  0
   26.3930  -21.3138   -8.7537 C   0  0  0  0  0  0  0  0  0  0  0  0
   25.9672  -23.2602   -7.4739 C   0  0  0  0  0  0  0  0  0  0  0  0
   23.4527  -22.1195  -11.7474 O   0  0  0  0  0  0  0  0  0  0  0  0
   25.4001  -21.6674   -9.6395 C   0  0  0  0  0  0  0  0  0  0  0  0
   22.0928  -23.1720   -9.7850 O   0  0  0  0  0  0  0  0  0  0  0  0
   23.4423  -23.2726  -10.6381 S   0  0  0  0  0  4  0  0  0  0  0  0
   24.7071  -22.8080   -9.4397 C   0  0  0  0  0  0  0  0  0  0  0  0
  1  9  1  0
  2  4  1  0
  2  5  2  0
  3  5  1  0
  3 10  1  0
  4  7  1  0
  6  9  1  0
  7 10  2  0
  8  9  1  0
  9 10  1  0
M  END
>  <ID>  (1) 
conformer_0

$$$$
