
     RDKit          3D

 15 16  0  0  0  0  0  0  0  0999 V2000
   23.2017  -23.9604   -7.6694 N   0  0  0  0  0  0  0  0  0  0  0  0
   25.2700  -22.5588   -8.0097 C   0  0  0  0  0  0  0  0  0  0  0  0
   26.5939  -20.2665   -8.8580 C   0  0  0  0  0  0  0  0  0  0  0  0
   26.0775  -21.9043   -7.1586 C   0  0  0  0  0  0  0  0  0  0  0  0
   25.2608  -22.2291   -9.3603 C   0  0  0  0  0  0  0  0  0  0  0  0
   24.7499  -23.1274  -10.1917 O   0  0  0  0  0  0  0  0  0  0  0  0
   24.5542  -23.6383   -7.3898 C   0  0  0  0  0  0  0  0  0  0  0  0
   25.1101  -21.2266  -12.1253 O   0  0  0  0  0  0  0  0  0  0  0  0
   25.8551  -20.9924   -9.8268 C   0  0  0  0  0  0  0  0  0  0  0  0
   24.0020  -23.6493   -5.0722 O   0  0  0  0  0  0  0  0  0  0  0  0
   25.0253  -23.6513   -5.9975 C   0  0  0  0  0  0  0  0  0  0  0  0
   25.6857  -20.5304  -11.2233 C   0  0  0  0  0  0  0  0  0  0  0  0
   26.0838  -19.3758  -11.5014 O   0  0  0  0  0  0  0  0  0  0  0  0
   26.1083  -22.5870   -5.9816 O   0  0  0  0  0  0  0  0  0  0  0  0
   26.7275  -20.7128   -7.5388 C   0  0  0  0  0  0  0  0  0  0  0  0
  1  7  1  0
  2  4  1  0
  2  5  2  0
  2  7  1  0
  3  9  2  0
  3 15  1  0
  4 14  1  0
  4 15  2  0
  5  6  1  0
  5  9  1  0
  7 11  1  0
  8 12  2  0
  9 12  1  0
 10 11  1  0
 11 14  1  0
 12 13  1  0
M  END
>  <ID>  (1) 
conformer_0

$$$$
