
     RDKit          3D

 10  9  0  0  0  0  0  0  0  0999 V2000
   26.8006  -22.8722   -6.7706 S   0  0  0  0  0  0  0  0  0  0  0  0
   23.2829  -22.6487  -11.6949 C   0  0  0  0  0  0  0  0  0  0  0  0
   24.3739  -22.8979   -7.9439 C   0  0  0  0  0  0  0  0  0  0  0  0
   23.2696  -23.9844  -11.8018 O   0  0  0  0  0  0  0  0  0  0  0  0
   23.9533  -22.1854  -10.3851 C   0  0  0  0  0  0  0  0  0  0  0  0
   25.3430  -22.0262  -10.6043 O   0  0  0  0  0  0  0  0  0  0  0  0
   22.5398  -23.8917   -9.1217 O   0  0  0  0  0  0  0  0  0  0  0  0
   22.9010  -21.6065  -12.4330 O   0  0  0  0  0  0  0  0  0  0  0  0
   25.9163  -23.0572   -8.2725 C   0  0  0  0  0  0  0  0  0  0  0  0
   23.5895  -23.0680   -9.2010 C   0  0  0  0  0  0  0  0  0  0  0  0
  1  9  1  0
  2  4  2  0
  2  5  1  0
  2  8  1  0
  3  9  1  0
  3 10  1  0
  5  6  1  0
  5 10  1  0
  7 10  1  0
M  END
>  <ID>  (1) 
conformer_0

$$$$
