
     RDKit          3D

 18 19  0  0  0  0  0  0  0  0999 V2000
   25.1188  -24.4838   -6.2551 O   0  0  0  0  0  0  0  0  0  0  0  0
   23.0875  -22.6213   -9.3769 C   0  0  0  0  0  0  0  0  0  0  0  0
   22.7058  -24.1708  -11.1850 C   0  0  0  0  0  0  0  0  0  0  0  0
   23.5491  -23.4205  -10.3672 C   0  0  0  0  0  0  0  0  0  0  0  0
   24.7708  -23.3820   -5.6080 C   0  0  0  0  0  0  0  0  0  0  0  0
   24.8208  -23.4714  -10.5498 O   0  0  0  0  0  0  0  0  0  0  0  0
   23.8842  -23.0347   -6.8135 C   0  0  0  0  0  0  0  0  0  0  0  0
   25.9742  -22.8698   -4.8743 C   0  0  0  0  0  0  0  0  0  0  0  0
   20.8749  -23.4483   -9.8506 C   0  0  0  0  0  0  0  0  0  0  0  0
   25.2977  -19.7055   -6.1275 O   0  0  0  0  0  0  0  0  0  0  0  0
   23.8662  -20.7179   -7.8064 C   0  0  0  0  0  0  0  0  0  0  0  0
   21.7438  -22.6871   -9.1005 C   0  0  0  0  0  0  0  0  0  0  0  0
   25.8359  -21.8008   -7.1287 C   0  0  0  0  0  0  0  0  0  0  0  0
   21.3554  -24.1834  -10.9046 C   0  0  0  0  0  0  0  0  0  0  0  0
   24.9644  -20.7048   -6.8267 C   0  0  0  0  0  0  0  0  0  0  0  0
   24.9541  -22.7510   -7.9371 C   0  0  0  0  0  0  0  0  0  0  0  0
   24.0935  -21.8157   -8.7934 C   0  0  0  0  0  0  0  0  0  0  0  0
   27.1179  -21.4816   -7.7633 C   0  0  0  0  0  0  0  0  0  0  0  0
  1  5  1  0
  2  4  2  0
  2 12  1  0
  2 17  1  0
  3  4  1  0
  3 14  1  0
  4  6  1  0
  5  7  1  0
  5  8  1  0
  7 16  1  0
  9 12  1  0
  9 14  2  0
 10 15  2  0
 11 15  1  0
 11 17  1  0
 13 15  1  0
 13 16  1  0
 13 18  1  0
 16 17  1  0
M  END
>  <ID>  (1) 
conformer_0

$$$$
