
     RDKit          3D

 11 11  0  0  0  0  0  0  0  0999 V2000
   22.2004  -23.8018  -11.9885 N   0  0  0  0  0  0  0  0  0  0  0  0
   25.9938  -20.8176   -8.6932 C   0  0  0  0  0  0  0  0  0  0  0  0
   26.1934  -23.3632   -7.6583 C   0  0  0  0  0  0  0  0  0  0  0  0
   25.2763  -23.1004   -8.6590 C   0  0  0  0  0  0  0  0  0  0  0  0
   26.9965  -22.3568   -7.1873 C   0  0  0  0  0  0  0  0  0  0  0  0
   23.0462  -22.1219  -10.5898 C   0  0  0  0  0  0  0  0  0  0  0  0
   23.9423  -24.3276  -10.7262 O   0  0  0  0  0  0  0  0  0  0  0  0
   23.1981  -23.4903  -11.1471 C   0  0  0  0  0  0  0  0  0  0  0  0
   25.1657  -21.8241   -9.2081 C   0  0  0  0  0  0  0  0  0  0  0  0
   24.2723  -21.3980  -10.3099 C   0  0  0  0  0  0  0  0  0  0  0  0
   26.8838  -21.0775   -7.6954 C   0  0  0  0  0  0  0  0  0  0  0  0
  1  8  1  0
  2  9  2  0
  2 11  1  0
  3  4  2  0
  3  5  1  0
  4  9  1  0
  5 11  2  0
  6  8  1  0
  6 10  1  0
  7  8  2  0
  9 10  1  0
M  END
>  <ID>  (1) 
conformer_0

$$$$
