
     RDKit          3D

 10  9  0  0  0  0  0  0  0  0999 V2000
   23.9366  -23.8214   -9.9847 O   0  0  0  0  0  0  0  0  0  0  0  0
   24.6395  -24.5500   -6.6232 C   0  0  0  0  0  0  0  0  0  0  0  0
   25.8381  -25.1966   -7.0185 O   0  0  0  0  0  0  0  0  0  0  0  0
   24.8491  -23.0429   -6.9235 C   0  0  0  0  0  0  0  0  0  0  0  0
   25.3779  -22.1055   -9.1750 C   0  0  0  0  0  0  0  0  0  0  0  0
   25.0437  -22.3625   -5.6987 O   0  0  0  0  0  0  0  0  0  0  0  0
   25.9870  -22.8259   -7.9251 C   0  0  0  0  0  0  0  0  0  0  0  0
   24.5635  -22.7501  -10.2722 C   0  0  0  0  0  0  0  0  0  0  0  0
   24.6203  -22.2580  -11.4195 O   0  0  0  0  0  0  0  0  0  0  0  0
   27.2303  -22.8616   -7.2338 O   0  0  0  0  0  0  0  0  0  0  0  0
  1  8  2  0
  2  3  1  0
  2  4  1  0
  4  6  1  0
  4  7  1  0
  5  7  1  0
  5  8  1  0
  7 10  1  0
  8  9  1  0
M  END
>  <ID>  (1) 
conformer_0

$$$$
