
     RDKit          3D

 16 17  0  0  0  0  0  0  0  0999 V2000
   26.1138  -23.0273   -7.3119 C   0  0  0  0  0  0  0  0  0  0  0  0
   24.5407  -23.2412   -9.0901 C   0  0  0  0  0  0  0  0  0  0  0  0
   25.0135  -23.3554   -6.2098 C   0  0  0  0  0  0  0  0  0  0  0  0
   20.4190  -22.7597   -7.2868 O   0  0  0  0  0  0  0  0  0  0  0  0
   22.3918  -22.3186   -8.7366 C   0  0  0  0  0  0  0  0  0  0  0  0
   22.7654  -23.8741  -10.7403 C   0  0  0  0  0  0  0  0  0  0  0  0
   24.0566  -22.2184   -6.2775 O   0  0  0  0  0  0  0  0  0  0  0  0
   20.9483  -22.7930   -8.5092 C   0  0  0  0  0  0  0  0  0  0  0  0
   21.2707  -23.3251  -10.8984 C   0  0  0  0  0  0  0  0  0  0  0  0
   19.2041  -23.8722   -9.6987 O   0  0  0  0  0  0  0  0  0  0  0  0
   25.3422  -22.1768   -8.3556 C   0  0  0  0  0  0  0  0  0  0  0  0
   23.0586  -22.4304   -7.3292 O   0  0  0  0  0  0  0  0  0  0  0  0
   23.2621  -23.4220   -8.2526 C   0  0  0  0  0  0  0  0  0  0  0  0
   26.0252  -21.4386   -9.2791 O   0  0  0  0  0  0  0  0  0  0  0  0
   20.5120  -23.7249   -9.5926 C   0  0  0  0  0  0  0  0  0  0  0  0
   24.0865  -23.2314  -10.4186 O   0  0  0  0  0  0  0  0  0  0  0  0
  1  3  1  0
  1 11  1  0
  2 11  1  0
  2 13  1  0
  2 16  1  0
  3  7  1  0
  4  8  1  0
  5  8  1  0
  5 13  1  0
  6  9  1  0
  6 16  1  0
  7 12  1  0
  8 15  1  0
  9 15  1  0
 10 15  1  0
 11 14  1  0
 12 13  1  0
M  END
>  <ID>  (1) 
conformer_0

$$$$
