
     RDKit          3D

 12 12  0  0  0  0  0  0  0  0999 V2000
   26.6692  -22.1123   -7.7868 C   0  0  0  0  0  0  0  0  0  0  0  0
   24.5017  -22.1658  -12.3078 O   0  0  0  0  0  0  0  0  0  0  0  0
   23.9214  -22.8054  -11.4126 C   0  0  0  0  0  0  0  0  0  0  0  0
   25.8897  -21.8722   -8.9243 C   0  0  0  0  0  0  0  0  0  0  0  0
   24.6445  -22.4622   -9.0282 C   0  0  0  0  0  0  0  0  0  0  0  0
   23.5508  -25.4504   -6.4580 N   0  0  0  0  0  0  0  0  0  0  0  0
   26.2133  -22.9345   -6.7776 C   0  0  0  0  0  0  0  0  0  0  0  0
   24.2154  -23.3074   -8.0431 C   0  0  0  0  0  0  0  0  0  0  0  0
   23.8215  -22.1402  -10.1187 N   0  0  0  0  0  0  0  0  0  0  0  0
   24.9463  -23.5294   -6.8947 C   0  0  0  0  0  0  0  0  0  0  0  0
   23.3452  -23.9444  -11.4870 O   0  0  0  0  0  0  0  0  0  0  0  0
   24.3987  -24.3791   -5.7985 C   0  0  0  0  0  0  0  0  0  0  0  0
  1  4  1  0
  1  7  2  0
  2  3  2  0
  3  9  1  0
  3 11  1  0
  4  5  1  0
  5  8  2  0
  5  9  1  0
  6 12  1  0
  7 10  1  0
  8 10  1  0
 10 12  1  0
M  END
>  <ID>  (1) 
conformer_0

$$$$
