
     RDKit          3D

 20 24  0  0  0  0  0  0  0  0999 V2000
   24.8379  -21.5062  -13.4364 C   0  0  0  0  0  0  0  0  0  0  0  0
   23.3640  -22.9134   -7.1456 C   0  0  0  0  0  0  0  0  0  0  0  0
   25.8133  -22.8717   -7.9025 C   0  0  0  0  0  0  0  0  0  0  0  0
   24.7561  -23.4961   -6.9515 C   0  0  0  0  0  0  0  0  0  0  0  0
   23.2193  -23.0034   -8.6962 C   0  0  0  0  0  0  0  0  0  0  0  0
   27.1802  -21.4294   -4.5458 O   0  0  0  0  0  0  0  0  0  0  0  0
   24.0130  -22.5127  -13.0462 C   0  0  0  0  0  0  0  0  0  0  0  0
   25.1526  -21.6630   -8.5364 C   0  0  0  0  0  0  0  0  0  0  0  0
   24.0348  -22.0266   -9.4498 C   0  0  0  0  0  0  0  0  0  0  0  0
   25.4577  -22.9019   -5.6026 C   0  0  0  0  0  0  0  0  0  0  0  0
   25.0810  -22.3588   -3.4108 C   0  0  0  0  0  0  0  0  0  0  0  0
   24.9680  -20.7688  -11.2464 C   0  0  0  0  0  0  0  0  0  0  0  0
   25.2743  -20.6074  -12.5284 N   0  0  0  0  0  0  0  0  0  0  0  0
   23.7534  -22.7105  -11.7686 N   0  0  0  0  0  0  0  0  0  0  0  0
   26.6314  -22.6417   -6.6585 O   0  0  0  0  0  0  0  0  0  0  0  0
   24.2548  -21.8376  -10.8416 C   0  0  0  0  0  0  0  0  0  0  0  0
   22.9026  -23.0871   -5.6089 C   0  0  0  0  0  0  0  0  0  0  0  0
   25.2023  -21.3412  -14.6859 O   0  0  0  0  0  0  0  0  0  0  0  0
   24.1438  -22.6628   -4.7444 N   0  0  0  0  0  0  0  0  0  0  0  0
   26.3747  -22.5956   -4.2705 C   0  0  0  0  0  0  0  0  0  0  0  0
  1  7  1  0
  1 13  1  0
  1 18  2  0
  2  4  1  0
  2  5  1  0
  2 17  1  0
  3  4  1  0
  3  8  1  0
  3 15  1  0
  4 10  1  0
  5  9  1  0
  6 20  1  0
  7 14  2  0
  8  9  1  0
  9 16  1  0
 10 15  1  0
 10 19  1  0
 10 20  1  0
 11 19  1  0
 11 20  1  0
 12 13  2  0
 12 16  1  0
 14 16  1  0
 17 19  1  0
M  END
>  <ID>  (1) 
conformer_0

$$$$
