
     RDKit          3D

 27 27  0  0  0  0  0  0  0  0999 V2000
   23.1092  -22.9032  -11.7359 C   0  0  0  0  0  0  0  0  0  0  0  0
   24.3190  -20.9812   -4.1866 C   0  0  0  0  0  0  0  0  0  0  0  0
   23.7064  -22.9752   -9.3919 C   0  0  0  0  0  0  0  0  0  0  0  0
   24.9927  -21.2504   -5.5541 C   0  0  0  0  0  0  0  0  0  0  0  0
   26.4778  -22.2170   -8.4574 O   0  0  0  0  0  0  0  0  0  0  0  0
   23.0680  -20.4731  -11.8571 C   0  0  0  0  0  0  0  0  0  0  0  0
   21.4469  -20.3115  -11.6129 C   0  0  0  0  0  0  0  0  0  0  0  0
   22.9663  -21.7959  -12.7626 C   0  0  0  0  0  0  0  0  0  0  0  0
   24.4822  -24.0116   -9.9901 O   0  0  0  0  0  0  0  0  0  0  0  0
   25.3245  -21.7671   -8.0487 C   0  0  0  0  0  0  0  0  0  0  0  0
   24.5337  -20.1501   -6.4986 O   0  0  0  0  0  0  0  0  0  0  0  0
   24.1023  -18.7387   -6.3645 C   0  0  0  0  0  0  0  0  0  0  0  0
   24.4911  -20.3092  -11.4786 O   0  0  0  0  0  0  0  0  0  0  0  0
   24.7742  -20.4362   -7.8975 C   0  0  0  0  0  0  0  0  0  0  0  0
   24.3048  -22.8814   -7.9457 C   0  0  0  0  0  0  0  0  0  0  0  0
   21.6753  -22.0525  -13.4918 C   0  0  0  0  0  0  0  0  0  0  0  0
   24.9988  -23.6518   -6.9685 O   0  0  0  0  0  0  0  0  0  0  0  0
   24.0537  -21.8100  -13.6999 O   0  0  0  0  0  0  0  0  0  0  0  0
   23.8610  -19.5799   -8.7329 C   0  0  0  0  0  0  0  0  0  0  0  0
   22.7712  -20.3331   -9.3361 O   0  0  0  0  0  0  0  0  0  0  0  0
   22.6492  -22.5849  -10.3596 C   0  0  0  0  0  0  0  0  0  0  0  0
   23.2490  -20.2335   -4.2976 O   0  0  0  0  0  0  0  0  0  0  0  0
   23.0924  -24.1498  -12.1684 O   0  0  0  0  0  0  0  0  0  0  0  0
   25.2428  -22.8404   -5.7235 C   0  0  0  0  0  0  0  0  0  0  0  0
   22.3622  -19.9360  -10.6181 C   0  0  0  0  0  0  0  0  0  0  0  0
   20.2873  -20.7489  -11.0891 O   0  0  0  0  0  0  0  0  0  0  0  0
   25.0053  -21.2904   -3.2103 O   0  0  0  0  0  0  0  0  0  0  0  0
  1  8  1  0
  1 21  1  0
  1 23  1  0
  2  4  1  0
  2 22  2  0
  2 27  1  0
  3  9  1  0
  3 15  1  0
  3 21  1  0
  4 24  1  0
  5 10  1  0
  6  8  1  0
  6 13  1  0
  6 25  1  0
  7 25  1  0
  7 26  1  0
  8 16  1  0
  8 18  1  0
 10 14  1  0
 10 15  1  0
 11 12  1  0
 11 14  1  0
 14 19  1  0
 15 17  1  0
 17 24  1  0
 19 20  1  0
 20 25  1  0
M  END
>  <ID>  (1) 
conformer_0

$$$$
