
     RDKit          3D

 14 15  0  0  0  0  0  0  0  0999 V2000
   23.8323  -23.1416  -10.3899 C   0  0  0  0  0  0  0  0  0  0  0  0
   23.6777  -23.7822  -11.4557 O   0  0  0  0  0  0  0  0  0  0  0  0
   21.8029  -23.7600   -7.1063 C   0  0  0  0  0  0  0  0  0  0  0  0
   24.7172  -22.0736  -10.2749 N   0  0  0  0  0  0  0  0  0  0  0  0
   26.5700  -21.2462   -8.7363 C   0  0  0  0  0  0  0  0  0  0  0  0
   27.1407  -21.7330   -7.5660 C   0  0  0  0  0  0  0  0  0  0  0  0
   21.8446  -23.4660   -8.5787 C   0  0  0  0  0  0  0  0  0  0  0  0
   25.2626  -23.0485   -8.1803 C   0  0  0  0  0  0  0  0  0  0  0  0
   21.9381  -24.9358   -6.5506 O   0  0  0  0  0  0  0  0  0  0  0  0
   20.9232  -22.7948   -6.4072 C   0  0  0  0  0  0  0  0  0  0  0  0
   24.2010  -23.9164   -8.1599 N   0  0  0  0  0  0  0  0  0  0  0  0
   25.4896  -22.0649   -9.1151 C   0  0  0  0  0  0  0  0  0  0  0  0
   23.1959  -23.6878   -9.1928 C   0  0  0  0  0  0  0  0  0  0  0  0
   26.4404  -23.0548   -7.0228 S   0  0  0  0  0  0  0  0  0  0  0  0
  1  2  2  0
  1  4  1  0
  1 13  1  0
  3  7  1  0
  3  9  1  0
  3 10  1  0
  4 12  2  0
  5  6  1  0
  5 12  1  0
  6 14  1  0
  7 13  1  0
  8 11  2  0
  8 12  1  0
  8 14  1  0
 11 13  1  0
M  END
>  <ID>  (1) 
conformer_0

$$$$
