
     RDKit          3D

 12 13  0  0  0  0  0  0  0  0999 V2000
   23.3714  -24.0602  -11.3203 O   0  0  0  0  0  0  0  0  0  0  0  0
   23.9843  -23.1959  -10.6086 C   0  0  0  0  0  0  0  0  0  0  0  0
   24.7098  -22.1589  -11.0267 N   0  0  0  0  0  0  0  0  0  0  0  0
   25.2157  -23.1428   -7.0560 C   0  0  0  0  0  0  0  0  0  0  0  0
   26.4546  -22.3981   -6.6830 C   0  0  0  0  0  0  0  0  0  0  0  0
   24.8472  -22.6996   -8.3736 C   0  0  0  0  0  0  0  0  0  0  0  0
   25.3442  -21.3108  -10.1970 C   0  0  0  0  0  0  0  0  0  0  0  0
   25.6524  -20.1600   -6.8056 C   0  0  0  0  0  0  0  0  0  0  0  0
   23.9719  -23.4303   -9.2016 C   0  0  0  0  0  0  0  0  0  0  0  0
   25.2911  -24.5336   -6.9784 N   0  0  0  0  0  0  0  0  0  0  0  0
   26.3477  -21.1714   -7.4943 N   0  0  0  0  0  0  0  0  0  0  0  0
   25.6594  -21.5659   -8.7536 C   0  0  0  0  0  0  0  0  0  0  0  0
  1  2  2  0
  2  3  1  0
  2  9  1  0
  3  7  1  0
  4  5  1  0
  4  6  1  0
  4 10  1  0
  5 11  1  0
  6  9  1  0
  6 12  1  0
  7 12  2  0
  8 11  1  0
 11 12  1  0
M  END
>  <ID>  (1) 
conformer_0

$$$$
