
     RDKit          3D

 12 12  0  0  0  0  0  0  0  0999 V2000
   23.5532  -26.7092   -3.6068 C   0  0  0  0  0  0  0  0  0  0  0  0
   23.5613  -25.8619   -5.8534 N   0  0  0  0  0  0  0  0  0  0  0  0
   25.4476  -22.3195   -9.0986 C   0  0  0  0  0  0  0  0  0  0  0  0
   23.4382  -27.1364   -5.0335 C   0  0  0  0  0  0  0  0  0  0  0  0
   24.1689  -25.2832   -3.6315 C   0  0  0  0  0  0  0  0  0  0  0  0
   23.3783  -22.5926   -6.7557 O   0  0  0  0  0  0  0  0  0  0  0  0
   25.2446  -23.6409   -9.7040 O   0  0  0  0  0  0  0  0  0  0  0  0
   23.8280  -24.6645   -4.9972 C   0  0  0  0  0  0  0  0  0  0  0  0
   24.9556  -23.8723   -5.6245 N   0  0  0  0  0  0  0  0  0  0  0  0
   25.7628  -22.5116   -7.6390 C   0  0  0  0  0  0  0  0  0  0  0  0
   27.0661  -22.6076   -7.1699 O   0  0  0  0  0  0  0  0  0  0  0  0
   24.7120  -22.9383   -6.6862 C   0  0  0  0  0  0  0  0  0  0  0  0
  1  4  1  0
  1  5  1  0
  2  4  1  0
  2  8  1  0
  3  7  1  0
  3 10  1  0
  5  8  1  0
  6 12  2  0
  8  9  1  0
  9 12  1  0
 10 11  1  0
 10 12  1  0
M  END
>  <ID>  (1) 
conformer_0

$$$$
