
     RDKit          3D

 18 19  0  0  0  0  0  0  0  0999 V2000
   26.8350  -22.1707   -4.9095 C   0  0  0  0  0  0  0  0  0  0  0  0
   22.5976  -23.7730  -10.5266 C   0  0  0  0  0  0  0  0  0  0  0  0
   25.6625  -20.3023   -5.7699 C   0  0  0  0  0  0  0  0  0  0  0  0
   23.2614  -22.3102   -8.6511 C   0  0  0  0  0  0  0  0  0  0  0  0
   26.9878  -20.6509   -5.1095 C   0  0  0  0  0  0  0  0  0  0  0  0
   25.5822  -22.4084   -7.1030 C   0  0  0  0  0  0  0  0  0  0  0  0
   23.3922  -23.5915   -9.3733 C   0  0  0  0  0  0  0  0  0  0  0  0
   25.6667  -23.4065   -8.2426 C   0  0  0  0  0  0  0  0  0  0  0  0
   23.1947  -23.7818  -11.7841 C   0  0  0  0  0  0  0  0  0  0  0  0
   21.8089  -21.7652   -8.6946 C   0  0  0  0  0  0  0  0  0  0  0  0
   20.5424  -24.5176  -11.4641 C   0  0  0  0  0  0  0  0  0  0  0  0
   25.8116  -20.8957   -7.1682 C   0  0  0  0  0  0  0  0  0  0  0  0
   26.7067  -22.8939   -6.2054 C   0  0  0  0  0  0  0  0  0  0  0  0
   24.1151  -21.1815   -8.7817 N   0  0  0  0  0  0  0  0  0  0  0  0
   21.2494  -24.0606  -10.4039 C   0  0  0  0  0  0  0  0  0  0  0  0
   21.1634  -24.6373  -12.6889 C   0  0  0  0  0  0  0  0  0  0  0  0
   22.4687  -24.2347  -12.8471 C   0  0  0  0  0  0  0  0  0  0  0  0
   24.8622  -20.2424   -8.0779 C   0  0  0  0  0  0  0  0  0  0  0  0
  1  5  1  0
  1 13  1  0
  2  7  1  0
  2  9  1  0
  2 15  1  0
  3  5  1  0
  3 12  1  0
  4  7  1  0
  4 10  1  0
  4 14  1  0
  6  8  1  0
  6 12  1  0
  6 13  1  0
  9 17  2  0
 11 15  2  0
 11 16  1  0
 12 18  1  0
 14 18  1  0
 16 17  1  0
M  END
>  <ID>  (1) 
conformer_0

$$$$
