
     RDKit          3D

 20 21  0  0  0  0  0  0  0  0999 V2000
   26.4166  -22.0505   -9.0742 O   0  0  0  0  0  0  0  0  0  0  0  0
   22.5279  -23.6070  -10.4312 C   0  0  0  0  0  0  0  0  0  0  0  0
   22.8819  -23.6080   -8.9624 C   0  0  0  0  0  0  0  0  0  0  0  0
   24.3049  -22.0499  -13.2809 C   0  0  0  0  0  0  0  0  0  0  0  0
   24.6934  -19.7056  -12.7725 C   0  0  0  0  0  0  0  0  0  0  0  0
   22.9868  -21.2276   -9.9859 O   0  0  0  0  0  0  0  0  0  0  0  0
   24.1624  -22.9402   -8.7778 C   0  0  0  0  0  0  0  0  0  0  0  0
   23.4275  -23.4334  -11.5376 O   0  0  0  0  0  0  0  0  0  0  0  0
   24.0743  -19.8600  -11.5487 C   0  0  0  0  0  0  0  0  0  0  0  0
   24.8064  -20.7861  -13.6288 C   0  0  0  0  0  0  0  0  0  0  0  0
   23.0164  -21.0931   -7.6147 C   0  0  0  0  0  0  0  0  0  0  0  0
   23.8018  -21.4691   -8.8589 C   0  0  0  0  0  0  0  0  0  0  0  0
   24.9668  -23.2997   -7.6581 C   0  0  0  0  0  0  0  0  0  0  0  0
   21.9907  -21.7569   -7.2891 O   0  0  0  0  0  0  0  0  0  0  0  0
   23.7508  -22.1768  -12.0389 C   0  0  0  0  0  0  0  0  0  0  0  0
   23.3432  -19.9237   -7.1375 O   0  0  0  0  0  0  0  0  0  0  0  0
   24.7306  -22.2522   -5.4669 O   0  0  0  0  0  0  0  0  0  0  0  0
   26.3357  -22.7799   -7.8106 C   0  0  0  0  0  0  0  0  0  0  0  0
   23.5863  -21.1124  -11.2045 C   0  0  0  0  0  0  0  0  0  0  0  0
   24.5561  -23.4640   -6.2614 C   0  0  0  0  0  0  0  0  0  0  0  0
  1 18  1  0
  2  3  1  0
  2  8  1  0
  3  7  1  0
  4 10  1  0
  4 15  2  0
  5  9  1  0
  5 10  2  0
  6 12  1  0
  6 19  1  0
  7 12  1  0
  7 13  1  0
  8 15  1  0
  9 19  2  0
 11 12  1  0
 11 14  2  0
 11 16  1  0
 13 18  1  0
 13 20  1  0
 15 19  1  0
 17 20  1  0
M  END
>  <ID>  (1) 
conformer_0

$$$$
