
     RDKit          3D

 21 22  0  0  0  0  0  0  0  0999 V2000
   25.7730  -21.8402   -7.1304 C   0  0  0  0  0  0  0  0  0  0  0  0
   22.5189  -24.0711   -6.3735 S   0  0  0  0  0  4  0  0  0  0  0  0
   23.4184  -23.4629  -10.8882 N   0  0  0  0  0  0  0  0  0  0  0  0
   23.1588  -23.7951  -12.1666 C   0  0  0  0  0  0  0  0  0  0  0  0
   23.9187  -23.2813   -7.0907 C   0  0  0  0  0  0  0  0  0  0  0  0
   22.1073  -23.2411   -5.1854 O   0  0  0  0  0  0  0  0  0  0  0  0
   22.9394  -25.4596   -5.9968 O   0  0  0  0  0  0  0  0  0  0  0  0
   22.2875  -25.4483  -13.6737 C   0  0  0  0  0  0  0  0  0  0  0  0
   24.6150  -22.4854   -9.1612 C   0  0  0  0  0  0  0  0  0  0  0  0
   25.6173  -21.7556   -8.5054 C   0  0  0  0  0  0  0  0  0  0  0  0
   24.6477  -21.5094  -11.2958 O   0  0  0  0  0  0  0  0  0  0  0  0
   22.6027  -24.6006  -14.7312 C   0  0  0  0  0  0  0  0  0  0  0  0
   23.4359  -22.9598  -13.2013 C   0  0  0  0  0  0  0  0  0  0  0  0
   23.8522  -23.2660   -8.4235 C   0  0  0  0  0  0  0  0  0  0  0  0
   26.7314  -21.1093   -6.4497 O   0  0  0  0  0  0  0  0  0  0  0  0
   23.1693  -23.3537  -14.4830 C   0  0  0  0  0  0  0  0  0  0  0  0
   22.5443  -25.0410  -12.3934 C   0  0  0  0  0  0  0  0  0  0  0  0
   24.2747  -22.4555  -10.5754 C   0  0  0  0  0  0  0  0  0  0  0  0
   26.4423  -20.9030   -9.1928 O   0  0  0  0  0  0  0  0  0  0  0  0
   24.9275  -22.6366   -6.4092 C   0  0  0  0  0  0  0  0  0  0  0  0
   21.3994  -24.0070   -7.4431 O   0  0  0  0  0  0  0  0  0  0  0  0
  1 10  2  0
  1 15  1  0
  1 20  1  0
  2  5  1  0
  2  6  1  0
  2  7  1  0
  2 21  1  0
  3  4  1  0
  3 18  1  0
  4 13  1  0
  4 17  2  0
  5 14  1  0
  5 20  2  0
  8 12  2  0
  8 17  1  0
  9 10  1  0
  9 14  2  0
  9 18  1  0
 10 19  1  0
 11 18  2  0
 12 16  1  0
 13 16  2  0
M  END
>  <ID>  (1) 
conformer_0

$$$$
