
     RDKit          3D

 28 30  0  0  0  0  0  0  0  0999 V2000
   24.3839  -21.1754   -9.8323 N   0  0  0  0  0  0  0  0  0  0  0  0
   26.2513  -20.7517  -14.3702 C   0  0  0  0  0  0  0  0  0  0  0  0
   26.3794  -19.3588   -7.4225 C   0  0  0  0  0  0  0  0  0  0  0  0
   24.1151  -21.3131  -11.2800 C   0  0  0  0  0  0  0  0  0  0  0  0
   25.2555  -23.5928   -8.9427 C   0  0  0  0  0  0  0  0  0  0  0  0
   27.0176  -22.1213   -6.8080 C   0  0  0  0  0  0  0  0  0  0  0  0
   23.6015  -21.4467  -13.9106 C   0  0  0  0  0  0  0  0  0  0  0  0
   25.5045  -20.4060   -7.9532 C   0  0  0  0  0  0  0  0  0  0  0  0
   22.0030  -21.2401   -9.0786 O   0  0  0  0  0  0  0  0  0  0  0  0
   24.9898  -20.9269  -13.5792 C   0  0  0  0  0  0  0  0  0  0  0  0
   25.1798  -20.5515  -12.1402 C   0  0  0  0  0  0  0  0  0  0  0  0
   26.4629  -19.5418  -14.6840 O   0  0  0  0  0  0  0  0  0  0  0  0
   23.3665  -21.3929   -8.8320 C   0  0  0  0  0  0  0  0  0  0  0  0
   25.4069  -20.2687   -9.4417 C   0  0  0  0  0  0  0  0  0  0  0  0
   23.7067  -24.5886   -4.7209 C   0  0  0  0  0  0  0  0  0  0  0  0
   24.9886  -23.9019   -6.6580 N   0  0  0  0  0  0  0  0  0  0  0  0
   21.7605  -22.6171   -5.8861 O   0  0  0  0  0  0  0  0  0  0  0  0
   23.4894  -22.2363   -7.5930 C   0  0  0  0  0  0  0  0  0  0  0  0
   26.9282  -21.7681  -14.5337 O   0  0  0  0  0  0  0  0  0  0  0  0
   25.7647  -21.6990   -7.4368 C   0  0  0  0  0  0  0  0  0  0  0  0
   24.1068  -22.6746  -11.5693 O   0  0  0  0  0  0  0  0  0  0  0  0
   22.7785  -20.5681  -11.6400 C   0  0  0  0  0  0  0  0  0  0  0  0
   22.4211  -21.1166  -12.9920 C   0  0  0  0  0  0  0  0  0  0  0  0
   23.7977  -24.4683   -6.1650 O   0  0  0  0  0  0  0  0  0  0  0  0
   24.8534  -22.8643   -7.7251 C   0  0  0  0  0  0  0  0  0  0  0  0
   21.2652  -21.3019   -7.7681 C   0  0  0  0  0  0  0  0  0  0  0  0
   22.1777  -22.1094   -6.9343 C   0  0  0  0  0  0  0  0  0  0  0  0
   21.1536  -19.9048   -7.3309 C   0  0  0  0  0  0  0  0  0  0  0  0
  1  4  1  0
  1 13  1  0
  1 14  1  0
  2 10  1  0
  2 12  2  0
  2 19  1  0
  3  8  1  0
  4 11  1  0
  4 21  1  0
  4 22  1  0
  5 25  1  0
  6 20  1  0
  7 10  1  0
  7 23  2  0
  8 14  1  0
  8 20  1  0
  9 13  1  0
  9 26  1  0
 10 11  1  0
 13 18  1  0
 15 24  1  0
 16 24  1  0
 16 25  1  0
 17 27  2  0
 18 25  1  0
 18 27  1  0
 20 25  1  0
 22 23  1  0
 26 27  1  0
 26 28  1  0
M  END
>  <ID>  (1) 
conformer_0

$$$$
