
     RDKit          3D

 17 17  0  0  0  0  0  0  0  0999 V2000
   23.1602  -22.6364  -12.9580 O   0  0  0  0  0  0  0  0  0  0  0  0
   25.0926  -21.6899  -11.3898 O   0  0  0  0  0  0  0  0  0  0  0  0
   23.4967  -22.5720   -8.4119 C   0  0  0  0  0  0  0  0  0  0  0  0
   23.5753  -20.0086   -8.7026 C   0  0  0  0  0  0  0  0  0  0  0  0
   25.0041  -22.2576   -6.1201 O   0  0  0  0  0  0  0  0  0  0  0  0
   26.8381  -23.3588   -6.9836 O   0  0  0  0  0  0  0  0  0  0  0  0
   25.0040  -23.0390   -8.4982 C   0  0  0  0  0  0  0  0  0  0  0  0
   24.0260  -21.3556   -9.2766 C   0  0  0  0  0  0  0  0  0  0  0  0
   23.7371  -18.9834   -9.6659 O   0  0  0  0  0  0  0  0  0  0  0  0
   25.4469  -23.2882   -6.9803 C   0  0  0  0  0  0  0  0  0  0  0  0
   25.4180  -21.6604   -8.8358 O   0  0  0  0  0  0  0  0  0  0  0  0
   24.2571  -19.6427   -7.5133 O   0  0  0  0  0  0  0  0  0  0  0  0
   23.9711  -21.9965  -10.6068 C   0  0  0  0  0  0  0  0  0  0  0  0
   23.6928  -23.4938  -10.6875 C   0  0  0  0  0  0  0  0  0  0  0  0
   23.1404  -23.6959  -12.0860 C   0  0  0  0  0  0  0  0  0  0  0  0
   22.0858  -20.1456   -8.3297 C   0  0  0  0  0  0  0  0  0  0  0  0
   24.7896  -24.4849   -6.5715 O   0  0  0  0  0  0  0  0  0  0  0  0
  1 15  1  0
  2 13  1  0
  3  7  1  0
  3  8  1  0
  4  8  1  0
  4  9  1  0
  4 12  1  0
  4 16  1  0
  5 10  1  0
  6 10  1  0
  7 10  1  0
  7 11  1  0
  8 11  1  0
  8 13  1  0
 10 17  1  0
 13 14  1  0
 14 15  1  0
M  END
>  <ID>  (1) 
conformer_0

$$$$
