
     RDKit          3D

 15 14  0  0  0  0  0  0  0  0999 V2000
   26.0867  -21.8256   -5.8039 C   0  0  0  0  0  0  0  0  0  0  0  0
   24.4668  -23.5793  -10.2481 O   0  0  0  0  0  0  0  0  0  0  0  0
   25.7492  -24.2315   -8.1988 O   0  0  0  0  0  0  0  0  0  0  0  0
   28.3851  -21.2358   -6.2272 O   0  0  0  0  0  0  0  0  0  0  0  0
   27.5648  -21.9803   -3.9847 O   0  0  0  0  0  0  0  0  0  0  0  0
   24.0776  -22.4567   -8.2172 O   0  0  0  0  0  0  0  0  0  0  0  0
   22.8623  -24.7202  -11.4099 O   0  0  0  0  0  0  0  0  0  0  0  0
   23.3970  -23.5815  -11.2249 C   0  0  0  0  0  0  0  0  0  0  0  0
   25.2558  -22.9948   -7.9846 C   0  0  0  0  0  0  0  0  0  0  0  0
   23.1344  -22.5504  -11.9240 O   0  0  0  0  0  0  0  0  0  0  0  0
   25.0606  -21.2489   -4.9400 O   0  0  0  0  0  0  0  0  0  0  0  0
   27.4593  -21.3667   -5.1966 C   0  0  0  0  0  0  0  0  0  0  0  0
   26.4112  -20.9202   -8.2583 O   0  0  0  0  0  0  0  0  0  0  0  0
   26.2383  -21.9620   -7.3745 C   0  0  0  0  0  0  0  0  0  0  0  0
   24.7505  -22.4019   -9.4095 C   0  0  0  0  0  0  0  0  0  0  0  0
  1 11  1  0
  1 12  1  0
  1 14  1  0
  2  8  1  0
  2 15  1  0
  3  9  2  0
  4 12  2  0
  5 12  1  0
  6  9  1  0
  6 15  1  0
  7  8  2  0
  8 10  1  0
  9 14  1  0
 13 14  1  0
M  END
>  <ID>  (1) 
conformer_0

$$$$
