
     RDKit          3D

 11 13  0  0  0  0  0  0  0  0999 V2000
   23.3814  -23.7449  -10.8190 C   0  0  0  0  0  0  0  0  0  0  0  0
   25.4949  -21.0805   -9.8728 O   0  0  0  0  0  0  0  0  0  0  0  0
   25.2137  -23.5672   -7.3312 C   0  0  0  0  0  0  0  0  0  0  0  0
   26.7104  -21.9143   -7.6456 C   0  0  0  0  0  0  0  0  0  0  0  0
   24.5474  -21.7021  -10.7319 C   0  0  0  0  0  0  0  0  0  0  0  0
   23.5299  -23.3220  -12.1657 O   0  0  0  0  0  0  0  0  0  0  0  0
   24.8303  -22.9115   -8.6554 C   0  0  0  0  0  0  0  0  0  0  0  0
   23.9283  -21.9197  -12.0719 C   0  0  0  0  0  0  0  0  0  0  0  0
   24.1146  -22.8394   -9.9580 N   0  0  0  0  0  0  0  0  0  0  0  0
   25.6521  -21.6730   -8.6056 C   0  0  0  0  0  0  0  0  0  0  0  0
   26.5956  -23.2173   -7.0713 O   0  0  0  0  0  0  0  0  0  0  0  0
  1  6  1  0
  1  9  1  0
  2  5  1  0
  2 10  1  0
  3  7  1  0
  3 11  1  0
  4 10  1  0
  4 11  1  0
  5  8  1  0
  5  9  1  0
  6  8  1  0
  7  9  1  0
  7 10  1  0
M  END
>  <ID>  (1) 
conformer_0

$$$$
