
     RDKit          3D

 11 11  0  0  0  0  0  0  0  0999 V2000
   23.9945  -23.4703  -10.6936 O   0  0  0  0  0  0  0  0  0  0  0  0
   22.6676  -24.6558   -6.7262 C   0  0  0  0  0  0  0  0  0  0  0  0
   25.1623  -23.3193   -7.2547 C   0  0  0  0  0  0  0  0  0  0  0  0
   24.4964  -23.6762   -8.4213 N   0  0  0  0  0  0  0  0  0  0  0  0
   25.3321  -21.7047   -9.7819 C   0  0  0  0  0  0  0  0  0  0  0  0
   26.1450  -21.0175   -8.7325 C   0  0  0  0  0  0  0  0  0  0  0  0
   26.6357  -22.3581   -7.3457 S   0  0  0  0  0  0  0  0  0  0  0  0
   25.4498  -21.2308  -11.0551 O   0  0  0  0  0  0  0  0  0  0  0  0
   24.9153  -23.8790   -6.0034 N   0  0  0  0  0  0  0  0  0  0  0  0
   23.8989  -24.7986   -5.8460 C   0  0  0  0  0  0  0  0  0  0  0  0
   24.6073  -22.9663   -9.6064 C   0  0  0  0  0  0  0  0  0  0  0  0
  1 11  2  0
  2 10  1  0
  3  4  1  0
  3  7  1  0
  3  9  2  3
  4 11  1  0
  5  6  1  0
  5  8  1  0
  5 11  1  0
  6  7  1  0
  9 10  1  0
M  END
>  <ID>  (1) 
conformer_0

$$$$
