
     RDKit          3D

 11 11  0  0  0  0  0  0  0  0999 V2000
   24.0133  -23.9208   -6.8782 N   0  0  0  0  0  0  0  0  0  0  0  0
   26.0865  -21.9214   -6.8449 C   0  0  0  0  0  0  0  0  0  0  0  0
   24.2350  -21.5231  -11.9847 O   0  0  0  0  0  0  0  0  0  0  0  0
   25.1491  -22.4132  -10.1437 N   0  0  0  0  0  0  0  0  0  0  0  0
   25.9867  -22.8910   -5.6468 C   0  0  0  0  0  0  0  0  0  0  0  0
   24.4565  -23.3246   -5.5638 C   0  0  0  0  0  0  0  0  0  0  0  0
   25.1618  -23.1142   -8.9380 C   0  0  0  0  0  0  0  0  0  0  0  0
   23.6025  -23.5460  -11.3350 O   0  0  0  0  0  0  0  0  0  0  0  0
   26.2437  -22.7896   -8.0569 C   0  0  0  0  0  0  0  0  0  0  0  0
   23.8197  -23.4047   -8.3068 C   0  0  0  0  0  0  0  0  0  0  0  0
   24.2491  -22.5112  -11.1480 C   0  0  0  0  0  0  0  0  0  0  0  0
  1  6  1  0
  1 10  1  0
  2  5  1  0
  2  9  1  0
  3 11  2  0
  4  7  1  0
  4 11  1  0
  5  6  1  0
  7  9  1  0
  7 10  1  0
  8 11  1  0
M  END
>  <ID>  (1) 
conformer_0

$$$$
