
     RDKit          3D

 36 38  0  0  0  0  0  0  0  0999 V2000
   -8.9491   29.6704   -3.8575 O   0  0  0  0  0  0  0  0  0  0  0  0
   -5.3470   29.7846   -4.4442 N   0  0  0  0  0  0  0  0  0  0  0  0
   -6.3899   33.5454   -2.3651 O   0  0  0  0  0  0  0  0  0  0  0  0
   -1.5333   28.6448   -2.5195 N   0  0  0  0  0  0  0  0  0  0  0  0
   -4.7754   27.4863   -7.2435 C   0  0  0  0  0  0  0  0  0  0  0  0
   -4.7006   28.7778   -5.0056 C   0  0  0  0  0  0  0  0  0  0  0  0
   -4.6171   30.2424   -3.3527 C   0  0  0  0  0  0  0  0  0  0  0  0
  -10.8844   32.8702   -0.8311 N   0  0  0  0  0  0  0  0  0  0  0  0
   -8.0215   27.5324   -6.6277 C   0  0  0  0  0  0  0  0  0  0  0  0
  -10.1442   29.3519   -4.5369 C   0  0  0  0  0  0  0  0  0  0  0  0
   -2.4988   29.4368   -2.4050 C   0  0  0  0  0  0  0  0  0  0  0  0
   -9.9517   31.2978   -2.3788 C   0  0  0  0  0  0  0  0  0  0  0  0
   -2.6765   30.2990   -1.3966 N   0  0  0  0  0  0  0  0  0  0  0  0
   -3.4984   29.4599   -3.4035 C   0  0  0  0  0  0  0  0  0  0  0  0
  -10.1404   28.4939   -5.7109 C   0  0  0  0  0  0  0  0  0  0  0  0
  -11.5669   33.7489    3.2287 N   0  0  0  0  0  0  0  0  0  0  0  0
   -8.8633   30.8361   -3.1274 C   0  0  0  0  0  0  0  0  0  0  0  0
   -5.4189   27.8895   -5.9564 C   0  0  0  0  0  0  0  0  0  0  0  0
   -3.4868   28.6316   -4.4596 N   0  0  0  0  0  0  0  0  0  0  0  0
   -4.7145   31.2118   -2.2872 C   0  0  0  0  0  0  0  0  0  0  0  0
   -8.6769   33.2024   -1.6670 C   0  0  0  0  0  0  0  0  0  0  0  0
   -3.6799   31.1941   -1.3007 C   0  0  0  0  0  0  0  0  0  0  0  0
  -11.6324   32.7288    0.2403 N   0  0  0  0  0  0  0  0  0  0  0  0
  -11.0369   32.4611    1.4578 C   0  0  0  0  0  0  0  0  0  0  0  0
  -12.8992   32.7549    0.0574 O   0  0  0  0  0  0  0  0  0  0  0  0
   -9.8572   32.4272   -1.5764 C   0  0  0  0  0  0  0  0  0  0  0  0
  -11.4055   28.1737   -6.2151 N   0  0  0  0  0  0  0  0  0  0  0  0
   -6.8413   27.6982   -5.7391 C   0  0  0  0  0  0  0  0  0  0  0  0
   -9.0535   28.4013   -6.5085 O   0  0  0  0  0  0  0  0  0  0  0  0
   -8.6802   34.4271   -1.1255 O   0  0  0  0  0  0  0  0  0  0  0  0
  -12.3498   34.4258    2.5626 S   0  0  0  0  0  0  0  0  0  0  0  0
   -7.6098   32.7678   -2.4027 C   0  0  0  0  0  0  0  0  0  0  0  0
  -10.0098   31.7819    3.5129 C   0  0  0  0  0  0  0  0  0  0  0  0
   -7.6872   31.5896   -3.2082 C   0  0  0  0  0  0  0  0  0  0  0  0
  -10.8507   32.6940    2.7176 C   0  0  0  0  0  0  0  0  0  0  0  0
   -7.9736   26.5469   -7.4247 O   0  0  0  0  0  0  0  0  0  0  0  0
  1 10  1  0
  1 17  1  0
  2  6  2  0
  2  7  1  0
  3 32  1  0
  4 11  2  0
  5 18  1  0
  6 18  1  0
  6 19  1  0
  7 14  2  0
  7 20  1  0
  8 23  1  0
  8 26  1  0
  9 28  1  0
  9 29  1  0
  9 36  2  0
 10 15  1  0
 11 13  1  0
 11 14  1  0
 12 17  2  0
 12 26  1  0
 13 22  2  0
 14 19  1  0
 15 27  1  0
 15 29  1  0
 16 31  1  0
 16 35  2  3
 17 34  1  0
 18 28  1  0
 20 22  1  0
 21 26  2  0
 21 30  1  0
 21 32  1  0
 23 24  1  0
 23 25  1  0
 24 35  1  0
 32 34  2  0
 33 35  1  0
M  END
>  <ID>  (1) 
conformer_0

$$$$
