
     RDKit          3D

 31 35  0  0  0  0  0  0  0  0999 V2000
   -9.6220   31.9038   -1.9822 O   0  0  0  0  0  0  0  0  0  0  0  0
   -5.7469   29.1196   -4.8568 C   0  0  0  0  0  0  0  0  0  0  0  0
   -9.3699   29.1788   -5.1633 C   0  0  0  0  0  0  0  0  0  0  0  0
   -2.4573   29.1632   -4.2176 C   0  0  0  0  0  0  0  0  0  0  0  0
   -8.2075   30.3222   -3.3480 C   0  0  0  0  0  0  0  0  0  0  0  0
   -7.0475   28.6931   -5.1615 C   0  0  0  0  0  0  0  0  0  0  0  0
  -11.9170   33.3280    1.9490 C   0  0  0  0  0  0  0  0  0  0  0  0
   -9.3879   31.0628   -3.1017 C   0  0  0  0  0  0  0  0  0  0  0  0
  -10.4223   30.9657   -4.0512 C   0  0  0  0  0  0  0  0  0  0  0  0
   -4.8083   27.5277   -6.4981 C   0  0  0  0  0  0  0  0  0  0  0  0
  -10.9737   32.5247    0.0400 N   0  0  0  0  0  0  0  0  0  0  0  0
   -4.6940   28.5257   -5.5743 C   0  0  0  0  0  0  0  0  0  0  0  0
  -11.1147   32.3298    1.4767 C   0  0  0  0  0  0  0  0  0  0  0  0
   -3.7741   32.2348   -0.0501 O   0  0  0  0  0  0  0  0  0  0  0  0
   -5.6976   30.1413   -3.8898 N   0  0  0  0  0  0  0  0  0  0  0  0
   -1.4987   29.2788   -2.9928 N   0  0  0  0  0  0  0  0  0  0  0  0
  -11.6070   29.7926   -5.9331 C   0  0  0  0  0  0  0  0  0  0  0  0
  -11.4297   31.8847   -4.1114 O   0  0  0  0  0  0  0  0  0  0  0  0
   -4.7123   30.4365   -3.0083 C   0  0  0  0  0  0  0  0  0  0  0  0
   -6.0949   27.0705   -6.7460 C   0  0  0  0  0  0  0  0  0  0  0  0
  -10.4579   29.9745   -5.0369 C   0  0  0  0  0  0  0  0  0  0  0  0
   -3.4264   29.8434   -3.3076 C   0  0  0  0  0  0  0  0  0  0  0  0
   -3.7552   31.3586   -1.0112 C   0  0  0  0  0  0  0  0  0  0  0  0
  -10.2108   31.7973   -0.8265 C   0  0  0  0  0  0  0  0  0  0  0  0
   -7.1760   27.6328   -6.0995 C   0  0  0  0  0  0  0  0  0  0  0  0
  -11.7898   33.5750   -0.2866 N   0  0  0  0  0  0  0  0  0  0  0  0
   -2.4603   29.9259   -2.2838 C   0  0  0  0  0  0  0  0  0  0  0  0
   -4.8182   31.2886   -1.9295 C   0  0  0  0  0  0  0  0  0  0  0  0
  -12.3097   34.0988    0.8617 N   0  0  0  0  0  0  0  0  0  0  0  0
   -2.6746   30.5731   -1.1989 N   0  0  0  0  0  0  0  0  0  0  0  0
   -8.1468   29.4167   -4.4846 C   0  0  0  0  0  0  0  0  0  0  0  0
  1  8  1  0
  1 24  1  0
  2  6  2  0
  2 12  1  0
  2 15  1  0
  3 21  2  0
  3 31  1  0
  4 16  1  0
  4 22  1  0
  5  8  2  0
  5 31  1  0
  6 25  1  0
  6 31  1  0
  7 13  1  0
  7 29  1  0
  8  9  1  0
  9 18  1  0
  9 21  1  0
 10 12  2  0
 10 20  1  0
 11 13  1  0
 11 24  1  0
 11 26  1  0
 14 23  2  0
 15 19  1  0
 16 27  1  0
 17 21  1  0
 19 22  1  0
 19 28  2  0
 20 25  2  0
 22 27  1  0
 23 28  1  0
 23 30  1  0
 26 29  1  0
 27 30  2  0
M  END
>  <ID>  (1) 
conformer_0

$$$$
