
     RDKit          3D

 46 51  0  0  0  0  0  0  0  0999 V2000
   -0.5927   28.8097   -4.3745 C   0  0  0  0  0  0  0  0  0  0  0  0
   -9.1162   28.1489   -6.1144 C   0  0  0  0  0  0  0  0  0  0  0  0
  -11.0078   31.9422   -3.9773 O   0  0  0  0  0  0  0  0  0  0  0  0
   -3.3115   27.9102   -5.5356 O   0  0  0  0  0  0  0  0  0  0  0  0
   -9.6803   27.6020   -7.1610 O   0  0  0  0  0  0  0  0  0  0  0  0
   -4.1423   29.5583   -4.0314 C   0  0  0  0  0  0  0  0  0  0  0  0
  -11.2583   29.1567   -5.6017 N   0  0  0  0  0  0  0  0  0  0  0  0
  -11.2077   32.0670   -0.7958 N   0  0  0  0  0  0  0  0  0  0  0  0
   -9.5232   29.3798   -3.9166 C   0  0  0  0  0  0  0  0  0  0  0  0
  -11.3170   32.9234    1.5250 C   0  0  0  0  0  0  0  0  0  0  0  0
   -9.8015   33.4975    4.0508 C   0  0  0  0  0  0  0  0  0  0  0  0
  -10.1351   32.1272    3.6659 C   0  0  0  0  0  0  0  0  0  0  0  0
  -10.7233   31.9111    2.3893 C   0  0  0  0  0  0  0  0  0  0  0  0
   -5.1971   29.1029   -4.9909 C   0  0  0  0  0  0  0  0  0  0  0  0
  -10.1486   31.6470   -3.0076 C   0  0  0  0  0  0  0  0  0  0  0  0
  -10.6655   34.5132    3.4360 C   0  0  0  0  0  0  0  0  0  0  0  0
   -9.8361   29.2406   -5.3749 C   0  0  0  0  0  0  0  0  0  0  0  0
   -3.1112   30.3481    0.6220 O   0  0  0  0  0  0  0  0  0  0  0  0
   -2.9717   28.8503   -4.5900 C   0  0  0  0  0  0  0  0  0  0  0  0
   -3.6640   30.2836   -2.7636 C   0  0  0  0  0  0  0  0  0  0  0  0
   -5.8453   32.1657   -3.0002 C   0  0  0  0  0  0  0  0  0  0  0  0
   -7.8989   30.7413   -2.6269 C   0  0  0  0  0  0  0  0  0  0  0  0
    0.6209   27.8792   -6.2371 C   0  0  0  0  0  0  0  0  0  0  0  0
   -5.3348   27.1604   -6.5940 O   0  0  0  0  0  0  0  0  0  0  0  0
   -7.3827   32.1746   -2.7655 C   0  0  0  0  0  0  0  0  0  0  0  0
   -5.1862   32.9137   -1.9729 C   0  0  0  0  0  0  0  0  0  0  0  0
   -1.9790   29.7745   -1.2776 N   0  0  0  0  0  0  0  0  0  0  0  0
   -4.6658   28.0173   -5.8306 C   0  0  0  0  0  0  0  0  0  0  0  0
   -3.8838   30.9965   -1.4959 C   0  0  0  0  0  0  0  0  0  0  0  0
  -11.4305   34.2479    2.1916 C   0  0  0  0  0  0  0  0  0  0  0  0
    1.8356   28.7359   -4.3417 C   0  0  0  0  0  0  0  0  0  0  0  0
   -2.9126   30.4110   -0.5959 C   0  0  0  0  0  0  0  0  0  0  0  0
   -1.8376   29.1035   -3.7522 C   0  0  0  0  0  0  0  0  0  0  0  0
    0.6055   29.0941   -3.7272 C   0  0  0  0  0  0  0  0  0  0  0  0
   -4.1763   32.3476   -1.1957 C   0  0  0  0  0  0  0  0  0  0  0  0
   -6.6581   34.9543   -1.8985 C   0  0  0  0  0  0  0  0  0  0  0  0
   -5.9743   33.8898   -1.2560 C   0  0  0  0  0  0  0  0  0  0  0  0
    1.8392   28.1231   -5.5758 C   0  0  0  0  0  0  0  0  0  0  0  0
   -7.6270   27.9769   -6.0064 C   0  0  0  0  0  0  0  0  0  0  0  0
   -6.7224   27.1961   -6.9118 C   0  0  0  0  0  0  0  0  0  0  0  0
  -11.9204   32.6060    0.2291 C   0  0  0  0  0  0  0  0  0  0  0  0
   -2.2716   29.7124   -2.5699 C   0  0  0  0  0  0  0  0  0  0  0  0
   -0.5339   28.2348   -5.6645 C   0  0  0  0  0  0  0  0  0  0  0  0
  -10.2373   32.0345   -1.6524 C   0  0  0  0  0  0  0  0  0  0  0  0
   -9.1669   30.6836   -3.3555 N   0  0  0  0  0  0  0  0  0  0  0  0
  -13.1849   32.6268    0.1396 O   0  0  0  0  0  0  0  0  0  0  0  0
  1 33  1  0
  1 34  1  0
  1 43  2  0
  2  5  1  0
  2 17  1  0
  2 39  2  0
  3 15  2  0
  4 19  1  0
  4 28  1  0
  6 14  1  0
  6 19  2  0
  6 20  1  0
  7 17  1  0
  8 41  1  0
  8 44  1  0
  9 17  1  0
  9 45  1  0
 10 13  2  0
 10 30  1  0
 10 41  1  0
 11 12  1  0
 11 16  1  0
 12 13  1  0
 14 28  1  0
 15 44  1  0
 15 45  1  0
 16 30  2  0
 18 32  2  0
 19 33  1  0
 20 29  1  0
 20 42  1  0
 21 25  1  0
 21 26  1  0
 22 25  1  0
 22 45  1  0
 23 38  2  0
 23 43  1  0
 24 28  1  0
 24 40  1  0
 26 35  1  0
 26 37  1  0
 27 32  1  0
 27 42  1  0
 29 32  1  0
 29 35  1  0
 31 34  2  0
 31 38  1  0
 33 42  1  0
 36 37  1  0
 39 40  1  0
 41 46  2  0
M  END
>  <ID>  (1) 
conformer_0

$$$$
