
     RDKit          3D

 27 28  0  0  0  0  0  0  0  0999 V2000
   -2.6125   29.3536   -3.2319 C   0  0  0  0  0  0  0  0  0  0  0  0
  -10.5172   30.0045   -5.1671 C   0  0  0  0  0  0  0  0  0  0  0  0
  -10.9185   32.2088   -0.5149 N   0  0  0  0  0  0  0  0  0  0  0  0
   -9.2044   31.3106   -3.3645 C   0  0  0  0  0  0  0  0  0  0  0  0
  -11.1102   30.3856   -6.2672 O   0  0  0  0  0  0  0  0  0  0  0  0
   -5.0452   29.7263   -3.6927 C   0  0  0  0  0  0  0  0  0  0  0  0
   -6.2020   29.2234   -4.4103 C   0  0  0  0  0  0  0  0  0  0  0  0
   -7.9184   33.4513   -2.1458 Cl  0  0  0  0  0  0  0  0  0  0  0  0
   -3.0072   31.5110   -0.2121 O   0  0  0  0  0  0  0  0  0  0  0  0
   -9.2993   32.1704   -2.2376 C   0  0  0  0  0  0  0  0  0  0  0  0
   -3.3312   31.0769   -1.3260 C   0  0  0  0  0  0  0  0  0  0  0  0
  -10.4277   30.9822   -4.0868 C   0  0  0  0  0  0  0  0  0  0  0  0
   -5.2296   30.8380   -2.7889 C   0  0  0  0  0  0  0  0  0  0  0  0
  -11.5535   32.5802    0.6266 C   0  0  0  0  0  0  0  0  0  0  0  0
  -12.4765   33.6086    0.5986 N   0  0  0  0  0  0  0  0  0  0  0  0
   -2.7209   30.0035   -1.9605 N   0  0  0  0  0  0  0  0  0  0  0  0
   -4.9050   27.6612   -5.6841 C   0  0  0  0  0  0  0  0  0  0  0  0
  -12.5263   34.4049    1.7682 C   0  0  0  0  0  0  0  0  0  0  0  0
   -7.3751   29.7712   -4.1260 C   0  0  0  0  0  0  0  0  0  0  0  0
  -10.2231   32.1819   -1.3710 C   0  0  0  0  0  0  0  0  0  0  0  0
   -6.1136   28.2229   -5.3546 C   0  0  0  0  0  0  0  0  0  0  0  0
   -3.8259   29.0666   -3.9894 C   0  0  0  0  0  0  0  0  0  0  0  0
  -10.3947   28.7036   -4.9542 O   0  0  0  0  0  0  0  0  0  0  0  0
   -8.0498   30.6574   -3.6626 C   0  0  0  0  0  0  0  0  0  0  0  0
   -4.5307   31.6516   -1.9728 C   0  0  0  0  0  0  0  0  0  0  0  0
   -3.7517   28.0977   -5.0159 C   0  0  0  0  0  0  0  0  0  0  0  0
  -11.3253   31.9318    1.7173 O   0  0  0  0  0  0  0  0  0  0  0  0
  1 16  1  0
  1 22  1  0
  2  5  2  0
  2 12  1  0
  2 23  1  0
  3 14  1  0
  3 20  1  0
  4 10  1  0
  4 12  1  0
  4 24  2  0
  6  7  1  0
  6 13  2  0
  6 22  1  0
  7 19  1  0
  7 21  2  0
  8 10  1  0
  9 11  2  0
 10 20  1  0
 11 16  1  0
 11 25  1  0
 13 25  1  0
 14 15  1  0
 14 27  2  0
 15 18  1  0
 17 21  1  0
 17 26  2  0
 19 24  2  0
 22 26  1  0
M  END
>  <ID>  (1) 
conformer_0

$$$$
