
     RDKit          3D

 33 35  0  0  0  0  0  0  0  0999 V2000
   -5.4837   31.8312   -2.3284 N   0  0  0  0  0  0  0  0  0  0  0  0
  -12.7972   34.4059    1.3876 O   0  0  0  0  0  0  0  0  0  0  0  0
   -9.1861   29.5791   -4.7873 C   0  0  0  0  0  0  0  0  0  0  0  0
   -8.0216   28.8397   -5.1845 N   0  0  0  0  0  0  0  0  0  0  0  0
   -3.9756   32.6121   -0.7294 C   0  0  0  0  0  0  0  0  0  0  0  0
  -10.3933   29.6863   -5.5919 C   0  0  0  0  0  0  0  0  0  0  0  0
   -6.5319   30.0837   -3.6419 C   0  0  0  0  0  0  0  0  0  0  0  0
   -6.7676   29.0283   -4.5770 C   0  0  0  0  0  0  0  0  0  0  0  0
   -5.8987   34.0754   -1.5081 C   0  0  0  0  0  0  0  0  0  0  0  0
   -9.9832   31.4971    0.4043 C   0  0  0  0  0  0  0  0  0  0  0  0
   -4.1163   29.8685   -3.0967 C   0  0  0  0  0  0  0  0  0  0  0  0
   -7.9338   27.8360   -6.3183 C   0  0  0  0  0  0  0  0  0  0  0  0
   -6.1037   34.3244   -2.8322 O   0  0  0  0  0  0  0  0  0  0  0  0
   -7.6790   30.7770   -3.3196 C   0  0  0  0  0  0  0  0  0  0  0  0
  -11.3537   32.6455    1.9967 N   0  0  0  0  0  0  0  0  0  0  0  0
  -10.4230   31.8792   -1.9884 C   0  0  0  0  0  0  0  0  0  0  0  0
   -5.7721   25.8444   -8.1157 O   0  0  0  0  0  0  0  0  0  0  0  0
  -10.6693   28.8426   -6.5357 O   0  0  0  0  0  0  0  0  0  0  0  0
   -6.7886   34.6416   -0.6113 C   0  0  0  0  0  0  0  0  0  0  0  0
  -10.4149   31.7001    1.6884 C   0  0  0  0  0  0  0  0  0  0  0  0
   -6.6356   26.0767   -9.2525 C   0  0  0  0  0  0  0  0  0  0  0  0
   -6.5289   27.1900   -6.3403 C   0  0  0  0  0  0  0  0  0  0  0  0
   -3.4657   31.2576   -0.8851 C   0  0  0  0  0  0  0  0  0  0  0  0
   -3.1459   30.2983   -1.9944 C   0  0  0  0  0  0  0  0  0  0  0  0
  -11.9617   33.3871    1.0366 C   0  0  0  0  0  0  0  0  0  0  0  0
   -5.2288   32.7945   -1.4150 C   0  0  0  0  0  0  0  0  0  0  0  0
   -5.3643   30.5676   -2.9074 C   0  0  0  0  0  0  0  0  0  0  0  0
  -10.7317   32.1224   -0.6031 C   0  0  0  0  0  0  0  0  0  0  0  0
   -8.9671   30.4802   -3.6448 C   0  0  0  0  0  0  0  0  0  0  0  0
   -5.7579   27.3188   -7.6025 C   0  0  0  0  0  0  0  0  0  0  0  0
  -11.2613   30.6672   -5.4259 O   0  0  0  0  0  0  0  0  0  0  0  0
   -9.9139   30.9527   -2.6910 N   0  0  0  0  0  0  0  0  0  0  0  0
  -11.6835   33.1234   -0.2725 C   0  0  0  0  0  0  0  0  0  0  0  0
  1 26  1  0
  1 27  1  0
  2 25  2  0
  3  4  1  0
  3  6  1  0
  3 29  1  0
  4  8  1  0
  4 12  1  0
  5 23  1  0
  5 26  1  0
  6 18  2  0
  6 31  1  0
  7  8  1  0
  7 14  2  0
  7 27  1  0
  9 13  1  0
  9 19  1  0
  9 26  1  0
 10 20  1  0
 10 28  1  0
 11 24  1  0
 11 27  1  0
 12 22  1  0
 14 29  1  0
 15 20  2  0
 15 25  1  0
 16 28  1  0
 16 32  1  0
 17 21  1  0
 17 30  1  0
 22 30  1  0
 23 24  1  0
 25 33  1  0
 28 33  2  0
 29 32  1  0
M  END
>  <ID>  (1) 
conformer_0

$$$$
