
     RDKit          3D

 31 34  0  0  0  0  0  0  0  0999 V2000
   -8.7528   29.5479   -3.8655 C   0  0  0  0  0  0  0  0  0  0  0  0
  -10.4030   32.1785    2.9895 C   0  0  0  0  0  0  0  0  0  0  0  0
  -11.6362   34.1276    1.5834 C   0  0  0  0  0  0  0  0  0  0  0  0
  -10.8427   31.8899    1.7639 C   0  0  0  0  0  0  0  0  0  0  0  0
  -10.7814   32.0839   -1.2771 N   0  0  0  0  0  0  0  0  0  0  0  0
   -6.8254   35.1972   -1.5518 C   0  0  0  0  0  0  0  0  0  0  0  0
   -2.7048   29.9905   -2.6042 C   0  0  0  0  0  0  0  0  0  0  0  0
  -11.3803   32.8718    1.0209 C   0  0  0  0  0  0  0  0  0  0  0  0
   -7.0029   26.2211   -6.5967 N   0  0  0  0  0  0  0  0  0  0  0  0
   -4.9813   30.6468   -2.8114 C   0  0  0  0  0  0  0  0  0  0  0  0
  -11.0761   34.4238    2.8474 C   0  0  0  0  0  0  0  0  0  0  0  0
   -9.6765   30.3432   -3.1020 C   0  0  0  0  0  0  0  0  0  0  0  0
   -8.6620   28.3511   -4.8272 C   0  0  0  0  0  0  0  0  0  0  0  0
   -4.0558   29.0522   -4.3366 C   0  0  0  0  0  0  0  0  0  0  0  0
   -2.8307   29.1659   -3.6986 C   0  0  0  0  0  0  0  0  0  0  0  0
  -11.6669   32.4313   -0.3927 C   0  0  0  0  0  0  0  0  0  0  0  0
  -12.9435   32.3534   -0.6280 O   0  0  0  0  0  0  0  0  0  0  0  0
   -6.4919   29.4665   -4.4789 C   0  0  0  0  0  0  0  0  0  0  0  0
   -8.8295   33.6055   -1.3577 C   0  0  0  0  0  0  0  0  0  0  0  0
   -3.8064   30.7623   -2.1876 N   0  0  0  0  0  0  0  0  0  0  0  0
  -10.4283   33.4268    3.5406 C   0  0  0  0  0  0  0  0  0  0  0  0
   -7.0734   27.6415   -6.5020 C   0  0  0  0  0  0  0  0  0  0  0  0
  -10.0127   31.1077    3.7864 F   0  0  0  0  0  0  0  0  0  0  0  0
   -9.5666   32.3864   -1.7096 N   0  0  0  0  0  0  0  0  0  0  0  0
   -7.5385   33.9491   -2.2253 C   0  0  0  0  0  0  0  0  0  0  0  0
   -5.1702   29.7424   -3.8748 C   0  0  0  0  0  0  0  0  0  0  0  0
   -7.7051   31.3038   -2.8768 N   0  0  0  0  0  0  0  0  0  0  0  0
   -8.9888   31.4235   -2.5192 C   0  0  0  0  0  0  0  0  0  0  0  0
   -7.5591   30.1811   -3.6863 N   0  0  0  0  0  0  0  0  0  0  0  0
   -9.8993   33.5888    4.7771 Cl  0  0  0  0  0  0  0  0  0  0  0  0
   -7.0552   28.1699   -5.0716 C   0  0  0  0  0  0  0  0  0  0  0  0
  1 12  1  0
  1 13  1  0
  1 29  1  0
  2  4  2  0
  2 21  1  0
  2 23  1  0
  3  8  2  0
  3 11  1  0
  4  8  1  0
  5 16  1  0
  5 24  1  0
  6 25  1  0
  7 15  2  0
  7 20  1  0
  8 16  1  0
  9 22  1  0
 10 20  2  0
 10 26  1  0
 11 21  2  0
 12 28  1  0
 13 31  1  0
 14 15  1  0
 14 26  2  0
 16 17  2  0
 18 26  1  0
 18 29  1  0
 18 31  1  0
 19 24  1  0
 19 25  1  0
 21 30  1  0
 22 31  1  0
 24 28  1  0
 27 28  2  0
 27 29  1  0
M  END
>  <ID>  (1) 
conformer_0

$$$$
