
     RDKit          3D

 36 40  0  0  0  0  0  0  0  0999 V2000
   -2.2168   29.3418   -3.9877 C   0  0  0  0  0  0  0  0  0  0  0  0
  -11.1094   32.7124    2.4008 C   0  0  0  0  0  0  0  0  0  0  0  0
  -12.0877   33.7186    2.5269 C   0  0  0  0  0  0  0  0  0  0  0  0
   -5.5100   30.0842   -3.4872 C   0  0  0  0  0  0  0  0  0  0  0  0
   -2.9645   30.4487   -1.9584 O   0  0  0  0  0  0  0  0  0  0  0  0
   -6.5675   27.3677   -6.0486 C   0  0  0  0  0  0  0  0  0  0  0  0
   -7.2564   26.5152   -8.1479 C   0  0  0  0  0  0  0  0  0  0  0  0
   -6.0433   26.9143   -7.3740 C   0  0  0  0  0  0  0  0  0  0  0  0
  -10.4620   32.2061    3.6421 C   0  0  0  0  0  0  0  0  0  0  0  0
   -9.5237   31.8451   -2.0122 C   0  0  0  0  0  0  0  0  0  0  0  0
   -7.9686   27.9963   -6.2768 C   0  0  0  0  0  0  0  0  0  0  0  0
  -11.2898   32.6027    0.0607 C   0  0  0  0  0  0  0  0  0  0  0  0
  -12.2497   33.6099    0.1448 N   0  0  0  0  0  0  0  0  0  0  0  0
   -4.3367   29.6596   -3.4545 N   0  0  0  0  0  0  0  0  0  0  0  0
   -1.8333   28.2534   -6.1043 C   0  0  0  0  0  0  0  0  0  0  0  0
    0.0342   28.8841   -4.7057 C   0  0  0  0  0  0  0  0  0  0  0  0
   -8.8556   29.5850   -4.5678 N   0  0  0  0  0  0  0  0  0  0  0  0
   -8.1490   32.0058   -2.4868 N   0  0  0  0  0  0  0  0  0  0  0  0
   -9.1330   28.5941   -5.4835 C   0  0  0  0  0  0  0  0  0  0  0  0
   -6.4621   29.3264   -4.1899 C   0  0  0  0  0  0  0  0  0  0  0  0
   -7.6559   29.9763   -3.9980 C   0  0  0  0  0  0  0  0  0  0  0  0
  -10.8339   31.9860   -1.2682 C   0  0  0  0  0  0  0  0  0  0  0  0
  -10.5455   28.3353   -5.8127 C   0  0  0  0  0  0  0  0  0  0  0  0
   -7.1871   32.9189   -2.0149 C   0  0  0  0  0  0  0  0  0  0  0  0
   -8.4299   27.1608   -7.4963 C   0  0  0  0  0  0  0  0  0  0  0  0
   -3.1451   29.8629   -2.9989 C   0  0  0  0  0  0  0  0  0  0  0  0
   -7.4954   31.0717   -3.1833 C   0  0  0  0  0  0  0  0  0  0  0  0
  -10.7772   32.1552    1.1959 N   0  0  0  0  0  0  0  0  0  0  0  0
   -5.8823   32.3758   -2.1910 C   0  0  0  0  0  0  0  0  0  0  0  0
   -6.5284   35.0710   -1.4641 C   0  0  0  0  0  0  0  0  0  0  0  0
   -0.4489   28.3306   -5.8892 N   0  0  0  0  0  0  0  0  0  0  0  0
   -2.6875   28.7567   -5.1725 C   0  0  0  0  0  0  0  0  0  0  0  0
   -6.0930   31.1980   -2.9189 C   0  0  0  0  0  0  0  0  0  0  0  0
   -7.5593   34.0894   -1.5446 O   0  0  0  0  0  0  0  0  0  0  0  0
   -0.8781   29.3966   -3.7561 C   0  0  0  0  0  0  0  0  0  0  0  0
  -12.6323   34.1407    1.3588 C   0  0  0  0  0  0  0  0  0  0  0  0
  1 26  1  0
  1 32  2  0
  1 35  1  0
  2  3  1  0
  2  9  1  0
  2 28  1  0
  3 36  2  0
  4 14  2  3
  4 20  1  0
  4 33  1  0
  5 26  2  0
  6  8  1  0
  6 11  1  0
  7  8  1  0
  7 25  1  0
 10 18  1  0
 10 22  1  0
 11 19  1  0
 11 25  1  0
 12 13  1  0
 12 22  1  0
 12 28  2  0
 13 36  1  0
 14 26  1  0
 15 31  2  0
 15 32  1  0
 16 31  1  0
 16 35  2  0
 17 19  1  0
 17 21  1  0
 18 24  1  0
 18 27  1  0
 19 23  1  0
 20 21  1  0
 21 27  2  0
 24 29  1  0
 24 34  1  0
 27 33  1  0
 29 33  1  0
 30 34  1  0
M  END
>  <ID>  (1) 
conformer_0

$$$$
