
     RDKit          3D

 33 36  0  0  0  0  0  0  0  0999 V2000
   -9.8092   31.5100   -1.5871 C   0  0  0  0  0  0  0  0  0  0  0  0
   -4.1526   31.3973   -1.0149 C   0  0  0  0  0  0  0  0  0  0  0  0
  -12.4999   32.8542    0.3740 N   0  0  0  0  0  0  0  0  0  0  0  0
   -2.3143   29.0599   -4.4084 C   0  0  0  0  0  0  0  0  0  0  0  0
   -6.0056   30.5352   -4.1529 C   0  0  0  0  0  0  0  0  0  0  0  0
  -11.8270   34.3195    2.0510 C   0  0  0  0  0  0  0  0  0  0  0  0
  -11.0847   31.8991   -1.2772 C   0  0  0  0  0  0  0  0  0  0  0  0
   -7.8786   28.5323   -5.9074 N   0  0  0  0  0  0  0  0  0  0  0  0
   -2.9805   30.7353   -0.7640 N   0  0  0  0  0  0  0  0  0  0  0  0
   -7.4142   30.1412   -4.1021 C   0  0  0  0  0  0  0  0  0  0  0  0
   -9.7315   29.7378   -4.8753 C   0  0  0  0  0  0  0  0  0  0  0  0
   -5.6575   31.3347   -3.0292 N   0  0  0  0  0  0  0  0  0  0  0  0
   -1.5995   29.2946   -2.1812 N   0  0  0  0  0  0  0  0  0  0  0  0
   -7.9010   30.6530   -2.8369 C   0  0  0  0  0  0  0  0  0  0  0  0
  -12.6859   33.2454    1.6704 C   0  0  0  0  0  0  0  0  0  0  0  0
   -3.3682   29.8515   -4.1488 C   0  0  0  0  0  0  0  0  0  0  0  0
   -2.6259   30.0810   -1.8559 C   0  0  0  0  0  0  0  0  0  0  0  0
   -8.3110   29.3595   -4.8926 C   0  0  0  0  0  0  0  0  0  0  0  0
  -11.1081   31.5309   -4.1441 O   0  0  0  0  0  0  0  0  0  0  0  0
   -9.9831   27.7247   -7.3366 O   0  0  0  0  0  0  0  0  0  0  0  0
   -8.7073   27.8120   -6.7878 C   0  0  0  0  0  0  0  0  0  0  0  0
   -9.2714   30.8022   -2.6793 C   0  0  0  0  0  0  0  0  0  0  0  0
   -3.5807   30.3253   -2.8417 C   0  0  0  0  0  0  0  0  0  0  0  0
  -11.2981   32.8011   -0.2225 C   0  0  0  0  0  0  0  0  0  0  0  0
  -10.0929   30.6691   -3.7909 N   0  0  0  0  0  0  0  0  0  0  0  0
   -6.5213   27.4770   -8.1673 C   0  0  0  0  0  0  0  0  0  0  0  0
   -7.4541   25.7926   -6.9049 O   0  0  0  0  0  0  0  0  0  0  0  0
   -7.7854   26.9113   -7.6303 C   0  0  0  0  0  0  0  0  0  0  0  0
   -4.6170   31.1048   -2.2724 C   0  0  0  0  0  0  0  0  0  0  0  0
   -1.4484   28.6874   -3.3502 C   0  0  0  0  0  0  0  0  0  0  0  0
  -10.2519   33.6045    0.3073 C   0  0  0  0  0  0  0  0  0  0  0  0
  -10.6294   34.4184    1.3226 N   0  0  0  0  0  0  0  0  0  0  0  0
  -10.5769   29.8605   -5.9618 O   0  0  0  0  0  0  0  0  0  0  0  0
  1  7  2  3
  1 22  1  0
  2  9  1  0
  2 29  1  0
  3 15  1  0
  3 24  1  0
  4 16  1  0
  4 30  2  0
  5 10  1  0
  5 12  1  0
  6 15  1  0
  6 32  2  0
  7 24  1  0
  8 18  2  3
  8 21  1  0
  9 17  1  0
 10 14  1  0
 10 18  1  0
 11 18  1  0
 11 25  1  0
 11 33  2  0
 12 29  1  0
 13 17  2  0
 13 30  1  0
 14 22  2  0
 16 23  1  0
 17 23  1  0
 19 25  1  0
 20 21  2  0
 21 28  1  0
 22 25  1  0
 23 29  2  0
 24 31  1  0
 26 28  1  0
 27 28  1  0
 31 32  1  0
M  END
>  <ID>  (1) 
conformer_0

$$$$
