
     RDKit          3D

 26 28  0  0  0  0  0  0  0  0999 V2000
  -11.5148   30.4246   -6.0530 O   0  0  0  0  0  0  0  0  0  0  0  0
  -11.6249   32.9120    1.7265 C   0  0  0  0  0  0  0  0  0  0  0  0
   -3.4441   31.3470   -1.0094 C   0  0  0  0  0  0  0  0  0  0  0  0
   -9.8871   28.9565   -4.9915 C   0  0  0  0  0  0  0  0  0  0  0  0
  -11.3191   33.1514    0.3906 C   0  0  0  0  0  0  0  0  0  0  0  0
  -10.2370   32.3469   -0.0363 C   0  0  0  0  0  0  0  0  0  0  0  0
   -4.9855   30.5855   -3.1508 C   0  0  0  0  0  0  0  0  0  0  0  0
  -10.1822   30.8456   -3.1478 C   0  0  0  0  0  0  0  0  0  0  0  0
  -10.8642   29.2690   -6.0416 C   0  0  0  0  0  0  0  0  0  0  0  0
   -9.7471   31.5307    1.0504 C   0  0  0  0  0  0  0  0  0  0  0  0
  -12.5759   33.5487    2.4816 C   0  0  0  0  0  0  0  0  0  0  0  0
   -7.9974   30.3993   -3.7869 C   0  0  0  0  0  0  0  0  0  0  0  0
   -2.9438   30.3900   -1.8984 N   0  0  0  0  0  0  0  0  0  0  0  0
   -8.9977   27.8027   -5.1676 C   0  0  0  0  0  0  0  0  0  0  0  0
   -5.5006   31.5474   -2.2601 C   0  0  0  0  0  0  0  0  0  0  0  0
   -9.4001   30.0190   -4.0396 C   0  0  0  0  0  0  0  0  0  0  0  0
   -9.2562   31.6172   -2.2718 C   0  0  0  0  0  0  0  0  0  0  0  0
   -7.9717   31.4401   -2.7895 C   0  0  0  0  0  0  0  0  0  0  0  0
  -11.9741   34.0531   -0.2951 O   0  0  0  0  0  0  0  0  0  0  0  0
  -11.0029   28.4113   -6.9863 O   0  0  0  0  0  0  0  0  0  0  0  0
   -6.7904   32.1368   -2.4515 N   0  0  0  0  0  0  0  0  0  0  0  0
   -9.6219   32.2776   -1.1960 C   0  0  0  0  0  0  0  0  0  0  0  0
   -4.7333   31.9146   -1.1660 C   0  0  0  0  0  0  0  0  0  0  0  0
   -3.7517   30.0223   -2.9901 C   0  0  0  0  0  0  0  0  0  0  0  0
  -10.7235   31.9094    2.1535 O   0  0  0  0  0  0  0  0  0  0  0  0
   -6.9434   33.9696   -2.0323 Cl  0  0  0  0  0  0  0  0  0  0  0  0
  1  9  2  0
  2  5  2  0
  2 11  1  0
  2 25  1  0
  3 13  2  0
  3 23  1  0
  4  9  1  0
  4 14  1  0
  4 16  1  0
  5  6  1  0
  5 19  1  0
  6 10  1  0
  6 22  1  0
  7 15  1  0
  7 24  2  0
  8 16  1  0
  8 17  1  0
  9 20  1  0
 10 25  1  0
 12 16  1  0
 12 18  1  0
 13 24  1  0
 15 21  1  0
 15 23  2  0
 17 18  2  0
 17 22  1  0
 18 21  1  0
 21 26  1  0
M  END
>  <ID>  (1) 
conformer_0

$$$$
