
     RDKit          3D

 34 36  0  0  0  0  0  0  0  0999 V2000
   -6.0817   29.4371   -4.1242 C   0  0  0  0  0  0  0  0  0  0  0  0
  -10.9331   30.9944   -4.8365 C   0  0  0  0  0  0  0  0  0  0  0  0
   -6.8042   33.6536   -1.7522 C   0  0  0  0  0  0  0  0  0  0  0  0
   -3.8158   29.7366   -3.3937 C   0  0  0  0  0  0  0  0  0  0  0  0
   -1.8342   29.4391   -2.1712 C   0  0  0  0  0  0  0  0  0  0  0  0
   -4.8007   32.9371   -0.7505 O   0  0  0  0  0  0  0  0  0  0  0  0
   -8.5965   31.9658   -2.4787 C   0  0  0  0  0  0  0  0  0  0  0  0
   -8.6457   30.3664   -3.4125 C   0  0  0  0  0  0  0  0  0  0  0  0
  -11.9234   32.8189   -0.4331 C   0  0  0  0  0  0  0  0  0  0  0  0
  -10.0448   31.5240    3.0918 C   0  0  0  0  0  0  0  0  0  0  0  0
   -6.5777   34.9563   -1.8690 O   0  0  0  0  0  0  0  0  0  0  0  0
  -10.0195   30.5684   -3.8632 N   0  0  0  0  0  0  0  0  0  0  0  0
   -9.4263   28.4141   -4.8720 C   0  0  0  0  0  0  0  0  0  0  0  0
   -8.4219   28.8692   -3.8146 C   0  0  0  0  0  0  0  0  0  0  0  0
  -10.6430   31.7445    1.8708 C   0  0  0  0  0  0  0  0  0  0  0  0
   -5.3494   31.8125   -2.7862 C   0  0  0  0  0  0  0  0  0  0  0  0
  -11.8554   33.7316    0.8541 C   0  0  0  0  0  0  0  0  0  0  0  0
   -3.5007   31.0292   -1.4571 N   0  0  0  0  0  0  0  0  0  0  0  0
  -11.8656   31.8349   -4.5766 O   0  0  0  0  0  0  0  0  0  0  0  0
  -10.4692   32.8078   -0.9019 C   0  0  0  0  0  0  0  0  0  0  0  0
   -4.7411   29.1153   -4.3197 C   0  0  0  0  0  0  0  0  0  0  0  0
   -2.3679   30.2903   -1.2864 N   0  0  0  0  0  0  0  0  0  0  0  0
  -10.9537   30.4990   -6.0151 O   0  0  0  0  0  0  0  0  0  0  0  0
  -10.4926   33.6752    2.9178 N   0  0  0  0  0  0  0  0  0  0  0  0
   -4.2413   28.0912   -5.2411 C   0  0  0  0  0  0  0  0  0  0  0  0
  -10.1606   32.1409   -2.2024 C   0  0  0  0  0  0  0  0  0  0  0  0
   -5.6419   32.7696   -1.7717 C   0  0  0  0  0  0  0  0  0  0  0  0
   -9.9242   32.7197    3.7247 C   0  0  0  0  0  0  0  0  0  0  0  0
   -3.8852   31.9793   -0.5707 C   0  0  0  0  0  0  0  0  0  0  0  0
   -8.0248   33.0054   -1.4437 C   0  0  0  0  0  0  0  0  0  0  0  0
   -2.5586   29.1401   -3.2792 C   0  0  0  0  0  0  0  0  0  0  0  0
   -4.3050   30.8545   -2.5662 C   0  0  0  0  0  0  0  0  0  0  0  0
  -10.9962   33.0648    1.8223 C   0  0  0  0  0  0  0  0  0  0  0  0
   -7.1544   28.5852   -4.5909 C   0  0  0  0  0  0  0  0  0  0  0  0
  1 21  1  0
  1 34  1  0
  2 12  1  0
  2 19  2  0
  2 23  1  0
  3 11  1  0
  3 27  1  0
  3 30  1  0
  4 21  1  0
  4 31  2  0
  4 32  1  0
  5 22  2  0
  5 31  1  0
  6 27  1  0
  6 29  1  0
  7 26  1  0
  7 30  1  0
  8 12  1  0
  8 14  1  0
  9 17  1  0
  9 20  1  0
 10 15  1  0
 10 28  1  0
 13 14  1  0
 14 34  1  0
 15 33  1  0
 16 27  2  0
 16 32  1  0
 17 33  1  0
 18 22  1  0
 18 29  1  0
 18 32  1  0
 20 26  1  0
 21 25  1  0
 24 28  1  0
 24 33  1  0
M  END
>  <ID>  (1) 
conformer_0

$$$$
