
     RDKit          3D

 28 30  0  0  0  0  0  0  0  0999 V2000
   -9.1214   28.8178   -5.1834 C   0  0  0  0  0  0  0  0  0  0  0  0
   -2.5146   30.0914   -0.8986 N   0  0  0  0  0  0  0  0  0  0  0  0
   -6.6168   31.9565   -2.5584 C   0  0  0  0  0  0  0  0  0  0  0  0
  -11.9574   33.2043    0.0991 N   0  0  0  0  0  0  0  0  0  0  0  0
  -12.5323   34.2518    2.3514 C   0  0  0  0  0  0  0  0  0  0  0  0
   -8.0433   31.6902   -2.8420 C   0  0  0  0  0  0  0  0  0  0  0  0
   -8.9361   27.1905   -7.0249 C   0  0  0  0  0  0  0  0  0  0  0  0
   -6.5083   35.3608   -1.4957 C   0  0  0  0  0  0  0  0  0  0  0  0
   -4.3525   31.1898   -2.0172 C   0  0  0  0  0  0  0  0  0  0  0  0
   -9.2138   31.9898   -1.9442 C   0  0  0  0  0  0  0  0  0  0  0  0
   -7.3245   29.5455   -4.0652 C   0  0  0  0  0  0  0  0  0  0  0  0
   -8.2111   30.4894   -3.6484 C   0  0  0  0  0  0  0  0  0  0  0  0
   -3.2274   30.1696   -1.9937 C   0  0  0  0  0  0  0  0  0  0  0  0
   -2.8804   29.6223   -3.0704 O   0  0  0  0  0  0  0  0  0  0  0  0
  -10.5779   32.0374   -1.5321 N   0  0  0  0  0  0  0  0  0  0  0  0
  -10.5182   31.9143    3.2765 C   0  0  0  0  0  0  0  0  0  0  0  0
   -9.7195   30.1138   -4.2501 S   0  0  0  0  0  0  0  0  0  0  0  0
   -9.8901   28.0182   -6.1851 C   0  0  0  0  0  0  0  0  0  0  0  0
  -11.0512   32.2593   -0.2468 C   0  0  0  0  0  0  0  0  0  0  0  0
   -6.9807   34.3363   -2.4635 O   0  0  0  0  0  0  0  0  0  0  0  0
   -4.0502   32.4455   -1.5029 C   0  0  0  0  0  0  0  0  0  0  0  0
   -6.2155   33.2709   -2.1745 C   0  0  0  0  0  0  0  0  0  0  0  0
   -7.7883   28.5760   -4.9454 C   0  0  0  0  0  0  0  0  0  0  0  0
  -11.8554   33.2729    1.6170 N   0  0  0  0  0  0  0  0  0  0  0  0
   -5.6097   30.9707   -2.5379 C   0  0  0  0  0  0  0  0  0  0  0  0
   -4.9829   33.4497   -1.5277 C   0  0  0  0  0  0  0  0  0  0  0  0
  -10.5537   31.6593    0.7843 N   0  0  0  0  0  0  0  0  0  0  0  0
  -11.0171   32.2998    1.9223 C   0  0  0  0  0  0  0  0  0  0  0  0
  1 17  1  0
  1 18  1  0
  1 23  1  0
  2 13  1  0
  3  6  1  0
  3 22  1  0
  3 25  2  0
  4 19  2  0
  4 24  1  0
  5 24  1  0
  6 10  1  0
  6 12  1  0
  7 18  1  0
  8 20  1  0
  9 13  1  0
  9 21  2  0
  9 25  1  0
 10 15  1  0
 11 12  2  0
 11 23  1  0
 12 17  1  0
 13 14  2  0
 15 19  1  0
 16 28  1  0
 19 27  1  0
 20 22  1  0
 21 26  1  0
 22 26  2  0
 24 28  1  0
 27 28  2  0
M  END
>  <ID>  (1) 
conformer_0

$$$$
