
     RDKit          3D

 23 24  0  0  0  0  0  0  0  0999 V2000
  -11.9403   34.5012    1.2747 O   0  0  0  0  0  1  0  0  0  0  0  0
   -4.2727   30.4482   -2.8666 C   0  0  0  0  0  0  0  0  0  0  0  0
   -5.7548   30.5066   -3.2451 C   0  0  0  0  0  0  0  0  0  0  0  0
   -3.5473   30.7620   -1.6964 C   0  0  0  0  0  0  0  0  0  0  0  0
  -10.5443   33.4461   -0.5504 O   0  0  0  0  0  0  0  0  0  0  0  0
   -2.4254   30.0469   -1.6283 N   0  0  0  0  0  0  0  0  0  0  0  0
  -11.6397   33.1400    0.5347 P   0  0  0  0  0  4  0  0  0  0  0  0
   -7.2911   27.8031   -4.3956 C   0  0  0  0  0  0  0  0  0  0  0  0
   -9.8518   32.6698   -1.4094 C   0  0  0  0  0  0  0  0  0  0  0  0
   -8.5819   33.0830   -1.7805 C   0  0  0  0  0  0  0  0  0  0  0  0
   -7.2181   30.1719   -3.6166 C   0  0  0  0  0  0  0  0  0  0  0  0
   -3.3712   29.5173   -3.6185 C   0  0  0  0  0  0  0  0  0  0  0  0
   -8.0012   28.9747   -4.0574 C   0  0  0  0  0  0  0  0  0  0  0  0
  -11.1622   32.0797    1.5293 O   0  0  0  0  0  0  0  0  0  0  0  0
  -12.9194   32.6495   -0.0818 O   0  0  0  0  0  0  0  0  0  0  0  0
   -7.7668   32.3640   -2.5921 C   0  0  0  0  0  0  0  0  0  0  0  0
   -9.4888   30.7123   -2.7560 C   0  0  0  0  0  0  0  0  0  0  0  0
   -8.1097   34.3661   -1.3938 O   0  0  0  0  0  0  0  0  0  0  0  0
   -4.0539   31.6067   -0.7590 N   0  0  0  0  0  0  0  0  0  0  0  0
   -8.1677   31.1298   -2.9946 C   0  0  0  0  0  0  0  0  0  0  0  0
   -6.2072   27.7471   -5.2665 O   0  0  0  0  0  0  0  0  0  0  0  0
  -10.3303   31.4589   -1.9895 C   0  0  0  0  0  0  0  0  0  0  0  0
   -2.2327   29.2709   -2.7525 C   0  0  0  0  0  0  0  0  0  0  0  0
  1  7  2  0
  2  3  2  0
  2  4  1  0
  2 12  1  0
  3 11  2  0
  4  6  1  0
  4 19  2  0
  5  7  1  0
  5  9  1  0
  6 23  1  0
  7 14  1  0
  7 15  1  0
  8 13  1  0
  8 21  1  0
  9 10  2  0
  9 22  1  0
 10 16  1  0
 10 18  1  0
 11 13  1  0
 11 20  1  0
 12 23  1  0
 16 20  2  0
 17 20  1  0
 17 22  2  0
M  END
>  <ID>  (1) 
conformer_0

$$$$
