
     RDKit          3D

 37 43  0  0  0  0  0  0  0  0999 V2000
   -6.7951   27.4688   -5.8798 C   0  0  0  0  0  0  0  0  0  0  0  0
  -10.2643   31.5820   -0.9413 C   0  0  0  0  0  0  0  0  0  0  0  0
    0.0732   28.6844   -4.4515 C   0  0  0  0  0  0  0  0  0  0  0  0
  -12.4453   33.6950    1.9954 C   0  0  0  0  0  0  0  0  0  0  0  0
   -9.6332   27.6150   -6.9331 C   0  0  0  0  0  0  0  0  0  0  0  0
  -11.4916   32.7804    2.3247 C   0  0  0  0  0  0  0  0  0  0  0  0
   -9.4796   29.9594   -4.0758 C   0  0  0  0  0  0  0  0  0  0  0  0
   -7.0275   34.4795   -1.5493 C   0  0  0  0  0  0  0  0  0  0  0  0
   -7.4717   28.4987   -5.1178 C   0  0  0  0  0  0  0  0  0  0  0  0
  -10.9659   29.4468   -5.8285 C   0  0  0  0  0  0  0  0  0  0  0  0
   -7.3418   30.3260   -3.0987 N   0  0  0  0  0  0  0  0  0  0  0  0
   -8.6775   30.6575   -3.0698 C   0  0  0  0  0  3  0  0  0  0  0  0
   -9.8590   28.5591   -5.8919 C   0  0  0  0  0  0  0  0  0  0  0  0
  -10.6505   30.4598   -4.7634 C   0  0  0  0  0  0  0  0  0  0  0  0
   -1.2914   28.9765   -3.9488 C   0  0  0  0  0  0  0  0  0  0  0  0
   -4.9150   30.6514   -2.4648 N   0  0  0  0  0  0  0  0  0  0  0  0
   -7.2228   26.7748   -7.0840 C   0  0  0  0  0  0  0  0  0  0  0  0
  -10.8311   32.0905    1.4168 C   0  0  0  0  0  0  0  0  0  0  0  0
   -2.6639   30.4263   -0.9365 N   0  0  0  0  0  0  0  0  0  0  0  0
  -11.0752   32.2718    0.0915 C   0  0  0  0  0  0  0  0  0  0  0  0
   -7.6069   33.3189   -2.2895 C   0  0  0  0  0  0  0  0  0  0  0  0
   -3.6139   29.4122   -4.2499 N   0  0  0  0  0  0  0  0  0  0  0  0
   -3.6360   31.1587   -0.5576 C   0  0  0  0  0  0  0  0  0  0  0  0
  -12.7874   33.8324    0.7009 N   0  0  0  0  0  0  0  0  0  0  0  0
   -6.3161   31.0845   -2.8573 C   0  0  0  0  0  0  0  0  0  0  0  0
   -2.5926   29.8884   -2.1695 C   0  0  0  0  0  0  0  0  0  0  0  0
   -1.4621   29.3267   -2.6761 N   0  0  0  0  0  0  0  0  0  0  0  0
  -12.1285   33.1134   -0.2434 N   0  0  0  0  0  0  0  0  0  0  0  0
   -3.7787   29.9655   -2.9870 C   0  0  0  0  0  0  0  0  0  0  0  0
   -8.8629   28.9989   -4.9410 C   0  0  0  0  0  0  0  0  0  0  0  0
   -5.5052   32.6851   -1.4031 N   0  0  0  0  0  0  0  0  0  0  0  0
   -2.4427   28.9310   -4.7093 N   0  0  0  0  0  0  0  0  0  0  0  0
   -9.5685   31.3168   -2.1194 N   0  0  0  0  0  0  0  0  0  0  0  0
   -5.6759   34.0124   -1.0400 C   0  0  0  0  0  0  0  0  0  0  0  0
   -8.5178   27.1197   -7.6754 C   0  0  0  0  0  0  0  0  0  0  0  0
   -4.6204   31.5585   -1.3839 C   0  0  0  0  0  0  0  0  0  0  0  0
   -6.5724   32.3687   -2.2498 C   0  0  0  0  0  0  0  0  0  0  0  0
  1  9  1  0
  1 17  2  0
  2 20  1  0
  2 33  1  0
  3 15  1  0
  4  6  2  0
  4 24  1  0
  5 13  1  0
  5 35  1  0
  6 18  1  0
  7 12  1  0
  7 14  1  0
  7 30  1  0
  8 21  1  0
  8 34  1  0
  9 30  1  0
 10 13  1  0
 10 14  1  0
 11 12  1  0
 11 25  2  3
 12 33  1  0
 13 30  2  0
 15 27  1  0
 15 32  2  0
 16 25  1  0
 16 29  1  0
 16 36  1  0
 17 35  1  0
 18 20  2  0
 19 23  2  0
 19 26  1  0
 20 28  1  0
 21 37  1  0
 22 29  2  0
 22 32  1  0
 23 36  1  0
 24 28  2  0
 25 37  1  0
 26 27  2  0
 26 29  1  0
 31 34  1  0
 31 36  1  0
 31 37  1  0
M  END
>  <ID>  (1) 
conformer_0

$$$$
