
     RDKit          3D

 44 49  0  0  0  0  0  0  0  0999 V2000
  -10.8325   27.6450   -6.7451 C   0  0  0  0  0  0  0  0  0  0  0  0
   -9.9532   30.1454   -3.9233 O   0  0  0  0  0  0  0  0  0  0  0  0
   -4.1270   31.0946   -0.9824 C   0  0  0  0  0  0  0  0  0  0  0  0
  -11.5607   34.0704    0.0251 C   0  0  0  0  0  0  0  0  0  0  0  0
   -5.6993   31.3388   -2.7651 C   0  0  0  0  0  0  0  0  0  0  0  0
   -9.3089   32.0527    4.0139 C   0  0  0  0  0  0  0  0  0  0  0  0
   -6.8643   30.7930   -3.4905 C   0  0  0  0  0  0  0  0  0  0  0  0
  -12.7318   34.1009    0.9545 C   0  0  0  0  0  0  0  0  0  0  0  0
  -10.9266   32.4517    2.3426 C   0  0  0  0  0  0  0  0  0  0  0  0
   -5.8832   27.4470   -6.3600 C   0  0  0  0  0  0  0  0  0  0  0  0
   -4.9760   29.0642   -4.8105 C   0  0  0  0  0  0  0  0  0  0  0  0
   -3.5856   29.9582   -3.0007 C   0  0  0  0  0  0  0  0  0  0  0  0
  -12.1763   30.3891   -6.6822 O   0  0  0  0  0  0  0  0  0  0  0  0
   -6.6222   33.4094   -2.3905 O   0  0  0  0  0  0  0  0  0  0  0  0
  -11.0512   33.7619    2.7697 C   0  0  0  0  0  0  0  0  0  0  0  0
   -2.5775   29.6399   -5.2235 C   0  0  0  0  0  0  0  0  0  0  0  0
   -7.7853   32.7057   -2.1825 C   0  0  0  0  0  0  0  0  0  0  0  0
   -6.7299   34.7626   -1.8111 C   0  0  0  0  0  0  0  0  0  0  0  0
  -10.2394   34.2494    3.8014 C   0  0  0  0  0  0  0  0  0  0  0  0
   -9.4268   31.1148   -3.0039 C   0  0  0  0  0  0  0  0  0  0  0  0
  -11.2986   29.9338   -5.9166 C   0  0  0  0  0  0  0  0  0  0  0  0
  -10.9943   32.8370   -0.3755 N   0  0  0  0  0  0  0  0  0  0  0  0
   -2.4255   29.5171   -2.4542 C   0  0  0  0  0  0  0  0  0  0  0  0
  -11.0381   30.6194   -4.6982 N   0  0  0  0  0  0  0  0  0  0  0  0
   -4.8510   28.0592   -5.7489 C   0  0  0  0  0  0  0  0  0  0  0  0
   -8.7117   33.1682   -1.2245 C   0  0  0  0  0  0  0  0  0  0  0  0
  -10.4790   28.9437   -6.2245 N   0  0  0  0  0  0  0  0  0  0  0  0
   -2.9524   30.6167   -0.4914 N   0  0  0  0  0  0  0  0  0  0  0  0
  -10.3394   31.6238   -2.1870 C   0  0  0  0  0  0  0  0  0  0  0  0
   -2.1011   28.2566   -5.7514 C   0  0  0  0  0  0  0  0  0  0  0  0
   -3.7774   29.6089   -4.3314 N   0  0  0  0  0  0  0  0  0  0  0  0
  -13.5038   33.0124    1.2056 O   0  0  0  0  0  0  0  0  0  0  0  0
   -6.2984   29.5369   -4.3817 C   0  0  0  0  0  0  0  0  0  0  0  0
  -12.1571   34.6501    2.2654 C   0  0  0  0  0  0  0  0  0  0  0  0
  -10.0389   31.5885    2.9447 C   0  0  0  0  0  0  0  0  0  0  0  0
   -8.3215   27.2477   -6.8098 C   0  0  0  0  0  0  0  0  0  0  0  0
   -2.1491   29.8302   -1.2042 C   0  0  0  0  0  0  0  0  0  0  0  0
   -9.6086   27.1936   -7.5259 C   0  0  0  0  0  0  0  0  0  0  0  0
   -9.9953   32.5943   -1.2682 C   0  0  0  0  0  0  0  0  0  0  0  0
   -9.3444   33.3674    4.3939 C   0  0  0  0  0  0  0  0  0  0  0  0
   -7.1606   27.8670   -5.9956 C   0  0  0  0  0  0  0  0  0  0  0  0
   -4.5093   30.7582   -2.2761 C   0  0  0  0  0  0  0  0  0  0  0  0
   -8.0657   31.5387   -2.9604 C   0  0  0  0  0  0  0  0  0  0  0  0
   -7.3274   28.8190   -4.9659 C   0  0  0  0  0  0  0  0  0  0  0  0
  1 27  1  0
  1 38  1  0
  2 20  1  0
  2 24  1  0
  3 28  1  0
  3 42  2  0
  4  8  1  0
  4 22  2  3
  5  7  1  0
  5 42  1  0
  6 35  2  0
  6 40  1  0
  7 33  1  0
  7 43  1  0
  8 32  1  0
  8 34  1  0
  9 15  2  0
  9 35  1  0
 10 25  2  0
 10 41  1  0
 11 25  1  0
 11 31  1  0
 11 33  2  0
 12 23  2  0
 12 31  1  0
 12 42  1  0
 13 21  2  0
 14 17  1  0
 14 18  1  0
 15 19  1  0
 15 34  1  0
 16 30  1  0
 16 31  1  0
 17 26  1  0
 17 43  1  0
 19 40  2  0
 20 29  2  0
 20 43  1  0
 21 24  1  0
 21 27  1  0
 22 39  1  0
 23 37  1  0
 26 39  2  0
 28 37  2  0
 29 39  1  0
 33 44  1  0
 36 38  2  0
 36 41  2  0
 41 44  1  0
M  END
>  <ID>  (1) 
conformer_0

$$$$
