
     RDKit          3D

 34 37  0  0  0  0  0  0  0  0999 V2000
  -11.5970   33.5764    2.3357 C   0  0  0  0  0  0  0  0  0  0  0  0
   -3.1554   30.4399   -3.5781 C   0  0  0  0  0  0  0  0  0  0  0  0
  -10.4072   31.9067    1.0914 C   0  0  0  0  0  0  0  0  0  0  0  0
   -3.0527   30.9889   -2.3215 C   0  0  0  0  0  0  0  0  0  0  0  0
   -2.1024   30.3422   -4.3244 N   0  0  0  0  0  0  0  0  0  0  0  0
   -9.2657   30.3272   -4.1672 N   0  0  0  0  0  0  0  0  0  0  0  0
   -8.0771   30.5470   -3.3941 N   0  0  0  0  0  0  0  0  0  0  0  0
   -4.4120   29.0984   -5.2209 C   0  0  0  0  0  0  0  0  0  0  0  0
   -5.5793   30.3739   -3.2888 C   0  0  0  0  0  0  0  0  0  0  0  0
   -9.3808   32.8532    4.2711 C   0  0  0  0  0  0  0  0  0  0  0  0
   -1.1237   30.9952   -6.2064 O   0  0  0  0  0  0  0  0  0  0  0  0
  -10.3871   29.6496   -6.2093 O   0  0  0  0  0  0  0  0  0  0  0  0
  -10.2529   31.9090   -1.2908 C   0  0  0  0  0  0  0  0  0  0  0  0
  -10.7430   32.4922    2.3159 C   0  0  0  0  0  0  0  0  0  0  0  0
  -11.8562   33.4301   -0.0492 N   0  0  0  0  0  0  0  0  0  0  0  0
  -10.8779   32.4052   -0.0874 C   0  0  0  0  0  0  0  0  0  0  0  0
   -5.4472   30.9677   -2.0683 C   0  0  0  0  0  0  0  0  0  0  0  0
   -9.3423   29.4896   -5.3664 C   0  0  0  0  0  0  0  0  0  0  0  0
   -6.9241   30.0550   -3.8677 C   0  0  0  0  0  0  0  0  0  0  0  0
   -0.2664   29.0270   -5.0881 C   0  0  0  0  0  0  0  0  0  0  0  0
   -4.1805   31.2283   -1.5791 C   0  0  0  0  0  0  0  0  0  0  0  0
   -6.8898   29.1764   -4.9581 N   0  0  0  0  0  0  0  0  0  0  0  0
   -7.2861   27.8538   -5.3440 C   0  0  0  0  0  0  0  0  0  0  0  0
  -11.3806   31.5648   -4.5232 O   0  0  0  0  0  0  0  0  0  0  0  0
  -10.0090   31.9292   -2.5970 C   0  0  0  0  0  0  0  0  0  0  0  0
  -12.1761   34.0070    1.1709 C   0  0  0  0  0  0  0  0  0  0  0  0
  -10.3884   31.1785   -3.7521 C   0  0  0  0  0  0  0  0  0  0  0  0
  -10.2348   31.9296    3.4754 O   0  0  0  0  0  0  0  0  0  0  0  0
   -4.8176   27.7683   -5.7125 C   0  0  0  0  0  0  0  0  0  0  0  0
   -4.4216   30.0003   -4.0263 C   0  0  0  0  0  0  0  0  0  0  0  0
   -6.2074   27.2226   -6.1866 C   0  0  0  0  0  0  0  0  0  0  0  0
   -8.8227   28.0347   -5.5021 C   0  0  0  0  0  0  0  0  0  0  0  0
   -1.1928   30.2217   -5.1908 C   0  0  0  0  0  0  0  0  0  0  0  0
   -4.0222   31.7407   -0.3547 O   0  0  0  0  0  0  0  0  0  0  0  0
  1 14  1  0
  1 26  2  0
  2  4  2  0
  2  5  1  0
  2 30  1  0
  3 14  2  0
  3 16  1  0
  4 21  1  0
  5 33  1  0
  6  7  1  0
  6 18  1  0
  6 27  1  0
  7 19  2  0
  8 29  1  0
  8 30  1  0
  9 17  1  0
  9 19  1  0
  9 30  2  0
 10 28  1  0
 11 33  2  0
 12 18  2  0
 13 16  2  3
 13 25  1  0
 14 28  1  0
 15 16  1  0
 15 26  1  0
 17 21  2  0
 18 32  1  0
 19 22  1  0
 20 33  1  0
 21 34  1  0
 22 23  1  0
 23 31  1  0
 23 32  1  0
 24 27  2  0
 25 27  1  0
 29 31  1  0
M  END
>  <ID>  (1) 
conformer_0

$$$$
