
     RDKit          3D

 44 50  0  0  0  0  0  0  0  0999 V2000
  -11.8644   32.6496    2.8295 O   0  0  0  0  0  0  0  0  0  0  0  0
   -6.6676   27.4606   -6.6227 C   0  0  0  0  0  0  0  0  0  0  0  0
  -11.1491   32.6325   -0.3577 N   0  0  0  0  0  0  0  0  0  0  0  0
   -4.1456   29.1298   -4.9194 N   0  0  0  0  0  0  0  0  0  0  0  0
   -9.9720   32.9321   -0.9381 C   0  0  0  0  0  0  0  0  0  0  0  0
   -4.7096   31.6459   -1.5584 C   0  0  0  0  0  0  0  0  0  0  0  0
   -5.5937   27.0993   -7.3790 N   0  0  0  0  0  0  0  0  0  0  0  0
   -2.2803   29.7965   -3.6262 N   0  0  0  0  0  0  0  0  0  0  0  0
  -10.3874   29.9515   -4.6519 C   0  0  0  0  0  0  0  0  0  0  0  0
   -9.3533   29.1563   -4.1557 N   0  0  0  0  0  0  0  0  0  0  0  0
   -2.8848   29.4439   -4.8252 C   0  0  0  0  0  0  0  0  0  0  0  0
  -11.1908   33.4147    0.7094 C   0  0  0  0  0  0  0  0  0  0  0  0
   -0.6820   29.5925   -5.1391 C   0  0  0  0  0  0  0  0  0  0  0  0
   -7.9619   33.4631   -2.0006 C   0  0  0  0  0  0  0  0  0  0  0  0
   -7.6818   26.4025   -8.3232 N   0  0  0  0  0  0  0  0  0  0  0  0
   -8.6284   26.6132   -9.4010 C   0  0  0  0  0  0  0  0  0  0  0  0
   -7.4795   35.5999   -0.7007 F   0  0  0  0  0  0  0  0  0  0  0  0
   -4.4388   27.6479   -6.7831 N   0  0  0  0  0  0  0  0  0  0  0  0
   -8.1982   34.3942   -0.8724 C   0  0  0  0  0  0  0  0  0  0  0  0
   -0.9009   29.7949   -3.7828 N   0  0  0  0  0  0  0  0  0  0  0  0
   -4.1617   30.9827   -2.6364 C   0  0  0  0  0  0  0  0  0  0  0  0
   -6.2248   28.2166   -5.5421 C   0  0  0  0  0  0  0  0  0  0  0  0
   -2.9004   30.6652   -0.2688 C   0  0  0  0  0  0  0  0  0  0  0  0
   -1.9047   29.3829   -5.7945 C   0  0  0  0  0  0  0  0  0  0  0  0
  -10.6265   28.3107   -6.3783 C   0  0  0  0  0  0  0  0  0  0  0  0
   -7.9896   29.6479   -3.7819 C   0  0  0  0  0  0  0  0  0  0  0  0
  -10.7183   29.7326   -6.0672 C   0  0  0  0  0  0  0  0  0  0  0  0
  -12.2812   33.1298    1.7252 C   0  0  0  0  0  0  0  0  0  0  0  0
   -9.2459   27.7305   -6.7236 C   0  0  0  0  0  0  0  0  0  0  0  0
  -10.0805   30.3282   -1.9461 O   0  0  0  0  0  0  0  0  0  0  0  0
   -2.3834   30.0405   -1.3132 N   0  0  0  0  0  0  0  0  0  0  0  0
   -6.2613   26.3891   -8.5669 C   0  0  0  0  0  0  0  0  0  0  0  0
   -4.8520   28.3570   -5.7227 C   0  0  0  0  0  0  0  0  0  0  0  0
   -9.2645   32.5137   -1.9432 N   0  0  0  0  0  0  0  0  0  0  0  0
   -3.0059   30.2434   -2.5033 C   0  0  0  0  0  0  0  0  0  0  0  0
  -11.7855   30.4113   -6.6109 N   0  0  0  0  0  0  0  0  0  0  0  0
   -9.2722   34.0915   -0.1782 C   0  0  0  0  0  0  0  0  0  0  0  0
   -7.9508   27.0938   -7.1139 C   0  0  0  0  0  0  0  0  0  0  0  0
  -10.0504   34.3394    0.8544 C   0  0  0  0  0  0  0  0  0  0  0  0
   -9.8144   31.2982   -2.6690 C   0  0  0  0  0  0  0  0  0  0  0  0
  -13.4715   33.0203    1.3890 O   0  0  0  0  0  0  0  0  0  0  0  0
   -3.9798   31.5343   -0.3871 C   0  0  0  0  0  0  0  0  0  0  0  0
   -6.8463   28.8858   -4.3334 C   0  0  0  0  0  0  0  0  0  0  0  0
  -10.2310   31.4104   -4.0500 C   0  0  0  0  0  0  0  0  0  0  0  0
  1 28  2  0
  2  7  1  0
  2 22  2  0
  2 38  1  0
  3  5  1  0
  3 12  1  0
  4 11  1  0
  4 33  2  3
  5 34  1  0
  5 37  2  0
  6 21  1  0
  6 42  1  0
  7 18  1  0
  7 32  1  0
  8 11  1  0
  8 20  1  0
  8 35  1  0
  9 10  1  0
  9 27  1  0
  9 44  1  0
 10 26  1  0
 11 24  1  0
 12 28  1  0
 12 39  1  0
 13 20  1  0
 13 24  1  0
 14 19  1  0
 14 34  1  0
 15 16  1  0
 15 32  1  0
 15 38  1  0
 17 19  1  0
 18 33  1  0
 19 37  1  0
 21 35  2  0
 22 33  1  0
 22 43  1  0
 23 31  2  0
 23 42  1  0
 25 27  1  0
 25 29  2  0
 26 43  1  0
 27 36  1  0
 28 41  1  0
 29 38  2  0
 30 40  2  0
 31 35  1  0
 34 40  1  0
 37 39  1  0
 40 44  1  0
M  END
>  <ID>  (1) 
conformer_0

$$$$
