
     RDKit          3D

 36 39  0  0  0  0  0  0  0  0999 V2000
  -10.1575   31.2652   -4.6462 N   0  0  0  0  0  0  0  0  0  0  0  0
  -10.5852   31.9734    1.1257 C   0  0  0  0  0  0  0  0  0  0  0  0
   -7.3423   28.6174   -4.7325 C   0  0  0  0  0  0  0  0  0  0  0  0
  -10.6944   32.2122   -1.2717 N   0  0  0  0  0  0  0  0  0  0  0  0
   -6.5735   27.2731   -6.7224 C   0  0  0  0  0  0  0  0  0  0  0  0
  -10.6409   31.7046   -2.3320 C   0  0  0  0  0  0  0  0  0  0  0  0
   -6.3673   32.9008   -2.2721 C   0  0  0  0  0  0  0  0  0  0  0  0
  -11.3178   30.4534   -6.4555 O   0  0  0  0  0  0  0  0  0  0  0  0
   -8.4882   32.2715   -3.4144 C   0  0  0  0  0  0  0  0  0  0  0  0
   -2.6599   30.3583   -1.0963 N   0  0  0  0  0  0  0  0  0  0  0  0
  -10.9926   32.4212    2.4072 C   0  0  0  0  0  0  0  0  0  0  0  0
   -4.8342   28.3975   -5.3021 C   0  0  0  0  0  0  0  0  0  0  0  0
   -9.9483   28.8581   -5.4829 C   0  0  0  0  0  0  0  0  0  0  0  0
   -3.9262   30.4285   -3.0197 N   0  0  0  0  0  0  0  0  0  0  0  0
  -12.1353   33.6541    0.2187 O   0  0  0  0  0  0  0  0  0  0  0  0
   -7.6759   27.9035   -6.0113 C   0  0  0  0  0  0  0  0  0  0  0  0
   -7.5066   32.8706   -2.7399 C   0  0  0  0  0  0  0  0  0  0  0  0
  -11.8562   33.5071    2.5806 C   0  0  0  0  0  0  0  0  0  0  0  0
   -7.2704   35.0804   -1.6916 F   0  0  0  0  0  0  0  0  0  0  0  0
   -5.2081   27.5426   -6.4110 C   0  0  0  0  0  0  0  0  0  0  0  0
   -2.4121   28.2049   -5.6249 C   0  0  0  0  0  0  0  0  0  0  0  0
   -9.6681   31.7788   -3.4944 C   0  0  0  0  0  0  0  0  0  0  0  0
   -3.6603   30.9145   -1.7896 C   0  0  0  0  0  0  0  0  0  0  0  0
  -10.4328   31.7255    3.5904 Cl  0  0  0  0  0  0  0  0  0  0  0  0
   -9.0299   28.1016   -6.4676 C   0  0  0  0  0  0  0  0  0  0  0  0
   -3.5038   28.7770   -4.8912 C   0  0  0  0  0  0  0  0  0  0  0  0
   -5.3596   32.5887   -1.6533 C   0  0  0  0  0  0  0  0  0  0  0  0
   -5.9493   28.9575   -4.4926 C   0  0  0  0  0  0  0  0  0  0  0  0
   -4.3356   32.0209   -1.1715 N   0  0  0  0  0  0  0  0  0  0  0  0
   -1.9737   29.3831   -1.6507 C   0  0  0  0  0  0  0  0  0  0  0  0
  -12.3975   34.0920    1.4692 C   0  0  0  0  0  0  0  0  0  0  0  0
   -2.2052   28.8758   -2.9002 C   0  0  0  0  0  0  0  0  0  0  0  0
  -10.4283   30.2683   -5.4738 C   0  0  0  0  0  0  0  0  0  0  0  0
   -3.2396   29.4098   -3.5712 C   0  0  0  0  0  0  0  0  0  0  0  0
   -7.1343   33.8471   -2.1914 C   0  0  0  0  0  0  0  0  0  0  0  0
  -11.1125   32.5954   -0.0009 C   0  0  0  0  0  0  0  0  0  0  0  0
  1 22  1  0
  1 33  1  0
  2 11  1  0
  2 36  2  0
  3 16  1  0
  3 28  2  0
  4  6  1  0
  4 36  1  0
  5 16  1  0
  5 20  2  0
  6 22  1  0
  7 27  1  0
  7 35  1  0
  8 33  2  0
  9 17  1  0
  9 22  2  0
 10 23  2  0
 10 30  1  0
 11 18  1  0
 11 24  1  0
 12 20  1  0
 12 26  2  0
 12 28  1  0
 13 25  1  0
 13 33  1  0
 14 23  1  0
 14 34  2  0
 15 31  1  0
 15 36  1  0
 16 25  2  0
 17 35  2  0
 18 31  2  0
 19 35  1  0
 21 26  1  0
 23 29  1  0
 26 34  1  0
 27 29  1  0
 30 32  2  0
 32 34  1  0
M  END
>  <ID>  (1) 
conformer_0

$$$$
