
     RDKit          3D

 34 36  0  0  0  0  0  0  0  0999 V2000
   -6.9742   29.8082   -3.5869 C   0  0  0  0  0  0  0  0  0  0  0  0
   -9.2653   28.6293   -6.0535 C   0  0  0  0  0  0  0  0  0  0  0  0
   -9.8015   30.3889   -4.3498 C   0  0  0  0  0  0  0  0  0  0  0  0
   -5.8771   33.3059   -1.8025 F   0  0  0  0  0  0  0  0  0  0  0  0
  -12.3246   32.9219    0.0053 N   0  0  0  0  0  0  0  0  0  0  0  0
   -6.6811   31.1647   -3.2222 N   0  0  0  0  0  0  0  0  0  0  0  0
   -3.3559   29.6604   -2.6968 C   0  0  0  0  0  0  0  0  0  0  0  0
   -9.6434   30.8975   -3.1216 C   0  0  0  0  0  0  0  0  0  0  0  0
   -8.9109   29.4124   -4.9711 C   0  0  0  0  0  0  0  0  0  0  0  0
  -10.0271   34.4796    3.8803 C   0  0  0  0  0  0  0  0  0  0  0  0
   -2.6650   30.1605   -1.5693 C   0  0  0  0  0  0  0  0  0  0  0  0
   -5.3865   31.1022   -2.6909 C   0  0  0  0  0  0  0  0  0  0  0  0
  -10.9566   30.8623   -5.0912 C   0  0  0  0  0  0  0  0  0  0  0  0
  -10.2168   32.1575   -1.0837 C   0  0  0  0  0  0  0  0  0  0  0  0
   -3.0297   31.2131   -0.8026 C   0  0  0  0  0  0  0  0  0  0  0  0
   -6.1749   26.8504   -7.0539 C   0  0  0  0  0  0  0  0  0  0  0  0
   -8.8412   27.1080   -7.8549 C   0  0  0  0  0  0  0  0  0  0  0  0
   -6.6740   26.1195   -8.1419 N   0  0  0  0  0  0  0  0  0  0  0  0
   -7.6636   29.2861   -4.4726 N   0  0  0  0  0  0  0  0  0  0  0  0
  -11.7718   31.7534   -4.7543 O   0  0  0  0  0  0  0  0  0  0  0  0
  -10.6407   32.1472    2.3817 C   0  0  0  0  0  0  0  0  0  0  0  0
  -11.4836   33.3080    2.2071 C   0  0  0  0  0  0  0  0  0  0  0  0
   -7.0247   27.6445   -6.3885 C   0  0  0  0  0  0  0  0  0  0  0  0
  -11.3276   32.0868   -0.2183 C   0  0  0  0  0  0  0  0  0  0  0  0
   -4.5554   30.1146   -3.1040 C   0  0  0  0  0  0  0  0  0  0  0  0
   -4.0136   32.1147   -0.8950 C   0  0  0  0  0  0  0  0  0  0  0  0
  -11.1936   34.4429    3.0630 C   0  0  0  0  0  0  0  0  0  0  0  0
  -10.4111   31.7183   -2.4159 C   0  0  0  0  0  0  0  0  0  0  0  0
   -5.0511   32.1623   -1.7344 C   0  0  0  0  0  0  0  0  0  0  0  0
   -7.9929   26.2699   -8.5327 N   0  0  0  0  0  0  0  0  0  0  0  0
  -12.5575   33.3943    1.3236 N   0  0  0  0  0  0  0  0  0  0  0  0
   -9.4105   33.2536    4.2356 C   0  0  0  0  0  0  0  0  0  0  0  0
   -9.7860   32.0719    3.5195 C   0  0  0  0  0  0  0  0  0  0  0  0
   -8.3513   27.8208   -6.7228 C   0  0  0  0  0  0  0  0  0  0  0  0
  1  6  1  0
  1 19  1  0
  2  9  1  0
  2 34  1  0
  3  8  1  0
  3  9  1  0
  3 13  1  0
  4 29  1  0
  5 24  1  0
  5 31  1  0
  6 12  1  0
  7 11  1  0
  7 25  2  0
  8 28  2  3
  9 19  2  3
 10 27  1  0
 10 32  2  0
 11 15  2  0
 12 25  1  0
 12 29  1  0
 13 20  2  0
 14 24  1  0
 14 28  1  0
 15 26  1  0
 16 18  2  0
 16 23  1  0
 17 30  2  0
 17 34  1  0
 18 30  1  0
 21 22  1  0
 21 33  1  0
 22 27  2  0
 22 31  1  0
 23 34  2  0
 26 29  2  0
 32 33  1  0
M  END
>  <ID>  (1) 
conformer_0

$$$$
