
     RDKit          3D

 31 35  0  0  0  0  0  0  0  0999 V2000
  -10.8203   32.3372    0.4773 C   0  0  0  0  0  0  0  0  0  0  0  0
   -9.1836   30.9948   -2.6196 N   0  0  0  0  0  0  0  0  0  0  0  0
   -2.7469   30.2667   -2.5894 C   0  0  0  0  0  0  0  0  0  0  0  0
   -3.5741   29.8517   -3.6145 C   0  0  0  0  0  0  0  0  0  0  0  0
   -8.2504   29.6118   -4.4164 C   0  0  0  0  0  0  0  0  0  0  0  0
   -4.6471   31.3358   -1.4712 C   0  0  0  0  0  0  0  0  0  0  0  0
   -7.0077   30.0191   -3.8010 C   0  0  0  0  0  0  0  0  0  0  0  0
   -5.8418   29.6346   -4.3094 N   0  0  0  0  0  0  0  0  0  0  0  0
  -11.3575   32.7394    2.7571 C   0  0  0  0  0  0  0  0  0  0  0  0
   -3.2584   31.0133   -1.5424 C   0  0  0  0  0  0  0  0  0  0  0  0
   -3.1384   29.1960   -4.7436 C   0  0  0  0  0  0  0  0  0  0  0  0
   -4.9330   30.1018   -3.4886 C   0  0  0  0  0  0  0  0  0  0  0  0
   -1.3903   29.9025   -2.6524 C   0  0  0  0  0  0  0  0  0  0  0  0
   -9.6303   28.5406   -6.0565 C   0  0  0  0  0  0  0  0  0  0  0  0
   -8.3651   28.6327   -5.4705 C   0  0  0  0  0  0  0  0  0  0  0  0
   -6.2512   27.2588   -6.1785 N   0  0  0  0  0  0  0  0  0  0  0  0
  -10.4925   30.2429   -4.5604 C   0  0  0  0  0  0  0  0  0  0  0  0
  -11.1109   31.9836   -2.3026 O   0  0  0  0  0  0  0  0  0  0  0  0
   -9.3138   30.3121   -3.8556 C   0  0  0  0  0  0  0  0  0  0  0  0
   -7.4143   27.6783   -6.0785 C   0  0  0  0  0  0  0  0  0  0  0  0
  -12.3213   34.1542    1.1274 C   0  0  0  0  0  0  0  0  0  0  0  0
   -1.8226   28.8695   -4.8307 C   0  0  0  0  0  0  0  0  0  0  0  0
  -11.6466   33.4004    0.1349 C   0  0  0  0  0  0  0  0  0  0  0  0
   -6.8280   30.7889   -2.7009 C   0  0  0  0  0  0  0  0  0  0  0  0
   -5.4935   30.8316   -2.4568 C   0  0  0  0  0  0  0  0  0  0  0  0
  -10.0123   31.6403   -0.4167 N   0  0  0  0  0  0  0  0  0  0  0  0
  -10.6534   29.3956   -5.6606 C   0  0  0  0  0  0  0  0  0  0  0  0
  -12.1472   33.7988    2.4339 C   0  0  0  0  0  0  0  0  0  0  0  0
  -10.6982   32.0140    1.8058 C   0  0  0  0  0  0  0  0  0  0  0  0
   -0.9388   29.1853   -3.7758 C   0  0  0  0  0  0  0  0  0  0  0  0
  -10.1282   31.6229   -1.7878 C   0  0  0  0  0  0  0  0  0  0  0  0
  1 23  1  0
  1 26  1  0
  1 29  2  0
  2 19  2  3
  2 31  1  0
  3  4  2  0
  3 10  1  0
  3 13  1  0
  4 11  1  0
  4 12  1  0
  5  7  2  3
  5 15  1  0
  5 19  1  0
  6 10  2  0
  6 25  1  0
  7  8  1  0
  7 24  1  0
  8 12  1  0
  9 28  2  0
  9 29  1  0
 11 22  2  0
 12 25  2  0
 13 30  2  0
 14 15  2  0
 14 27  1  0
 15 20  1  0
 16 20  2  0
 17 19  1  0
 17 27  2  0
 18 31  2  0
 21 23  2  0
 21 28  1  0
 22 30  1  0
 24 25  1  0
 26 31  1  0
M  END
>  <ID>  (1) 
conformer_0

$$$$
