
     RDKit          3D

 34 38  0  0  0  0  0  0  0  0999 V2000
   -6.7088   28.1444   -5.4100 N   0  0  0  0  0  0  0  0  0  0  0  0
   -4.5199   28.4740   -4.8812 C   0  0  0  0  0  0  0  0  0  0  0  0
   -8.9892   29.5452   -4.4934 C   0  0  0  0  0  0  0  0  0  0  0  0
   -3.8320   31.2133   -1.2976 N   0  0  0  0  0  0  0  0  0  0  0  0
   -9.9271   27.5806   -8.0282 O   0  0  0  0  0  1  0  0  0  0  0  0
   -5.3391   29.3213   -4.1646 C   0  0  0  0  0  0  0  0  0  0  0  0
  -10.2630   32.0398   -0.9225 C   0  0  0  0  0  0  0  0  0  0  0  0
   -8.2525   31.8626   -2.3153 C   0  0  0  0  0  0  0  0  0  0  0  0
   -8.2565   34.0345   -1.2120 C   0  0  0  0  0  0  0  0  0  0  0  0
  -11.5869   34.8666    1.3935 C   0  0  0  0  0  0  0  0  0  0  0  0
   -1.9931   30.0250   -1.3489 N   0  0  0  0  0  0  0  0  0  0  0  0
   -6.6241   29.1373   -4.5355 C   0  0  0  0  0  0  0  0  0  0  0  0
   -7.9838   27.8044   -5.9360 O   0  0  0  0  0  0  0  0  0  0  0  0
   -7.8191   33.0813   -2.0481 C   0  0  0  0  0  0  0  0  0  0  0  0
  -11.3925   26.8961   -6.2739 O   0  0  0  0  0  0  0  0  0  0  0  0
   -9.2797   34.1382   -0.3046 C   0  0  0  0  0  0  0  0  0  0  0  0
   -2.7207   30.9704   -0.6363 N   0  0  0  0  0  0  0  0  0  0  0  0
  -10.4979   28.0135   -6.6756 P   0  0  0  0  0  4  0  0  0  0  0  0
  -10.2841   33.1989   -0.1991 C   0  0  0  0  0  0  0  0  0  0  0  0
   -7.4284   35.2440   -1.3985 O   0  0  0  0  0  0  0  0  0  0  0  0
   -7.6986   29.8906   -4.0377 C   0  0  0  0  0  0  0  0  0  0  0  0
  -12.8500   33.0418    0.2290 O   0  0  0  0  0  1  0  0  0  0  0  0
   -3.8605   30.3778   -2.3609 C   0  0  0  0  0  0  0  0  0  0  0  0
   -2.7578   29.7025   -2.4355 N   0  0  0  0  0  0  0  0  0  0  0  0
   -5.3254   27.6661   -5.6619 N   0  0  0  0  0  0  0  0  0  0  0  0
  -11.3707   32.3604    1.9038 O   0  0  0  0  0  1  0  0  0  0  0  0
   -7.4037   30.9410   -3.0999 C   0  0  0  0  0  0  0  0  0  0  0  0
  -11.6253   33.3288    0.8385 S   0  0  0  0  0  4  0  0  0  0  0  0
  -10.1558   30.1837   -4.0608 O   0  0  0  0  0  0  0  0  0  0  0  0
  -11.3603   29.3021   -6.7685 O   0  0  0  0  0  0  0  0  0  0  0  0
   -6.0966   31.0596   -2.7850 C   0  0  0  0  0  0  0  0  0  0  0  0
   -5.0562   30.2750   -3.1240 C   0  0  0  0  0  0  0  0  0  0  0  0
   -9.2055   28.4457   -5.4303 C   0  0  0  0  0  0  0  0  0  0  0  0
   -9.4037   31.5288   -1.7194 C   0  0  0  0  0  0  0  0  0  0  0  0
  1 12  1  0
  1 13  1  0
  1 25  1  0
  2  6  1  0
  2 25  1  0
  3 21  2  0
  3 29  1  0
  3 33  1  0
  4 17  1  0
  4 23  1  0
  5 18  2  0
  6 12  2  0
  6 32  1  0
  7 19  1  0
  7 34  2  0
  8 14  2  0
  8 27  1  0
  8 34  1  0
  9 14  1  0
  9 16  2  0
  9 20  1  0
 10 28  1  0
 11 17  1  0
 11 24  1  0
 12 21  1  0
 13 33  1  0
 15 18  1  0
 16 19  1  0
 18 30  1  0
 18 33  1  0
 19 28  1  0
 21 27  1  0
 22 28  1  0
 23 24  1  0
 23 32  2  3
 26 28  1  0
 27 31  2  0
 31 32  1  0
M  END
>  <ID>  (1) 
conformer_0

$$$$
