
     RDKit          3D

 34 39  0  0  0  0  0  0  0  0999 V2000
  -12.3084   33.4579    1.9844 C   0  0  0  0  0  0  0  0  0  0  0  0
   -6.4020   29.5592   -4.1237 C   0  0  0  0  0  0  0  0  0  0  0  0
   -3.6463   31.5927   -0.7707 C   0  0  0  0  0  0  0  0  0  0  0  0
   -8.8699   29.1606   -3.7550 O   0  0  0  0  0  0  0  0  0  0  0  0
   -7.6253   28.9392   -4.4487 C   0  0  0  0  0  0  0  0  0  0  0  0
  -10.2250   30.0276   -5.6057 O   0  0  0  0  0  0  0  0  0  0  0  0
   -6.5303   27.4455   -6.0354 C   0  0  0  0  0  0  0  0  0  0  0  0
   -4.9565   30.7034   -2.5307 C   0  0  0  0  0  0  0  0  0  0  0  0
   -7.3194   31.5356   -2.7490 C   0  0  0  0  0  0  0  0  0  0  0  0
   -5.6544   32.6493   -1.2884 C   0  0  0  0  0  0  0  0  0  0  0  0
   -9.9336   31.2914   -3.5698 C   0  0  0  0  0  0  0  0  0  0  0  0
   -2.8005   29.8607   -2.0077 N   0  0  0  0  0  0  0  0  0  0  0  0
   -5.2934   27.9823   -5.6827 C   0  0  0  0  0  0  0  0  0  0  0  0
   -5.2863   29.0213   -4.7863 C   0  0  0  0  0  0  0  0  0  0  0  0
   -6.8931   32.5784   -1.7711 C   0  0  0  0  0  0  0  0  0  0  0  0
   -8.7530   31.6106   -2.8343 C   0  0  0  0  0  0  0  0  0  0  0  0
  -10.2126   32.4802    2.6794 C   0  0  0  0  0  0  0  0  0  0  0  0
   -9.1224   32.5567   -1.5836 C   0  0  0  0  0  0  0  0  0  0  0  0
  -11.2355   29.1823   -6.1420 C   0  0  0  0  0  0  0  0  0  0  0  0
  -12.9465   33.0476   -0.2050 O   0  0  0  0  0  0  0  0  0  0  0  0
   -3.8743   29.9054   -2.7590 N   0  0  0  0  0  0  0  0  0  0  0  0
   -6.2580   30.6534   -3.1644 C   0  0  0  0  0  0  0  0  0  0  0  0
  -10.6675   32.5830    0.3580 C   0  0  0  0  0  0  0  0  0  0  0  0
  -11.4205   33.0792    2.9765 C   0  0  0  0  0  0  0  0  0  0  0  0
   -7.6609   27.9515   -5.4182 C   0  0  0  0  0  0  0  0  0  0  0  0
   -7.8295   34.7770   -0.8850 F   0  0  0  0  0  0  0  0  0  0  0  0
   -9.9927   29.8783   -4.1618 C   0  0  0  0  0  0  0  0  0  0  0  0
   -2.7043   30.6889   -0.9463 N   0  0  0  0  0  0  0  0  0  0  0  0
   -4.7806   31.6648   -1.5377 C   0  0  0  0  0  0  0  0  0  0  0  0
   -7.9838   33.2429   -1.2773 C   0  0  0  0  0  0  0  0  0  0  0  0
  -11.9891   33.0694    0.6945 C   0  0  0  0  0  0  0  0  0  0  0  0
  -10.3331   32.5270   -0.9997 C   0  0  0  0  0  0  0  0  0  0  0  0
  -10.9930   32.0265   -4.0698 O   0  0  0  0  0  0  0  0  0  0  0  0
   -9.7857   32.2004    1.3903 C   0  0  0  0  0  0  0  0  0  0  0  0
  1 24  2  0
  1 31  1  0
  2  5  2  0
  2 14  1  0
  2 22  1  0
  3 28  2  0
  3 29  1  0
  4  5  1  0
  4 27  1  0
  5 25  1  0
  6 19  1  0
  6 27  1  0
  7 13  1  0
  7 25  2  0
  8 21  1  0
  8 22  1  0
  8 29  2  0
  9 15  2  0
  9 16  1  0
  9 22  1  0
 10 15  1  0
 10 29  1  0
 11 16  1  0
 11 27  1  0
 11 33  1  0
 12 21  2  0
 12 28  1  0
 13 14  2  0
 15 30  1  0
 16 18  1  0
 17 24  1  0
 17 34  2  0
 18 30  1  0
 18 32  1  0
 20 31  1  0
 23 31  2  0
 23 32  1  0
 23 34  1  0
 26 30  1  0
M  END
>  <ID>  (1) 
conformer_0

$$$$
