
     RDKit          3D

 41 45  0  0  0  0  0  0  0  0999 V2000
   -2.6016   29.9553   -2.2205 C   0  0  0  0  0  0  0  0  0  0  0  0
  -11.0633   31.7818   -0.5929 N   0  0  0  0  0  0  0  0  0  0  0  0
  -10.2068   28.4301   -6.1803 C   0  0  0  0  0  0  0  0  0  0  0  0
   -3.4596   31.4010   -0.5659 C   0  0  0  0  0  0  0  0  0  0  0  0
   -5.9963   28.8972   -4.7259 C   0  0  0  0  0  0  0  0  0  0  0  0
  -10.9296   30.6770   -4.8440 N   0  0  0  0  0  0  0  0  0  0  0  0
  -10.4409   32.2725    1.7543 C   0  0  0  0  0  0  0  0  0  0  0  0
   -6.3006   29.9409   -3.9033 C   0  0  0  0  0  0  0  0  0  0  0  0
   -8.2557   31.0849   -2.4726 C   0  0  0  0  0  0  0  0  0  0  0  0
   -3.8065   29.5945   -4.2536 C   0  0  0  0  0  0  0  0  0  0  0  0
   -9.7834   33.0272    4.1473 C   0  0  0  0  0  0  0  0  0  0  0  0
   -9.8183   30.7490   -4.0255 C   0  0  0  0  0  0  0  0  0  0  0  0
   -1.5900   29.7757   -1.4609 O   0  0  0  0  0  0  0  0  0  0  0  0
   -7.5494   26.3861   -8.2583 C   0  0  0  0  0  0  0  0  0  0  0  0
  -12.4057   34.1830    1.9055 C   0  0  0  0  0  0  0  0  0  0  0  0
   -2.6203   29.4260   -3.5530 C   0  0  0  0  0  0  0  0  0  0  0  0
   -3.5997   30.8101   -1.7795 C   0  0  0  0  0  0  0  0  0  0  0  0
   -4.8068   31.0059   -2.4421 C   0  0  0  0  0  0  0  0  0  0  0  0
  -11.6009   34.0145    2.9988 C   0  0  0  0  0  0  0  0  0  0  0  0
   -8.8707   27.7336   -6.7421 C   0  0  0  0  0  0  0  0  0  0  0  0
  -11.6938   34.7629    4.1764 F   0  0  0  0  0  0  0  0  0  0  0  0
   -9.0735   34.0794    4.4369 F   0  0  0  0  0  0  0  0  0  0  0  0
   -7.7130   27.8993   -6.1198 C   0  0  0  0  0  0  0  0  0  0  0  0
   -4.4776   31.9382    0.1516 O   0  0  0  0  0  0  0  0  0  0  0  0
  -10.6281   31.7439   -1.7920 C   0  0  0  0  0  0  0  0  0  0  0  0
   -5.6999   31.8798   -2.1384 N   0  0  0  0  0  0  0  0  0  0  0  0
   -6.3730   26.5898   -7.5546 C   0  0  0  0  0  0  0  0  0  0  0  0
  -10.6180   33.0589    2.9503 C   0  0  0  0  0  0  0  0  0  0  0  0
   -4.9512   30.1079   -3.5736 C   0  0  0  0  0  0  0  0  0  0  0  0
   -8.6122   30.3106   -4.4805 C   0  0  0  0  0  0  0  0  0  0  0  0
  -10.9692   29.7286   -5.9065 C   0  0  0  0  0  0  0  0  0  0  0  0
  -11.2387   32.4798    0.6154 C   0  0  0  0  0  0  0  0  0  0  0  0
   -6.0571   33.2483   -1.7240 C   0  0  0  0  0  0  0  0  0  0  0  0
   -5.3411   27.8524   -5.5896 C   0  0  0  0  0  0  0  0  0  0  0  0
  -11.8842   30.0280   -6.7668 O   0  0  0  0  0  0  0  0  0  0  0  0
   -6.5101   27.4132   -6.4549 C   0  0  0  0  0  0  0  0  0  0  0  0
   -7.5893   30.4698   -3.5789 C   0  0  0  0  0  0  0  0  0  0  0  0
  -12.2410   33.4313    0.7204 N   0  0  0  0  0  0  0  0  0  0  0  0
  -10.0954   32.1940    5.0947 F   0  0  0  0  0  0  0  0  0  0  0  0
   -8.7922   26.9312   -7.9093 C   0  0  0  0  0  0  0  0  0  0  0  0
   -9.6089   31.2472   -2.6506 C   0  0  0  0  0  0  0  0  0  0  0  0
  1 13  2  0
  1 16  1  0
  1 17  1  0
  2 25  1  0
  2 32  1  0
  3 20  1  0
  3 31  1  0
  4 17  1  0
  4 24  1  0
  5  8  1  0
  5 34  1  0
  6 12  1  0
  6 31  1  0
  7 28  2  0
  7 32  1  0
  8 29  1  0
  8 37  1  0
  9 37  1  0
  9 41  1  0
 10 16  2  0
 10 29  1  0
 11 22  1  0
 11 28  1  0
 11 39  1  0
 12 30  1  0
 12 41  2  0
 14 27  1  0
 14 40  2  0
 15 19  2  0
 15 38  1  0
 17 18  2  0
 18 26  1  0
 18 29  1  0
 19 21  1  0
 19 28  1  0
 20 23  2  0
 20 40  1  0
 23 36  1  0
 25 41  1  0
 26 33  1  0
 27 36  1  0
 30 37  1  0
 31 35  2  0
 32 38  2  0
 34 36  1  0
M  END
>  <ID>  (1) 
conformer_0

$$$$
