
     RDKit          3D

 30 33  0  0  0  0  0  0  0  0999 V2000
  -11.0907   31.9992   -1.1124 C   0  0  0  0  0  0  0  0  0  0  0  0
   -5.2859   30.0140   -3.4667 C   0  0  0  0  0  0  0  0  0  0  0  0
  -10.3310   31.1706   -4.0644 C   0  0  0  0  0  0  0  0  0  0  0  0
  -11.5276   31.8047   -4.1846 N   0  0  0  0  0  0  0  0  0  0  0  0
   -2.9061   30.3783   -2.0315 N   0  0  0  0  0  0  0  0  0  0  0  0
  -10.5478   31.0906    3.2107 F   0  0  0  0  0  0  0  0  0  0  0  0
   -7.2846   27.9393   -5.8194 N   0  0  0  0  0  0  0  0  0  0  0  0
   -9.8252   33.0184    3.6082 F   0  0  0  0  0  0  0  0  0  0  0  0
   -4.0127   31.1364   -1.7414 C   0  0  0  0  0  0  0  0  0  0  0  0
   -7.1915   33.5051   -2.0395 C   0  0  0  0  0  0  0  0  0  0  0  0
  -10.0270   30.2225   -4.9448 C   0  0  0  0  0  0  0  0  0  0  0  0
  -11.7128   32.9891    2.3652 C   0  0  0  0  0  0  0  0  0  0  0  0
   -4.0962   29.3244   -3.7999 C   0  0  0  0  0  0  0  0  0  0  0  0
   -7.0767   26.9288   -6.8522 C   0  0  0  0  0  0  0  0  0  0  0  0
   -6.4883   29.6340   -4.2314 C   0  0  0  0  0  0  0  0  0  0  0  0
   -2.9665   29.4931   -3.0640 C   0  0  0  0  0  0  0  0  0  0  0  0
   -9.8078   32.0723   -1.7541 C   0  0  0  0  0  0  0  0  0  0  0  0
   -7.1822   32.3090   -2.7948 C   0  0  0  0  0  0  0  0  0  0  0  0
  -13.2511   33.1381    0.6297 O   0  0  0  0  0  0  0  0  0  0  0  0
   -8.0923   31.3776   -3.3699 C   0  0  0  0  0  0  0  0  0  0  0  0
   -9.4472   31.5942   -3.0591 C   0  0  0  0  0  0  0  0  0  0  0  0
   -9.9759   31.8716    1.1032 O   0  0  0  0  0  0  0  0  0  0  0  0
   -5.1580   30.9552   -2.4490 C   0  0  0  0  0  0  0  0  0  0  0  0
   -6.2938   28.4030   -4.9950 C   0  0  0  0  0  0  0  0  0  0  0  0
  -10.5045   32.2639    2.5934 C   0  0  0  0  0  0  0  0  0  0  0  0
   -8.5643   28.4657   -5.7756 C   0  0  0  0  0  0  0  0  0  0  0  0
  -12.0433   32.8560    1.0504 C   0  0  0  0  0  0  0  0  0  0  0  0
   -7.7842   30.2420   -4.1590 C   0  0  0  0  0  0  0  0  0  0  0  0
   -8.7979   29.6395   -4.9483 C   0  0  0  0  0  0  0  0  0  0  0  0
  -11.0240   32.2167    0.3010 C   0  0  0  0  0  0  0  0  0  0  0  0
  1 17  1  0
  1 30  1  0
  2 13  1  0
  2 15  1  0
  2 23  2  0
  3  4  1  0
  3 11  2  0
  3 21  1  0
  5  9  2  0
  5 16  1  0
  6 25  1  0
  7 14  1  0
  7 24  1  0
  7 26  1  0
  8 25  1  0
  9 23  1  0
 10 18  1  0
 11 29  1  0
 12 25  1  0
 12 27  1  0
 13 16  2  0
 15 24  2  0
 15 28  1  0
 17 21  2  3
 18 20  2  3
 19 27  1  0
 20 21  1  0
 20 28  1  0
 22 25  1  0
 22 30  1  0
 26 29  1  0
 27 30  2  0
 28 29  2  0
M  END
>  <ID>  (1) 
conformer_0

$$$$
