
     RDKit          3D

 46 51  0  0  0  0  0  0  0  0999 V2000
   -3.2972   31.3272   -0.7848 C   0  0  0  0  0  0  0  0  0  0  0  0
   -4.3607   31.7817   -1.5502 C   0  0  0  0  0  0  0  0  0  0  0  0
  -10.5815   27.8589   -6.3257 C   0  0  0  0  0  0  0  0  0  0  0  0
   -8.4408   34.0637   -0.9085 C   0  0  0  0  0  0  0  0  0  0  0  0
   -9.7698   30.8330   -3.9976 C   0  0  0  0  0  0  0  0  0  0  0  0
   -6.2332   28.4801   -5.1256 C   0  0  0  0  0  0  0  0  0  0  0  0
  -11.9349   33.9882    1.9137 C   0  0  0  0  0  0  0  0  0  0  0  0
   -5.3740   29.2709   -4.4601 C   0  0  0  0  0  0  0  0  0  0  0  0
  -10.1443   31.2516   -2.7066 C   0  0  0  0  0  0  0  0  0  0  0  0
   -7.3921   32.2145   -1.9983 C   0  0  0  0  0  0  0  0  0  0  0  0
  -13.5004   32.7261    0.6621 O   0  0  0  0  0  0  0  0  0  0  0  0
  -11.0831   30.2624   -6.3831 O   0  0  0  0  0  0  0  0  0  0  0  0
   -8.0340   26.7754   -8.6535 C   0  0  0  0  0  0  0  0  0  0  0  0
   -5.6496   26.4754   -8.2955 C   0  0  0  0  0  0  0  0  0  0  0  0
   -4.0470   29.4507   -4.3338 C   0  0  0  0  0  0  0  0  0  0  0  0
   -6.3561   27.0159   -7.1467 C   0  0  0  0  0  0  0  0  0  0  0  0
   -2.4932   30.3003   -1.1573 N   0  0  0  0  0  0  0  0  0  0  0  0
   -9.8693   32.2837   -1.9198 N   0  0  0  0  0  0  0  0  0  0  0  0
   -5.1078   32.8745   -1.2098 C   0  0  0  0  0  0  0  0  0  0  0  0
  -10.9877   32.5230   -1.3084 N   0  0  0  0  0  0  0  0  0  0  0  0
   -5.6146   27.7513   -6.2208 C   0  0  0  0  0  0  0  0  0  0  0  0
  -11.2167   32.7352   -0.0329 C   0  0  0  0  0  0  0  0  0  0  0  0
   -9.4249   33.1048    4.3037 C   0  0  0  0  0  0  0  0  0  0  0  0
   -6.7687   26.1782   -9.2211 C   0  0  0  0  0  0  0  0  0  0  0  0
   -9.9730   29.3884   -4.4292 C   0  0  0  0  0  0  0  0  0  0  0  0
  -10.5137   29.2295   -5.7966 C   0  0  0  0  0  0  0  0  0  0  0  0
   -7.6086   28.3743   -4.7687 O   0  0  0  0  0  0  0  0  0  0  0  0
   -8.6532   32.8223   -1.6064 C   0  0  0  0  0  0  0  0  0  0  0  0
   -9.7631   31.8023    3.6873 C   0  0  0  0  0  0  0  0  0  0  0  0
  -12.5552   35.2038    2.2090 F   0  0  0  0  0  0  0  0  0  0  0  0
   -7.6706   27.2104   -7.4132 N   0  0  0  0  0  0  0  0  0  0  0  0
   -0.5411   28.9850   -5.1823 C   0  0  0  0  0  0  0  0  0  0  0  0
  -10.1625   34.0871    3.5806 C   0  0  0  0  0  0  0  0  0  0  0  0
   -3.0663   28.1720   -6.1679 C   0  0  0  0  0  0  0  0  0  0  0  0
   -4.2696   27.7693   -6.3822 C   0  0  0  0  0  0  0  0  0  0  0  0
   -1.7091   30.0154   -5.1909 C   0  0  0  0  0  0  0  0  0  0  0  0
  -10.8964   33.4114    2.6287 C   0  0  0  0  0  0  0  0  0  0  0  0
   -6.9859   34.2349   -0.7299 C   0  0  0  0  0  0  0  0  0  0  0  0
  -10.5913   32.0812    2.6125 C   0  0  0  0  0  0  0  0  0  0  0  0
   -6.4206   33.0563   -1.3565 C   0  0  0  0  0  0  0  0  0  0  0  0
   -3.6894   30.0766   -3.0505 C   0  0  0  0  0  0  0  0  0  0  0  0
  -12.3032   33.3428    0.6707 C   0  0  0  0  0  0  0  0  0  0  0  0
   -4.4942   31.0870   -2.6371 C   0  0  0  0  0  0  0  0  0  0  0  0
   -8.8009   28.5263   -4.0171 C   0  0  0  0  0  0  0  0  0  0  0  0
   -2.9529   29.2069   -5.1471 N   0  0  0  0  0  0  0  0  0  0  0  0
   -2.6404   29.6855   -2.3149 N   0  0  0  0  0  0  0  0  0  0  0  0
  1  2  2  0
  1 17  1  0
  2 19  1  0
  2 43  1  0
  3 26  1  0
  4 28  1  0
  4 38  1  0
  5  9  2  0
  5 25  1  0
  6  8  2  0
  6 21  1  0
  6 27  1  0
  7 30  1  0
  7 37  1  0
  7 42  1  0
  8 15  1  0
  9 18  1  0
 10 28  1  0
 10 40  1  0
 11 42  1  0
 12 26  1  0
 13 24  1  0
 13 31  1  0
 14 16  1  0
 14 24  1  0
 15 41  1  0
 15 45  1  0
 16 21  1  0
 16 31  1  0
 17 46  2  0
 18 20  1  0
 18 28  1  0
 19 40  2  0
 20 22  2  3
 21 35  1  0
 22 42  1  0
 23 29  1  0
 23 33  1  0
 25 26  1  0
 25 44  1  0
 27 44  1  0
 29 39  1  0
 32 36  1  0
 33 37  1  0
 34 35  1  0
 34 45  1  0
 36 45  1  0
 37 39  1  0
 38 40  1  0
 41 43  2  0
 41 46  1  0
M  END
>  <ID>  (1) 
conformer_0

$$$$
