
     RDKit          3D

 44 48  0  0  0  0  0  0  0  0999 V2000
  -11.9641   33.0785    1.2194 C   0  0  0  0  0  0  0  0  0  0  0  0
   -6.2650   31.7364   -0.3303 C   0  0  0  0  0  0  0  0  0  0  0  0
   -6.3529   33.5258   -1.4951 C   0  0  0  0  0  0  0  0  0  0  0  0
  -11.3431   34.1151    3.1214 C   0  0  0  0  0  0  0  0  0  0  0  0
   -5.1007   27.1763   -7.2706 O   0  0  0  0  0  0  0  0  0  0  0  0
  -10.0899   30.6644   -5.0557 C   0  0  0  0  0  0  0  0  0  0  0  0
  -10.6738   31.4604   -4.0282 O   0  0  0  0  0  0  0  0  0  0  0  0
  -10.6613   29.4894   -5.8242 C   0  0  0  0  0  0  0  0  0  0  0  0
   -6.6568   31.5203    1.1331 C   0  0  0  0  0  0  0  0  0  0  0  0
   -2.8364   30.4915   -1.0889 O   0  0  0  0  0  0  0  0  0  0  0  0
   -4.0223   29.9782    0.8899 F   0  0  0  0  0  0  0  0  0  0  0  0
   -4.8892   33.7564   -1.4275 F   0  0  0  0  0  0  0  0  0  0  0  0
  -10.2922   32.0216   -2.8946 C   0  0  0  0  0  0  0  0  0  0  0  0
   -6.5941   26.9296   -7.2547 C   0  0  0  0  0  0  0  0  0  0  0  0
   -2.5488   29.8859   -2.3616 C   0  0  0  0  0  0  0  0  0  0  0  0
   -7.1254   27.8645   -6.1734 C   0  0  0  0  0  0  0  0  0  0  0  0
  -12.5871   32.7963   -0.0080 N   0  0  0  0  0  0  0  0  0  0  0  0
   -3.9388   30.5233   -0.3067 C   0  0  0  0  0  0  0  0  0  0  0  0
   -7.0677   29.6494   -4.0044 O   0  0  0  0  0  0  0  0  0  0  0  0
   -7.0566   32.6474   -1.0738 C   0  0  0  0  0  0  0  0  0  0  0  0
   -5.7685   29.2581   -4.3037 C   0  0  0  0  0  0  0  0  0  0  0  0
   -8.6879   28.0245   -6.5306 C   0  0  0  0  0  0  0  0  0  0  0  0
   -4.7409   27.9368   -6.1552 C   0  0  0  0  0  0  0  0  0  0  0  0
   -5.2104   30.6537   -2.2649 C   0  0  0  0  0  0  0  0  0  0  0  0
   -6.8399   34.7679   -2.0295 F   0  0  0  0  0  0  0  0  0  0  0  0
   -1.2297   29.6300   -2.5667 N   0  0  0  0  0  0  0  0  0  0  0  0
   -3.5302   28.2428   -5.6162 C   0  0  0  0  0  0  0  0  0  0  0  0
  -11.0388   32.2649   -1.8228 C   0  0  0  0  0  0  0  0  0  0  0  0
   -9.9286   28.2983   -5.8721 N   0  0  0  0  0  0  0  0  0  0  0  0
   -9.0392   32.3768   -2.3841 C   0  0  0  0  0  0  0  0  0  0  0  0
   -8.2343   32.5258   -1.6150 C   0  0  0  0  0  0  0  0  0  0  0  0
   -4.9115   27.4114   -8.7074 C   0  0  0  0  0  0  0  0  0  0  0  0
   -4.7947   29.8058   -3.2644 C   0  0  0  0  0  0  0  0  0  0  0  0
   -1.5609   28.7254   -4.6743 N   0  0  0  0  0  0  0  0  0  0  0  0
   -9.6527   32.4142    3.9450 C   0  0  0  0  0  0  0  0  0  0  0  0
  -11.0477   32.2706    1.8856 C   0  0  0  0  0  0  0  0  0  0  0  0
  -12.2363   34.2064    1.9738 C   0  0  0  0  0  0  0  0  0  0  0  0
   -5.8622   28.3903   -5.4787 C   0  0  0  0  0  0  0  0  0  0  0  0
   -0.7486   29.0823   -3.6709 C   0  0  0  0  0  0  0  0  0  0  0  0
   -5.1997   30.9976   -0.9666 C   0  0  0  0  0  0  0  0  0  0  0  0
  -10.5758   32.9245    3.0344 C   0  0  0  0  0  0  0  0  0  0  0  0
   -3.4123   29.5155   -3.4128 C   0  0  0  0  0  0  0  0  0  0  0  0
   -2.9107   28.8507   -4.5453 C   0  0  0  0  0  0  0  0  0  0  0  0
  -11.8902   32.3652   -1.0794 C   0  0  0  0  0  0  0  0  0  0  0  0
  1 17  1  0
  1 36  1  0
  1 37  1  0
  2  9  1  0
  2 20  1  0
  2 40  1  0
  3 12  1  0
  3 20  1  0
  3 25  1  0
  4 37  1  0
  4 41  1  0
  5 23  1  0
  5 32  1  0
  6  7  1  0
  6  8  1  0
  7 13  1  0
  8 29  1  0
 10 15  1  0
 10 18  1  0
 11 18  1  0
 13 28  1  0
 13 30  1  0
 14 16  1  0
 15 26  2  0
 15 42  1  0
 16 22  1  0
 16 38  1  0
 17 44  1  0
 18 40  1  0
 19 21  1  0
 20 31  1  0
 21 33  2  0
 21 38  1  0
 22 29  1  0
 23 27  2  0
 23 38  1  0
 24 33  1  0
 24 40  1  0
 26 39  1  0
 27 43  1  0
 28 44  3  0
 30 31  3  0
 33 42  1  0
 34 39  2  0
 34 43  1  0
 35 41  1  0
 36 41  1  0
 42 43  2  0
M  END
>  <ID>  (1) 
conformer_0

$$$$
