
     RDKit          3D

 33 37  0  0  0  0  0  0  0  0999 V2000
   -7.8665   34.1597   -1.6841 C   0  0  0  0  0  0  0  0  0  0  0  0
   -6.5145   34.6087   -1.7511 C   0  0  0  0  0  0  0  0  0  0  0  0
   -5.9454   29.8548   -4.0266 C   0  0  0  0  0  0  0  0  0  0  0  0
   -7.7794   26.4514   -7.6164 C   0  0  0  0  0  0  0  0  0  0  0  0
   -5.8286   32.3743   -2.1961 C   0  0  0  0  0  0  0  0  0  0  0  0
  -10.8884   31.1074   -4.7544 C   0  0  0  0  0  0  0  0  0  0  0  0
   -2.5543   29.6692   -2.4186 C   0  0  0  0  0  0  0  0  0  0  0  0
   -2.6637   30.5824   -1.4145 C   0  0  0  0  0  0  0  0  0  0  0  0
   -9.5139   32.2337   -1.6772 C   0  0  0  0  0  0  0  0  0  0  0  0
   -5.4643   33.7221   -1.9386 C   0  0  0  0  0  0  0  0  0  0  0  0
  -11.1255   33.0522    0.0276 C   0  0  0  0  0  0  0  0  0  0  0  0
   -6.8948   27.1129   -6.7995 C   0  0  0  0  0  0  0  0  0  0  0  0
   -9.8560   28.9577   -5.0869 C   0  0  0  0  0  0  0  0  0  0  0  0
   -4.8056   31.3277   -2.2383 C   0  0  0  0  0  0  0  0  0  0  0  0
   -8.1414   32.8079   -1.8605 C   0  0  0  0  0  0  0  0  0  0  0  0
   -3.7523   31.4034   -1.3332 C   0  0  0  0  0  0  0  0  0  0  0  0
   -1.4069   28.8993   -2.5793 N   0  0  0  0  0  0  0  0  0  0  0  0
  -10.0101   31.1102   -2.3561 C   0  0  0  0  0  0  0  0  0  0  0  0
  -12.3618   34.4804    1.3270 N   0  0  0  0  0  0  0  0  0  0  0  0
   -9.2416   29.5732   -3.9876 O   0  0  0  0  0  0  0  0  0  0  0  0
   -9.0404   28.0847   -6.0227 C   0  0  0  0  0  0  0  0  0  0  0  0
   -5.6255   27.0701   -6.9960 O   0  0  0  0  0  0  0  0  0  0  0  0
   -7.5172   27.9341   -5.6573 C   0  0  0  0  0  0  0  0  0  0  0  0
  -12.0679   32.3760    0.7642 N   0  0  0  0  0  0  0  0  0  0  0  0
  -10.6603   30.0045   -5.7881 C   0  0  0  0  0  0  0  0  0  0  0  0
  -10.0100   30.7420   -3.6866 N   0  0  0  0  0  0  0  0  0  0  0  0
  -11.2849   34.4160    0.3936 C   0  0  0  0  0  0  0  0  0  0  0  0
   -7.1334   32.0184   -2.2537 C   0  0  0  0  0  0  0  0  0  0  0  0
  -12.7380   33.2219    1.6054 C   0  0  0  0  0  0  0  0  0  0  0  0
   -3.6032   29.4983   -3.2829 C   0  0  0  0  0  0  0  0  0  0  0  0
   -4.7736   30.2521   -3.1627 C   0  0  0  0  0  0  0  0  0  0  0  0
  -10.2405   32.6666   -0.7332 N   0  0  0  0  0  0  0  0  0  0  0  0
   -6.2535   28.5494   -4.8200 C   0  0  0  0  0  0  0  0  0  0  0  0
  1  2  2  0
  1 15  1  0
  2 10  1  0
  3 31  1  0
  3 33  2  0
  4 12  1  0
  5 10  2  0
  5 14  1  0
  5 28  1  0
  6 25  1  0
  6 26  1  0
  7  8  2  0
  7 17  1  0
  7 30  1  0
  8 16  1  0
  9 15  1  0
  9 18  1  0
  9 32  1  0
 11 24  2  0
 11 27  1  0
 11 32  1  0
 12 22  2  0
 12 23  1  0
 13 20  1  0
 13 21  1  0
 13 25  1  0
 14 16  2  0
 14 31  1  0
 15 28  2  0
 18 26  1  0
 19 27  1  0
 19 29  1  0
 20 26  1  0
 21 23  1  0
 23 33  1  0
 24 29  1  0
 30 31  2  0
M  END
>  <ID>  (1) 
conformer_0

$$$$
