
     RDKit          3D

 37 41  0  0  0  0  0  0  0  0999 V2000
  -12.8014   34.2550    0.7863 O   0  0  0  0  0  0  0  0  0  0  0  0
  -11.8957   33.7758    1.5704 C   0  0  0  0  0  0  0  0  0  0  0  0
  -10.0705   32.8777    3.8327 C   0  0  0  0  0  0  0  0  0  0  0  0
   -9.3817   31.5742   -1.9180 C   0  0  0  0  0  0  0  0  0  0  0  0
  -10.8394   33.9588    3.7832 C   0  0  0  0  0  0  0  0  0  0  0  0
   -3.5358   30.9114   -1.3730 C   0  0  0  0  0  0  0  0  0  0  0  0
   -5.9203   29.8891   -3.8665 C   0  0  0  0  0  0  0  0  0  0  0  0
  -11.6919   31.7802   -4.5921 O   0  0  0  0  0  0  0  0  0  0  0  0
   -1.9648   28.5129   -4.4510 C   0  0  0  0  0  0  0  0  0  0  0  0
   -2.3938   30.1313   -1.6290 N   0  0  0  0  0  0  0  0  0  0  0  0
   -5.4656   27.8001   -5.6786 N   0  0  0  0  0  0  0  0  0  0  0  0
   -2.3506   29.2361   -3.0281 C   0  0  0  0  0  0  0  0  0  0  0  0
   -6.6767   28.2934   -5.4020 C   0  0  0  0  0  0  0  0  0  0  0  0
  -11.6759   34.3708    2.7834 C   0  0  0  0  0  0  0  0  0  0  0  0
  -10.7702   30.0420   -6.2777 O   0  0  0  0  0  0  0  0  0  0  0  0
   -4.6314   29.2870   -4.0710 C   0  0  0  0  0  0  0  0  0  0  0  0
   -8.5553   29.6289   -4.7503 C   0  0  0  0  0  0  0  0  0  0  0  0
  -10.4059   31.3481   -4.2636 C   0  0  0  0  0  0  0  0  0  0  0  0
   -9.7425   30.5118   -5.3558 C   0  0  0  0  0  0  0  0  0  0  0  0
   -5.8825   30.9770   -2.9398 C   0  0  0  0  0  0  0  0  0  0  0  0
   -4.4044   28.3331   -5.0194 C   0  0  0  0  0  0  0  0  0  0  0  0
   -6.4278   32.9608   -1.9479 C   0  0  0  0  0  0  0  0  0  0  0  0
  -11.2006   32.5979    1.0561 C   0  0  0  0  0  0  0  0  0  0  0  0
   -3.5631   29.5663   -3.3684 O   0  0  0  0  0  0  0  0  0  0  0  0
   -6.8952   31.9712   -2.8373 C   0  0  0  0  0  0  0  0  0  0  0  0
   -4.8316   31.3546   -2.0309 C   0  0  0  0  0  0  0  0  0  0  0  0
  -10.3648   31.7789    1.7292 C   0  0  0  0  0  0  0  0  0  0  0  0
   -9.8254   31.8809    2.9369 C   0  0  0  0  0  0  0  0  0  0  0  0
   -6.9993   29.3024   -4.5971 N   0  0  0  0  0  0  0  0  0  0  0  0
   -9.3545   28.5223   -4.0193 O   0  0  0  0  0  0  0  0  0  0  0  0
   -3.0966   27.9554   -5.2217 O   0  0  0  0  0  0  0  0  0  0  0  0
   -7.2076   34.5140   -1.7714 Cl  0  0  0  0  0  0  0  0  0  0  0  0
  -10.1557   32.4787   -0.9823 C   0  0  0  0  0  0  0  0  0  0  0  0
   -5.2546   32.6257   -1.4511 N   0  0  0  0  0  0  0  0  0  0  0  0
   -3.3283   31.4109   -0.1585 N   0  0  0  0  0  0  0  0  0  0  0  0
  -10.3301   30.7950   -2.8610 C   0  0  0  0  0  0  0  0  0  0  0  0
  -11.4095   32.3270   -0.3063 N   0  0  0  0  0  0  0  0  0  0  0  0
  1  2  1  0
  2 14  2  0
  2 23  1  0
  3  5  2  0
  3 28  1  0
  4 33  1  0
  4 36  1  0
  5 14  1  0
  6 10  1  0
  6 26  1  0
  6 35  2  0
  7 16  1  0
  7 20  1  0
  7 29  1  0
  8 18  1  0
  9 12  1  0
  9 31  1  0
 10 12  1  0
 11 13  2  0
 11 21  1  0
 12 24  1  0
 13 29  1  0
 15 19  1  0
 16 21  2  0
 16 24  1  0
 17 19  1  0
 17 29  1  0
 17 30  2  0
 18 19  1  0
 18 36  1  0
 20 25  1  0
 20 26  2  0
 21 31  1  0
 22 25  1  0
 22 32  1  0
 22 34  1  0
 23 27  1  0
 23 37  1  0
 26 34  1  0
 27 28  2  0
 33 37  1  0
M  END
>  <ID>  (1) 
conformer_0

$$$$
