
     RDKit          3D

 28 31  0  0  0  0  0  0  0  0999 V2000
  -11.7459   33.7286    1.3427 C   0  0  0  0  0  0  0  0  0  0  0  0
   -5.1285   31.5650   -0.4492 C   0  0  0  0  0  0  0  0  0  0  0  0
  -12.3316   34.8445    1.0258 O   0  0  0  0  0  0  0  0  0  0  0  0
  -11.2053   32.7750    0.4476 C   0  0  0  0  0  0  0  0  0  0  0  0
   -7.5333   30.4667   -3.1045 C   0  0  0  0  0  0  0  0  0  0  0  0
   -5.6731   29.4578   -4.0726 C   0  0  0  0  0  0  0  0  0  0  0  0
   -7.0999   29.5140   -4.1089 C   0  0  0  0  0  0  0  0  0  0  0  0
  -10.5935   32.0933   -1.8678 C   0  0  0  0  0  0  0  0  0  0  0  0
  -11.5636   33.2954    2.6769 C   0  0  0  0  0  0  0  0  0  0  0  0
  -10.7317   31.7647    1.2109 N   0  0  0  0  0  0  0  0  0  0  0  0
  -10.9445   32.0805    2.5533 C   0  0  0  0  0  0  0  0  0  0  0  0
  -10.7374   30.9265   -4.8799 C   0  0  0  0  0  0  0  0  0  0  0  0
   -9.2857   31.7331   -2.0709 C   0  0  0  0  0  0  0  0  0  0  0  0
   -5.6874   27.7630   -5.7605 C   0  0  0  0  0  0  0  0  0  0  0  0
   -2.7888   31.3425   -0.5987 O   0  0  0  0  0  0  0  0  0  0  0  0
  -11.0137   30.2338   -5.9544 O   0  0  0  0  0  0  0  0  0  0  0  0
   -6.4109   30.8073   -2.2838 C   0  0  0  0  0  0  0  0  0  0  0  0
   -7.0786   27.7283   -5.7550 C   0  0  0  0  0  0  0  0  0  0  0  0
   -9.6118   30.6718   -4.1627 C   0  0  0  0  0  0  0  0  0  0  0  0
  -11.6572   31.7626   -4.5296 O   0  0  0  0  0  0  0  0  0  0  0  0
  -11.1904   33.0242   -0.9360 C   0  0  0  0  0  0  0  0  0  0  0  0
   -3.9435   31.1774   -1.1520 C   0  0  0  0  0  0  0  0  0  0  0  0
   -5.2201   30.2821   -2.9601 C   0  0  0  0  0  0  0  0  0  0  0  0
   -5.0125   28.6470   -4.9527 N   0  0  0  0  0  0  0  0  0  0  0  0
   -6.3577   31.3836   -1.0181 C   0  0  0  0  0  0  0  0  0  0  0  0
   -4.0025   30.5880   -2.4275 C   0  0  0  0  0  0  0  0  0  0  0  0
   -8.7968   30.9533   -3.0954 N   0  0  0  0  0  0  0  0  0  0  0  0
   -7.7388   28.6420   -4.9175 C   0  0  0  0  0  0  0  0  0  0  0  0
  1  3  1  0
  1  4  2  0
  1  9  1  0
  2 22  2  0
  2 25  1  0
  4 10  1  0
  4 21  1  0
  5  7  1  0
  5 17  1  0
  5 27  1  0
  6  7  2  0
  6 23  1  0
  6 24  1  0
  7 28  1  0
  8 13  2  3
  8 21  1  0
  9 11  1  0
 10 11  1  0
 12 16  2  0
 12 19  1  0
 12 20  1  0
 13 27  1  0
 14 18  1  0
 14 24  2  0
 15 22  1  0
 17 23  1  0
 17 25  2  0
 18 28  2  0
 19 27  1  0
 22 26  1  0
 23 26  2  0
M  END
>  <ID>  (1) 
conformer_0

$$$$
