
     RDKit          3D

 27 31  0  0  0  0  0  0  0  0999 V2000
   -5.8011   30.2056   -3.2474 C   0  0  0  0  0  0  0  0  0  0  0  0
   -8.6490   29.1797   -5.3250 C   0  0  0  0  0  0  0  0  0  0  0  0
   -9.4323   31.4939    0.4144 C   0  0  0  0  0  0  0  0  0  0  0  0
   -9.9790   30.0621   -5.2214 N   0  0  0  0  0  0  0  0  0  0  0  0
  -10.2788   32.4931    2.3532 C   0  0  0  0  0  0  0  0  0  0  0  0
  -10.0185   30.8062   -4.0611 C   0  0  0  0  0  0  0  0  0  0  0  0
  -12.2287   33.8979    2.2953 O   0  0  0  0  0  0  0  0  0  0  0  0
   -9.2799   31.7262    1.6855 C   0  0  0  0  0  0  0  0  0  0  0  0
  -10.8809   31.5893   -3.3119 C   0  0  0  0  0  0  0  0  0  0  0  0
  -12.8010   32.8316   -0.1643 O   0  0  0  0  0  0  0  0  0  0  0  0
   -6.3808   31.0723   -2.3523 N   0  0  0  0  0  0  0  0  0  0  0  0
   -5.4804   31.6867   -1.5533 C   0  0  0  0  0  0  0  0  0  0  0  0
   -8.9711   31.1653   -2.0619 C   0  0  0  0  0  0  0  0  0  0  0  0
   -7.9712   29.7758   -4.1211 N   0  0  0  0  0  0  0  0  0  0  0  0
   -4.2608   31.1611   -1.9838 C   0  0  0  0  0  0  0  0  0  0  0  0
  -10.5488   32.0020   -0.3828 C   0  0  0  0  0  0  0  0  0  0  0  0
   -4.4557   30.2725   -3.0783 C   0  0  0  0  0  0  0  0  0  0  0  0
  -11.3560   33.0097    1.6967 C   0  0  0  0  0  0  0  0  0  0  0  0
  -10.3164   31.7308   -1.8414 C   0  0  0  0  0  0  0  0  0  0  0  0
  -11.0816   30.1509   -6.1566 N   0  0  0  0  0  0  0  0  0  0  0  0
   -8.8213   30.5838   -3.3490 C   0  0  0  0  0  0  0  0  0  0  0  0
   -6.6300   29.4173   -4.1520 C   0  0  0  0  0  0  0  0  0  0  0  0
   -3.0034   31.4089   -1.4229 F   0  0  0  0  0  0  0  0  0  0  0  0
   -6.3720   28.3690   -5.0500 N   0  0  0  0  0  0  0  0  0  0  0  0
   -7.5543   28.2023   -5.7782 C   0  0  0  0  0  0  0  0  0  0  0  0
  -11.5615   32.6501    0.3424 C   0  0  0  0  0  0  0  0  0  0  0  0
   -7.6138   27.2050   -6.8965 C   0  0  0  0  0  0  0  0  0  0  0  0
  1 11  1  0
  1 17  1  0
  1 22  2  3
  2  4  1  0
  2 14  1  0
  2 25  2  0
  3  8  2  0
  3 16  1  0
  4  6  1  0
  4 20  1  0
  5  8  1  0
  5 18  2  0
  6  9  1  0
  6 21  2  0
  7 18  1  0
  9 19  1  0
 10 26  1  0
 11 12  1  0
 12 15  1  0
 13 19  1  0
 13 21  1  0
 14 21  1  0
 14 22  1  0
 15 17  1  0
 15 23  1  0
 16 19  1  0
 16 26  1  0
 18 26  1  0
 22 24  1  0
 24 25  1  0
 25 27  1  0
M  END
>  <ID>  (1) 
conformer_0

$$$$
