
     RDKit          3D

 30 34  0  0  0  0  0  0  0  0999 V2000
  -10.7687   32.4243   -1.1898 C   0  0  0  0  0  0  0  0  0  0  0  0
   -5.9775   30.8785   -2.4715 C   0  0  0  0  0  0  0  0  0  0  0  0
  -10.1710   33.4994   -0.3505 C   0  0  0  0  0  0  0  0  0  0  0  0
   -0.3946   29.3328   -3.6590 C   0  0  0  0  0  0  0  0  0  0  0  0
   -5.5511   29.4812   -4.2803 C   0  0  0  0  0  0  0  0  0  0  0  0
   -3.5692   31.4098   -0.4229 C   0  0  0  0  0  0  0  0  0  0  0  0
   -9.2912   30.1458   -3.8844 C   0  0  0  0  0  0  0  0  0  0  0  0
   -4.4816   30.5689   -2.5623 C   0  0  0  0  0  0  0  0  0  0  0  0
   -7.7629   28.6802   -4.8416 C   0  0  0  0  0  0  0  0  0  0  0  0
   -8.9825   33.9033   -0.9398 C   0  0  0  0  0  0  0  0  0  0  0  0
   -4.2669   29.9168   -3.8067 C   0  0  0  0  0  0  0  0  0  0  0  0
   -2.4318   30.2376   -5.8196 Cl  0  0  0  0  0  0  0  0  0  0  0  0
   -9.9788   29.1054   -4.5123 N   0  0  0  0  0  0  0  0  0  0  0  0
   -3.3667   30.7131   -1.6713 C   0  0  0  0  0  0  0  0  0  0  0  0
   -6.5968   30.1666   -3.5293 C   0  0  0  0  0  0  0  0  0  0  0  0
   -9.9093   32.1870   -2.3301 C   0  0  0  0  0  0  0  0  0  0  0  0
   -2.1210   30.2506   -1.9826 N   0  0  0  0  0  0  0  0  0  0  0  0
  -11.1907   31.6090   -4.2418 O   0  0  0  0  0  0  0  0  0  0  0  0
   -6.2232   28.4877   -5.1079 C   0  0  0  0  0  0  0  0  0  0  0  0
   -8.7295   33.1141   -2.1704 C   0  0  0  0  0  0  0  0  0  0  0  0
   -1.8439   29.8358   -3.2532 C   0  0  0  0  0  0  0  0  0  0  0  0
  -11.2793   31.9840    2.0166 O   0  0  0  0  0  0  0  0  0  0  0  0
   -8.2339   35.4303   -0.5358 Cl  0  0  0  0  0  0  0  0  0  0  0  0
   -8.9886   28.1899   -5.0870 N   0  0  0  0  0  0  0  0  0  0  0  0
  -10.1375   31.3057   -3.4696 C   0  0  0  0  0  0  0  0  0  0  0  0
  -11.8144   33.0080    1.4449 C   0  0  0  0  0  0  0  0  0  0  0  0
  -10.8336   34.0726    0.8211 C   0  0  0  0  0  0  0  0  0  0  0  0
   -7.9166   29.8217   -3.9587 C   0  0  0  0  0  0  0  0  0  0  0  0
  -13.0562   33.0846    1.1809 O   0  0  0  0  0  0  0  0  0  0  0  0
   -2.9277   29.8854   -4.2271 C   0  0  0  0  0  0  0  0  0  0  0  0
  1  3  1  0
  1 16  1  0
  2  8  1  0
  2 15  1  0
  3 10  2  0
  3 27  1  0
  4 21  1  0
  5 11  1  0
  5 15  2  0
  5 19  1  0
  6 14  1  0
  7 13  1  0
  7 25  1  0
  7 28  1  0
  8 11  1  0
  8 14  1  0
  9 19  1  0
  9 24  1  0
  9 28  2  0
 10 20  1  0
 10 23  1  0
 11 30  1  0
 12 30  1  0
 13 24  1  0
 14 17  2  0
 15 28  1  0
 16 20  1  0
 16 25  1  0
 17 21  1  0
 18 25  1  0
 21 30  1  0
 22 26  2  0
 26 27  1  0
 26 29  1  0
M  END
>  <ID>  (1) 
conformer_0

$$$$
