
     RDKit          3D

 23 25  0  0  0  0  0  0  0  0999 V2000
   -5.8145   30.9496   -2.5688 C   0  0  0  0  0  0  0  0  0  0  0  0
   -3.6962   31.3805   -1.5837 C   0  0  0  0  0  0  0  0  0  0  0  0
  -11.3029   34.5480    0.7233 C   0  0  0  0  0  0  0  0  0  0  0  0
   -9.0855   31.9159   -1.5274 N   0  0  0  0  0  0  0  0  0  0  0  0
   -5.1878   30.1737   -3.5713 C   0  0  0  0  0  0  0  0  0  0  0  0
   -6.4584   27.6251   -6.0773 C   0  0  0  0  0  0  0  0  0  0  0  0
   -5.0548   31.5749   -1.5845 C   0  0  0  0  0  0  0  0  0  0  0  0
  -12.9610   32.8920    1.0397 F   0  0  0  0  0  0  0  0  0  0  0  0
   -6.0091   29.5996   -4.6714 C   0  0  0  0  0  0  0  0  0  0  0  0
  -11.7994   33.2858    0.4861 C   0  0  0  0  0  0  0  0  0  0  0  0
   -6.3452   28.1740   -4.6967 C   0  0  0  0  0  0  0  0  0  0  0  0
   -3.7977   29.9856   -3.5479 C   0  0  0  0  0  0  0  0  0  0  0  0
   -9.8533   32.7966   -0.7737 C   0  0  0  0  0  0  0  0  0  0  0  0
   -9.4837   30.8244   -2.3281 N   0  0  0  0  0  0  0  0  0  0  0  0
  -10.0636   34.9591    0.1451 C   0  0  0  0  0  0  0  0  0  0  0  0
   -3.0475   30.5831   -2.5499 C   0  0  0  0  0  0  0  0  0  0  0  0
  -11.1183   32.3939   -0.2973 C   0  0  0  0  0  0  0  0  0  0  0  0
   -7.7326   32.0928   -1.5891 C   0  0  0  0  0  0  0  0  0  0  0  0
   -5.4246   27.2478   -6.6469 O   0  0  0  0  0  0  0  0  0  0  0  0
   -9.3039   34.0706   -0.5762 C   0  0  0  0  0  0  0  0  0  0  0  0
   -8.3061   30.3390   -2.8722 C   0  0  0  0  0  0  0  0  0  0  0  0
   -7.6436   27.6629   -6.5659 O   0  0  0  0  0  0  0  0  0  0  0  0
   -7.2406   31.1104   -2.4365 C   0  0  0  0  0  0  0  0  0  0  0  0
  1  5  2  0
  1  7  1  0
  1 23  1  0
  2  7  2  0
  2 16  1  0
  3 10  1  0
  3 15  1  0
  4 13  1  0
  4 14  1  0
  4 18  1  0
  5  9  1  0
  5 12  1  0
  6 11  1  0
  6 19  2  0
  6 22  1  0
  8 10  1  0
  9 11  1  0
 10 17  2  0
 12 16  2  0
 13 17  1  0
 13 20  1  0
 14 21  1  0
 15 20  2  0
 18 23  1  0
 21 23  1  0
M  END
>  <ID>  (1) 
conformer_0

$$$$
