
     RDKit          3D

 28 30  0  0  0  0  0  0  0  0999 V2000
  -10.3338   31.7139    0.7259 N   0  0  0  0  0  0  0  0  0  0  0  0
  -10.7094   32.4734   -0.3647 C   0  0  0  0  0  0  0  0  0  0  0  0
  -11.7182   34.0844    1.1705 C   0  0  0  0  0  0  0  0  0  0  0  0
   -9.2175   30.3040   -4.0356 C   0  0  0  0  0  0  0  0  0  0  0  0
  -10.3507   28.0273   -6.9077 N   0  0  0  0  0  0  0  0  0  0  0  0
  -11.1648   33.4506    2.2311 C   0  0  0  0  0  0  0  0  0  0  0  0
   -9.8255   29.7568   -5.2434 C   0  0  0  0  0  0  0  0  0  0  0  0
  -11.1039   31.5964   -3.6610 O   0  0  0  0  0  0  0  0  0  0  0  0
   -3.5671   30.9286   -2.6108 C   0  0  0  0  0  0  0  0  0  0  0  0
   -5.0632   30.8100   -2.6639 C   0  0  0  0  0  0  0  0  0  0  0  0
   -1.9886   30.0553   -0.9762 O   0  0  0  0  0  0  0  0  0  0  0  0
   -6.7644   29.6047   -4.0822 C   0  0  0  0  0  0  0  0  0  0  0  0
   -7.9380   30.1981   -3.4550 C   0  0  0  0  0  0  0  0  0  0  0  0
   -9.2456   31.3906   -2.0290 N   0  0  0  0  0  0  0  0  0  0  0  0
   -3.0878   30.9997   -1.1833 C   0  0  0  0  0  0  0  0  0  0  0  0
   -5.3878   29.9358   -3.8047 C   0  0  0  0  0  0  0  0  0  0  0  0
  -10.2177   32.1036   -1.6124 C   0  0  0  0  0  0  0  0  0  0  0  0
  -10.8459   30.3976   -5.9116 O   0  0  0  0  0  0  0  0  0  0  0  0
  -10.1423   31.3920    3.1883 C   0  0  0  0  0  0  0  0  0  0  0  0
   -7.9755   30.8158   -2.1987 C   0  0  0  0  0  0  0  0  0  0  0  0
   -4.0866   29.2640   -4.2539 C   0  0  0  0  0  0  0  0  0  0  0  0
   -2.9797   29.6938   -3.3187 C   0  0  0  0  0  0  0  0  0  0  0  0
   -6.8460   28.3444   -4.8811 C   0  0  0  0  0  0  0  0  0  0  0  0
  -11.5285   33.6208   -0.1808 C   0  0  0  0  0  0  0  0  0  0  0  0
  -10.5400   32.1940    1.9778 C   0  0  0  0  0  0  0  0  0  0  0  0
   -9.5912   28.4227   -5.7502 C   0  0  0  0  0  0  0  0  0  0  0  0
  -11.1886   34.0033    3.5012 O   0  0  0  0  0  0  0  0  0  0  0  0
   -9.9887   31.1969   -3.1460 C   0  0  0  0  0  0  0  0  0  0  0  0
  1  2  2  0
  1 25  1  0
  2 17  1  0
  2 24  1  0
  3  6  1  0
  3 24  2  0
  4  7  1  0
  4 13  2  0
  4 28  1  0
  5 26  1  0
  6 25  2  0
  6 27  1  0
  7 18  1  0
  7 26  2  3
  8 28  2  0
  9 10  1  0
  9 15  1  0
  9 22  1  0
 10 16  1  0
 11 15  1  0
 12 13  1  0
 12 16  1  0
 12 23  1  0
 13 20  1  0
 14 17  1  0
 14 20  1  0
 14 28  1  0
 16 21  1  0
 19 25  1  0
 21 22  1  0
M  END
>  <ID>  (1) 
conformer_0

$$$$
