
     RDKit          3D

 33 37  0  0  0  0  0  0  0  0999 V2000
   -5.9156   30.3548   -3.5022 C   0  0  0  0  0  0  0  0  0  0  0  0
   -1.5976   29.4124   -4.7855 C   0  0  0  0  0  0  0  0  0  0  0  0
   -9.8987   31.5729   -1.2891 C   0  0  0  0  0  0  0  0  0  0  0  0
   -8.8875   30.8025   -3.0136 C   0  0  0  0  0  0  0  0  0  0  0  0
  -10.2039   30.9798   -2.6211 O   0  0  0  0  0  0  0  0  0  0  0  0
   -2.4087   30.5930   -1.4461 N   0  0  0  0  0  0  0  0  0  0  0  0
   -7.0332   30.0047   -4.2191 O   0  0  0  0  0  0  0  0  0  0  0  0
  -13.0113   35.0883    2.4565 O   0  0  0  0  0  0  0  0  0  0  0  0
  -10.9015   32.6283    0.5857 C   0  0  0  0  0  0  0  0  0  0  0  0
   -9.9084   31.9933    2.7132 C   0  0  0  0  0  0  0  0  0  0  0  0
   -3.6231   30.6754   -2.0422 C   0  0  0  0  0  0  0  0  0  0  0  0
  -12.2142   34.4419    0.0214 O   0  0  0  0  0  0  0  0  0  0  0  0
   -0.8645   30.2859   -5.3376 O   0  0  0  0  0  0  0  0  0  0  0  0
   -2.1853   29.7656   -3.5097 C   0  0  0  0  0  0  0  0  0  0  0  0
  -10.4515   32.7846    3.5977 C   0  0  0  0  0  0  0  0  0  0  0  0
   -4.7161   29.8770   -4.0097 C   0  0  0  0  0  0  0  0  0  0  0  0
   -9.1951   28.5088   -5.5476 N   0  0  0  0  0  0  0  0  0  0  0  0
   -5.9283   31.1340   -2.3246 C   0  0  0  0  0  0  0  0  0  0  0  0
  -11.7077   33.7490    1.0281 C   0  0  0  0  0  0  0  0  0  0  0  0
  -12.0174   34.2093    2.3523 C   0  0  0  0  0  0  0  0  0  0  0  0
  -10.0528   31.8755    1.3846 C   0  0  0  0  0  0  0  0  0  0  0  0
  -11.1303   29.3771   -6.5307 O   0  0  0  0  0  0  0  0  0  0  0  0
  -10.3074   28.2081   -6.4411 C   0  0  0  0  0  0  0  0  0  0  0  0
  -10.6881   30.2507   -5.4014 C   0  0  0  0  0  0  0  0  0  0  0  0
   -2.1670   28.3264   -5.5667 C   0  0  0  0  0  0  0  0  0  0  0  0
   -8.8006   28.4217   -4.0839 C   0  0  0  0  0  0  0  0  0  0  0  0
   -1.5138   30.0570   -2.3360 C   0  0  0  0  0  0  0  0  0  0  0  0
  -11.0305   32.2969   -0.7818 C   0  0  0  0  0  0  0  0  0  0  0  0
   -9.1570   30.1036   -5.3958 C   0  0  0  0  0  0  0  0  0  0  0  0
  -11.4105   33.7673    3.5267 C   0  0  0  0  0  0  0  0  0  0  0  0
   -8.4098   29.9192   -4.0169 C   0  0  0  0  0  0  0  0  0  0  0  0
   -3.5318   30.0605   -3.2934 C   0  0  0  0  0  0  0  0  0  0  0  0
   -4.7784   31.2799   -1.5693 C   0  0  0  0  0  0  0  0  0  0  0  0
  1  7  1  0
  1 16  2  0
  1 18  1  0
  2 13  2  0
  2 14  1  0
  2 25  1  0
  3  5  1  0
  3 28  1  0
  4  5  1  0
  4 31  1  0
  6 11  1  0
  6 27  1  0
  7 31  1  0
  8 20  1  0
  9 19  1  0
  9 21  2  0
  9 28  1  0
 10 15  2  0
 10 21  1  0
 11 32  1  0
 11 33  2  0
 12 19  1  0
 14 27  1  0
 14 32  1  0
 15 30  1  0
 16 32  1  0
 17 23  1  0
 17 26  1  0
 17 29  1  0
 18 33  1  0
 19 20  2  0
 20 30  1  0
 22 23  1  0
 22 24  1  0
 24 29  1  0
 26 31  1  0
 29 31  1  0
M  END
>  <ID>  (1) 
conformer_0

$$$$
