
     RDKit          3D

 44 46  0  0  0  0  0  0  0  0999 V2000
   -6.2998   30.5852   -3.3647 C   0  0  0  0  0  0  0  0  0  0  0  0
   -5.8084   27.8256   -5.2307 O   0  0  0  0  0  0  0  0  0  0  0  0
  -10.9891   34.3329    2.4435 C   0  0  0  0  0  0  0  0  0  0  0  0
   -2.3801   30.8049   -4.3284 C   0  0  0  0  0  0  0  0  0  0  0  0
  -10.9055   29.6069   -6.5080 O   0  0  0  0  0  0  0  0  0  0  0  0
   -5.8618   26.7250   -7.3031 C   0  0  0  0  0  0  0  0  0  0  0  0
   -9.8155   32.1416    3.6711 C   0  0  0  0  0  0  0  0  0  0  0  0
   -9.6133   33.3904    4.1687 C   0  0  0  0  0  0  0  0  0  0  0  0
  -13.0692   32.9999    0.4691 O   0  0  0  0  0  0  0  0  0  0  0  0
   -8.4899   30.3437   -3.7833 C   0  0  0  0  0  0  0  0  0  0  0  0
    1.6611   29.8229   -4.4128 C   0  0  0  0  0  0  0  0  0  0  0  0
   -6.5423   27.4960   -6.3602 C   0  0  0  0  0  0  0  0  0  0  0  0
  -10.5647   31.9727    2.4983 C   0  0  0  0  0  0  0  0  0  0  0  0
   -9.7476   31.0647   -3.2753 C   0  0  0  0  0  0  0  0  0  0  0  0
   -1.9657   32.6977   -5.9369 C   0  0  0  0  0  0  0  0  0  0  0  0
  -10.2185   34.5082    3.6001 C   0  0  0  0  0  0  0  0  0  0  0  0
   -9.8776   31.5771   -2.0786 C   0  0  0  0  0  0  0  0  0  0  0  0
   -5.1063   30.5832   -3.6623 N   0  0  0  0  0  0  0  0  0  0  0  0
   -8.7620   28.6750   -5.6515 C   0  0  0  0  0  0  0  0  0  0  0  0
   -0.6557   29.0851   -4.0095 C   0  0  0  0  0  0  0  0  0  0  0  0
   -4.3484   31.1011   -1.4175 C   0  0  0  0  0  0  0  0  0  0  0  0
  -11.0483   32.2464   -0.3422 N   0  0  0  0  0  0  0  0  0  0  0  0
   -1.9902   30.1927   -1.9822 C   0  0  0  0  0  0  0  0  0  0  0  0
    1.6860   30.9438   -5.0996 O   0  0  0  0  0  0  0  0  0  0  0  0
   -8.3387   29.5660   -4.8784 N   0  0  0  0  0  0  0  0  0  0  0  0
   -4.1567   30.7586   -2.7060 C   0  0  0  0  0  0  0  0  0  0  0  0
  -10.9204   32.0895   -1.5172 N   0  0  0  0  0  0  0  0  0  0  0  0
    0.6580   28.7703   -4.5345 C   0  0  0  0  0  0  0  0  0  0  0  0
   -3.4363   31.0410   -0.3626 N   0  0  0  0  0  0  0  0  0  0  0  0
    2.7863   29.4836   -3.6727 O   0  0  0  0  0  0  0  0  0  0  0  0
  -10.2794   28.4663   -5.9673 C   0  0  0  0  0  0  0  0  0  0  0  0
   -3.0315   31.6303   -5.4228 C   0  0  0  0  0  0  0  0  0  0  0  0
   -2.7928   30.5536   -2.9980 C   0  0  0  0  0  0  0  0  0  0  0  0
   -1.0617   30.3885   -4.5516 N   0  0  0  0  0  0  0  0  0  0  0  0
   -2.3335   30.4241   -0.7478 N   0  0  0  0  0  0  0  0  0  0  0  0
  -11.1443   33.0832    1.8867 C   0  0  0  0  0  0  0  0  0  0  0  0
   -7.9305   27.8450   -6.5777 C   0  0  0  0  0  0  0  0  0  0  0  0
   -6.4536   26.3143   -8.4407 C   0  0  0  0  0  0  0  0  0  0  0  0
   -8.5191   27.3060   -7.7274 N   0  0  0  0  0  0  0  0  0  0  0  0
   -7.7982   26.6077   -8.6327 C   0  0  0  0  0  0  0  0  0  0  0  0
  -11.8553   32.8931    0.5991 C   0  0  0  0  0  0  0  0  0  0  0  0
   -4.4046   31.5710   -0.4326 N   0  0  0  0  0  0  0  0  0  0  0  0
  -10.6814   31.2848   -4.1204 F   0  0  0  0  0  0  0  0  0  0  0  0
   -7.3922   30.6115   -2.9956 C   0  0  0  0  0  0  0  0  0  0  0  0
  1 18  1  0
  1 44  1  0
  2 12  1  0
  3 16  1  0
  3 36  2  0
  4 32  1  0
  4 33  1  0
  4 34  1  0
  5 31  1  0
  6 12  2  0
  6 38  1  0
  7  8  2  0
  7 13  1  0
  8 16  1  0
  9 41  2  0
 10 14  1  0
 10 25  1  0
 10 44  1  0
 11 24  2  0
 11 28  1  0
 11 30  1  0
 12 37  1  0
 13 36  1  0
 14 17  2  3
 14 43  1  0
 15 32  1  0
 17 27  1  0
 18 26  2  3
 19 25  1  0
 19 31  1  0
 19 37  1  0
 20 28  1  0
 20 34  1  0
 21 26  1  0
 21 42  1  0
 22 27  2  3
 22 41  1  0
 23 33  1  0
 23 35  2  0
 26 33  1  0
 29 35  1  0
 29 42  1  0
 36 41  1  0
 37 39  2  0
 38 40  2  0
 39 40  1  0
M  END
>  <ID>  (1) 
conformer_0

$$$$
