
     RDKit          3D

 28 31  0  0  0  0  0  0  0  0999 V2000
   -3.4870   31.5914   -0.3921 N   0  0  0  0  0  0  0  0  0  0  0  0
  -11.7439   34.6333    1.9351 C   0  0  0  0  0  0  0  0  0  0  0  0
   -7.7215   28.3910   -5.1470 N   0  0  0  0  0  0  0  0  0  0  0  0
   -7.4618   26.7236   -7.7052 C   0  0  0  0  0  0  0  0  0  0  0  0
  -10.8342   32.4229   -0.6819 C   0  0  0  0  0  0  0  0  0  0  0  0
  -12.6867   33.6396    2.1513 C   0  0  0  0  0  0  0  0  0  0  0  0
   -3.8642   29.8271   -4.1528 C   0  0  0  0  0  0  0  0  0  0  0  0
   -4.3112   27.6216   -6.0001 O   0  0  0  0  0  0  0  0  0  0  0  0
  -10.7948   31.1516   -4.0499 C   0  0  0  0  0  0  0  0  0  0  0  0
   -8.7238   30.1978   -3.8836 C   0  0  0  0  0  0  0  0  0  0  0  0
   -3.7771   30.4158   -2.7831 C   0  0  0  0  0  0  0  0  0  0  0  0
   -2.7190   30.0325   -1.9670 C   0  0  0  0  0  0  0  0  0  0  0  0
  -11.4410   33.0865    0.2971 C   0  0  0  0  0  0  0  0  0  0  0  0
   -8.9787   30.7833   -2.6423 C   0  0  0  0  0  0  0  0  0  0  0  0
  -10.9496   34.3069    0.8468 C   0  0  0  0  0  0  0  0  0  0  0  0
   -7.5591   29.4902   -4.3155 C   0  0  0  0  0  0  0  0  0  0  0  0
   -4.6991   31.3341   -2.3595 N   0  0  0  0  0  0  0  0  0  0  0  0
  -12.5532   32.6765    1.1009 O   0  0  0  0  0  0  0  0  0  0  0  0
  -11.1046   31.7624   -1.7492 N   0  0  0  0  0  0  0  0  0  0  0  0
   -4.5791   31.9383   -1.1736 C   0  0  0  0  0  0  0  0  0  0  0  0
   -5.2307   29.3037   -4.5298 C   0  0  0  0  0  0  0  0  0  0  0  0
   -9.7744   30.3728   -4.7688 N   0  0  0  0  0  0  0  0  0  0  0  0
   -6.3117   29.8687   -3.9719 N   0  0  0  0  0  0  0  0  0  0  0  0
   -6.9403   26.5465   -6.3848 O   0  0  0  0  0  0  0  0  0  0  0  0
   -6.6966   27.7117   -5.6940 C   0  0  0  0  0  0  0  0  0  0  0  0
   -5.4013   28.2138   -5.4145 C   0  0  0  0  0  0  0  0  0  0  0  0
   -2.6347   30.6326   -0.7698 N   0  0  0  0  0  0  0  0  0  0  0  0
  -10.3327   31.3162   -2.7046 C   0  0  0  0  0  0  0  0  0  0  0  0
  1 20  1  0
  1 27  1  0
  2  6  1  0
  2 15  1  0
  3 16  1  0
  3 25  2  0
  4 24  1  0
  5 13  1  0
  5 19  2  3
  6 18  1  0
  7 11  1  0
  7 21  1  0
  8 26  1  0
  9 22  1  0
  9 28  1  0
 10 14  1  0
 10 16  1  0
 10 22  1  0
 11 12  1  0
 11 17  1  0
 12 27  2  0
 13 15  1  0
 13 18  1  0
 14 28  1  0
 16 23  1  0
 17 20  2  0
 19 28  1  0
 21 23  2  0
 21 26  1  0
 24 25  1  0
 25 26  1  0
M  END
>  <ID>  (1) 
conformer_0

$$$$
