
     RDKit          3D

 34 37  0  0  0  0  0  0  0  0999 V2000
   -0.7936   28.5624   -3.6870 F   0  0  0  0  0  0  0  0  0  0  0  0
  -10.1920   31.2119   -4.2453 C   0  0  0  0  0  0  0  0  0  0  0  0
  -11.2278   30.2720   -6.2089 O   0  0  0  0  0  0  0  0  0  0  0  0
   -8.1830   30.1323   -3.2989 C   0  0  0  0  0  0  0  0  0  0  0  0
  -10.7644   32.6104    2.7767 C   0  0  0  0  0  0  0  0  0  0  0  0
   -8.6214   34.1578   -0.9183 C   0  0  0  0  0  0  0  0  0  0  0  0
   -9.7618   31.8223    2.1686 C   0  0  0  0  0  0  0  0  0  0  0  0
   -4.8251   29.3596   -4.4425 C   0  0  0  0  0  0  0  0  0  0  0  0
   -2.8641   29.5347   -3.0386 C   0  0  0  0  0  0  0  0  0  0  0  0
   -4.1952   29.8903   -3.2916 C   0  0  0  0  0  0  0  0  0  0  0  0
   -4.0542   28.5868   -5.3057 C   0  0  0  0  0  0  0  0  0  0  0  0
   -7.1383   28.6566   -4.9495 C   0  0  0  0  0  0  0  0  0  0  0  0
   -2.1052   28.7821   -3.9603 C   0  0  0  0  0  0  0  0  0  0  0  0
   -6.6237   35.0903   -1.9841 F   0  0  0  0  0  0  0  0  0  0  0  0
   -9.2944   31.1557   -3.0963 C   0  0  0  0  0  0  0  0  0  0  0  0
  -10.6360   29.9569   -4.9887 C   0  0  0  0  0  0  0  0  0  0  0  0
   -9.7145   28.8002   -4.9159 C   0  0  0  0  0  0  0  0  0  0  0  0
  -10.8318   32.7504    4.3331 C   0  0  0  0  0  0  0  0  0  0  0  0
  -11.5529   33.0504    0.5705 C   0  0  0  0  0  0  0  0  0  0  0  0
  -12.6575   33.1912   -0.1824 O   0  0  0  0  0  0  0  0  0  0  0  0
   -7.5752   34.0535   -1.8533 C   0  0  0  0  0  0  0  0  0  0  0  0
  -11.2791   32.1100   -4.1703 O   0  0  0  0  0  0  0  0  0  0  0  0
   -9.8231   27.6907   -5.6396 N   0  0  0  0  0  0  0  0  0  0  0  0
   -7.6294   32.9033   -2.6378 C   0  0  0  0  0  0  0  0  0  0  0  0
   -9.3715   32.9302   -1.0357 C   0  0  0  0  0  0  0  0  0  0  0  0
  -11.7196   33.2175    1.9430 C   0  0  0  0  0  0  0  0  0  0  0  0
   -8.8266   32.1858   -2.2140 C   0  0  0  0  0  0  0  0  0  0  0  0
   -6.1178   29.6092   -4.7542 N   0  0  0  0  0  0  0  0  0  0  0  0
  -10.2772   32.6229    0.0059 C   0  0  0  0  0  0  0  0  0  0  0  0
   -2.7006   28.3075   -5.0886 C   0  0  0  0  0  0  0  0  0  0  0  0
   -2.2250   29.9606   -1.9518 F   0  0  0  0  0  0  0  0  0  0  0  0
   -9.9403   31.6135    4.8249 C   0  0  0  0  0  0  0  0  0  0  0  0
   -8.3988   29.1263   -4.2961 C   0  0  0  0  0  0  0  0  0  0  0  0
   -9.5637   31.7628    0.8527 C   0  0  0  0  0  0  0  0  0  0  0  0
  1 13  1  0
  2 15  1  0
  2 16  1  0
  2 22  1  0
  3 16  1  0
  4 15  1  0
  4 33  1  0
  5  7  1  0
  5 18  1  0
  5 26  2  0
  6 21  1  0
  6 25  1  0
  7 34  2  0
  8 10  1  0
  8 11  2  0
  8 28  1  0
  9 10  2  0
  9 13  1  0
  9 31  1  0
 11 30  1  0
 12 28  1  0
 12 33  1  0
 13 30  2  0
 14 21  1  0
 15 27  1  0
 16 17  1  0
 17 23  2  0
 17 33  1  0
 18 32  1  0
 19 20  1  0
 19 26  1  0
 19 29  1  0
 21 24  1  0
 24 27  1  0
 25 27  1  0
 25 29  1  0
 29 34  1  0
M  END
>  <ID>  (1) 
conformer_0

$$$$
