
     RDKit          3D

 31 34  0  0  0  0  0  0  0  0999 V2000
   -7.0342   29.2707   -4.6375 C   0  0  0  0  0  0  0  0  0  0  0  0
   -9.9684   34.4909   -0.7608 C   0  0  0  0  0  0  0  0  0  0  0  0
   -3.0011   31.1659   -1.0064 C   0  0  0  0  0  0  0  0  0  0  0  0
   -4.3955   31.4878   -1.1752 N   0  0  0  0  0  0  0  0  0  0  0  0
   -6.0700   30.6913   -2.7844 C   0  0  0  0  0  0  0  0  0  0  0  0
   -5.8065   27.6405   -6.0611 C   0  0  0  0  0  0  0  0  0  0  0  0
  -10.5974   33.4248    2.8119 C   0  0  0  0  0  0  0  0  0  0  0  0
  -10.1917   33.6439    4.0671 O   0  0  0  0  0  0  0  0  0  0  0  0
   -6.1425   27.0430   -7.4232 C   0  0  0  0  0  0  0  0  0  0  0  0
   -9.9381   33.9544    1.6830 C   0  0  0  0  0  0  0  0  0  0  0  0
  -11.7308   32.6270    2.6789 C   0  0  0  0  0  0  0  0  0  0  0  0
   -8.5529   30.6737   -3.1273 C   0  0  0  0  0  0  0  0  0  0  0  0
   -8.3437   29.9361   -4.2849 C   0  0  0  0  0  0  0  0  0  0  0  0
   -4.5630   29.4893   -4.0792 C   0  0  0  0  0  0  0  0  0  0  0  0
  -11.5093   30.4914   -6.0264 O   0  0  0  0  0  0  0  0  0  0  0  0
  -10.1025   31.8982   -1.5332 C   0  0  0  0  0  0  0  0  0  0  0  0
  -10.0302   33.4453   -1.9268 C   0  0  0  0  0  0  0  0  0  0  0  0
  -12.3010   32.3752    1.4840 C   0  0  0  0  0  0  0  0  0  0  0  0
  -10.7543   31.2623   -3.8781 C   0  0  0  0  0  0  0  0  0  0  0  0
   -9.3610   29.7962   -5.1784 C   0  0  0  0  0  0  0  0  0  0  0  0
   -7.5818   26.5376   -7.3841 C   0  0  0  0  0  0  0  0  0  0  0  0
   -9.7767   31.2920   -2.8877 C   0  0  0  0  0  0  0  0  0  0  0  0
   -6.9806   28.3161   -5.5250 N   0  0  0  0  0  0  0  0  0  0  0  0
  -11.6637   32.8741    0.3527 C   0  0  0  0  0  0  0  0  0  0  0  0
  -11.6800   29.0541   -6.3261 C   0  0  0  0  0  0  0  0  0  0  0  0
   -5.9547   29.7946   -3.8908 C   0  0  0  0  0  0  0  0  0  0  0  0
  -10.4703   33.6949    0.4808 C   0  0  0  0  0  0  0  0  0  0  0  0
   -2.6569   30.3002   -2.0728 C   0  0  0  0  0  0  0  0  0  0  0  0
   -3.8471   30.1264   -2.8925 N   0  0  0  0  0  0  0  0  0  0  0  0
   -4.8605   30.8596   -2.2086 C   0  0  0  0  0  0  0  0  0  0  0  0
  -10.5346   30.5238   -5.0343 C   0  0  0  0  0  0  0  0  0  0  0  0
  1 13  1  0
  1 23  2  3
  1 26  1  0
  2 17  1  0
  2 27  1  0
  3  4  1  0
  3 28  1  0
  4 30  2  0
  5 26  1  0
  5 30  1  0
  6  9  1  0
  6 23  1  0
  7  8  1  0
  7 10  2  0
  7 11  1  0
  9 21  1  0
 10 27  1  0
 11 18  2  0
 12 13  2  0
 12 22  1  0
 13 20  1  0
 14 26  1  0
 14 29  1  0
 15 25  1  0
 15 31  1  0
 16 17  1  0
 16 22  1  0
 18 24  1  0
 19 22  2  0
 19 31  1  0
 20 31  2  0
 24 27  2  0
 28 29  1  0
 29 30  1  0
M  END
>  <ID>  (1) 
conformer_0

$$$$
