
     RDKit          3D

 28 30  0  0  0  0  0  0  0  0999 V2000
   -3.6453   32.1082   -0.1074 O   0  0  0  0  0  0  0  0  0  0  0  0
   -9.7994   28.8980   -4.9231 C   0  0  0  0  0  0  0  0  0  0  0  0
   -7.8833   31.7934   -2.3966 C   0  0  0  0  0  0  0  0  0  0  0  0
   -6.7308   26.4044   -8.0571 C   0  0  0  0  0  0  0  0  0  0  0  0
   -7.4751   28.8087   -4.7585 C   0  0  0  0  0  0  0  0  0  0  0  0
  -11.7858   32.9944    0.5140 C   0  0  0  0  0  0  0  0  0  0  0  0
   -9.4158   31.5726   -2.2054 C   0  0  0  0  0  0  0  0  0  0  0  0
   -9.3754   29.8281   -3.8671 C   0  0  0  0  0  0  0  0  0  0  0  0
   -7.2805   30.7096   -3.0902 C   0  0  0  0  0  0  0  0  0  0  0  0
   -6.9647   32.8249   -1.9742 C   0  0  0  0  0  0  0  0  0  0  0  0
  -10.9460   34.3430    2.4279 C   0  0  0  0  0  0  0  0  0  0  0  0
   -3.8150   30.9286   -2.1367 O   0  0  0  0  0  0  0  0  0  0  0  0
  -12.8799   32.6627   -0.0599 O   0  0  0  0  0  0  0  0  0  0  0  0
   -7.3718   34.2766   -1.7212 C   0  0  0  0  0  0  0  0  0  0  0  0
   -5.9282   30.4741   -3.0299 C   0  0  0  0  0  0  0  0  0  0  0  0
   -3.2472   31.1299   -0.8867 C   0  0  0  0  0  0  0  0  0  0  0  0
  -10.5790   32.5779   -0.1201 N   0  0  0  0  0  0  0  0  0  0  0  0
   -5.1096   31.3277   -2.3219 C   0  0  0  0  0  0  0  0  0  0  0  0
  -11.9430   33.4369    1.9250 C   0  0  0  0  0  0  0  0  0  0  0  0
   -2.5497   30.1090   -0.5158 O   0  0  0  0  0  0  0  0  0  0  0  0
   -8.4287   27.5205   -6.6948 C   0  0  0  0  0  0  0  0  0  0  0  0
   -9.9936   30.6556   -3.0289 C   0  0  0  0  0  0  0  0  0  0  0  0
   -9.3206   27.5253   -7.5382 O   0  0  0  0  0  0  0  0  0  0  0  0
   -8.5863   28.3390   -5.5040 C   0  0  0  0  0  0  0  0  0  0  0  0
   -5.6185   32.5559   -1.8572 C   0  0  0  0  0  0  0  0  0  0  0  0
   -8.0040   29.7998   -3.8384 N   0  0  0  0  0  0  0  0  0  0  0  0
  -10.5528   32.0517   -1.3468 O   0  0  0  0  0  0  0  0  0  0  0  0
   -7.4391   26.5869   -6.7132 O   0  0  0  0  0  0  0  0  0  0  0  0
  1 16  2  0
  2  8  1  0
  2 24  1  0
  3  7  1  0
  3  9  1  0
  3 10  1  0
  4 28  1  0
  5 24  1  0
  5 26  1  0
  6 13  2  0
  6 17  1  0
  6 19  1  0
  7 22  1  0
  7 27  1  0
  8 22  2  0
  8 26  1  0
  9 15  1  0
  9 26  1  0
 10 14  1  0
 10 25  2  0
 11 19  1  0
 12 16  1  0
 12 18  1  0
 15 18  2  0
 16 20  1  0
 17 27  1  0
 18 25  1  0
 21 23  2  0
 21 24  1  0
 21 28  1  0
M  END
>  <ID>  (1) 
conformer_0

$$$$
