
     RDKit          3D

 31 34  0  0  0  0  0  0  0  0999 V2000
   -9.2481   28.9316   -4.5603 O   0  0  0  0  0  0  0  0  0  0  0  0
  -10.1494   32.1693    3.8139 C   0  0  0  0  0  0  0  0  0  0  0  0
   -2.4961   29.6875   -4.0064 C   0  0  0  0  0  0  0  0  0  0  0  0
   -8.4199   31.0374   -3.2912 C   0  0  0  0  0  0  0  0  0  0  0  0
   -4.0398   28.2842   -5.2116 C   0  0  0  0  0  0  0  0  0  0  0  0
   -9.3435   30.2375   -3.9422 C   0  0  0  0  0  0  0  0  0  0  0  0
  -11.1363   31.5450   -3.0804 C   0  0  0  0  0  0  0  0  0  0  0  0
  -10.6207   32.1230    1.3442 N   0  0  0  0  0  0  0  0  0  0  0  0
   -4.5284   30.9960   -2.6163 C   0  0  0  0  0  0  0  0  0  0  0  0
   -5.1750   27.6698   -5.4252 O   0  0  0  0  0  0  0  0  0  0  0  0
  -11.1627   32.6746    0.2634 C   0  0  0  0  0  0  0  0  0  0  0  0
   -2.9817   27.7237   -6.0302 C   0  0  0  0  0  0  0  0  0  0  0  0
   -8.0062   28.2683   -4.6292 C   0  0  0  0  0  0  0  0  0  0  0  0
   -3.2363   31.1930   -2.2998 C   0  0  0  0  0  0  0  0  0  0  0  0
   -1.4552   29.1248   -4.7838 C   0  0  0  0  0  0  0  0  0  0  0  0
   -8.8486   32.0389   -2.4711 C   0  0  0  0  0  0  0  0  0  0  0  0
   -3.8085   29.3463   -4.2710 C   0  0  0  0  0  0  0  0  0  0  0  0
   -6.9084   29.0223   -4.2879 C   0  0  0  0  0  0  0  0  0  0  0  0
   -1.7120   28.1800   -5.7970 C   0  0  0  0  0  0  0  0  0  0  0  0
   -5.4911   31.6552   -2.0496 O   0  0  0  0  0  0  0  0  0  0  0  0
  -12.1722   33.6655    0.4197 N   0  0  0  0  0  0  0  0  0  0  0  0
   -7.9981   33.1587   -2.1209 F   0  0  0  0  0  0  0  0  0  0  0  0
   -4.8326   30.0436   -3.6034 N   0  0  0  0  0  0  0  0  0  0  0  0
  -10.2218   32.0340   -2.1146 C   0  0  0  0  0  0  0  0  0  0  0  0
  -10.6659   30.6983   -3.9851 C   0  0  0  0  0  0  0  0  0  0  0  0
  -11.8594   33.6285    2.7397 N   0  0  0  0  0  0  0  0  0  0  0  0
   -2.2209   30.5315   -3.0273 C   0  0  0  0  0  0  0  0  0  0  0  0
  -10.9119   32.6410    2.5783 C   0  0  0  0  0  0  0  0  0  0  0  0
   -6.1301   29.8313   -3.9072 N   0  0  0  0  0  0  0  0  0  0  0  0
  -12.4776   34.0667    1.6533 C   0  0  0  0  0  0  0  0  0  0  0  0
  -10.7194   32.3597   -0.9424 N   0  0  0  0  0  0  0  0  0  0  0  0
  1  6  1  0
  1 13  1  0
  2 28  1  0
  3 15  1  0
  3 17  1  0
  3 27  2  0
  4  6  1  0
  4 16  1  0
  5 10  1  0
  5 12  1  0
  5 17  2  0
  6 25  1  0
  7 24  1  0
  7 25  2  0
  8 11  2  0
  8 28  1  0
  9 14  1  0
  9 20  2  0
  9 23  1  0
 11 21  1  0
 11 31  1  0
 12 19  2  0
 13 18  1  0
 14 27  1  0
 15 19  1  0
 16 22  1  0
 16 24  1  0
 17 23  1  0
 18 29  1  0
 21 30  1  0
 23 29  1  0
 24 31  1  0
 26 28  1  0
 26 30  2  0
M  END
>  <ID>  (1) 
conformer_0

$$$$
