
     RDKit          3D

 26 31  0  0  0  0  0  0  0  0999 V2000
   -3.3329   30.5883   -1.7877 C   0  0  0  0  0  0  0  0  0  0  0  0
   -9.8635   31.2280   -2.8387 C   0  0  0  0  0  0  0  0  0  0  0  0
  -11.3035   32.8617    0.3185 P   0  0  0  0  0  4  0  0  0  0  0  0
   -8.5732   31.4573   -2.3149 C   0  0  0  0  0  0  0  0  0  0  0  0
   -5.4140   29.1770   -4.3472 N   0  0  0  0  0  0  0  0  0  0  0  0
   -7.7039   30.1081   -4.1720 C   0  0  0  0  0  0  0  0  0  0  0  0
  -10.1069   30.6289   -4.0452 O   0  0  0  0  0  0  0  0  0  0  0  0
   -5.1362   30.1086   -3.3174 C   0  0  0  0  0  0  0  0  0  0  0  0
  -10.8758   31.6289   -1.9378 C   0  0  0  0  0  0  0  0  0  0  0  0
   -7.6268   28.0875   -5.4741 C   0  0  0  0  0  0  0  0  0  0  0  0
  -10.9504   34.3303    0.4055 O   0  0  0  0  0  1  0  0  0  0  0  0
   -5.9801   31.0256   -2.7001 N   0  0  0  0  0  0  0  0  0  0  0  0
   -4.2805   28.4809   -4.6463 C   0  0  0  0  0  0  0  0  0  0  0  0
   -4.1871   31.5459   -1.2823 N   0  0  0  0  0  0  0  0  0  0  0  0
   -6.7969   29.1102   -4.7210 C   0  0  0  0  0  0  0  0  0  0  0  0
   -3.2350   28.8916   -3.7490 C   0  0  0  0  0  0  0  0  0  0  0  0
   -2.2415   30.2780   -1.2119 N   0  0  0  0  0  0  0  0  0  0  0  0
   -9.1352   28.5810   -5.3283 C   0  0  0  0  0  0  0  0  0  0  0  0
  -10.2548   32.2021   -0.9255 C   0  0  0  0  0  0  0  0  0  0  0  0
  -12.7286   32.7312   -0.0354 O   0  0  0  0  0  0  0  0  0  0  0  0
   -9.0535   29.9603   -4.7171 C   0  0  0  0  0  0  0  0  0  0  0  0
   -7.3934   31.0057   -3.0444 C   0  0  0  0  0  0  0  0  0  0  0  0
   -3.7862   29.8843   -2.9380 C   0  0  0  0  0  0  0  0  0  0  0  0
   -8.8156   32.1032   -1.0265 C   0  0  0  0  0  0  0  0  0  0  0  0
   -5.4529   31.8114   -1.7047 C   0  0  0  0  0  0  0  0  0  0  0  0
  -11.0414   32.0239    1.5016 O   0  0  0  0  0  0  0  0  0  0  0  0
  1 14  1  0
  1 17  2  0
  1 23  1  0
  2  4  2  0
  2  7  1  0
  2  9  1  0
  3 11  2  0
  3 19  1  0
  3 20  1  0
  3 26  1  0
  4 22  1  0
  4 24  1  0
  5  8  1  0
  5 13  1  0
  5 15  1  0
  6 15  1  0
  6 21  1  0
  6 22  1  0
  7 21  1  0
  8 12  1  0
  8 23  2  0
  9 19  1  0
 10 15  1  0
 10 18  1  0
 12 22  1  0
 12 25  1  0
 13 16  1  0
 14 25  2  0
 16 23  1  0
 18 21  1  0
 19 24  1  0
M  END
>  <ID>  (1) 
conformer_0

$$$$
