
     RDKit          3D

 46 50  0  0  0  0  0  0  0  0999 V2000
   -9.0871   28.4270   -5.7096 C   0  0  0  0  0  0  0  0  0  0  0  0
  -10.9857   31.9612    2.1671 C   0  0  0  0  0  0  0  0  0  0  0  0
   -4.9325   28.1853   -5.7608 C   0  0  0  0  0  0  0  0  0  0  0  0
   -6.1423   32.5940   -1.7394 N   0  0  0  0  0  0  0  0  0  0  0  0
  -10.5847   34.1261    3.0586 C   0  0  0  0  0  0  0  0  0  0  0  0
    0.9192   28.8577   -5.0268 C   0  0  0  0  0  0  0  0  0  0  0  0
   -6.8696   26.9788   -6.9586 C   0  0  0  0  0  0  0  0  0  0  0  0
   -6.1639   27.8397   -6.2362 N   0  0  0  0  0  0  0  0  0  0  0  0
   -4.5004   30.9312   -2.7537 C   0  0  0  0  0  0  0  0  0  0  0  0
  -12.3364   33.8087    1.3439 C   0  0  0  0  0  0  0  0  0  0  0  0
   -8.7710   32.5208   -2.1881 C   0  0  0  0  0  0  0  0  0  0  0  0
   -3.1281   31.0688   -0.4875 N   0  0  0  0  0  0  0  0  0  0  0  0
  -11.1350   32.2754   -1.7030 N   0  0  0  0  0  0  0  0  0  0  0  0
  -11.0664   29.5745   -6.4558 O   0  0  0  0  0  0  0  0  0  0  0  0
  -10.9751   33.0937   -0.6570 C   0  0  0  0  0  0  0  0  0  0  0  0
   -6.1147   33.5772   -0.4929 N   0  0  0  0  0  0  0  0  0  0  0  0
  -10.4451   31.3150   -3.7480 C   0  0  0  0  0  0  0  0  0  0  0  0
   -3.6281   27.9508   -6.1827 C   0  0  0  0  0  0  0  0  0  0  0  0
    1.2531   29.4990   -6.0476 N   0  0  0  0  0  0  0  0  0  0  0  0
   -2.2444   30.1640   -1.0689 N   0  0  0  0  0  0  0  0  0  0  0  0
   -9.5518   33.5454   -0.1980 C   0  0  0  0  0  0  0  0  0  0  0  0
   -3.6834   29.2770   -4.2886 C   0  0  0  0  0  0  0  0  0  0  0  0
   -8.5374   33.3258   -0.9822 C   0  0  0  0  0  0  0  0  0  0  0  0
   -8.2047   28.4885   -4.4339 C   0  0  0  0  0  0  0  0  0  0  0  0
   -5.0771   31.8314   -1.7383 C   0  0  0  0  0  0  0  0  0  0  0  0
   -2.4046   29.7238   -2.2400 C   0  0  0  0  0  0  0  0  0  0  0  0
   -1.4687   28.7157   -5.3398 C   0  0  0  0  0  0  0  0  0  0  0  0
  -10.3433   29.8770   -4.0826 C   0  0  0  0  0  0  0  0  0  0  0  0
   -7.4171   35.4009   -1.1606 F   0  0  0  0  0  0  0  0  0  0  0  0
   -4.1861   31.7597   -0.6857 N   0  0  0  0  0  0  0  0  0  0  0  0
   -9.5520   32.2463    4.0576 C   0  0  0  0  0  0  0  0  0  0  0  0
    1.8863   28.4525   -4.2990 C   0  0  0  0  0  0  0  0  0  0  0  0
   -9.7830   33.5913    4.0511 N   0  0  0  0  0  0  0  0  0  0  0  0
  -10.0984   31.4357    3.1262 C   0  0  0  0  0  0  0  0  0  0  0  0
  -11.2161   33.3179    2.1714 C   0  0  0  0  0  0  0  0  0  0  0  0
  -13.2212   34.6015    1.8869 O   0  0  0  0  0  0  0  0  0  0  0  0
  -11.6010   31.8425   -4.4164 O   0  0  0  0  0  0  0  0  0  0  0  0
  -10.0644   32.0739   -2.5121 C   0  0  0  0  0  0  0  0  0  0  0  0
  -10.2827   29.3750   -5.4686 C   0  0  0  0  0  0  0  0  0  0  0  0
   -3.5083   30.0539   -3.0390 C   0  0  0  0  0  0  0  0  0  0  0  0
   -4.8885   28.9953   -4.6635 N   0  0  0  0  0  0  0  0  0  0  0  0
  -12.2479   33.3532    0.0275 N   0  0  0  0  0  0  0  0  0  0  0  0
   -8.0642   27.8639   -6.8213 C   0  0  0  0  0  0  0  0  0  0  0  0
   -7.2245   34.2019   -0.8407 C   0  0  0  0  0  0  0  0  0  0  0  0
   -0.4164   28.7326   -4.7160 C   0  0  0  0  0  0  0  0  0  0  0  0
   -2.8061   28.7001   -5.1830 C   0  0  0  0  0  0  0  0  0  0  0  0
  1 24  1  0
  1 39  1  0
  1 43  1  0
  2 34  1  0
  2 35  1  0
  3  8  2  0
  3 18  1  0
  3 41  1  0
  4 16  1  0
  4 25  1  0
  5 33  1  0
  5 35  2  0
  6 19  2  0
  6 32  1  0
  6 45  1  0
  7  8  1  0
  7 43  1  0
  9 25  1  0
  9 40  2  0
 10 35  1  0
 10 36  2  0
 10 42  1  0
 11 23  1  0
 11 38  2  0
 12 20  1  0
 12 30  1  0
 13 15  2  0
 13 38  1  0
 14 39  2  0
 15 21  1  0
 15 42  1  0
 16 44  1  0
 17 28  1  0
 17 37  1  0
 17 38  1  0
 18 46  1  0
 20 26  2  0
 21 23  2  0
 22 40  1  0
 22 41  1  0
 22 46  2  0
 23 44  1  0
 25 30  2  0
 26 40  1  0
 27 45  2  3
 27 46  1  0
 28 39  1  0
 29 44  1  0
 31 33  1  0
 31 34  2  0
M  END
>  <ID>  (1) 
conformer_0

$$$$
