
     RDKit          3D

 24 26  0  0  0  0  0  0  0  0999 V2000
  -10.8561   32.2525   -3.1626 N   0  0  0  0  0  0  0  0  0  0  0  0
  -10.4441   32.2813   -1.8638 C   0  0  0  0  0  0  0  0  0  0  0  0
   -5.6885   28.8193   -4.7215 C   0  0  0  0  0  0  0  0  0  0  0  0
  -11.2356   32.8144    0.2547 C   0  0  0  0  0  0  0  0  0  0  0  0
  -10.0846   31.3410   -3.9374 C   0  0  0  0  0  0  0  0  0  0  0  0
   -4.6178   28.1716   -5.4524 C   0  0  0  0  0  0  0  0  0  0  0  0
  -11.0230   33.2011   -0.9978 N   0  0  0  0  0  0  0  0  0  0  0  0
   -9.2807   31.3696   -1.7392 C   0  0  0  0  0  0  0  0  0  0  0  0
   -6.9951   28.4548   -4.9615 C   0  0  0  0  0  0  0  0  0  0  0  0
  -13.1308   33.4059    1.6972 N   0  0  0  0  0  0  0  0  0  0  0  0
  -12.0163   33.7893    1.0474 C   0  0  0  0  0  0  0  0  0  0  0  0
   -4.4073   31.0475   -2.1902 C   0  0  0  0  0  0  0  0  0  0  0  0
   -4.1151   30.2127   -3.2756 C   0  0  0  0  0  0  0  0  0  0  0  0
   -7.8095   30.2130   -3.4492 C   0  0  0  0  0  0  0  0  0  0  0  0
   -8.9779   30.9739   -3.1066 C   0  0  0  0  0  0  0  0  0  0  0  0
  -10.3960   31.0778   -5.1574 O   0  0  0  0  0  0  0  0  0  0  0  0
   -5.4161   29.7988   -3.7718 C   0  0  0  0  0  0  0  0  0  0  0  0
   -5.8308   31.2823   -2.0583 C   0  0  0  0  0  0  0  0  0  0  0  0
   -8.0039   29.1285   -4.3195 C   0  0  0  0  0  0  0  0  0  0  0  0
   -6.4505   30.4727   -3.0802 C   0  0  0  0  0  0  0  0  0  0  0  0
  -10.8610   31.7446    0.8198 O   0  0  0  0  0  0  0  0  0  0  0  0
   -2.9016   31.1763   -0.2508 O   0  0  0  0  0  0  0  0  0  0  0  0
   -3.3626   31.5127   -1.4435 N   0  0  0  0  0  0  0  0  0  0  0  0
  -11.6246   35.0013    1.0692 O   0  0  0  0  0  0  0  0  0  0  0  0
  1  2  2  0
  1  5  1  0
  2  7  1  0
  2  8  1  0
  3  6  1  0
  3  9  1  0
  3 17  2  0
  4  7  1  0
  4 11  1  0
  4 21  2  0
  5 15  1  0
  5 16  2  0
  8 15  1  0
  9 19  2  0
 10 11  1  0
 11 24  2  0
 12 13  1  0
 12 18  1  0
 12 23  1  0
 13 17  1  0
 14 15  1  0
 14 19  1  0
 14 20  1  0
 17 20  1  0
 18 20  1  0
 22 23  1  0
M  END
>  <ID>  (1) 
conformer_0

$$$$
