
     RDKit          3D

 36 38  0  0  0  0  0  0  0  0999 V2000
   -5.3329   30.4030   -3.8127 C   0  0  0  0  0  0  0  0  0  0  0  0
   -7.9504   32.4517   -2.1708 C   0  0  0  0  0  0  0  0  0  0  0  0
   -3.4128   30.3546   -2.3071 C   0  0  0  0  0  0  0  0  0  0  0  0
  -11.8887   33.3541    0.6567 S   0  0  0  0  0  4  0  0  0  0  0  0
   -6.0613   24.9567   -8.5943 O   0  0  0  0  0  0  0  0  0  0  0  0
   -6.5391   34.4034   -1.7511 F   0  0  0  0  0  0  0  0  0  0  0  0
   -4.0338   30.0078   -3.5209 C   0  0  0  0  0  0  0  0  0  0  0  0
   -8.6642   33.9239   -0.4660 C   0  0  0  0  0  0  0  0  0  0  0  0
  -11.5738   32.8998    2.2434 O   0  0  0  0  0  0  0  0  0  0  0  0
   -7.6334   26.6820   -8.1331 C   0  0  0  0  0  0  0  0  0  0  0  0
   -9.5033   30.5472   -4.0174 N   0  0  0  0  0  0  0  0  0  0  0  0
   -7.6165   33.5756   -1.4277 C   0  0  0  0  0  0  0  0  0  0  0  0
  -10.5578   32.0228    2.4928 C   0  0  0  0  0  0  0  0  0  0  0  0
   -5.9399   31.1825   -2.8400 C   0  0  0  0  0  0  0  0  0  0  0  0
  -10.6363   30.6545   -4.9442 C   0  0  0  0  0  0  0  0  0  0  0  0
   -4.1433   31.0219   -1.3237 C   0  0  0  0  0  0  0  0  0  0  0  0
   -5.3813   31.4349   -1.6314 C   0  0  0  0  0  0  0  0  0  0  0  0
   -6.2444   26.2261   -8.4698 C   0  0  0  0  0  0  0  0  0  0  0  0
   -9.3140   32.1526   -1.9147 C   0  0  0  0  0  0  0  0  0  0  0  0
   -3.5217   31.3249    0.0308 C   0  0  0  0  0  0  0  0  0  0  0  0
   -8.6716   29.4257   -4.4894 C   0  0  0  0  0  0  0  0  0  0  0  0
   -9.1945   27.7529   -6.6167 C   0  0  0  0  0  0  0  0  0  0  0  0
   -7.8251   27.4421   -6.9161 C   0  0  0  0  0  0  0  0  0  0  0  0
   -4.5076   31.0628    0.9894 F   0  0  0  0  0  0  0  0  0  0  0  0
  -11.8043   34.8238    0.4728 O   0  0  0  0  0  0  0  0  0  0  0  0
   -7.1678   31.7584   -3.0380 C   0  0  0  0  0  0  0  0  0  0  0  0
   -6.7397   27.5408   -5.9916 C   0  0  0  0  0  0  0  0  0  0  0  0
   -9.4520   28.6495   -5.5211 C   0  0  0  0  0  0  0  0  0  0  0  0
   -3.1932   32.6114    0.1158 F   0  0  0  0  0  0  0  0  0  0  0  0
   -2.5012   30.4910    0.1842 F   0  0  0  0  0  0  0  0  0  0  0  0
   -9.9784   31.2277   -2.7149 C   0  0  0  0  0  0  0  0  0  0  0  0
  -10.6915   29.4699   -5.7907 C   0  0  0  0  0  0  0  0  0  0  0  0
  -10.7367   32.6637   -0.1694 O   0  0  0  0  0  0  0  0  0  0  0  0
  -13.1458   32.7884    0.2515 O   0  0  0  0  0  0  0  0  0  0  0  0
   -9.6939   32.9578   -0.7395 C   0  0  0  0  0  0  0  0  0  0  0  0
   -5.3003   27.0757   -8.5239 O   0  0  0  0  0  0  0  0  0  0  0  0
  1  7  1  0
  1 14  1  0
  2 12  1  0
  2 19  1  0
  2 26  1  0
  3  7  2  0
  3 16  1  0
  4  9  1  0
  4 25  1  0
  4 33  1  0
  4 34  1  0
  5 18  2  0
  6 12  1  0
  8 12  1  0
  8 35  1  0
  9 13  1  0
 10 18  1  0
 10 23  2  3
 11 15  1  0
 11 21  1  0
 11 31  1  0
 14 17  1  0
 14 26  2  3
 15 32  1  0
 16 17  2  0
 16 20  1  0
 18 36  1  0
 19 31  1  0
 19 35  2  0
 20 24  1  0
 20 29  1  0
 20 30  1  0
 21 28  1  0
 22 23  1  0
 22 28  1  0
 23 27  1  0
 28 32  1  0
 33 35  1  0
M  END
>  <ID>  (1) 
conformer_0

$$$$
