
     RDKit          3D

 67 74  0  0  0  0  0  0  0  0999 V2000
   -2.7156   30.4525   -0.2373 N   0  0  0  0  0  0  0  0  0  0  0  0
  -10.1508   26.1167  -10.3505 O   0  0  0  0  0  0  0  0  0  0  0  0
   -9.3163   32.5144   -1.3341 C   0  0  0  0  0  0  0  0  0  0  0  0
  -10.4524   33.1704    0.8169 C   0  0  0  0  0  0  0  0  0  0  0  0
   -9.5031   28.3986   -5.8372 C   0  0  0  0  0  0  0  0  0  0  0  0
  -11.4005   27.7815   -8.3302 C   0  0  0  0  0  0  0  0  0  0  0  0
   -9.0595   31.3280   11.1050 C   0  0  0  0  0  0  0  0  0  0  0  0
  -11.9974   26.5886   -8.1317 O   0  0  0  0  0  0  0  0  0  0  0  0
  -11.9557   33.4521    1.2148 C   0  0  0  0  0  0  0  0  0  0  0  0
   -4.1142   30.7163    4.6240 C   0  0  0  0  0  0  0  0  0  0  0  0
   -5.8193   26.9838   -7.1410 C   0  0  0  0  0  0  0  0  0  0  0  0
   -9.1231   32.0082    5.9679 C   0  0  0  0  0  0  0  0  0  0  0  0
   -7.9228   27.1690   -7.1100 C   0  0  0  0  0  0  0  0  0  0  0  0
   -0.8604   29.0501   -4.5099 N   0  0  0  0  0  0  0  0  0  0  0  0
   -8.2864   33.4627   -1.1099 C   0  0  0  0  0  0  0  0  0  0  0  0
   -9.4351   26.5134   -9.2541 C   0  0  0  0  0  0  0  0  0  0  0  0
  -10.9263   32.6060    4.2208 N   0  0  0  0  0  0  0  0  0  0  0  0
   -9.3099   27.5333   -7.0181 C   0  0  0  0  0  0  0  0  0  0  0  0
  -10.0156   30.1274   -4.1486 C   0  0  0  0  0  0  0  0  0  0  0  0
   -9.1493   31.6034    9.9074 N   0  0  0  0  0  0  0  0  0  0  0  0
   -8.4537   31.7272    7.1130 C   0  0  0  0  0  0  0  0  0  0  0  0
   -1.3294   30.2097   -2.3252 C   0  0  0  0  0  0  0  0  0  0  0  0
   -9.4066   31.4095   11.9578 N   0  0  0  0  0  0  0  0  0  0  0  0
   -6.9471   27.8150   -6.1099 C   0  0  0  0  0  0  0  0  0  0  0  0
   -7.4723   25.5396  -10.3456 O   0  0  0  0  0  0  0  0  0  0  0  0
   -3.0058   30.5583    3.1697 C   0  0  0  0  0  0  0  0  0  0  0  0
   -3.3436   31.4404   -2.2127 O   0  0  0  0  0  0  0  0  0  0  0  0
  -10.5712   32.7394   -0.6212 C   0  0  0  0  0  0  0  0  0  0  0  0
   -5.4846   30.8205    2.6935 C   0  0  0  0  0  0  0  0  0  0  0  0
   -1.7784   28.3978   -5.6031 C   0  0  0  0  0  0  0  0  0  0  0  0
   -4.5907   26.7835   -6.3341 O   0  0  0  0  0  0  0  0  0  0  0  0
   -5.3581   30.9307    4.1570 C   0  0  0  0  0  0  0  0  0  0  0  0
    0.5815   29.1980   -4.2541 C   0  0  0  0  0  0  0  0  0  0  0  0
  -13.4260   30.1617   -6.9204 C   0  0  0  0  0  0  0  0  0  0  0  0
    1.7705   27.6817   -5.9663 C   0  0  0  0  0  0  0  0  0  0  0  0
    1.6387   28.3850   -4.7398 C   0  0  0  0  0  0  0  0  0  0  0  0
   -7.6743   31.8344    5.6481 C   0  0  0  0  0  0  0  0  0  0  0  0
   -5.7491   28.4672   -5.3293 C   0  0  0  0  0  0  0  0  0  0  0  0
   -6.6757   34.8649   -1.8960 C   0  0  0  0  0  0  0  0  0  0  0  0
   -8.1902   28.6566   -5.1283 C   0  0  0  0  0  0  0  0  0  0  0  0
  -11.7377   28.7968   -7.2728 C   0  0  0  0  0  0  0  0  0  0  0  0
   -6.5554   31.3653    4.9659 N   0  0  0  0  0  0  0  0  0  0  0  0
   -8.1393   30.7697   -2.9319 O   0  0  0  0  0  0  0  0  0  0  0  0
  -12.8507   32.6463    1.0910 O   0  0  0  0  0  0  0  0  0  0  0  0
  -10.4481   31.0232   -3.0938 C   0  0  0  0  0  0  0  0  0  0  0  0
   -9.9571   27.4682   -8.3258 C   0  0  0  0  0  0  0  0  0  0  0  0
  -10.6186   29.2606   -5.2469 C   0  0  0  0  0  0  0  0  0  0  0  0
   -7.2957   33.5552   -2.0834 O   0  0  0  0  0  0  0  0  0  0  0  0
   -3.8959   30.7399    2.1381 C   0  0  0  0  0  0  0  0  0  0  0  0
   -2.5317   30.7365   -1.6175 C   0  0  0  0  0  0  0  0  0  0  0  0
   -4.4004   28.0293   -5.6547 C   0  0  0  0  0  0  0  0  0  0  0  0
   -7.1493   26.7466   -8.2670 C   0  0  0  0  0  0  0  0  0  0  0  0
   -1.7140   29.5823   -3.5876 C   0  0  0  0  0  0  0  0  0  0  0  0
   -8.5486   29.7439   -3.9651 C   0  0  0  0  0  0  0  0  0  0  0  0
  -12.1938   34.6172    1.5916 O   0  0  0  0  0  0  0  0  0  0  0  0
   -3.0003   29.2976   -4.1147 C   0  0  0  0  0  0  0  0  0  0  0  0
  -10.1104   32.6079    5.4021 C   0  0  0  0  0  0  0  0  0  0  0  0
  -12.9623   30.9033   -7.9532 O   0  0  0  0  0  0  0  0  0  0  0  0
   -9.0335   31.6805    8.5844 C   0  0  0  0  0  0  0  0  0  0  0  0
   -3.1350   28.5580   -5.2081 C   0  0  0  0  0  0  0  0  0  0  0  0
   -3.7126   30.7811    0.6471 C   0  0  0  0  0  0  0  0  0  0  0  0
   -9.3004   31.5634   -2.4304 N   0  0  0  0  0  0  0  0  0  0  0  0
  -12.0524   29.7624   -5.9556 C   0  0  0  0  0  0  0  0  0  0  0  0
   -7.9569   26.5671   -9.5270 C   0  0  0  0  0  0  0  0  0  0  0  0
  -12.1541   31.0293   -5.1659 O   0  0  0  0  0  0  0  0  0  0  0  0
    0.7117   27.3411   -6.8108 O   0  0  0  0  0  0  0  0  0  0  0  0
  -14.4610   30.4967   -6.1717 O   0  0  0  0  0  0  0  0  0  0  0  0
  1 50  1  0
  1 61  2  3
  2 16  1  0
  3 15  1  0
  3 28  1  0
  3 62  1  0
  4  9  1  0
  4 28  1  0
  5 18  1  0
  5 40  2  0
  5 47  1  0
  6  8  1  0
  6 41  1  0
  6 46  1  0
  7 20  1  0
  7 23  2  0
  9 44  2  0
  9 55  1  0
 10 32  2  0
 11 24  1  0
 11 31  1  0
 11 52  1  0
 12 21  1  0
 12 37  1  0
 12 57  1  0
 13 18  1  0
 13 24  1  0
 13 52  1  0
 14 30  1  0
 14 33  1  0
 14 53  1  0
 15 48  1  0
 16 46  1  0
 16 64  1  0
 17 57  1  0
 18 46  1  0
 19 45  1  0
 19 47  1  0
 19 54  2  0
 20 59  1  0
 21 59  1  0
 22 50  1  0
 22 53  1  0
 24 38  1  0
 24 40  1  0
 25 64  1  0
 26 49  2  0
 27 50  2  0
 29 32  1  0
 29 49  1  0
 30 60  1  0
 31 51  1  0
 32 42  1  0
 33 36  1  0
 34 58  1  0
 34 63  1  0
 34 67  1  0
 35 36  1  0
 35 66  1  0
 37 42  1  0
 38 51  1  0
 39 48  1  0
 40 54  1  0
 41 63  1  0
 43 54  1  0
 43 62  1  0
 45 62  1  0
 47 63  1  0
 49 61  1  0
 51 60  1  0
 52 64  1  0
 53 56  1  0
 56 60  2  0
 63 65  1  0
M  END
>  <ID>  (1) 
conformer_0

$$$$
