
     RDKit          3D

 26 28  0  0  0  0  0  0  0  0999 V2000
  -10.2497   32.2555   -1.2167 N   0  0  0  0  0  0  0  0  0  0  0  0
   -7.9345   32.3168   -2.0429 C   0  0  0  0  0  0  0  0  0  0  0  0
  -10.7008   32.4280    0.0095 C   0  0  0  0  0  0  0  0  0  0  0  0
   -8.6603   30.0755   -3.6027 C   0  0  0  0  0  0  0  0  0  0  0  0
   -4.4284   30.9259   -2.3077 C   0  0  0  0  0  0  0  0  0  0  0  0
   -9.6300   30.8399   -2.9365 C   0  0  0  0  0  0  0  0  0  0  0  0
   -9.2469   31.8612   -2.0393 C   0  0  0  0  0  0  0  0  0  0  0  0
  -10.1684   31.6798    1.0763 C   0  0  0  0  0  0  0  0  0  0  0  0
  -12.8874   34.7317    1.7318 F   0  0  0  0  0  0  0  0  0  0  0  0
  -10.6018   32.0027    2.3583 C   0  0  0  0  0  0  0  0  0  0  0  0
   -5.5436   31.8118   -2.2896 C   0  0  0  0  0  0  0  0  0  0  0  0
   -2.4434   30.0067   -1.6434 N   0  0  0  0  0  0  0  0  0  0  0  0
   -7.8418   28.1449   -5.0466 C   0  0  0  0  0  0  0  0  0  0  0  0
  -12.0559   33.7249    1.5392 C   0  0  0  0  0  0  0  0  0  0  0  0
   -6.9544   31.5485   -2.6452 C   0  0  0  0  0  0  0  0  0  0  0  0
   -7.3492   30.4838   -3.4398 C   0  0  0  0  0  0  0  0  0  0  0  0
   -3.4013   30.9641   -1.3789 C   0  0  0  0  0  0  0  0  0  0  0  0
  -11.5211   33.0174    2.5884 C   0  0  0  0  0  0  0  0  0  0  0  0
   -6.3662   33.8826   -1.7002 C   0  0  0  0  0  0  0  0  0  0  0  0
  -10.2232   28.3988   -4.6153 N   0  0  0  0  0  0  0  0  0  0  0  0
   -2.8791   29.3641   -2.8566 N   0  0  0  0  0  0  0  0  0  0  0  0
   -4.1110   29.9464   -3.2159 C   0  0  0  0  0  0  0  0  0  0  0  0
  -11.6746   33.3982    0.2420 C   0  0  0  0  0  0  0  0  0  0  0  0
   -5.3702   33.1277   -1.7774 C   0  0  0  0  0  0  0  0  0  0  0  0
   -6.7417   35.2628   -1.6433 Cl  0  0  0  0  0  0  0  0  0  0  0  0
   -8.9884   28.8779   -4.4243 C   0  0  0  0  0  0  0  0  0  0  0  0
  1  3  1  0
  1  7  1  0
  2  7  1  0
  2 15  1  0
  3  8  2  0
  3 23  1  0
  4  6  1  0
  4 16  1  0
  4 26  2  3
  5 11  1  0
  5 17  1  0
  5 22  1  0
  6  7  2  0
  8 10  1  0
  9 14  1  0
 10 18  2  0
 11 15  1  0
 11 24  2  3
 12 17  1  0
 12 21  1  0
 13 26  1  0
 14 18  1  0
 14 23  2  0
 15 16  2  0
 19 24  1  0
 19 25  1  0
 20 26  1  0
 21 22  1  0
M  END
>  <ID>  (1) 
conformer_0

$$$$
