
     RDKit          3D

 29 31  0  0  0  0  0  0  0  0999 V2000
   -2.3411   29.6116   -2.2151 C   0  0  0  0  0  0  0  0  0  0  0  0
  -10.6003   29.9798   -5.2174 C   0  0  0  0  0  0  0  0  0  0  0  0
   -3.2416   29.5537   -3.2374 N   0  0  0  0  0  0  0  0  0  0  0  0
   -5.2597   30.1208   -4.1388 N   0  0  0  0  0  0  0  0  0  0  0  0
  -10.7080   28.8637   -6.1972 N   0  0  0  0  0  0  0  0  0  0  0  0
   -9.7885   27.7237   -6.7169 C   0  0  0  0  0  0  0  0  0  0  0  0
  -11.6062   33.8850    2.6761 C   0  0  0  0  0  0  0  0  0  0  0  0
  -12.0907   34.4581    1.5199 C   0  0  0  0  0  0  0  0  0  0  0  0
   -2.5517   30.4130   -1.1353 N   0  0  0  0  0  0  0  0  0  0  0  0
   -6.6070   29.9461   -4.0651 C   0  0  0  0  0  0  0  0  0  0  0  0
   -3.8983   32.0440   -0.0168 N   0  0  0  0  0  0  0  0  0  0  0  0
  -10.5758   26.9429   -7.7039 C   0  0  0  0  0  0  0  0  0  0  0  0
   -9.9334   31.5500   -1.4398 C   0  0  0  0  0  0  0  0  0  0  0  0
  -11.2704   32.5753    0.2885 C   0  0  0  0  0  0  0  0  0  0  0  0
  -10.8138   32.0051    1.4560 C   0  0  0  0  0  0  0  0  0  0  0  0
   -8.2627   27.1690   -6.9237 C   0  0  0  0  0  0  0  0  0  0  0  0
  -11.0169   32.6537    2.6307 C   0  0  0  0  0  0  0  0  0  0  0  0
   -8.3735   29.1358   -5.1180 C   0  0  0  0  0  0  0  0  0  0  0  0
   -3.6535   31.1739   -1.0716 C   0  0  0  0  0  0  0  0  0  0  0  0
   -4.6279   31.1084   -2.0517 C   0  0  0  0  0  0  0  0  0  0  0  0
   -7.0758   29.0022   -4.9557 N   0  0  0  0  0  0  0  0  0  0  0  0
  -11.4464   30.9489   -5.2706 O   0  0  0  0  0  0  0  0  0  0  0  0
  -11.1868   31.8378   -0.9104 O   0  0  0  0  0  0  0  0  0  0  0  0
   -4.4264   30.2743   -3.1033 C   0  0  0  0  0  0  0  0  0  0  0  0
  -11.9007   33.8088    0.3046 C   0  0  0  0  0  0  0  0  0  0  0  0
   -9.2898   29.9238   -4.5698 C   0  0  0  0  0  0  0  0  0  0  0  0
   -7.4774   30.6742   -3.2253 C   0  0  0  0  0  0  0  0  0  0  0  0
   -9.6709   31.5217   -2.7068 N   0  0  0  0  0  0  0  0  0  0  0  0
   -8.8356   30.6957   -3.4726 C   0  0  0  0  0  0  0  0  0  0  0  0
  1  3  1  0
  1  9  2  0
  2  5  1  0
  2 22  2  0
  2 26  1  0
  3 24  2  0
  4 10  1  0
  4 24  1  0
  5  6  1  0
  6 12  1  0
  6 16  1  0
  7  8  2  0
  7 17  1  0
  8 25  1  0
  9 19  1  0
 10 21  1  0
 10 27  2  0
 11 19  2  0
 13 23  1  0
 13 28  1  0
 14 15  1  0
 14 23  1  0
 14 25  2  0
 15 17  2  0
 18 21  1  0
 18 26  2  0
 19 20  1  0
 20 24  1  0
 26 29  1  0
 27 29  1  0
 28 29  1  0
M  END
>  <ID>  (1) 
conformer_0

$$$$
