
     RDKit          3D

 39 41  0  0  0  0  0  0  0  0999 V2000
   -4.7215   33.1962   -2.3480 C   0  0  0  0  0  0  0  0  0  0  0  0
  -11.3595   31.5368   -4.4184 O   0  0  0  0  0  0  0  0  0  0  0  0
   -1.7297   29.4347   -1.3659 O   0  0  0  0  0  0  0  0  0  0  0  0
   -4.9896   34.4629   -2.2596 C   0  0  0  0  0  0  0  0  0  0  0  0
   -1.5314   29.6247   -3.8163 C   0  0  0  0  0  0  0  0  0  0  0  0
  -10.7946   32.1878   -1.2414 N   0  0  0  0  0  0  0  0  0  0  0  0
  -11.8204   32.8854    0.8347 C   0  0  0  0  0  0  0  0  0  0  0  0
   -7.3718   33.8167   -2.2420 C   0  0  0  0  0  0  0  0  0  0  0  0
  -11.0774   32.8406    3.0694 C   0  0  0  0  0  0  0  0  0  0  0  0
   -1.3739   28.3066   -5.9718 C   0  0  0  0  0  0  0  0  0  0  0  0
   -6.3734   34.8420   -2.1678 C   0  0  0  0  0  0  0  0  0  0  0  0
   -7.9546   29.2911   -4.2303 S   0  0  0  0  0  0  0  0  0  0  0  0
   -5.6948   32.1302   -2.1325 C   0  0  0  0  0  0  0  0  0  0  0  0
   -8.0844   30.7182   -3.2651 C   0  0  0  0  0  0  0  0  0  0  0  0
  -10.7229   27.2578   -7.4682 C   0  0  0  0  0  0  0  0  0  0  0  0
   -9.3742   31.2612   -3.0645 C   0  0  0  0  0  0  0  0  0  0  0  0
   -9.7179   26.8981   -8.5609 C   0  0  0  0  0  0  0  0  0  0  0  0
    0.7275   28.6778   -4.5964 C   0  0  0  0  0  0  0  0  0  0  0  0
   -3.6438   29.9474    0.0313 C   0  0  0  0  0  0  0  0  0  0  0  0
   -3.6970   30.6144   -2.0617 N   0  0  0  0  0  0  0  0  0  0  0  0
  -10.8801   33.2553   -0.2570 C   0  0  0  0  0  0  0  0  0  0  0  0
  -13.0321   33.1178    0.8188 O   0  0  0  0  0  0  0  0  0  0  0  0
  -10.2542   30.8299   -4.1413 C   0  0  0  0  0  0  0  0  0  0  0  0
   -4.8839   30.6840   -0.1717 C   0  0  0  0  0  0  0  0  0  0  0  0
  -10.6015   32.2277    4.1191 F   0  0  0  0  0  0  0  0  0  0  0  0
   -9.9485   29.8179   -4.8807 C   0  0  0  0  0  0  0  0  0  0  0  0
   -9.7753   31.9654   -1.9291 C   0  0  0  0  0  0  0  0  0  0  0  0
   -9.9805   27.9281   -6.4228 C   0  0  0  0  0  0  0  0  0  0  0  0
   -1.0409   29.0089   -2.5431 C   0  0  0  0  0  0  0  0  0  0  0  0
  -10.2422   26.5096   -9.6813 O   0  0  0  0  0  0  0  0  0  0  0  0
  -11.3735   34.1216    3.1678 F   0  0  0  0  0  0  0  0  0  0  0  0
   -6.9474   31.4127   -2.7360 C   0  0  0  0  0  0  0  0  0  0  0  0
   -6.9305   32.5324   -2.4028 C   0  0  0  0  0  0  0  0  0  0  0  0
   -0.6385   29.0913   -4.8878 C   0  0  0  0  0  0  0  0  0  0  0  0
   -8.3881   26.8610   -8.0906 C   0  0  0  0  0  0  0  0  0  0  0  0
   -2.9264   29.9270   -1.1595 C   0  0  0  0  0  0  0  0  0  0  0  0
  -10.7508   29.1369   -5.9318 C   0  0  0  0  0  0  0  0  0  0  0  0
   -4.8705   31.1013   -1.4787 C   0  0  0  0  0  0  0  0  0  0  0  0
  -11.2395   32.1499    1.8710 O   0  0  0  0  0  0  0  0  0  0  0  0
  1  4  2  0
  1 13  1  0
  2 23  1  0
  3 29  1  0
  3 36  1  0
  4 11  1  0
  5 29  1  0
  5 34  1  0
  6 21  1  0
  6 27  2  3
  7 21  1  0
  7 22  2  0
  7 39  1  0
  8 11  2  0
  8 33  1  0
  9 25  1  0
  9 31  1  0
  9 39  1  0
 10 34  1  0
 12 14  1  0
 12 26  1  0
 13 33  1  0
 13 38  1  0
 14 16  1  0
 14 32  1  0
 15 17  1  0
 15 28  1  0
 16 23  1  0
 16 27  1  0
 17 30  1  0
 17 35  1  0
 18 34  1  0
 19 24  1  0
 19 36  1  0
 20 36  1  0
 20 38  1  0
 23 26  2  0
 24 38  1  0
 26 37  1  0
 28 37  1  0
 32 33  2  3
M  END
>  <ID>  (1) 
conformer_0

$$$$
