
     RDKit          3D

 39 42  0  0  0  0  0  0  0  0999 V2000
   -3.1193   30.5418   -0.2882 O   0  0  0  0  0  0  0  0  0  0  0  0
  -12.0247   33.7188    0.2371 C   0  0  0  0  0  0  0  0  0  0  0  0
   -6.8917   31.5212   -1.7474 C   0  0  0  0  0  0  0  0  0  0  0  0
   -4.2734   27.5292   -5.7014 O   0  0  0  0  0  0  0  0  0  0  0  0
   -6.0895   30.3406   -2.2158 C   0  0  0  0  0  0  0  0  0  0  0  0
   -6.1421   26.7186   -7.4543 N   0  0  0  0  0  0  0  0  0  0  0  0
   -9.5467   29.5974   -5.2206 C   0  0  0  0  0  0  0  0  0  0  0  0
  -10.5591   30.7805   -5.0648 N   0  0  0  0  0  0  0  0  0  0  0  0
   -4.7442   30.3247   -1.8803 C   0  0  0  0  0  0  0  0  0  0  0  0
   -3.6872   30.0935   -2.8942 C   0  0  0  0  0  0  0  0  0  0  0  0
  -10.6412   31.9790    1.1549 N   0  0  0  0  0  0  0  0  0  0  0  0
  -11.8382   33.5068    2.6238 C   0  0  0  0  0  0  0  0  0  0  0  0
  -12.3890   34.1531    1.5446 C   0  0  0  0  0  0  0  0  0  0  0  0
   -4.3643   30.6807   -0.5721 C   0  0  0  0  0  0  0  0  0  0  0  0
   -6.3904   32.7749   -1.5911 C   0  0  0  0  0  0  0  0  0  0  0  0
   -5.4716   28.0156   -5.6458 C   0  0  0  0  0  0  0  0  0  0  0  0
   -7.0353   29.4476   -4.4706 C   0  0  0  0  0  0  0  0  0  0  0  0
   -9.0399   32.4777   -1.1918 C   0  0  0  0  0  0  0  0  0  0  0  0
   -8.6860   27.6310   -7.3045 C   0  0  0  0  0  0  0  0  0  0  0  0
   -6.4940   27.5924   -6.5160 C   0  0  0  0  0  0  0  0  0  0  0  0
   -5.3573   31.1331    0.4454 C   0  0  0  0  0  0  0  0  0  0  0  0
  -10.4634   28.5031   -5.7844 C   0  0  0  0  0  0  0  0  0  0  0  0
  -11.5110   28.5661   -6.3503 O   0  0  0  0  0  0  0  0  0  0  0  0
   -8.4933   33.7130   -1.0419 C   0  0  0  0  0  0  0  0  0  0  0  0
   -6.6394   26.1479   -8.4885 C   0  0  0  0  0  0  0  0  0  0  0  0
  -11.0321   32.3580    2.4372 C   0  0  0  0  0  0  0  0  0  0  0  0
   -7.8947   26.1735   -9.0299 N   0  0  0  0  0  0  0  0  0  0  0  0
   -4.4653   29.4869   -4.0126 N   0  0  0  0  0  0  0  0  0  0  0  0
   -5.5595   30.0072    1.3947 O   0  0  0  0  0  0  0  0  0  0  0  0
   -7.1942   33.8557   -1.3682 C   0  0  0  0  0  0  0  0  0  0  0  0
   -7.8097   28.0907   -6.3722 C   0  0  0  0  0  0  0  0  0  0  0  0
   -8.0963   29.0130   -5.3466 C   0  0  0  0  0  0  0  0  0  0  0  0
  -10.9967   32.7027    0.0621 C   0  0  0  0  0  0  0  0  0  0  0  0
   -8.2697   31.3123   -1.5476 C   0  0  0  0  0  0  0  0  0  0  0  0
  -10.6154   31.6243    3.4511 O   0  0  0  0  0  0  0  0  0  0  0  0
   -8.8390   26.9441   -8.4133 C   0  0  0  0  0  0  0  0  0  0  0  0
  -10.5122   32.3627   -1.1625 O   0  0  0  0  0  0  0  0  0  0  0  0
   -6.6752   35.2320   -1.7572 C   0  0  0  0  0  0  0  0  0  0  0  0
   -5.7099   29.0565   -4.6201 C   0  0  0  0  0  0  0  0  0  0  0  0
  1 14  2  0
  2 13  1  0
  2 33  1  0
  3  5  1  0
  3 15  2  0
  3 34  1  0
  4 16  1  0
  5  9  1  0
  6 20  1  0
  6 25  2  0
  7  8  1  0
  7 22  1  0
  7 32  1  0
  9 10  1  0
  9 14  1  0
 10 28  1  0
 11 26  1  0
 11 33  2  0
 12 13  2  0
 12 26  1  0
 14 21  1  0
 15 30  1  0
 16 20  2  0
 16 39  1  0
 17 32  1  0
 17 39  2  0
 18 24  2  0
 18 34  1  0
 18 37  1  0
 19 31  1  0
 19 36  2  0
 20 31  1  0
 21 29  1  0
 22 23  2  0
 24 30  1  0
 25 27  1  0
 26 35  2  0
 27 36  1  0
 28 39  1  0
 30 38  1  0
 31 32  2  0
 33 37  1  0
M  END
>  <ID>  (1) 
conformer_0

$$$$
