
     RDKit          3D

 30 33  0  0  0  0  0  0  0  0999 V2000
   -9.7249   29.4916   -5.7919 C   0  0  0  0  0  0  0  0  0  0  0  0
   -2.4828   30.0598   -2.0315 N   0  0  0  0  0  0  0  0  0  0  0  0
   -4.5252   31.2504   -2.0797 N   0  0  0  0  0  0  0  0  0  0  0  0
  -11.7039   32.7317    0.2872 C   0  0  0  0  0  0  0  0  0  0  0  0
  -10.3142   31.9564    2.6087 C   0  0  0  0  0  0  0  0  0  0  0  0
   -6.7525   28.6087   -5.4452 C   0  0  0  0  0  0  0  0  0  0  0  0
   -3.3029   30.9918   -1.5139 C   0  0  0  0  0  0  0  0  0  0  0  0
   -7.9996   30.7484   -2.6675 C   0  0  0  0  0  0  0  0  0  0  0  0
   -5.0211   27.3452   -6.6860 C   0  0  0  0  0  0  0  0  0  0  0  0
   -7.6792   27.8763   -6.1874 C   0  0  0  0  0  0  0  0  0  0  0  0
  -10.1801   34.8933    0.4087 Cl  0  0  0  0  0  0  0  0  0  0  0  0
   -4.0454   29.6283   -3.7473 C   0  0  0  0  0  0  0  0  0  0  0  0
   -5.9962   26.6539   -7.3823 C   0  0  0  0  0  0  0  0  0  0  0  0
   -9.3881   32.0549   -0.8970 O   0  0  0  0  0  0  0  0  0  0  0  0
  -10.4600   30.6817   -3.9468 C   0  0  0  0  0  0  0  0  0  0  0  0
   -8.1075   30.1521   -3.9125 C   0  0  0  0  0  0  0  0  0  0  0  0
  -11.4235   31.6487   -1.9120 O   0  0  0  0  0  0  0  0  0  0  0  0
  -11.7239   34.0662    2.3789 C   0  0  0  0  0  0  0  0  0  0  0  0
   -7.3337   26.9228   -7.1123 C   0  0  0  0  0  0  0  0  0  0  0  0
  -11.1934   33.0084    3.2720 C   0  0  0  0  0  0  0  0  0  0  0  0
   -2.8384   29.3880   -3.1466 C   0  0  0  0  0  0  0  0  0  0  0  0
   -4.8702   30.5787   -3.1660 C   0  0  0  0  0  0  0  0  0  0  0  0
  -10.7957   32.1846   -0.8589 C   0  0  0  0  0  0  0  0  0  0  0  0
   -5.3827   28.2791   -5.6998 C   0  0  0  0  0  0  0  0  0  0  0  0
   -9.3596   30.1181   -4.5423 C   0  0  0  0  0  0  0  0  0  0  0  0
  -11.4224   33.9543    0.9948 C   0  0  0  0  0  0  0  0  0  0  0  0
   -4.3642   28.8998   -4.9268 C   0  0  0  0  0  0  0  0  0  0  0  0
  -10.3837   31.2000   -2.6712 C   0  0  0  0  0  0  0  0  0  0  0  0
   -6.9631   29.5706   -4.5074 N   0  0  0  0  0  0  0  0  0  0  0  0
   -9.1714   31.3186   -2.0795 C   0  0  0  0  0  0  0  0  0  0  0  0
  1 25  1  0
  2  7  2  0
  2 21  1  0
  3  7  1  0
  3 22  2  0
  4 23  1  0
  4 26  1  0
  5 20  1  0
  6 10  1  0
  6 24  1  0
  6 29  2  3
  8 16  2  0
  8 30  1  0
  9 13  2  0
  9 24  1  0
 10 19  2  0
 11 26  1  0
 12 21  2  0
 12 22  1  0
 12 27  1  0
 13 19  1  0
 14 23  1  0
 14 30  1  0
 15 25  2  0
 15 28  1  0
 16 25  1  0
 16 29  1  0
 17 23  1  0
 17 28  1  0
 18 20  2  3
 18 26  1  0
 24 27  1  0
 28 30  2  0
M  END
>  <ID>  (1) 
conformer_0

$$$$
