
     RDKit          3D

 28 30  0  0  0  0  0  0  0  0999 V2000
   -2.1050   29.8399   -1.6148 N   0  0  0  0  0  0  0  0  0  0  0  0
   -9.3829   31.5376   -1.9063 C   0  0  0  0  0  0  0  0  0  0  0  0
  -11.3688   32.0343    1.7370 O   0  0  0  0  0  0  0  0  0  0  0  0
   -0.9158   28.7220   -3.3300 N   0  0  0  0  0  0  0  0  0  0  0  0
   -8.5701   29.1436   -4.5917 C   0  0  0  0  0  0  0  0  0  0  0  0
   -3.3053   30.5681   -1.5249 O   0  0  0  0  0  0  0  0  0  0  0  0
  -11.6926   33.0247    0.7703 S   0  0  0  0  0  4  0  0  0  0  0  0
   -8.4065   34.7170   -0.5369 C   0  0  0  0  0  0  0  0  0  0  0  0
   -8.2567   27.7383   -6.6506 C   0  0  0  0  0  0  0  0  0  0  0  0
  -10.7292   29.5929   -3.8684 O   0  0  0  0  0  0  0  0  0  0  0  0
   -9.1715   32.5559   -1.1774 C   0  0  0  0  0  0  0  0  0  0  0  0
   -3.1017   29.8315   -3.5602 N   0  0  0  0  0  0  0  0  0  0  0  0
   -7.4736   30.6364   -3.1766 C   0  0  0  0  0  0  0  0  0  0  0  0
   -7.8002   36.0675   -0.6366 N   0  0  0  0  0  0  0  0  0  0  0  0
   -9.4849   29.8081   -3.8072 C   0  0  0  0  0  0  0  0  0  0  0  0
  -10.0509   33.1526   -0.2420 C   0  0  0  0  0  0  0  0  0  0  0  0
   -3.9118   30.5272   -2.7199 C   0  0  0  0  0  0  0  0  0  0  0  0
   -9.0119   28.2561   -5.5777 N   0  0  0  0  0  0  0  0  0  0  0  0
   -5.0434   31.2284   -3.1120 C   0  0  0  0  0  0  0  0  0  0  0  0
   -7.2318   26.9511   -6.1815 O   0  0  0  0  0  0  0  0  0  0  0  0
   -6.3879   31.4223   -2.5303 C   0  0  0  0  0  0  0  0  0  0  0  0
   -2.0030   29.4390   -2.8687 C   0  0  0  0  0  0  0  0  0  0  0  0
  -11.9698   34.3536    1.4372 O   0  0  0  0  0  0  0  0  0  0  0  0
   -8.0535   33.5671   -1.3626 C   0  0  0  0  0  0  0  0  0  0  0  0
   -8.8480   30.7557   -2.8765 C   0  0  0  0  0  0  0  0  0  0  0  0
   -7.2219   29.6171   -4.2128 C   0  0  0  0  0  0  0  0  0  0  0  0
  -12.7877   32.7541   -0.0662 O   0  0  0  0  0  0  0  0  0  0  0  0
   -9.5348   34.4594    0.1926 C   0  0  0  0  0  0  0  0  0  0  0  0
  1  6  1  0
  1 22  1  0
  2 11  2  3
  2 25  1  0
  3  7  1  0
  4 22  2  0
  5 15  1  0
  5 18  2  3
  5 26  1  0
  6 17  1  0
  7 16  1  0
  7 23  1  0
  7 27  1  0
  8 14  1  0
  8 24  1  0
  8 28  1  0
  9 18  1  0
  9 20  1  0
 10 15  2  0
 11 16  1  0
 11 24  1  0
 12 17  1  0
 12 22  1  0
 13 21  1  0
 13 25  2  0
 13 26  1  0
 15 25  1  0
 16 28  1  0
 17 19  1  0
 19 21  1  0
M  END
>  <ID>  (1) 
conformer_0

$$$$
