
     RDKit          3D

 42 47  0  0  0  0  0  0  0  0999 V2000
  -10.6510   34.2575    2.7965 C   0  0  0  0  0  0  0  0  0  0  0  0
   -8.9865   30.7108   -3.0932 C   0  0  0  0  0  0  0  0  0  0  0  0
   -3.6962   31.2888   -0.7814 N   0  0  0  0  0  0  0  0  0  0  0  0
  -10.8133   31.8830    2.2654 C   0  0  0  0  0  0  0  0  0  0  0  0
   -6.9686   28.8588   -5.1060 C   0  0  0  0  0  0  0  0  0  0  0  0
   -1.1606   29.0101   -3.9585 C   0  0  0  0  0  0  0  0  0  0  0  0
   -6.6490   27.9247   -5.9946 C   0  0  0  0  0  0  0  0  0  0  0  0
  -13.0923   32.9126    0.5686 O   0  0  0  0  0  1  0  0  0  0  0  0
  -11.0860   31.8449   -3.5828 C   0  0  0  0  0  0  0  0  0  0  0  0
   -2.5536   29.4979   -4.4290 C   0  0  0  0  0  0  0  0  0  0  0  0
   -1.1283   29.3012   -2.4750 N   0  0  0  0  0  0  0  0  0  0  0  0
  -10.9383   32.5649   -0.5118 N   0  0  0  0  0  0  0  0  0  0  0  0
   -9.1810   28.4302   -6.0092 C   0  0  0  0  0  0  0  0  0  0  0  0
   -9.5649   27.3719   -6.9584 C   0  0  0  0  0  0  0  0  0  0  0  0
  -10.5132   29.1515   -5.9581 C   0  0  0  0  0  0  0  0  0  0  0  0
  -11.7355   34.8508    0.2195 O   0  0  0  0  0  1  0  0  0  0  0  0
  -10.3470   30.1394   -4.9660 C   0  0  0  0  0  0  0  0  0  0  0  0
  -11.2301   31.1209   -4.7083 C   0  0  0  0  0  0  0  0  0  0  0  0
   -2.5072   30.6397   -5.3358 O   0  0  0  0  0  0  0  0  0  0  0  0
   -9.9478   32.2832   -1.4451 C   0  0  0  0  0  0  0  0  0  0  0  0
   -2.9914   28.3164   -5.3224 C   0  0  0  0  0  0  0  0  0  0  0  0
   -9.0885   30.0104   -4.2896 C   0  0  0  0  0  0  0  0  0  0  0  0
   -2.0634   27.9320   -6.2788 O   0  0  0  0  0  0  0  0  0  0  0  0
   -4.0463   27.9627   -5.9714 C   0  0  0  0  0  0  0  0  0  0  0  0
   -3.1865   30.0403   -3.1634 C   0  0  0  0  0  0  0  0  0  0  0  0
   -9.3980   31.9181    4.2298 N   0  0  0  0  0  0  0  0  0  0  0  0
   -5.5501   30.3506   -3.6276 C   0  0  0  0  0  0  0  0  0  0  0  0
   -4.6589   27.1694   -6.8149 C   0  0  0  0  0  0  0  0  0  0  0  0
   -6.1714   29.5903   -4.3000 C   0  0  0  0  0  3  0  0  0  0  0  0
  -11.0146   33.2014    1.9972 C   0  0  0  0  0  0  0  0  0  0  0  0
  -11.8173   33.4786    0.5589 S   0  0  0  0  0  4  0  0  0  0  0  0
   -2.2964   29.9878   -2.1211 C   0  0  0  0  0  0  0  0  0  0  0  0
   -9.8749   34.3079    3.9130 C   0  0  0  0  0  0  0  0  0  0  0  0
  -10.1164   31.3544    3.2530 C   0  0  0  0  0  0  0  0  0  0  0  0
  -11.0923   28.0479   -6.9425 F   0  0  0  0  0  0  0  0  0  0  0  0
   -9.9813   31.5785   -2.7155 C   0  0  0  0  0  0  0  0  0  0  0  0
   -9.3014   33.2227    4.5500 C   0  0  0  0  0  0  0  0  0  0  0  0
   -2.5824   30.5573   -0.9460 N   0  0  0  0  0  0  0  0  0  0  0  0
   -6.1256   27.2028   -6.7943 C   0  0  0  0  0  0  0  0  0  0  0  0
   -4.6549   31.3564   -1.7264 C   0  0  0  0  0  0  0  0  0  0  0  0
   -4.4439   30.5791   -2.8692 C   0  0  0  0  0  0  0  0  0  0  0  0
   -8.3608   29.0763   -5.0693 C   0  0  0  0  0  0  0  0  0  0  0  0
  1 30  2  0
  1 33  1  0
  2 22  1  0
  2 36  2  0
  3 38  1  0
  3 40  2  0
  4 30  1  0
  4 34  2  0
  5  7  2  0
  5 29  1  0
  5 42  1  0
  6 10  1  0
  6 11  1  0
  7 39  2  0
  8 31  1  0
  9 18  2  0
  9 36  1  0
 10 19  1  0
 10 21  1  0
 10 25  1  0
 11 32  1  0
 12 20  1  0
 12 31  1  0
 13 14  1  0
 13 15  2  0
 13 42  1  0
 15 17  1  0
 15 35  1  0
 16 31  1  0
 17 18  1  0
 17 22  1  0
 20 36  1  0
 21 23  1  0
 21 24  1  0
 22 42  1  0
 24 28  2  0
 25 32  1  0
 25 41  1  0
 26 34  1  0
 26 37  2  0
 27 29  2  0
 27 41  1  0
 28 39  1  0
 30 31  1  0
 32 38  2  0
 33 37  1  0
 40 41  1  0
M  END
>  <ID>  (1) 
conformer_0

$$$$
