
     RDKit          3D

 36 39  0  0  0  0  0  0  0  0999 V2000
  -11.2104   31.1130   -2.7147 N   0  0  0  0  0  0  0  0  0  0  0  0
  -10.2844   32.7859   -1.1212 N   0  0  0  0  0  0  0  0  0  0  0  0
   -4.1747   30.1860   -2.9685 C   0  0  0  0  0  0  0  0  0  0  0  0
   -3.7686   28.6338   -4.8447 C   0  0  0  0  0  0  0  0  0  0  0  0
   -2.3694   28.5643   -4.6990 C   0  0  0  0  0  0  0  0  0  0  0  0
   -9.4566   30.6306   -3.8311 N   0  0  0  0  0  0  0  0  0  0  0  0
  -10.0364   31.3139   -2.8820 C   0  0  0  0  0  0  0  0  0  0  0  0
  -11.5407   33.7690    2.9869 C   0  0  0  0  0  0  0  0  0  0  0  0
   -6.1053   31.7196   -2.6784 C   0  0  0  0  0  0  0  0  0  0  0  0
  -11.8248   34.8192    3.8096 O   0  0  0  0  0  0  0  0  0  0  0  0
  -11.2938   32.8670   -0.3482 O   0  0  0  0  0  0  0  0  0  0  0  0
   -4.3478   31.5968   -1.0903 C   0  0  0  0  0  0  0  0  0  0  0  0
   -4.9229   31.2044   -2.2525 C   0  0  0  0  0  0  0  0  0  0  0  0
  -12.2913   33.7353    1.7165 C   0  0  0  0  0  0  0  0  0  0  0  0
   -9.3930   32.3421   -1.9269 C   0  0  0  0  0  0  0  0  0  0  0  0
   -7.0890   27.6954   -6.0777 N   0  0  0  0  0  0  0  0  0  0  0  0
   -5.9446   33.6601   -1.9512 O   0  0  0  0  0  0  0  0  0  0  0  0
   -4.6345   29.4231   -4.0637 C   0  0  0  0  0  0  0  0  0  0  0  0
  -10.2066   29.7226   -4.7501 C   0  0  0  0  0  0  0  0  0  0  0  0
   -1.8697   29.2302   -3.4793 C   0  0  0  0  0  0  0  0  0  0  0  0
   -2.8567   29.9286   -2.5769 C   0  0  0  0  0  0  0  0  0  0  0  0
   -1.4854   28.0911   -5.9707 Cl  0  0  0  0  0  0  0  0  0  0  0  0
  -11.5334   34.0392    0.5378 C   0  0  0  0  0  0  0  0  0  0  0  0
  -10.3852   27.9599   -6.2809 C   0  0  0  0  0  0  0  0  0  0  0  0
  -13.4759   33.1669    1.7007 O   0  0  0  0  0  0  0  0  0  0  0  0
   -8.1658   28.5954   -6.1841 C   0  0  0  0  0  0  0  0  0  0  0  0
   -6.5681   34.9649   -1.7639 C   0  0  0  0  0  0  0  0  0  0  0  0
   -5.9102   28.2106   -5.4927 C   0  0  0  0  0  0  0  0  0  0  0  0
   -8.1655   32.7359   -1.9678 C   0  0  0  0  0  0  0  0  0  0  0  0
   -2.4201   30.2868   -1.3581 N   0  0  0  0  0  0  0  0  0  0  0  0
   -4.5685   27.8611   -5.7759 C   0  0  0  0  0  0  0  0  0  0  0  0
  -10.5496   32.6502    3.2143 C   0  0  0  0  0  0  0  0  0  0  0  0
   -3.1758   31.0999   -0.6449 C   0  0  0  0  0  0  0  0  0  0  0  0
   -9.3856   28.6213   -5.3700 C   0  0  0  0  0  0  0  0  0  0  0  0
   -6.8637   32.7326   -2.2094 C   0  0  0  0  0  0  0  0  0  0  0  0
   -5.9381   29.1945   -4.5005 C   0  0  0  0  0  0  0  0  0  0  0  0
  1  7  2  0
  2 11  1  0
  2 15  1  0
  3 13  1  0
  3 18  1  0
  3 21  1  0
  4  5  1  0
  4 18  2  0
  4 31  1  0
  5 20  1  0
  5 22  1  0
  6  7  1  0
  6 19  1  0
  7 15  1  0
  8 10  1  0
  8 14  1  0
  8 32  1  0
  9 13  1  0
  9 35  1  0
 11 23  1  0
 12 13  2  0
 12 33  1  0
 14 23  1  0
 14 25  1  0
 15 29  2  0
 16 26  1  0
 16 28  1  0
 17 27  1  0
 17 35  1  0
 18 36  1  0
 19 34  1  0
 20 21  2  0
 21 30  1  0
 24 34  1  0
 26 34  1  0
 28 31  1  0
 28 36  1  0
 29 35  2  0
 30 33  2  0
M  END
>  <ID>  (1) 
conformer_0

$$$$
