
     RDKit          3D

 32 34  0  0  0  0  0  0  0  0999 V2000
  -12.0928   33.4630    1.7976 O   0  0  0  0  0  0  0  0  0  0  0  0
   -6.4232   26.8851   -6.8098 C   0  0  0  0  0  0  0  0  0  0  0  0
  -10.6795   32.2208    3.5639 C   0  0  0  0  0  0  0  0  0  0  0  0
   -8.6019   33.5579   -1.8964 O   0  0  0  0  0  0  0  0  0  0  0  0
   -7.7638   28.4686   -5.6035 C   0  0  0  0  0  0  0  0  0  0  0  0
  -11.0148   32.5624    2.2448 C   0  0  0  0  0  0  0  0  0  0  0  0
   -6.4915   27.9542   -5.8843 C   0  0  0  0  0  0  0  0  0  0  0  0
   -8.8777   28.0126   -6.3486 C   0  0  0  0  0  0  0  0  0  0  0  0
  -10.4138   32.1113    1.0824 C   0  0  0  0  0  0  0  0  0  0  0  0
   -3.2004   29.3648   -3.3069 C   0  0  0  0  0  0  0  0  0  0  0  0
   -4.0112   31.2951   -1.4427 C   0  0  0  0  0  0  0  0  0  0  0  0
   -7.5538   26.4305   -7.4229 N   0  0  0  0  0  0  0  0  0  0  0  0
  -10.9813   32.6324   -0.0460 C   0  0  0  0  0  0  0  0  0  0  0  0
   -9.8032   31.0281   -3.7905 C   0  0  0  0  0  0  0  0  0  0  0  0
   -7.7496   30.8108   -2.5043 C   0  0  0  0  0  0  0  0  0  0  0  0
  -10.5889   32.3983   -1.2957 O   0  0  0  0  0  0  0  0  0  0  0  0
   -5.2494   28.4868   -5.3144 C   0  0  0  0  0  0  0  0  0  0  0  0
   -8.7742   27.0436   -7.2331 C   0  0  0  0  0  0  0  0  0  0  0  0
   -5.2525   29.6897   -4.5812 N   0  0  0  0  0  0  0  0  0  0  0  0
   -8.1841   29.4128   -4.7087 C   0  0  0  0  0  0  0  0  0  0  0  0
  -11.1010   31.6113   -4.1930 C   0  0  0  0  0  0  0  0  0  0  0  0
  -12.0961   33.4341    0.2989 N   0  0  0  0  0  0  0  0  0  0  0  0
   -4.4227   30.0496   -3.5009 C   0  0  0  0  0  0  0  0  0  0  0  0
   -8.9894   31.4189   -2.7443 C   0  0  0  0  0  0  0  0  0  0  0  0
   -9.3932   32.4446   -1.8412 C   0  0  0  0  0  0  0  0  0  0  0  0
   -4.1534   27.9381   -5.6452 O   0  0  0  0  0  0  0  0  0  0  0  0
   -2.4114   29.6182   -2.2059 C   0  0  0  0  0  0  0  0  0  0  0  0
  -11.5651   30.9044   -5.4365 O   0  0  0  0  0  0  0  0  0  0  0  0
   -9.2862   30.0353   -4.5557 C   0  0  0  0  0  0  0  0  0  0  0  0
   -2.7971   30.5586   -1.2572 C   0  0  0  0  0  0  0  0  0  0  0  0
   -7.2869   34.1386   -1.9973 C   0  0  0  0  0  0  0  0  0  0  0  0
   -4.7528   31.0471   -2.5501 C   0  0  0  0  0  0  0  0  0  0  0  0
  1  6  1  0
  1 22  1  0
  2  7  2  0
  2 12  1  0
  3  6  1  0
  4 25  1  0
  4 31  1  0
  5  7  1  0
  5  8  2  0
  5 20  1  0
  6  9  1  0
  7 17  1  0
  8 18  1  0
  9 13  1  0
 10 23  1  0
 10 27  2  0
 11 30  1  0
 11 32  2  0
 12 18  2  0
 13 16  1  0
 13 22  1  0
 14 21  1  0
 14 24  2  3
 14 29  1  0
 15 24  1  0
 16 25  1  0
 17 19  1  0
 17 26  2  0
 19 23  1  0
 20 29  2  3
 21 28  1  0
 23 32  1  0
 24 25  1  0
 27 30  1  0
M  END
>  <ID>  (1) 
conformer_0

$$$$
