
     RDKit          3D

 27 28  0  0  0  0  0  0  0  0999 V2000
   -6.4894   29.5304   -4.6254 N   0  0  0  0  0  0  0  0  0  0  0  0
   -3.0486   29.4332   -3.4477 C   0  0  0  0  0  0  0  0  0  0  0  0
   -9.0977   32.7952   -0.7686 C   0  0  0  0  0  0  0  0  0  0  0  0
   -2.7286   30.2418   -2.3473 C   0  0  0  0  0  0  0  0  0  0  0  0
  -10.0401   33.1577    0.1506 O   0  0  0  0  0  0  0  0  0  0  0  0
  -12.0750   33.0565    1.2599 C   0  0  0  0  0  0  0  0  0  0  0  0
  -11.2674   30.6306   -5.7302 N   0  0  0  0  0  0  0  0  0  0  0  0
   -9.3358   31.6571   -1.6357 C   0  0  0  0  0  0  0  0  0  0  0  0
  -10.0884   29.5155   -3.9045 C   0  0  0  0  0  0  0  0  0  0  0  0
   -7.9314   33.5467   -0.9164 C   0  0  0  0  0  0  0  0  0  0  0  0
   -8.3226   31.1787   -2.3774 C   0  0  0  0  0  0  0  0  0  0  0  0
  -11.5754   32.2863    2.2235 F   0  0  0  0  0  0  0  0  0  0  0  0
   -9.9034   28.5475   -4.9994 C   0  0  0  0  0  0  0  0  0  0  0  0
  -10.5591   30.8946   -4.4796 C   0  0  0  0  0  0  0  0  0  0  0  0
  -11.2898   32.6820   -0.0135 C   0  0  0  0  0  0  0  0  0  0  0  0
   -7.4603   27.7038   -5.9346 C   0  0  0  0  0  0  0  0  0  0  0  0
   -5.8884   31.2066   -3.0117 C   0  0  0  0  0  0  0  0  0  0  0  0
   -7.0426   33.0571   -1.7912 C   0  0  0  0  0  0  0  0  0  0  0  0
   -4.2660   29.4839   -3.9571 C   0  0  0  0  0  0  0  0  0  0  0  0
   -4.8550   31.4417   -2.1604 C   0  0  0  0  0  0  0  0  0  0  0  0
  -13.3553   32.8893    1.1656 F   0  0  0  0  0  0  0  0  0  0  0  0
   -8.7260   28.4932   -5.9008 C   0  0  0  0  0  0  0  0  0  0  0  0
   -3.6874   31.1384   -1.8656 C   0  0  0  0  0  0  0  0  0  0  0  0
   -6.3421   28.1911   -5.1559 C   0  0  0  0  0  0  0  0  0  0  0  0
   -7.1407   31.8473   -2.4254 C   0  0  0  0  0  0  0  0  0  0  0  0
   -5.4844   29.9923   -3.8460 C   0  0  0  0  0  0  0  0  0  0  0  0
  -11.8044   34.3340    1.5006 F   0  0  0  0  0  0  0  0  0  0  0  0
  1 24  2  3
  1 26  1  0
  2  4  1  0
  2 19  2  0
  3  5  1  0
  3  8  1  0
  3 10  1  0
  4 23  1  0
  5 15  1  0
  6 12  1  0
  6 15  1  0
  6 21  1  0
  6 27  1  0
  7 14  1  0
  8 11  2  0
  9 13  1  0
  9 14  1  0
 10 18  2  0
 11 25  1  0
 13 22  1  0
 16 22  1  0
 16 24  1  0
 17 20  1  0
 17 25  1  0
 17 26  1  0
 18 25  1  0
 19 26  1  0
 20 23  2  0
M  END
>  <ID>  (1) 
conformer_0

$$$$
