
     RDKit          3D

 43 46  0  0  0  0  0  0  0  0999 V2000
   -8.2587   32.3253   -2.6411 C   0  0  0  0  0  0  0  0  0  0  0  0
   -4.2939   31.3417   -1.0563 C   0  0  0  0  0  0  0  0  0  0  0  0
   -8.8205   29.1295   -4.0519 C   0  0  0  0  0  0  0  0  0  0  0  0
   -7.3493   33.4557   -3.0109 C   0  0  0  0  0  0  0  0  0  0  0  0
  -10.2812   31.5185    0.0701 O   0  0  0  0  0  0  0  0  0  0  0  0
  -10.0256   31.9433   -4.1160 C   0  0  0  0  0  0  0  0  0  0  0  0
   -9.0696   27.3596   -7.2666 C   0  0  0  0  0  0  0  0  0  0  0  0
   -9.6225   30.4623   -4.2712 C   0  0  0  0  0  0  0  0  0  0  0  0
  -11.3983   32.0399   -4.3977 O   0  0  0  0  0  0  0  0  0  0  0  0
   -4.2778   30.0506   -3.1113 C   0  0  0  0  0  0  0  0  0  0  0  0
  -11.0277   29.1371   -5.9131 C   0  0  0  0  0  0  0  0  0  0  0  0
   -7.0427   34.0467   -1.4628 C   0  0  0  0  0  0  0  0  0  0  0  0
  -11.6755   33.3761   -0.0677 N   0  0  0  0  0  0  0  0  0  0  0  0
   -8.0159   28.6435   -5.3701 C   0  0  0  0  0  0  0  0  0  0  0  0
   -7.8252   27.7228   -6.5578 C   0  0  0  0  0  0  0  0  0  0  0  0
  -12.1755   29.6129   -6.6121 O   0  0  0  0  0  0  0  0  0  0  0  0
   -4.8273   32.2342   -0.3373 N   0  0  0  0  0  0  0  0  0  0  0  0
   -8.8880   26.8504   -8.5885 C   0  0  0  0  0  0  0  0  0  0  0  0
   -6.6221   27.1514   -7.0783 C   0  0  0  0  0  0  0  0  0  0  0  0
  -12.2084   33.4313    1.2476 C   0  0  0  0  0  0  0  0  0  0  0  0
   -2.9200   29.6724   -2.7996 C   0  0  0  0  0  0  0  0  0  0  0  0
   -7.6258   26.2787   -9.0340 C   0  0  0  0  0  0  0  0  0  0  0  0
  -10.8897   32.3223   -0.6291 C   0  0  0  0  0  0  0  0  0  0  0  0
  -11.4541   27.1413   -7.1461 O   0  0  0  0  0  0  0  0  0  0  0  0
   -9.8248   33.3625    4.0394 C   0  0  0  0  0  0  0  0  0  0  0  0
   -4.8793   29.4410   -4.4551 C   0  0  0  0  0  0  0  0  0  0  0  0
   -2.4028   30.0201   -1.6313 N   0  0  0  0  0  0  0  0  0  0  0  0
   -9.8380   34.8744    3.6946 C   0  0  0  0  0  0  0  0  0  0  0  0
   -4.9877   30.8534   -2.2212 C   0  0  0  0  0  0  0  0  0  0  0  0
  -10.9209   35.0956    2.6423 C   0  0  0  0  0  0  0  0  0  0  0  0
  -11.4700   33.7500    2.3265 N   0  0  0  0  0  0  0  0  0  0  0  0
  -11.1199   32.8354    3.3946 C   0  0  0  0  0  0  0  0  0  0  0  0
   -9.7119   32.4429   -2.7569 C   0  0  0  0  0  0  0  0  0  0  0  0
   -9.9481   26.6845   -9.4942 N   0  0  0  0  0  0  0  0  0  0  0  0
  -10.8095   32.2475   -1.9330 N   0  0  0  0  0  0  0  0  0  0  0  0
   -2.1160   28.9704   -3.7366 C   0  0  0  0  0  0  0  0  0  0  0  0
   -7.5351   31.0482   -2.5640 C   0  0  0  0  0  0  0  0  0  0  0  0
  -10.0729   30.2773   -5.7624 C   0  0  0  0  0  0  0  0  0  0  0  0
   -6.1892   31.4058   -2.3013 O   0  0  0  0  0  0  0  0  0  0  0  0
   -3.0551   30.8120   -0.8064 N   0  0  0  0  0  0  0  0  0  0  0  0
   -6.7778   25.9925   -7.8648 N   0  0  0  0  0  0  0  0  0  0  0  0
  -10.3745   27.9384   -6.7285 C   0  0  0  0  0  0  0  0  0  0  0  0
  -13.3629   32.9316    1.4342 O   0  0  0  0  0  0  0  0  0  0  0  0
  1  4  1  0
  1 33  1  0
  1 37  1  0
  2 17  2  0
  2 29  1  0
  2 40  1  0
  3  8  1  0
  3 14  1  0
  4 12  1  0
  5 23  2  0
  6  8  1  0
  6  9  1  0
  6 33  1  0
  7 15  1  0
  7 18  1  0
  7 42  1  0
  8 38  1  0
 10 21  1  0
 10 26  1  0
 10 29  2  0
 11 16  1  0
 11 38  1  0
 11 42  1  0
 13 20  1  0
 13 23  1  0
 14 15  1  0
 15 19  1  0
 18 22  1  0
 18 34  1  0
 19 41  1  0
 20 31  1  0
 20 43  2  0
 21 27  2  0
 21 36  1  0
 22 41  1  0
 23 35  1  0
 24 42  1  0
 25 28  1  0
 25 32  1  0
 27 40  1  0
 28 30  1  0
 29 39  1  0
 30 31  1  0
 31 32  1  0
 33 35  1  0
 37 39  1  0
M  END
>  <ID>  (1) 
conformer_0

$$$$
