
     RDKit          3D

 41 45  0  0  0  0  0  0  0  0999 V2000
   -9.4262   30.4061   -4.5403 C   0  0  0  0  0  0  0  0  0  0  0  0
   -7.6833   28.6351   -5.6217 C   0  0  0  0  0  0  0  0  0  0  0  0
   -4.9762   31.5602   -2.0400 C   0  0  0  0  0  0  0  0  0  0  0  0
   -8.8700   29.3626   -5.1887 N   0  0  0  0  0  0  0  0  0  0  0  0
  -11.1863   34.5926    4.0118 F   0  0  0  0  0  0  0  0  0  0  0  0
   -9.4576   32.2680   -1.4080 C   0  0  0  0  0  0  0  0  0  0  0  0
   -3.0542   28.7322   -3.7468 N   0  0  0  0  0  0  0  0  0  0  0  0
   -5.3006   27.4080   -6.4952 C   0  0  0  0  0  0  0  0  0  0  0  0
   -6.6961   34.9704   -1.7934 O   0  0  0  0  0  0  0  0  0  0  0  0
   -8.7356   31.4502   -3.5680 C   0  0  0  0  0  0  0  0  0  0  0  0
   -9.7572   31.7391   -2.7053 C   0  0  0  0  0  0  0  0  0  0  0  0
  -11.2682   33.6532    3.0099 C   0  0  0  0  0  0  0  0  0  0  0  0
  -12.1005   32.8990    0.8285 C   0  0  0  0  0  0  0  0  0  0  0  0
   -2.9321   30.7310   -0.8922 C   0  0  0  0  0  0  0  0  0  0  0  0
  -10.1201   27.7283   -7.2136 O   0  0  0  0  0  0  0  0  0  0  0  0
   -8.7979   26.5746   -8.4880 O   0  0  0  0  0  0  0  0  0  0  0  0
  -10.7730   30.6466   -4.4120 C   0  0  0  0  0  0  0  0  0  0  0  0
  -10.3575   32.0409   -0.4467 C   0  0  0  0  0  0  0  0  0  0  0  0
   -4.5610   30.4054   -2.9237 C   0  0  0  0  0  0  0  0  0  0  0  0
  -12.1551   33.6952    2.0347 C   0  0  0  0  0  0  0  0  0  0  0  0
   -3.9413   31.5298   -1.0928 N   0  0  0  0  0  0  0  0  0  0  0  0
   -8.2338   32.8281   -1.0675 C   0  0  0  0  0  0  0  0  0  0  0  0
   -3.6714   28.3000   -4.9117 C   0  0  0  0  0  0  0  0  0  0  0  0
   -8.9081   27.3111   -7.4218 C   0  0  0  0  0  0  0  0  0  0  0  0
   -6.4443   28.8468   -4.9736 C   0  0  0  0  0  0  0  0  0  0  0  0
  -10.9806   31.4218   -3.2670 N   0  0  0  0  0  0  0  0  0  0  0  0
  -10.9459   32.3872    0.4653 C   0  0  0  0  0  0  0  0  0  0  0  0
   -2.5242   29.8324   -1.7631 N   0  0  0  0  0  0  0  0  0  0  0  0
  -10.5417   31.3744    2.9752 F   0  0  0  0  0  0  0  0  0  0  0  0
   -3.3237   29.6952   -2.8271 C   0  0  0  0  0  0  0  0  0  0  0  0
   -9.2788   32.8349    4.0398 F   0  0  0  0  0  0  0  0  0  0  0  0
   -6.2153   33.6760   -1.9625 C   0  0  0  0  0  0  0  0  0  0  0  0
  -10.3472   32.6448    3.2656 C   0  0  0  0  0  0  0  0  0  0  0  0
   -7.3617   32.8112   -2.1457 C   0  0  0  0  0  0  0  0  0  0  0  0
   -7.5137   32.0398   -3.3078 C   0  0  0  0  0  0  0  0  0  0  0  0
   -5.0628   32.9954   -1.5449 C   0  0  0  0  0  0  0  0  0  0  0  0
   -2.8049   27.9159   -5.8506 O   0  0  0  0  0  0  0  0  0  0  0  0
  -13.1087   32.6967    0.0804 O   0  0  0  0  0  0  0  0  0  0  0  0
   -5.1720   28.2491   -5.4080 C   0  0  0  0  0  0  0  0  0  0  0  0
   -7.7075   27.7209   -6.6931 C   0  0  0  0  0  0  0  0  0  0  0  0
   -6.5069   27.1492   -7.0818 C   0  0  0  0  0  0  0  0  0  0  0  0
  1  4  2  0
  1 10  1  0
  1 17  1  0
  2  4  1  0
  2 25  2  0
  2 40  1  0
  3 19  1  0
  3 21  1  0
  3 36  1  0
  5 12  1  0
  6 11  1  0
  6 18  1  0
  6 22  1  0
  7 23  1  0
  7 30  2  0
  8 39  2  0
  8 41  1  0
  9 32  1  0
 10 11  1  0
 10 35  2  0
 11 26  1  0
 12 20  1  0
 12 33  1  0
 13 20  1  0
 13 27  1  0
 13 38  2  0
 14 21  2  0
 14 28  1  0
 15 24  2  0
 16 24  1  0
 17 26  1  0
 18 27  1  0
 19 30  1  0
 22 34  1  0
 23 37  2  0
 23 39  1  0
 24 40  1  0
 25 39  1  0
 28 30  1  0
 29 33  1  0
 31 33  1  0
 32 34  1  0
 32 36  1  0
 34 35  1  0
 40 41  2  0
M  END
>  <ID>  (1) 
conformer_0

$$$$
