
     RDKit          3D

 33 36  0  0  0  0  0  0  0  0999 V2000
  -11.6716   32.4455   -0.1025 N   0  0  0  0  0  0  0  0  0  0  0  0
   -3.3803   30.4752   -4.0532 C   0  0  0  0  0  0  0  0  0  0  0  0
   -1.6526   29.2265   -2.7403 C   0  0  0  0  0  0  0  0  0  0  0  0
   -6.5483   27.0787   -6.9539 C   0  0  0  0  0  0  0  0  0  0  0  0
  -11.6168   34.0902    3.1835 F   0  0  0  0  0  0  0  0  0  0  0  0
  -10.7213   29.5037   -6.5047 O   0  0  0  0  0  0  0  0  0  0  0  0
  -11.8484   33.4041    0.8922 C   0  0  0  0  0  0  0  0  0  0  0  0
   -2.2591   29.5739   -4.0282 C   0  0  0  0  0  0  0  0  0  0  0  0
   -8.7046   30.6075   -3.5877 N   0  0  0  0  0  0  0  0  0  0  0  0
   -8.7804   28.3283   -6.0568 N   0  0  0  0  0  0  0  0  0  0  0  0
   -7.4002   27.9366   -6.0857 C   0  0  0  0  0  0  0  0  0  0  0  0
  -11.4861   33.1285    2.2758 C   0  0  0  0  0  0  0  0  0  0  0  0
   -7.1986   25.9158   -7.4773 C   0  0  0  0  0  0  0  0  0  0  0  0
  -10.8384   31.9897    2.5736 F   0  0  0  0  0  0  0  0  0  0  0  0
   -3.3797   30.4175   -1.6790 C   0  0  0  0  0  0  0  0  0  0  0  0
   -7.6972   31.6607   -1.8192 N   0  0  0  0  0  0  0  0  0  0  0  0
   -7.2817   30.2755   -3.7301 C   0  0  0  0  0  0  0  0  0  0  0  0
   -9.6949   29.3598   -5.6270 C   0  0  0  0  0  0  0  0  0  0  0  0
   -4.1312   30.6550   -2.8389 C   0  0  0  0  0  0  0  0  0  0  0  0
   -5.3118   31.3647   -2.6717 C   0  0  0  0  0  0  0  0  0  0  0  0
   -6.3601   29.2768   -4.3168 C   0  0  0  0  0  0  0  0  0  0  0  0
   -6.6666   31.0931   -2.6793 C   0  0  0  0  0  0  0  0  0  0  0  0
  -10.9495   30.8582   -4.1212 C   0  0  0  0  0  0  0  0  0  0  0  0
   -3.0310   30.6359    0.5305 O   0  0  0  0  0  0  0  0  0  0  0  0
   -9.7622   30.2870   -4.4906 C   0  0  0  0  0  0  0  0  0  0  0  0
   -8.8848   31.3125   -2.4610 C   0  0  0  0  0  0  0  0  0  0  0  0
   -6.8088   27.9266   -4.6940 C   0  0  0  0  0  0  0  0  0  0  0  0
  -11.2189   31.4452   -2.9618 N   0  0  0  0  0  0  0  0  0  0  0  0
  -10.2500   31.6454   -2.0292 C   0  0  0  0  0  0  0  0  0  0  0  0
   -3.9126   30.8266   -0.4605 N   0  0  0  0  0  0  0  0  0  0  0  0
   -2.2140   29.8253   -1.6423 N   0  0  0  0  0  0  0  0  0  0  0  0
  -10.5354   32.1180   -0.7127 C   0  0  0  0  0  0  0  0  0  0  0  0
  -12.4118   34.5149    0.6237 N   0  0  0  0  0  0  0  0  0  0  0  0
  1  7  1  0
  1 32  1  0
  2  8  1  0
  2 19  1  0
  3  8  2  0
  3 31  1  0
  4 11  1  0
  4 13  1  0
  5 12  1  0
  6 18  2  0
  7 12  1  0
  7 33  2  0
  9 17  1  0
  9 25  1  0
  9 26  1  0
 10 11  1  0
 10 18  1  0
 11 27  1  0
 12 14  1  0
 15 19  1  0
 15 30  1  0
 15 31  2  0
 16 22  1  0
 16 26  2  0
 17 21  1  0
 17 22  1  0
 18 25  1  0
 19 20  1  0
 20 22  1  0
 21 27  1  0
 23 25  1  0
 23 28  2  0
 24 30  1  0
 26 29  1  0
 28 29  1  0
 29 32  2  3
M  END
>  <ID>  (1) 
conformer_0

$$$$
