
     RDKit          3D

 29 34  0  0  0  0  0  0  0  0999 V2000
   -2.3684   30.0092   -2.2145 C   0  0  0  0  0  0  0  0  0  0  0  0
   -9.0638   31.7337   -2.5037 C   0  0  0  0  0  0  0  0  0  0  0  0
   -7.8731   28.5909   -4.9723 C   0  0  0  0  0  0  0  0  0  0  0  0
  -10.9951   31.8764   -1.0168 C   0  0  0  0  0  0  0  0  0  0  0  0
   -9.7877   33.9343    0.4798 C   0  0  0  0  0  0  0  0  0  0  0  0
   -4.5524   30.7030   -2.9714 C   0  0  0  0  0  0  0  0  0  0  0  0
   -6.6946   32.9873   -2.7981 C   0  0  0  0  0  0  0  0  0  0  0  0
   -7.8559   32.2180   -2.9908 N   0  0  0  0  0  0  0  0  0  0  0  0
  -11.4515   33.1507    3.1255 C   0  0  0  0  0  0  0  0  0  0  0  0
   -3.2874   27.9228   -4.9683 N   0  0  0  0  0  0  0  0  0  0  0  0
   -2.2561   29.0490   -3.1431 N   0  0  0  0  0  0  0  0  0  0  0  0
   -4.3149   27.5409   -5.6350 N   0  0  0  0  0  0  0  0  0  0  0  0
   -9.5553   30.7537   -3.0289 O   0  0  0  0  0  0  0  0  0  0  0  0
   -6.8597   27.6109   -5.7896 C   0  0  0  0  0  0  0  0  0  0  0  0
  -11.0485   33.4314    0.7373 C   0  0  0  0  0  0  0  0  0  0  0  0
   -4.5220   29.5842   -3.7775 C   0  0  0  0  0  0  0  0  0  0  0  0
   -5.5176   28.0863   -5.3210 C   0  0  0  0  0  0  0  0  0  0  0  0
  -11.6999   33.8285    1.8488 N   0  0  0  0  0  0  0  0  0  0  0  0
   -3.3117   28.8608   -3.9385 C   0  0  0  0  0  0  0  0  0  0  0  0
   -5.5453   31.7914   -3.1285 N   0  0  0  0  0  0  0  0  0  0  0  0
   -6.5441   34.5200   -2.0478 S   0  0  0  0  0  0  0  0  0  0  0  0
  -11.7033   32.4257    0.0527 C   0  0  0  0  0  0  0  0  0  0  0  0
   -6.9404   29.6971   -4.2342 C   0  0  0  0  0  0  0  0  0  0  0  0
   -3.5018   30.8732   -2.1319 C   0  0  0  0  0  0  0  0  0  0  0  0
   -5.6059   29.1299   -4.4705 N   0  0  0  0  0  0  0  0  0  0  0  0
   -9.6916   32.3773   -1.3622 C   0  0  0  0  0  0  0  0  0  0  0  0
   -6.8766   31.0624   -3.5581 C   0  0  0  0  0  0  0  0  0  0  0  0
  -12.7497   34.7993    1.9854 C   0  0  0  0  0  0  0  0  0  0  0  0
   -9.1197   33.3504   -0.6047 C   0  0  0  0  0  0  0  0  0  0  0  0
  1 11  1  0
  1 24  2  0
  2  8  1  0
  2 13  2  0
  2 26  1  0
  3 14  1  0
  3 23  1  0
  4 22  1  0
  4 26  1  0
  5 15  1  0
  5 29  1  0
  6 16  1  0
  6 20  1  0
  6 24  1  0
  7  8  1  0
  7 20  1  0
  7 21  2  0
  8 27  1  0
  9 18  1  0
 10 12  1  0
 10 19  1  0
 11 19  2  0
 12 17  2  0
 14 17  1  0
 15 18  1  0
 15 22  2  0
 16 19  1  0
 16 25  1  0
 17 25  1  0
 18 28  1  0
 20 27  1  0
 23 25  1  0
 23 27  2  0
 26 29  2  0
M  END
>  <ID>  (1) 
conformer_0

$$$$
