
     RDKit          3D

 38 41  0  0  0  0  0  0  0  0999 V2000
   -5.2500   32.2788   -1.4880 C   0  0  0  0  0  0  0  0  0  0  0  0
   -6.8522   35.3623   -1.5971 O   0  0  0  0  0  0  0  0  0  0  0  0
   -6.1649   26.8637   -7.1472 C   0  0  0  0  0  0  0  0  0  0  0  0
  -10.6537   32.2300   -0.7641 C   0  0  0  0  0  0  0  0  0  0  0  0
  -12.0505   33.0548    2.2723 C   0  0  0  0  0  0  0  0  0  0  0  0
  -10.2861   31.2999   -3.0722 C   0  0  0  0  0  0  0  0  0  0  0  0
  -11.4716   32.2040    1.4594 N   0  0  0  0  0  0  0  0  0  0  0  0
   -3.0834   29.9939   -1.6826 C   0  0  0  0  0  0  0  0  0  0  0  0
   -3.9452   29.5870   -3.9599 C   0  0  0  0  0  0  0  0  0  0  0  0
   -4.4477   30.6869    0.1776 C   0  0  0  0  0  0  0  0  0  0  0  0
   -9.5181   30.0787   -3.5063 C   0  0  0  0  0  0  0  0  0  0  0  0
   -9.8457   31.8502   -1.7667 C   0  0  0  0  0  0  0  0  0  0  0  0
   -3.4170   30.0077   -0.3751 C   0  0  0  0  0  0  0  0  0  0  0  0
  -11.9545   34.0168    0.2707 C   0  0  0  0  0  0  0  0  0  0  0  0
   -1.4281   29.5265   -3.2984 C   0  0  0  0  0  0  0  0  0  0  0  0
  -10.4247   29.3320   -4.6726 C   0  0  0  0  0  0  0  0  0  0  0  0
   -2.1177   28.7814   -5.6034 C   0  0  0  0  0  0  0  0  0  0  0  0
   -6.7464   27.3159   -5.9265 C   0  0  0  0  0  0  0  0  0  0  0  0
   -4.7973   31.5391   -2.6056 C   0  0  0  0  0  0  0  0  0  0  0  0
  -11.1584   31.8423   -3.9127 O   0  0  0  0  0  0  0  0  0  0  0  0
  -13.0800   30.5920   -6.8867 O   0  0  0  0  0  0  0  0  0  0  0  0
   -6.1562   28.3604   -5.1184 C   0  0  0  0  0  0  0  0  0  0  0  0
  -10.4694   30.7047   -6.6235 O   0  0  0  0  0  0  0  0  0  0  0  0
   -4.6919   28.6861   -5.0300 C   0  0  0  0  0  0  0  0  0  0  0  0
   -5.4587   33.6294   -1.6015 O   0  0  0  0  0  0  0  0  0  0  0  0
   -1.7640   29.6681   -1.9791 O   0  0  0  0  0  0  0  0  0  0  0  0
   -9.1356   28.5255   -5.1153 C   0  0  0  0  0  0  0  0  0  0  0  0
  -11.0428   29.6924   -5.9695 C   0  0  0  0  0  0  0  0  0  0  0  0
  -12.3853   29.3229   -6.4135 C   0  0  0  0  0  0  0  0  0  0  0  0
   -6.7293   34.1357   -1.8141 C   0  0  0  0  0  0  0  0  0  0  0  0
  -12.4395   34.1688    1.5773 N   0  0  0  0  0  0  0  0  0  0  0  0
   -2.5116   29.3842   -4.2819 C   0  0  0  0  0  0  0  0  0  0  0  0
   -5.2803   31.6563   -0.2503 C   0  0  0  0  0  0  0  0  0  0  0  0
   -8.2971   28.9188   -3.8544 C   0  0  0  0  0  0  0  0  0  0  0  0
  -11.2877   32.8278    0.2341 C   0  0  0  0  0  0  0  0  0  0  0  0
   -3.9934   30.4211   -2.6799 C   0  0  0  0  0  0  0  0  0  0  0  0
   -6.9169   29.2074   -4.2028 N   0  0  0  0  0  0  0  0  0  0  0  0
   -7.5775   33.3085   -2.3637 O   0  0  0  0  0  0  0  0  0  0  0  0
  1 19  1  0
  1 25  1  0
  1 33  1  0
  2 30  2  0
  3 18  1  0
  4 12  2  0
  4 35  2  0
  5  7  1  0
  5 31  1  0
  6 11  1  0
  6 12  1  0
  6 20  1  0
  7 35  1  0
  8 13  1  0
  8 26  1  0
  8 36  1  0
  9 24  2  3
  9 32  1  0
  9 36  1  0
 10 13  1  0
 10 33  2  0
 11 16  1  0
 11 34  1  0
 14 31  1  0
 14 35  1  0
 15 26  1  0
 15 32  2  0
 16 27  1  0
 16 28  1  0
 17 32  1  0
 18 22  1  0
 19 36  1  0
 21 29  1  0
 22 24  1  0
 22 37  2  3
 23 28  1  0
 25 30  1  0
 27 34  1  0
 28 29  1  0
 30 38  1  0
 34 37  1  0
M  END
>  <ID>  (1) 
conformer_0

$$$$
