
     RDKit          3D

 30 35  0  0  0  0  0  0  0  0999 V2000
   -7.0018   29.4099   -4.2992 C   0  0  0  0  0  0  0  0  0  0  0  0
   -8.4707   33.5076   -1.2381 C   0  0  0  0  0  0  0  0  0  0  0  0
   -6.5412   35.0970   -1.9284 Cl  0  0  0  0  0  0  0  0  0  0  0  0
   -6.2680   28.4594   -5.1124 C   0  0  0  0  0  0  0  0  0  0  0  0
   -9.1434   34.7239   -0.6388 O   0  0  0  0  0  0  0  0  0  0  0  0
   -2.4095   29.4760   -2.2192 C   0  0  0  0  0  0  0  0  0  0  0  0
  -12.1220   32.3462    1.3230 N   0  0  0  0  0  0  0  0  0  0  0  0
   -7.1505   31.3476   -3.0804 C   0  0  0  0  0  0  0  0  0  0  0  0
   -6.8068   27.5719   -6.1503 C   0  0  0  0  0  0  0  0  0  0  0  0
  -11.4473   34.5814    0.7924 C   0  0  0  0  0  0  0  0  0  0  0  0
   -7.3313   33.5568   -1.9689 C   0  0  0  0  0  0  0  0  0  0  0  0
   -4.8633   28.3841   -4.8801 C   0  0  0  0  0  0  0  0  0  0  0  0
   -2.8641   28.8977   -3.4896 C   0  0  0  0  0  0  0  0  0  0  0  0
   -4.9926   30.1724   -3.2591 C   0  0  0  0  0  0  0  0  0  0  0  0
  -13.3943   34.1099    2.1058 O   0  0  0  0  0  0  0  0  0  0  0  0
   -4.3342   31.1081   -2.2878 C   0  0  0  0  0  0  0  0  0  0  0  0
  -11.1590   31.8305    0.4518 C   0  0  0  0  0  0  0  0  0  0  0  0
   -8.0635   27.6002   -6.4013 O   0  0  0  0  0  0  0  0  0  0  0  0
   -6.0234   26.8402   -6.8580 O   0  0  0  0  0  0  0  0  0  0  0  0
   -8.4272   30.8312   -2.9979 C   0  0  0  0  0  0  0  0  0  0  0  0
   -4.2563   29.1585   -3.8704 C   0  0  0  0  0  0  0  0  0  0  0  0
  -10.3191   32.6548   -0.1731 C   0  0  0  0  0  0  0  0  0  0  0  0
   -6.2920   30.3293   -3.5634 C   0  0  0  0  0  0  0  0  0  0  0  0
   -9.3817   31.3158   -2.0741 C   0  0  0  0  0  0  0  0  0  0  0  0
   -9.2985   32.3728   -1.1789 C   0  0  0  0  0  0  0  0  0  0  0  0
   -8.4592   29.6566   -3.9465 N   0  0  0  0  0  0  0  0  0  0  0  0
   -6.8172   32.5831   -2.6985 C   0  0  0  0  0  0  0  0  0  0  0  0
   -3.1658   30.6632   -1.6534 C   0  0  0  0  0  0  0  0  0  0  0  0
  -12.3233   33.7029    1.4182 C   0  0  0  0  0  0  0  0  0  0  0  0
  -10.3473   34.0924    0.0572 C   0  0  0  0  0  0  0  0  0  0  0  0
  1  4  1  0
  1 23  1  0
  1 26  1  0
  2  5  1  0
  2 11  1  0
  2 25  1  0
  3 11  1  0
  4  9  1  0
  4 12  1  0
  5 30  1  0
  6 13  1  0
  6 28  2  0
  7 17  2  0
  7 29  1  0
  8 20  1  0
  8 23  1  0
  8 27  1  0
  9 18  2  0
  9 19  1  0
 10 29  1  0
 10 30  1  0
 11 27  2  0
 12 21  2  0
 13 21  1  0
 14 16  1  0
 14 21  1  0
 14 23  2  0
 15 29  2  0
 16 28  1  0
 17 22  1  0
 20 24  2  0
 20 26  1  0
 22 25  1  0
 22 30  2  0
 24 25  1  0
M  END
>  <ID>  (1) 
conformer_0

$$$$
