
     RDKit          3D

 33 36  0  0  0  0  0  0  0  0999 V2000
   -9.8789   31.7918    1.2951 C   0  0  0  0  0  0  0  0  0  0  0  0
  -12.2026   33.9117    3.2702 O   0  0  0  0  0  0  0  0  0  0  0  0
   -8.7106   29.5048   -5.0469 C   0  0  0  0  0  0  0  0  0  0  0  0
  -11.3148   33.0317    2.7239 C   0  0  0  0  0  0  0  0  0  0  0  0
   -5.4553   28.1801   -5.4247 C   0  0  0  0  0  0  0  0  0  0  0  0
   -7.5531   27.8218   -6.4277 C   0  0  0  0  0  0  0  0  0  0  0  0
   -6.8567   26.2388   -8.3935 C   0  0  0  0  0  0  0  0  0  0  0  0
  -11.4999   32.1165   -0.8671 N   0  0  0  0  0  0  0  0  0  0  0  0
  -10.1362   31.0754   -3.9351 C   0  0  0  0  0  0  0  0  0  0  0  0
   -3.9910   29.8796   -3.0999 C   0  0  0  0  0  0  0  0  0  0  0  0
   -5.2452   30.4333   -2.8482 C   0  0  0  0  0  0  0  0  0  0  0  0
  -13.2168   32.8128    0.2278 O   0  0  0  0  0  0  0  0  0  0  0  0
   -6.3842   29.0721   -4.7122 C   0  0  0  0  0  0  0  0  0  0  0  0
  -10.3409   32.4671    3.4857 C   0  0  0  0  0  0  0  0  0  0  0  0
  -12.8525   34.8495    2.4423 C   0  0  0  0  0  0  0  0  0  0  0  0
   -6.1275   27.4434   -6.4179 N   0  0  0  0  0  0  0  0  0  0  0  0
   -7.6631   30.6520   -3.2715 C   0  0  0  0  0  0  0  0  0  0  0  0
   -8.8042   30.4272   -4.0374 C   0  0  0  0  0  0  0  0  0  0  0  0
   -3.0422   31.0045   -1.2556 C   0  0  0  0  0  0  0  0  0  0  0  0
   -4.3205   31.6382   -1.0096 C   0  0  0  0  0  0  0  0  0  0  0  0
  -12.0030   32.5598    0.2732 C   0  0  0  0  0  0  0  0  0  0  0  0
   -9.0889   31.2536    0.3098 F   0  0  0  0  0  0  0  0  0  0  0  0
   -9.4397   31.6485    2.6005 C   0  0  0  0  0  0  0  0  0  0  0  0
   -2.9186   30.1004   -2.3430 C   0  0  0  0  0  0  0  0  0  0  0  0
   -6.4396   30.0420   -3.6172 C   0  0  0  0  0  0  0  0  0  0  0  0
  -10.6795   31.7029   -1.6756 C   0  0  0  0  0  0  0  0  0  0  0  0
   -7.5982   28.8275   -5.3621 C   0  0  0  0  0  0  0  0  0  0  0  0
   -4.2422   28.0481   -5.4271 O   0  0  0  0  0  0  0  0  0  0  0  0
  -10.8426   31.0342   -5.0570 O   0  0  0  0  0  0  0  0  0  0  0  0
   -5.3500   31.3721   -1.8033 C   0  0  0  0  0  0  0  0  0  0  0  0
   -5.7037   26.8610   -7.6869 C   0  0  0  0  0  0  0  0  0  0  0  0
  -10.6466   31.5724   -2.8665 N   0  0  0  0  0  0  0  0  0  0  0  0
  -11.1349   32.5599    1.4499 C   0  0  0  0  0  0  0  0  0  0  0  0
  1 22  1  0
  1 23  1  0
  1 33  1  0
  2  4  1  0
  2 15  1  0
  3 18  1  0
  3 27  2  0
  4 14  1  0
  4 33  1  0
  5 13  1  0
  5 16  1  0
  5 28  2  0
  6 16  1  0
  6 27  1  0
  7 31  1  0
  8 21  1  0
  8 26  1  0
  9 18  1  0
  9 29  2  0
  9 32  1  0
 10 11  1  0
 10 24  2  0
 11 25  2  3
 11 30  1  0
 12 21  2  0
 13 25  1  0
 13 27  1  0
 14 23  1  0
 16 31  1  0
 17 18  2  0
 17 25  1  0
 19 20  1  0
 19 24  1  0
 20 30  2  0
 21 33  1  0
 26 32  2  3
M  END
>  <ID>  (1) 
conformer_0

$$$$
