
     RDKit          3D

 46 53  0  0  0  0  0  0  0  0999 V2000
  -11.3200   31.8410   -1.3590 O   0  0  0  0  0  0  0  0  0  0  0  0
   -6.7745   35.2422   -1.5741 F   0  0  0  0  0  0  0  0  0  0  0  0
  -10.9402   32.6721    2.1513 C   0  0  0  0  0  0  0  0  0  0  0  0
   -7.1434   28.2743   -5.3282 C   0  0  0  0  0  0  0  0  0  0  0  0
  -11.7458   32.6767    1.0252 C   0  0  0  0  0  0  0  0  0  0  0  0
  -12.8022   33.6380    1.4658 C   0  0  0  0  0  0  0  0  0  0  0  0
   -2.1858   29.4854   -3.3503 C   0  0  0  0  0  0  0  0  0  0  0  0
   -5.9010   28.5683   -4.9399 C   0  0  0  0  0  0  0  0  0  0  0  0
   -9.4125   33.1611    4.4783 C   0  0  0  0  0  0  0  0  0  0  0  0
   -9.4861   31.8969    3.8730 C   0  0  0  0  0  0  0  0  0  0  0  0
   -0.9341   27.9826   -6.2881 C   0  0  0  0  0  0  0  0  0  0  0  0
    1.0609   28.5282   -4.9446 C   0  0  0  0  0  0  0  0  0  0  0  0
  -14.0005   33.3847    1.3314 O   0  0  0  0  0  0  0  0  0  0  0  0
  -12.2729   34.4840    2.4354 C   0  0  0  0  0  0  0  0  0  0  0  0
   -9.4353   31.8019   -2.9427 C   0  0  0  0  0  0  0  0  0  0  0  0
   -2.5590   30.1158   -2.2424 N   0  0  0  0  0  0  0  0  0  0  0  0
  -11.0961   33.8518    2.9121 C   0  0  0  0  0  0  0  0  0  0  0  0
  -10.2759   34.1668    3.9646 C   0  0  0  0  0  0  0  0  0  0  0  0
   -5.7015   29.3847   -3.7234 C   0  0  0  0  0  0  0  0  0  0  0  0
  -11.8446   32.1066   -0.1092 C   0  0  0  0  0  0  0  0  0  0  0  0
   -4.7617   28.0968   -5.6259 C   0  0  0  0  0  0  0  0  0  0  0  0
  -10.0135   28.5911   -5.7508 C   0  0  0  0  0  0  0  0  0  0  0  0
  -10.2084   32.0453   -1.8988 N   0  0  0  0  0  0  0  0  0  0  0  0
   -6.8384   29.9211   -3.0833 C   0  0  0  0  0  0  0  0  0  0  0  0
   -6.4323   33.7691   -2.0602 C   0  0  0  0  0  0  0  0  0  0  0  0
   -6.3692   27.0529   -7.0488 C   0  0  0  0  0  0  0  0  0  0  0  0
   -1.7438   28.4245   -5.3280 C   0  0  0  0  0  0  0  0  0  0  0  0
    0.4655   27.9902   -6.1215 C   0  0  0  0  0  0  0  0  0  0  0  0
   -9.8122   31.1747   -4.1271 C   0  0  0  0  0  0  0  0  0  0  0  0
  -11.7669   29.8347   -6.7565 O   0  0  0  0  0  0  0  0  0  0  0  0
   -3.3628   28.4663   -5.2013 C   0  0  0  0  0  0  0  0  0  0  0  0
   -3.9060   30.2829   -2.2099 N   0  0  0  0  0  0  0  0  0  0  0  0
    0.1804   29.0423   -3.9577 C   0  0  0  0  0  0  0  0  0  0  0  0
   -7.0878   31.1676   -2.9853 C   0  0  0  0  0  0  0  0  0  0  0  0
   -5.0786   27.2712   -6.6961 N   0  0  0  0  0  0  0  0  0  0  0  0
   -9.0343   27.7811   -6.6772 C   0  0  0  0  0  0  0  0  0  0  0  0
   -7.9723   32.1298   -2.8606 C   0  0  0  0  0  0  0  0  0  0  0  0
   -1.1574   29.0106   -4.1563 C   0  0  0  0  0  0  0  0  0  0  0  0
  -12.0795   31.7493   -4.8366 C   0  0  0  0  0  0  0  0  0  0  0  0
   -7.4792   27.6564   -6.3793 N   0  0  0  0  0  0  0  0  0  0  0  0
  -10.8807   30.8833   -4.9277 C   0  0  0  0  0  0  0  0  0  0  0  0
  -10.8526   29.8230   -5.8313 C   0  0  0  0  0  0  0  0  0  0  0  0
  -10.2288   31.6807    2.7178 C   0  0  0  0  0  0  0  0  0  0  0  0
   -3.3949   29.1823   -3.9750 C   0  0  0  0  0  0  0  0  0  0  0  0
   -4.3887   29.6534   -3.3063 N   0  0  0  0  0  0  0  0  0  0  0  0
   -7.5569   33.1740   -2.3442 C   0  0  0  0  0  0  0  0  0  0  0  0
  1 20  1  0
  1 23  1  0
  2 25  1  0
  3  5  1  0
  3 17  2  0
  3 43  1  0
  4  8  2  0
  4 40  1  0
  5  6  1  0
  5 20  1  0
  6 13  2  0
  6 14  1  0
  7 16  1  0
  7 38  1  0
  7 44  2  0
  8 19  1  0
  8 21  1  0
  9 10  1  0
  9 18  2  0
 10 43  2  0
 11 27  1  0
 11 28  2  0
 12 28  1  0
 12 33  2  0
 14 17  1  0
 15 23  2  3
 15 29  1  0
 15 37  1  0
 16 32  1  0
 17 18  1  0
 19 24  1  0
 19 45  1  0
 21 31  2  0
 21 35  1  0
 22 36  1  0
 22 42  1  0
 24 34  1  0
 25 46  1  0
 26 35  2  0
 26 40  1  0
 27 31  1  0
 27 38  2  0
 29 41  1  0
 30 42  1  0
 31 44  1  0
 32 45  1  0
 33 38  1  0
 34 37  1  0
 36 40  1  0
 37 46  1  0
 39 41  1  0
 41 42  1  0
 44 45  1  0
M  END
>  <ID>  (1) 
conformer_0

$$$$
