
     RDKit          3D

 42 47  0  0  0  0  0  0  0  0999 V2000
   -9.2234   31.3111   -3.4154 C   0  0  0  0  0  0  0  0  0  0  0  0
   -5.3827   28.0171   -5.7096 C   0  0  0  0  0  0  0  0  0  0  0  0
   -9.3825   32.0693    4.2097 C   0  0  0  0  0  0  0  0  0  0  0  0
   -7.6658   28.6103   -4.6952 C   0  0  0  0  0  0  0  0  0  0  0  0
  -11.9911   33.2194    0.0797 S   0  0  0  0  0  4  0  0  0  0  0  0
   -5.8173   32.5138   -1.9566 C   0  0  0  0  0  0  0  0  0  0  0  0
   -3.9614   31.6215   -0.6231 C   0  0  0  0  0  0  0  0  0  0  0  0
  -10.5917   33.0298   -1.0631 C   0  0  0  0  0  0  0  0  0  0  0  0
   -2.9213   30.7753   -0.5303 C   0  0  0  0  0  0  0  0  0  0  0  0
   -4.6843   31.5948   -1.8184 N   0  0  0  0  0  0  0  0  0  0  0  0
   -4.3013   27.6766   -6.5883 C   0  0  0  0  0  0  0  0  0  0  0  0
   -5.5492   33.7672   -1.4911 C   0  0  0  0  0  0  0  0  0  0  0  0
   -7.9400   34.2677   -1.8208 C   0  0  0  0  0  0  0  0  0  0  0  0
  -13.4740   32.8613   -0.1884 O   0  0  0  0  0  1  0  0  0  0  0  0
  -10.3983   31.7988    3.3430 C   0  0  0  0  0  0  0  0  0  0  0  0
   -9.6906   28.3367   -6.0319 C   0  0  0  0  0  0  0  0  0  0  0  0
   -3.3644   28.7761   -4.7268 C   0  0  0  0  0  0  0  0  0  0  0  0
  -10.8858   31.6044   -1.5566 C   0  0  0  0  0  0  0  0  0  0  0  0
   -2.5427   29.1966   -3.6894 N   0  0  0  0  0  0  0  0  0  0  0  0
   -7.1012   32.1798   -2.4557 C   0  0  0  0  0  0  0  0  0  0  0  0
   -7.9988   33.0066   -2.3529 C   0  0  0  0  0  0  0  0  0  0  0  0
   -8.1901   32.0376   -2.9338 C   0  0  0  0  0  0  0  0  0  0  0  0
  -11.8595   31.9166    1.0397 N   0  0  0  0  0  0  0  0  0  0  0  0
   -4.7635   28.7875   -4.6873 C   0  0  0  0  0  0  0  0  0  0  0  0
   -9.3100   30.4941   -4.6422 C   0  0  0  0  0  0  0  0  0  0  0  0
  -10.5547   31.4453   -2.8629 N   0  0  0  0  0  0  0  0  0  0  0  0
   -2.3820   30.0714   -1.4875 N   0  0  0  0  0  0  0  0  0  0  0  0
   -9.0799   33.3737    4.5563 C   0  0  0  0  0  0  0  0  0  0  0  0
   -9.8171   34.4330    4.0675 C   0  0  0  0  0  0  0  0  0  0  0  0
   -6.8480   27.9312   -5.7389 C   0  0  0  0  0  0  0  0  0  0  0  0
  -12.0132   34.6288    0.5350 O   0  0  0  0  0  1  0  0  0  0  0  0
  -12.4173   32.3736    2.3865 O   0  0  0  0  0  0  0  0  0  0  0  0
   -6.5892   34.7145   -1.5290 C   0  0  0  0  0  0  0  0  0  0  0  0
   -8.9238   27.4487   -6.9632 C   0  0  0  0  0  0  0  0  0  0  0  0
  -10.8973   34.1404    3.2733 C   0  0  0  0  0  0  0  0  0  0  0  0
  -10.3453   30.9260   -5.5069 O   0  0  0  0  0  0  0  0  0  0  0  0
   -9.0604   29.0572   -4.8767 C   0  0  0  0  0  0  0  0  0  0  0  0
  -11.2183   32.8255    3.0208 C   0  0  0  0  0  0  0  0  0  0  0  0
   -4.1373   30.8281   -2.8294 C   0  0  0  0  0  0  0  0  0  0  0  0
   -3.0257   30.0016   -2.6627 C   0  0  0  0  0  0  0  0  0  0  0  0
   -7.4997   27.1401   -6.7484 C   0  0  0  0  0  0  0  0  0  0  0  0
   -3.0237   28.0925   -5.9421 C   0  0  0  0  0  0  0  0  0  0  0  0
  1 22  1  0
  1 25  1  0
  1 26  1  0
  2 11  1  0
  2 24  1  0
  2 30  2  0
  3 15  2  0
  3 28  1  0
  4 30  1  0
  4 37  1  0
  5  8  1  0
  5 14  1  0
  5 23  1  0
  5 31  1  0
  6 10  1  0
  6 12  1  0
  6 20  2  0
  7  9  1  0
  7 10  1  0
  8 18  1  0
  9 27  2  0
 10 39  1  0
 11 42  1  0
 12 33  2  0
 13 21  1  0
 13 33  1  0
 15 38  1  0
 16 34  1  0
 16 37  1  0
 17 19  1  0
 17 24  1  0
 17 42  1  0
 18 26  1  0
 19 40  1  0
 20 22  2  0
 21 22  1  0
 23 32  1  0
 25 36  1  0
 25 37  1  0
 27 40  1  0
 28 29  2  0
 29 35  1  0
 30 41  1  0
 32 38  1  0
 34 41  2  0
 35 38  2  0
 39 40  2  0
M  END
>  <ID>  (1) 
conformer_0

$$$$
