
     RDKit          3D

 37 40  0  0  0  0  0  0  0  0999 V2000
  -11.5933   31.7637   -4.5212 N   0  0  0  0  0  0  0  0  0  0  0  0
   -9.6719   30.5339   -3.6196 C   0  0  0  0  0  0  0  0  0  0  0  0
   -2.6009   28.5193   -3.6785 C   0  0  0  0  0  0  0  0  0  0  0  0
  -10.7066   30.7448   -4.5685 C   0  0  0  0  0  0  0  0  0  0  0  0
  -10.4331   34.1824    3.4392 C   0  0  0  0  0  0  0  0  0  0  0  0
   -8.7584   29.5208   -3.9623 C   0  0  0  0  0  0  0  0  0  0  0  0
   -7.7127   27.9315   -5.5961 N   0  0  0  0  0  0  0  0  0  0  0  0
   -6.3444   28.3187   -5.2476 C   0  0  0  0  0  0  0  0  0  0  0  0
   -9.0338   33.2633    5.0857 F   0  0  0  0  0  0  0  0  0  0  0  0
   -1.9514   30.6139   -0.2744 N   0  0  0  0  0  0  0  0  0  0  0  0
   -9.9499   28.8658   -5.8878 C   0  0  0  0  0  0  0  0  0  0  0  0
  -10.8369   29.9096   -5.6518 N   0  0  0  0  0  0  0  0  0  0  0  0
   -4.5054   30.3910   -2.8555 C   0  0  0  0  0  0  0  0  0  0  0  0
   -2.3399   29.3385   -2.6114 C   0  0  0  0  0  0  0  0  0  0  0  0
   -5.4557   31.4744   -2.6646 C   0  0  0  0  0  0  0  0  0  0  0  0
   -6.0337   29.3523   -4.4480 N   0  0  0  0  0  0  0  0  0  0  0  0
   -3.0209   31.0195   -0.9220 C   0  0  0  0  0  0  0  0  0  0  0  0
  -10.8373   32.6190   -0.8413 O   0  0  0  0  0  0  0  0  0  0  0  0
   -7.0402   25.9165   -6.9679 O   0  0  0  0  0  0  0  0  0  0  0  0
  -10.4476   31.7187    2.1689 N   0  0  0  0  0  0  0  0  0  0  0  0
  -11.8531   35.0111    1.7757 F   0  0  0  0  0  0  0  0  0  0  0  0
   -4.7997   29.4569   -3.8617 C   0  0  0  0  0  0  0  0  0  0  0  0
   -5.3154   27.5058   -5.7324 C   0  0  0  0  0  0  0  0  0  0  0  0
  -11.0770   32.7609    1.5697 C   0  0  0  0  0  0  0  0  0  0  0  0
   -9.7325   33.1214    4.0029 C   0  0  0  0  0  0  0  0  0  0  0  0
   -4.1070   27.6307   -5.2837 C   0  0  0  0  0  0  0  0  0  0  0  0
   -3.8350   28.5349   -4.2816 C   0  0  0  0  0  0  0  0  0  0  0  0
  -11.1209   34.0140    2.2610 C   0  0  0  0  0  0  0  0  0  0  0  0
   -7.8629   27.0711   -6.7561 C   0  0  0  0  0  0  0  0  0  0  0  0
  -13.0084   32.5804    0.1267 O   0  0  0  0  0  0  0  0  0  0  0  0
   -9.6295   31.3413   -2.4045 C   0  0  0  0  0  0  0  0  0  0  0  0
  -11.7091   32.6032    0.2292 C   0  0  0  0  0  0  0  0  0  0  0  0
   -3.7725   31.9492   -0.4700 O   0  0  0  0  0  0  0  0  0  0  0  0
   -8.7918   28.7766   -5.1220 C   0  0  0  0  0  0  0  0  0  0  0  0
  -10.8451   31.8685   -1.9525 N   0  0  0  0  0  0  0  0  0  0  0  0
   -3.2841   30.2459   -2.1384 C   0  0  0  0  0  0  0  0  0  0  0  0
   -9.8139   31.8924    3.3930 C   0  0  0  0  0  0  0  0  0  0  0  0
  1  4  2  0
  2  4  1  0
  2  6  1  0
  2 31  1  0
  3 14  2  0
  3 27  1  0
  4 12  1  0
  5 25  2  0
  5 28  1  0
  6 34  2  0
  7  8  1  0
  7 29  1  0
  7 34  1  0
  8 16  2  0
  8 23  1  0
  9 25  1  0
 10 17  1  0
 11 12  2  0
 11 34  1  0
 13 15  1  0
 13 22  1  0
 13 36  2  0
 14 36  1  0
 16 22  1  0
 17 33  2  0
 17 36  1  0
 18 32  1  0
 18 35  1  0
 19 29  1  0
 20 24  1  0
 20 37  2  0
 21 28  1  0
 22 27  2  0
 23 26  2  0
 24 28  2  0
 24 32  1  0
 25 37  1  0
 26 27  1  0
 30 32  2  0
 31 35  2  3
M  END
>  <ID>  (1) 
conformer_0

$$$$
