
     RDKit          3D

 37 39  0  0  0  0  0  0  0  0999 V2000
   -6.7559   26.5441   -7.6307 C   0  0  0  0  0  0  0  0  0  0  0  0
  -11.3310   32.0378    1.8205 O   0  0  0  0  0  1  0  0  0  0  0  0
   -1.5703   28.8850   -5.3456 O   0  0  0  0  0  0  0  0  0  0  0  0
   -2.1706   29.0288   -4.2177 C   0  0  0  0  0  0  0  0  0  0  0  0
  -11.3026   31.6447   -4.2752 O   0  0  0  0  0  0  0  0  0  0  0  0
   -3.8350   30.9689   -0.9808 C   0  0  0  0  0  0  0  0  0  0  0  0
  -10.4731   31.8796   -1.2111 N   0  0  0  0  0  0  0  0  0  0  0  0
   -4.0720   30.1076   -3.2548 C   0  0  0  0  0  0  0  0  0  0  0  0
   -4.0541   28.6469   -5.3504 C   0  0  0  0  0  0  0  0  0  0  0  0
   -5.0295   31.5482   -0.8411 N   0  0  0  0  0  0  0  0  0  0  0  0
   -6.3087   27.9932   -5.7975 C   0  0  0  0  0  0  0  0  0  0  0  0
   -2.0783   29.7224   -1.9980 N   0  0  0  0  0  0  0  0  0  0  0  0
   -7.4055   33.3475   -2.3605 C   0  0  0  0  0  0  0  0  0  0  0  0
  -10.3231   30.7469   -4.1031 C   0  0  0  0  0  0  0  0  0  0  0  0
  -13.0451   32.7900    0.2491 O   0  0  0  0  0  0  0  0  0  0  0  0
   -9.3408   30.9646   -3.0892 C   0  0  0  0  0  0  0  0  0  0  0  0
  -11.7272   33.0835    0.8114 P   0  0  0  0  0  4  0  0  0  0  0  0
  -10.6699   33.0328   -0.4362 O   0  0  0  0  0  0  0  0  0  0  0  0
   -5.4959   26.7184   -8.1210 C   0  0  0  0  0  0  0  0  0  0  0  0
   -9.0342   28.8444   -5.2123 C   0  0  0  0  0  0  0  0  0  0  0  0
   -3.3140   30.2248   -2.0919 C   0  0  0  0  0  0  0  0  0  0  0  0
   -8.1291   30.1686   -3.1738 C   0  0  0  0  0  0  0  0  0  0  0  0
   -3.5285   29.2548   -4.1992 C   0  0  0  0  0  0  0  0  0  0  0  0
   -6.6325   28.8094   -4.6170 C   0  0  0  0  0  0  0  0  0  0  0  0
   -6.7595   34.6415   -1.7747 C   0  0  0  0  0  0  0  0  0  0  0  0
   -3.0596   31.0626   -0.0840 N   0  0  0  0  0  0  0  0  0  0  0  0
   -8.7696   33.0537   -2.1025 N   0  0  0  0  0  0  0  0  0  0  0  0
   -1.5249   29.0850   -3.0029 C   0  0  0  0  0  0  0  0  0  0  0  0
   -4.5688   27.4619   -7.4457 C   0  0  0  0  0  0  0  0  0  0  0  0
   -4.9397   28.0337   -6.2473 C   0  0  0  0  0  0  0  0  0  0  0  0
   -7.1171   27.1602   -6.4898 C   0  0  0  0  0  0  0  0  0  0  0  0
   -7.9237   29.2844   -4.3066 C   0  0  0  0  0  0  0  0  0  0  0  0
  -11.7410   34.4821    1.4206 O   0  0  0  0  0  0  0  0  0  0  0  0
  -10.8975   29.9211   -6.3282 O   0  0  0  0  0  0  0  0  0  0  0  0
   -9.4895   31.9761   -2.1322 C   0  0  0  0  0  0  0  0  0  0  0  0
  -10.2419   29.6672   -5.1132 C   0  0  0  0  0  0  0  0  0  0  0  0
   -5.1952   31.0411   -3.4788 C   0  0  0  0  0  0  0  0  0  0  0  0
  1 19  1  0
  1 31  2  0
  2 17  2  0
  3  4  1  0
  4 23  1  0
  4 28  1  0
  5 14  1  0
  6 10  2  0
  6 21  1  0
  6 26  1  0
  7 18  1  0
  7 35  2  3
  8 21  1  0
  8 23  1  0
  8 37  1  0
  9 23  2  0
  9 30  2  0
 11 24  1  0
 11 30  1  0
 11 31  1  0
 12 21  1  0
 12 28  2  0
 13 25  1  0
 13 27  1  0
 14 16  2  0
 14 36  1  0
 15 17  1  0
 16 22  1  0
 16 35  1  0
 17 18  1  0
 17 33  1  0
 19 29  2  0
 20 32  1  0
 20 36  1  0
 22 32  1  0
 24 32  2  3
 27 35  1  0
 29 30  1  0
 34 36  1  0
M  END
>  <ID>  (1) 
conformer_0

$$$$
