
     RDKit          3D

 34 38  0  0  0  0  0  0  0  0999 V2000
   -4.6773   30.5262   -0.2265 C   0  0  0  0  0  0  0  0  0  0  0  0
   -5.8776   27.8561   -5.6043 O   0  0  0  0  0  0  0  0  0  0  0  0
   -4.0055   30.5566    2.0285 O   0  0  0  0  0  0  0  0  0  0  0  0
   -9.5330   31.6869   -1.3688 C   0  0  0  0  0  0  0  0  0  0  0  0
  -11.1158   32.2042    2.4498 C   0  0  0  0  0  0  0  0  0  0  0  0
   -9.0239   29.5799   -4.9320 C   0  0  0  0  0  0  0  0  0  0  0  0
   -9.7817   35.1293   -0.0618 C   0  0  0  0  0  0  0  0  0  0  0  0
   -5.1700   30.1147   -4.0318 N   0  0  0  0  0  0  0  0  0  0  0  0
   -2.5990   30.3500   -1.6102 C   0  0  0  0  0  0  0  0  0  0  0  0
  -11.1091   31.1517    3.4998 C   0  0  0  0  0  0  0  0  0  0  0  0
   -2.8386   29.9997   -4.0803 C   0  0  0  0  0  0  0  0  0  0  0  0
   -6.7184   28.6344   -5.1892 C   0  0  0  0  0  0  0  0  0  0  0  0
  -10.9450   30.8876   -4.6124 C   0  0  0  0  0  0  0  0  0  0  0  0
   -5.4133   30.5135   -1.4426 C   0  0  0  0  0  0  0  0  0  0  0  0
   -6.3705   29.6872   -4.3523 N   0  0  0  0  0  0  0  0  0  0  0  0
   -5.1968   30.6794    1.0883 C   0  0  0  0  0  0  0  0  0  0  0  0
   -3.2570   30.4611   -0.4176 C   0  0  0  0  0  0  0  0  0  0  0  0
  -10.7069   31.9001    1.2144 N   0  0  0  0  0  0  0  0  0  0  0  0
  -10.2391   30.0799   -5.5778 C   0  0  0  0  0  0  0  0  0  0  0  0
  -10.4146   34.2720    0.8958 C   0  0  0  0  0  0  0  0  0  0  0  0
   -1.4125   29.5509   -4.1715 C   0  0  0  0  0  0  0  0  0  0  0  0
  -10.6527   31.4831   -2.2073 N   0  0  0  0  0  0  0  0  0  0  0  0
  -11.5009   33.4734    2.8076 C   0  0  0  0  0  0  0  0  0  0  0  0
   -9.0160   30.2122   -3.6461 C   0  0  0  0  0  0  0  0  0  0  0  0
   -3.3264   30.2376   -2.7237 C   0  0  0  0  0  0  0  0  0  0  0  0
   -4.7044   30.3113   -2.6705 C   0  0  0  0  0  0  0  0  0  0  0  0
  -10.2008   30.9331   -3.4388 C   0  0  0  0  0  0  0  0  0  0  0  0
   -8.2038   28.5523   -5.5140 C   0  0  0  0  0  0  0  0  0  0  0  0
  -12.1148   31.5236   -4.8285 O   0  0  0  0  0  0  0  0  0  0  0  0
   -3.9798   29.8869   -4.9339 C   0  0  0  0  0  0  0  0  0  0  0  0
  -10.2151   32.8880    0.5336 C   0  0  0  0  0  0  0  0  0  0  0  0
   -9.2474   34.2599   -1.1441 C   0  0  0  0  0  0  0  0  0  0  0  0
   -9.5561   32.8746   -0.6484 N   0  0  0  0  0  0  0  0  0  0  0  0
  -11.2229   34.5387    1.9429 C   0  0  0  0  0  0  0  0  0  0  0  0
  1 14  2  0
  1 16  1  0
  1 17  1  0
  2 12  2  0
  3 16  1  0
  4 22  1  0
  4 33  1  0
  5 10  1  0
  5 18  1  0
  5 23  2  0
  6 19  1  0
  6 24  1  0
  6 28  1  0
  7 20  1  0
  7 32  1  0
  8 15  1  0
  8 26  1  0
  8 30  1  0
  9 17  2  0
  9 25  1  0
 11 21  1  0
 11 25  1  0
 11 30  1  0
 12 15  1  0
 12 28  1  0
 13 19  1  0
 13 27  2  0
 13 29  1  0
 14 26  1  0
 18 31  1  0
 20 31  2  0
 20 34  1  0
 22 27  1  0
 23 34  1  0
 24 27  1  0
 25 26  2  0
 31 33  1  0
 32 33  1  0
M  END
>  <ID>  (1) 
conformer_0

$$$$
