
     RDKit          3D

 37 42  0  0  0  0  0  0  0  0999 V2000
   -5.2568   29.3435   -4.1162 C   0  0  0  0  0  0  0  0  0  0  0  0
  -10.7343   31.6940   -1.7219 C   0  0  0  0  0  0  0  0  0  0  0  0
  -10.0812   34.2501    3.6300 C   0  0  0  0  0  0  0  0  0  0  0  0
   -9.4266   31.7128   -2.3518 C   0  0  0  0  0  0  0  0  0  0  0  0
  -10.2147   31.8100    2.3010 C   0  0  0  0  0  0  0  0  0  0  0  0
  -12.7340   33.0136    0.2253 O   0  0  0  0  0  0  0  0  0  0  0  0
  -10.8535   31.1840   -4.5042 C   0  0  0  0  0  0  0  0  0  0  0  0
   -6.4605   33.9132   -2.1353 C   0  0  0  0  0  0  0  0  0  0  0  0
   -9.6010   29.2115   -5.1922 C   0  0  0  0  0  0  0  0  0  0  0  0
   -5.6915   27.5982   -5.6244 N   0  0  0  0  0  0  0  0  0  0  0  0
  -10.8765   30.0344   -5.4954 C   0  0  0  0  0  0  0  0  0  0  0  0
  -11.5896   32.7142    0.4928 C   0  0  0  0  0  0  0  0  0  0  0  0
   -4.7072   28.2985   -4.9227 C   0  0  0  0  0  0  0  0  0  0  0  0
   -8.8613   33.6961   -0.9516 C   0  0  0  0  0  0  0  0  0  0  0  0
   -4.9448   30.2668   -3.2419 N   0  0  0  0  0  0  0  0  0  0  0  0
   -6.6991   29.3116   -4.5162 C   0  0  0  0  0  0  0  0  0  0  0  0
   -9.5691   31.9202    3.5146 C   0  0  0  0  0  0  0  0  0  0  0  0
   -9.0944   29.8313   -3.9266 C   0  0  0  0  0  0  0  0  0  0  0  0
   -8.1111   34.7300   -0.4817 C   0  0  0  0  0  0  0  0  0  0  0  0
   -6.9624   34.8659   -1.2255 C   0  0  0  0  0  0  0  0  0  0  0  0
   -2.6695   29.3770   -3.3553 C   0  0  0  0  0  0  0  0  0  0  0  0
  -10.8633   32.9083    1.7722 C   0  0  0  0  0  0  0  0  0  0  0  0
   -3.8826   29.9253   -3.2104 C   0  0  0  0  0  0  0  0  0  0  0  0
   -7.6951   29.7009   -3.5686 C   0  0  0  0  0  0  0  0  0  0  0  0
   -3.3952   27.9167   -5.0879 C   0  0  0  0  0  0  0  0  0  0  0  0
   -1.5801   29.7326   -2.5622 N   0  0  0  0  0  0  0  0  0  0  0  0
   -6.9956   28.1012   -5.3039 C   0  0  0  0  0  0  0  0  0  0  0  0
   -8.4861   32.7508   -1.8986 C   0  0  0  0  0  0  0  0  0  0  0  0
  -11.7954   30.3515   -6.5219 O   0  0  0  0  0  0  0  0  0  0  0  0
  -11.8646   31.9953   -4.4543 O   0  0  0  0  0  0  0  0  0  0  0  0
   -9.5920   31.2499   -3.7813 C   0  0  0  0  0  0  0  0  0  0  0  0
   -8.5097   28.1295   -5.6227 C   0  0  0  0  0  0  0  0  0  0  0  0
  -10.7716   34.1207    2.4236 C   0  0  0  0  0  0  0  0  0  0  0  0
   -7.2366   32.8637   -2.5260 C   0  0  0  0  0  0  0  0  0  0  0  0
   -2.4237   28.4303   -4.3153 C   0  0  0  0  0  0  0  0  0  0  0  0
   -9.5791   33.0940    4.2119 C   0  0  0  0  0  0  0  0  0  0  0  0
  -10.7528   32.0323   -0.3888 C   0  0  0  0  0  0  0  0  0  0  0  0
  1 13  2  0
  1 15  1  0
  1 16  1  0
  2  4  1  0
  2 37  1  0
  3 33  2  0
  3 36  1  0
  4 28  1  0
  4 31  1  0
  5 17  1  0
  5 22  2  0
  6 12  2  0
  7 11  1  0
  7 30  1  0
  7 31  1  0
  8 20  1  0
  8 34  2  0
  9 11  2  0
  9 18  1  0
  9 32  1  0
 10 13  1  0
 10 27  1  0
 11 29  1  0
 12 22  1  0
 12 37  1  0
 13 25  1  0
 14 19  1  0
 14 28  2  0
 15 23  1  0
 16 24  1  0
 16 27  1  0
 17 36  2  0
 18 24  1  0
 18 31  1  0
 19 20  1  0
 21 23  1  0
 21 26  1  0
 21 35  2  0
 22 33  1  0
 25 35  1  0
 27 32  2  0
 28 34  1  0
M  END
>  <ID>  (1) 
conformer_0

$$$$
