
     RDKit          3D

 36 39  0  0  0  0  0  0  0  0999 V2000
   -7.2722   30.6258   -3.0463 C   0  0  0  0  0  0  0  0  0  0  0  0
   -2.6330   29.8872   -3.4839 C   0  0  0  0  0  0  0  0  0  0  0  0
   -7.9620   33.7504   -2.2250 C   0  0  0  0  0  3  0  0  0  0  0  0
   -2.3078   30.0504   -1.1472 N   0  0  0  0  0  0  0  0  0  0  0  0
   -9.3332   29.4994   -3.8457 C   0  0  0  0  0  0  0  0  0  0  0  0
   -9.9334   31.6405    3.2377 C   0  0  0  0  0  0  0  0  0  0  0  0
   -3.1050   28.1818   -5.8823 C   0  0  0  0  0  0  0  0  0  0  0  0
  -11.2070   33.1758    1.9764 C   0  0  0  0  0  0  0  0  0  0  0  0
  -11.2365   33.2466   -0.2144 C   0  0  0  0  0  0  0  0  0  0  0  0
  -10.4752   34.2509   -0.3659 O   0  0  0  0  0  0  0  0  0  0  0  0
   -9.6409   32.6573    4.1391 C   0  0  0  0  0  0  0  0  0  0  0  0
   -5.4326   28.3395   -5.3017 C   0  0  0  0  0  0  0  0  0  0  0  0
  -10.9872   34.1893    2.8871 C   0  0  0  0  0  0  0  0  0  0  0  0
   -4.3575   30.8894   -2.1655 C   0  0  0  0  0  0  0  0  0  0  0  0
   -4.0986   28.6901   -5.0554 C   0  0  0  0  0  0  0  0  0  0  0  0
   -1.4011   29.7438   -4.0961 C   0  0  0  0  0  0  0  0  0  0  0  0
   -8.6496   30.5144   -3.0390 C   0  0  0  0  0  0  0  0  0  0  0  0
   -9.3455   31.5321   -2.3009 C   0  0  0  0  0  0  0  0  0  0  0  0
   -8.8211   27.5863   -6.1359 N   0  0  0  0  0  0  0  0  0  0  0  0
   -8.6796   32.6125   -2.2196 N   0  0  0  0  0  0  0  0  0  0  0  0
  -10.7022   28.5804   -7.0370 O   0  0  0  0  0  0  0  0  0  0  0  0
   -9.8849   28.3885   -6.1103 C   0  0  0  0  0  0  0  0  0  0  0  0
  -10.1933   29.0730   -4.8397 C   0  0  0  0  0  0  0  0  0  0  0  0
  -12.1337   33.3777    0.9114 N   0  0  0  0  0  0  0  0  0  0  0  0
   -0.9488   29.1348   -5.2329 N   0  0  0  0  0  0  0  0  0  0  0  0
  -10.1646   33.9313    3.9922 C   0  0  0  0  0  0  0  0  0  0  0  0
   -6.2127   29.9053   -3.6195 C   0  0  0  0  0  0  0  0  0  0  0  0
  -10.5254   31.3527   -1.6976 N   0  0  0  0  0  0  0  0  0  0  0  0
  -11.1412   31.9958   -0.8661 C   0  0  0  0  0  0  0  0  0  0  0  0
   -2.8764   30.4541   -2.1822 C   0  0  0  0  0  0  0  0  0  0  0  0
  -10.6559   31.9256    2.0854 C   0  0  0  0  0  0  0  0  0  0  0  0
   -6.3960   28.9648   -4.6032 C   0  0  0  0  0  0  0  0  0  0  0  0
   -8.1308   27.0862   -7.2839 C   0  0  0  0  0  0  0  0  0  0  0  0
   -3.8761   29.5375   -3.9852 C   0  0  0  0  0  0  0  0  0  0  0  0
   -4.9100   30.1481   -3.2326 C   0  0  0  0  0  0  0  0  0  0  0  0
   -1.8369   28.3759   -6.0016 C   0  0  0  0  0  0  0  0  0  0  0  0
  1 17  2  3
  1 27  1  0
  2 16  1  0
  2 30  1  0
  2 34  1  0
  3 20  2  0
  4 30  2  0
  5 17  1  0
  5 23  1  0
  6 11  2  0
  6 31  1  0
  7 15  1  0
  7 36  2  0
  8 13  1  0
  8 24  1  0
  8 31  2  0
  9 10  2  0
  9 24  1  0
  9 29  1  0
 11 26  1  0
 12 15  2  0
 12 32  1  0
 13 26  2  0
 14 30  1  0
 14 35  1  0
 15 34  1  0
 16 25  2  0
 17 18  1  0
 18 20  1  0
 18 28  1  0
 19 22  1  0
 19 33  1  0
 21 22  2  0
 22 23  1  0
 25 36  1  0
 27 32  2  0
 27 35  1  0
 28 29  2  3
 34 35  2  0
M  END
>  <ID>  (1) 
conformer_0

$$$$
