
     RDKit          3D

 31 35  0  0  0  0  0  0  0  0999 V2000
   -4.0341   29.9341   -3.1056 C   0  0  0  0  0  0  0  0  0  0  0  0
   -4.5648   29.2348   -4.1750 C   0  0  0  0  0  0  0  0  0  0  0  0
   -8.6314   30.4383   -3.8277 C   0  0  0  0  0  0  0  0  0  0  0  0
  -12.2270   33.7062    0.5277 C   0  0  0  0  0  0  0  0  0  0  0  0
  -10.8120   30.0480   -5.4984 C   0  0  0  0  0  0  0  0  0  0  0  0
   -4.2280   31.3416   -1.2972 C   0  0  0  0  0  0  0  0  0  0  0  0
  -10.6436   32.0738    2.2587 C   0  0  0  0  0  0  0  0  0  0  0  0
   -5.0788   30.7760   -2.3405 N   0  0  0  0  0  0  0  0  0  0  0  0
   -9.9373   31.8196   -2.4440 C   0  0  0  0  0  0  0  0  0  0  0  0
  -11.4887   32.9533    2.7102 N   0  0  0  0  0  0  0  0  0  0  0  0
   -6.3101   30.4010   -3.1248 C   0  0  0  0  0  0  0  0  0  0  0  0
   -9.6660   29.2443   -5.6322 C   0  0  0  0  0  0  0  0  0  0  0  0
   -6.4830   28.4471   -5.1827 N   0  0  0  0  0  0  0  0  0  0  0  0
   -5.3742   27.8150   -5.9149 C   0  0  0  0  0  0  0  0  0  0  0  0
   -4.1345   28.3522   -5.2042 C   0  0  0  0  0  0  0  0  0  0  0  0
  -10.4034   32.1591   -0.0820 C   0  0  0  0  0  0  0  0  0  0  0  0
   -1.6897   29.5521   -2.9539 N   0  0  0  0  0  0  0  0  0  0  0  0
   -2.9969   27.9503   -5.4358 O   0  0  0  0  0  0  0  0  0  0  0  0
   -2.9104   30.8607   -1.4051 N   0  0  0  0  0  0  0  0  0  0  0  0
   -8.6428   29.5067   -4.8218 C   0  0  0  0  0  0  0  0  0  0  0  0
   -9.5995   31.8766   -1.1953 C   0  0  0  0  0  0  0  0  0  0  0  0
  -13.1474   34.7025    2.4765 N   0  0  0  0  0  0  0  0  0  0  0  0
   -9.8564   31.1081   -3.5967 C   0  0  0  0  0  0  0  0  0  0  0  0
   -5.9822   29.4366   -4.1830 C   0  0  0  0  0  0  0  0  0  0  0  0
   -4.5045   32.1996   -0.3341 N   0  0  0  0  0  0  0  0  0  0  0  0
   -2.7976   30.0624   -2.5206 C   0  0  0  0  0  0  0  0  0  0  0  0
  -11.4792   33.0327   -0.2235 C   0  0  0  0  0  0  0  0  0  0  0  0
  -10.0604   31.6618    1.1529 N   0  0  0  0  0  0  0  0  0  0  0  0
  -10.9027   30.9933   -4.4904 C   0  0  0  0  0  0  0  0  0  0  0  0
   -7.5532   30.7943   -2.9783 N   0  0  0  0  0  0  0  0  0  0  0  0
  -12.3160   33.8125    1.9177 C   0  0  0  0  0  0  0  0  0  0  0  0
  1  2  2  0
  1  8  1  0
  1 26  1  0
  2 15  1  0
  2 24  1  0
  3 20  1  0
  3 23  1  0
  3 30  1  0
  4 27  2  0
  4 31  1  0
  5 12  1  0
  5 29  1  0
  6  8  1  0
  6 19  1  0
  6 25  2  0
  7 10  2  0
  7 28  1  0
  8 11  1  0
  9 21  1  0
  9 23  1  0
 10 31  1  0
 11 24  1  0
 11 30  2  3
 12 20  2  0
 13 14  1  0
 13 24  1  0
 14 15  1  0
 15 18  2  0
 16 21  1  0
 16 27  1  0
 16 28  2  0
 17 26  2  0
 19 26  1  0
 22 31  2  0
 23 29  2  0
M  END
>  <ID>  (1) 
conformer_0

$$$$
