
     RDKit          3D

 29 31  0  0  0  0  0  0  0  0999 V2000
   -2.9478   30.0958   -2.4715 C   0  0  0  0  0  0  0  0  0  0  0  0
   -8.4863   31.2841   -2.8294 C   0  0  0  0  0  0  0  0  0  0  0  0
  -10.8670   30.1363   -5.6588 O   0  0  0  0  0  0  0  0  0  0  0  0
   -2.3974   28.6534   -4.4738 C   0  0  0  0  0  0  0  0  0  0  0  0
  -10.6067   32.8899   -0.1005 C   0  0  0  0  0  0  0  0  0  0  0  0
  -11.8445   33.0832    0.7814 C   0  0  0  0  0  0  0  0  0  0  0  0
   -8.5183   33.2100   -1.4612 C   0  0  0  0  0  0  0  0  0  0  0  0
   -6.2859   33.9861   -1.9173 O   0  0  0  0  0  0  0  0  0  0  0  0
  -10.1924   28.8412   -5.5023 C   0  0  0  0  0  0  0  0  0  0  0  0
   -9.3007   32.1619   -1.8797 C   0  0  0  0  0  0  0  0  0  0  0  0
   -9.3294   30.3920   -3.7705 C   0  0  0  0  0  0  0  0  0  0  0  0
   -5.5912   30.2924   -3.5195 C   0  0  0  0  0  0  0  0  0  0  0  0
   -9.4111   28.9335   -4.1807 C   0  0  0  0  0  0  0  0  0  0  0  0
   -4.8700   31.4181   -1.6549 C   0  0  0  0  0  0  0  0  0  0  0  0
   -6.8701   35.2732   -1.3788 C   0  0  0  0  0  0  0  0  0  0  0  0
   -4.7034   29.5062   -4.0179 C   0  0  0  0  0  0  0  0  0  0  0  0
  -11.6047   33.3668    1.9713 O   0  0  0  0  0  0  0  0  0  0  0  0
   -3.3428   29.4433   -3.6226 C   0  0  0  0  0  0  0  0  0  0  0  0
  -10.6658   32.0013   -1.2552 C   0  0  0  0  0  0  0  0  0  0  0  0
   -2.9826   31.1314   -0.4752 O   0  0  0  0  0  0  0  0  0  0  0  0
  -10.4468   31.0481   -4.5755 C   0  0  0  0  0  0  0  0  0  0  0  0
   -5.8627   31.2055   -2.5774 C   0  0  0  0  0  0  0  0  0  0  0  0
   -1.0376   29.0883   -4.5323 C   0  0  0  0  0  0  0  0  0  0  0  0
   -3.6295   30.8679   -1.5748 C   0  0  0  0  0  0  0  0  0  0  0  0
   -2.7243   27.7152   -5.2496 O   0  0  0  0  0  0  0  0  0  0  0  0
  -12.9466   32.9252    0.2607 O   0  0  0  0  0  0  0  0  0  0  0  0
   -5.2471   28.6286   -5.0822 C   0  0  0  0  0  0  0  0  0  0  0  0
   -7.1207   31.8318   -2.5794 C   0  0  0  0  0  0  0  0  0  0  0  0
   -7.2547   33.0839   -1.9504 C   0  0  0  0  0  0  0  0  0  0  0  0
  1 18  2  0
  1 24  1  0
  2 10  1  0
  2 11  1  0
  2 28  1  0
  3  9  1  0
  3 21  1  0
  4 18  1  0
  4 23  1  0
  4 25  2  0
  5  6  1  0
  5 19  1  0
  6 17  2  0
  6 26  1  0
  7 10  1  0
  7 29  1  0
  8 15  1  0
  8 29  1  0
  9 13  1  0
 10 19  1  0
 11 13  1  0
 11 21  1  0
 12 16  2  0
 12 22  1  0
 14 22  1  0
 14 24  2  0
 16 18  1  0
 16 27  1  0
 20 24  1  0
 22 28  1  0
 28 29  1  0
M  END
>  <ID>  (1) 
conformer_0

$$$$
