
     RDKit          3D

 39 44  0  0  0  0  0  0  0  0999 V2000
  -10.6947   27.7787   -7.3758 O   0  0  0  0  0  0  0  0  0  0  0  0
   -9.7555   31.6259    3.8664 C   0  0  0  0  0  0  0  0  0  0  0  0
   -6.5867   32.6759   -2.5698 C   0  0  0  0  0  0  0  0  0  0  0  0
  -11.0129   32.6176    0.5537 C   0  0  0  0  0  0  0  0  0  0  0  0
   -9.5020   27.6496   -6.9927 C   0  0  0  0  0  0  0  0  0  0  0  0
   -3.0810   29.4557   -3.0125 C   0  0  0  0  0  0  0  0  0  0  0  0
   -5.6836   27.7322   -5.6854 C   0  0  0  0  0  0  0  0  0  0  0  0
   -7.3038   26.8116   -7.0924 C   0  0  0  0  0  0  0  0  0  0  0  0
   -2.2213   29.5986   -2.0557 C   0  0  0  0  0  0  0  0  0  0  0  0
   -3.3550   31.1419   -0.4312 C   0  0  0  0  0  0  0  0  0  0  0  0
  -11.8301   34.3657    3.2555 N   0  0  0  0  0  0  0  0  0  0  0  0
   -4.4771   31.5552   -0.9904 C   0  0  0  0  0  0  0  0  0  0  0  0
   -9.8813   29.3568   -5.2307 C   0  0  0  0  0  0  0  0  0  0  0  0
   -8.6979   33.6443   -1.6904 O   0  0  0  0  0  0  0  0  0  0  0  0
   -6.5672   35.0611   -1.6689 Cl  0  0  0  0  0  0  0  0  0  0  0  0
  -10.1516   32.0615   -0.3899 S   0  0  0  0  0  0  0  0  0  0  0  0
  -10.7148   32.5154    2.0206 C   0  0  0  0  0  0  0  0  0  0  0  0
   -2.4371   30.3111   -0.9193 C   0  0  0  0  0  0  0  0  0  0  0  0
   -5.2463   29.6814   -4.0381 C   0  0  0  0  0  0  0  0  0  0  0  0
   -4.8828   31.0190   -2.2594 C   0  0  0  0  0  0  0  0  0  0  0  0
  -10.0229   31.3980    2.5035 N   0  0  0  0  0  0  0  0  0  0  0  0
   -4.3174   30.0264   -3.0392 C   0  0  0  0  0  0  0  0  0  0  0  0
   -8.8278   28.3375   -5.8068 C   0  0  0  0  0  0  0  0  0  0  0  0
   -7.2519   27.8783   -5.9933 C   0  0  0  0  0  0  0  0  0  0  0  0
  -12.2164   33.2262    0.2120 N   0  0  0  0  0  0  0  0  0  0  0  0
  -10.0961   33.0091    4.2495 C   0  0  0  0  0  0  0  0  0  0  0  0
  -10.9132   33.3861    3.0587 C   0  0  0  0  0  0  0  0  0  0  0  0
  -10.3281   31.0211   -3.2945 C   0  0  0  0  0  0  0  0  0  0  0  0
   -6.0389   31.4342   -2.9142 N   0  0  0  0  0  0  0  0  0  0  0  0
  -12.7794   34.0518    1.0441 C   0  0  0  0  0  0  0  0  0  0  0  0
  -10.7606   30.1087   -5.9290 O   0  0  0  0  0  0  0  0  0  0  0  0
   -9.1861   31.6316   -2.6595 N   0  0  0  0  0  0  0  0  0  0  0  0
   -7.3061   33.7026   -2.0894 C   0  0  0  0  0  0  0  0  0  0  0  0
   -9.9203   29.5275   -3.7511 C   0  0  0  0  0  0  0  0  0  0  0  0
   -9.3100   32.4287   -1.5099 C   0  0  0  0  0  0  0  0  0  0  0  0
  -12.6922   34.6093    2.2201 C   0  0  0  0  0  0  0  0  0  0  0  0
   -6.3209   30.5309   -3.9048 N   0  0  0  0  0  0  0  0  0  0  0  0
   -4.8648   28.5694   -5.0052 C   0  0  0  0  0  0  0  0  0  0  0  0
   -8.5251   26.9919   -7.8350 C   0  0  0  0  0  0  0  0  0  0  0  0
  1  5  2  0
  2 21  1  0
  2 26  1  0
  3 29  1  0
  3 33  1  0
  4 16  1  0
  4 17  1  0
  4 25  1  0
  5 23  1  0
  5 39  1  0
  6  9  2  0
  6 22  1  0
  7 24  1  0
  7 38  1  0
  8 24  1  0
  8 39  1  0
  9 18  1  0
 10 12  2  0
 10 18  1  0
 11 27  1  0
 11 36  2  0
 12 20  1  0
 13 23  1  0
 13 31  1  0
 13 34  1  0
 14 33  1  0
 14 35  1  0
 15 33  1  0
 16 35  1  0
 17 21  1  0
 17 27  1  0
 19 22  2  0
 19 37  1  0
 19 38  1  0
 20 22  1  0
 20 29  1  0
 23 24  1  0
 25 30  2  0
 26 27  1  0
 28 32  1  0
 28 34  1  0
 29 37  1  0
 30 36  1  0
 32 35  1  0
M  END
>  <ID>  (1) 
conformer_0

$$$$
