
     RDKit          3D

 28 30  0  0  0  0  0  0  0  0999 V2000
   -6.5236   27.2211   -6.7135 C   0  0  0  0  0  0  0  0  0  0  0  0
   -5.1758   27.6033   -6.4409 C   0  0  0  0  0  0  0  0  0  0  0  0
   -8.9514   27.8756   -6.4074 C   0  0  0  0  0  0  0  0  0  0  0  0
   -8.9132   32.1593   -1.3953 C   0  0  0  0  0  0  0  0  0  0  0  0
   -6.8567   26.1205   -7.4242 N   0  0  0  0  0  0  0  0  0  0  0  0
   -7.6483   35.2159   -1.3454 O   0  0  0  0  0  0  0  0  0  0  0  0
   -5.9296   29.2223   -4.6655 C   0  0  0  0  0  0  0  0  0  0  0  0
   -9.9278   34.6127    0.0137 N   0  0  0  0  0  0  0  0  0  0  0  0
   -7.6349   32.7378   -1.4098 C   0  0  0  0  0  0  0  0  0  0  0  0
   -4.4222   30.2931   -3.0226 C   0  0  0  0  0  0  0  0  0  0  0  0
   -5.2805   32.1184   -1.6577 O   0  0  0  0  0  0  0  0  0  0  0  0
   -6.8350   30.8632   -2.8824 C   0  0  0  0  0  0  0  0  0  0  0  0
   -6.5834   31.9690   -1.9936 C   0  0  0  0  0  0  0  0  0  0  0  0
   -5.7454   30.1872   -3.5948 C   0  0  0  0  0  0  0  0  0  0  0  0
   -8.1538   30.4058   -2.9222 C   0  0  0  0  0  0  0  0  0  0  0  0
   -2.9469   30.6107   -0.0521 O   0  0  0  0  0  0  0  0  0  0  0  0
   -7.5587   28.0196   -6.0574 C   0  0  0  0  0  0  0  0  0  0  0  0
  -11.8845   33.2539    0.7165 C   0  0  0  0  0  0  0  0  0  0  0  0
  -10.1312   32.5289   -0.8718 O   0  0  0  0  0  0  0  0  0  0  0  0
   -4.3947   31.2102   -1.8978 C   0  0  0  0  0  0  0  0  0  0  0  0
  -11.9051   33.4621    2.0001 O   0  0  0  0  0  0  0  0  0  0  0  0
   -7.1681   28.9900   -5.1268 N   0  0  0  0  0  0  0  0  0  0  0  0
  -12.8862   32.7697    0.1356 O   0  0  0  0  0  0  0  0  0  0  0  0
   -3.2221   31.1446   -1.2288 N   0  0  0  0  0  0  0  0  0  0  0  0
  -10.4882   33.3919   -0.0087 C   0  0  0  0  0  0  0  0  0  0  0  0
   -4.8215   28.5014   -5.3391 C   0  0  0  0  0  0  0  0  0  0  0  0
   -9.1241   30.9820   -2.2022 C   0  0  0  0  0  0  0  0  0  0  0  0
   -7.3655   34.0944   -1.0383 C   0  0  0  0  0  0  0  0  0  0  0  0
  1  2  1  0
  1  5  1  0
  1 17  1  0
  2 26  2  0
  3 17  1  0
  4  9  1  0
  4 19  1  0
  4 27  1  0
  6 28  2  0
  7 14  1  0
  7 22  2  0
  7 26  1  0
  8 25  1  0
  9 13  1  0
  9 28  1  0
 10 14  1  0
 10 20  1  0
 11 13  1  0
 11 20  1  0
 12 13  2  0
 12 14  1  0
 12 15  1  0
 15 27  2  0
 16 24  1  0
 17 22  1  0
 18 21  2  0
 18 23  1  0
 18 25  1  0
 19 25  1  0
 20 24  1  0
M  END
>  <ID>  (1) 
conformer_0

$$$$
