
     RDKit          3D

 28 30  0  0  0  0  0  0  0  0999 V2000
   -2.7758   30.3092   -1.3863 C   0  0  0  0  0  0  0  0  0  0  0  0
  -10.0588   27.8952   -7.2999 O   0  0  0  0  0  0  0  0  0  0  0  0
  -11.2854   32.1779    0.1906 C   0  0  0  0  0  0  0  0  0  0  0  0
  -12.5998   33.5154    1.8325 C   0  0  0  0  0  0  0  0  0  0  0  0
   -7.4736   28.1832   -5.8312 C   0  0  0  0  0  0  0  0  0  0  0  0
   -5.1113   31.6695   -2.0419 C   0  0  0  0  0  0  0  0  0  0  0  0
   -6.3835   28.6367   -5.0639 C   0  0  0  0  0  0  0  0  0  0  0  0
  -10.1406   28.1824   -5.9124 C   0  0  0  0  0  0  0  0  0  0  0  0
   -4.6028   30.6582   -2.8822 C   0  0  0  0  0  0  0  0  0  0  0  0
   -3.4230   29.9824   -2.5641 C   0  0  0  0  0  0  0  0  0  0  0  0
   -9.7519   32.1063    3.4826 O   0  0  0  0  0  0  0  0  0  0  0  0
  -10.5447   32.4943    2.4401 C   0  0  0  0  0  0  0  0  0  0  0  0
   -7.2943   27.0549   -6.7166 C   0  0  0  0  0  0  0  0  0  0  0  0
   -8.7444   29.5515   -4.3901 N   0  0  0  0  0  0  0  0  0  0  0  0
   -3.2636   31.3261   -0.5740 C   0  0  0  0  0  0  0  0  0  0  0  0
  -11.3283   31.7416   -1.1420 C   0  0  0  0  0  0  0  0  0  0  0  0
  -13.5951   32.6210   -0.1214 O   0  0  0  0  0  0  0  0  0  0  0  0
   -5.2723   30.3899   -4.0035 N   0  0  0  0  0  0  0  0  0  0  0  0
  -12.5010   32.8268    0.6391 C   0  0  0  0  0  0  0  0  0  0  0  0
   -8.2604   31.0604   -2.8428 C   0  0  0  0  0  0  0  0  0  0  0  0
  -11.6173   33.3003    2.7481 C   0  0  0  0  0  0  0  0  0  0  0  0
   -4.4797   31.9868   -0.9117 C   0  0  0  0  0  0  0  0  0  0  0  0
   -7.7795   30.1581   -3.8170 C   0  0  0  0  0  0  0  0  0  0  0  0
   -6.4788   29.8056   -4.2068 C   0  0  0  0  0  0  0  0  0  0  0  0
  -10.3044   32.0078    1.1304 C   0  0  0  0  0  0  0  0  0  0  0  0
   -8.7969   28.6121   -5.3582 C   0  0  0  0  0  0  0  0  0  0  0  0
  -10.6118   31.7514   -2.2096 N   0  0  0  0  0  0  0  0  0  0  0  0
   -9.5314   31.3768   -2.5817 N   0  0  0  0  0  0  0  0  0  0  0  0
  1 10  2  0
  1 15  1  0
  2  8  1  0
  3 16  1  0
  3 19  1  0
  3 25  1  0
  4 19  1  0
  4 21  2  0
  5  7  1  0
  5 13  1  0
  5 26  2  0
  6  9  2  0
  6 22  1  0
  7 24  1  0
  8 26  1  0
  9 10  1  0
  9 18  1  0
 11 12  1  0
 12 21  1  0
 12 25  2  0
 14 23  2  0
 14 26  1  0
 15 22  2  0
 16 27  1  0
 17 19  1  0
 18 24  1  0
 20 23  1  0
 20 28  1  0
 23 24  1  0
 27 28  1  0
M  END
>  <ID>  (1) 
conformer_0

$$$$
