
     RDKit          3D

 44 49  0  0  0  0  0  0  0  0999 V2000
   -7.4886   30.0445   -3.9727 C   0  0  0  0  0  0  0  0  0  0  0  0
   -6.0599   29.8242   -3.9133 C   0  0  0  0  0  0  0  0  0  0  0  0
   -4.1336   30.4664   -2.6650 C   0  0  0  0  0  0  0  0  0  0  0  0
  -10.1075   30.9824   -3.9623 C   0  0  0  0  0  0  0  0  0  0  0  0
   -9.2734   26.8095   -8.8508 C   0  0  0  0  0  0  0  0  0  0  0  0
   -9.3043   28.0615   -6.5129 C   0  0  0  0  0  0  0  0  0  0  0  0
   -0.9872   29.0516   -3.7459 C   0  0  0  0  0  0  0  0  0  0  0  0
  -11.7160   32.5249    0.1383 C   0  0  0  0  0  0  0  0  0  0  0  0
   -9.4879   27.1455   -7.5459 N   0  0  0  0  0  0  0  0  0  0  0  0
   -8.9205   34.1621    4.5338 C   0  0  0  0  0  0  0  0  0  0  0  0
   -9.6895   36.4307    2.0776 O   0  0  0  0  0  0  0  0  0  0  0  0
  -10.4104   32.3874    3.6839 C   0  0  0  0  0  0  0  0  0  0  0  0
   -3.8714   28.9891   -4.5287 C   0  0  0  0  0  0  0  0  0  0  0  0
  -10.5029   30.1678   -5.2431 C   0  0  0  0  0  0  0  0  0  0  0  0
  -11.6645   28.4592   -6.5903 O   0  0  0  0  0  0  0  0  0  0  0  0
  -11.2124   32.1454    1.4380 N   0  0  0  0  0  0  0  0  0  0  0  0
   -9.7417   32.1540   -1.7607 C   0  0  0  0  0  0  0  0  0  0  0  0
  -11.6936   30.8906   -5.7663 N   0  0  0  0  0  0  0  0  0  0  0  0
   -8.8872   35.3154    3.8401 N   0  0  0  0  0  0  0  0  0  0  0  0
   -7.0197   27.4076   -6.6195 C   0  0  0  0  0  0  0  0  0  0  0  0
  -10.7483   34.3758    2.5504 C   0  0  0  0  0  0  0  0  0  0  0  0
  -10.4777   28.7700   -5.9152 C   0  0  0  0  0  0  0  0  0  0  0  0
  -11.0498   31.9109   -1.1286 C   0  0  0  0  0  0  0  0  0  0  0  0
  -10.3836   31.1184    3.8067 N   0  0  0  0  0  0  0  0  0  0  0  0
  -11.0264   33.0670    2.4538 C   0  0  0  0  0  0  0  0  0  0  0  0
   -8.2063   29.2312   -4.7614 O   0  0  0  0  0  0  0  0  0  0  0  0
   -6.9084   27.4992   -8.1967 C   0  0  0  0  0  0  0  0  0  0  0  0
  -13.0474   32.1300   -0.1264 O   0  0  0  0  0  0  0  0  0  0  0  0
   -1.9635   29.9207   -3.2643 O   0  0  0  0  0  0  0  0  0  0  0  0
  -11.6743   34.0939    0.0828 C   0  0  0  0  0  0  0  0  0  0  0  0
   -7.8520   26.7912   -9.3155 C   0  0  0  0  0  0  0  0  0  0  0  0
   -6.6090   31.2672   -2.1434 C   0  0  0  0  0  0  0  0  0  0  0  0
   -9.7943   35.4499    2.7598 C   0  0  0  0  0  0  0  0  0  0  0  0
   -5.2359   29.0642   -4.6945 C   0  0  0  0  0  0  0  0  0  0  0  0
   -9.1861   31.3203   -2.8390 C   0  0  0  0  0  0  0  0  0  0  0  0
  -12.0212   34.0728    2.5879 C   0  0  0  0  0  0  0  0  0  0  0  0
   -5.5221   30.5356   -2.8639 C   0  0  0  0  0  0  0  0  0  0  0  0
   -3.2896   29.7647   -3.4988 C   0  0  0  0  0  0  0  0  0  0  0  0
  -10.2239   26.4770   -9.6606 O   0  0  0  0  0  0  0  0  0  0  0  0
   -9.5940   33.0732    4.5280 N   0  0  0  0  0  0  0  0  0  0  0  0
   -7.9993   28.3766   -5.8678 N   0  0  0  0  0  0  0  0  0  0  0  0
  -12.6521   34.4888    1.1722 C   0  0  0  0  0  0  0  0  0  0  0  0
   -3.5353   31.1551   -1.5718 C   0  0  0  0  0  0  0  0  0  0  0  0
   -7.8491   30.9398   -2.8938 C   0  0  0  0  0  0  0  0  0  0  0  0
  1  2  2  0
  1 26  1  0
  1 44  1  0
  2 34  1  0
  2 37  1  0
  3 37  1  0
  3 38  2  0
  3 43  1  0
  4 14  1  0
  4 35  1  0
  5  9  1  0
  5 31  1  0
  5 39  2  0
  6  9  2  0
  6 22  1  0
  6 41  1  0
  7 29  1  0
  8 16  1  0
  8 23  1  0
  8 28  1  0
  8 30  1  0
 10 19  2  0
 10 40  1  0
 11 33  2  0
 12 24  2  0
 12 25  1  0
 12 40  1  0
 13 34  2  0
 13 38  1  0
 14 18  1  0
 14 22  1  0
 15 22  1  0
 16 25  1  0
 17 23  2  3
 17 35  1  0
 19 33  1  0
 20 27  1  0
 20 41  1  0
 21 25  1  0
 21 33  1  0
 21 36  1  0
 26 41  1  0
 27 31  1  0
 29 38  1  0
 30 42  1  0
 32 37  1  0
 32 44  1  0
 35 44  2  0
 36 42  1  0
M  END
>  <ID>  (1) 
conformer_0

$$$$
