
     RDKit          3D

 44 46  0  0  0  0  0  0  0  0999 V2000
  -10.3501   29.3466   -5.5142 C   0  0  0  0  0  0  0  0  0  0  0  0
  -10.8043   31.5625   -3.6821 C   0  0  0  0  0  0  0  0  0  0  0  0
   -9.6062   31.3457   -3.1016 C   0  0  0  0  0  0  0  0  0  0  0  0
   -6.2295   27.4842   -7.3619 C   0  0  0  0  0  0  0  0  0  0  0  0
   -7.9230   26.1826   -8.4359 C   0  0  0  0  0  0  0  0  0  0  0  0
   -9.9964   31.3495    4.2468 N   0  0  0  0  0  0  0  0  0  0  0  0
   -4.1737   29.6346   -3.6906 C   0  0  0  0  0  0  0  0  0  0  0  0
   -8.9475   30.1247   -3.3998 O   0  0  0  0  0  0  0  0  0  0  0  0
   -7.5463   26.6584   -7.1133 C   0  0  0  0  0  0  0  0  0  0  0  0
   -7.1251   33.6880   -1.7750 C   0  0  0  0  0  0  0  0  0  0  0  0
  -11.0068   33.2883   -0.3123 C   0  0  0  0  0  0  0  0  0  0  0  0
  -10.9798   30.3142   -6.1633 N   0  0  0  0  0  0  0  0  0  0  0  0
   -8.2685   26.7512  -10.6520 C   0  0  0  0  0  0  0  0  0  0  0  0
   -4.4711   31.9983   -2.0325 O   0  0  0  0  0  0  0  0  0  0  0  0
   -7.2193   25.6174  -10.9527 C   0  0  0  0  0  0  0  0  0  0  0  0
   -9.1208   29.5333   -4.6757 C   0  0  0  0  0  0  0  0  0  0  0  0
   -8.3691   33.1880   -1.5362 C   0  0  0  0  0  0  0  0  0  0  0  0
   -9.9673   32.1617    3.1311 C   0  0  0  0  0  0  0  0  0  0  0  0
   -7.6587   27.3692   -9.3936 C   0  0  0  0  0  0  0  0  0  0  0  0
   -5.8557   26.1702  -10.5242 C   0  0  0  0  0  0  0  0  0  0  0  0
  -12.1553   33.0803    0.4659 C   0  0  0  0  0  0  0  0  0  0  0  0
   -8.1088   28.4716   -5.0292 C   0  0  0  0  0  0  0  0  0  0  0  0
   -3.4311   31.6069   -0.0581 O   0  0  0  0  0  0  0  0  0  0  0  0
   -1.8475   29.9633   -1.0042 N   0  0  0  0  0  0  0  0  0  0  0  0
  -13.4104   32.8739    0.0913 O   0  0  0  0  0  0  0  0  0  0  0  0
   -1.8680   29.0631   -3.5962 C   0  0  0  0  0  0  0  0  0  0  0  0
   -5.4617   27.3638   -6.1883 C   0  0  0  0  0  0  0  0  0  0  0  0
  -10.8393   32.7180    2.3863 C   0  0  0  0  0  0  0  0  0  0  0  0
   -2.7639   30.3510   -1.7429 C   0  0  0  0  0  0  0  0  0  0  0  0
   -9.7883   33.5175   -0.0377 C   0  0  0  0  0  0  0  0  0  0  0  0
   -8.0353   35.1423   -0.0215 C   0  0  0  0  0  0  0  0  0  0  0  0
   -3.2224   28.2622   -5.4040 C   0  0  0  0  0  0  0  0  0  0  0  0
   -2.9512   29.7129   -3.0170 C   0  0  0  0  0  0  0  0  0  0  0  0
   -4.3388   28.8715   -4.7874 C   0  0  0  0  0  0  0  0  0  0  0  0
   -5.6393   28.5633   -5.3556 C   0  0  0  0  0  0  0  0  0  0  0  0
   -6.8867   34.9199   -0.8756 C   0  0  0  0  0  0  0  0  0  0  0  0
  -11.8538   33.0136    1.8985 C   0  0  0  0  0  0  0  0  0  0  0  0
  -10.4386   28.0367   -6.1900 C   0  0  0  0  0  0  0  0  0  0  0  0
   -6.8045   28.8268   -4.6857 O   0  0  0  0  0  0  0  0  0  0  0  0
   -2.0030   28.3736   -4.8175 C   0  0  0  0  0  0  0  0  0  0  0  0
   -8.7254   33.9610   -0.3413 C   0  0  0  0  0  0  0  0  0  0  0  0
   -6.1558   27.5139   -9.8580 C   0  0  0  0  0  0  0  0  0  0  0  0
   -3.6602   31.3676   -1.2606 C   0  0  0  0  0  0  0  0  0  0  0  0
   -9.1412   32.2899   -2.2221 C   0  0  0  0  0  0  0  0  0  0  0  0
  1 12  2  0
  1 16  1  0
  1 38  1  0
  2  3  1  0
  3  8  1  0
  3 44  2  0
  4  9  1  0
  4 27  1  0
  5  9  1  0
  5 19  1  0
  6 18  1  0
  7 33  2  0
  7 34  1  0
  8 16  1  0
 10 17  1  0
 10 36  1  0
 11 21  2  3
 11 30  1  0
 13 15  1  0
 13 19  1  0
 14 43  2  0
 15 20  1  0
 16 22  1  0
 17 41  1  0
 17 44  2  0
 18 28  2  0
 19 42  1  0
 20 42  1  0
 21 25  1  0
 21 37  1  0
 22 39  1  0
 23 43  1  0
 24 29  2  0
 26 33  1  0
 26 40  2  0
 27 35  1  0
 28 37  2  0
 29 33  1  0
 29 43  1  0
 30 41  1  0
 31 36  1  0
 31 41  1  0
 32 34  2  0
 32 40  1  0
 34 35  1  0
 35 39  1  0
M  END
>  <ID>  (1) 
conformer_0

$$$$
