
     RDKit          3D

 52 55  0  0  0  0  0  0  0  0999 V2000
  -10.0737   28.5195   -6.3604 C   0  0  0  0  0  0  0  0  0  0  0  0
  -13.9693   33.1682    1.8955 O   0  0  0  0  0  1  0  0  0  0  0  0
   -2.6421   29.2552   -4.8608 C   0  0  0  0  0  0  0  0  0  0  0  0
   -8.9450   31.4833   -2.8333 N   0  0  0  0  0  0  0  0  0  0  0  0
   -7.4498   28.6173   -4.9615 C   0  0  0  0  0  0  0  0  0  0  0  0
    0.2894   29.6194   -4.9235 C   0  0  0  0  0  0  0  0  0  0  0  0
  -11.0119   27.6914   -7.0475 O   0  0  0  0  0  0  0  0  0  0  0  0
   -4.6545   28.0091   -5.3641 C   0  0  0  0  0  0  0  0  0  0  0  0
   -4.0393   29.1528   -4.7512 N   0  0  0  0  0  0  0  0  0  0  0  0
   -4.0405   26.9937   -5.5764 O   0  0  0  0  0  0  0  0  0  0  0  0
   -3.0702   29.9792   -0.3797 N   0  0  0  0  0  0  0  0  0  0  0  0
   -9.7072   32.0477    1.0704 C   0  0  0  0  0  0  0  0  0  0  0  0
   -7.8891   27.5927   -7.0415 C   0  0  0  0  0  0  0  0  0  0  0  0
   -9.8858   31.8920   -1.9089 C   0  0  0  0  0  0  0  0  0  0  0  0
  -11.8290   33.1087    1.0222 C   0  0  0  0  0  0  0  0  0  0  0  0
   -7.5552   31.9387   -2.8115 C   0  0  0  0  0  0  0  0  0  0  0  0
    0.3295   31.0175   -5.2302 F   0  0  0  0  0  0  0  0  0  0  0  0
  -11.6637   30.3527   -6.6510 O   0  0  0  0  0  0  0  0  0  0  0  0
   -7.5096   33.0841   -1.7184 C   0  0  0  0  0  0  0  0  0  0  0  0
  -11.3137   31.5692   -4.3034 O   0  0  0  0  0  0  0  0  0  0  0  0
  -11.6145   32.9705   -0.3608 C   0  0  0  0  0  0  0  0  0  0  0  0
  -10.8185   32.4290    3.1356 C   0  0  0  0  0  0  0  0  0  0  0  0
  -12.7882   34.8781    2.2630 O   0  0  0  0  0  1  0  0  0  0  0  0
   -6.1165   33.6579   -1.6346 C   0  0  0  0  0  0  0  0  0  0  0  0
   -4.3378   31.5192   -1.5767 C   0  0  0  0  0  0  0  0  0  0  0  0
   -5.0154   30.0897   -4.5071 O   0  0  0  0  0  0  0  0  0  0  0  0
   -2.5945   30.2221   -2.6073 C   0  0  0  0  0  0  0  0  0  0  0  0
   -0.4827   29.3555   -3.7001 C   0  0  0  0  0  0  0  0  0  0  0  0
   -4.1134   30.8531   -0.3846 C   0  0  0  0  0  0  0  0  0  0  0  0
    0.5013   28.6198   -5.9258 C   0  0  0  0  0  0  0  0  0  0  0  0
   -1.8499   29.8386   -3.7911 C   0  0  0  0  0  0  0  0  0  0  0  0
   -9.1185   30.4590   -3.8856 C   0  0  0  0  0  0  0  0  0  0  0  0
   -1.9869   28.6877   -6.0083 C   0  0  0  0  0  0  0  0  0  0  0  0
  -10.7574   32.5460    1.7790 C   0  0  0  0  0  0  0  0  0  0  0  0
   -2.3346   29.6137   -1.4132 C   0  0  0  0  0  0  0  0  0  0  0  0
  -10.7692   29.7076   -5.7761 C   0  0  0  0  0  0  0  0  0  0  0  0
   -3.6135   31.1526   -2.6351 C   0  0  0  0  0  0  0  0  0  0  0  0
   -6.1766   27.9866   -5.5114 C   0  0  0  0  0  0  0  0  0  0  0  0
  -10.4418   32.3090   -0.6447 C   0  0  0  0  0  0  0  0  0  0  0  0
   -8.9329   32.5349    4.5204 N   0  0  0  0  0  0  0  0  0  0  0  0
   -8.5803   28.3715   -5.9300 C   0  0  0  0  0  0  0  0  0  0  0  0
   -4.8850   31.0814    0.6843 O   0  0  0  0  0  0  0  0  0  0  0  0
  -10.4014   30.5358   -4.5818 C   0  0  0  0  0  0  0  0  0  0  0  0
   -8.5518   26.3801   -8.9560 O   0  0  0  0  0  0  0  0  0  0  0  0
   -6.6273   27.1583   -6.5641 O   0  0  0  0  0  0  0  0  0  0  0  0
   -8.7971   31.5582    2.0539 F   0  0  0  0  0  0  0  0  0  0  0  0
   -0.7744   27.8982   -6.2499 C   0  0  0  0  0  0  0  0  0  0  0  0
   -7.9806   29.4659   -3.8086 C   0  0  0  0  0  0  0  0  0  0  0  0
   -9.5111   31.9089    3.4519 C   0  0  0  0  0  0  0  0  0  0  0  0
   -8.8406   26.6910   -7.7316 C   0  0  0  0  0  0  0  0  0  0  0  0
   -6.5652   35.2062   -1.6671 C   0  0  0  0  0  0  0  0  0  0  0  0
  -12.8905   33.7136    1.6851 N   0  0  0  0  0  0  0  0  0  0  0  0
  1  7  1  0
  1 36  1  0
  1 41  1  0
  2 52  1  0
  3  9  1  0
  3 31  1  0
  3 33  1  0
  4 14  1  0
  4 16  1  0
  4 32  1  0
  5 38  2  0
  5 41  1  0
  5 48  1  0
  6 17  1  0
  6 28  1  0
  6 30  1  0
  8  9  1  0
  8 10  2  0
  8 38  1  0
  9 26  1  0
 11 29  1  0
 11 35  2  0
 12 34  1  0
 12 46  1  0
 13 41  1  0
 13 45  1  0
 13 50  1  0
 14 39  1  0
 15 21  1  0
 15 34  2  3
 15 52  1  0
 16 19  1  0
 18 36  1  0
 19 24  1  0
 20 43  1  0
 21 39  1  0
 22 34  1  0
 22 49  1  0
 23 52  1  0
 24 51  1  0
 25 29  1  0
 25 37  2  0
 27 31  1  0
 27 35  1  0
 27 37  1  0
 28 31  1  0
 29 42  2  0
 30 47  1  0
 32 43  1  0
 32 48  1  0
 33 47  1  0
 36 43  1  0
 38 45  1  0
 40 49  1  0
 44 50  1  0
M  END
>  <ID>  (1) 
conformer_0

$$$$
