
     RDKit          3D

 39 45  0  0  0  0  0  0  0  0999 V2000
   -3.6625   30.2713   -2.2849 C   0  0  0  0  0  0  0  0  0  0  0  0
   -5.3072   28.7087   -5.1351 C   0  0  0  0  0  0  0  0  0  0  0  0
  -10.6419   34.6761    2.5120 C   0  0  0  0  0  0  0  0  0  0  0  0
   -4.5841   32.1682   -0.4037 C   0  0  0  0  0  0  0  0  0  0  0  0
   -3.4151   31.3973   -0.1864 C   0  0  0  0  0  0  0  0  0  0  0  0
   -3.5550   29.4923   -3.4831 C   0  0  0  0  0  0  0  0  0  0  0  0
  -10.3399   33.6311    3.3688 C   0  0  0  0  0  0  0  0  0  0  0  0
  -10.3971   32.1080   -1.3357 C   0  0  0  0  0  0  0  0  0  0  0  0
   -4.3258   27.2893   -6.9013 C   0  0  0  0  0  0  0  0  0  0  0  0
  -10.1738   30.2184   -4.7193 C   0  0  0  0  0  0  0  0  0  0  0  0
   -5.5935   27.0518   -7.3080 C   0  0  0  0  0  0  0  0  0  0  0  0
   -9.1831   27.0348   -7.0917 O   0  0  0  0  0  0  0  0  0  0  0  0
   -2.7729   31.4360    0.9537 O   0  0  0  0  0  0  0  0  0  0  0  0
  -10.5848   32.3477    3.0132 C   0  0  0  0  0  0  0  0  0  0  0  0
  -11.1741   34.3744    1.2749 C   0  0  0  0  0  0  0  0  0  0  0  0
   -2.5651   28.9065   -4.1596 N   0  0  0  0  0  0  0  0  0  0  0  0
   -6.9165   30.5155   -3.4599 C   0  0  0  0  0  0  0  0  0  0  0  0
   -4.2237   28.0873   -5.7860 C   0  0  0  0  0  0  0  0  0  0  0  0
   -2.9217   28.2126   -5.2922 N   0  0  0  0  0  0  0  0  0  0  0  0
   -8.3105   28.7995   -5.5515 C   0  0  0  0  0  0  0  0  0  0  0  0
  -10.6584   28.5471   -6.2537 N   0  0  0  0  0  0  0  0  0  0  0  0
   -9.9966   31.6677   -2.6094 C   0  0  0  0  0  0  0  0  0  0  0  0
   -4.9365   30.9100   -2.3126 C   0  0  0  0  0  0  0  0  0  0  0  0
   -6.6705   27.5702   -6.6924 C   0  0  0  0  0  0  0  0  0  0  0  0
   -6.7554   28.4927   -5.6337 C   0  0  0  0  0  0  0  0  0  0  0  0
  -11.0597   32.0262    1.7813 C   0  0  0  0  0  0  0  0  0  0  0  0
   -2.9234   30.5150   -1.1911 C   0  0  0  0  0  0  0  0  0  0  0  0
   -5.6646   30.3145   -3.3320 C   0  0  0  0  0  0  0  0  0  0  0  0
  -11.5789   27.7246   -6.8401 F   0  0  0  0  0  0  0  0  0  0  0  0
  -10.5324   31.1868   -3.7616 C   0  0  0  0  0  0  0  0  0  0  0  0
   -4.8552   29.4233   -4.0856 C   0  0  0  0  0  0  0  0  0  0  0  0
   -9.3289   28.0927   -6.3386 C   0  0  0  0  0  0  0  0  0  0  0  0
   -8.8484   29.7861   -4.7243 C   0  0  0  0  0  0  0  0  0  0  0  0
  -11.2379   33.0522    0.8660 C   0  0  0  0  0  0  0  0  0  0  0  0
  -12.8911   32.6895   -0.4154 O   0  0  0  0  0  0  0  0  0  0  0  0
  -11.0543   29.6283   -5.5842 C   0  0  0  0  0  0  0  0  0  0  0  0
   -5.3553   31.8745   -1.5134 C   0  0  0  0  0  0  0  0  0  0  0  0
  -11.4210   32.6948   -0.5279 N   0  0  0  0  0  0  0  0  0  0  0  0
   -7.9965   30.3908   -3.8292 C   0  0  0  0  0  0  0  0  0  0  0  0
  1  6  1  0
  1 23  1  0
  1 27  1  0
  2 18  1  0
  2 25  1  0
  2 31  2  0
  3  7  2  0
  3 15  1  0
  4  5  1  0
  4 37  1  0
  5 13  1  0
  5 27  2  0
  6 16  2  0
  6 31  1  0
  7 14  1  0
  8 22  1  0
  8 38  1  0
  9 11  1  0
  9 18  1  0
 10 30  1  0
 10 33  1  0
 10 36  2  0
 11 24  2  0
 12 32  2  0
 14 26  2  0
 15 34  2  0
 16 19  1  0
 17 28  2  0
 17 39  2  0
 18 19  2  0
 20 25  1  0
 20 32  1  0
 20 33  2  0
 21 29  1  0
 21 32  1  0
 21 36  1  0
 22 30  1  0
 23 28  1  0
 23 37  2  0
 24 25  1  0
 26 34  1  0
 28 31  1  0
 33 39  1  0
 34 38  1  0
 35 38  1  0
M  END
>  <ID>  (1) 
conformer_0

$$$$
