
     RDKit          3D

 30 33  0  0  0  0  0  0  0  0999 V2000
   -4.1864   30.0268   -4.3424 C   0  0  0  0  0  0  0  0  0  0  0  0
   -9.5232   29.6376   -3.8732 N   0  0  0  0  0  0  0  0  0  0  0  0
  -10.8912   32.5071    2.7330 C   0  0  0  0  0  0  0  0  0  0  0  0
   -9.8546   31.8496    3.5897 C   0  0  0  0  0  0  0  0  0  0  0  0
   -9.7758   32.4000   -1.4911 C   0  0  0  0  0  0  0  0  0  0  0  0
   -6.9410   35.1561   -1.5990 F   0  0  0  0  0  0  0  0  0  0  0  0
  -10.1959   31.3341   -2.2874 C   0  0  0  0  0  0  0  0  0  0  0  0
   -1.9298   28.5184   -2.8609 C   0  0  0  0  0  0  0  0  0  0  0  0
   -8.4979   32.9453   -1.6527 C   0  0  0  0  0  0  0  0  0  0  0  0
  -11.2414   31.9079    1.5307 O   0  0  0  0  0  0  0  0  0  0  0  0
   -7.9909   27.6243   -6.5672 C   0  0  0  0  0  0  0  0  0  0  0  0
  -11.1194   33.9875    2.7216 C   0  0  0  0  0  0  0  0  0  0  0  0
   -2.5620   30.0813   -1.1254 N   0  0  0  0  0  0  0  0  0  0  0  0
   -9.2872   30.7547   -3.1101 C   0  0  0  0  0  0  0  0  0  0  0  0
  -11.5981   32.9054    0.4820 C   0  0  0  0  0  0  0  0  0  0  0  0
   -5.1607   32.2591   -2.5186 C   0  0  0  0  0  0  0  0  0  0  0  0
   -7.2315   30.1310   -3.8355 O   0  0  0  0  0  0  0  0  0  0  0  0
   -5.9286   34.3024   -2.1451 C   0  0  0  0  0  0  0  0  0  0  0  0
   -6.2970   33.0452   -3.0702 C   0  0  0  0  0  0  0  0  0  0  0  0
   -3.7353   30.2775   -2.9590 C   0  0  0  0  0  0  0  0  0  0  0  0
   -7.6288   32.4537   -2.6515 C   0  0  0  0  0  0  0  0  0  0  0  0
   -8.0088   31.2047   -3.2415 C   0  0  0  0  0  0  0  0  0  0  0  0
   -8.9996   28.3642   -5.8003 C   0  0  0  0  0  0  0  0  0  0  0  0
   -8.2472   29.1261   -4.5117 C   0  0  0  0  0  0  0  0  0  0  0  0
  -10.6546   32.8805   -0.6109 O   0  0  0  0  0  0  0  0  0  0  0  0
  -11.5193   34.2755    1.2416 C   0  0  0  0  0  0  0  0  0  0  0  0
   -2.7124   29.5924   -2.3081 N   0  0  0  0  0  0  0  0  0  0  0  0
   -3.5326   31.0955   -0.9539 C   0  0  0  0  0  0  0  0  0  0  0  0
  -12.8694   32.7190    0.1034 O   0  0  0  0  0  0  0  0  0  0  0  0
   -4.2538   31.2695   -2.1379 C   0  0  0  0  0  0  0  0  0  0  0  0
  1 20  1  0
  2 14  1  0
  2 24  1  0
  3  4  1  0
  3 10  1  0
  3 12  1  0
  5  7  1  0
  5  9  2  0
  5 25  1  0
  6 18  1  0
  7 14  2  0
  8 27  1  0
  9 21  1  0
 10 15  1  0
 11 23  1  0
 12 26  1  0
 13 27  1  0
 13 28  1  0
 14 22  1  0
 15 25  1  0
 15 26  1  0
 15 29  1  0
 16 19  1  0
 16 30  1  0
 17 22  1  0
 17 24  1  0
 18 19  1  0
 19 21  1  0
 20 27  1  0
 20 30  2  0
 21 22  1  0
 23 24  1  0
 28 30  1  0
M  END
>  <ID>  (1) 
conformer_0

$$$$
