
     RDKit          3D

 28 29  0  0  0  0  0  0  0  0999 V2000
  -10.3138   28.8560   -5.8928 C   0  0  0  0  0  0  0  0  0  0  0  0
   -9.8297   34.4840   -0.2537 O   0  0  0  0  0  0  0  0  0  0  0  0
  -11.0053   34.4361    0.4412 C   0  0  0  0  0  0  0  0  0  0  0  0
   -2.8161   30.0405   -2.2847 C   0  0  0  0  0  0  0  0  0  0  0  0
   -8.3364   32.7943   -1.4010 C   0  0  0  0  0  0  0  0  0  0  0  0
   -3.3429   28.9516   -4.9417 C   0  0  0  0  0  0  0  0  0  0  0  0
   -2.8172   30.5903   -1.1187 N   0  0  0  0  0  0  0  0  0  0  0  0
   -9.4396   33.1212   -0.4300 C   0  0  0  0  0  0  0  0  0  0  0  0
  -10.3790   32.1910   -0.1201 C   0  0  0  0  0  0  0  0  0  0  0  0
   -8.8447   28.7954   -5.3890 C   0  0  0  0  0  0  0  0  0  0  0  0
   -8.3409   31.7914   -2.3888 C   0  0  0  0  0  0  0  0  0  0  0  0
  -12.7704   32.7843    0.1424 O   0  0  0  0  0  0  0  0  0  0  0  0
   -8.9626   27.5798   -7.0620 C   0  0  0  0  0  0  0  0  0  0  0  0
   -8.6716   29.9181   -4.2540 C   0  0  0  0  0  0  0  0  0  0  0  0
   -3.9391   31.3588   -1.0233 N   0  0  0  0  0  0  0  0  0  0  0  0
  -11.5373   32.4482    2.0318 C   0  0  0  0  0  0  0  0  0  0  0  0
   -1.8062   29.2611   -2.7308 N   0  0  0  0  0  0  0  0  0  0  0  0
   -4.0046   30.3787   -2.9858 C   0  0  0  0  0  0  0  0  0  0  0  0
   -1.1222   28.7505   -3.7882 C   0  0  0  0  0  0  0  0  0  0  0  0
   -7.0929   31.6905   -2.9591 N   0  0  0  0  0  0  0  0  0  0  0  0
   -4.2003   29.8231   -4.2631 C   0  0  0  0  0  0  0  0  0  0  0  0
   -5.9662   31.8727   -2.2556 C   0  0  0  0  0  0  0  0  0  0  0  0
  -11.4630   32.9717    0.6050 N   0  0  0  0  0  0  0  0  0  0  0  0
   -4.7486   31.2233   -2.1656 C   0  0  0  0  0  0  0  0  0  0  0  0
  -10.3352   28.0495   -7.0885 O   0  0  0  0  0  0  0  0  0  0  0  0
   -7.3561   34.1492   -1.5921 C   0  0  0  0  0  0  0  0  0  0  0  0
   -9.3421   30.8698   -3.0689 C   0  0  0  0  0  0  0  0  0  0  0  0
   -1.9991   28.5541   -4.9469 C   0  0  0  0  0  0  0  0  0  0  0  0
  1 10  1  0
  1 25  1  0
  2  3  1  0
  2  8  1  0
  4  7  1  0
  4 17  1  0
  4 18  2  0
  5  8  1  0
  5 11  1  0
  5 26  1  0
  6 21  1  0
  6 28  1  0
  7 15  1  0
  8  9  1  0
  9 23  1  0
 10 14  1  0
 11 20  1  0
 11 27  1  0
 12 23  1  0
 13 25  1  0
 14 27  1  0
 15 24  1  0
 16 23  1  0
 17 19  1  0
 18 21  1  0
 18 24  1  0
 19 28  1  0
 20 22  1  0
 22 24  1  0
M  END
>  <ID>  (1) 
conformer_0

$$$$
