
     RDKit          3D

 29 30  0  0  0  0  0  0  0  0999 V2000
  -12.2964   34.1096    1.6683 C   0  0  0  0  0  0  0  0  0  0  0  0
   -6.7551   28.3289   -5.0153 C   0  0  0  0  0  0  0  0  0  0  0  0
   -5.9245   34.2226   -1.9458 C   0  0  0  0  0  0  0  0  0  0  0  0
   -5.7895   32.0516   -3.5239 O   0  0  0  0  0  0  0  0  0  0  0  0
   -3.2734   31.1468   -0.8954 C   0  0  0  0  0  0  0  0  0  0  0  0
   -4.4131   31.7340   -1.5301 C   0  0  0  0  0  0  0  0  0  0  0  0
  -11.6148   33.5169    2.6734 N   0  0  0  0  0  0  0  0  0  0  0  0
  -12.2556   33.7158    0.4189 N   0  0  0  0  0  0  0  0  0  0  0  0
   -8.1900   28.4385   -5.3321 C   0  0  0  0  0  0  0  0  0  0  0  0
  -10.0730   30.7793   -2.6159 N   0  0  0  0  0  0  0  0  0  0  0  0
   -2.1096   28.6879   -3.2892 C   0  0  0  0  0  0  0  0  0  0  0  0
   -4.1449   30.1754   -3.2456 C   0  0  0  0  0  0  0  0  0  0  0  0
  -10.4477   31.1939   -3.9631 C   0  0  0  0  0  0  0  0  0  0  0  0
   -4.8387   31.3224   -2.7626 C   0  0  0  0  0  0  0  0  0  0  0  0
  -11.3567   32.1527   -1.1727 C   0  0  0  0  0  0  0  0  0  0  0  0
   -9.9739   30.1138   -4.9409 C   0  0  0  0  0  0  0  0  0  0  0  0
  -10.8438   32.4512    2.3813 C   0  0  0  0  0  0  0  0  0  0  0  0
  -10.1127   31.7094    3.4390 C   0  0  0  0  0  0  0  0  0  0  0  0
  -10.0050   31.6738   -1.5801 C   0  0  0  0  0  0  0  0  0  0  0  0
   -2.9430   29.6784   -2.6442 C   0  0  0  0  0  0  0  0  0  0  0  0
   -8.9844   29.1441   -4.2294 C   0  0  0  0  0  0  0  0  0  0  0  0
  -11.4129   32.6414    0.1376 C   0  0  0  0  0  0  0  0  0  0  0  0
  -10.7065   32.0376    1.0950 C   0  0  0  0  0  0  0  0  0  0  0  0
   -2.5501   30.1530   -1.4410 N   0  0  0  0  0  0  0  0  0  0  0  0
   -4.6485   29.4839   -4.4023 C   0  0  0  0  0  0  0  0  0  0  0  0
   -6.0298   27.5184   -5.9586 C   0  0  0  0  0  0  0  0  0  0  0  0
   -8.9442   31.9548   -1.1413 O   0  0  0  0  0  0  0  0  0  0  0  0
   -6.6397   33.2430   -3.0567 C   0  0  0  0  0  0  0  0  0  0  0  0
   -6.1479   29.4211   -4.4442 C   0  0  0  0  0  0  0  0  0  0  0  0
  1  7  2  0
  1  8  1  0
  2  9  1  0
  2 26  1  0
  2 29  1  0
  3 28  1  0
  4 14  1  0
  4 28  1  0
  5  6  2  0
  5 24  1  0
  6 14  1  0
  7 17  1  0
  8 22  2  0
  9 21  1  0
 10 13  1  0
 10 19  1  0
 11 20  1  0
 12 14  2  0
 12 20  1  0
 12 25  1  0
 13 16  1  0
 15 19  1  0
 15 22  1  0
 16 21  1  0
 17 18  1  0
 17 23  2  0
 19 27  2  0
 20 24  2  0
 22 23  1  0
 25 29  1  0
M  END
>  <ID>  (1) 
conformer_0

$$$$
