
     RDKit          3D

 24 27  0  0  0  0  0  0  0  0999 V2000
   33.8741   23.8967    4.3777 C   0  0  0  0  0  0  0  0  0  0  0  0
   32.3745   23.7987    3.5448 C   0  0  0  0  0  0  0  0  0  0  0  0
   35.1930   24.5032    6.4474 C   0  0  0  0  0  0  0  0  0  0  0  0
   35.3844   23.8166    5.5347 C   0  0  0  0  0  0  0  0  0  0  0  0
   29.4020   24.2016    2.0058 C   0  0  0  0  0  0  0  0  0  0  0  0
   32.6845   22.1023    5.2410 C   0  0  0  0  0  0  0  0  0  0  0  0
   30.7053   24.9713    2.1147 C   0  0  0  0  0  0  0  0  0  0  0  0
   32.1079   24.8404    1.4926 C   0  0  0  0  0  0  0  0  0  0  0  0
   30.8339   22.3553    4.2968 C   0  0  0  0  0  0  0  0  0  0  0  0
   34.1447   24.0352    7.5850 C   0  0  0  0  0  0  0  0  0  0  0  0
   32.4134   25.6770    2.8625 C   0  0  0  0  0  0  0  0  0  0  0  0
   29.8109   22.3881    5.3062 O   0  0  0  0  0  0  0  0  0  0  0  0
   33.9418   24.5979    8.4325 O   0  0  0  0  0  0  0  0  0  0  0  0
   30.5861   26.1107    0.5424 C   0  0  0  0  0  0  0  0  0  0  0  0
   32.2766   26.6644    3.4200 O   0  0  0  0  0  0  0  0  0  0  0  0
   26.4949   28.8250    0.4091 C   0  0  0  0  0  0  0  0  0  0  0  0
   25.6288   28.3258    1.0347 O   0  0  0  0  0  0  0  0  0  0  0  0
   26.1563   29.6495   -0.4102 O   0  0  0  0  0  0  0  0  0  0  0  0
   33.5028   22.5310    6.7758 C   0  0  0  0  0  0  0  0  0  0  0  0
   28.9866   27.4609   -0.0417 C   0  0  0  0  0  0  0  0  0  0  0  0
   28.0263   28.3525    0.2870 C   0  0  0  0  0  0  0  0  0  0  0  0
   34.2768   22.4225    5.2501 C   0  0  0  0  0  0  0  0  0  0  0  0
   30.6099   23.4892    3.0432 C   0  0  0  0  0  0  0  0  0  0  0  0
   29.1021   26.0948    1.0731 C   0  0  0  0  0  0  0  0  0  0  0  0
  2  1  1  0
  4  1  1  0
  4  3  1  0
  7  5  1  0
  8  7  1  0
 10  3  2  0
 11  8  1  0
 12  9  1  0
 13 10  1  0
 14  7  1  0
 15 11  1  0
 17 16  2  0
 18 16  1  0
 19  6  1  0
 19 10  1  0
 21 16  1  0
 21 20  1  0
 22  1  1  0
 22  4  1  0
 22  6  1  0
 22 19  1  0
 23  2  1  0
 23  5  1  0
 23  7  1  0
 23  9  1  0
 24 14  1  0
 24 20  1  0
M  END
>  <ID>  (1) 
conformer_0

$$$$
