
     RDKit          3D

 28 34  0  0  0  0  0  0  0  0999 V2000
   31.9849   22.9899    4.3322 C   0  0  0  0  0  0  0  0  0  0  0  0
   32.5313   21.6361    6.2260 C   0  0  0  0  0  0  0  0  0  0  0  0
   30.2309   23.3297    2.7846 C   0  0  0  0  0  0  0  0  0  0  0  0
   35.4134   23.3206    5.2211 C   0  0  0  0  0  0  0  0  0  0  0  0
   35.3365   24.3791    6.4015 C   0  0  0  0  0  0  0  0  0  0  0  0
   34.0492   22.9937    6.8844 C   0  0  0  0  0  0  0  0  0  0  0  0
   28.8768   24.0335    2.0343 C   0  0  1  0  0  0  0  0  0  0  0  0
   33.6543   22.2538    5.6171 C   0  0  2  0  0  0  0  0  0  0  0  0
   33.3758   23.9721    4.9222 C   0  0  2  0  0  0  0  0  0  0  0  0
   28.9032   25.7880    1.5117 C   0  0  2  0  0  0  0  0  0  0  0  0
   32.1060   26.7367    3.2141 O   0  0  0  0  0  0  0  0  0  0  0  0
   27.1458   28.3292    0.6203 C   0  0  0  0  0  0  0  0  0  0  0  0
   30.2697   23.1942    5.9021 O   0  0  0  0  0  0  0  0  0  0  0  0
   26.0633   27.9543    1.1490 O   0  0  0  0  0  0  0  0  0  0  0  0
   34.6497   23.8904    3.9313 C   0  0  2  0  0  0  0  0  0  0  0  0
   27.0369   29.2484   -0.1938 O   0  0  0  0  0  0  0  0  0  0  0  0
   34.4687   24.2070    8.5313 O   0  0  0  0  0  0  0  0  0  0  0  0
   31.9773   25.7664    2.7134 C   0  0  1  0  0  0  0  0  0  0  0  0
   33.1109   24.2613    3.0623 C   0  0  2  0  0  0  0  0  0  0  0  0
   28.3619   27.2192    0.9640 C   0  0  2  0  0  0  0  0  0  0  0  0
   34.5344   23.6365    7.4833 C   0  0  2  0  0  0  0  0  0  0  0  0
   31.1111   22.9110    4.8197 C   0  0  0  0  0  0  0  0  0  0  0  0
   31.0854   24.4614    3.0317 C   0  0  2  0  0  0  0  0  0  0  0  0
   29.1153   27.6467   -0.2981 C   0  0  0  0  0  0  0  0  0  0  0  0
   30.1594   25.1088    1.3652 C   0  0  1  0  0  0  0  0  0  0  0  0
   30.4215   27.3452   -0.6479 C   0  0  0  0  0  0  0  0  0  0  0  0
   32.0484   24.6159    1.5268 C   0  0  2  0  0  0  0  0  0  0  0  0
   30.9300   26.3090    0.5939 C   0  0  0  0  0  0  0  0  0  0  0  0
  5  4  1  0
  7  3  1  1
  8  2  1  1
  8  6  1  0
  9  1  1  6
  9  8  1  0
 10  7  1  0
 14 12  2  0
 15  4  1  6
 15  9  1  0
 16 12  1  0
 18 11  1  6
 19  9  1  0
 19 15  1  6
 19 18  1  0
 10 20  1  6
 20 12  1  6
 21  5  1  0
 21  6  1  0
 21 17  1  6
 22  1  2  3
 22 13  1  0
 23  3  1  6
 23 18  1  0
 24 20  1  0
 25  7  1  0
 25 10  1  0
 26 24  1  0
 27 18  1  0
 27 19  1  0
 27 23  1  1
 27 25  1  0
 25 28  1  6
 28 26  1  0
M  END
>  <ID>  (1) 
conformer_0

$$$$
