
     RDKit          3D

 31 34  0  0  0  0  0  0  0  0999 V2000
   33.7680   23.3174    6.5978 C   0  0  0  0  0  0  0  0  0  0  0  0
   35.1906   24.5592    7.0359 C   0  0  0  0  0  0  0  0  0  0  0  0
   29.5840   23.5410    2.5216 C   0  0  0  0  0  0  0  0  0  0  0  0
   35.0085   22.8826    4.2589 C   0  0  0  0  0  0  0  0  0  0  0  0
   32.7416   22.8599    5.0731 C   0  0  0  0  0  0  0  0  0  0  0  0
   32.1113   24.9709    1.9456 C   0  0  0  0  0  0  0  0  0  0  0  0
   31.2546   26.1577    0.5701 C   0  0  0  0  0  0  0  0  0  0  0  0
   29.7881   25.6078    1.5423 C   0  0  0  0  0  0  0  0  0  0  0  0
   33.0564   21.4395    6.2064 C   0  0  0  0  0  0  0  0  0  0  0  0
   30.2050   27.5682   -0.1963 C   0  0  0  0  0  0  0  0  0  0  0  0
   32.5832   26.9095    2.7139 O   0  0  0  0  0  0  0  0  0  0  0  0
   33.8071   24.5949    8.5683 O   0  0  0  0  0  0  0  0  0  0  0  0
   28.3594   28.3116   -0.0609 C   0  0  0  0  0  0  0  0  0  0  0  0
   25.3469   28.1424    1.1604 O   0  0  0  0  0  0  0  0  0  0  0  0
   31.3875   22.4119    4.7967 C   0  0  0  0  0  0  0  0  0  0  0  0
   34.1133   24.1163    7.6486 C   0  0  0  0  0  0  0  0  0  0  0  0
   30.7484   23.6633    6.2760 O   0  0  0  0  0  0  0  0  0  0  0  0
   26.0836   28.5930    0.6040 C   0  0  0  0  0  0  0  0  0  0  0  0
   32.3669   26.0219    2.4817 C   0  0  0  0  0  0  0  0  0  0  0  0
   31.2314   23.3984    3.3925 C   0  0  0  0  0  0  0  0  0  0  0  0
   35.1158   24.1678    5.1822 C   0  0  0  0  0  0  0  0  0  0  0  0
   25.7583   29.3471   -0.2471 O   0  0  0  0  0  0  0  0  0  0  0  0
   27.5501   28.1096    0.8414 C   0  0  0  0  0  0  0  0  0  0  0  0
   34.6947   22.0890    5.6950 C   0  0  0  0  0  0  0  0  0  0  0  0
   29.1484   26.6049    0.5026 C   0  0  0  0  0  0  0  0  0  0  0  0
   33.7852   24.6212    3.4157 C   0  0  0  0  0  0  0  0  0  0  0  0
   30.1813   22.0689    5.1271 O   0  0  0  0  0  0  0  0  0  0  0  0
   33.0237   24.3222    4.5624 C   0  0  0  0  0  0  0  0  0  0  0  0
   31.3529   24.7464    3.3723 C   0  0  0  0  0  0  0  0  0  0  0  0
   30.2658   24.2745    1.3035 C   0  0  0  0  0  0  0  0  0  0  0  0
   28.4550   24.1493    1.4934 C   0  0  0  0  0  0  0  0  0  0  0  0
  5  1  1  0
  8  7  1  0
  9  5  1  0
 10  7  1  0
 15  5  1  0
 16  1  1  0
 16  2  1  0
 16 12  1  0
 17 15  1  0
 18 14  2  0
 19  6  1  0
 19 11  1  0
 20  3  1  0
 20 15  1  0
 21  2  1  0
 21  4  1  0
 22 18  1  0
 23 13  1  0
 23 18  1  0
 24  1  1  0
 24  4  1  0
 24  9  1  0
 25  8  1  0
 25 10  1  0
 25 13  1  0
 27 15  1  0
 28  5  1  0
 28 26  1  0
 29  6  1  0
 29 20  1  0
 30  3  1  0
 30  8  1  0
 31  3  1  0
 31 30  1  0
M  END
>  <ID>  (1) 
conformer_0

$$$$
