
     RDKit          3D

 28 35  0  0  0  0  0  0  0  0999 V2000
   28.9731   24.0742    1.8055 C   0  0  0  0  0  0  0  0  0  0  0  0
   29.3539   25.3034    1.3343 C   0  0  0  0  0  0  0  0  0  0  0  0
   31.6045   25.8977    1.3070 C   0  0  0  0  0  0  0  0  0  0  0  0
   34.3108   24.3557    4.5622 C   0  0  0  0  0  0  0  0  0  0  0  0
   31.2746   23.9853    1.5045 C   0  0  0  0  0  0  0  0  0  0  0  0
   29.7947   26.3478    0.9298 C   0  0  0  0  0  0  0  0  0  0  0  0
   31.7391   24.7450    3.1818 C   0  0  0  0  0  0  0  0  0  0  0  0
   30.4335   27.6166    0.1021 C   0  0  0  0  0  0  0  0  0  0  0  0
   30.0722   23.7777    2.8187 C   0  0  0  0  0  0  0  0  0  0  0  0
   34.1713   24.7538    7.7806 C   0  0  0  0  0  0  0  0  0  0  0  0
   30.2651   22.8258    5.6672 O   0  0  0  0  0  0  0  0  0  0  0  0
   26.2672   28.0346    1.2490 O   0  0  0  0  0  0  0  0  0  0  0  0
   32.0033   26.7733    3.6291 O   0  0  0  0  0  0  0  0  0  0  0  0
   26.1319   29.1248   -0.4598 O   0  0  0  0  0  0  0  0  0  0  0  0
   28.6246   27.3297   -0.1955 C   0  0  0  0  0  0  0  0  0  0  0  0
   26.7500   28.5358    0.2726 C   0  0  0  0  0  0  0  0  0  0  0  0
   31.6221   22.1346    4.8708 C   0  0  0  0  0  0  0  0  0  0  0  0
   33.9384   25.1747    8.5284 O   0  0  0  0  0  0  0  0  0  0  0  0
   28.5597   28.6328   -0.0830 C   0  0  0  0  0  0  0  0  0  0  0  0
   32.1535   25.8878    2.8147 C   0  0  0  0  0  0  0  0  0  0  0  0
   34.8956   24.3568    6.4348 C   0  0  0  0  0  0  0  0  0  0  0  0
   31.4977   22.9405    3.6331 C   0  0  0  0  0  0  0  0  0  0  0  0
   33.3099   21.9129    6.9232 C   0  0  0  0  0  0  0  0  0  0  0  0
   32.7240   21.6624    5.6425 C   0  0  0  0  0  0  0  0  0  0  0  0
   32.9983   23.4283    4.6792 C   0  0  0  0  0  0  0  0  0  0  0  0
   33.2415   24.0606    2.6794 C   0  0  0  0  0  0  0  0  0  0  0  0
   34.7229   22.7580    4.7876 C   0  0  0  0  0  0  0  0  0  0  0  0
   33.9090   23.3750    6.7860 C   0  0  0  0  0  0  0  0  0  0  0  0
  2  1  1  0
  5  3  1  0
  6  2  1  0
  6  3  1  0
  7  5  1  0
  8  6  1  0
  9  1  1  0
  9  5  1  0
 15  6  1  0
 15  8  1  0
 16 12  2  0
 16 14  1  0
 17 11  1  0
 18 10  1  0
 19 15  1  0
 19 16  1  0
 20  3  1  0
 20  7  1  0
 20 13  1  0
 21  4  1  0
 21 10  1  0
 22  7  1  0
 22  9  1  0
 22 17  1  0
 24 17  1  0
 24 23  1  0
 25  4  1  0
 25 17  1  0
 25 22  1  0
 26  7  1  0
 27  4  1  0
 27 25  1  0
 28 10  1  0
 28 21  1  0
 28 23  1  0
M  END
>  <ID>  (1) 
conformer_0

$$$$
