
     RDKit          3D

 28 28  0  0  0  0  0  0  0  0999 V2000
   33.8804   24.4398    3.7259 C   0  0  0  0  0  0  0  0  0  0  0  0
   34.4384   22.7007    4.6763 C   0  0  0  0  0  0  0  0  0  0  0  0
   33.5470   21.8272    6.3488 C   0  0  0  0  0  0  0  0  0  0  0  0
   32.3723   23.3152    3.0993 C   0  0  0  0  0  0  0  0  0  0  0  0
   31.4041   24.6495    3.1037 C   0  0  1  0  0  0  0  0  0  0  0  0
   35.5000   23.3446    5.8280 C   0  0  0  0  0  0  0  0  0  0  0  0
   30.1381   23.3982    2.9074 C   0  0  1  0  0  0  0  0  0  0  0  0
   32.6344   21.9038    5.4092 C   0  0  0  0  0  0  0  0  0  0  0  0
   32.3812   24.6244    1.5040 C   0  0  0  0  0  0  0  0  0  0  0  0
   26.5981   28.3132    0.7019 C   0  0  0  0  0  0  0  0  0  0  0  0
   28.7132   24.1070    1.8276 C   0  0  2  0  0  0  0  0  0  0  0  0
   34.7454   24.2016    7.6696 C   0  0  1  0  0  0  0  0  0  0  0  0
   29.8231   22.8931    5.2146 O   0  0  0  0  0  0  0  0  0  0  0  0
   30.3852   23.9931    1.4544 C   0  0  0  0  0  0  0  0  0  0  0  0
   31.8974   26.6605    3.5115 O   0  0  0  0  0  0  0  0  0  0  0  0
   32.0226   25.7889    2.9448 C   0  0  0  0  0  0  0  0  0  0  0  0
   25.8165   27.9826    1.0323 O   0  0  0  0  0  0  0  0  0  0  0  0
   34.9260   24.5377    8.5813 O   0  0  0  0  0  0  0  0  0  0  0  0
   26.4212   29.2626   -0.0699 O   0  0  0  0  0  0  0  0  0  0  0  0
   30.8022   25.9268    0.9134 C   0  0  0  0  0  0  0  0  0  0  0  0
   29.2527   25.6807    1.2988 C   0  0  0  0  0  0  0  0  0  0  0  0
   30.3594   23.1709    4.2012 C   0  0  0  0  0  0  0  0  0  0  0  0
   28.8017   27.8545   -0.2331 C   0  0  0  0  0  0  0  0  0  0  0  0
   28.2771   27.3526    1.0173 C   0  0  1  0  0  0  0  0  0  0  0  0
   33.8983   23.2407    7.1830 C   0  0  0  0  0  0  0  0  0  0  0  0
   30.1584   27.3042   -0.3811 C   0  0  0  0  0  0  0  0  0  0  0  0
   32.9529   23.8376    4.9048 C   0  0  2  0  0  0  0  0  0  0  0  0
   34.5856   24.7545    6.1623 C   0  0  0  0  0  0  0  0  0  0  0  0
  5  4  1  0
  6  2  1  0
  7  5  1  0
  8  3  2  3
  5  9  1  6
 11  7  1  0
 14  7  1  0
 14 11  1  0
 16  5  1  0
 16 15  1  0
 17 10  2  0
 12 18  1  1
 19 10  1  0
 11 21  1  1
 21 20  1  0
  7 22  1  6
 22 13  1  0
 24 10  1  0
 24 21  1  0
 24 23  1  6
 25  3  1  0
 25 12  1  0
 26 23  1  0
 27  1  1  6
 27  2  1  0
 27  4  1  0
 28  6  1  0
 28 12  1  0
M  END
>  <ID>  (1) 
conformer_0

$$$$
