
     RDKit          3D

 26 28  0  0  0  0  0  0  0  0999 V2000
   30.0379   25.9895    1.2487 C   0  0  0  0  0  0  0  0  0  0  0  0
   33.2313   23.4391    4.7718 C   0  0  0  0  0  0  0  0  0  0  0  0
   28.3952   27.0637    0.7555 C   0  0  0  0  0  0  0  0  0  0  0  0
   30.4453   23.6358    2.8555 C   0  0  2  0  0  0  0  0  0  0  0  0
   33.7584   22.7328    7.2139 C   0  0  0  0  0  0  0  0  0  0  0  0
   31.3470   26.9662    0.5843 C   0  0  0  0  0  0  0  0  0  0  0  0
   33.3815   21.9288    6.1755 C   0  0  0  0  0  0  0  0  0  0  0  0
   34.9851   24.2954    6.5741 C   0  0  0  0  0  0  0  0  0  0  0  0
   32.2094   25.7553    2.7524 C   0  0  0  0  0  0  0  0  0  0  0  0
   35.0145   24.3704    4.9367 C   0  0  1  0  0  0  0  0  0  0  0  0
   29.9798   27.3667   -0.3821 C   0  0  0  0  0  0  0  0  0  0  0  0
   28.5005   27.7542   -0.3585 C   0  0  0  0  0  0  0  0  0  0  0  0
   29.4920   22.8006    5.1802 O   0  0  0  0  0  0  0  0  0  0  0  0
   33.0843   26.7292    2.8708 O   0  0  0  0  0  0  0  0  0  0  0  0
   34.0006   23.8779    8.0157 C   0  0  1  0  0  0  0  0  0  0  0  0
   33.5007   24.5462    8.4446 O   0  0  0  0  0  0  0  0  0  0  0  0
   26.6163   28.0829    0.9043 C   0  0  0  0  0  0  0  0  0  0  0  0
   29.6490   22.7307    3.8457 C   0  0  0  0  0  0  0  0  0  0  0  0
   31.6394   24.0318    3.2438 C   0  0  1  0  0  0  0  0  0  0  0  0
   29.2156   23.8114    2.0504 C   0  0  0  0  0  0  0  0  0  0  0  0
   29.0660   25.0069    1.3100 C   0  0  0  0  0  0  0  0  0  0  0  0
   34.7410   22.5446    4.9573 C   0  0  2  0  0  0  0  0  0  0  0  0
   26.3946   27.7201    1.3605 O   0  0  0  0  0  0  0  0  0  0  0  0
   33.8219   24.2758    3.4163 C   0  0  2  0  0  0  0  0  0  0  0  0
   31.7698   24.7558    1.6386 C   0  0  0  0  0  0  0  0  0  0  0  0
   31.3707   26.8252    3.6537 O   0  0  0  0  0  0  0  0  0  0  0  0
  6  1  1  0
  7  5  1  0
 10  8  1  1
 11  6  1  0
 12  3  1  0
 12 11  1  0
 14  9  1  0
 15  5  1  0
 15  8  1  0
 15 16  1  6
 17  3  1  0
  4 18  1  1
 18 13  1  0
 19  4  1  0
 19  9  1  0
 20  4  1  0
 21  1  1  0
 21 20  2  3
 22  2  1  6
 22  7  1  0
 22 10  1  0
 23 17  1  0
 24  2  1  6
 24 10  1  0
 24 19  1  0
 25  9  1  0
 19 25  1  1
 26  9  1  0
M  END
>  <ID>  (1) 
conformer_0

$$$$
