
     RDKit          3D

 23 24  0  0  0  0  0  0  0  0999 V2000
   32.6529   23.4916    4.4577 C   0  0  0  0  0  0  0  0  0  0  0  0
   31.0100   23.3753    3.1518 C   0  0  0  0  0  0  0  0  0  0  0  0
   32.6254   24.6568    2.2332 C   0  0  2  0  0  0  0  0  0  0  0  0
   29.5490   23.8605    1.9810 C   0  0  0  0  0  0  0  0  0  0  0  0
   34.8075   24.2305    5.1342 C   0  0  1  0  0  0  0  0  0  0  0  0
   32.9308   22.0271    5.6601 C   0  0  2  0  0  0  0  0  0  0  0  0
   31.3183   24.8152    3.0951 C   0  0  2  0  0  0  0  0  0  0  0  0
   33.5704   22.0298    6.6329 C   0  0  0  0  0  0  0  0  0  0  0  0
   29.5436   24.8214    1.5457 C   0  0  2  0  0  0  0  0  0  0  0  0
   33.7167   24.2129    3.7475 C   0  0  1  0  0  0  0  0  0  0  0  0
   26.5067   28.3717    0.6707 C   0  0  0  0  0  0  0  0  0  0  0  0
   31.0923   25.7333    1.2598 C   0  0  0  0  0  0  0  0  0  0  0  0
   32.0760   27.0672    3.5776 O   0  0  0  0  0  0  0  0  0  0  0  0
   33.8316   23.7407    7.7561 C   0  0  0  0  0  0  0  0  0  0  0  0
   33.4919   24.3124    8.4273 O   0  0  0  0  0  0  0  0  0  0  0  0
   34.8965   24.1245    6.4554 C   0  0  0  0  0  0  0  0  0  0  0  0
   25.8395   27.8567    0.9221 O   0  0  0  0  0  0  0  0  0  0  0  0
   26.4441   29.2243    0.2630 O   0  0  0  0  0  0  0  0  0  0  0  0
   34.6371   22.5400    5.1060 C   0  0  0  0  0  0  0  0  0  0  0  0
   32.1887   25.9242    3.0881 C   0  0  2  0  0  0  0  0  0  0  0  0
   28.4497   27.7771    0.4341 C   0  0  0  0  0  0  0  0  0  0  0  0
   29.2452   26.5278    0.8766 C   0  0  0  0  0  0  0  0  0  0  0  0
   30.2754   27.5479   -0.2899 C   0  0  0  0  0  0  0  0  0  0  0  0
  4  2  1  0
  6  1  1  0
  7  2  1  1
  7  3  1  0
  6  8  1  1
  9  4  1  0
 10  1  1  1
  3 10  1  1
 10  5  1  0
  9 12  1  1
 15 14  1  0
  5 16  1  1
 16 14  1  0
 17 11  2  0
 18 11  1  0
 19  5  1  0
 19  6  1  0
 20  3  1  0
 20  7  1  0
 20 13  1  6
 21 11  1  0
 22  9  1  0
 22 21  2  3
 23 22  1  0
M  END
>  <ID>  (1) 
conformer_0

$$$$
