
     RDKit          3D

 26 26  0  0  0  0  0  0  0  0999 V2000
   31.4765   24.6337    3.0007 C   0  0  0  0  0  0  0  0  0  0  0  0
   29.0127   23.9077    1.7356 C   0  0  0  0  0  0  0  0  0  0  0  0
   32.9638   22.1222    6.9294 C   0  0  0  0  0  0  0  0  0  0  0  0
   32.3648   23.1033    4.0846 C   0  0  0  0  0  0  0  0  0  0  0  0
   30.4079   23.3598    2.6299 C   0  0  0  0  0  0  0  0  0  0  0  0
   33.0133   21.7076    5.6644 C   0  0  0  0  0  0  0  0  0  0  0  0
   31.3714   25.8153    1.0052 C   0  0  0  0  0  0  0  0  0  0  0  0
   34.6885   22.3797    4.6637 C   0  0  0  0  0  0  0  0  0  0  0  0
   29.7412   24.9685    1.4186 C   0  0  0  0  0  0  0  0  0  0  0  0
   32.2690   25.8965    2.5741 C   0  0  0  0  0  0  0  0  0  0  0  0
   30.4011   27.0590   -0.0676 C   0  0  0  0  0  0  0  0  0  0  0  0
   32.2955   26.8548    3.1143 O   0  0  0  0  0  0  0  0  0  0  0  0
   33.9520   23.9910    7.5412 C   0  0  0  0  0  0  0  0  0  0  0  0
   26.5991   28.3064    0.7905 C   0  0  0  0  0  0  0  0  0  0  0  0
   33.8973   24.4884    8.5304 O   0  0  0  0  0  0  0  0  0  0  0  0
   30.4918   23.3459    6.2424 O   0  0  0  0  0  0  0  0  0  0  0  0
   28.1721   27.8027    0.3863 C   0  0  0  0  0  0  0  0  0  0  0  0
   35.3366   23.8783    5.1342 C   0  0  0  0  0  0  0  0  0  0  0  0
   35.5050   24.9336    6.4755 C   0  0  0  0  0  0  0  0  0  0  0  0
   33.9899   24.6342    4.6057 C   0  0  0  0  0  0  0  0  0  0  0  0
   25.8965   27.8265    1.1878 O   0  0  0  0  0  0  0  0  0  0  0  0
   26.0315   29.0857    0.2850 O   0  0  0  0  0  0  0  0  0  0  0  0
   29.0466   26.7219    0.4267 C   0  0  0  0  0  0  0  0  0  0  0  0
   33.9340   23.3628    6.4581 C   0  0  0  0  0  0  0  0  0  0  0  0
   33.5342   24.1978    3.1365 C   0  0  0  0  0  0  0  0  0  0  0  0
   31.9716   23.9959    1.5898 C   0  0  0  0  0  0  0  0  0  0  0  0
  4  1  1  0
  5  1  1  0
  5  2  1  0
  6  3  1  0
  9  2  1  0
  9  7  1  0
 10  1  1  0
 10  7  1  0
 11  7  1  0
 12 10  1  0
 15 13  1  0
 16  3  1  0
 17 14  1  0
 18  8  1  0
 19 18  1  0
 20 18  1  0
 21 14  2  0
 22 14  1  0
 23 11  1  0
 23 17  1  0
 24  3  1  0
 24 13  1  0
 24 18  1  0
 25  4  1  0
 25 20  1  0
 26  1  1  0
M  END
>  <ID>  (1) 
conformer_0

$$$$
