
     RDKit          3D

 27 28  0  0  0  0  0  0  0  0999 V2000
   34.8172   24.2525    5.5513 C   0  0  0  0  0  0  0  0  0  0  0  0
   29.1210   23.9875    1.5346 C   0  0  0  0  0  0  0  0  0  0  0  0
   30.0520   23.3148    2.5878 C   0  0  0  0  0  0  0  0  0  0  0  0
   33.3960   24.1339    3.8634 C   0  0  0  0  0  0  0  0  0  0  0  0
   32.5489   21.6609    5.5075 C   0  0  0  0  0  0  0  0  0  0  0  0
   31.6189   25.6274    1.0454 C   0  0  0  0  0  0  0  0  0  0  0  0
   33.6271   22.5645    5.0764 C   0  0  0  0  0  0  0  0  0  0  0  0
   33.9964   23.7772    6.8665 C   0  0  0  0  0  0  0  0  0  0  0  0
   31.6253   22.9189    3.9072 C   0  0  0  0  0  0  0  0  0  0  0  0
   33.2383   22.0534    6.9790 C   0  0  0  0  0  0  0  0  0  0  0  0
   30.1265   22.9721    5.5873 O   0  0  0  0  0  0  0  0  0  0  0  0
   33.8376   24.5286    8.6138 O   0  0  0  0  0  0  0  0  0  0  0  0
   27.9760   28.9635    0.7436 C   0  0  0  0  0  0  0  0  0  0  0  0
   32.8877   26.6663    2.9711 O   0  0  0  0  0  0  0  0  0  0  0  0
   30.7386   22.3734    4.5352 C   0  0  0  0  0  0  0  0  0  0  0  0
   34.1891   23.8616    7.8691 C   0  0  0  0  0  0  0  0  0  0  0  0
   26.2147   27.9600    1.0951 O   0  0  0  0  0  0  0  0  0  0  0  0
   27.0091   28.5539    1.0109 C   0  0  0  0  0  0  0  0  0  0  0  0
   29.8684   25.3429    1.8326 C   0  0  0  0  0  0  0  0  0  0  0  0
   31.0918   24.6428    2.9310 C   0  0  0  0  0  0  0  0  0  0  0  0
   32.6472   24.3669    2.3938 C   0  0  0  0  0  0  0  0  0  0  0  0
   32.1870   25.9125    2.6347 C   0  0  0  0  0  0  0  0  0  0  0  0
   30.2330   27.1815    3.3057 O   0  0  0  0  0  0  0  0  0  0  0  0
   29.0173   26.3626    1.1118 C   0  0  0  0  0  0  0  0  0  0  0  0
   30.2064   27.1908   -0.1104 C   0  0  0  0  0  0  0  0  0  0  0  0
   28.8043   27.9264   -0.4768 C   0  0  0  0  0  0  0  0  0  0  0  0
   34.5082   23.0603    3.8419 C   0  0  0  0  0  0  0  0  0  0  0  0
  3  2  1  0
  7  5  1  0
  8  1  1  0
  9  3  1  0
 10  5  1  0
 10  8  1  0
 15  9  1  0
 15 11  1  0
 16  8  1  0
 16 12  1  0
 18 13  1  0
 18 17  1  0
 19  2  1  0
 20  3  1  0
 20 19  1  0
 21  4  1  0
 21 20  1  0
 22  6  1  0
 22 14  1  0
 22 20  1  0
 22 21  1  0
 23 19  1  0
 24 19  1  0
 25 24  1  0
 26 13  1  0
 26 25  1  0
 27  4  1  0
 27  7  1  0
M  END
>  <ID>  (1) 
conformer_0

$$$$
