
     RDKit          3D

 29 34  0  0  0  0  0  0  0  0999 V2000
   34.6931   22.4081    5.3403 C   0  0  2  0  0  0  0  0  0  0  0  0
   29.6837   25.2988    1.3622 C   0  0  2  0  0  0  0  0  0  0  0  0
   35.1506   22.9720    3.9557 C   0  0  0  0  0  0  0  0  0  0  0  0
   33.7614   24.3858    3.5937 C   0  0  0  0  0  0  0  0  0  0  0  0
   30.5598   23.8913    1.5133 C   0  0  2  0  0  0  0  0  0  0  0  0
   32.6126   22.0923    5.3257 C   0  0  0  0  0  0  0  0  0  0  0  0
   33.2648   22.0926    6.7786 C   0  0  0  0  0  0  0  0  0  0  0  0
   32.2058   25.0794    1.5477 C   0  0  0  0  0  0  0  0  0  0  0  0
   33.9652   23.3375    7.2358 C   0  0  0  0  0  0  0  0  0  0  0  0
   30.9420   26.3760    0.5233 C   0  0  0  0  0  0  0  0  0  0  0  0
   31.0846   22.6906    4.8504 C   0  0  2  0  0  0  0  0  0  0  0  0
   30.2769   23.0599    5.8179 O   0  0  0  0  0  0  0  0  0  0  0  0
   25.5086   27.9039    1.1737 O   0  0  0  0  0  0  0  0  0  0  0  0
   29.0547   26.5884    0.6359 C   0  0  1  0  0  0  0  0  0  0  0  0
   26.1488   29.3297   -0.4687 O   0  0  0  0  0  0  0  0  0  0  0  0
   34.1401   24.4857    7.7046 C   0  0  0  0  0  0  0  0  0  0  0  0
   26.4977   28.4395    0.5903 C   0  0  0  0  0  0  0  0  0  0  0  0
   32.3791   25.9538    2.4212 C   0  0  0  0  0  0  0  0  0  0  0  0
   33.8609   25.0806    8.4589 O   0  0  0  0  0  0  0  0  0  0  0  0
   28.9657   27.6336   -0.3529 C   0  0  0  0  0  0  0  0  0  0  0  0
   32.4533   26.7685    2.7998 O   0  0  0  0  0  0  0  0  0  0  0  0
   27.7352   28.1383    0.6721 C   0  0  0  0  0  0  0  0  0  0  0  0
   33.4721   23.9285    5.4209 C   0  0  2  0  0  0  0  0  0  0  0  0
   35.3059   24.8701    6.6907 C   0  0  0  0  0  0  0  0  0  0  0  0
   31.2142   24.8520    2.9783 C   0  0  2  0  0  0  0  0  0  0  0  0
   28.9510   23.9618    1.9771 C   0  0  0  0  0  0  0  0  0  0  0  0
   30.3038   23.1144    3.2831 C   0  0  0  0  0  0  0  0  0  0  0  0
   32.3012   23.8025    3.8347 C   0  0  1  0  0  0  0  0  0  0  0  0
   35.3664   24.0525    5.4837 C   0  0  2  0  0  0  0  0  0  0  0  0
  1  3  1  6
  5  2  1  0
  7  6  1  0
  9  7  2  0
  2 10  1  1
 11  6  1  0
 11 12  1  6
 14  2  1  0
 14 10  1  0
 16  9  2  0
 17 13  2  0
 17 15  1  0
 18  8  2  3
 19 16  1  0
 14 20  1  6
 21 18  1  0
 22 17  1  0
 22 20  1  0
 23  1  1  0
 23  4  1  6
 24 16  1  0
 25  5  1  0
 25 18  1  6
 26  2  1  0
  5 26  1  1
 27  5  1  0
 27 11  1  0
 28  4  1  1
 28 11  1  0
 28 25  1  0
 29  1  1  0
 29  3  1  6
 29 23  1  0
 29 24  1  0
M  END
>  <ID>  (1) 
conformer_0

$$$$
