
     RDKit          3D

 30 34  0  0  0  0  0  0  0  0999 V2000
   32.5714   25.0754    2.0867 C   0  0  0  0  0  0  0  0  0  0  0  0
   35.6625   24.2461    6.5230 C   0  0  0  0  0  0  0  0  0  0  0  0
   31.1538   23.1570    3.3265 C   0  0  0  0  0  0  0  0  0  0  0  0
   33.3860   23.8674    3.2922 C   0  0  0  0  0  0  0  0  0  0  0  0
   33.0108   21.9183    6.2306 C   0  0  0  0  0  0  0  0  0  0  0  0
   34.9874   22.5038    6.0628 C   0  0  0  0  0  0  0  0  0  0  0  0
   28.8039   24.6000    1.4535 C   0  0  0  0  0  0  0  0  0  0  0  0
   28.0736   27.1107    1.2149 C   0  0  0  0  0  0  0  0  0  0  0  0
   29.4391   23.4652    2.1114 C   0  0  0  0  0  0  0  0  0  0  0  0
   31.0845   24.7104    2.8830 C   0  0  0  0  0  0  0  0  0  0  0  0
   31.1229   24.0558    1.1691 C   0  0  0  0  0  0  0  0  0  0  0  0
   26.8182   28.3736    0.5037 C   0  0  0  0  0  0  0  0  0  0  0  0
   30.2311   23.0719    5.5594 O   0  0  0  0  0  0  0  0  0  0  0  0
   34.1591   23.9061    7.6009 C   0  0  0  0  0  0  0  0  0  0  0  0
   33.6759   24.5221    8.4343 O   0  0  0  0  0  0  0  0  0  0  0  0
   25.9904   28.0319    0.9487 O   0  0  0  0  0  0  0  0  0  0  0  0
   32.2597   26.8695    3.3038 O   0  0  0  0  0  0  0  0  0  0  0  0
   31.2385   26.2755    0.6698 C   0  0  0  0  0  0  0  0  0  0  0  0
   31.1436   22.5923    4.4696 C   0  0  0  0  0  0  0  0  0  0  0  0
   26.4994   29.0894   -0.5703 O   0  0  0  0  0  0  0  0  0  0  0  0
   29.6383   25.6561    1.4762 C   0  0  0  0  0  0  0  0  0  0  0  0
   33.5834   23.3612    6.9398 C   0  0  0  0  0  0  0  0  0  0  0  0
   32.2164   25.8826    2.7754 C   0  0  0  0  0  0  0  0  0  0  0  0
   28.3209   28.5502   -0.2736 C   0  0  0  0  0  0  0  0  0  0  0  0
   29.3043   26.9358    0.2858 C   0  0  0  0  0  0  0  0  0  0  0  0
   30.0341   28.0076   -0.4235 C   0  0  0  0  0  0  0  0  0  0  0  0
   32.7619   24.3852    4.6182 C   0  0  0  0  0  0  0  0  0  0  0  0
   35.2586   22.6721    4.3283 C   0  0  0  0  0  0  0  0  0  0  0  0
   34.6650   24.1758    4.9796 C   0  0  0  0  0  0  0  0  0  0  0  0
   33.0036   22.5780    4.8437 C   0  0  0  0  0  0  0  0  0  0  0  0
  4  1  1  0
  6  2  1  0
  9  7  1  0
 10  3  1  0
 11  9  1  0
 11 10  1  0
 12  8  1  0
 14  2  1  0
 15 14  1  0
 16 12  1  0
 19  3  1  0
 19 13  1  0
 20 12  1  0
 21  7  1  0
 21 18  1  0
 22  5  1  0
 22  6  1  0
 22 14  1  0
 23  1  1  0
 23 10  1  0
 23 17  1  0
 24 12  1  0
 25  8  1  0
 25 21  1  0
 26 24  1  0
 26 25  1  0
 27  4  1  0
 28  6  1  0
 29  2  1  0
 29 27  1  0
 29 28  1  0
 30  5  1  0
 30 19  1  0
 30 27  1  0
M  END
>  <ID>  (1) 
conformer_0

$$$$
