
     RDKit          3D

 28 30  0  0  0  0  0  0  0  0999 V2000
   29.6895   25.0312    1.5182 C   0  0  0  0  0  0  0  0  0  0  0  0
   28.8152   23.8940    1.7785 C   0  0  0  0  0  0  0  0  0  0  0  0
   31.7960   24.7812    2.4645 C   0  0  0  0  0  0  0  0  0  0  0  0
   33.2629   23.9495    2.8772 C   0  0  0  0  0  0  0  0  0  0  0  0
   31.8196   23.1455    3.5473 C   0  0  0  0  0  0  0  0  0  0  0  0
   30.2253   23.4999    2.7959 C   0  0  0  0  0  0  0  0  0  0  0  0
   35.3339   24.1128    5.5545 C   0  0  0  0  0  0  0  0  0  0  0  0
   31.2647   26.0883    1.1319 C   0  0  0  0  0  0  0  0  0  0  0  0
   33.0465   22.1998    5.1179 C   0  0  0  0  0  0  0  0  0  0  0  0
   28.9623   26.1328    1.0171 C   0  0  0  0  0  0  0  0  0  0  0  0
   34.7576   24.3175    7.5899 C   0  0  0  0  0  0  0  0  0  0  0  0
   26.4095   28.4476    0.5004 C   0  0  0  0  0  0  0  0  0  0  0  0
   30.2155   22.6991    5.3413 O   0  0  0  0  0  0  0  0  0  0  0  0
   31.8915   26.5430    3.7163 O   0  0  0  0  0  0  0  0  0  0  0  0
   27.7730   27.7803    0.7957 C   0  0  0  0  0  0  0  0  0  0  0  0
   34.3676   24.0197    6.6504 C   0  0  0  0  0  0  0  0  0  0  0  0
   33.1632   21.7713    6.5760 C   0  0  0  0  0  0  0  0  0  0  0  0
   26.1867   29.2002   -0.3979 O   0  0  0  0  0  0  0  0  0  0  0  0
   34.5870   24.7035    8.7100 O   0  0  0  0  0  0  0  0  0  0  0  0
   31.1002   22.4423    4.4388 C   0  0  0  0  0  0  0  0  0  0  0  0
   31.9115   25.7498    3.0627 C   0  0  0  0  0  0  0  0  0  0  0  0
   25.6900   28.2398    0.6521 O   0  0  0  0  0  0  0  0  0  0  0  0
   30.5250   27.3489    0.2047 C   0  0  0  0  0  0  0  0  0  0  0  0
   29.0599   27.5863   -0.3604 C   0  0  0  0  0  0  0  0  0  0  0  0
   34.6183   23.1332    4.2932 C   0  0  0  0  0  0  0  0  0  0  0  0
   31.0722   23.6095    1.3864 C   0  0  0  0  0  0  0  0  0  0  0  0
   33.2831   23.9705    4.6850 C   0  0  0  0  0  0  0  0  0  0  0  0
   34.4234   22.3850    6.6406 C   0  0  0  0  0  0  0  0  0  0  0  0
  2  1  1  0
  4  3  1  0
  5  4  1  0
  6  2  1  0
  6  5  1  0
  8  1  1  0
  8  3  1  0
 10  1  1  0
 15 12  1  0
 16  7  1  0
 16 11  1  0
 17  9  1  0
 18 12  1  0
 19 11  1  0
 20  5  1  0
 20 13  1  0
 21  3  1  0
 21 14  1  0
 22 12  2  0
 23  8  1  0
 24 15  1  0
 24 23  1  0
 25  7  1  0
 26  3  1  0
 26  6  1  0
 27  4  1  0
 27  9  1  0
 27 25  1  0
 28 16  1  0
 28 17  1  0
M  END
>  <ID>  (1) 
conformer_0

$$$$
