
     RDKit          3D

 29 31  0  0  0  0  0  0  0  0999 V2000
   33.1520   23.9496    3.1246 C   0  0  0  0  0  0  0  0  0  0  0  0
   31.9951   25.0071    1.3950 C   0  0  0  0  0  0  0  0  0  0  0  0
   33.8104   24.2261    5.4314 C   0  0  0  0  0  0  0  0  0  0  0  0
   33.1066   21.8465    5.9822 C   0  0  0  0  0  0  0  0  0  0  0  0
   32.7145   22.6373    4.5283 C   0  0  0  0  0  0  0  0  0  0  0  0
   30.0865   25.1374    2.2902 C   0  0  0  0  0  0  0  0  0  0  0  0
   35.7338   24.2249    6.0653 C   0  0  0  0  0  0  0  0  0  0  0  0
   30.3144   26.5334    0.5098 C   0  0  0  0  0  0  0  0  0  0  0  0
   30.5198   27.8024   -0.5983 C   0  0  0  0  0  0  0  0  0  0  0  0
   30.5595   23.2699    3.1858 C   0  0  0  0  0  0  0  0  0  0  0  0
   34.3251   24.2457    7.7855 C   0  0  0  0  0  0  0  0  0  0  0  0
   26.8792   28.3673    0.5661 C   0  0  0  0  0  0  0  0  0  0  0  0
   26.4034   29.1607   -0.4148 O   0  0  0  0  0  0  0  0  0  0  0  0
   29.7944   23.1485    5.6232 O   0  0  0  0  0  0  0  0  0  0  0  0
   26.2797   28.0389    1.3063 O   0  0  0  0  0  0  0  0  0  0  0  0
   34.2738   24.8251    8.5855 O   0  0  0  0  0  0  0  0  0  0  0  0
   34.9540   25.2612    6.6974 C   0  0  0  0  0  0  0  0  0  0  0  0
   33.9259   22.9249    6.8272 C   0  0  0  0  0  0  0  0  0  0  0  0
   31.5351   26.6106    3.3536 O   0  0  0  0  0  0  0  0  0  0  0  0
   29.8080   23.1212    4.1190 C   0  0  0  0  0  0  0  0  0  0  0  0
   31.4248   25.7028    2.9981 C   0  0  0  0  0  0  0  0  0  0  0  0
   28.2849   27.3295    0.8097 C   0  0  0  0  0  0  0  0  0  0  0  0
   28.8251   27.8636   -0.3216 C   0  0  0  0  0  0  0  0  0  0  0  0
   34.7102   22.5144    4.8057 C   0  0  0  0  0  0  0  0  0  0  0  0
   34.9910   23.9847    4.1472 C   0  0  0  0  0  0  0  0  0  0  0  0
   31.6766   24.3769    3.6218 C   0  0  0  0  0  0  0  0  0  0  0  0
   30.5607   23.6868    1.4559 C   0  0  0  0  0  0  0  0  0  0  0  0
   29.2236   25.4294    0.9212 C   0  0  0  0  0  0  0  0  0  0  0  0
   28.9003   23.6449    2.0499 C   0  0  0  0  0  0  0  0  0  0  0  0
  5  1  1  0
  5  4  1  0
  9  8  1  0
 13 12  1  0
 15 12  2  0
 16 11  1  0
 17  7  1  0
 17 11  1  0
 18  3  1  0
 18  4  1  0
 18 11  1  0
 20 10  1  0
 20 14  1  0
 21  2  1  0
 21  6  1  0
 21 19  1  0
 22 12  1  0
 23  9  1  0
 23 22  1  0
 25  3  1  0
 25 24  1  0
 26  1  1  0
 26 10  1  0
 26 21  1  0
 27  2  1  0
 27  6  1  0
 27 10  1  0
 28  6  1  0
 28  8  1  0
 29  6  1  0
 29 27  1  0
M  END
>  <ID>  (1) 
conformer_0

$$$$
