
     RDKit          3D

 22 24  0  0  0  0  0  0  0  0999 V2000
   30.9502   24.7631    1.9080 C   0  0  1  0  0  0  0  0  0  0  0  0
   33.4149   22.3965    7.0262 C   0  0  0  0  0  0  0  0  0  0  0  0
   33.5124   22.1546    5.8346 C   0  0  0  0  0  0  0  0  0  0  0  0
   29.4122   24.1743    1.6823 C   0  0  0  0  0  0  0  0  0  0  0  0
   30.9865   25.9735    0.7930 C   0  0  0  0  0  0  0  0  0  0  0  0
   32.2190   24.1005    3.4040 C   0  0  2  0  0  0  0  0  0  0  0  0
   29.3730   27.4120   -0.1858 C   0  0  0  0  0  0  0  0  0  0  0  0
   34.3943   24.0621    4.4454 C   0  0  0  0  0  0  0  0  0  0  0  0
   28.0963   28.2500   -0.0514 C   0  0  0  0  0  0  0  0  0  0  0  0
   33.9109   23.7997    7.8590 C   0  0  0  0  0  0  0  0  0  0  0  0
   29.7440   22.9098    5.4158 O   0  0  0  0  0  0  0  0  0  0  0  0
   25.7473   28.1883    1.2873 O   0  0  0  0  0  0  0  0  0  0  0  0
   35.2372   23.1340    4.2929 C   0  0  0  0  0  0  0  0  0  0  0  0
   26.8010   28.5889    0.8364 C   0  0  0  0  0  0  0  0  0  0  0  0
   32.4293   26.5210    3.2635 O   0  0  0  0  0  0  0  0  0  0  0  0
   32.3297   25.4329    2.7213 C   0  0  2  0  0  0  0  0  0  0  0  0
   33.9727   24.5402    8.6444 O   0  0  0  0  0  0  0  0  0  0  0  0
   29.2550   26.0859    0.9305 C   0  0  0  0  0  0  0  0  0  0  0  0
   30.5418   23.3708    2.7413 C   0  0  1  0  0  0  0  0  0  0  0  0
   32.4215   22.6433    4.5196 C   0  0  2  0  0  0  0  0  0  0  0  0
   34.4875   24.0155    5.9574 C   0  0  0  0  0  0  0  0  0  0  0  0
   30.6772   22.7820    4.1725 C   0  0  1  0  0  0  0  0  0  0  0  0
  3  2  1  0
  4  1  1  0
  1  5  1  6
  9  7  1  0
 10  2  2  3
 13  8  1  0
 14  9  1  0
 14 12  2  0
 16  1  1  0
  6 16  1  1
 16 15  1  1
 17 10  1  0
 18  5  1  0
 18  7  1  0
 19  1  1  0
 19  4  1  1
 19  6  1  0
 20  3  1  1
 20  6  1  0
 21  8  1  0
 21 10  1  0
 22 11  1  1
 22 19  1  0
 22 20  1  0
M  END
>  <ID>  (1) 
conformer_0

$$$$
