
     RDKit          3D

 30 37  0  0  0  0  0  0  0  0999 V2000
   28.7732   23.9576    1.9184 C   0  0  0  0  0  0  0  0  0  0  0  0
   30.1707   24.1445    1.5011 C   0  0  0  0  0  0  0  0  0  0  0  0
   30.4976   23.0992    2.9121 C   0  0  0  0  0  0  0  0  0  0  0  0
   32.1566   24.1470    1.5753 C   0  0  0  0  0  0  0  0  0  0  0  0
   34.1053   22.9968    7.1535 C   0  0  0  0  0  0  0  0  0  0  0  0
   28.4393   28.5317    0.4584 C   0  0  0  0  0  0  0  0  0  0  0  0
   33.4081   21.5956    6.4370 C   0  0  0  0  0  0  0  0  0  0  0  0
   29.0697   28.2490   -0.7501 C   0  0  0  0  0  0  0  0  0  0  0  0
   32.4655   21.6201    5.3679 C   0  0  0  0  0  0  0  0  0  0  0  0
   33.0969   24.6907    3.2926 C   0  0  0  0  0  0  0  0  0  0  0  0
   29.4110   25.6591    1.4109 C   0  0  0  0  0  0  0  0  0  0  0  0
   30.1249   22.8643    5.5736 O   0  0  0  0  0  0  0  0  0  0  0  0
   26.9597   28.4664    0.4753 C   0  0  0  0  0  0  0  0  0  0  0  0
   26.2431   27.8307    1.1287 O   0  0  0  0  0  0  0  0  0  0  0  0
   34.1958   24.6128    7.7773 C   0  0  0  0  0  0  0  0  0  0  0  0
   33.8842   25.0262    8.6105 O   0  0  0  0  0  0  0  0  0  0  0  0
   26.3179   29.2125   -0.2715 O   0  0  0  0  0  0  0  0  0  0  0  0
   31.0501   22.4256    4.4995 C   0  0  0  0  0  0  0  0  0  0  0  0
   33.1538   23.7202    5.2279 C   0  0  0  0  0  0  0  0  0  0  0  0
   34.6477   24.4860    5.2378 C   0  0  0  0  0  0  0  0  0  0  0  0
   32.3735   26.7342    3.4412 O   0  0  0  0  0  0  0  0  0  0  0  0
   31.2211   26.1983    1.4041 C   0  0  0  0  0  0  0  0  0  0  0  0
   30.6248   27.8184    0.2762 C   0  0  0  0  0  0  0  0  0  0  0  0
   32.0855   25.7577    2.8902 C   0  0  0  0  0  0  0  0  0  0  0  0
   29.1057   26.8255    0.7472 C   0  0  0  0  0  0  0  0  0  0  0  0
   31.0844   24.7044    3.1626 C   0  0  0  0  0  0  0  0  0  0  0  0
   34.9896   24.5487    6.8859 C   0  0  0  0  0  0  0  0  0  0  0  0
   32.1778   23.2853    3.9172 C   0  0  0  0  0  0  0  0  0  0  0  0
   34.8915   22.3899    5.5170 C   0  0  0  0  0  0  0  0  0  0  0  0
   34.8472   23.0210    4.0456 C   0  0  0  0  0  0  0  0  0  0  0  0
  2  1  1  0
  3  2  1  0
  7  5  1  0
  8  6  1  0
  9  7  1  0
 10  4  1  0
 11  1  1  0
 11  2  1  0
 13  6  1  0
 14 13  2  0
 15  5  1  0
 16 15  1  0
 17 13  1  0
 18  3  1  0
 18  9  1  0
 18 12  1  0
 20 19  1  0
 22 11  1  0
 23  8  1  0
 24 10  1  0
 24 21  1  0
 24 22  1  0
 25  6  1  0
 25 11  1  0
 25 23  1  0
 26  3  1  0
 26 24  1  0
 27 15  1  0
 27 20  1  0
 28 10  1  0
 28 18  1  0
 28 19  1  0
 28 26  1  0
 29  5  1  0
 29  7  1  0
 30 20  1  0
 30 29  1  0
M  END
>  <ID>  (1) 
conformer_0

$$$$
