
     RDKit          3D

 24 24  0  0  0  0  0  0  0  0999 V2000
   34.9018   24.1816    4.5557 C   0  0  0  0  0  0  0  0  0  0  0  0
   30.0754   23.7167    2.1831 C   0  0  0  0  0  0  0  0  0  0  0  0
   31.3192   24.6056    2.7829 C   0  0  0  0  0  0  0  0  0  0  0  0
   29.0051   24.2773    1.7685 C   0  0  0  0  0  0  0  0  0  0  0  0
   31.4101   25.0695    1.1384 C   0  0  0  0  0  0  0  0  0  0  0  0
   33.2839   24.3249    4.0123 C   0  0  0  0  0  0  0  0  0  0  0  0
   29.2449   25.6520    1.3186 C   0  0  0  0  0  0  0  0  0  0  0  0
   31.6438   23.4954    3.6082 C   0  0  0  0  0  0  0  0  0  0  0  0
   30.0730   26.8268    0.4422 C   0  0  0  0  0  0  0  0  0  0  0  0
   32.8887   22.5824    4.9189 C   0  0  0  0  0  0  0  0  0  0  0  0
   30.0582   22.6064    5.2089 O   0  0  0  0  0  0  0  0  0  0  0  0
   33.9715   24.1446    7.8375 C   0  0  0  0  0  0  0  0  0  0  0  0
   26.1372   28.7458    0.2922 C   0  0  0  0  0  0  0  0  0  0  0  0
   32.2040   25.5346    2.6543 C   0  0  0  0  0  0  0  0  0  0  0  0
   32.4107   26.5590    2.9206 O   0  0  0  0  0  0  0  0  0  0  0  0
   28.9498   28.2195    0.0474 C   0  0  0  0  0  0  0  0  0  0  0  0
   33.4578   24.7902    8.4090 O   0  0  0  0  0  0  0  0  0  0  0  0
   31.1525   22.3330    4.2964 C   0  0  0  0  0  0  0  0  0  0  0  0
   25.7412   29.4907   -0.5955 O   0  0  0  0  0  0  0  0  0  0  0  0
   34.8667   24.5136    6.5068 C   0  0  0  0  0  0  0  0  0  0  0  0
   27.7998   28.3737    0.3188 C   0  0  0  0  0  0  0  0  0  0  0  0
   35.1097   23.1559    5.1054 C   0  0  0  0  0  0  0  0  0  0  0  0
   33.2514   21.8573    6.0295 C   0  0  0  0  0  0  0  0  0  0  0  0
   33.7001   22.6255    7.0225 C   0  0  0  0  0  0  0  0  0  0  0  0
  3  2  1  0
  4  2  1  0
  5  3  1  0
  6  1  1  0
  7  4  1  0
  8  3  1  0
  8  6  1  0
  9  7  1  0
 14  3  1  0
 15 14  1  0
 16  9  1  0
 17 12  1  0
 18  8  1  0
 18 10  1  0
 18 11  1  0
 19 13  1  0
 20 12  1  0
 21 13  2  0
 21 16  2  0
 22  1  1  0
 22 20  1  0
 23 10  1  0
 24 12  1  0
 24 23  1  0
M  END
>  <ID>  (1) 
conformer_0

$$$$
