
     RDKit          3D

 26 28  0  0  0  0  0  0  0  0999 V2000
   32.5442   22.8195    4.5999 C   0  0  2  0  0  0  0  0  0  0  0  0
   35.3981   23.6101    5.3666 C   0  0  1  0  0  0  0  0  0  0  0  0
   33.5572   22.3713    5.9130 C   0  0  0  0  0  0  0  0  0  0  0  0
   33.8743   24.1122    4.5372 C   0  0  1  0  0  0  0  0  0  0  0  0
   35.2857   24.5177    6.4214 C   0  0  0  0  0  0  0  0  0  0  0  0
   28.7918   24.0059    1.9038 C   0  0  0  0  0  0  0  0  0  0  0  0
   30.9471   23.2074    3.1529 C   0  0  0  0  0  0  0  0  0  0  0  0
   33.5494   23.2948    7.1372 C   0  0  0  0  0  0  0  0  0  0  0  0
   32.0172   24.9020    1.3755 C   0  0  1  0  0  0  0  0  0  0  0  0
   35.1747   22.3628    4.7310 C   0  0  0  0  0  0  0  0  0  0  0  0
   27.9915   27.9495    0.6328 C   0  0  0  0  0  0  0  0  0  0  0  0
   34.3310   24.3301    7.9309 C   0  0  2  0  0  0  0  0  0  0  0  0
   30.2904   22.6980    5.6217 O   0  0  0  0  0  0  0  0  0  0  0  0
   32.0506   26.8696    3.3986 O   0  0  0  0  0  0  0  0  0  0  0  0
   26.4747   28.4767    0.5677 C   0  0  0  0  0  0  0  0  0  0  0  0
   34.3340   24.8133    8.6701 O   0  0  0  0  0  0  0  0  0  0  0  0
   29.8399   23.9107    1.5453 C   0  0  0  0  0  0  0  0  0  0  0  0
   30.8288   25.9561    0.8792 C   0  0  0  0  0  0  0  0  0  0  0  0
   31.6094   22.4032    4.8474 C   0  0  0  0  0  0  0  0  0  0  0  0
   25.7121   28.3405    0.4626 O   0  0  0  0  0  0  0  0  0  0  0  0
   32.0261   25.9172    2.8774 C   0  0  1  0  0  0  0  0  0  0  0  0
   30.2290   27.3562   -0.1219 C   0  0  0  0  0  0  0  0  0  0  0  0
   29.1107   28.1402   -0.3971 C   0  0  0  0  0  0  0  0  0  0  0  0
   29.4957   25.8441    1.2077 C   0  0  0  0  0  0  0  0  0  0  0  0
   31.1818   24.4717    2.9439 C   0  0  1  0  0  0  0  0  0  0  0  0
   33.0160   24.5585    3.2812 C   0  0  2  0  0  0  0  0  0  0  0  0
  3  1  1  0
  4  1  1  6
  4  2  1  0
  5  2  1  0
  8  3  1  0
  2 10  1  1
 12  5  1  0
 12  8  1  0
 15 11  1  0
 12 16  1  6
 17  6  1  0
  9 18  1  6
  1 19  1  1
 19 13  1  0
 20 15  2  0
 21  9  1  0
 21 14  1  6
 22 18  2  3
 23 11  1  0
 23 22  1  0
 24 17  1  0
 24 18  1  0
 25  7  1  1
 25  9  1  0
 25 21  1  0
 26  4  1  1
 26 21  1  0
 26 25  1  0
M  END
>  <ID>  (1) 
conformer_0

$$$$
