
     RDKit          3D

 27 29  0  0  0  0  0  0  0  0999 V2000
   33.6444   22.1444    6.4858 C   0  0  0  0  0  0  0  0  0  0  0  0
   33.2952   24.2570    4.2353 C   0  0  2  0  0  0  0  0  0  0  0  0
   32.4046   23.1535    4.6171 C   0  0  1  0  0  0  0  0  0  0  0  0
   35.4145   24.4895    6.1809 C   0  0  0  0  0  0  0  0  0  0  0  0
   32.7265   24.1444    2.5816 C   0  0  0  0  0  0  0  0  0  0  0  0
   29.0574   23.8641    2.0536 C   0  0  0  0  0  0  0  0  0  0  0  0
   32.7976   21.6485    5.7608 C   0  0  0  0  0  0  0  0  0  0  0  0
   31.6787   25.1792    1.1469 C   0  0  0  0  0  0  0  0  0  0  0  0
   30.8349   23.1596    3.1109 C   0  0  0  0  0  0  0  0  0  0  0  0
   26.6381   28.4550    0.7673 C   0  0  0  0  0  0  0  0  0  0  0  0
   29.3406   25.8397    1.2525 C   0  0  0  0  0  0  0  0  0  0  0  0
   30.1843   22.6046    5.4436 O   0  0  0  0  0  0  0  0  0  0  0  0
   34.5028   24.5042    7.6763 C   0  0  1  0  0  0  0  0  0  0  0  0
   25.9074   27.7995    1.2258 O   0  0  0  0  0  0  0  0  0  0  0  0
   31.0688   22.4640    4.7107 C   0  0  2  0  0  0  0  0  0  0  0  0
   28.0230   27.9457    0.7411 C   0  0  0  0  0  0  0  0  0  0  0  0
   31.9874   26.7290    3.2117 O   0  0  0  0  0  0  0  0  0  0  0  0
   26.1392   29.3593    0.0077 O   0  0  0  0  0  0  0  0  0  0  0  0
   32.0639   25.6935    2.6371 C   0  0  2  0  0  0  0  0  0  0  0  0
   34.1344   24.8970    8.4181 O   0  0  0  0  0  0  0  0  0  0  0  0
   30.1640   26.6872    0.0891 C   0  0  0  0  0  0  0  0  0  0  0  0
   28.9759   27.6238   -0.3115 C   0  0  0  0  0  0  0  0  0  0  0  0
   34.1644   23.8081    6.3882 C   0  0  2  0  0  0  0  0  0  0  0  0
   34.9173   24.0509    4.2680 C   0  0  0  0  0  0  0  0  0  0  0  0
   34.8066   22.5902    4.9292 C   0  0  0  0  0  0  0  0  0  0  0  0
   30.2966   24.4462    1.5832 C   0  0  2  0  0  0  0  0  0  0  0  0
   30.8766   24.7202    3.2239 C   0  0  1  0  0  0  0  0  0  0  0  0
  3  2  1  0
  5  2  1  0
  7  1  1  0
  3  7  1  1
 13  4  1  0
 14 10  2  0
 15  3  1  0
 15  9  1  0
 15 12  1  1
 16 10  1  0
 18 10  1  0
 19  5  1  0
 19  8  1  0
 19 17  1  6
 13 20  1  6
 21 11  1  0
 22 16  2  3
 22 21  1  0
 23  1  1  1
 23  4  1  0
 23 13  1  0
  2 24  1  6
 25 24  1  0
 26  6  1  1
 26  8  1  0
 26 11  1  0
 27  9  1  6
 27 19  1  0
 27 26  1  0
M  END
>  <ID>  (1) 
conformer_0

$$$$
