
     RDKit          3D

 30 36  0  0  0  0  0  0  0  0999 V2000
   33.1213   23.6683    4.3075 C   0  0  2  0  0  0  0  0  0  0  0  0
   30.0595   23.5055    2.2650 C   0  0  2  0  0  0  0  0  0  0  0  0
   34.9420   23.3455    4.0224 C   0  0  0  0  0  0  0  0  0  0  0  0
   31.3775   23.1644    3.5697 C   0  0  1  0  0  0  0  0  0  0  0  0
   28.7678   24.2293    1.7984 C   0  0  0  0  0  0  0  0  0  0  0  0
   34.2922   23.2350    5.5218 C   0  0  2  0  0  0  0  0  0  0  0  0
   30.9829   24.7981    3.0740 C   0  0  2  0  0  0  0  0  0  0  0  0
   32.7689   22.1093    5.2587 C   0  0  2  0  0  0  0  0  0  0  0  0
   31.9208   24.5000    1.3734 C   0  0  0  0  0  0  0  0  0  0  0  0
   34.4940   24.3316    8.0920 C   0  0  0  0  0  0  0  0  0  0  0  0
   33.0937   24.1249    2.9113 C   0  0  0  0  0  0  0  0  0  0  0  0
   26.4475   28.6218    0.3036 C   0  0  0  0  0  0  0  0  0  0  0  0
   30.3214   23.3782    6.0852 O   0  0  0  0  0  0  0  0  0  0  0  0
   25.9968   28.4472    1.1370 O   0  0  0  0  0  0  0  0  0  0  0  0
   32.1024   26.6413    3.4861 O   0  0  0  0  0  0  0  0  0  0  0  0
   31.5105   22.1432    4.9282 C   0  0  0  0  0  0  0  0  0  0  0  0
   35.4533   24.1762    8.7533 O   0  0  0  0  0  0  0  0  0  0  0  0
   33.5062   23.2027    7.3948 C   0  0  0  0  0  0  0  0  0  0  0  0
   26.1150   29.2097   -0.5225 O   0  0  0  0  0  0  0  0  0  0  0  0
   29.7831   25.2343    1.4865 C   0  0  1  0  0  0  0  0  0  0  0  0
   31.9834   25.6829    2.9470 C   0  0  2  0  0  0  0  0  0  0  0  0
   33.8332   24.9212    8.7374 O   0  0  0  0  0  0  0  0  0  0  0  0
   32.9442   21.6589    6.6310 C   0  0  0  0  0  0  0  0  0  0  0  0
   27.8891   28.1331   -0.0885 C   0  0  0  0  0  0  0  0  0  0  0  0
   34.6176   24.7023    6.2566 C   0  0  0  0  0  0  0  0  0  0  0  0
   28.9208   28.0071   -0.9866 C   0  0  0  0  0  0  0  0  0  0  0  0
   30.6140   21.6773    4.8851 O   0  0  0  0  0  0  0  0  0  0  0  0
   31.3118   25.9148    0.8397 C   0  0  0  0  0  0  0  0  0  0  0  0
   30.3613   27.2816   -0.4897 C   0  0  0  0  0  0  0  0  0  0  0  0
   29.1782   26.4824    0.5430 C   0  0  0  0  0  0  0  0  0  0  0  0
  1  3  1  6
  4  2  1  0
  2  5  1  1
  6  1  1  0
  6  3  1  6
  7  2  1  0
  7  4  1  0
  8  1  1  0
  8  6  1  0
  7  9  1  6
 11  1  1  0
 14 12  2  0
  4 16  1  1
 16  8  1  0
 16 13  1  0
 17 10  1  0
 18 10  1  0
 19 12  1  0
 20  2  1  0
 20  5  1  0
 21  7  1  0
 21 11  1  0
 21 15  1  1
 22 10  1  0
  8 23  1  6
 23 18  1  0
 24 12  1  0
 25  6  1  0
 25 10  1  0
 26 24  2  3
 27 16  1  0
 28  9  1  0
 28 20  1  0
 29 26  1  0
 20 30  1  1
 30 29  1  0
M  END
>  <ID>  (1) 
conformer_0

$$$$
