
     RDKit          3D

 26 29  0  0  0  0  0  0  0  0999 V2000
   32.8316   23.9101    4.4269 C   0  0  0  0  0  0  0  0  0  0  0  0
   28.8096   24.0515    1.7322 C   0  0  0  0  0  0  0  0  0  0  0  0
   32.4811   24.6808    2.7729 C   0  0  0  0  0  0  0  0  0  0  0  0
   32.5815   22.0034    5.2430 C   0  0  0  0  0  0  0  0  0  0  0  0
   29.6552   23.4998    2.5048 C   0  0  0  0  0  0  0  0  0  0  0  0
   31.1175   24.4662    1.7726 C   0  0  0  0  0  0  0  0  0  0  0  0
   34.0519   23.3828    6.3712 C   0  0  0  0  0  0  0  0  0  0  0  0
   29.6424   25.4352    1.3394 C   0  0  0  0  0  0  0  0  0  0  0  0
   31.1111   23.3970    3.4422 C   0  0  0  0  0  0  0  0  0  0  0  0
   29.8153   22.7221    5.2953 O   0  0  0  0  0  0  0  0  0  0  0  0
   34.5263   24.3974    7.6265 C   0  0  0  0  0  0  0  0  0  0  0  0
   32.3445   26.9109    3.0259 O   0  0  0  0  0  0  0  0  0  0  0  0
   35.1295   24.6856    6.2274 C   0  0  0  0  0  0  0  0  0  0  0  0
   26.7162   28.6361    0.3149 C   0  0  0  0  0  0  0  0  0  0  0  0
   30.8546   22.4403    4.2773 C   0  0  0  0  0  0  0  0  0  0  0  0
   32.3955   26.0531    2.4528 C   0  0  0  0  0  0  0  0  0  0  0  0
   25.9131   28.2580    0.9797 O   0  0  0  0  0  0  0  0  0  0  0  0
   34.3117   24.2847    4.3330 C   0  0  0  0  0  0  0  0  0  0  0  0
   34.7000   24.6706    8.6471 O   0  0  0  0  0  0  0  0  0  0  0  0
   26.1647   29.3180   -0.5555 O   0  0  0  0  0  0  0  0  0  0  0  0
   28.6332   27.0781    0.6981 C   0  0  0  0  0  0  0  0  0  0  0  0
   31.4077   25.9926    1.0132 C   0  0  0  0  0  0  0  0  0  0  0  0
   30.3241   27.4886   -0.1331 C   0  0  0  0  0  0  0  0  0  0  0  0
   28.3972   28.0839   -0.3491 C   0  0  0  0  0  0  0  0  0  0  0  0
   33.7979   21.9160    6.0096 C   0  0  0  0  0  0  0  0  0  0  0  0
   35.0942   22.8372    4.8032 C   0  0  0  0  0  0  0  0  0  0  0  0
  3  1  1  0
  5  2  1  0
  6  3  1  0
  6  5  1  0
  8  2  1  0
  8  6  1  0
  9  5  1  0
 11  7  1  0
 13  7  1  0
 13 11  1  0
 15  9  1  0
 15 10  1  0
 16  3  1  0
 16 12  1  0
 17 14  2  0
 18  1  1  0
 19 11  1  0
 20 14  1  0
 21  8  1  0
 22  6  1  0
 22  8  1  0
 22 16  1  0
 23 21  1  0
 24 14  1  0
 24 21  1  0
 25  4  1  0
 25  7  1  0
 26  7  1  0
 26 18  1  0
M  END
>  <ID>  (1) 
conformer_0

$$$$
