
     RDKit          3D

 31 32  0  0  0  0  0  0  0  0999 V2000
   30.5871   23.2942    3.0914 C   0  0  0  0  0  0  0  0  0  0  0  0
   30.2111   25.5860    0.7547 C   0  0  0  0  0  0  0  0  0  0  0  0
   28.8012   26.2350    1.0633 C   0  0  0  0  0  0  0  0  0  0  0  0
   33.1350   24.4836    3.2443 C   0  0  0  0  0  0  0  0  0  0  0  0
   35.1388   24.5387    6.6724 C   0  0  0  0  0  0  0  0  0  0  0  0
   32.0988   25.6995    1.3587 C   0  0  0  0  0  0  0  0  0  0  0  0
   32.1564   24.2548    1.3110 C   0  0  0  0  0  0  0  0  0  0  0  0
   33.9167   22.9677    7.1982 C   0  0  0  0  0  0  0  0  0  0  0  0
   28.1161   28.6183   -0.3735 C   0  0  0  0  0  0  0  0  0  0  0  0
   29.0364   27.6413   -1.3015 C   0  0  0  0  0  0  0  0  0  0  0  0
   34.6168   23.8966    7.9741 C   0  0  0  0  0  0  0  0  0  0  0  0
   25.6345   27.9235    1.4751 O   0  0  0  0  0  0  0  0  0  0  0  0
   26.3019   28.3799    0.9571 C   0  0  0  0  0  0  0  0  0  0  0  0
   31.4471   26.8921    3.5441 O   0  0  0  0  0  0  0  0  0  0  0  0
   32.9729   21.6245    6.4002 C   0  0  0  0  0  0  0  0  0  0  0  0
   32.6058   22.3687    4.5667 C   0  0  0  0  0  0  0  0  0  0  0  0
   30.5830   23.3556    6.0016 O   0  0  0  0  0  0  0  0  0  0  0  0
   31.5674   25.9128    3.0423 C   0  0  0  0  0  0  0  0  0  0  0  0
   25.7033   29.1150    0.0421 O   0  0  0  0  0  0  0  0  0  0  0  0
   34.6587   24.5951    8.8496 O   0  0  0  0  0  0  0  0  0  0  0  0
   29.8269   27.4735   -0.1238 C   0  0  0  0  0  0  0  0  0  0  0  0
   27.8012   27.8015    0.8739 C   0  0  0  0  0  0  0  0  0  0  0  0
   31.6118   22.5875    4.7994 C   0  0  0  0  0  0  0  0  0  0  0  0
   34.4846   22.1763    5.2161 C   0  0  0  0  0  0  0  0  0  0  0  0
   30.2938   25.2970    2.6154 C   0  0  0  0  0  0  0  0  0  0  0  0
   35.2162   24.0835    5.0357 C   0  0  0  0  0  0  0  0  0  0  0  0
   34.9195   22.9102    3.7588 C   0  0  0  0  0  0  0  0  0  0  0  0
   33.4151   23.7749    5.2583 C   0  0  0  0  0  0  0  0  0  0  0  0
   28.7100   24.2013    1.8713 C   0  0  0  0  0  0  0  0  0  0  0  0
   29.9661   23.6948    1.4098 C   0  0  0  0  0  0  0  0  0  0  0  0
   31.5786   24.2621    3.6468 C   0  0  0  0  0  0  0  0  0  0  0  0
  3  2  1  0
  7  6  1  0
 10  9  1  0
 11  5  1  0
 11  8  1  0
 13 12  2  0
 15  8  1  0
 18  6  1  0
 18 14  1  0
 19 13  1  0
 20 11  1  0
 21 10  1  0
 22  3  1  0
 22  9  1  0
 22 13  1  0
 23  1  1  0
 23 16  1  0
 23 17  1  0
 25  2  1  0
 25 18  1  0
 26  5  1  0
 27 24  1  0
 27 26  1  0
 28 16  1  0
 28 24  1  0
 28 26  1  0
 30  1  1  0
 30 29  1  0
 31  1  1  0
 31  4  1  0
 31 18  1  0
 31 25  1  0
M  END
>  <ID>  (1) 
conformer_0

$$$$
