
     RDKit          3D

 29 33  0  0  0  0  0  0  0  0999 V2000
   29.8195   26.4574    0.5790 C   0  0  1  0  0  0  0  0  0  0  0  0
   35.4913   23.5558    5.3297 C   0  0  2  0  0  0  0  0  0  0  0  0
   32.4759   24.3436    2.5952 C   0  0  1  0  0  0  0  0  0  0  0  0
   34.2918   24.3097    4.8868 C   0  0  2  0  0  0  0  0  0  0  0  0
   28.9706   24.1020    1.8053 C   0  0  0  0  0  0  0  0  0  0  0  0
   32.6871   23.9155    4.6024 C   0  0  0  0  0  0  0  0  0  0  0  0
   31.3119   24.2119    1.1089 C   0  0  0  0  0  0  0  0  0  0  0  0
   34.2850   22.5333    4.3470 C   0  0  0  0  0  0  0  0  0  0  0  0
   31.5286   25.9263    0.8028 C   0  0  0  0  0  0  0  0  0  0  0  0
   28.6658   27.8474   -0.3801 C   0  0  0  0  0  0  0  0  0  0  0  0
   31.9833   25.8871    2.8050 C   0  0  2  0  0  0  0  0  0  0  0  0
   26.2575   28.3034    1.0657 C   0  0  0  0  0  0  0  0  0  0  0  0
   30.7159   22.9666    6.2978 O   0  0  0  0  0  0  0  0  0  0  0  0
   30.2232   27.5316   -0.5939 C   0  0  0  0  0  0  0  0  0  0  0  0
   34.5562   24.0324    8.1202 C   0  0  2  0  0  0  0  0  0  0  0  0
   31.9308   26.7416    3.3714 O   0  0  0  0  0  0  0  0  0  0  0  0
   35.3942   24.5299    6.8699 C   0  0  2  0  0  0  0  0  0  0  0  0
   34.0294   23.6085    7.0233 C   0  0  1  0  0  0  0  0  0  0  0  0
   25.5152   27.8386    1.5690 O   0  0  0  0  0  0  0  0  0  0  0  0
   34.0108   24.4040    8.9060 O   0  0  0  0  0  0  0  0  0  0  0  0
   25.7659   28.9367    0.3042 O   0  0  0  0  0  0  0  0  0  0  0  0
   27.8433   27.8512    0.9150 C   0  0  0  0  0  0  0  0  0  0  0  0
   31.4153   22.3111    4.9999 C   0  0  1  0  0  0  0  0  0  0  0  0
   30.7437   24.9206    3.0113 C   0  0  1  0  0  0  0  0  0  0  0  0
   29.4213   25.3250    1.3760 C   0  0  0  0  0  0  0  0  0  0  0  0
   33.6224   22.2645    6.3986 C   0  0  0  0  0  0  0  0  0  0  0  0
   30.2826   23.4463    2.8834 C   0  0  2  0  0  0  0  0  0  0  0  0
   31.8949   22.8701    3.8688 C   0  0  1  0  0  0  0  0  0  0  0  0
   32.7061   21.7186    5.5531 C   0  0  0  0  0  0  0  0  0  0  0  0
  4  2  1  0
  4  6  1  1
  3  7  1  6
  2  8  1  1
  8  4  1  0
  9  1  1  0
  9  7  1  0
 11  3  1  0
  1 14  1  6
 14 10  1  0
 11 16  1  1
 17  2  1  0
 17 15  1  1
 18 15  1  0
 18 17  1  0
 19 12  2  0
 15 20  1  6
 21 12  1  0
 22 10  2  3
 22 12  1  0
 23 13  1  1
 24  3  1  0
 24 11  1  6
 25  1  1  0
 25  5  1  0
 18 26  1  1
 27  5  1  6
 27 24  1  0
 28  6  1  1
 28 23  1  0
 28 27  1  0
 29 23  1  0
 29 26  2  0
M  END
>  <ID>  (1) 
conformer_0

$$$$
