
     RDKit          3D

 24 25  0  0  0  0  0  0  0  0999 V2000
   29.7745   24.8163    1.6985 C   0  0  0  0  0  0  0  0  0  0  0  0
   29.4293   23.7978    2.0179 C   0  0  0  0  0  0  0  0  0  0  0  0
   33.0137   22.8793    4.8879 C   0  0  0  0  0  0  0  0  0  0  0  0
   31.6408   24.7165    3.0998 C   0  0  0  0  0  0  0  0  0  0  0  0
   35.0198   24.1890    6.4629 C   0  0  0  0  0  0  0  0  0  0  0  0
   30.9523   25.8038    0.8594 C   0  0  0  0  0  0  0  0  0  0  0  0
   33.1758   21.5988    6.1037 C   0  0  0  0  0  0  0  0  0  0  0  0
   30.8852   23.2555    3.0817 C   0  0  0  0  0  0  0  0  0  0  0  0
   32.1233   24.3968    1.5683 C   0  0  0  0  0  0  0  0  0  0  0  0
   29.1302   26.1855    0.8037 C   0  0  0  0  0  0  0  0  0  0  0  0
   31.9842   26.9332    3.3117 O   0  0  0  0  0  0  0  0  0  0  0  0
   33.5082   24.3710    3.8989 C   0  0  0  0  0  0  0  0  0  0  0  0
   34.2027   24.1840    7.7015 C   0  0  0  0  0  0  0  0  0  0  0  0
   30.4956   23.2366    5.6795 O   0  0  0  0  0  0  0  0  0  0  0  0
   26.6588   28.4976    0.5587 C   0  0  0  0  0  0  0  0  0  0  0  0
   33.8400   24.8288    8.3862 O   0  0  0  0  0  0  0  0  0  0  0  0
   31.8580   25.8890    2.9873 C   0  0  0  0  0  0  0  0  0  0  0  0
   35.0204   24.0225    5.1184 C   0  0  0  0  0  0  0  0  0  0  0  0
   35.1873   22.4968    4.9733 C   0  0  0  0  0  0  0  0  0  0  0  0
   31.2016   22.7409    4.5579 C   0  0  0  0  0  0  0  0  0  0  0  0
   25.8946   28.0944    1.1337 O   0  0  0  0  0  0  0  0  0  0  0  0
   33.9073   22.4983    6.7608 C   0  0  0  0  0  0  0  0  0  0  0  0
   28.2658   27.9317    0.0493 C   0  0  0  0  0  0  0  0  0  0  0  0
   29.4267   27.3343   -0.2083 C   0  0  0  0  0  0  0  0  0  0  0  0
  2  1  1  0
  6  1  1  0
  7  3  1  0
  8  2  1  0
  8  4  1  0
  9  4  1  0
  9  6  1  0
 10  1  1  0
 10  6  1  0
 12  3  1  0
 13  5  1  0
 16 13  1  0
 17  4  1  0
 17 11  1  0
 18  5  1  0
 19 18  1  0
 20  3  1  0
 20  8  1  0
 20 14  1  0
 21 15  2  0
 22  7  1  0
 22 13  1  0
 23 15  1  0
 24 10  1  0
 24 23  1  0
M  END
>  <ID>  (1) 
conformer_0

$$$$
