
     RDKit          3D

 29 33  0  0  0  0  0  0  0  0999 V2000
   33.4044   24.0475    5.0507 C   0  0  0  0  0  0  0  0  0  0  0  0
   35.1227   24.3827    5.0577 C   0  0  0  0  0  0  0  0  0  0  0  0
   34.1082   23.4829    7.0332 C   0  0  0  0  0  0  0  0  0  0  0  0
   33.3300   22.1123    7.0777 C   0  0  0  0  0  0  0  0  0  0  0  0
   30.7464   23.2067    3.1752 C   0  0  0  0  0  0  0  0  0  0  0  0
   32.8396   21.9449    5.7213 C   0  0  0  0  0  0  0  0  0  0  0  0
   33.1302   24.5320    3.3971 C   0  0  0  0  0  0  0  0  0  0  0  0
   32.2662   22.8612    4.0926 C   0  0  0  0  0  0  0  0  0  0  0  0
   35.2452   24.8293    6.6553 C   0  0  0  0  0  0  0  0  0  0  0  0
   31.7241   23.7899    1.6752 C   0  0  0  0  0  0  0  0  0  0  0  0
   32.6271   26.7274    3.1992 O   0  0  0  0  0  0  0  0  0  0  0  0
   33.6281   24.7038    8.7075 O   0  0  0  0  0  0  0  0  0  0  0  0
   29.4491   23.6350    2.0319 C   0  0  0  0  0  0  0  0  0  0  0  0
   34.1338   24.0583    7.9590 C   0  0  0  0  0  0  0  0  0  0  0  0
   26.2069   28.1214    0.8834 O   0  0  0  0  0  0  0  0  0  0  0  0
   30.6613   23.7318    6.1732 O   0  0  0  0  0  0  0  0  0  0  0  0
   31.0711   24.9408    3.0668 C   0  0  0  0  0  0  0  0  0  0  0  0
   26.8797   28.5619    0.2303 C   0  0  0  0  0  0  0  0  0  0  0  0
   31.7978   25.2705    1.0423 C   0  0  0  0  0  0  0  0  0  0  0  0
   32.6834   25.6357    2.9431 C   0  0  0  0  0  0  0  0  0  0  0  0
   28.6878   24.4727    1.7710 C   0  0  0  0  0  0  0  0  0  0  0  0
   26.5685   29.2487   -0.6152 O   0  0  0  0  0  0  0  0  0  0  0  0
   28.2699   28.1954   -0.0759 C   0  0  0  0  0  0  0  0  0  0  0  0
   29.2341   27.8301   -0.9231 C   0  0  0  0  0  0  0  0  0  0  0  0
   34.6095   22.6746    5.0758 C   0  0  0  0  0  0  0  0  0  0  0  0
   31.4173   22.7562    4.9723 C   0  0  0  0  0  0  0  0  0  0  0  0
   30.0984   25.2485    1.1935 C   0  0  0  0  0  0  0  0  0  0  0  0
   30.3856   26.8519   -0.1895 C   0  0  0  0  0  0  0  0  0  0  0  0
   29.0030   26.2847    0.7844 C   0  0  0  0  0  0  0  0  0  0  0  0
  2  1  1  0
  4  3  1  0
  6  4  1  0
  7  1  1  0
  8  1  1  0
  8  5  1  0
  9  2  1  0
  9  3  1  0
 10  5  1  0
 13  5  1  0
 14  3  1  0
 14 12  1  0
 17  5  1  0
 17 10  1  0
 18 15  2  0
 19 10  1  0
 20  7  1  0
 20 11  1  0
 20 17  1  0
 21 13  1  0
 22 18  1  0
 23 18  1  0
 24 23  1  0
 25  1  1  0
 25  2  1  0
 26  6  1  0
 26  8  1  0
 26 16  1  0
 27 19  1  0
 27 21  1  0
 28 24  1  0
 29 27  1  0
 29 28  1  0
M  END
>  <ID>  (1) 
conformer_0

$$$$
