
     RDKit          3D

 23 26  0  0  0  0  0  0  0  0999 V2000
   29.4536   23.8896    1.9348 C   0  0  0  0  0  0  0  0  0  0  0  0
   34.3996   23.7986    5.4039 C   0  0  0  0  0  0  0  0  0  0  0  0
   33.8676   23.8045    4.1820 C   0  0  0  0  0  0  0  0  0  0  0  0
   32.3951   24.4027    2.7520 C   0  0  1  0  0  0  0  0  0  0  0  0
   33.0754   22.0828    5.6842 C   0  0  0  0  0  0  0  0  0  0  0  0
   34.8794   24.6586    6.2571 C   0  0  0  0  0  0  0  0  0  0  0  0
   32.1988   23.3478    4.0463 C   0  0  1  0  0  0  0  0  0  0  0  0
   30.6646   23.6177    2.9264 C   0  0  0  0  0  0  0  0  0  0  0  0
   29.4294   27.3836   -0.1984 C   0  0  0  0  0  0  0  0  0  0  0  0
   33.4040   22.1925    6.7730 C   0  0  0  0  0  0  0  0  0  0  0  0
   28.5952   28.0569    0.2149 C   0  0  0  0  0  0  0  0  0  0  0  0
   30.2044   23.5428    5.7385 O   0  0  0  0  0  0  0  0  0  0  0  0
   34.0155   23.7311    7.7497 C   0  0  2  0  0  0  0  0  0  0  0  0
   32.2389   26.1255    2.4497 C   0  0  1  0  0  0  0  0  0  0  0  0
   33.3548   23.8423    8.6419 O   0  0  0  0  0  0  0  0  0  0  0  0
   26.1144   27.8766    0.8146 O   0  0  0  0  0  0  0  0  0  0  0  0
   26.9213   28.4112    0.4822 C   0  0  0  0  0  0  0  0  0  0  0  0
   30.4028   26.1022    0.6513 C   0  0  0  0  0  0  0  0  0  0  0  0
   31.5032   24.8857    1.5414 C   0  0  2  0  0  0  0  0  0  0  0  0
   26.6296   29.4485   -0.1368 O   0  0  0  0  0  0  0  0  0  0  0  0
   30.7712   22.8101    4.5412 C   0  0  2  0  0  0  0  0  0  0  0  0
   29.1733   25.0670    1.2917 C   0  0  0  0  0  0  0  0  0  0  0  0
   31.8821   26.6916    3.3977 O   0  0  0  0  0  0  0  0  0  0  0  0
  3  2  1  0
  6  2  1  0
  7  3  1  6
  7  4  1  0
  8  1  1  0
  4  8  1  1
  8  7  1  0
 10  5  2  3
 11  9  1  0
 13  6  1  0
 13 10  1  0
 14  4  1  0
 13 15  1  6
 17 11  1  0
 17 16  2  0
 18  9  1  0
 19  4  1  0
 19 14  1  0
 19 18  1  1
 20 17  1  0
 21  7  1  0
 21  8  1  0
 21 12  1  1
 22  1  1  0
 22 18  2  0
 14 23  1  1
M  END
>  <ID>  (1) 
conformer_0

$$$$
