
     RDKit          3D

 26 27  0  0  0  0  0  0  0  0999 V2000
   29.4075   25.2522    1.2335 C   0  0  0  0  0  0  0  0  0  0  0  0
   30.1872   23.5401    2.6718 C   0  0  0  0  0  0  0  0  0  0  0  0
   33.2615   24.6612    3.1737 C   0  0  0  0  0  0  0  0  0  0  0  0
   31.7376   24.6332    1.3880 C   0  0  0  0  0  0  0  0  0  0  0  0
   31.6977   23.1739    3.8307 C   0  0  0  0  0  0  0  0  0  0  0  0
   33.0291   21.9707    6.4211 C   0  0  0  0  0  0  0  0  0  0  0  0
   28.2739   27.8589    0.3403 C   0  0  0  0  0  0  0  0  0  0  0  0
   33.6183   22.0860    4.9782 C   0  0  0  0  0  0  0  0  0  0  0  0
   28.8390   26.8092    0.5953 C   0  0  0  0  0  0  0  0  0  0  0  0
   35.5353   24.4598    6.5000 C   0  0  0  0  0  0  0  0  0  0  0  0
   26.5095   28.3073    0.7213 C   0  0  0  0  0  0  0  0  0  0  0  0
   33.1140   26.7175    2.9299 O   0  0  0  0  0  0  0  0  0  0  0  0
   32.5276   25.7937    2.8353 C   0  0  0  0  0  0  0  0  0  0  0  0
   34.0414   23.2156    7.6404 C   0  0  0  0  0  0  0  0  0  0  0  0
   34.9889   24.1533    8.7283 O   0  0  0  0  0  0  0  0  0  0  0  0
   25.7948   27.9681    1.2721 O   0  0  0  0  0  0  0  0  0  0  0  0
   30.8700   23.0205    6.5460 O   0  0  0  0  0  0  0  0  0  0  0  0
   26.2661   29.0643   -0.2507 O   0  0  0  0  0  0  0  0  0  0  0  0
   34.5977   23.0411    6.2866 C   0  0  0  0  0  0  0  0  0  0  0  0
   34.9452   23.8525    4.7154 C   0  0  0  0  0  0  0  0  0  0  0  0
   33.2377   23.7454    4.5301 C   0  0  0  0  0  0  0  0  0  0  0  0
   29.3455   24.0143    1.4408 C   0  0  0  0  0  0  0  0  0  0  0  0
   31.0615   26.3519    0.8470 C   0  0  0  0  0  0  0  0  0  0  0  0
   30.0178   27.7653   -0.4213 C   0  0  0  0  0  0  0  0  0  0  0  0
   31.2191   26.9451    3.8994 O   0  0  0  0  0  0  0  0  0  0  0  0
   31.2458   24.8189    2.8035 C   0  0  0  0  0  0  0  0  0  0  0  0
  5  2  1  0
  8  6  1  0
  9  1  1  0
  9  7  1  0
 11  7  1  0
 13  3  1  0
 13 12  1  0
 15 14  1  0
 16 11  2  0
 17  6  1  0
 18 11  1  0
 19  8  1  0
 19 10  1  0
 19 14  1  0
 20 19  1  0
 21  3  1  0
 21  5  1  0
 21  8  1  0
 21 20  1  0
 22  1  1  0
 22  2  1  0
 23  4  1  0
 24  9  1  0
 25 13  1  0
 26  2  1  0
 26  4  1  0
 26 13  1  0
M  END
>  <ID>  (1) 
conformer_0

$$$$
