
     RDKit          3D

 30 33  0  0  0  0  0  0  0  0999 V2000
   34.5401   23.1001    3.9508 C   0  0  0  0  0  0  0  0  0  0  0  0
   33.4529   24.5217    3.3219 C   0  0  0  0  0  0  0  0  0  0  0  0
   32.1032   23.0620    3.6162 C   0  0  0  0  0  0  0  0  0  0  0  0
   30.1941   23.4967    2.7920 C   0  0  0  0  0  0  0  0  0  0  0  0
   32.5215   21.6653    5.5479 C   0  0  0  0  0  0  0  0  0  0  0  0
   28.7024   23.9393    1.9800 C   0  0  0  0  0  0  0  0  0  0  0  0
   34.3759   22.1053    5.6728 C   0  0  0  0  0  0  0  0  0  0  0  0
   30.9190   23.9911    1.1347 C   0  0  0  0  0  0  0  0  0  0  0  0
   33.1593   23.5028    5.2149 C   0  0  0  0  0  0  0  0  0  0  0  0
   31.9874   26.0921    2.7345 C   0  0  0  0  0  0  0  0  0  0  0  0
   26.4383   27.8031    1.5620 O   0  0  0  0  0  0  0  0  0  0  0  0
   29.4830   22.1439    4.6418 O   0  0  0  0  0  0  0  0  0  0  0  0
   27.0525   28.0976    0.8210 C   0  0  0  0  0  0  0  0  0  0  0  0
   32.4567   24.6110    1.4211 C   0  0  0  0  0  0  0  0  0  0  0  0
   34.2584   24.4965    7.8853 C   0  0  0  0  0  0  0  0  0  0  0  0
   31.0540   22.3109    4.3551 C   0  0  0  0  0  0  0  0  0  0  0  0
   33.8149   25.1656    8.3317 O   0  0  0  0  0  0  0  0  0  0  0  0
   31.6145   26.9365    3.5772 O   0  0  0  0  0  0  0  0  0  0  0  0
   35.2132   23.9326    5.5411 C   0  0  0  0  0  0  0  0  0  0  0  0
   26.5829   28.6132   -0.2723 O   0  0  0  0  0  0  0  0  0  0  0  0
   31.4952   24.5465    3.1160 C   0  0  0  0  0  0  0  0  0  0  0  0
   29.2540   25.0812    1.5605 C   0  0  0  0  0  0  0  0  0  0  0  0
   30.6748   25.8803    1.7102 C   0  0  0  0  0  0  0  0  0  0  0  0
   28.8832   27.1335    1.1822 C   0  0  0  0  0  0  0  0  0  0  0  0
   28.8565   28.1948    0.3770 C   0  0  0  0  0  0  0  0  0  0  0  0
   30.9145   26.5788    0.3222 C   0  0  0  0  0  0  0  0  0  0  0  0
   30.3328   27.9767   -0.2073 C   0  0  0  0  0  0  0  0  0  0  0  0
   30.2264   23.2108    5.7520 O   0  0  0  0  0  0  0  0  0  0  0  0
   33.7476   23.1742    6.9931 C   0  0  0  0  0  0  0  0  0  0  0  0
   35.2844   24.5919    6.9074 C   0  0  0  0  0  0  0  0  0  0  0  0
  2  1  1  0
  6  4  1  0
  7  5  1  0
  8  4  1  0
  9  1  1  0
  9  3  1  0
  9  7  1  0
 13 11  2  0
 14  8  1  0
 16  3  1  0
 16 12  1  0
 17 15  1  0
 18 10  1  0
 19  1  1  0
 20 13  1  0
 21  3  1  0
 21  4  1  0
 21 10  1  0
 21 14  1  0
 22  6  1  0
 23 10  1  0
 23 22  1  0
 25 13  1  0
 25 24  1  0
 26 23  1  0
 27 25  1  0
 27 26  1  0
 28 16  1  0
 29  7  1  0
 29  9  1  0
 29 15  1  0
 30 15  1  0
 30 19  1  0
M  END
>  <ID>  (1) 
conformer_0

$$$$
