
     RDKit          3D

 31 36  0  0  0  0  0  0  0  0999 V2000
   30.6928   24.9862    2.8413 C   0  0  0  0  0  0  0  0  0  0  0  0
   35.1019   25.1571    6.1939 C   0  0  0  0  0  0  0  0  0  0  0  0
   32.4108   21.1295    5.8348 C   0  0  0  0  0  0  0  0  0  0  0  0
   32.5534   24.1255    1.9341 C   0  0  0  0  0  0  0  0  0  0  0  0
   30.3026   23.2052    2.9673 C   0  0  0  0  0  0  0  0  0  0  0  0
   28.8467   24.0419    1.8876 C   0  0  0  0  0  0  0  0  0  0  0  0
   33.5983   21.9466    6.5212 C   0  0  0  0  0  0  0  0  0  0  0  0
   31.6299   25.6803    1.0102 C   0  0  0  0  0  0  0  0  0  0  0  0
   34.4778   24.5016    7.7273 C   0  0  0  0  0  0  0  0  0  0  0  0
   30.6757   23.9931    1.3526 C   0  0  0  0  0  0  0  0  0  0  0  0
   28.1378   28.2136   -0.6857 C   0  0  0  0  0  0  0  0  0  0  0  0
   26.5497   28.3372    0.7436 C   0  0  0  0  0  0  0  0  0  0  0  0
   33.0308   23.8443    8.4513 O   0  0  0  0  0  0  0  0  0  0  0  0
   32.2551   26.7663    3.5899 O   0  0  0  0  0  0  0  0  0  0  0  0
   32.3246   25.6816    3.0185 C   0  0  0  0  0  0  0  0  0  0  0  0
   26.1188   27.7640    1.0271 O   0  0  0  0  0  0  0  0  0  0  0  0
   29.8021   22.5905    5.0248 O   0  0  0  0  0  0  0  0  0  0  0  0
   29.2201   25.6207    1.5408 C   0  0  0  0  0  0  0  0  0  0  0  0
   28.2484   27.7877    0.7743 C   0  0  0  0  0  0  0  0  0  0  0  0
   30.4872   22.6158    4.2427 C   0  0  0  0  0  0  0  0  0  0  0  0
   33.7736   23.7247    7.8089 C   0  0  0  0  0  0  0  0  0  0  0  0
   33.3896   24.6221    3.7915 C   0  0  0  0  0  0  0  0  0  0  0  0
   35.4668   23.5751    5.8376 C   0  0  0  0  0  0  0  0  0  0  0  0
   31.8111   23.6561    3.8005 C   0  0  0  0  0  0  0  0  0  0  0  0
   29.6747   26.3377    0.5936 C   0  0  0  0  0  0  0  0  0  0  0  0
   29.6497   27.8623   -1.1261 C   0  0  0  0  0  0  0  0  0  0  0  0
   30.6192   27.4666    0.2095 C   0  0  0  0  0  0  0  0  0  0  0  0
   33.6387   23.7677    5.8323 C   0  0  0  0  0  0  0  0  0  0  0  0
   32.7128   22.5537    4.6805 C   0  0  0  0  0  0  0  0  0  0  0  0
   34.7212   21.9469    5.1128 C   0  0  0  0  0  0  0  0  0  0  0  0
   34.7408   23.6797    4.1250 C   0  0  0  0  0  0  0  0  0  0  0  0
  5  1  1  0
  7  3  1  0
  9  2  1  0
 10  1  1  0
 10  5  1  0
 10  6  1  0
 10  8  1  0
 15  1  1  0
 15  4  1  0
 15 14  1  0
 16 12  1  0
 18  6  1  0
 19 11  1  0
 19 12  1  0
 20  5  1  0
 20 17  1  0
 21  9  1  0
 21 13  1  0
 22 15  1  0
 23  2  1  0
 24  5  1  0
 24 20  1  0
 24 22  1  0
 25 18  1  0
 26 11  1  0
 27 25  1  0
 27 26  1  0
 28  7  1  0
 28 23  1  0
 29  3  1  0
 29 24  1  0
 29 28  1  0
 30  7  1  0
 30 23  1  0
 31 22  1  0
 31 23  1  0
M  END
>  <ID>  (1) 
conformer_0

$$$$
