
     RDKit          3D

 28 31  0  0  0  0  0  0  0  0999 V2000
   32.5061   21.4354    5.4449 C   0  0  0  0  0  0  0  0  0  0  0  0
   33.7474   21.9109    6.4970 C   0  0  0  0  0  0  0  0  0  0  0  0
   32.1515   23.0109    4.1960 C   0  0  0  0  0  0  0  0  0  0  0  0
   33.2859   24.3121    3.4625 C   0  0  0  0  0  0  0  0  0  0  0  0
   34.7089   23.7337    7.0150 C   0  0  0  0  0  0  0  0  0  0  0  0
   30.4294   25.4476    1.8612 C   0  0  0  0  0  0  0  0  0  0  0  0
   34.8975   22.5726    5.0079 C   0  0  0  0  0  0  0  0  0  0  0  0
   35.3621   24.4990    5.9622 C   0  0  0  0  0  0  0  0  0  0  0  0
   32.0492   24.6461    1.5616 C   0  0  0  0  0  0  0  0  0  0  0  0
   25.9991   27.9500    1.3714 O   0  0  0  0  0  0  0  0  0  0  0  0
   32.2037   25.7490    2.7408 C   0  0  0  0  0  0  0  0  0  0  0  0
   30.5414   26.3848    0.3292 C   0  0  0  0  0  0  0  0  0  0  0  0
   32.3946   26.7647    3.1487 O   0  0  0  0  0  0  0  0  0  0  0  0
   26.0885   29.2169   -0.2993 O   0  0  0  0  0  0  0  0  0  0  0  0
   26.5929   28.4166    0.6084 C   0  0  0  0  0  0  0  0  0  0  0  0
   30.2457   22.9586    5.7560 O   0  0  0  0  0  0  0  0  0  0  0  0
   34.3697   24.5451    7.8561 C   0  0  0  0  0  0  0  0  0  0  0  0
   33.9929   24.8404    8.6205 O   0  0  0  0  0  0  0  0  0  0  0  0
   29.2305   27.7466   -0.4282 C   0  0  0  0  0  0  0  0  0  0  0  0
   33.2946   23.1750    5.6172 C   0  0  0  0  0  0  0  0  0  0  0  0
   34.8079   23.6400    3.9989 C   0  0  0  0  0  0  0  0  0  0  0  0
   31.1526   22.9641    4.8576 C   0  0  0  0  0  0  0  0  0  0  0  0
   28.1134   28.0854    0.1755 C   0  0  0  0  0  0  0  0  0  0  0  0
   28.9456   26.3292    0.6877 C   0  0  0  0  0  0  0  0  0  0  0  0
   31.2677   24.5748    3.4572 C   0  0  0  0  0  0  0  0  0  0  0  0
   29.8939   24.1512    1.1385 C   0  0  0  0  0  0  0  0  0  0  0  0
   30.3461   23.3644    2.8547 C   0  0  0  0  0  0  0  0  0  0  0  0
   28.7769   24.0582    1.9713 C   0  0  0  0  0  0  0  0  0  0  0  0
  2  1  1  0
  4  3  1  0
  5  2  1  0
  8  5  1  0
  9  6  1  0
 11  4  1  0
 11  9  1  0
 12  6  1  0
 13 11  1  0
 15 10  2  0
 15 14  1  0
 17  5  1  0
 18 17  1  0
 20  1  1  0
 20  2  1  0
 20  3  1  0
 20  7  1  0
 21  4  1  0
 21  7  1  0
 22  3  1  0
 22 16  1  0
 23 15  1  0
 23 19  1  0
 24 12  1  0
 24 19  1  0
 25  3  1  0
 25 11  1  0
 26  6  1  0
 27 25  1  0
 28 26  1  0
 28 27  1  0
M  END
>  <ID>  (1) 
conformer_0

$$$$
