
     RDKit          3D

 29 33  0  0  0  0  0  0  0  0999 V2000
   32.7495   22.8867    4.2882 C   0  0  0  0  0  0  0  0  0  0  0  0
   33.2913   24.3762    2.7275 C   0  0  0  0  0  0  0  0  0  0  0  0
   34.1574   24.5390    4.1565 C   0  0  0  0  0  0  0  0  0  0  0  0
   33.5765   22.5564    7.0525 C   0  0  0  0  0  0  0  0  0  0  0  0
   31.1831   25.4119    1.3573 C   0  0  0  0  0  0  0  0  0  0  0  0
   35.3946   24.0339    5.6688 C   0  0  0  0  0  0  0  0  0  0  0  0
   31.4700   23.8507    1.4927 C   0  0  0  0  0  0  0  0  0  0  0  0
   32.7425   21.7533    5.9812 C   0  0  0  0  0  0  0  0  0  0  0  0
   27.8697   28.0275    1.0326 C   0  0  0  0  0  0  0  0  0  0  0  0
   35.0371   24.8094    6.9585 C   0  0  0  0  0  0  0  0  0  0  0  0
   34.0721   24.4087    7.7753 C   0  0  0  0  0  0  0  0  0  0  0  0
   32.1563   26.5282    3.3553 O   0  0  0  0  0  0  0  0  0  0  0  0
   26.1335   28.5193    0.1437 O   0  0  0  0  0  0  0  0  0  0  0  0
   29.4623   27.4394    0.6008 C   0  0  0  0  0  0  0  0  0  0  0  0
   30.4294   23.0388    6.1814 O   0  0  0  0  0  0  0  0  0  0  0  0
   26.4542   28.4934    0.4429 C   0  0  0  0  0  0  0  0  0  0  0  0
   34.0605   25.0310    8.5839 O   0  0  0  0  0  0  0  0  0  0  0  0
   32.2398   25.6471    2.7515 C   0  0  0  0  0  0  0  0  0  0  0  0
   29.0003   24.1582    1.9785 C   0  0  0  0  0  0  0  0  0  0  0  0
   35.0508   22.9375    3.8369 C   0  0  0  0  0  0  0  0  0  0  0  0
   34.6611   22.1221    5.2468 C   0  0  0  0  0  0  0  0  0  0  0  0
   33.5826   23.7601    5.8465 C   0  0  0  0  0  0  0  0  0  0  0  0
   31.3268   22.6080    5.2000 C   0  0  0  0  0  0  0  0  0  0  0  0
   30.5053   27.4212   -0.6022 C   0  0  0  0  0  0  0  0  0  0  0  0
   28.7245   28.0909   -0.6623 C   0  0  0  0  0  0  0  0  0  0  0  0
   29.4790   25.7206    0.8623 C   0  0  0  0  0  0  0  0  0  0  0  0
   30.5050   23.1581    3.0404 C   0  0  0  0  0  0  0  0  0  0  0  0
   31.6570   24.2298    3.3901 C   0  0  0  0  0  0  0  0  0  0  0  0
   29.6955   23.6349    1.0488 C   0  0  0  0  0  0  0  0  0  0  0  0
  3  2  1  0
  7  5  1  0
  8  4  1  0
 10  6  1  0
 11 10  1  0
 14  9  1  0
 16  9  1  0
 16 13  1  0
 17 11  1  0
 18  2  1  0
 18  5  1  0
 18 12  1  0
 20  3  1  0
 21 20  1  0
 22  3  1  0
 22  4  1  0
 22  6  1  0
 23  1  1  0
 23  8  1  0
 23 15  1  0
 24 14  1  0
 25  9  1  0
 25 14  1  0
 25 24  1  0
 26  5  1  0
 26 14  1  0
 27  7  1  0
 28  2  1  0
 28  7  1  0
 28 18  1  0
 28 27  1  0
 29  7  1  0
 29 19  1  0
M  END
>  <ID>  (1) 
conformer_0

$$$$
