
     RDKit          3D

 28 32  0  0  0  0  0  0  0  0999 V2000
   28.9588   24.5086    1.8025 C   0  0  0  0  0  0  0  0  0  0  0  0
   30.8543   24.1476    1.1851 C   0  0  0  0  0  0  0  0  0  0  0  0
   30.9597   24.2538    3.2327 C   0  0  0  0  0  0  0  0  0  0  0  0
   31.4741   25.6010    0.9746 C   0  0  2  0  0  0  0  0  0  0  0  0
   34.7269   24.8008    6.5572 C   0  0  0  0  0  0  0  0  0  0  0  0
   30.5476   26.9962    0.3309 C   0  0  1  0  0  0  0  0  0  0  0  0
   33.8025   23.0306    6.6756 C   0  0  0  0  0  0  0  0  0  0  0  0
   29.6247   27.6893   -0.4603 C   0  0  0  0  0  0  0  0  0  0  0  0
   32.4714   24.6449    2.7393 C   0  0  1  0  0  0  0  0  0  0  0  0
   32.2000   22.8453    4.3618 C   0  0  0  0  0  0  0  0  0  0  0  0
   30.1644   22.5698    5.4307 O   0  0  0  0  0  0  0  0  0  0  0  0
   31.0987   22.3009    4.4614 C   0  0  0  0  0  0  0  0  0  0  0  0
   34.6414   24.0667    4.6711 C   0  0  0  0  0  0  0  0  0  0  0  0
   26.6330   28.3224    1.0351 C   0  0  0  0  0  0  0  0  0  0  0  0
   25.9405   28.0986    1.8776 O   0  0  0  0  0  0  0  0  0  0  0  0
   34.2647   24.7609    8.5564 O   0  0  0  0  0  0  0  0  0  0  0  0
   34.3583   24.4655    7.5352 C   0  0  0  0  0  0  0  0  0  0  0  0
   26.1467   29.0525    0.3012 O   0  0  0  0  0  0  0  0  0  0  0  0
   32.1575   26.7521    3.1782 O   0  0  0  0  0  0  0  0  0  0  0  0
   33.0480   21.7004    6.2736 C   0  0  0  0  0  0  0  0  0  0  0  0
   33.8618   22.0350    5.2084 C   0  0  2  0  0  0  0  0  0  0  0  0
   28.4205   28.3734    0.3899 C   0  0  1  0  0  0  0  0  0  0  0  0
   32.0567   25.8664    2.5772 C   0  0  1  0  0  0  0  0  0  0  0  0
   29.6260   25.7053    1.3538 C   0  0  1  0  0  0  0  0  0  0  0  0
   28.3251   27.1775    1.2686 C   0  0  0  0  0  0  0  0  0  0  0  0
   35.0930   22.4286    4.4183 C   0  0  0  0  0  0  0  0  0  0  0  0
   30.1075   23.4286    2.6412 C   0  0  1  0  0  0  0  0  0  0  0  0
   33.2955   24.2206    4.4277 C   0  0  1  0  0  0  0  0  0  0  0  0
  4  2  1  1
  6  4  1  0
  6  8  1  6
  9  3  1  1
 12 10  1  0
 12 11  1  0
 15 14  2  0
 17  5  2  3
 17  7  1  0
 17 16  1  0
 18 14  1  0
 20  7  1  0
 21  7  1  0
 21 20  1  0
 22  8  1  0
 22 14  1  6
 23  4  1  0
 23  9  1  0
 23 19  1  6
 24  1  1  6
 24  4  1  0
 24  6  1  0
 25 22  1  0
 25 24  1  0
 26 13  1  0
 21 26  1  1
 27  1  1  6
 27  2  1  0
 27  3  1  0
 28  9  1  0
 28 10  1  6
 28 13  1  0
M  END
>  <ID>  (1) 
conformer_0

$$$$
