
     RDKit          3D

 24 24  0  0  0  0  0  0  0  0999 V2000
   34.6356   24.2992    6.7972 C   0  0  0  0  0  0  0  0  0  0  0  0
   34.7789   24.3075    5.2816 C   0  0  0  0  0  0  0  0  0  0  0  0
   30.9038   23.5264    2.8149 C   0  0  0  0  0  0  0  0  0  0  0  0
   32.9489   21.6687    5.4741 C   0  0  0  0  0  0  0  0  0  0  0  0
   33.1346   24.3155    3.7224 C   0  0  0  0  0  0  0  0  0  0  0  0
   32.3296   23.0816    3.9616 C   0  0  0  0  0  0  0  0  0  0  0  0
   33.7651   22.1946    6.4055 C   0  0  0  0  0  0  0  0  0  0  0  0
   30.6425   26.6677    0.6556 C   0  0  0  0  0  0  0  0  0  0  0  0
   32.2576   26.0119    2.6749 C   0  0  0  0  0  0  0  0  0  0  0  0
   33.8563   24.0774    8.2508 C   0  0  0  0  0  0  0  0  0  0  0  0
   28.3889   27.7660    0.2681 C   0  0  0  0  0  0  0  0  0  0  0  0
   30.5576   22.6597    5.6925 O   0  0  0  0  0  0  0  0  0  0  0  0
   31.9532   26.9571    3.4114 O   0  0  0  0  0  0  0  0  0  0  0  0
   26.6639   28.3421    0.3290 C   0  0  0  0  0  0  0  0  0  0  0  0
   26.0989   27.8181    1.0634 O   0  0  0  0  0  0  0  0  0  0  0  0
   31.9821   24.3611    1.5666 C   0  0  0  0  0  0  0  0  0  0  0  0
   31.5664   22.4443    4.7808 C   0  0  0  0  0  0  0  0  0  0  0  0
   26.4121   28.9143   -0.6667 O   0  0  0  0  0  0  0  0  0  0  0  0
   30.8083   24.9508    2.3080 C   0  0  0  0  0  0  0  0  0  0  0  0
   29.3787   24.2535    1.5347 C   0  0  0  0  0  0  0  0  0  0  0  0
   33.6793   24.4053    8.8759 O   0  0  0  0  0  0  0  0  0  0  0  0
   28.9923   25.6304    1.1254 C   0  0  0  0  0  0  0  0  0  0  0  0
   29.4408   27.8345   -0.1371 C   0  0  0  0  0  0  0  0  0  0  0  0
   34.4264   23.0200    5.0201 C   0  0  0  0  0  0  0  0  0  0  0  0
  2  1  1  0
  6  3  1  0
  6  5  1  0
  7  4  1  0
 10  1  1  0
 13  9  1  0
 14 11  1  0
 15 14  2  0
 16  3  1  0
 17  4  1  0
 17  6  1  0
 17 12  1  0
 18 14  1  0
 19  3  1  0
 19  9  1  0
 19 16  1  0
 20 19  1  0
 21 10  1  0
 22  8  1  0
 22 20  1  0
 23  8  1  0
 23 11  1  0
 24  2  1  0
 24  7  1  0
M  END
>  <ID>  (1) 
conformer_0

$$$$
