
     RDKit          3D

 27 28  0  0  0  0  0  0  0  0999 V2000
   31.4807   23.3126    3.6335 C   0  0  2  0  0  0  0  0  0  0  0  0
   32.9728   21.8957    5.7863 C   0  0  0  0  0  0  0  0  0  0  0  0
   33.5778   24.3330    3.2753 C   0  0  0  0  0  0  0  0  0  0  0  0
   32.1516   24.7520    1.2983 C   0  0  0  0  0  0  0  0  0  0  0  0
   33.6317   21.9758    6.9204 C   0  0  0  0  0  0  0  0  0  0  0  0
   30.8374   26.7258    0.7447 C   0  0  0  0  0  0  0  0  0  0  0  0
   34.8888   22.2581    4.8591 C   0  0  0  0  0  0  0  0  0  0  0  0
   35.2092   24.8774    6.4693 C   0  0  2  0  0  0  0  0  0  0  0  0
   34.2218   24.2359    8.0050 C   0  0  1  0  0  0  0  0  0  0  0  0
   32.0502   26.1156    2.2799 C   0  0  2  0  0  0  0  0  0  0  0  0
   33.2427   23.5434    4.6543 C   0  0  2  0  0  0  0  0  0  0  0  0
   31.1046   22.6776    4.5779 C   0  0  0  0  0  0  0  0  0  0  0  0
   30.3692   23.0420    5.7948 O   0  0  0  0  0  0  0  0  0  0  0  0
   33.7914   24.7593    8.8218 O   0  0  0  0  0  0  0  0  0  0  0  0
   35.1369   24.1646    4.8181 C   0  0  2  0  0  0  0  0  0  0  0  0
   32.0440   27.0315    2.9968 O   0  0  0  0  0  0  0  0  0  0  0  0
   26.0172   27.7331    1.3930 O   0  0  0  0  0  0  0  0  0  0  0  0
   26.6639   28.3033    0.5420 C   0  0  0  0  0  0  0  0  0  0  0  0
   31.5720   24.6305    2.6230 C   0  0  2  0  0  0  0  0  0  0  0  0
   29.7325   28.3696    0.4877 C   0  0  0  0  0  0  0  0  0  0  0  0
   34.3547   23.5251    6.6684 C   0  0  2  0  0  0  0  0  0  0  0  0
   26.1142   29.0559   -0.5228 O   0  0  0  0  0  0  0  0  0  0  0  0
   28.6848   26.5380    0.9166 C   0  0  0  0  0  0  0  0  0  0  0  0
   28.1592   28.0961    0.4584 C   0  0  1  0  0  0  0  0  0  0  0  0
   29.8792   25.3681    1.3814 C   0  0  0  0  0  0  0  0  0  0  0  0
   30.0372   23.3527    2.5957 C   0  0  0  0  0  0  0  0  0  0  0  0
   29.1736   24.1699    1.7476 C   0  0  0  0  0  0  0  0  0  0  0  0
  5  2  1  0
  9  8  1  0
 10  4  1  0
 11  1  1  0
 11  3  1  1
  1 12  1  1
 13 12  1  0
  9 14  1  6
 15  7  1  1
  8 15  1  6
 15 11  1  0
 10 16  1  1
 18 17  2  0
 19  1  1  0
 19  4  1  6
 19 10  1  0
 21  5  1  1
 21  8  1  0
 21  9  1  0
 22 18  1  0
 24 18  1  0
 24 20  1  1
 24 23  1  0
 25  6  1  0
 25 23  2  3
 26  1  1  0
 27 25  1  0
 27 26  1  0
M  END
>  <ID>  (1) 
conformer_0

$$$$
