
     RDKit          3D

 23 26  0  0  0  0  0  0  0  0999 V2000
   30.4063   23.5788    2.8449 C   0  0  0  0  0  0  0  0  0  0  0  0
   34.6063   24.0194    4.5867 C   0  0  0  0  0  0  0  0  0  0  0  0
   34.2064   22.7527    6.7427 C   0  0  0  0  0  0  0  0  0  0  0  0
   33.1102   24.2714    3.6459 C   0  0  0  0  0  0  0  0  0  0  0  0
   31.5798   24.4459    2.8936 C   0  0  0  0  0  0  0  0  0  0  0  0
   29.0741   23.9405    1.8510 C   0  0  0  0  0  0  0  0  0  0  0  0
   34.7752   22.7208    4.8145 C   0  0  0  0  0  0  0  0  0  0  0  0
   29.5003   25.0579    1.2401 C   0  0  0  0  0  0  0  0  0  0  0  0
   35.3380   24.5017    6.2615 C   0  0  0  0  0  0  0  0  0  0  0  0
   29.3630   27.5557   -0.0783 C   0  0  0  0  0  0  0  0  0  0  0  0
   34.4903   24.2130    7.7190 C   0  0  0  0  0  0  0  0  0  0  0  0
   30.2744   23.2411    5.4792 O   0  0  0  0  0  0  0  0  0  0  0  0
   32.4350   22.8341    4.5983 C   0  0  0  0  0  0  0  0  0  0  0  0
   34.2575   24.9324    8.4451 O   0  0  0  0  0  0  0  0  0  0  0  0
   26.3055   28.5528    0.5779 C   0  0  0  0  0  0  0  0  0  0  0  0
   32.1831   26.6972    3.2771 O   0  0  0  0  0  0  0  0  0  0  0  0
   33.3569   22.0352    6.1328 C   0  0  0  0  0  0  0  0  0  0  0  0
   31.1065   22.9045    4.6162 C   0  0  0  0  0  0  0  0  0  0  0  0
   28.1321   28.0514    0.1692 C   0  0  0  0  0  0  0  0  0  0  0  0
   25.5335   28.3519    0.6777 O   0  0  0  0  0  0  0  0  0  0  0  0
   32.2490   25.6381    2.8865 C   0  0  0  0  0  0  0  0  0  0  0  0
   31.3205   25.0435    1.1866 C   0  0  0  0  0  0  0  0  0  0  0  0
   30.3442   26.4124    0.3936 C   0  0  0  0  0  0  0  0  0  0  0  0
  4  2  1  0
  5  1  1  0
  5  4  1  0
  6  1  1  0
  7  2  1  0
  8  6  1  0
  9  2  1  0
 11  3  1  0
 11  9  1  0
 13  4  1  0
 14 11  1  0
 17  3  1  0
 17 13  1  0
 18 12  1  0
 18 13  1  0
 19 10  2  0
 19 15  2  0
 20 15  1  0
 21  4  1  0
 21  5  1  0
 21 16  1  0
 22  5  1  0
 22  8  1  0
 23  8  1  0
 23 10  1  0
 23 22  1  0
M  END
>  <ID>  (1) 
conformer_0

$$$$
