
     RDKit          3D

 25 27  0  0  0  0  0  0  0  0999 V2000
   29.4067   25.5743    1.5802 C   0  0  0  0  0  0  0  0  0  0  0  0
   33.6015   22.7333    6.6840 C   0  0  0  0  0  0  0  0  0  0  0  0
   32.8872   23.9481    3.7290 C   0  0  0  0  0  0  0  0  0  0  0  0
   30.9418   23.5048    3.1706 C   0  0  0  0  0  0  0  0  0  0  0  0
   29.3463   24.0738    1.9973 C   0  0  0  0  0  0  0  0  0  0  0  0
   32.8016   21.6941    6.3614 C   0  0  0  0  0  0  0  0  0  0  0  0
   31.1232   24.3673    2.1527 C   0  0  0  0  0  0  0  0  0  0  0  0
   34.9566   24.0474    4.8728 C   0  0  0  0  0  0  0  0  0  0  0  0
   31.3192   25.3862    1.0929 C   0  0  0  0  0  0  0  0  0  0  0  0
   32.2994   25.6671    2.7036 C   0  0  0  0  0  0  0  0  0  0  0  0
   32.5453   26.6320    3.2251 O   0  0  0  0  0  0  0  0  0  0  0  0
   26.8896   28.7451    0.2930 C   0  0  0  0  0  0  0  0  0  0  0  0
   30.4323   26.7867    0.2260 C   0  0  0  0  0  0  0  0  0  0  0  0
   29.5558   22.3604    5.0671 O   0  0  0  0  0  0  0  0  0  0  0  0
   33.9398   24.3830    8.2098 O   0  0  0  0  0  0  0  0  0  0  0  0
   34.1619   23.7750    7.3973 C   0  0  0  0  0  0  0  0  0  0  0  0
   26.1577   28.1418    0.7014 O   0  0  0  0  0  0  0  0  0  0  0  0
   30.8059   22.4509    4.7080 C   0  0  0  0  0  0  0  0  0  0  0  0
   34.1547   23.0986    4.8827 C   0  0  0  0  0  0  0  0  0  0  0  0
   29.5134   27.7431   -0.3517 C   0  0  0  0  0  0  0  0  0  0  0  0
   26.3420   29.7731   -0.0962 O   0  0  0  0  0  0  0  0  0  0  0  0
   28.4257   28.6720   -0.0126 C   0  0  0  0  0  0  0  0  0  0  0  0
   35.4950   24.4918    6.2261 C   0  0  0  0  0  0  0  0  0  0  0  0
   32.3495   22.3243    4.7984 C   0  0  0  0  0  0  0  0  0  0  0  0
   30.6080   22.9881    6.6523 O   0  0  0  0  0  0  0  0  0  0  0  0
  5  1  1  0
  6  2  1  0
  7  4  1  0
  7  5  1  0
  9  7  1  0
 10  7  1  0
 10  9  1  0
 11 10  1  0
 13  9  1  0
 16  2  1  0
 16 15  1  0
 17 12  2  0
 18  4  1  0
 18 14  1  0
 19  2  1  0
 19  3  1  0
 19  8  1  0
 20 13  1  0
 21 12  1  0
 22 12  1  0
 22 20  1  0
 23  8  1  0
 23 16  1  0
 24  6  1  0
 24 18  1  0
 24 19  1  0
 25 18  1  0
M  END
>  <ID>  (1) 
conformer_0

$$$$
