
     RDKit          3D

 31 35  0  0  0  0  0  0  0  0999 V2000
   35.2038   24.6409    6.3915 C   0  0  0  0  0  0  0  0  0  0  0  0
   35.4807   24.2426    5.1561 C   0  0  0  0  0  0  0  0  0  0  0  0
   32.2522   24.9382    2.6238 C   0  0  0  0  0  0  0  0  0  0  0  0
   29.1507   26.3110    0.8229 C   0  0  0  0  0  0  0  0  0  0  0  0
   31.0937   23.5219    3.3521 C   0  0  0  0  0  0  0  0  0  0  0  0
   34.1490   23.2800    7.1931 C   0  0  0  0  0  0  0  0  0  0  0  0
   28.9235   24.2432    1.7121 C   0  0  0  0  0  0  0  0  0  0  0  0
   29.9568   23.3073    2.4163 C   0  0  0  0  0  0  0  0  0  0  0  0
   33.2400   22.0777    6.4371 C   0  0  0  0  0  0  0  0  0  0  0  0
   31.6607   26.5666    1.0094 C   0  0  0  0  0  0  0  0  0  0  0  0
   34.2213   24.1769    8.0125 C   0  0  0  0  0  0  0  0  0  0  0  0
   30.5077   27.3924    0.2180 C   0  0  0  0  0  0  0  0  0  0  0  0
   32.0765   26.8420    3.4694 O   0  0  0  0  0  0  0  0  0  0  0  0
   32.0633   25.9133    2.8532 C   0  0  0  0  0  0  0  0  0  0  0  0
   25.9052   27.9014    1.3275 O   0  0  0  0  0  0  0  0  0  0  0  0
   33.7170   24.3941    9.0093 O   0  0  0  0  0  0  0  0  0  0  0  0
   30.5701   22.5583    4.1678 C   0  0  0  0  0  0  0  0  0  0  0  0
   25.6925   29.1546   -0.1957 O   0  0  0  0  0  0  0  0  0  0  0  0
   26.3450   28.4523    0.5951 C   0  0  0  0  0  0  0  0  0  0  0  0
   28.9275   27.9856   -0.0849 C   0  0  0  0  0  0  0  0  0  0  0  0
   29.8937   23.2587    5.2240 O   0  0  0  0  0  0  0  0  0  0  0  0
   27.8422   28.3286    0.2244 C   0  0  0  0  0  0  0  0  0  0  0  0
   32.4096   22.1307    4.8534 C   0  0  0  0  0  0  0  0  0  0  0  0
   34.1346   24.7307    3.9837 C   0  0  0  0  0  0  0  0  0  0  0  0
   34.7570   22.4170    5.9138 C   0  0  0  0  0  0  0  0  0  0  0  0
   34.6053   22.7545    3.9753 C   0  0  0  0  0  0  0  0  0  0  0  0
   30.2970   21.3600    4.3550 O   0  0  0  0  0  0  0  0  0  0  0  0
   30.1293   25.4744    1.8105 C   0  0  0  0  0  0  0  0  0  0  0  0
   31.0678   24.2931    1.1712 C   0  0  0  0  0  0  0  0  0  0  0  0
   33.2248   23.4693    4.7518 C   0  0  0  0  0  0  0  0  0  0  0  0
   32.5890   23.2443    2.8190 C   0  0  0  0  0  0  0  0  0  0  0  0
  2  1  1  0
  5  3  1  0
  6  1  1  0
  8  5  1  0
  8  7  1  0
  9  6  1  0
 11  6  1  0
 12  4  1  0
 12 10  1  0
 14  3  1  0
 14 13  1  0
 16 11  1  0
 17  5  1  0
 19 15  2  0
 19 18  1  0
 20  4  1  0
 20 12  1  0
 21 17  1  0
 22 19  1  0
 22 20  1  0
 23  9  1  0
 24  2  1  0
 25  6  1  0
 25  9  1  0
 27 17  1  0
 28  4  1  0
 28  7  1  0
 29  8  1  0
 29 28  1  0
 30 23  1  0
 30 24  1  0
 30 26  1  0
 31  3  1  0
 31  5  1  0
 31 30  1  0
M  END
>  <ID>  (1) 
conformer_0

$$$$
