
     RDKit          3D

 27 28  0  0  0  0  0  0  0  0999 V2000
   32.3348   23.9854    2.2869 C   0  0  0  0  0  0  0  0  0  0  0  0
   35.0936   22.6665    4.9115 C   0  0  0  0  0  0  0  0  0  0  0  0
   33.1534   24.6031    3.6424 C   0  0  2  0  0  0  0  0  0  0  0  0
   33.2728   22.0228    5.5921 C   0  0  2  0  0  0  0  0  0  0  0  0
   30.5429   24.0539    1.3812 C   0  0  0  0  0  0  0  0  0  0  0  0
   30.6650   23.3036    3.2575 C   0  0  0  0  0  0  0  0  0  0  0  0
   32.5471   23.2403    4.3101 C   0  0  1  0  0  0  0  0  0  0  0  0
   29.2479   26.4924    0.6130 C   0  0  0  0  0  0  0  0  0  0  0  0
   33.0972   21.7269    6.8271 C   0  0  0  0  0  0  0  0  0  0  0  0
   28.9193   27.9829   -0.8056 C   0  0  0  0  0  0  0  0  0  0  0  0
   32.4402   26.8621    3.0607 O   0  0  0  0  0  0  0  0  0  0  0  0
   33.8098   23.8019    7.7923 C   0  0  0  0  0  0  0  0  0  0  0  0
   30.4889   23.0475    5.9948 O   0  0  0  0  0  0  0  0  0  0  0  0
   33.8346   24.8344    8.2300 O   0  0  0  0  0  0  0  0  0  0  0  0
   31.2226   22.3817    4.7049 C   0  0  1  0  0  0  0  0  0  0  0  0
   32.1760   25.9303    2.7907 C   0  0  2  0  0  0  0  0  0  0  0  0
   34.6567   23.8592    4.1722 C   0  0  1  0  0  0  0  0  0  0  0  0
   26.4014   28.4419    0.5096 C   0  0  0  0  0  0  0  0  0  0  0  0
   27.8000   28.2334    0.2304 C   0  0  0  0  0  0  0  0  0  0  0  0
   28.9567   23.9333    1.9124 C   0  0  0  0  0  0  0  0  0  0  0  0
   25.5724   28.2724    0.3872 O   0  0  0  0  0  0  0  0  0  0  0  0
   29.0722   25.1850    1.4886 C   0  0  0  0  0  0  0  0  0  0  0  0
   30.4451   27.5799   -0.5275 C   0  0  0  0  0  0  0  0  0  0  0  0
   34.0354   23.4558    6.4744 C   0  0  1  0  0  0  0  0  0  0  0  0
   35.4531   24.3188    5.8660 C   0  0  0  0  0  0  0  0  0  0  0  0
   30.6889   24.9090    3.1024 C   0  0  1  0  0  0  0  0  0  0  0  0
   31.4298   26.0154    1.3976 C   0  0  0  0  0  0  0  0  0  0  0  0
  3  1  1  6
  7  3  1  0
  7  4  1  0
  4  9  1  1
 14 12  1  0
 15  6  1  0
  7 15  1  1
 15 13  1  1
 16  3  1  0
 16 11  1  0
 17  2  1  1
 17  3  1  0
 19 10  2  3
 19 18  1  0
 20  5  1  0
 21 18  1  0
 22  8  1  0
 22 20  1  0
 23  8  1  0
 23 10  1  0
 24  4  1  0
 24 12  1  1
 25 17  1  0
 25 24  1  0
 26  5  1  6
 26  6  1  0
 26 16  1  0
 16 27  1  6
M  END
>  <ID>  (1) 
conformer_0

$$$$
