
     RDKit          3D

 24 26  0  0  0  0  0  0  0  0999 V2000
   34.3564   23.9270    4.5990 C   0  0  0  0  0  0  0  0  0  0  0  0
   32.8342   24.2878    3.6098 C   0  0  1  0  0  0  0  0  0  0  0  0
   31.4713   24.8891    1.2146 C   0  0  0  0  0  0  0  0  0  0  0  0
   29.0518   27.6873   -0.1642 C   0  0  0  0  0  0  0  0  0  0  0  0
   30.5270   26.7433    0.5947 C   0  0  0  0  0  0  0  0  0  0  0  0
   29.3672   24.5465    1.7064 C   0  0  0  0  0  0  0  0  0  0  0  0
   29.1828   25.9145    1.1424 C   0  0  0  0  0  0  0  0  0  0  0  0
   32.7073   22.7939    4.8613 C   0  0  2  0  0  0  0  0  0  0  0  0
   28.3246   28.0475    0.2912 C   0  0  0  0  0  0  0  0  0  0  0  0
   34.3796   24.1128    7.7742 C   0  0  1  0  0  0  0  0  0  0  0  0
   30.2191   23.3504    5.8187 O   0  0  0  0  0  0  0  0  0  0  0  0
   31.5978   24.8722    2.6117 C   0  0  1  0  0  0  0  0  0  0  0  0
   31.0646   23.3677    3.3594 C   0  0  2  0  0  0  0  0  0  0  0  0
   25.8524   27.9116    1.1081 O   0  0  0  0  0  0  0  0  0  0  0  0
   26.4687   28.4138    0.7238 C   0  0  0  0  0  0  0  0  0  0  0  0
   31.8134   27.0213    2.8672 O   0  0  0  0  0  0  0  0  0  0  0  0
   33.8092   24.9497    8.3358 O   0  0  0  0  0  0  0  0  0  0  0  0
   29.7512   23.7133    2.2613 C   0  0  0  0  0  0  0  0  0  0  0  0
   30.8676   22.7632    4.5234 C   0  0  1  0  0  0  0  0  0  0  0  0
   31.7643   26.0511    2.2912 C   0  0  2  0  0  0  0  0  0  0  0  0
   33.4239   22.1621    6.1069 C   0  0  0  0  0  0  0  0  0  0  0  0
   33.7553   22.9225    7.0416 C   0  0  0  0  0  0  0  0  0  0  0  0
   35.2352   24.1887    6.1259 C   0  0  0  0  0  0  0  0  0  0  0  0
   35.2532   23.1146    4.6052 C   0  0  0  0  0  0  0  0  0  0  0  0
  2  1  1  1
  5  4  1  0
  7  5  1  0
  7  6  2  0
  8  2  1  0
  9  4  2  0
 12  2  1  0
 12  3  1  6
 13 12  1  0
 15  9  2  0
 15 14  1  0
 10 17  1  6
 18  6  2  0
 13 18  1  1
 19  8  1  0
 19 11  1  1
 19 13  1  0
 20  3  1  0
 20 12  1  0
 20 16  1  1
  8 21  1  1
 22 10  1  0
 22 21  1  0
 23  1  1  0
 23 10  1  0
 24  1  2  3
M  END
>  <ID>  (1) 
conformer_0

$$$$
