
     RDKit          3D

 24 25  0  0  0  0  0  0  0  0999 V2000
   33.4522   22.0633    5.4642 C   0  0  1  0  0  0  0  0  0  0  0  0
   34.5050   24.0292    4.1459 C   0  0  1  0  0  0  0  0  0  0  0  0
   33.3761   22.8197    6.4977 C   0  0  0  0  0  0  0  0  0  0  0  0
   32.1716   22.7953    4.3571 C   0  0  0  0  0  0  0  0  0  0  0  0
   31.3778   24.7355    2.9739 C   0  0  1  0  0  0  0  0  0  0  0  0
   29.2934   23.9726    1.8934 C   0  0  0  0  0  0  0  0  0  0  0  0
   34.6744   22.5412    4.5014 C   0  0  0  0  0  0  0  0  0  0  0  0
   31.2554   25.4188    1.1713 C   0  0  1  0  0  0  0  0  0  0  0  0
   34.4244   24.2879    7.8099 C   0  0  0  0  0  0  0  0  0  0  0  0
   32.3440   25.9200    2.5247 C   0  0  1  0  0  0  0  0  0  0  0  0
   26.0760   28.1037    1.2242 O   0  0  0  0  0  0  0  0  0  0  0  0
   26.5982   28.5400    0.4167 C   0  0  0  0  0  0  0  0  0  0  0  0
   30.3211   23.0825    6.1206 O   0  0  0  0  0  0  0  0  0  0  0  0
   32.5669   26.8050    2.7938 O   0  0  0  0  0  0  0  0  0  0  0  0
   30.5021   26.6253    0.1609 C   0  0  0  0  0  0  0  0  0  0  0  0
   26.1351   29.2630   -0.3911 O   0  0  0  0  0  0  0  0  0  0  0  0
   33.2152   24.4900    3.6868 C   0  0  0  0  0  0  0  0  0  0  0  0
   33.5071   23.6510    7.4897 C   0  0  0  0  0  0  0  0  0  0  0  0
   29.3760   27.5132   -0.2198 C   0  0  0  0  0  0  0  0  0  0  0  0
   31.1577   22.7656    5.0472 C   0  0  0  0  0  0  0  0  0  0  0  0
   28.3371   28.2958    0.0379 C   0  0  0  0  0  0  0  0  0  0  0  0
   34.8679   24.3706    5.7962 C   0  0  0  0  0  0  0  0  0  0  0  0
   29.5780   25.2452    1.4325 C   0  0  0  0  0  0  0  0  0  0  0  0
   30.5137   23.3975    2.9557 C   0  0  0  0  0  0  0  0  0  0  0  0
  1  3  1  1
  4  1  1  0
  7  1  1  0
  7  2  1  0
  8  5  1  0
 10  5  1  0
 10  8  1  0
 12 11  2  0
 10 14  1  1
  8 15  1  1
 16 12  1  0
 17  2  1  0
  5 17  1  6
 18  3  1  0
 18  9  2  3
 19 15  1  0
 20  4  1  0
 20 13  1  0
 21 12  1  0
 21 19  1  0
  2 22  1  1
 23  6  1  0
 23  8  1  0
 24  5  1  0
 24  6  1  0
M  END
>  <ID>  (1) 
conformer_0

$$$$
