
     RDKit          3D

 26 32  0  0  0  0  0  0  0  0999 V2000
   34.7380   24.3149    4.4470 C   0  0  0  0  0  0  0  0  0  0  0  0
   30.9283   23.2603    2.9839 C   0  0  0  0  0  0  0  0  0  0  0  0
   33.1906   24.0066    4.1785 C   0  0  0  0  0  0  0  0  0  0  0  0
   29.3645   23.8475    2.0290 C   0  0  0  0  0  0  0  0  0  0  0  0
   29.4876   24.8490    1.3962 C   0  0  0  0  0  0  0  0  0  0  0  0
   33.9462   23.1121    6.6554 C   0  0  0  0  0  0  0  0  0  0  0  0
   33.1076   21.9410    5.8750 C   0  0  0  0  0  0  0  0  0  0  0  0
   32.3511   22.4141    4.5626 C   0  0  0  0  0  0  0  0  0  0  0  0
   32.0857   24.2644    2.9691 C   0  0  0  0  0  0  0  0  0  0  0  0
   34.2408   24.2824    7.8389 C   0  0  0  0  0  0  0  0  0  0  0  0
   29.2756   28.0409   -0.2744 C   0  0  0  0  0  0  0  0  0  0  0  0
   29.6023   22.1750    4.7501 O   0  0  0  0  0  0  0  0  0  0  0  0
   32.5043   26.6863    2.9641 O   0  0  0  0  0  0  0  0  0  0  0  0
   32.3308   25.7631    2.6707 C   0  0  0  0  0  0  0  0  0  0  0  0
   26.2200   28.2954    0.9311 C   0  0  0  0  0  0  0  0  0  0  0  0
   33.7135   24.5948    8.5307 O   0  0  0  0  0  0  0  0  0  0  0  0
   31.4989   24.2438    1.3556 C   0  0  0  0  0  0  0  0  0  0  0  0
   31.1075   22.4235    4.6525 C   0  0  0  0  0  0  0  0  0  0  0  0
   35.1571   24.4126    6.1675 C   0  0  0  0  0  0  0  0  0  0  0  0
   25.6984   27.8446    1.2436 O   0  0  0  0  0  0  0  0  0  0  0  0
   31.1592   25.6017    1.0306 C   0  0  0  0  0  0  0  0  0  0  0  0
   30.3128   27.0028    0.0446 C   0  0  0  0  0  0  0  0  0  0  0  0
   34.8946   22.7598    5.1005 C   0  0  0  0  0  0  0  0  0  0  0  0
   30.5878   23.1016    6.1284 O   0  0  0  0  0  0  0  0  0  0  0  0
   28.9212   26.2449    1.0917 C   0  0  0  0  0  0  0  0  0  0  0  0
   28.0096   27.6722    0.7072 C   0  0  0  0  0  0  0  0  0  0  0  0
  3  1  1  0
  4  2  1  0
  5  4  1  0
  7  6  1  0
  8  3  1  0
  8  7  1  0
  9  2  1  0
  9  3  1  0
 10  6  1  0
 14  9  1  0
 14 13  1  0
 16 10  1  0
 17  9  1  0
 18  2  1  0
 18  8  1  0
 18 12  1  0
 19  1  1  0
 19  6  1  0
 19 10  1  0
 20 15  2  0
 21  5  1  0
 21 17  1  0
 22 11  1  0
 22 21  1  0
 23  1  1  0
 23  6  1  0
 24 18  1  0
 25  5  1  0
 25 22  1  0
 26 11  1  0
 26 15  1  0
 26 25  1  0
M  END
>  <ID>  (1) 
conformer_0

$$$$
