
     RDKit          3D

 31 36  0  0  0  0  0  0  0  0999 V2000
   32.6582   21.3580    5.8424 C   0  0  0  0  0  0  0  0  0  0  0  0
   35.4293   24.3191    5.2410 C   0  0  0  0  0  0  0  0  0  0  0  0
   34.7935   24.5064    6.6665 C   0  0  0  0  0  0  0  0  0  0  0  0
   34.6291   22.8595    3.8596 C   0  0  0  0  0  0  0  0  0  0  0  0
   32.5467   22.4576    4.1436 C   0  0  0  0  0  0  0  0  0  0  0  0
   32.7761   24.4691    2.8971 C   0  0  0  0  0  0  0  0  0  0  0  0
   31.3481   23.7691    3.7342 C   0  0  0  0  0  0  0  0  0  0  0  0
   31.9537   24.1853    1.2135 C   0  0  0  0  0  0  0  0  0  0  0  0
   29.8285   24.5584    1.2696 C   0  0  0  0  0  0  0  0  0  0  0  0
   33.4573   22.7140    7.2926 C   0  0  0  0  0  0  0  0  0  0  0  0
   28.7275   24.2511    1.9543 C   0  0  0  0  0  0  0  0  0  0  0  0
   33.9465   24.2553    7.8497 C   0  0  0  0  0  0  0  0  0  0  0  0
   30.3865   22.7571    5.8338 O   0  0  0  0  0  0  0  0  0  0  0  0
   33.5406   24.5973    8.5713 O   0  0  0  0  0  0  0  0  0  0  0  0
   25.5763   27.9835    1.2722 O   0  0  0  0  0  0  0  0  0  0  0  0
   26.2826   28.5406    0.6349 C   0  0  0  0  0  0  0  0  0  0  0  0
   32.0281   26.7005    3.6331 O   0  0  0  0  0  0  0  0  0  0  0  0
   28.6428   27.8618   -0.3033 C   0  0  0  0  0  0  0  0  0  0  0  0
   29.8988   26.3047    0.6710 C   0  0  0  0  0  0  0  0  0  0  0  0
   31.6850   25.9216    0.8298 C   0  0  0  0  0  0  0  0  0  0  0  0
   31.4832   22.1162    4.8281 C   0  0  0  0  0  0  0  0  0  0  0  0
   30.4911   27.5425   -0.4646 C   0  0  0  0  0  0  0  0  0  0  0  0
   25.7263   29.3912   -0.0082 O   0  0  0  0  0  0  0  0  0  0  0  0
   30.5642   25.1640    2.7816 C   0  0  0  0  0  0  0  0  0  0  0  0
   32.2936   25.5042    2.9991 C   0  0  0  0  0  0  0  0  0  0  0  0
   28.5033   26.4707    1.0314 C   0  0  0  0  0  0  0  0  0  0  0  0
   27.5179   28.5245    0.2641 C   0  0  0  0  0  0  0  0  0  0  0  0
   33.4579   23.4504    5.7700 C   0  0  0  0  0  0  0  0  0  0  0  0
   30.3910   23.1392    2.5491 C   0  0  0  0  0  0  0  0  0  0  0  0
   34.2896   22.1070    5.4845 C   0  0  0  0  0  0  0  0  0  0  0  0
   33.8019   24.6462    4.3788 C   0  0  0  0  0  0  0  0  0  0  0  0
  3  2  1  0
  7  5  1  0
  7  6  1  0
  8  6  1  0
 11  9  1  0
 12  3  1  0
 12 10  1  0
 14 12  1  0
 16 15  2  0
 19  9  1  0
 20  8  1  0
 20 19  1  0
 21  1  1  0
 21  5  1  0
 21 13  1  0
 22 18  1  0
 22 19  1  0
 23 16  1  0
 24  7  1  0
 24  9  1  0
 25  6  1  0
 25 17  1  0
 25 24  1  0
 26 18  1  0
 26 19  1  0
 27 16  1  0
 27 18  1  0
 28  3  1  0
 28 10  1  0
 29  7  1  0
 30  1  1  0
 30  4  1  0
 30 28  1  0
 31  2  1  0
 31  6  1  0
 31 28  1  0
M  END
>  <ID>  (1) 
conformer_0

$$$$
