
     RDKit          3D

 29 36  0  0  0  0  0  0  0  0999 V2000
   33.8579   23.4827    6.8707 C   0  0  0  0  0  0  0  0  0  0  0  0
   32.8784   21.9435    5.4715 C   0  0  0  0  0  0  0  0  0  0  0  0
   35.3999   24.2864    6.3565 C   0  0  0  0  0  0  0  0  0  0  0  0
   33.2361   21.6512    6.8253 C   0  0  0  0  0  0  0  0  0  0  0  0
   35.0665   23.6312    4.5993 C   0  0  0  0  0  0  0  0  0  0  0  0
   30.8473   26.0086    0.8922 C   0  0  0  0  0  0  0  0  0  0  0  0
   34.9088   22.3558    5.7370 C   0  0  0  0  0  0  0  0  0  0  0  0
   27.8312   28.1785    0.0983 C   0  0  0  0  0  0  0  0  0  0  0  0
   33.5067   24.1844    4.7410 C   0  0  0  0  0  0  0  0  0  0  0  0
   32.3238   23.1517    4.2402 C   0  0  0  0  0  0  0  0  0  0  0  0
   34.1629   24.2298    8.0007 C   0  0  0  0  0  0  0  0  0  0  0  0
   31.5361   26.8360    3.3871 O   0  0  0  0  0  0  0  0  0  0  0  0
   30.4566   22.7425    5.9306 O   0  0  0  0  0  0  0  0  0  0  0  0
   30.5586   22.8316    3.3928 C   0  0  0  0  0  0  0  0  0  0  0  0
   33.6903   24.7127    8.7919 O   0  0  0  0  0  0  0  0  0  0  0  0
   25.7234   28.1154    0.9918 O   0  0  0  0  0  0  0  0  0  0  0  0
   26.3827   28.5336    0.4205 C   0  0  0  0  0  0  0  0  0  0  0  0
   31.2831   21.9917    4.7327 C   0  0  0  0  0  0  0  0  0  0  0  0
   31.5840   25.9384    2.8853 C   0  0  0  0  0  0  0  0  0  0  0  0
   31.4147   24.6831    3.1031 C   0  0  0  0  0  0  0  0  0  0  0  0
   28.8512   26.6521    0.5424 C   0  0  0  0  0  0  0  0  0  0  0  0
   29.5314   25.3239    1.3068 C   0  0  0  0  0  0  0  0  0  0  0  0
   30.7746   27.4700   -0.2515 C   0  0  0  0  0  0  0  0  0  0  0  0
   29.2495   27.8955   -0.6792 C   0  0  0  0  0  0  0  0  0  0  0  0
   26.1867   29.1688   -0.5581 O   0  0  0  0  0  0  0  0  0  0  0  0
   28.9479   23.9063    1.9540 C   0  0  0  0  0  0  0  0  0  0  0  0
   30.4672   23.8452    2.1150 C   0  0  0  0  0  0  0  0  0  0  0  0
   33.1408   24.0983    2.8302 C   0  0  0  0  0  0  0  0  0  0  0  0
   32.1832   24.7168    1.2134 C   0  0  0  0  0  0  0  0  0  0  0  0
  3  1  1  0
  4  1  1  0
  4  2  1  0
  5  3  1  0
  7  1  1  0
  7  5  1  0
  9  5  1  0
 10  2  1  0
 10  9  1  0
 11  1  1  0
 15 11  1  0
 17  8  1  0
 17 16  2  0
 18  2  1  0
 18 10  1  0
 18 13  1  0
 18 14  1  0
 19 12  1  0
 20 19  1  0
 21  8  1  0
 22  6  1  0
 22 21  1  0
 23  6  1  0
 24  8  1  0
 24 21  1  0
 24 23  1  0
 25 17  1  0
 26 22  1  0
 27 14  1  0
 27 20  1  0
 27 22  1  0
 27 26  1  0
 28  9  1  0
 28 10  1  0
 28 20  1  0
 29  6  1  0
M  END
>  <ID>  (1) 
conformer_0

$$$$
