
     RDKit          3D

 29 35  0  0  0  0  0  0  0  0999 V2000
   35.4543   24.3094    6.1172 C   0  0  0  0  0  0  0  0  0  0  0  0
   33.3380   23.6147    5.1262 C   0  0  0  0  0  0  0  0  0  0  0  0
   31.7981   23.5727    3.8078 C   0  0  0  0  0  0  0  0  0  0  0  0
   35.1034   22.4043    5.0098 C   0  0  0  0  0  0  0  0  0  0  0  0
   32.3542   24.5663    1.5419 C   0  0  0  0  0  0  0  0  0  0  0  0
   34.9762   23.9123    4.4252 C   0  0  0  0  0  0  0  0  0  0  0  0
   29.5135   25.2284    1.5156 C   0  0  0  0  0  0  0  0  0  0  0  0
   32.4998   21.7888    5.1205 C   0  0  0  0  0  0  0  0  0  0  0  0
   27.8910   27.4982    0.5529 C   0  0  0  0  0  0  0  0  0  0  0  0
   31.8741   26.1178    2.7325 C   0  0  0  0  0  0  0  0  0  0  0  0
   34.7045   24.1833    7.7752 C   0  0  0  0  0  0  0  0  0  0  0  0
   30.7207   23.7747    1.3944 C   0  0  0  0  0  0  0  0  0  0  0  0
   30.8717   22.3925    4.6437 C   0  0  0  0  0  0  0  0  0  0  0  0
   30.2150   22.9208    5.8891 O   0  0  0  0  0  0  0  0  0  0  0  0
   26.8103   28.3409    0.4914 C   0  0  0  0  0  0  0  0  0  0  0  0
   34.2357   24.7415    8.5853 O   0  0  0  0  0  0  0  0  0  0  0  0
   26.5304   29.2278   -0.2497 O   0  0  0  0  0  0  0  0  0  0  0  0
   31.3346   27.1784    3.3780 O   0  0  0  0  0  0  0  0  0  0  0  0
   28.9974   28.0971   -0.8166 C   0  0  0  0  0  0  0  0  0  0  0  0
   33.3729   21.8819    6.2981 C   0  0  0  0  0  0  0  0  0  0  0  0
   34.2625   23.3292    6.7781 C   0  0  0  0  0  0  0  0  0  0  0  0
   31.2379   26.2260    0.8299 C   0  0  0  0  0  0  0  0  0  0  0  0
   30.4803   27.6763   -0.6209 C   0  0  0  0  0  0  0  0  0  0  0  0
   25.9411   28.0720    1.0344 O   0  0  0  0  0  0  0  0  0  0  0  0
   33.1963   24.6136    3.6256 C   0  0  0  0  0  0  0  0  0  0  0  0
   30.9821   25.1421    3.0979 C   0  0  0  0  0  0  0  0  0  0  0  0
   29.2976   26.5426    0.4640 C   0  0  0  0  0  0  0  0  0  0  0  0
   30.3842   23.3121    2.9915 C   0  0  0  0  0  0  0  0  0  0  0  0
   28.8785   23.9405    1.6331 C   0  0  0  0  0  0  0  0  0  0  0  0
  6  1  1  0
  6  2  1  0
  6  4  1  0
 11  1  1  0
 12  5  1  0
 12  7  1  0
 13  3  1  0
 13  8  1  0
 14 13  1  0
 15  9  1  0
 16 11  1  0
 17 15  1  0
 18 10  1  0
 19  9  1  0
 20  8  1  0
 21  1  1  0
 21  2  1  0
 21 11  1  0
 21 20  1  0
 23 19  1  0
 24 15  2  0
 25  2  1  0
 25  3  1  0
 26  3  1  0
 26 10  1  0
 27  7  1  0
 27  9  1  0
 27 22  1  0
 27 23  1  0
 28  3  1  0
 28 12  1  0
 28 13  1  0
 28 26  1  0
 29  7  1  0
 29 12  1  0
M  END
>  <ID>  (1) 
conformer_0

$$$$
