
     RDKit          3D

 27 29  0  0  0  0  0  0  0  0999 V2000
   29.8044   23.6094    2.5484 C   0  0  0  0  0  0  0  0  0  0  0  0
   31.6444   24.5573    1.3654 C   0  0  0  0  0  0  0  0  0  0  0  0
   33.6147   24.0898    3.2766 C   0  0  0  0  0  0  0  0  0  0  0  0
   31.5004   23.2434    3.5540 C   0  0  0  0  0  0  0  0  0  0  0  0
   33.1490   23.4372    4.5848 C   0  0  0  0  0  0  0  0  0  0  0  0
   34.9509   22.9028    4.2902 C   0  0  0  0  0  0  0  0  0  0  0  0
   29.9960   25.5670    1.1598 C   0  0  0  0  0  0  0  0  0  0  0  0
   34.1825   23.3296    6.4865 C   0  0  0  0  0  0  0  0  0  0  0  0
   29.8953   26.7384    0.4921 C   0  0  0  0  0  0  0  0  0  0  0  0
   35.2324   24.0851    5.0738 C   0  0  0  0  0  0  0  0  0  0  0  0
   26.6470   28.7346    0.3142 C   0  0  0  0  0  0  0  0  0  0  0  0
   31.8926   25.8414    2.6750 C   0  0  0  0  0  0  0  0  0  0  0  0
   31.8498   26.8348    3.1266 O   0  0  0  0  0  0  0  0  0  0  0  0
   34.2495   24.0769    7.7028 C   0  0  0  0  0  0  0  0  0  0  0  0
   29.8682   22.2558    4.9588 O   0  0  0  0  0  0  0  0  0  0  0  0
   26.1446   29.3707   -0.6376 O   0  0  0  0  0  0  0  0  0  0  0  0
   33.7040   24.4658    8.5420 O   0  0  0  0  0  0  0  0  0  0  0  0
   29.1465   27.8454   -0.1295 C   0  0  0  0  0  0  0  0  0  0  0  0
   30.8732   22.5566    4.4305 C   0  0  0  0  0  0  0  0  0  0  0  0
   27.8246   27.9831    0.5664 C   0  0  0  0  0  0  0  0  0  0  0  0
   34.9852   24.9984    6.6773 C   0  0  0  0  0  0  0  0  0  0  0  0
   25.6223   28.3894    0.7706 O   0  0  0  0  0  0  0  0  0  0  0  0
   33.2360   21.9048    6.3419 C   0  0  0  0  0  0  0  0  0  0  0  0
   32.6797   21.6670    5.2719 C   0  0  0  0  0  0  0  0  0  0  0  0
   30.7449   23.1717    6.4584 O   0  0  0  0  0  0  0  0  0  0  0  0
   31.5611   24.6444    2.9228 C   0  0  0  0  0  0  0  0  0  0  0  0
   29.2385   24.2045    1.4917 C   0  0  0  0  0  0  0  0  0  0  0  0
  5  3  1  0
  5  4  1  0
  6  5  1  0
  7  2  1  0
  9  7  1  0
 10  6  1  0
 10  8  1  0
 13 12  1  0
 14  8  1  0
 16 11  1  0
 17 14  1  0
 18  9  1  0
 19  4  1  0
 19 15  1  0
 20 11  1  0
 20 18  1  0
 21  8  1  0
 21 10  1  0
 21 14  1  0
 22 11  2  0
 23  8  1  0
 24  5  1  0
 24 23  1  0
 25 19  1  0
 26  2  1  0
 26  4  1  0
 26 12  1  0
 27  1  1  0
 27  7  1  0
M  END
>  <ID>  (1) 
conformer_0

$$$$
