
     RDKit          3D

 31 33  0  0  0  0  0  0  0  0999 V2000
   32.8891   21.6775    5.7701 C   0  0  0  0  0  0  0  0  0  0  0  0
   33.0150   23.3376    4.8970 C   0  0  0  0  0  0  0  0  0  0  0  0
   33.0124   22.2259    7.3121 C   0  0  0  0  0  0  0  0  0  0  0  0
   31.7788   23.0181    3.9383 C   0  0  0  0  0  0  0  0  0  0  0  0
   33.8603   23.6103    6.7343 C   0  0  0  0  0  0  0  0  0  0  0  0
   35.3588   24.2262    5.1986 C   0  0  0  0  0  0  0  0  0  0  0  0
   29.9142   23.1365    3.1059 C   0  0  0  0  0  0  0  0  0  0  0  0
   34.6912   22.1170    5.6460 C   0  0  0  0  0  0  0  0  0  0  0  0
   35.2761   25.2229    6.3834 C   0  0  0  0  0  0  0  0  0  0  0  0
   33.8535   24.4367    3.8186 C   0  0  0  0  0  0  0  0  0  0  0  0
   34.7476   22.7956    4.0642 C   0  0  0  0  0  0  0  0  0  0  0  0
   25.8850   27.7409    1.1768 O   0  0  0  0  0  0  0  0  0  0  0  0
   32.1651   26.8055    3.1710 O   0  0  0  0  0  0  0  0  0  0  0  0
   26.7753   28.2480    0.6085 C   0  0  0  0  0  0  0  0  0  0  0  0
   30.4205   22.6641    5.9563 O   0  0  0  0  0  0  0  0  0  0  0  0
   34.1866   24.8439    8.3114 O   0  0  0  0  0  0  0  0  0  0  0  0
   34.3630   24.3793    7.4057 C   0  0  0  0  0  0  0  0  0  0  0  0
   28.2270   28.2795    0.5348 C   0  0  0  0  0  0  0  0  0  0  0  0
   29.8449   26.4076    0.5248 C   0  0  0  0  0  0  0  0  0  0  0  0
   26.3796   28.9077   -0.3718 O   0  0  0  0  0  0  0  0  0  0  0  0
   31.0467   22.4784    4.9604 C   0  0  0  0  0  0  0  0  0  0  0  0
   31.8521   25.9349    2.5335 C   0  0  0  0  0  0  0  0  0  0  0  0
   28.5885   26.4304    1.3546 C   0  0  0  0  0  0  0  0  0  0  0  0
   29.0124   27.9273   -0.7157 C   0  0  0  0  0  0  0  0  0  0  0  0
   32.5426   24.1004    2.2368 C   0  0  0  0  0  0  0  0  0  0  0  0
   30.6463   27.5625   -0.3074 C   0  0  0  0  0  0  0  0  0  0  0  0
   31.6806   25.6884    1.1100 C   0  0  0  0  0  0  0  0  0  0  0  0
   31.2559   24.5029    3.2526 C   0  0  0  0  0  0  0  0  0  0  0  0
   29.7864   25.2586    2.2439 C   0  0  0  0  0  0  0  0  0  0  0  0
   28.6867   24.0895    1.6284 C   0  0  0  0  0  0  0  0  0  0  0  0
   30.3069   23.8432    1.3741 C   0  0  0  0  0  0  0  0  0  0  0  0
  2  1  1  0
  3  1  1  0
  4  2  1  0
  5  3  1  0
  8  1  1  0
  9  6  1  0
 10  2  1  0
 11  6  1  0
 11  8  1  0
 11 10  1  0
 14 12  2  0
 17  5  1  0
 17  9  1  0
 17 16  1  0
 18 14  1  0
 20 14  1  0
 21  4  1  0
 21 15  1  0
 22 13  1  0
 23 19  1  0
 24 18  1  0
 26 19  1  0
 26 24  1  0
 27 22  1  0
 28  4  1  0
 28  7  1  0
 28 22  1  0
 28 25  1  0
 29 23  1  0
 30 29  1  0
 31  7  1  0
 31 29  1  0
 31 30  1  0
M  END
>  <ID>  (1) 
conformer_0

$$$$
