
     RDKit          3D

 30 38  0  0  0  0  0  0  0  0999 V2000
   34.6975   22.5118    6.8687 C   0  0  0  0  0  0  0  0  0  0  0  0
   35.4742   24.1533    6.5345 C   0  0  0  0  0  0  0  0  0  0  0  0
   35.1006   22.6643    4.7932 C   0  0  0  0  0  0  0  0  0  0  0  0
   30.1849   23.1966    2.6025 C   0  0  0  0  0  0  0  0  0  0  0  0
   32.8014   23.4275    4.2525 C   0  0  0  0  0  0  0  0  0  0  0  0
   33.1744   21.5260    6.3161 C   0  0  0  0  0  0  0  0  0  0  0  0
   33.6991   24.0652    3.1296 C   0  0  0  0  0  0  0  0  0  0  0  0
   34.8090   24.2128    4.7304 C   0  0  0  0  0  0  0  0  0  0  0  0
   33.3867   23.1562    5.9350 C   0  0  0  0  0  0  0  0  0  0  0  0
   32.2045   21.8349    4.9816 C   0  0  0  0  0  0  0  0  0  0  0  0
   29.7112   22.3332    5.2587 O   0  0  0  0  0  0  0  0  0  0  0  0
   32.4120   26.9619    3.2627 O   0  0  0  0  0  0  0  0  0  0  0  0
   34.8109   24.0230    7.7129 C   0  0  0  0  0  0  0  0  0  0  0  0
   34.2290   24.6385    8.5482 O   0  0  0  0  0  0  0  0  0  0  0  0
   28.7922   24.0309    1.7051 C   0  0  0  0  0  0  0  0  0  0  0  0
   26.5262   28.4914    0.4640 C   0  0  0  0  0  0  0  0  0  0  0  0
   26.1494   29.2408   -0.5242 O   0  0  0  0  0  0  0  0  0  0  0  0
   30.6266   22.3089    4.3844 C   0  0  0  0  0  0  0  0  0  0  0  0
   32.3580   26.0581    2.8303 C   0  0  0  0  0  0  0  0  0  0  0  0
   25.4840   27.9658    0.9472 O   0  0  0  0  0  0  0  0  0  0  0  0
   27.3920   28.3287    1.3032 C   0  0  0  0  0  0  0  0  0  0  0  0
   30.0831   24.8940    2.0608 C   0  0  0  0  0  0  0  0  0  0  0  0
   31.1602   23.3467    3.6440 C   0  0  0  0  0  0  0  0  0  0  0  0
   28.5746   27.7039   -0.1142 C   0  0  0  0  0  0  0  0  0  0  0  0
   31.9087   24.3428    1.3774 C   0  0  0  0  0  0  0  0  0  0  0  0
   28.4432   26.4851    1.1604 C   0  0  0  0  0  0  0  0  0  0  0  0
   32.0068   24.8434    2.9673 C   0  0  0  0  0  0  0  0  0  0  0  0
   30.2840   27.2878    0.0760 C   0  0  0  0  0  0  0  0  0  0  0  0
   31.6127   26.2767    1.0506 C   0  0  0  0  0  0  0  0  0  0  0  0
   29.8326   25.6686    0.8154 C   0  0  0  0  0  0  0  0  0  0  0  0
  6  1  1  0
  7  5  1  0
  8  2  1  0
  8  3  1  0
  8  7  1  0
  9  1  1  0
  9  5  1  0
  9  6  1  0
 10  5  1  0
 10  6  1  0
 13  1  1  0
 13  2  1  0
 14 13  1  0
 15  4  1  0
 17 16  1  0
 18 10  1  0
 18 11  1  0
 19 12  1  0
 20 16  2  0
 21 16  1  0
 22  4  1  0
 22 15  1  0
 23  4  1  0
 23  5  1  0
 23 18  1  0
 24 21  1  0
 26 24  1  0
 27  7  1  0
 27 19  1  0
 27 23  1  0
 27 25  1  0
 28 24  1  0
 29 19  1  0
 29 28  1  0
 30 22  1  0
 30 26  1  0
 30 28  1  0
 30 29  1  0
M  END
>  <ID>  (1) 
conformer_0

$$$$
