
     RDKit          3D

 23 23  0  0  0  0  0  0  0  0999 V2000
   29.1470   23.9349    1.9144 C   0  0  0  0  0  0  0  0  0  0  0  0
   34.9997   24.3484    4.7992 C   0  0  0  0  0  0  0  0  0  0  0  0
   34.6329   23.0874    4.9602 C   0  0  0  0  0  0  0  0  0  0  0  0
   30.5854   23.5229    2.8471 C   0  0  0  0  0  0  0  0  0  0  0  0
   31.1907   24.9480    1.3063 C   0  0  0  0  0  0  0  0  0  0  0  0
   31.4912   24.7051    2.9820 C   0  0  0  0  0  0  0  0  0  0  0  0
   29.1107   25.0644    1.6268 C   0  0  0  0  0  0  0  0  0  0  0  0
   33.4412   22.2569    5.6833 C   0  0  0  0  0  0  0  0  0  0  0  0
   29.8435   26.3769    0.7212 C   0  0  0  0  0  0  0  0  0  0  0  0
   33.8948   22.5287    7.1140 C   0  0  0  0  0  0  0  0  0  0  0  0
   28.2465   28.8574   -0.2015 C   0  0  0  0  0  0  0  0  0  0  0  0
   26.2095   28.0446    1.1107 O   0  0  0  0  0  0  0  0  0  0  0  0
   29.7818   22.9481    5.2313 O   0  0  0  0  0  0  0  0  0  0  0  0
   34.0314   24.7161    8.5402 O   0  0  0  0  0  0  0  0  0  0  0  0
   34.3388   23.7877    8.1263 C   0  0  0  0  0  0  0  0  0  0  0  0
   26.6120   28.4491    0.4351 C   0  0  0  0  0  0  0  0  0  0  0  0
   31.6658   26.9488    3.1803 O   0  0  0  0  0  0  0  0  0  0  0  0
   29.2489   27.7840   -0.0405 C   0  0  0  0  0  0  0  0  0  0  0  0
   35.3588   24.4383    6.2839 C   0  0  0  0  0  0  0  0  0  0  0  0
   30.5948   22.6442    4.1112 C   0  0  0  0  0  0  0  0  0  0  0  0
   31.6140   25.9338    2.9317 C   0  0  0  0  0  0  0  0  0  0  0  0
   33.1844   24.6285    3.9359 C   0  0  0  0  0  0  0  0  0  0  0  0
   32.3378   23.2389    4.3035 C   0  0  0  0  0  0  0  0  0  0  0  0
  3  2  1  0
  4  1  1  0
  6  4  1  0
  6  5  1  0
  7  1  1  0
  8  3  1  0
  9  7  1  0
 10  8  1  0
 15 10  1  0
 15 14  1  0
 16 11  1  0
 16 12  2  0
 18  9  1  0
 18 11  1  0
 19  2  1  0
 20  4  1  0
 20 13  1  0
 21  6  1  0
 21 17  1  0
 22  6  1  0
 23  8  1  0
 23 20  1  0
 23 22  1  0
M  END
>  <ID>  (1) 
conformer_0

$$$$
