
     RDKit          3D

 25 29  0  0  0  0  0  0  0  0999 V2000
   30.5154   23.2772    3.0192 C   0  0  0  0  0  0  0  0  0  0  0  0
   31.9767   24.0539    3.7519 C   0  0  0  0  0  0  0  0  0  0  0  0
   34.5998   22.9909    4.6879 C   0  0  0  0  0  0  0  0  0  0  0  0
   29.4798   24.0516    1.8810 C   0  0  0  0  0  0  0  0  0  0  0  0
   29.1258   25.6164    1.3265 C   0  0  0  0  0  0  0  0  0  0  0  0
   33.4780   21.8436    6.1226 C   0  0  0  0  0  0  0  0  0  0  0  0
   29.0247   27.6149   -0.2490 C   0  0  0  0  0  0  0  0  0  0  0  0
   30.1311   26.2645    0.6162 C   0  0  0  0  0  0  0  0  0  0  0  0
   30.4387   23.1968    5.7911 O   0  0  0  0  0  0  0  0  0  0  0  0
   28.2059   27.6023    0.6872 C   0  0  0  0  0  0  0  0  0  0  0  0
   34.2328   24.8783    8.1576 O   0  0  0  0  0  0  0  0  0  0  0  0
   33.5532   22.8010    6.7758 C   0  0  0  0  0  0  0  0  0  0  0  0
   26.7444   28.3942    0.5482 C   0  0  0  0  0  0  0  0  0  0  0  0
   32.2536   26.9120    2.7068 O   0  0  0  0  0  0  0  0  0  0  0  0
   34.3484   24.1809    7.4677 C   0  0  0  0  0  0  0  0  0  0  0  0
   32.0452   25.9813    2.5008 C   0  0  0  0  0  0  0  0  0  0  0  0
   26.4829   29.2215   -0.4356 O   0  0  0  0  0  0  0  0  0  0  0  0
   25.8453   27.9038    1.0629 O   0  0  0  0  0  0  0  0  0  0  0  0
   31.2360   22.8108    4.7334 C   0  0  0  0  0  0  0  0  0  0  0  0
   34.9558   24.2569    6.0494 C   0  0  0  0  0  0  0  0  0  0  0  0
   33.9498   24.1270    4.2908 C   0  0  0  0  0  0  0  0  0  0  0  0
   32.9040   24.6191    2.7550 C   0  0  0  0  0  0  0  0  0  0  0  0
   31.5911   24.6833    1.2397 C   0  0  0  0  0  0  0  0  0  0  0  0
   30.5975   25.0680    2.6028 C   0  0  0  0  0  0  0  0  0  0  0  0
   32.5073   22.4112    4.8620 C   0  0  0  0  0  0  0  0  0  0  0  0
  2  1  1  0
  4  1  1  0
  5  4  1  0
  8  5  1  0
  8  7  1  0
 10  7  1  0
 12  6  1  0
 13 10  1  0
 15 11  1  0
 15 12  1  0
 16 14  1  0
 17 13  1  0
 18 13  2  0
 19  1  1  0
 19  2  1  0
 19  9  1  0
 20  3  1  0
 20 15  1  0
 21  3  1  0
 22  2  1  0
 22 16  1  0
 22 21  1  0
 23 16  1  0
 24  1  1  0
 24  4  1  0
 24 16  1  0
 24 23  1  0
 25  6  1  0
 25 19  1  0
M  END
>  <ID>  (1) 
conformer_0

$$$$
