
     RDKit          3D

 29 34  0  0  0  0  0  0  0  0999 V2000
   31.2063   25.9512    1.1003 C   0  0  0  0  0  0  0  0  0  0  0  0
   30.5639   23.1757    3.1397 C   0  0  0  0  0  0  0  0  0  0  0  0
   29.0214   23.9191    1.7435 C   0  0  0  0  0  0  0  0  0  0  0  0
   34.8858   23.7143    4.2225 C   0  0  0  0  0  0  0  0  0  0  0  0
   32.2648   21.6211    5.1896 C   0  0  0  0  0  0  0  0  0  0  0  0
   34.4460   22.1242    5.3999 C   0  0  0  0  0  0  0  0  0  0  0  0
   29.2111   25.5788    1.3646 C   0  0  0  0  0  0  0  0  0  0  0  0
   35.2971   24.7986    6.4626 C   0  0  0  0  0  0  0  0  0  0  0  0
   27.6551   27.8563    0.4625 C   0  0  0  0  0  0  0  0  0  0  0  0
   33.2141   22.1686    6.6264 C   0  0  0  0  0  0  0  0  0  0  0  0
   30.4179   23.2659    6.0623 O   0  0  0  0  0  0  0  0  0  0  0  0
   35.3916   23.4434    5.8322 C   0  0  0  0  0  0  0  0  0  0  0  0
   33.9946   25.1433    8.4148 O   0  0  0  0  0  0  0  0  0  0  0  0
   34.1026   24.3451    7.8234 C   0  0  0  0  0  0  0  0  0  0  0  0
   26.5755   28.4284    0.5153 C   0  0  0  0  0  0  0  0  0  0  0  0
   33.4836   23.4823    7.5426 C   0  0  0  0  0  0  0  0  0  0  0  0
   30.8292   24.9316    3.3187 C   0  0  0  0  0  0  0  0  0  0  0  0
   28.5548   28.1999   -0.9105 C   0  0  0  0  0  0  0  0  0  0  0  0
   31.9021   26.0252    2.7513 C   0  0  0  0  0  0  0  0  0  0  0  0
   25.8479   29.0257    0.1085 O   0  0  0  0  0  0  0  0  0  0  0  0
   31.3136   22.8217    5.1507 C   0  0  0  0  0  0  0  0  0  0  0  0
   29.1013   26.5698    0.2060 C   0  0  0  0  0  0  0  0  0  0  0  0
   30.2204   27.5775   -0.1800 C   0  0  0  0  0  0  0  0  0  0  0  0
   31.4876   26.8747    3.1874 O   0  0  0  0  0  0  0  0  0  0  0  0
   33.3308   23.7170    5.1476 C   0  0  0  0  0  0  0  0  0  0  0  0
   30.4901   24.0603    1.4376 C   0  0  0  0  0  0  0  0  0  0  0  0
   32.0120   23.4629    4.1084 C   0  0  0  0  0  0  0  0  0  0  0  0
   32.4033   24.3953    1.6249 C   0  0  0  0  0  0  0  0  0  0  0  0
   32.9310   24.6116    3.2306 C   0  0  0  0  0  0  0  0  0  0  0  0
  7  3  1  0
 10  5  1  0
 10  6  1  0
 12  4  1  0
 12  6  1  0
 12  8  1  0
 14  8  1  0
 14 13  1  0
 15  9  1  0
 16 10  1  0
 16 14  1  0
 17  2  1  0
 18  9  1  0
 19  1  1  0
 19 17  1  0
 20 15  1  0
 21  5  1  0
 21 11  1  0
 22  7  1  0
 22  9  1  0
 23 18  1  0
 23 22  1  0
 24 19  1  0
 25  4  1  0
 25  6  1  0
 26  2  1  0
 26  3  1  0
 27  2  1  0
 27 21  1  0
 27 25  1  0
 28 26  1  0
 29 19  1  0
 29 27  1  0
 29 28  1  0
M  END
>  <ID>  (1) 
conformer_0

$$$$
