
     RDKit          3D

 29 34  0  0  0  0  0  0  0  0999 V2000
   30.7391   25.0786    3.1047 C   0  0  0  0  0  0  0  0  0  0  0  0
   34.4562   22.3827    4.7930 C   0  0  0  0  0  0  0  0  0  0  0  0
   30.0245   23.4135    1.6331 C   0  0  0  0  0  0  0  0  0  0  0  0
   28.9940   24.2393    1.8621 C   0  0  0  0  0  0  0  0  0  0  0  0
   31.5671   24.9898    1.0264 C   0  0  0  0  0  0  0  0  0  0  0  0
   32.3536   22.8999    4.0487 C   0  0  0  0  0  0  0  0  0  0  0  0
   32.4960   24.5636    2.2455 C   0  0  0  0  0  0  0  0  0  0  0  0
   30.8258   27.1433    0.0950 C   0  0  0  0  0  0  0  0  0  0  0  0
   34.2128   23.8863    3.9364 C   0  0  0  0  0  0  0  0  0  0  0  0
   29.3855   27.6898   -0.6103 C   0  0  0  0  0  0  0  0  0  0  0  0
   34.1882   24.0664    7.8817 C   0  0  0  0  0  0  0  0  0  0  0  0
   29.7082   25.5064    1.2032 C   0  0  0  0  0  0  0  0  0  0  0  0
   33.5724   24.7946    8.3513 O   0  0  0  0  0  0  0  0  0  0  0  0
   30.0939   22.9778    5.3522 O   0  0  0  0  0  0  0  0  0  0  0  0
   26.7283   28.5020    0.4155 C   0  0  0  0  0  0  0  0  0  0  0  0
   26.4600   29.3592   -0.4055 O   0  0  0  0  0  0  0  0  0  0  0  0
   25.8570   28.0922    0.9919 O   0  0  0  0  0  0  0  0  0  0  0  0
   32.4330   26.6393    3.2990 O   0  0  0  0  0  0  0  0  0  0  0  0
   30.5500   22.6306    4.1369 C   0  0  0  0  0  0  0  0  0  0  0  0
   32.6447   24.4074    4.0445 C   0  0  0  0  0  0  0  0  0  0  0  0
   33.8279   23.1944    6.2671 C   0  0  0  0  0  0  0  0  0  0  0  0
   30.6631   23.3999    3.1960 C   0  0  0  0  0  0  0  0  0  0  0  0
   32.2815   25.6737    2.7208 C   0  0  0  0  0  0  0  0  0  0  0  0
   28.7102   26.6962    0.9896 C   0  0  0  0  0  0  0  0  0  0  0  0
   28.2288   28.1045    0.3266 C   0  0  0  0  0  0  0  0  0  0  0  0
   32.8940   21.9275    5.6792 C   0  0  0  0  0  0  0  0  0  0  0  0
   33.2582   22.4512    7.4949 C   0  0  0  0  0  0  0  0  0  0  0  0
   35.2555   24.2131    5.3165 C   0  0  0  0  0  0  0  0  0  0  0  0
   35.2928   24.6331    6.6957 C   0  0  0  0  0  0  0  0  0  0  0  0
  4  3  1  0
  7  5  1  0
  9  2  1  0
 10  8  1  0
 12  4  1  0
 12  5  1  0
 13 11  1  0
 16 15  1  0
 17 15  2  0
 19  6  1  0
 19 14  1  0
 20  6  1  0
 20  7  1  0
 20  9  1  0
 21  2  1  0
 21 11  1  0
 22  1  1  0
 22  3  1  0
 22 19  1  0
 23  1  1  0
 23  7  1  0
 23 18  1  0
 24 12  1  0
 25 10  1  0
 25 15  1  0
 25 24  1  0
 26  2  1  0
 26 21  1  0
 27 11  1  0
 27 21  1  0
 27 26  1  0
 28  9  1  0
 29 11  1  0
 29 28  1  0
M  END
>  <ID>  (1) 
conformer_0

$$$$
