
     RDKit          3D

 23 24  0  0  0  0  0  0  0  0999 V2000
   29.9513   23.7614    1.9958 C   0  0  0  0  0  0  0  0  0  0  0  0
   28.9868   28.0538   -0.0529 C   0  0  0  0  0  0  0  0  0  0  0  0
   30.9873   23.6482    3.0391 C   0  0  1  0  0  0  0  0  0  0  0  0
   29.0468   24.5283    1.5464 C   0  0  0  0  0  0  0  0  0  0  0  0
   33.6085   22.7656    6.7301 C   0  0  0  0  0  0  0  0  0  0  0  0
   30.1593   26.7998    0.4533 C   0  0  0  0  0  0  0  0  0  0  0  0
   32.3034   24.6179    3.5230 C   0  0  2  0  0  0  0  0  0  0  0  0
   33.1631   21.9384    5.4409 C   0  0  0  0  0  0  0  0  0  0  0  0
   28.2833   27.4757    0.4842 C   0  0  0  0  0  0  0  0  0  0  0  0
   35.1424   24.5053    6.4783 C   0  0  0  0  0  0  0  0  0  0  0  0
   34.2532   23.9786    8.1453 C   0  0  0  0  0  0  0  0  0  0  0  0
   30.1466   23.0892    5.4002 O   0  0  0  0  0  0  0  0  0  0  0  0
   31.6430   26.8195    3.4493 O   0  0  0  0  0  0  0  0  0  0  0  0
   33.3084   23.5135    4.6335 C   0  0  2  0  0  0  0  0  0  0  0  0
   31.7766   25.8904    2.8546 C   0  0  0  0  0  0  0  0  0  0  0  0
   34.6018   24.3578    8.9503 O   0  0  0  0  0  0  0  0  0  0  0  0
   26.5441   28.2164    0.5717 C   0  0  0  0  0  0  0  0  0  0  0  0
   34.5754   24.3099    4.8823 C   0  0  2  0  0  0  0  0  0  0  0  0
   34.7774   22.9111    4.0888 C   0  0  0  0  0  0  0  0  0  0  0  0
   25.8383   27.7550    1.1390 O   0  0  0  0  0  0  0  0  0  0  0  0
   31.1500   23.0238    4.2961 C   0  0  0  0  0  0  0  0  0  0  0  0
   31.7204   24.9612    1.3183 C   0  0  0  0  0  0  0  0  0  0  0  0
   30.4632   25.5647    1.1663 C   0  0  2  0  0  0  0  0  0  0  0  0
  3  1  1  0
  4  1  1  0
  6  2  1  0
  7  3  1  0
  8  5  1  0
  9  2  1  0
 11 10  2  3
 14  7  1  0
 14  8  1  1
  7 15  1  1
 15 13  1  0
 16 11  1  0
 17  9  1  0
 18 10  1  0
 18 14  1  0
 19 14  1  0
 18 19  1  6
 20 17  2  0
  3 21  1  1
 21 12  1  0
 22 15  1  0
 23  4  1  0
 23  6  1  6
 23 22  1  0
M  END
>  <ID>  (1) 
conformer_0

$$$$
