
     RDKit          3D

 28 31  0  0  0  0  0  0  0  0999 V2000
   35.1707   23.2555    4.5013 C   0  0  0  0  0  0  0  0  0  0  0  0
   34.8660   22.4332    5.7722 C   0  0  0  0  0  0  0  0  0  0  0  0
   28.0626   27.9128    0.5335 C   0  0  0  0  0  0  0  0  0  0  0  0
   29.1595   26.0730    0.9410 C   0  0  0  0  0  0  0  0  0  0  0  0
   33.0317   22.0565    5.6452 C   0  0  0  0  0  0  0  0  0  0  0  0
   31.8491   24.5726    2.8642 C   0  0  0  0  0  0  0  0  0  0  0  0
   33.6411   24.1493    3.6306 C   0  0  0  0  0  0  0  0  0  0  0  0
   33.1921   23.4746    4.9475 C   0  0  0  0  0  0  0  0  0  0  0  0
   32.2711   24.7711    1.5467 C   0  0  0  0  0  0  0  0  0  0  0  0
   30.1236   23.3267    2.6147 C   0  0  0  0  0  0  0  0  0  0  0  0
   28.8605   24.2624    1.7110 C   0  0  0  0  0  0  0  0  0  0  0  0
   30.3140   23.0775    5.8085 O   0  0  0  0  0  0  0  0  0  0  0  0
   32.1724   26.8554    3.4511 O   0  0  0  0  0  0  0  0  0  0  0  0
   26.6616   28.3842    0.6368 C   0  0  0  0  0  0  0  0  0  0  0  0
   35.2503   24.4313    6.0819 C   0  0  0  0  0  0  0  0  0  0  0  0
   32.2671   26.0705    2.7855 C   0  0  0  0  0  0  0  0  0  0  0  0
   25.7953   27.7677    1.0869 O   0  0  0  0  0  0  0  0  0  0  0  0
   33.9199   25.1595    7.9626 O   0  0  0  0  0  0  0  0  0  0  0  0
   26.2470   29.2307    0.1850 O   0  0  0  0  0  0  0  0  0  0  0  0
   31.3557   22.7700    4.6600 C   0  0  0  0  0  0  0  0  0  0  0  0
   34.1738   24.2295    7.2270 C   0  0  0  0  0  0  0  0  0  0  0  0
   31.0761   25.9034    0.8284 C   0  0  0  0  0  0  0  0  0  0  0  0
   31.5513   23.0787    3.5421 C   0  0  0  0  0  0  0  0  0  0  0  0
   30.1758   24.6075    1.6825 C   0  0  0  0  0  0  0  0  0  0  0  0
   30.3003   27.2230   -0.5211 C   0  0  0  0  0  0  0  0  0  0  0  0
   28.9553   27.8839   -0.7796 C   0  0  0  0  0  0  0  0  0  0  0  0
   34.0791   23.8797    7.3768 C   0  0  0  0  0  0  0  0  0  0  0  0
   33.2966   22.2630    7.1251 C   0  0  0  0  0  0  0  0  0  0  0  0
  2  1  1  0
  5  2  1  0
  8  5  1  0
  8  7  1  0
  9  6  1  0
 11 10  1  0
 14  3  1  0
 16  6  1  0
 16  9  1  0
 16 13  1  0
 17 14  2  0
 19 14  1  0
 20  8  1  0
 20 12  1  0
 21 15  1  0
 21 18  1  0
 22  4  1  0
 22  9  1  0
 23  6  1  0
 23 10  1  0
 23 20  1  0
 24  4  1  0
 24 10  1  0
 24 11  1  0
 24 22  1  0
 25 22  1  0
 26  3  1  0
 26 25  1  0
 27 21  1  0
 28  5  1  0
 28 27  1  0
M  END
>  <ID>  (1) 
conformer_0

$$$$
