
     RDKit          3D

 25 27  0  0  0  0  0  0  0  0999 V2000
   31.2162   23.7432    3.5560 C   0  0  0  0  0  0  0  0  0  0  0  0
   33.0677   24.0692    3.6081 C   0  0  0  0  0  0  0  0  0  0  0  0
   33.2659   21.8711    6.0392 C   0  0  0  0  0  0  0  0  0  0  0  0
   31.9109   24.6706    1.8157 C   0  0  0  0  0  0  0  0  0  0  0  0
   29.2127   25.3283    1.2136 C   0  0  0  0  0  0  0  0  0  0  0  0
   30.0888   23.5679    2.7810 C   0  0  0  0  0  0  0  0  0  0  0  0
   33.8638   23.2335    6.7075 C   0  0  1  0  0  0  0  0  0  0  0  0
   30.3477   26.6063    0.3468 C   0  0  2  0  0  0  0  0  0  0  0  0
   34.8389   23.2935    4.0498 C   0  0  0  0  0  0  0  0  0  0  0  0
   28.9852   27.5940    0.0792 C   0  0  0  0  0  0  0  0  0  0  0  0
   34.5229   24.3530    7.9569 C   0  0  1  0  0  0  0  0  0  0  0  0
   34.6523   23.5540    5.1647 C   0  0  0  0  0  0  0  0  0  0  0  0
   26.4311   28.6095    0.3741 C   0  0  0  0  0  0  0  0  0  0  0  0
   30.3393   23.0138    5.8750 O   0  0  0  0  0  0  0  0  0  0  0  0
   32.0957   26.6725    3.3056 O   0  0  0  0  0  0  0  0  0  0  0  0
   26.0883   29.5300   -0.2886 O   0  0  0  0  0  0  0  0  0  0  0  0
   25.5989   28.1983    0.9219 O   0  0  0  0  0  0  0  0  0  0  0  0
   30.9568   24.8871    1.0687 C   0  0  1  0  0  0  0  0  0  0  0  0
   31.0920   22.7859    4.9652 C   0  0  2  0  0  0  0  0  0  0  0  0
   35.2287   24.7065    6.4813 C   0  0  0  0  0  0  0  0  0  0  0  0
   28.0937   28.0822    0.2358 C   0  0  0  0  0  0  0  0  0  0  0  0
   34.5358   24.7797    8.4837 O   0  0  0  0  0  0  0  0  0  0  0  0
   31.9654   25.7282    2.8113 C   0  0  0  0  0  0  0  0  0  0  0  0
   32.5011   22.7214    4.8279 C   0  0  1  0  0  0  0  0  0  0  0  0
   29.0731   23.9437    1.9083 C   0  0  0  0  0  0  0  0  0  0  0  0
  2  1  1  0
  6  1  2  0
  7  3  1  1
  8  5  1  0
  8 10  1  6
 11  7  1  0
 12  7  1  0
 12  9  2  3
 16 13  1  0
 17 13  2  0
 18  4  1  1
 18  5  1  0
 18  8  1  0
 19  1  1  0
 19 14  1  1
 20 11  1  0
 20 12  1  0
 21 10  3  0
 21 13  1  0
 11 22  1  6
 23  4  1  0
 23 15  1  0
 24  2  1  0
 24  3  1  1
 24 19  1  0
 25  5  1  0
 25  6  2  0
M  END
>  <ID>  (1) 
conformer_0

$$$$
