
     RDKit          3D

 31 35  0  0  0  0  0  0  0  0999 V2000
   34.5762   22.3821    4.2886 C   0  0  0  0  0  0  0  0  0  0  0  0
   33.4071   21.7332    6.2778 C   0  0  0  0  0  0  0  0  0  0  0  0
   31.0594   24.8666    3.2159 C   0  0  0  0  0  0  0  0  0  0  0  0
   31.2803   23.0511    3.5633 C   0  0  0  0  0  0  0  0  0  0  0  0
   35.0977   24.4788    5.0419 C   0  0  0  0  0  0  0  0  0  0  0  0
   30.7396   24.1776    1.6872 C   0  0  0  0  0  0  0  0  0  0  0  0
   35.3321   24.8419    6.7284 C   0  0  0  0  0  0  0  0  0  0  0  0
   32.9677   24.2677    3.2254 C   0  0  0  0  0  0  0  0  0  0  0  0
   28.7184   28.2343   -0.4343 C   0  0  0  0  0  0  0  0  0  0  0  0
   33.2075   26.5307    3.0222 O   0  0  0  0  0  0  0  0  0  0  0  0
   33.4971   23.0780    7.2657 C   0  0  0  0  0  0  0  0  0  0  0  0
   27.8478   28.1027    0.5681 C   0  0  0  0  0  0  0  0  0  0  0  0
   26.3479   28.6104    0.5887 C   0  0  0  0  0  0  0  0  0  0  0  0
   34.4538   23.9998    7.9229 C   0  0  0  0  0  0  0  0  0  0  0  0
   25.7503   29.2613   -0.3984 O   0  0  0  0  0  0  0  0  0  0  0  0
   25.6269   28.3338    1.2776 O   0  0  0  0  0  0  0  0  0  0  0  0
   30.5492   22.5010    4.3499 C   0  0  0  0  0  0  0  0  0  0  0  0
   32.3957   25.7479    2.7401 C   0  0  0  0  0  0  0  0  0  0  0  0
   34.4661   24.3796    8.8470 O   0  0  0  0  0  0  0  0  0  0  0  0
   30.3200   23.5019    5.5563 O   0  0  0  0  0  0  0  0  0  0  0  0
   29.2649   26.4347    0.5192 C   0  0  0  0  0  0  0  0  0  0  0  0
   29.5567   23.3248    2.8141 C   0  0  0  0  0  0  0  0  0  0  0  0
   28.6650   24.2286    1.5912 C   0  0  0  0  0  0  0  0  0  0  0  0
   33.2090   23.4251    5.0682 C   0  0  0  0  0  0  0  0  0  0  0  0
   32.3739   21.7769    5.1625 C   0  0  0  0  0  0  0  0  0  0  0  0
   29.4877   25.3941    1.6474 C   0  0  0  0  0  0  0  0  0  0  0  0
   30.3085   27.4625   -0.1429 C   0  0  0  0  0  0  0  0  0  0  0  0
   31.4723   26.9520    3.3572 O   0  0  0  0  0  0  0  0  0  0  0  0
   31.4546   25.8609    0.9706 C   0  0  0  0  0  0  0  0  0  0  0  0
   32.5986   24.4148    1.3340 C   0  0  0  0  0  0  0  0  0  0  0  0
   35.0732   23.1446    5.8292 C   0  0  0  0  0  0  0  0  0  0  0  0
  4  3  1  0
  6  3  1  0
  7  5  1  0
 11  2  1  0
 12  9  1  0
 13 12  1  0
 14  7  1  0
 14 11  1  0
 15 13  1  0
 16 13  2  0
 17  4  1  0
 18  3  1  0
 18  8  1  0
 18 10  1  0
 19 14  1  0
 20 17  1  0
 22  4  1  0
 22  6  1  0
 23 22  1  0
 24  1  1  0
 24  8  1  0
 25  2  1  0
 25 24  1  0
 26  6  1  0
 26 21  1  0
 26 23  1  0
 27  9  1  0
 27 21  1  0
 28 18  1  0
 30  6  1  0
 30  8  1  0
 30 29  1  0
 31  1  1  0
 31  5  1  0
 31  7  1  0
M  END
>  <ID>  (1) 
conformer_0

$$$$
