
     RDKit          3D

 27 29  0  0  0  0  0  0  0  0999 V2000
   32.4377   23.1407    4.4560 C   0  0  0  0  0  0  0  0  0  0  0  0
   31.1216   23.7753    3.0468 C   0  0  2  0  0  0  0  0  0  0  0  0
   33.6506   24.7182    4.5194 C   0  0  0  0  0  0  0  0  0  0  0  0
   35.2557   24.7020    5.8119 C   0  0  0  0  0  0  0  0  0  0  0  0
   32.4959   24.5573    2.8922 C   0  0  2  0  0  0  0  0  0  0  0  0
   34.1643   23.5881    6.3789 C   0  0  0  0  0  0  0  0  0  0  0  0
   29.6446   27.8498   -0.1909 C   0  0  1  0  0  0  0  0  0  0  0  0
   32.6326   21.9721    6.2308 C   0  0  0  0  0  0  0  0  0  0  0  0
   28.0489   28.0945    0.1768 C   0  0  2  0  0  0  0  0  0  0  0  0
   32.4693   26.9289    3.0837 O   0  0  0  0  0  0  0  0  0  0  0  0
   32.3133   26.0319    2.6717 C   0  0  2  0  0  0  0  0  0  0  0  0
   31.0432   27.1336    0.5686 C   0  0  0  0  0  0  0  0  0  0  0  0
   25.8780   27.8129    1.3527 O   0  0  0  0  0  0  0  0  0  0  0  0
   26.5443   28.3162    0.7103 C   0  0  0  0  0  0  0  0  0  0  0  0
   30.3068   23.1429    5.7245 O   0  0  0  0  0  0  0  0  0  0  0  0
   34.6694   23.6850    3.8722 C   0  0  0  0  0  0  0  0  0  0  0  0
   33.9257   24.4976    8.3079 O   0  0  0  0  0  0  0  0  0  0  0  0
   33.7715   23.7955    7.5603 C   0  0  0  0  0  0  0  0  0  0  0  0
   31.2981   22.6996    4.6725 C   0  0  2  0  0  0  0  0  0  0  0  0
   26.1727   28.8150   -0.3139 O   0  0  0  0  0  0  0  0  0  0  0  0
   30.0201   23.6037    2.0217 C   0  0  0  0  0  0  0  0  0  0  0  0
   28.7073   26.6947    1.0063 C   0  0  0  0  0  0  0  0  0  0  0  0
   31.3773   25.1708    1.5406 C   0  0  2  0  0  0  0  0  0  0  0  0
   29.8870   25.6858    1.3680 C   0  0  2  0  0  0  0  0  0  0  0  0
   28.8622   24.3939    1.7129 C   0  0  0  0  0  0  0  0  0  0  0  0
   33.7911   22.1817    5.6792 C   0  0  0  0  0  0  0  0  0  0  0  0
   35.4092   22.7412    4.8300 C   0  0  0  0  0  0  0  0  0  0  0  0
  3  1  1  0
  5  2  1  1
  6  4  1  0
  9  7  1  0
 11  5  1  0
 11 10  1  1
  7 12  1  1
  9 14  1  1
 14 13  2  0
 16  3  1  0
 18  6  2  3
 18 17  1  0
 19  1  1  0
 19  2  1  0
 19 15  1  1
 20 14  1  0
  2 21  1  6
 22  7  1  0
 22  9  1  0
 23  5  1  0
 23 11  1  0
 24 22  1  6
 23 24  1  1
 25 21  1  0
 25 24  1  0
 26  6  1  0
 26  8  2  3
 27 16  1  0
 27 26  1  0
M  END
>  <ID>  (1) 
conformer_0

$$$$
