
     RDKit          3D

 27 30  0  0  0  0  0  0  0  0999 V2000
   30.3532   23.3056    2.3309 C   0  0  0  0  0  0  0  0  0  0  0  0
   30.7862   26.2329    1.2694 C   0  0  0  0  0  0  0  0  0  0  0  0
   29.4429   25.2721    1.3868 C   0  0  0  0  0  0  0  0  0  0  0  0
   34.7108   23.9831    4.4193 C   0  0  0  0  0  0  0  0  0  0  0  0
   33.0644   23.5342    4.9244 C   0  0  0  0  0  0  0  0  0  0  0  0
   30.9571   24.6625    3.1600 C   0  0  0  0  0  0  0  0  0  0  0  0
   29.2126   23.8810    1.6930 C   0  0  0  0  0  0  0  0  0  0  0  0
   35.1343   24.5382    5.8725 C   0  0  0  0  0  0  0  0  0  0  0  0
   34.7847   24.2476    7.4979 C   0  0  0  0  0  0  0  0  0  0  0  0
   29.7376   27.7450   -0.4536 C   0  0  0  0  0  0  0  0  0  0  0  0
   25.6696   27.7572    1.3592 O   0  0  0  0  0  0  0  0  0  0  0  0
   26.4152   28.3926    0.8187 C   0  0  0  0  0  0  0  0  0  0  0  0
   32.7455   26.7114    2.8429 O   0  0  0  0  0  0  0  0  0  0  0  0
   26.2944   29.1616   -0.2653 O   0  0  0  0  0  0  0  0  0  0  0  0
   33.7570   25.3160    7.9679 O   0  0  0  0  0  0  0  0  0  0  0  0
   30.1975   22.9981    5.5141 O   0  0  0  0  0  0  0  0  0  0  0  0
   32.5617   25.7109    2.4094 C   0  0  0  0  0  0  0  0  0  0  0  0
   29.2518   27.0126    0.4941 C   0  0  0  0  0  0  0  0  0  0  0  0
   34.3854   24.4462    7.3540 C   0  0  0  0  0  0  0  0  0  0  0  0
   31.2081   22.4894    4.8265 C   0  0  0  0  0  0  0  0  0  0  0  0
   27.9173   27.8903    0.6630 C   0  0  0  0  0  0  0  0  0  0  0  0
   33.7757   22.5289    6.1630 C   0  0  0  0  0  0  0  0  0  0  0  0
   32.7543   21.3206    5.6514 C   0  0  0  0  0  0  0  0  0  0  0  0
   34.8624   22.2173    5.0233 C   0  0  0  0  0  0  0  0  0  0  0  0
   31.7355   23.2167    3.7974 C   0  0  0  0  0  0  0  0  0  0  0  0
   31.8507   24.5147    1.6728 C   0  0  0  0  0  0  0  0  0  0  0  0
   33.2314   24.5701    3.3174 C   0  0  0  0  0  0  0  0  0  0  0  0
  3  2  1  0
  5  4  1  0
  6  1  1  0
  7  1  1  0
  7  3  1  0
  8  4  1  0
 12 11  2  0
 14 12  1  0
 17 13  1  0
 18  2  1  0
 18  3  1  0
 18 10  1  0
 19  8  1  0
 19  9  1  0
 19 15  1  0
 20 16  1  0
 21 12  1  0
 21 18  1  0
 22  5  1  0
 23 22  1  0
 24  4  1  0
 24 22  1  0
 25  5  1  0
 25  6  1  0
 25 20  1  0
 26  6  1  0
 26 17  1  0
 27  4  1  0
 27  5  1  0
 27 17  1  0
M  END
>  <ID>  (1) 
conformer_0

$$$$
