
     RDKit          3D

 30 38  0  0  0  0  0  0  0  0999 V2000
   35.1727   24.8246    6.7615 C   0  0  0  0  0  0  0  0  0  0  0  0
   32.4183   22.1453    5.1801 C   0  0  0  0  0  0  0  0  0  0  0  0
   34.5057   22.2492    4.8707 C   0  0  0  0  0  0  0  0  0  0  0  0
   35.5693   23.9777    5.5038 C   0  0  0  0  0  0  0  0  0  0  0  0
   34.6212   23.7425    3.6508 C   0  0  0  0  0  0  0  0  0  0  0  0
   33.7061   24.2808    5.0795 C   0  0  0  0  0  0  0  0  0  0  0  0
   31.5900   24.0870    3.3912 C   0  0  0  0  0  0  0  0  0  0  0  0
   33.3481   21.4461    6.5354 C   0  0  0  0  0  0  0  0  0  0  0  0
   32.6452   23.0052    3.8388 C   0  0  0  0  0  0  0  0  0  0  0  0
   28.6831   26.9977    0.8842 C   0  0  0  0  0  0  0  0  0  0  0  0
   30.3038   23.4060    6.0009 O   0  0  0  0  0  0  0  0  0  0  0  0
   33.8906   22.9533    6.4956 C   0  0  0  0  0  0  0  0  0  0  0  0
   34.1340   23.9073    7.7188 C   0  0  0  0  0  0  0  0  0  0  0  0
   26.3917   28.5049    0.3275 C   0  0  0  0  0  0  0  0  0  0  0  0
   34.4521   24.6387    8.6380 O   0  0  0  0  0  0  0  0  0  0  0  0
   25.8625   28.3469    1.1007 O   0  0  0  0  0  0  0  0  0  0  0  0
   31.8004   26.6772    3.5721 O   0  0  0  0  0  0  0  0  0  0  0  0
   27.8153   28.2960    0.0573 C   0  0  0  0  0  0  0  0  0  0  0  0
   30.8781   23.0656    4.8455 C   0  0  0  0  0  0  0  0  0  0  0  0
   25.9941   28.8866   -0.5610 O   0  0  0  0  0  0  0  0  0  0  0  0
   29.7361   25.6182    0.7614 C   0  0  0  0  0  0  0  0  0  0  0  0
   29.9741   25.1233    2.2862 C   0  0  0  0  0  0  0  0  0  0  0  0
   32.8804   24.7148    2.5154 C   0  0  0  0  0  0  0  0  0  0  0  0
   31.8291   25.6159    1.1749 C   0  0  0  0  0  0  0  0  0  0  0  0
   31.7902   25.7424    2.8802 C   0  0  0  0  0  0  0  0  0  0  0  0
   29.2600   27.8211   -0.4875 C   0  0  0  0  0  0  0  0  0  0  0  0
   30.7944   27.0483    0.3340 C   0  0  0  0  0  0  0  0  0  0  0  0
   30.6785   23.7654    1.4934 C   0  0  0  0  0  0  0  0  0  0  0  0
   30.3230   23.1249    3.3061 C   0  0  0  0  0  0  0  0  0  0  0  0
   28.7487   24.0258    1.7685 C   0  0  0  0  0  0  0  0  0  0  0  0
  4  1  1  0
  5  3  1  0
  6  4  1  0
  6  5  1  0
  8  2  1  0
  9  2  1  0
  9  7  1  0
 12  3  1  0
 12  6  1  0
 12  8  1  0
 13  1  1  0
 13 12  1  0
 15 13  1  0
 16 14  2  0
 18 10  1  0
 18 14  1  0
 19  2  1  0
 19 11  1  0
 20 14  1  0
 21 10  1  0
 22 21  1  0
 23  7  1  0
 24 23  1  0
 25  7  1  0
 25 17  1  0
 25 23  1  0
 25 24  1  0
 26 10  1  0
 26 18  1  0
 27 21  1  0
 27 24  1  0
 27 26  1  0
 28 22  1  0
 29  7  1  0
 29 19  1  0
 29 28  1  0
 30 22  1  0
 30 28  1  0
M  END
>  <ID>  (1) 
conformer_0

$$$$
