
     RDKit          3D

 29 31  0  0  0  0  0  0  0  0999 V2000
   34.3059   23.7488    6.8292 C   0  0  0  0  0  0  0  0  0  0  0  0
   33.3185   21.9230    6.8838 C   0  0  0  0  0  0  0  0  0  0  0  0
   33.4812   24.2979    4.1033 C   0  0  0  0  0  0  0  0  0  0  0  0
   35.3447   24.1841    5.8425 C   0  0  0  0  0  0  0  0  0  0  0  0
   31.0581   24.8715    3.2849 C   0  0  0  0  0  0  0  0  0  0  0  0
   31.8069   23.2291    3.6427 C   0  0  0  0  0  0  0  0  0  0  0  0
   32.6506   21.5508    5.6746 C   0  0  0  0  0  0  0  0  0  0  0  0
   29.4088   26.2934    0.6194 C   0  0  0  0  0  0  0  0  0  0  0  0
   30.2273   27.7631   -0.0763 C   0  0  0  0  0  0  0  0  0  0  0  0
   25.9313   27.8387    1.1492 O   0  0  0  0  0  0  0  0  0  0  0  0
   28.7369   24.4811    1.5997 C   0  0  0  0  0  0  0  0  0  0  0  0
   30.3943   23.3048    5.7605 O   0  0  0  0  0  0  0  0  0  0  0  0
   32.3682   25.8054    3.0030 C   0  0  0  0  0  0  0  0  0  0  0  0
   34.2797   24.2999    7.8386 C   0  0  0  0  0  0  0  0  0  0  0  0
   32.2871   26.6970    3.4680 O   0  0  0  0  0  0  0  0  0  0  0  0
   26.6802   28.3762    0.4428 C   0  0  0  0  0  0  0  0  0  0  0  0
   32.3343   24.4975    2.0080 C   0  0  0  0  0  0  0  0  0  0  0  0
   31.5908   26.6729    0.9904 C   0  0  0  0  0  0  0  0  0  0  0  0
   33.7524   24.6993    8.4160 O   0  0  0  0  0  0  0  0  0  0  0  0
   31.1631   22.7222    4.5167 C   0  0  0  0  0  0  0  0  0  0  0  0
   26.2751   29.0951   -0.4951 O   0  0  0  0  0  0  0  0  0  0  0  0
   28.2851   28.4900   -0.2376 C   0  0  0  0  0  0  0  0  0  0  0  0
   28.2765   27.4099    0.5365 C   0  0  0  0  0  0  0  0  0  0  0  0
   30.6160   23.8243    1.3686 C   0  0  0  0  0  0  0  0  0  0  0  0
   34.8536   23.0649    4.1844 C   0  0  0  0  0  0  0  0  0  0  0  0
   33.0075   23.4375    5.3207 C   0  0  0  0  0  0  0  0  0  0  0  0
   34.6728   22.2293    5.5587 C   0  0  0  0  0  0  0  0  0  0  0  0
   29.7670   23.4322    2.6397 C   0  0  0  0  0  0  0  0  0  0  0  0
   30.2341   25.4679    1.3678 C   0  0  0  0  0  0  0  0  0  0  0  0
  4  1  1  0
  6  3  1  0
  6  5  1  0
  7  2  1  0
  9  8  1  0
 13  5  1  0
 14  1  1  0
 15 13  1  0
 16 10  2  0
 17  5  1  0
 17 13  1  0
 19 14  1  0
 20  6  1  0
 20 12  1  0
 21 16  1  0
 22 16  1  0
 23  8  1  0
 23 22  1  0
 24 17  1  0
 25  3  1  0
 26  3  1  0
 26  7  1  0
 27  1  1  0
 27  2  1  0
 27 25  1  0
 28 11  1  0
 28 24  1  0
 29  8  1  0
 29 11  1  0
 29 18  1  0
 29 24  1  0
M  END
>  <ID>  (1) 
conformer_0

$$$$
