
     RDKit          3D

 27 32  0  0  0  0  0  0  0  0999 V2000
   35.0466   22.7481    4.9114 C   0  0  0  0  0  0  0  0  0  0  0  0
   32.6619   21.7676    5.6541 C   0  0  0  0  0  0  0  0  0  0  0  0
   34.7546   23.7359    4.2100 C   0  0  0  0  0  0  0  0  0  0  0  0
   35.2317   24.3299    6.0235 C   0  0  0  0  0  0  0  0  0  0  0  0
   33.0467   24.6283    3.9858 C   0  0  0  0  0  0  0  0  0  0  0  0
   31.0564   24.3098    1.3312 C   0  0  0  0  0  0  0  0  0  0  0  0
   33.2692   22.0814    6.7174 C   0  0  0  0  0  0  0  0  0  0  0  0
   31.9203   25.0989    2.0526 C   0  0  0  0  0  0  0  0  0  0  0  0
   34.1315   24.2430    7.6073 C   0  0  0  0  0  0  0  0  0  0  0  0
   30.8313   22.3702    4.2278 C   0  0  0  0  0  0  0  0  0  0  0  0
   29.6754   27.6681   -0.1824 C   0  0  0  0  0  0  0  0  0  0  0  0
   29.9596   22.6176    5.2428 O   0  0  0  0  0  0  0  0  0  0  0  0
   32.3020   26.1787    2.6729 C   0  0  0  0  0  0  0  0  0  0  0  0
   32.7191   23.0473    4.5946 C   0  0  0  0  0  0  0  0  0  0  0  0
   31.6264   23.8391    3.3549 C   0  0  0  0  0  0  0  0  0  0  0  0
   32.3453   26.9812    3.0615 O   0  0  0  0  0  0  0  0  0  0  0  0
   26.3475   27.8767    1.2942 O   0  0  0  0  0  0  0  0  0  0  0  0
   26.8214   28.3698    0.4798 C   0  0  0  0  0  0  0  0  0  0  0  0
   33.8286   24.8082    8.3432 O   0  0  0  0  0  0  0  0  0  0  0  0
   26.1492   29.1675   -0.2319 O   0  0  0  0  0  0  0  0  0  0  0  0
   28.2259   27.9265   -0.0581 C   0  0  0  0  0  0  0  0  0  0  0  0
   31.0148   26.5150    0.5922 C   0  0  0  0  0  0  0  0  0  0  0  0
   28.9042   26.4546    0.8054 C   0  0  0  0  0  0  0  0  0  0  0  0
   29.5676   25.1303    1.4012 C   0  0  0  0  0  0  0  0  0  0  0  0
   30.0219   23.4217    2.7436 C   0  0  0  0  0  0  0  0  0  0  0  0
   28.7919   23.9198    1.9288 C   0  0  0  0  0  0  0  0  0  0  0  0
   33.7972   23.5606    6.3462 C   0  0  0  0  0  0  0  0  0  0  0  0
  3  1  1  0
  4  1  1  0
  5  3  1  0
  7  2  1  0
  8  6  1  0
  9  4  1  0
 12 10  1  0
 13  8  1  0
 14  2  1  0
 14  5  1  0
 15  5  1  0
 15  8  1  0
 15 14  1  0
 16 13  1  0
 18 17  2  0
 19  9  1  0
 20 18  1  0
 21 11  1  0
 21 18  1  0
 22 11  1  0
 23 11  1  0
 23 21  1  0
 24  6  1  0
 24 23  1  0
 25  6  1  0
 25 10  1  0
 25 15  1  0
 26 24  1  0
 26 25  1  0
 27  4  1  0
 27  7  1  0
 27  9  1  0
M  END
>  <ID>  (1) 
conformer_0

$$$$
