
     RDKit          3D

 26 32  0  0  0  0  0  0  0  0999 V2000
   31.2955   23.6450    3.3555 C   0  0  0  0  0  0  0  0  0  0  0  0
   32.7315   22.2684    5.5170 C   0  0  0  0  0  0  0  0  0  0  0  0
   28.1589   27.4296    0.5483 C   0  0  0  0  0  0  0  0  0  0  0  0
   30.1592   23.8186    2.2198 C   0  0  0  0  0  0  0  0  0  0  0  0
   32.1736   24.5778    1.9700 C   0  0  0  0  0  0  0  0  0  0  0  0
   32.6910   23.9802    4.3379 C   0  0  0  0  0  0  0  0  0  0  0  0
   29.0562   25.8314    1.0745 C   0  0  0  0  0  0  0  0  0  0  0  0
   33.7887   21.9470    6.3356 C   0  0  0  0  0  0  0  0  0  0  0  0
   35.2824   24.7212    6.5802 C   0  0  0  0  0  0  0  0  0  0  0  0
   30.2665   22.9662    5.5995 O   0  0  0  0  0  0  0  0  0  0  0  0
   32.1469   26.6958    3.2525 O   0  0  0  0  0  0  0  0  0  0  0  0
   35.0576   24.3070    5.2948 C   0  0  0  0  0  0  0  0  0  0  0  0
   33.7888   24.1096    7.5213 C   0  0  0  0  0  0  0  0  0  0  0  0
   33.5178   24.4557    8.4868 O   0  0  0  0  0  0  0  0  0  0  0  0
   26.7802   28.2175    0.5155 C   0  0  0  0  0  0  0  0  0  0  0  0
   32.3043   25.7892    2.7504 C   0  0  0  0  0  0  0  0  0  0  0  0
   25.6286   27.8227    1.0991 O   0  0  0  0  0  0  0  0  0  0  0  0
   31.2064   22.9309    4.7435 C   0  0  0  0  0  0  0  0  0  0  0  0
   31.0117   25.2507    1.2788 C   0  0  0  0  0  0  0  0  0  0  0  0
   28.9791   24.2860    1.5633 C   0  0  0  0  0  0  0  0  0  0  0  0
   26.5678   28.9294   -0.4638 O   0  0  0  0  0  0  0  0  0  0  0  0
   30.6601   26.6603    0.4340 C   0  0  0  0  0  0  0  0  0  0  0  0
   29.3352   27.5239   -0.2049 C   0  0  0  0  0  0  0  0  0  0  0  0
   33.9287   24.3232    3.6974 C   0  0  0  0  0  0  0  0  0  0  0  0
   33.5647   23.4861    6.4816 C   0  0  0  0  0  0  0  0  0  0  0  0
   34.9576   22.9498    4.6545 C   0  0  0  0  0  0  0  0  0  0  0  0
  4  1  1  0
  5  1  1  0
  6  1  1  0
  7  3  1  0
  8  2  1  0
 12  9  1  0
 13  9  1  0
 14 13  1  0
 15  3  1  0
 16  5  1  0
 16 11  1  0
 17 15  2  0
 18  1  1  0
 18  2  1  0
 18  6  1  0
 18 10  1  0
 19  4  1  0
 19  5  1  0
 20  4  1  0
 20  7  1  0
 21 15  1  0
 22  7  1  0
 22 19  1  0
 23  3  1  0
 23 22  1  0
 24  6  1  0
 24 12  1  0
 25  2  1  0
 25  8  1  0
 25 13  1  0
 26 12  1  0
 26 24  1  0
M  END
>  <ID>  (1) 
conformer_0

$$$$
