
     RDKit          3D

 26 28  0  0  0  0  0  0  0  0999 V2000
   33.8004   23.1364    6.6187 C   0  0  0  0  0  0  0  0  0  0  0  0
   32.1861   25.0342    1.3222 C   0  0  0  0  0  0  0  0  0  0  0  0
   33.0690   24.4697    3.6912 C   0  0  0  0  0  0  0  0  0  0  0  0
   30.5914   23.2072    3.1245 C   0  0  0  0  0  0  0  0  0  0  0  0
   29.2821   23.7420    2.0663 C   0  0  0  0  0  0  0  0  0  0  0  0
   29.3892   24.8050    1.5637 C   0  0  0  0  0  0  0  0  0  0  0  0
   32.3834   22.7003    4.4438 C   0  0  0  0  0  0  0  0  0  0  0  0
   29.1407   27.1529    0.6836 C   0  0  0  0  0  0  0  0  0  0  0  0
   34.9437   22.5670    4.7123 C   0  0  0  0  0  0  0  0  0  0  0  0
   28.6527   28.0391   -0.0357 C   0  0  0  0  0  0  0  0  0  0  0  0
   33.3228   22.1370    5.8479 C   0  0  0  0  0  0  0  0  0  0  0  0
   32.0977   26.7843    3.7498 O   0  0  0  0  0  0  0  0  0  0  0  0
   26.9618   28.5677    0.5062 C   0  0  0  0  0  0  0  0  0  0  0  0
   30.1388   23.0372    5.8169 O   0  0  0  0  0  0  0  0  0  0  0  0
   34.1837   23.7991    7.5934 C   0  0  0  0  0  0  0  0  0  0  0  0
   34.1966   24.2502    8.5237 O   0  0  0  0  0  0  0  0  0  0  0  0
   26.2656   28.3718    1.3039 O   0  0  0  0  0  0  0  0  0  0  0  0
   26.2725   29.0967   -0.3269 O   0  0  0  0  0  0  0  0  0  0  0  0
   32.2380   25.9965    2.9605 C   0  0  0  0  0  0  0  0  0  0  0  0
   35.0448   24.4299    5.5334 C   0  0  0  0  0  0  0  0  0  0  0  0
   35.3843   24.7628    6.5057 C   0  0  0  0  0  0  0  0  0  0  0  0
   30.8409   22.7592    4.5289 C   0  0  0  0  0  0  0  0  0  0  0  0
   34.1781   23.4662    4.0453 C   0  0  0  0  0  0  0  0  0  0  0  0
   30.8081   25.4450    1.6721 C   0  0  0  0  0  0  0  0  0  0  0  0
   30.7589   26.5488    0.3727 C   0  0  0  0  0  0  0  0  0  0  0  0
   31.6880   24.1761    2.8785 C   0  0  0  0  0  0  0  0  0  0  0  0
  5  4  1  0
  6  5  1  0
 10  8  1  0
 11  1  1  0
 11  7  1  0
 13 10  1  0
 15  1  1  0
 16 15  1  0
 17 13  2  0
 18 13  1  0
 19  2  1  0
 19  3  1  0
 19 12  1  0
 21 15  1  0
 21 20  1  0
 22  4  1  0
 22  7  1  0
 22 14  1  0
 23  3  1  0
 23  9  1  0
 24  2  1  0
 24  6  1  0
 25  8  1  0
 25 24  1  0
 26  2  1  0
 26  3  1  0
 26  4  1  0
 26 19  1  0
M  END
>  <ID>  (1) 
conformer_0

$$$$
