
     RDKit          3D

 30 36  0  0  0  0  0  0  0  0999 V2000
   31.2201   23.1799    3.2944 C   0  0  0  0  0  0  0  0  0  0  0  0
   33.7945   24.6643    4.5425 C   0  0  0  0  0  0  0  0  0  0  0  0
   32.7053   23.3181    4.7264 C   0  0  0  0  0  0  0  0  0  0  0  0
   29.4541   23.7599    1.8904 C   0  0  0  0  0  0  0  0  0  0  0  0
   35.2469   24.2626    6.2884 C   0  0  0  0  0  0  0  0  0  0  0  0
   33.2894   21.4247    6.8021 C   0  0  0  0  0  0  0  0  0  0  0  0
   29.1873   24.8847    1.4797 C   0  0  0  0  0  0  0  0  0  0  0  0
   32.6947   21.7004    5.4628 C   0  0  0  0  0  0  0  0  0  0  0  0
   28.4258   27.7181    0.5285 C   0  0  0  0  0  0  0  0  0  0  0  0
   32.8682   24.3489    3.1423 C   0  0  0  0  0  0  0  0  0  0  0  0
   32.4597   26.8221    3.2841 O   0  0  0  0  0  0  0  0  0  0  0  0
   26.7471   28.1832    0.6095 C   0  0  0  0  0  0  0  0  0  0  0  0
   30.3633   26.1402    1.1342 C   0  0  0  0  0  0  0  0  0  0  0  0
   26.0473   27.6710    1.1742 O   0  0  0  0  0  0  0  0  0  0  0  0
   30.3122   23.3296    5.6642 O   0  0  0  0  0  0  0  0  0  0  0  0
   33.7577   24.5914    8.4332 O   0  0  0  0  0  0  0  0  0  0  0  0
   26.4412   28.9502   -0.2035 O   0  0  0  0  0  0  0  0  0  0  0  0
   34.7373   22.4845    5.2931 C   0  0  0  0  0  0  0  0  0  0  0  0
   32.2159   25.6724    2.8616 C   0  0  0  0  0  0  0  0  0  0  0  0
   28.6236   26.4099    1.5716 C   0  0  0  0  0  0  0  0  0  0  0  0
   33.9569   24.0367    7.5973 C   0  0  0  0  0  0  0  0  0  0  0  0
   30.4198   27.0767   -0.1372 C   0  0  0  0  0  0  0  0  0  0  0  0
   29.1201   27.7218   -0.7120 C   0  0  0  0  0  0  0  0  0  0  0  0
   31.5501   22.7800    5.2457 C   0  0  0  0  0  0  0  0  0  0  0  0
   30.8508   25.0033    3.1574 C   0  0  0  0  0  0  0  0  0  0  0  0
   31.0618   23.5169    1.5963 C   0  0  0  0  0  0  0  0  0  0  0  0
   31.8963   24.9414    1.2165 C   0  0  0  0  0  0  0  0  0  0  0  0
   31.5416   23.1321    7.3681 O   0  0  0  0  0  0  0  0  0  0  0  0
   33.8460   23.1507    6.6447 C   0  0  0  0  0  0  0  0  0  0  0  0
   35.2894   23.5022    4.4666 C   0  0  0  0  0  0  0  0  0  0  0  0
  3  2  1  0
  7  4  1  0
  8  3  1  0
  8  6  1  0
 10  2  1  0
 10  3  1  0
 12  9  1  0
 13  7  1  0
 14 12  2  0
 17 12  1  0
 19 10  1  0
 19 11  1  0
 20  7  1  0
 20  9  1  0
 20 13  1  0
 21 16  1  0
 22 13  1  0
 23  9  1  0
 23 22  1  0
 24  3  1  0
 24  8  1  0
 24 15  1  0
 25  1  1  0
 25 19  1  0
 26  1  1  0
 26  4  1  0
 27 13  1  0
 27 19  1  0
 27 26  1  0
 28 24  1  0
 29  5  1  0
 29  6  1  0
 29 18  1  0
 29 21  1  0
 30  2  1  0
 30 18  1  0
M  END
>  <ID>  (1) 
conformer_0

$$$$
