
     RDKit          3D

 29 35  0  0  0  0  0  0  0  0999 V2000
   32.1470   24.0571    1.5725 C   0  0  0  0  0  0  0  0  0  0  0  0
   32.1725   24.6212    3.5517 C   0  0  0  0  0  0  0  0  0  0  0  0
   33.8352   24.3258    3.1638 C   0  0  0  0  0  0  0  0  0  0  0  0
   30.2848   24.9152    2.6930 C   0  0  0  0  0  0  0  0  0  0  0  0
   29.9210   23.4649    1.6958 C   0  0  0  0  0  0  0  0  0  0  0  0
   28.5353   24.2599    1.8140 C   0  0  0  0  0  0  0  0  0  0  0  0
   35.1164   22.9689    3.9601 C   0  0  0  0  0  0  0  0  0  0  0  0
   31.8204   25.6038    1.1483 C   0  0  0  0  0  0  0  0  0  0  0  0
   31.0319   23.4254    3.4463 C   0  0  0  0  0  0  0  0  0  0  0  0
   28.7169   26.5525    1.1853 C   0  0  0  0  0  0  0  0  0  0  0  0
   25.6761   28.0508    1.1672 O   0  0  0  0  0  0  0  0  0  0  0  0
   32.5462   26.7898    3.2022 O   0  0  0  0  0  0  0  0  0  0  0  0
   28.6895   27.5972   -0.2906 C   0  0  0  0  0  0  0  0  0  0  0  0
   26.4145   28.4384    0.7578 C   0  0  0  0  0  0  0  0  0  0  0  0
   30.4821   23.1631    5.9184 O   0  0  0  0  0  0  0  0  0  0  0  0
   34.0118   24.5469    8.4944 O   0  0  0  0  0  0  0  0  0  0  0  0
   27.6351   28.3440    0.4099 C   0  0  0  0  0  0  0  0  0  0  0  0
   33.9432   23.7937    7.5998 C   0  0  0  0  0  0  0  0  0  0  0  0
   30.4207   27.0830    0.3186 C   0  0  0  0  0  0  0  0  0  0  0  0
   32.4921   25.7857    2.8679 C   0  0  0  0  0  0  0  0  0  0  0  0
   31.4987   22.9979    5.2932 C   0  0  0  0  0  0  0  0  0  0  0  0
   34.4057   22.2767    5.6333 C   0  0  0  0  0  0  0  0  0  0  0  0
   32.6770   21.3458    5.7489 C   0  0  0  0  0  0  0  0  0  0  0  0
   32.7137   22.8702    4.8401 C   0  0  0  0  0  0  0  0  0  0  0  0
   35.4526   24.1859    4.8780 C   0  0  0  0  0  0  0  0  0  0  0  0
   33.5508   24.4427    5.0342 C   0  0  0  0  0  0  0  0  0  0  0  0
   34.5867   24.0958    6.5102 C   0  0  0  0  0  0  0  0  0  0  0  0
   29.7862   25.3584    0.9837 C   0  0  0  0  0  0  0  0  0  0  0  0
   33.2309   22.0151    6.9665 C   0  0  0  0  0  0  0  0  0  0  0  0
  3  2  1  0
  5  4  1  0
  6  5  1  0
  8  1  1  0
  9  2  1  0
  9  4  1  0
 13 10  1  0
 14 11  2  0
 17 13  1  0
 17 14  1  0
 18 16  1  0
 19 13  1  0
 20  2  1  0
 20  8  1  0
 20 12  1  0
 21  9  1  0
 21 15  1  0
 22  7  1  0
 23 22  1  0
 24 21  1  0
 24 22  1  0
 24 23  1  0
 25  7  1  0
 26  3  1  0
 26 24  1  0
 26 25  1  0
 27 18  1  0
 27 25  1  0
 27 26  1  0
 28  4  1  0
 28  6  1  0
 28 10  1  0
 28 19  1  0
 29 22  1  0
 29 23  1  0
M  END
>  <ID>  (1) 
conformer_0

$$$$
