
     RDKit          3D

 26 29  0  0  0  0  0  0  0  0999 V2000
   29.8292   23.7732    2.0084 C   0  0  0  0  0  0  0  0  0  0  0  0
   33.4040   23.1170    6.8342 C   0  0  1  0  0  0  0  0  0  0  0  0
   30.9133   26.4688    1.0033 C   0  0  0  0  0  0  0  0  0  0  0  0
   29.4184   24.9122    1.4921 C   0  0  0  0  0  0  0  0  0  0  0  0
   30.9760   23.3274    3.3992 C   0  0  0  0  0  0  0  0  0  0  0  0
   32.7551   21.7195    6.0817 C   0  0  1  0  0  0  0  0  0  0  0  0
   28.7913   27.7171    0.1214 C   0  0  2  0  0  0  0  0  0  0  0  0
   32.1488   24.3961    1.5820 C   0  0  0  0  0  0  0  0  0  0  0  0
   30.3503   27.6440   -0.4295 C   0  0  0  0  0  0  0  0  0  0  0  0
   34.9624   24.7745    6.4937 C   0  0  0  0  0  0  0  0  0  0  0  0
   31.8875   26.2529    2.8225 C   0  0  0  0  0  0  0  0  0  0  0  0
   27.2080   28.1600    0.8845 C   0  0  0  0  0  0  0  0  0  0  0  0
   30.4628   23.0099    6.1381 O   0  0  0  0  0  0  0  0  0  0  0  0
   31.8039   27.2252    3.3949 O   0  0  0  0  0  0  0  0  0  0  0  0
   31.4272   22.6862    5.3801 C   0  0  1  0  0  0  0  0  0  0  0  0
   29.0779   26.5775    1.1318 C   0  0  2  0  0  0  0  0  0  0  0  0
   33.5513   24.0817    8.6856 O   0  0  0  0  0  0  0  0  0  0  0  0
   33.8326   23.8120    7.7418 C   0  0  1  0  0  0  0  0  0  0  0  0
   26.3635   28.7272    0.1761 O   0  0  0  0  0  0  0  0  0  0  0  0
   32.5925   23.5948    4.5543 C   0  0  0  0  0  0  0  0  0  0  0  0
   34.8398   24.3708    5.4060 C   0  0  2  0  0  0  0  0  0  0  0  0
   33.1559   24.3758    3.1602 C   0  0  0  0  0  0  0  0  0  0  0  0
   34.2037   22.5390    5.3769 C   0  0  2  0  0  0  0  0  0  0  0  0
   35.0154   23.2735    4.1013 C   0  0  0  0  0  0  0  0  0  0  0  0
   26.4256   27.6947    1.2806 O   0  0  0  0  0  0  0  0  0  0  0  0
   31.2147   25.0654    2.5989 C   0  0  2  0  0  0  0  0  0  0  0  0
  4  1  1  0
  5  1  1  0
  6  2  1  0
  9  3  1  0
  9  7  1  0
  7 12  1  1
 14 11  1  0
  6 15  1  6
 15 13  1  1
 16  3  1  0
 16  4  1  6
 16  7  1  0
  2 18  1  1
 18 10  1  0
 18 17  1  6
 19 12  1  0
 20 15  1  0
 21 10  1  1
 22  8  1  0
 22 20  2  3
 23  2  1  0
 23  6  1  0
 23 21  1  0
 24 21  1  0
 23 24  1  1
 25 12  1  0
 26  5  1  1
 26  8  1  0
 26 11  1  0
M  END
>  <ID>  (1) 
conformer_0

$$$$
