
     RDKit          3D

 22 23  0  0  0  0  0  0  0  0999 V2000
   34.3186   24.3074    4.8152 C   0  0  0  0  0  0  0  0  0  0  0  0
   32.3966   23.0193    4.2853 C   0  0  0  0  0  0  0  0  0  0  0  0
   32.8409   24.6023    3.4427 C   0  0  0  0  0  0  0  0  0  0  0  0
   30.9383   23.8651    2.7433 C   0  0  0  0  0  0  0  0  0  0  0  0
   33.2614   22.1888    5.4468 C   0  0  0  0  0  0  0  0  0  0  0  0
   34.6352   22.9449    4.4462 C   0  0  0  0  0  0  0  0  0  0  0  0
   29.6868   23.8265    1.8097 C   0  0  0  0  0  0  0  0  0  0  0  0
   35.0265   24.7072    6.2920 C   0  0  0  0  0  0  0  0  0  0  0  0
   30.6103   25.9724    1.1098 C   0  0  0  0  0  0  0  0  0  0  0  0
   33.4465   23.0629    6.5388 C   0  0  0  0  0  0  0  0  0  0  0  0
   29.8603   22.7203    5.2977 O   0  0  0  0  0  0  0  0  0  0  0  0
   34.1575   24.5037    7.5197 C   0  0  0  0  0  0  0  0  0  0  0  0
   30.7099   22.4575    4.2151 C   0  0  0  0  0  0  0  0  0  0  0  0
   31.5884   26.8697    3.5929 O   0  0  0  0  0  0  0  0  0  0  0  0
   31.7161   25.9786    2.9866 C   0  0  0  0  0  0  0  0  0  0  0  0
   29.1560   25.2341    1.5473 C   0  0  0  0  0  0  0  0  0  0  0  0
   34.3305   24.9894    8.3401 O   0  0  0  0  0  0  0  0  0  0  0  0
   26.7469   28.3709    0.4690 C   0  0  0  0  0  0  0  0  0  0  0  0
   28.3377   27.5720    0.5046 C   0  0  0  0  0  0  0  0  0  0  0  0
   29.4981   27.1257    0.2153 C   0  0  0  0  0  0  0  0  0  0  0  0
   31.8384   24.5936    1.5868 C   0  0  0  0  0  0  0  0  0  0  0  0
   25.0762   28.9366    0.1192 N   0  0  0  0  0  0  0  0  0  0  0  0
  3  2  1  0
  5  2  1  0
  6  1  1  0
  6  5  1  0
  7  4  1  0
  8  1  1  0
 10  5  1  0
 12  8  1  0
 12 10  1  0
 13  2  1  0
 13 11  1  0
 15  3  1  0
 15 14  1  0
 16  7  1  0
 16  9  1  0
 17 12  1  0
 19 18  3  0
 20  9  1  0
 20 19  1  0
 21  4  1  0
 21  9  1  0
 21 15  1  0
 22 18  1  0
M  END
>  <ID>  (1) 
conformer_0

$$$$
