
     RDKit          3D

 28 31  0  0  0  0  0  0  0  0999 V2000
   33.7464   22.3048    6.5404 C   0  0  0  0  0  0  0  0  0  0  0  0
   34.5825   22.4562    4.9724 C   0  0  0  0  0  0  0  0  0  0  0  0
   32.4325   23.0219    4.5519 C   0  0  0  0  0  0  0  0  0  0  0  0
   32.8235   21.6867    5.4651 C   0  0  0  0  0  0  0  0  0  0  0  0
   34.9152   23.9838    4.7162 C   0  0  0  0  0  0  0  0  0  0  0  0
   29.7493   23.4685    2.1708 C   0  0  0  0  0  0  0  0  0  0  0  0
   33.8659   24.0626    6.4123 C   0  0  0  0  0  0  0  0  0  0  0  0
   33.1828   24.1909    3.9484 C   0  0  0  0  0  0  0  0  0  0  0  0
   28.9680   24.2979    1.8356 C   0  0  0  0  0  0  0  0  0  0  0  0
   29.4000   22.3229    4.9575 O   0  0  0  0  0  0  0  0  0  0  0  0
   32.3047   25.8780    2.7668 C   0  0  0  0  0  0  0  0  0  0  0  0
   34.5330   24.6532    7.6826 C   0  0  0  0  0  0  0  0  0  0  0  0
   28.8376   26.5936    0.9372 C   0  0  0  0  0  0  0  0  0  0  0  0
   32.3788   26.6624    3.4228 O   0  0  0  0  0  0  0  0  0  0  0  0
   26.5500   28.6995    0.2522 C   0  0  0  0  0  0  0  0  0  0  0  0
   30.5808   22.6317    4.2628 C   0  0  0  0  0  0  0  0  0  0  0  0
   34.4909   24.8034    8.6234 O   0  0  0  0  0  0  0  0  0  0  0  0
   28.0364   28.2931   -0.0903 C   0  0  0  0  0  0  0  0  0  0  0  0
   25.8293   29.1363   -0.2333 O   0  0  0  0  0  0  0  0  0  0  0  0
   35.2266   24.8395    6.2361 C   0  0  0  0  0  0  0  0  0  0  0  0
   30.9638   23.1633    3.2452 C   0  0  0  0  0  0  0  0  0  0  0  0
   29.8365   25.4977    1.5300 C   0  0  0  0  0  0  0  0  0  0  0  0
   32.2193   24.6093    1.5751 C   0  0  0  0  0  0  0  0  0  0  0  0
   25.9981   28.3991    0.9544 O   0  0  0  0  0  0  0  0  0  0  0  0
   30.9855   26.4119    1.0175 C   0  0  0  0  0  0  0  0  0  0  0  0
   29.3564   27.6341   -0.1095 C   0  0  0  0  0  0  0  0  0  0  0  0
   30.3606   23.4963    5.9145 O   0  0  0  0  0  0  0  0  0  0  0  0
   31.1729   24.7278    2.7585 C   0  0  0  0  0  0  0  0  0  0  0  0
  2  1  1  0
  4  1  1  0
  4  3  1  0
  5  2  1  0
  7  1  1  0
  8  3  1  0
  8  5  1  0
  9  6  1  0
 12  7  1  0
 14 11  1  0
 16  3  1  0
 16 10  1  0
 17 12  1  0
 18 15  1  0
 19 15  1  0
 20  5  1  0
 20  7  1  0
 20 12  1  0
 21  6  1  0
 21 16  1  0
 22  9  1  0
 22 13  1  0
 23 11  1  0
 24 15  2  0
 25 22  1  0
 26 13  1  0
 26 18  1  0
 27 16  1  0
 28 11  1  0
 28 21  1  0
 28 23  1  0
M  END
>  <ID>  (1) 
conformer_0

$$$$
