
     RDKit          3D

 29 35  0  0  0  0  0  0  0  0999 V2000
   35.3782   23.6281    4.9375 C   0  0  0  0  0  0  0  0  0  0  0  0
   33.1853   24.0215    3.1808 C   0  0  0  0  0  0  0  0  0  0  0  0
   31.7166   24.7181    1.5828 C   0  0  0  0  0  0  0  0  0  0  0  0
   35.0096   24.7127    6.4147 C   0  0  0  0  0  0  0  0  0  0  0  0
   29.4322   24.3756    1.2458 C   0  0  0  0  0  0  0  0  0  0  0  0
   34.3262   22.2974    4.8722 C   0  0  0  0  0  0  0  0  0  0  0  0
   29.4786   23.8658    2.6368 C   0  0  0  0  0  0  0  0  0  0  0  0
   31.0842   26.9620    0.6047 C   0  0  0  0  0  0  0  0  0  0  0  0
   31.1903   22.9333    3.0804 C   0  0  0  0  0  0  0  0  0  0  0  0
   29.4944   22.1532    4.9490 O   0  0  0  0  0  0  0  0  0  0  0  0
   26.1227   27.6852    1.4331 O   0  0  0  0  0  0  0  0  0  0  0  0
   32.4259   26.7688    3.2173 O   0  0  0  0  0  0  0  0  0  0  0  0
   34.3144   24.3656    7.6482 C   0  0  0  0  0  0  0  0  0  0  0  0
   32.3773   25.7558    2.7246 C   0  0  0  0  0  0  0  0  0  0  0  0
   26.8321   28.3388    0.7378 C   0  0  0  0  0  0  0  0  0  0  0  0
   26.1836   29.0326   -0.1770 O   0  0  0  0  0  0  0  0  0  0  0  0
   33.9329   25.0542    8.2977 O   0  0  0  0  0  0  0  0  0  0  0  0
   28.7504   26.3493    0.9184 C   0  0  0  0  0  0  0  0  0  0  0  0
   30.7888   22.6339    4.6493 C   0  0  0  0  0  0  0  0  0  0  0  0
   29.5130   27.2467   -0.2403 C   0  0  0  0  0  0  0  0  0  0  0  0
   28.2952   28.1021    0.4998 C   0  0  0  0  0  0  0  0  0  0  0  0
   34.0095   24.4490    4.6236 C   0  0  0  0  0  0  0  0  0  0  0  0
   33.7533   23.2139    6.7429 C   0  0  0  0  0  0  0  0  0  0  0  0
   33.1126   21.8910    6.6736 C   0  0  0  0  0  0  0  0  0  0  0  0
   32.5393   23.0190    4.5974 C   0  0  0  0  0  0  0  0  0  0  0  0
   30.4215   23.1751    6.0093 O   0  0  0  0  0  0  0  0  0  0  0  0
   30.1214   25.7473    1.6017 C   0  0  0  0  0  0  0  0  0  0  0  0
   32.2472   21.5507    5.2052 C   0  0  0  0  0  0  0  0  0  0  0  0
   31.2706   24.4477    3.3166 C   0  0  0  0  0  0  0  0  0  0  0  0
  4  1  1  0
  6  1  1  0
  7  5  1  0
 13  4  1  0
 14  2  1  0
 14  3  1  0
 14 12  1  0
 15 11  2  0
 16 15  1  0
 17 13  1  0
 19  9  1  0
 19 10  1  0
 20  8  1  0
 20 18  1  0
 21 15  1  0
 21 18  1  0
 21 20  1  0
 22  1  1  0
 22  2  1  0
 23 13  1  0
 24 23  1  0
 25  2  1  0
 25  6  1  0
 25 19  1  0
 26 19  1  0
 27  3  1  0
 27  5  1  0
 27  8  1  0
 27 18  1  0
 28 24  1  0
 28 25  1  0
 29  2  1  0
 29  3  1  0
 29  9  1  0
 29 14  1  0
M  END
>  <ID>  (1) 
conformer_0

$$$$
