
     RDKit          3D

 23 25  0  0  0  0  0  0  0  0999 V2000
   33.7209   22.8666    6.1791 C   0  0  0  0  0  0  0  0  0  0  0  0
   34.8636   24.4829    6.2432 C   0  0  0  0  0  0  0  0  0  0  0  0
   31.9988   24.4067    1.5578 C   0  0  0  0  0  0  0  0  0  0  0  0
   32.2527   24.2927    3.2929 C   0  0  0  0  0  0  0  0  0  0  0  0
   30.5017   23.7375    3.0435 C   0  0  0  0  0  0  0  0  0  0  0  0
   33.7884   24.0793    3.6424 C   0  0  0  0  0  0  0  0  0  0  0  0
   30.7571   25.4433    1.3170 C   0  0  0  0  0  0  0  0  0  0  0  0
   34.9646   23.8588    4.9908 C   0  0  0  0  0  0  0  0  0  0  0  0
   29.0603   25.4307    1.4674 C   0  0  0  0  0  0  0  0  0  0  0  0
   33.7253   23.8966    7.5006 C   0  0  0  0  0  0  0  0  0  0  0  0
   32.1101   25.9777    2.7467 C   0  0  0  0  0  0  0  0  0  0  0  0
   28.8408   27.6233   -0.1113 C   0  0  0  0  0  0  0  0  0  0  0  0
   33.2127   24.2846    8.2390 O   0  0  0  0  0  0  0  0  0  0  0  0
   25.9172   28.4634    0.8755 C   0  0  0  0  0  0  0  0  0  0  0  0
   25.4533   27.9925    1.0849 O   0  0  0  0  0  0  0  0  0  0  0  0
   31.7140   26.9437    3.4698 O   0  0  0  0  0  0  0  0  0  0  0  0
   27.6923   28.1229    0.3278 C   0  0  0  0  0  0  0  0  0  0  0  0
   34.8610   22.4513    4.2995 C   0  0  0  0  0  0  0  0  0  0  0  0
   31.1114   23.5354    6.6120 O   0  0  0  0  0  0  0  0  0  0  0  0
   32.3142   22.6157    4.5017 C   0  0  0  0  0  0  0  0  0  0  0  0
   33.1982   21.7638    5.5924 C   0  0  0  0  0  0  0  0  0  0  0  0
   29.7721   26.6848    0.3610 C   0  0  0  0  0  0  0  0  0  0  0  0
   29.6755   24.0199    1.9398 C   0  0  0  0  0  0  0  0  0  0  0  0
  4  3  1  0
  5  4  1  0
  6  4  1  0
  7  3  1  0
  8  2  1  0
  8  6  1  0
  9  7  1  0
 10  1  1  0
 10  2  1  0
 11  4  1  0
 13 10  1  0
 15 14  1  0
 16 11  1  0
 17 12  2  0
 17 14  2  0
 18  8  1  0
 20 19  1  0
 21  1  1  0
 21 20  1  0
 22  7  1  0
 22  9  1  0
 22 12  1  0
 23  5  1  0
 23  7  1  0
 23  9  1  0
M  END
>  <ID>  (1) 
conformer_0

$$$$
