
     RDKit          3D

 27 31  0  0  0  0  0  0  0  0999 V2000
   30.1935   23.3825    2.7275 C   0  0  0  0  0  0  0  0  0  0  0  0
   31.8616   23.3443    3.7830 C   0  0  0  0  0  0  0  0  0  0  0  0
   34.9878   23.5831    3.7686 C   0  0  0  0  0  0  0  0  0  0  0  0
   32.8462   22.0859    4.8028 C   0  0  0  0  0  0  0  0  0  0  0  0
   33.2624   22.1252    6.3089 C   0  0  0  0  0  0  0  0  0  0  0  0
   33.6598   24.3260    4.6167 C   0  0  0  0  0  0  0  0  0  0  0  0
   34.7955   22.9111    5.0080 C   0  0  0  0  0  0  0  0  0  0  0  0
   32.9324   24.6274    3.0930 C   0  0  0  0  0  0  0  0  0  0  0  0
   35.3416   24.5519    6.1646 C   0  0  0  0  0  0  0  0  0  0  0  0
   34.1762   24.0621    7.8597 C   0  0  0  0  0  0  0  0  0  0  0  0
   29.1368   25.9384    1.1991 C   0  0  0  0  0  0  0  0  0  0  0  0
   34.0025   23.2543    6.8525 C   0  0  0  0  0  0  0  0  0  0  0  0
   25.7488   27.7819    1.4005 O   0  0  0  0  0  0  0  0  0  0  0  0
   32.3879   26.8802    3.2423 O   0  0  0  0  0  0  0  0  0  0  0  0
   31.1324   22.3897    4.6022 C   0  0  0  0  0  0  0  0  0  0  0  0
   25.9653   28.3302    1.0233 C   0  0  0  0  0  0  0  0  0  0  0  0
   30.3529   22.8061    5.6078 O   0  0  0  0  0  0  0  0  0  0  0  0
   34.2339   24.6660    8.5328 O   0  0  0  0  0  0  0  0  0  0  0  0
   27.3319   28.5443   -0.1094 C   0  0  0  0  0  0  0  0  0  0  0  0
   32.4475   25.9803    2.8275 C   0  0  0  0  0  0  0  0  0  0  0  0
   28.7665   24.3918    1.7106 C   0  0  0  0  0  0  0  0  0  0  0  0
   30.9695   24.9533    3.0142 C   0  0  0  0  0  0  0  0  0  0  0  0
   28.3207   27.4584    0.3782 C   0  0  0  0  0  0  0  0  0  0  0  0
   31.8568   25.4748    1.3299 C   0  0  0  0  0  0  0  0  0  0  0  0
   30.2006   24.5019    1.3106 C   0  0  0  0  0  0  0  0  0  0  0  0
   29.5993   27.6180   -0.4354 C   0  0  0  0  0  0  0  0  0  0  0  0
   30.9576   26.6849    0.4333 C   0  0  0  0  0  0  0  0  0  0  0  0
  4  2  1  0
  5  4  1  0
  6  3  1  0
  7  3  1  0
  7  6  1  0
  8  2  1  0
  8  6  1  0
 12  5  1  0
 12  9  1  0
 12 10  1  0
 15  2  1  0
 15  4  1  0
 16 13  2  0
 17 15  1  0
 18 10  1  0
 19 16  1  0
 20  8  1  0
 20 14  1  0
 21 11  1  0
 22  1  1  0
 22 20  1  0
 23 11  1  0
 23 19  1  0
 24 20  1  0
 25  1  1  0
 25 11  1  0
 25 21  1  0
 25 24  1  0
 26 23  1  0
 27 24  1  0
 27 26  1  0
M  END
>  <ID>  (1) 
conformer_0

$$$$
