
     RDKit          3D

 30 34  0  0  0  0  0  0  0  0999 V2000
   33.7385   23.0948    7.5596 C   0  0  0  0  0  0  0  0  0  0  0  0
   33.3350   24.3285    4.8783 C   0  0  0  0  0  0  0  0  0  0  0  0
   34.6579   23.4463    3.8758 C   0  0  0  0  0  0  0  0  0  0  0  0
   28.8575   23.9198    1.9012 C   0  0  0  0  0  0  0  0  0  0  0  0
   31.6684   23.7242    3.6690 C   0  0  0  0  0  0  0  0  0  0  0  0
   35.3720   24.1523    5.2584 C   0  0  0  0  0  0  0  0  0  0  0  0
   32.9342   24.5411    2.9227 C   0  0  0  0  0  0  0  0  0  0  0  0
   34.4242   22.8377    6.2059 C   0  0  0  0  0  0  0  0  0  0  0  0
   32.9141   21.6487    6.2682 C   0  0  0  0  0  0  0  0  0  0  0  0
   30.2391   27.2993   -0.6771 C   0  0  0  0  0  0  0  0  0  0  0  0
   34.5120   24.2980    8.1105 C   0  0  0  0  0  0  0  0  0  0  0  0
   30.3304   23.0310    5.9606 O   0  0  0  0  0  0  0  0  0  0  0  0
   32.0353   26.6357    3.6612 O   0  0  0  0  0  0  0  0  0  0  0  0
   35.1011   24.6428    6.9052 C   0  0  0  0  0  0  0  0  0  0  0  0
   34.1546   24.7601    8.8619 O   0  0  0  0  0  0  0  0  0  0  0  0
   26.7317   28.7005    0.0020 C   0  0  0  0  0  0  0  0  0  0  0  0
   32.0555   25.7329    3.0870 C   0  0  0  0  0  0  0  0  0  0  0  0
   30.1095   26.4399    0.6701 C   0  0  0  0  0  0  0  0  0  0  0  0
   29.2382   25.4770    1.0787 C   0  0  0  0  0  0  0  0  0  0  0  0
   26.2406   28.4218    0.6685 O   0  0  0  0  0  0  0  0  0  0  0  0
   26.2347   29.2095   -0.6011 O   0  0  0  0  0  0  0  0  0  0  0  0
   31.3179   22.6318    5.0080 C   0  0  0  0  0  0  0  0  0  0  0  0
   30.5821   23.8972    1.4348 C   0  0  0  0  0  0  0  0  0  0  0  0
   31.6727   25.4984    0.9001 C   0  0  0  0  0  0  0  0  0  0  0  0
   28.6471   28.1736   -0.8745 C   0  0  0  0  0  0  0  0  0  0  0  0
   28.3425   27.6086    0.3272 C   0  0  0  0  0  0  0  0  0  0  0  0
   30.7860   25.0948    2.7896 C   0  0  0  0  0  0  0  0  0  0  0  0
   33.2363   22.6565    4.9188 C   0  0  0  0  0  0  0  0  0  0  0  0
   30.3197   23.0508    3.0584 C   0  0  0  0  0  0  0  0  0  0  0  0
   31.6482   21.8233    4.4436 C   0  0  0  0  0  0  0  0  0  0  0  0
  3  2  1  0
  6  3  1  0
  7  5  1  0
  8  1  1  0
  8  6  1  0
  9  8  1  0
 11  1  1  0
 14  6  1  0
 14 11  1  0
 15 11  1  0
 17  7  1  0
 17 13  1  0
 18 10  1  0
 19  4  1  0
 19 18  1  0
 20 16  2  0
 21 16  1  0
 22  5  1  0
 22 12  1  0
 23  4  1  0
 24 18  1  0
 25 10  1  0
 26 16  1  0
 26 25  1  0
 27  5  1  0
 27 17  1  0
 27 23  1  0
 28  2  1  0
 28  8  1  0
 28  9  1  0
 29  5  1  0
 29 23  1  0
 30 22  1  0
 30 28  1  0
M  END
>  <ID>  (1) 
conformer_0

$$$$
