
     RDKit          3D

 28 31  0  0  0  0  0  0  0  0999 V2000
   32.3884   24.3425    4.3553 C   0  0  0  0  0  0  0  0  0  0  0  0
   33.6846   23.4822    6.4753 C   0  0  0  0  0  0  0  0  0  0  0  0
   33.0263   22.1284    6.7498 C   0  0  0  0  0  0  0  0  0  0  0  0
   33.9636   24.1773    4.4059 C   0  0  0  0  0  0  0  0  0  0  0  0
   30.7738   23.1533    3.2335 C   0  0  0  0  0  0  0  0  0  0  0  0
   34.7438   22.0993    5.7192 C   0  0  0  0  0  0  0  0  0  0  0  0
   35.3810   22.7372    4.1770 C   0  0  0  0  0  0  0  0  0  0  0  0
   32.8742   22.4936    4.7512 C   0  0  0  0  0  0  0  0  0  0  0  0
   32.2269   24.1396    2.4292 C   0  0  0  0  0  0  0  0  0  0  0  0
   28.8362   25.9203    1.0795 C   0  0  0  0  0  0  0  0  0  0  0  0
   33.5829   23.8381    7.6080 C   0  0  0  0  0  0  0  0  0  0  0  0
   32.0649   26.7953    3.3088 O   0  0  0  0  0  0  0  0  0  0  0  0
   28.8818   27.8296   -0.8528 C   0  0  0  0  0  0  0  0  0  0  0  0
   31.7495   25.8123    3.1157 C   0  0  0  0  0  0  0  0  0  0  0  0
   33.4063   24.5324    8.3662 O   0  0  0  0  0  0  0  0  0  0  0  0
   26.5768   28.3238    0.5448 C   0  0  0  0  0  0  0  0  0  0  0  0
   25.8469   27.8319    1.0951 O   0  0  0  0  0  0  0  0  0  0  0  0
   28.0753   27.5448    0.6191 C   0  0  0  0  0  0  0  0  0  0  0  0
   30.3125   23.6532    6.0577 O   0  0  0  0  0  0  0  0  0  0  0  0
   26.3608   29.0427   -0.4747 O   0  0  0  0  0  0  0  0  0  0  0  0
   28.8277   24.1418    1.9211 C   0  0  0  0  0  0  0  0  0  0  0  0
   30.2719   24.0555    1.4787 C   0  0  0  0  0  0  0  0  0  0  0  0
   31.6921   25.3716    0.9451 C   0  0  0  0  0  0  0  0  0  0  0  0
   30.6586   25.0473    2.9301 C   0  0  0  0  0  0  0  0  0  0  0  0
   35.6334   23.8075    5.3751 C   0  0  0  0  0  0  0  0  0  0  0  0
   34.6370   25.0997    6.2425 C   0  0  0  0  0  0  0  0  0  0  0  0
   30.0024   26.1677    0.9668 C   0  0  0  0  0  0  0  0  0  0  0  0
   30.3541   27.3243   -0.5818 C   0  0  0  0  0  0  0  0  0  0  0  0
  3  2  1  0
  4  1  1  0
  6  2  1  0
  7  6  1  0
  8  1  1  0
  9  1  1  0
  9  5  1  0
 11  2  1  0
 14  9  1  0
 14 12  1  0
 15 11  1  0
 17 16  2  0
 18 10  1  0
 18 13  1  0
 18 16  1  0
 19  1  1  0
 20 16  1  0
 21 10  1  0
 22 21  1  0
 24  5  1  0
 24 14  1  0
 24 22  1  0
 25  4  1  0
 25  6  1  0
 25  7  1  0
 26  2  1  0
 26 25  1  0
 27 10  1  0
 27 23  1  0
 28 13  1  0
 28 27  1  0
M  END
>  <ID>  (1) 
conformer_0

$$$$
