
     RDKit          3D

 27 32  0  0  0  0  0  0  0  0999 V2000
   30.2299   27.7166    0.0691 C   0  0  0  0  0  0  0  0  0  0  0  0
   30.5759   25.1806    2.5230 C   0  0  0  0  0  0  0  0  0  0  0  0
   29.0551   26.3166    1.1354 C   0  0  0  0  0  0  0  0  0  0  0  0
   35.2245   22.9497    4.5005 C   0  0  0  0  0  0  0  0  0  0  0  0
   33.8368   22.9266    6.9176 C   0  0  0  0  0  0  0  0  0  0  0  0
   31.6780   23.9337    3.4799 C   0  0  0  0  0  0  0  0  0  0  0  0
   28.6736   27.8270   -0.6788 C   0  0  0  0  0  0  0  0  0  0  0  0
   32.9366   21.5339    6.2533 C   0  0  0  0  0  0  0  0  0  0  0  0
   28.6025   28.3995    0.5494 C   0  0  0  0  0  0  0  0  0  0  0  0
   32.0778   26.1264    2.6826 C   0  0  0  0  0  0  0  0  0  0  0  0
   31.2038   22.4916    4.5987 C   0  0  0  0  0  0  0  0  0  0  0  0
   29.9312   22.8864    5.3402 O   0  0  0  0  0  0  0  0  0  0  0  0
   34.1262   24.0097    7.7133 C   0  0  0  0  0  0  0  0  0  0  0  0
   26.3552   27.8673    1.0809 O   0  0  0  0  0  0  0  0  0  0  0  0
   26.8687   28.3299    0.5500 C   0  0  0  0  0  0  0  0  0  0  0  0
   32.3324   26.8571    3.3083 O   0  0  0  0  0  0  0  0  0  0  0  0
   35.2181   24.3855    6.2102 C   0  0  0  0  0  0  0  0  0  0  0  0
   33.9969   24.1845    4.9121 C   0  0  0  0  0  0  0  0  0  0  0  0
   30.9402   26.3739    1.0141 C   0  0  0  0  0  0  0  0  0  0  0  0
   35.0352   22.0877    5.7509 C   0  0  0  0  0  0  0  0  0  0  0  0
   33.7880   24.8053    8.3082 O   0  0  0  0  0  0  0  0  0  0  0  0
   32.9047   22.6409    5.0369 C   0  0  0  0  0  0  0  0  0  0  0  0
   30.2393   23.3789    2.7878 C   0  0  0  0  0  0  0  0  0  0  0  0
   29.8917   24.2678    1.2566 C   0  0  0  0  0  0  0  0  0  0  0  0
   28.7082   24.3548    1.8668 C   0  0  0  0  0  0  0  0  0  0  0  0
   33.0696   24.5818    3.3633 C   0  0  0  0  0  0  0  0  0  0  0  0
   32.1512   24.6798    1.4503 C   0  0  0  0  0  0  0  0  0  0  0  0
  6  2  1  0
  7  1  1  0
  8  5  1  0
  9  7  1  0
 10  2  1  0
 11  6  1  0
 12 11  1  0
 13  5  1  0
 15  9  1  0
 15 14  2  0
 16 10  1  0
 17 13  1  0
 18  4  1  0
 18 17  1  0
 19  1  1  0
 19  3  1  0
 20  4  1  0
 20  5  1  0
 21 13  1  0
 22  8  1  0
 22 11  1  0
 22 18  1  0
 23  2  1  0
 23  6  1  0
 24  2  1  0
 24 23  1  0
 25  3  1  0
 25 24  1  0
 26  6  1  0
 26 10  1  0
 26 18  1  0
 27 10  1  0
M  END
>  <ID>  (1) 
conformer_0

$$$$
