
     RDKit          3D

 31 38  0  0  0  0  0  0  0  0999 V2000
   33.0071   24.8094    3.2287 C   0  0  2  0  0  0  0  0  0  0  0  0
   30.3400   23.0468    2.9866 C   0  0  2  0  0  0  0  0  0  0  0  0
   32.4486   22.0723    4.9625 C   0  0  1  0  0  0  0  0  0  0  0  0
   31.9095   23.3172    3.4877 C   0  0  1  0  0  0  0  0  0  0  0  0
   31.9733   24.2595    1.3941 C   0  0  0  0  0  0  0  0  0  0  0  0
   30.1924   25.3360    1.0016 C   0  0  1  0  0  0  0  0  0  0  0  0
   29.1460   26.3874    0.9681 C   0  0  0  0  0  0  0  0  0  0  0  0
   33.1957   23.8557    4.7142 C   0  0  2  0  0  0  0  0  0  0  0  0
   29.0612   27.9597   -0.2369 C   0  0  0  0  0  0  0  0  0  0  0  0
   33.1451   21.6365    6.2248 C   0  0  0  0  0  0  0  0  0  0  0  0
   34.9158   23.9693    4.8670 C   0  0  1  0  0  0  0  0  0  0  0  0
   25.9193   27.7293    1.2289 O   0  0  0  0  0  0  0  0  0  0  0  0
   34.3132   24.3976    7.7924 C   0  0  0  0  0  0  0  0  0  0  0  0
   29.9702   23.0925    5.4953 O   0  0  0  0  0  0  0  0  0  0  0  0
   26.5927   28.2922    0.4739 C   0  0  0  0  0  0  0  0  0  0  0  0
   32.3563   26.9879    3.0803 O   0  0  0  0  0  0  0  0  0  0  0  0
   34.4574   25.1094    6.2486 C   0  0  1  0  0  0  0  0  0  0  0  0
   35.8571   24.8900    6.5302 C   0  0  0  0  0  0  0  0  0  0  0  0
   33.4059   24.9612    8.3563 O   0  0  0  0  0  0  0  0  0  0  0  0
   26.1632   28.9877   -0.5055 O   0  0  0  0  0  0  0  0  0  0  0  0
   30.7177   22.7473    4.4070 C   0  0  2  0  0  0  0  0  0  0  0  0
   32.1545   26.2805    2.5530 C   0  0  1  0  0  0  0  0  0  0  0  0
   34.6165   22.3505    5.0216 C   0  0  0  0  0  0  0  0  0  0  0  0
   31.6911   26.3134    1.2174 C   0  0  2  0  0  0  0  0  0  0  0  0
   30.5823   27.4993    0.2634 C   0  0  2  0  0  0  0  0  0  0  0  0
   34.0293   23.0979    6.6581 C   0  0  0  0  0  0  0  0  0  0  0  0
   27.9571   28.0059    0.6259 C   0  0  0  0  0  0  0  0  0  0  0  0
   35.2815   24.4965    8.8425 O   0  0  0  0  0  0  0  0  0  0  0  0
   30.9545   24.8198    2.7476 C   0  0  2  0  0  0  0  0  0  0  0  0
   29.6587   23.7293    1.6770 C   0  0  2  0  0  0  0  0  0  0  0  0
   28.5536   24.2466    1.8254 C   0  0  0  0  0  0  0  0  0  0  0  0
  4  1  1  6
  4  2  1  0
  6  7  1  1
  8  1  1  0
  8  3  1  0
  8  4  1  0
  3 10  1  1
  8 11  1  1
 15 12  2  0
 17 11  1  0
 17 13  1  0
 17 18  1  1
 19 13  1  0
 20 15  1  0
 21  2  1  0
 21  3  1  0
 21  4  1  0
 21 14  1  1
  1 22  1  1
 22 16  1  1
 11 23  1  1
 24  6  1  0
 24 22  1  0
 25  7  1  1
 25  9  1  0
 24 25  1  1
 26 10  1  0
 26 13  1  0
 26 23  1  0
 27  9  2  3
 27 15  1  0
 28 13  1  0
 29  2  1  0
 29  5  1  6
 29 22  1  0
  2 30  1  6
 30  6  1  0
 30 31  1  1
M  END
>  <ID>  (1) 
conformer_0

$$$$
