
     RDKit          3D

 26 32  0  0  0  0  0  0  0  0999 V2000
   35.3928   24.1720    5.3990 C   0  0  1  0  0  0  0  0  0  0  0  0
   34.1911   23.8882    6.3173 C   0  0  1  0  0  0  0  0  0  0  0  0
   35.2661   22.8033    4.2746 C   0  0  0  0  0  0  0  0  0  0  0  0
   33.2860   22.4193    6.7290 C   0  0  1  0  0  0  0  0  0  0  0  0
   33.6224   22.1053    5.5468 C   0  0  0  0  0  0  0  0  0  0  0  0
   27.6420   27.7287    0.8511 C   0  0  0  0  0  0  0  0  0  0  0  0
   31.4733   25.8697    0.8510 C   0  0  0  0  0  0  0  0  0  0  0  0
   32.9617   24.3110    4.1860 C   0  0  2  0  0  0  0  0  0  0  0  0
   32.2707   24.7652    2.5387 C   0  0  1  0  0  0  0  0  0  0  0  0
   34.4985   24.1576    3.7226 C   0  0  1  0  0  0  0  0  0  0  0  0
   33.7954   23.8710    7.8365 C   0  0  2  0  0  0  0  0  0  0  0  0
   33.7071   24.7330    8.4040 O   0  0  0  0  0  0  0  0  0  0  0  0
   30.1009   22.8744    5.6031 O   0  0  0  0  0  0  0  0  0  0  0  0
   26.3515   28.5286    0.6522 C   0  0  0  0  0  0  0  0  0  0  0  0
   32.3327   26.8354    3.1200 O   0  0  0  0  0  0  0  0  0  0  0  0
   25.8174   29.2978    0.1989 O   0  0  0  0  0  0  0  0  0  0  0  0
   32.3133   25.9612    2.6407 C   0  0  0  0  0  0  0  0  0  0  0  0
   28.7665   27.8073   -0.2303 C   0  0  0  0  0  0  0  0  0  0  0  0
   30.3500   27.3912   -0.3087 C   0  0  0  0  0  0  0  0  0  0  0  0
   30.6529   22.2698    4.2313 C   0  0  2  0  0  0  0  0  0  0  0  0
   29.9413   23.3884    2.5896 C   0  0  2  0  0  0  0  0  0  0  0  0
   30.5313   24.7390    1.8269 C   0  0  1  0  0  0  0  0  0  0  0  0
   28.9765   24.2417    1.5452 C   0  0  0  0  0  0  0  0  0  0  0  0
   29.5733   26.0899    0.8414 C   0  0  0  0  0  0  0  0  0  0  0  0
   32.4533   22.7025    4.4445 C   0  0  1  0  0  0  0  0  0  0  0  0
   31.1853   23.6916    3.4011 C   0  0  2  0  0  0  0  0  0  0  0  0
  2  1  1  0
  1  3  1  6
  4  2  1  0
  4  5  1  1
  9  8  1  0
 10  1  1  0
 10  3  1  1
  8 10  1  6
  2 11  1  1
 11  4  1  0
 11 12  1  6
 14  6  1  0
 16 14  1  0
  9 17  1  6
 17 15  1  0
 18  6  2  3
 19 18  1  0
 20 13  1  1
 22  7  1  6
 22  9  1  0
 22 21  1  0
 21 23  1  1
 23 22  1  0
 24  7  1  0
 24 19  1  0
 25  5  1  6
 25  8  1  0
 25 20  1  0
 26  9  1  0
 26 20  1  6
 26 21  1  0
 26 25  1  0
M  END
>  <ID>  (1) 
conformer_0

$$$$
