
     RDKit          3D

 28 35  0  0  0  0  0  0  0  0999 V2000
   29.9798   23.5331    2.4878 C   0  0  0  0  0  0  0  0  0  0  0  0
   34.7444   22.4388    5.6707 C   0  0  0  0  0  0  0  0  0  0  0  0
   34.6915   24.4347    4.6850 C   0  0  0  0  0  0  0  0  0  0  0  0
   28.9265   24.1956    1.6897 C   0  0  0  0  0  0  0  0  0  0  0  0
   31.8035   24.9337    1.2807 C   0  0  0  0  0  0  0  0  0  0  0  0
   35.5322   24.2466    6.3554 C   0  0  0  0  0  0  0  0  0  0  0  0
   29.9236   25.2534    0.9677 C   0  0  0  0  0  0  0  0  0  0  0  0
   33.1619   21.7379    7.0687 C   0  0  0  0  0  0  0  0  0  0  0  0
   29.1391   26.6162    1.2096 C   0  0  0  0  0  0  0  0  0  0  0  0
   33.8792   23.2159    7.0184 C   0  0  0  0  0  0  0  0  0  0  0  0
   27.4852   28.1473    0.7394 C   0  0  0  0  0  0  0  0  0  0  0  0
   32.3637   26.7025    3.3719 O   0  0  0  0  0  0  0  0  0  0  0  0
   26.0663   28.3414    0.8390 C   0  0  0  0  0  0  0  0  0  0  0  0
   30.4067   23.0781    5.7039 O   0  0  0  0  0  0  0  0  0  0  0  0
   34.2231   23.7829    7.8312 C   0  0  0  0  0  0  0  0  0  0  0  0
   28.5918   27.6471    0.0412 C   0  0  0  0  0  0  0  0  0  0  0  0
   31.2275   26.3695    0.4334 C   0  0  0  0  0  0  0  0  0  0  0  0
   30.1155   27.1564   -0.4980 C   0  0  0  0  0  0  0  0  0  0  0  0
   34.1556   24.7212    8.4602 O   0  0  0  0  0  0  0  0  0  0  0  0
   32.3903   25.7128    2.8699 C   0  0  0  0  0  0  0  0  0  0  0  0
   31.3297   22.6715    4.6112 C   0  0  0  0  0  0  0  0  0  0  0  0
   25.4879   28.1580    1.1403 O   0  0  0  0  0  0  0  0  0  0  0  0
   31.3385   23.2591    3.4038 C   0  0  0  0  0  0  0  0  0  0  0  0
   30.9788   24.9304    2.7453 C   0  0  0  0  0  0  0  0  0  0  0  0
   33.2075   24.5970    3.0320 C   0  0  0  0  0  0  0  0  0  0  0  0
   35.1357   23.1905    4.1468 C   0  0  0  0  0  0  0  0  0  0  0  0
   32.8777   23.8102    4.3880 C   0  0  0  0  0  0  0  0  0  0  0  0
   33.0071   22.1051    5.2283 C   0  0  0  0  0  0  0  0  0  0  0  0
  4  1  1  0
  6  3  1  0
  7  4  1  0
  7  5  1  0
  9  7  1  0
 10  2  1  0
 10  8  1  0
 13 11  1  0
 15 10  1  0
 16  9  1  0
 16 11  1  0
 17  5  1  0
 17  7  1  0
 18 16  1  0
 18 17  1  0
 19 15  1  0
 20  5  1  0
 20 12  1  0
 21 14  1  0
 22 13  2  0
 23  1  1  0
 23 21  1  0
 24  1  1  0
 24  5  1  0
 24 20  1  0
 24 23  1  0
 25 20  1  0
 26  2  1  0
 26  3  1  0
 27 23  1  0
 27 25  1  0
 28  2  1  0
 28  8  1  0
 28 21  1  0
 28 27  1  0
M  END
>  <ID>  (1) 
conformer_0

$$$$
