
     RDKit          3D

 31 35  0  0  0  0  0  0  0  0999 V2000
   30.5609   23.0780    2.8694 C   0  0  0  0  0  0  0  0  0  0  0  0
   33.7518   23.0343    6.9769 C   0  0  0  0  0  0  0  0  0  0  0  0
   34.8037   22.9976    3.7472 C   0  0  0  0  0  0  0  0  0  0  0  0
   28.9993   23.7680    1.9536 C   0  0  0  0  0  0  0  0  0  0  0  0
   32.4483   23.8804    3.8434 C   0  0  0  0  0  0  0  0  0  0  0  0
   33.9478   24.6587    3.6849 C   0  0  0  0  0  0  0  0  0  0  0  0
   34.3390   22.3714    5.3681 C   0  0  0  0  0  0  0  0  0  0  0  0
   27.9391   27.7513    0.7301 C   0  0  0  0  0  0  0  0  0  0  0  0
   32.8361   21.4561    5.8888 C   0  0  0  0  0  0  0  0  0  0  0  0
   28.8261   25.4468    1.6090 C   0  0  0  0  0  0  0  0  0  0  0  0
   30.6755   24.1532    5.9240 O   0  0  0  0  0  0  0  0  0  0  0  0
   26.6216   28.4150    0.7306 C   0  0  0  0  0  0  0  0  0  0  0  0
   33.8611   24.7649    8.4552 O   0  0  0  0  0  0  0  0  0  0  0  0
   31.7501   26.7640    3.6247 O   0  0  0  0  0  0  0  0  0  0  0  0
   34.2029   24.3538    7.6446 C   0  0  0  0  0  0  0  0  0  0  0  0
   25.6910   28.0625    0.9938 O   0  0  0  0  0  0  0  0  0  0  0  0
   28.5484   28.0766   -0.7819 C   0  0  0  0  0  0  0  0  0  0  0  0
   30.6612   24.5935    2.8297 C   0  0  0  0  0  0  0  0  0  0  0  0
   30.1850   27.7668   -0.6833 C   0  0  0  0  0  0  0  0  0  0  0  0
   30.8854   22.9246    4.3473 C   0  0  0  0  0  0  0  0  0  0  0  0
   31.9821   25.8355    3.1449 C   0  0  0  0  0  0  0  0  0  0  0  0
   35.3956   24.1748    4.9865 C   0  0  0  0  0  0  0  0  0  0  0  0
   35.2068   24.5841    6.5492 C   0  0  0  0  0  0  0  0  0  0  0  0
   26.7133   29.4617    0.5922 O   0  0  0  0  0  0  0  0  0  0  0  0
   32.2514   22.0320    4.7092 C   0  0  0  0  0  0  0  0  0  0  0  0
   33.4620   23.9633    5.5774 C   0  0  0  0  0  0  0  0  0  0  0  0
   29.7245   22.6552    5.0710 O   0  0  0  0  0  0  0  0  0  0  0  0
   30.4044   24.6642    1.2178 C   0  0  0  0  0  0  0  0  0  0  0  0
   29.5298   26.6774    0.4688 C   0  0  0  0  0  0  0  0  0  0  0  0
   32.3024   25.0420    2.2583 C   0  0  0  0  0  0  0  0  0  0  0  0
   31.2603   26.5489    0.8023 C   0  0  0  0  0  0  0  0  0  0  0  0
  4  1  1  0
  6  3  1  0
  6  5  1  0
  7  2  1  0
  7  3  1  0
  9  7  1  0
 10  4  1  0
 12  8  1  0
 15  2  1  0
 15 13  1  0
 16 12  2  0
 17  8  1  0
 18  1  1  0
 19 17  1  0
 20  1  1  0
 20 11  1  0
 21 14  1  0
 22  3  1  0
 23 15  1  0
 23 22  1  0
 24 12  1  0
 25  9  1  0
 25 20  1  0
 26  2  1  0
 26  7  1  0
 27 20  1  0
 28  4  1  0
 28 10  1  0
 28 18  1  0
 29  8  1  0
 29 10  1  0
 29 19  1  0
 30 18  1  0
 30 21  1  0
 31 29  1  0
M  END
>  <ID>  (1) 
conformer_0

$$$$
