
     RDKit          3D

 25 26  0  0  0  0  0  0  0  0999 V2000
   33.4225   24.2350    3.6680 C   0  0  0  0  0  0  0  0  0  0  0  0
   28.8927   28.2789   -0.0653 C   0  0  0  0  0  0  0  0  0  0  0  0
   32.0643   24.7557    1.8565 C   0  0  0  0  0  0  0  0  0  0  0  0
   34.3001   24.0099    4.9631 C   0  0  0  0  0  0  0  0  0  0  0  0
   33.8342   22.1491    6.4496 C   0  0  0  0  0  0  0  0  0  0  0  0
   32.7577   21.5173    5.7660 C   0  0  0  0  0  0  0  0  0  0  0  0
   32.3445   22.8902    4.4323 C   0  0  0  0  0  0  0  0  0  0  0  0
   31.9688   26.1079    2.5890 C   0  0  0  0  0  0  0  0  0  0  0  0
   30.8250   26.4867    0.7545 C   0  0  0  0  0  0  0  0  0  0  0  0
   30.3067   23.4697    2.9531 C   0  0  0  0  0  0  0  0  0  0  0  0
   29.5571   22.5089    5.0909 O   0  0  0  0  0  0  0  0  0  0  0  0
   31.5431   24.3701    3.3516 C   0  0  0  0  0  0  0  0  0  0  0  0
   26.8795   28.1873    0.8119 C   0  0  0  0  0  0  0  0  0  0  0  0
   32.1550   26.9333    3.2337 O   0  0  0  0  0  0  0  0  0  0  0  0
   34.8704   23.7306    7.3804 C   0  0  0  0  0  0  0  0  0  0  0  0
   31.0151   22.4762    4.7566 C   0  0  0  0  0  0  0  0  0  0  0  0
   30.3986   27.9099   -0.4146 C   0  0  0  0  0  0  0  0  0  0  0  0
   34.7008   22.5776    4.9966 C   0  0  0  0  0  0  0  0  0  0  0  0
   35.3703   24.4285    6.1361 C   0  0  0  0  0  0  0  0  0  0  0  0
   26.2432   27.9106    1.0323 F   0  0  0  0  0  0  0  0  0  0  0  0
   33.5292   24.0638    8.1999 O   0  0  0  0  0  0  0  0  0  0  0  0
   30.9575   22.9494    6.6230 O   0  0  0  0  0  0  0  0  0  0  0  0
   28.6730   26.7607    0.8643 C   0  0  0  0  0  0  0  0  0  0  0  0
   29.8435   25.0137    1.7225 C   0  0  0  0  0  0  0  0  0  0  0  0
   28.9141   24.1248    1.6819 C   0  0  0  0  0  0  0  0  0  0  0  0
  4  1  1  0
  6  5  1  0
  7  1  1  0
  7  6  1  0
  8  3  1  0
 12  1  1  0
 12  3  1  0
 12  8  1  0
 12 10  1  0
 13  2  1  0
 14  8  1  0
 16  7  1  0
 16 11  1  0
 17  2  1  0
 17  9  1  0
 18  4  1  0
 18  5  1  0
 19  4  1  0
 19 15  1  0
 20 13  1  0
 21 15  1  0
 22 16  1  0
 23  2  1  0
 24  9  1  0
 25 10  1  0
 25 24  1  0
M  END
>  <ID>  (1) 
conformer_0

$$$$
