
     RDKit          3D

 31 38  0  0  0  0  0  0  0  0999 V2000
   29.4184   23.8024    1.4486 C   0  0  2  0  0  0  0  0  0  0  0  0
   31.5374   23.5290    2.8725 C   0  0  1  0  0  0  0  0  0  0  0  0
   34.2442   22.4283    7.8310 C   0  0  1  0  0  0  0  0  0  0  0  0
   30.5828   25.0253    2.3565 C   0  0  2  0  0  0  0  0  0  0  0  0
   31.2832   26.7855    0.5661 C   0  0  0  0  0  0  0  0  0  0  0  0
   34.4129   24.8577    5.0898 C   0  0  0  0  0  0  0  0  0  0  0  0
   29.8412   27.6844   -0.1180 C   0  0  0  0  0  0  0  0  0  0  0  0
   35.2560   24.9317    6.6273 C   0  0  0  0  0  0  0  0  0  0  0  0
   33.9785   23.3021    6.3757 C   0  0  2  0  0  0  0  0  0  0  0  0
   31.8898   25.0700    1.1098 C   0  0  1  0  0  0  0  0  0  0  0  0
   30.1356   23.2689    3.1187 C   0  0  0  0  0  0  0  0  0  0  0  0
   30.5501   23.2600    6.0551 O   0  0  0  0  0  0  0  0  0  0  0  0
   34.4549   24.1903    7.7439 C   0  0  1  0  0  0  0  0  0  0  0  0
   26.7852   28.3478    0.5861 C   0  0  0  0  0  0  0  0  0  0  0  0
   32.0388   26.7828    3.4049 O   0  0  0  0  0  0  0  0  0  0  0  0
   25.9879   27.8636    1.1652 O   0  0  0  0  0  0  0  0  0  0  0  0
   34.4284   24.7614    8.5968 O   0  0  0  0  0  0  0  0  0  0  0  0
   32.1434   22.0601    4.7781 C   0  0  0  0  0  0  0  0  0  0  0  0
   33.1376   21.5841    6.7218 C   0  0  1  0  0  0  0  0  0  0  0  0
   32.1766   25.8897    2.7428 C   0  0  1  0  0  0  0  0  0  0  0  0
   26.2581   29.0944   -0.0871 O   0  0  0  0  0  0  0  0  0  0  0  0
   28.4997   26.5523    0.8757 C   0  0  0  0  0  0  0  0  0  0  0  0
   28.2086   28.0755    0.2944 C   0  0  0  0  0  0  0  0  0  0  0  0
   31.5076   22.7561    5.2009 C   0  0  0  0  0  0  0  0  0  0  0  0
   29.7199   25.6010    0.8275 C   0  0  2  0  0  0  0  0  0  0  0  0
   28.3611   24.4709    1.9009 C   0  0  0  0  0  0  0  0  0  0  0  0
   32.9306   24.8553    2.7922 C   0  0  0  0  0  0  0  0  0  0  0  0
   34.0625   22.1026    5.3214 C   0  0  2  0  0  0  0  0  0  0  0  0
   34.1648   23.4886    3.5723 C   0  0  0  0  0  0  0  0  0  0  0  0
   35.3541   23.3632    4.7980 C   0  0  1  0  0  0  0  0  0  0  0  0
   32.5058   23.7899    4.3391 C   0  0  1  0  0  0  0  0  0  0  0  0
  4  2  1  0
  7  5  1  0
  8  6  1  0
  9  3  1  0
  4 10  1  6
 10  5  1  6
 11  1  1  0
  2 11  1  1
  3 13  1  1
 13  8  1  0
  9 13  1  6
 16 14  2  0
 13 17  1  1
 19  3  1  1
 19  9  1  0
 20  4  1  0
 20 10  1  0
 20 15  1  6
 21 14  1  0
 23  7  1  0
 23 14  1  0
 23 22  2  0
 24 12  1  0
 24 18  2  3
 25  1  1  0
 25  4  1  0
 25 22  1  1
  1 26  1  1
 27  2  1  0
 27 20  1  0
 28  9  1  0
 28 19  1  0
 30  6  1  0
 28 30  1  1
 30 29  1  6
 31  2  1  0
 31 24  1  0
 31 29  1  6
M  END
>  <ID>  (1) 
conformer_0

$$$$
