
     RDKit          3D

 26 28  0  0  0  0  0  0  0  0999 V2000
   34.3349   24.0205    6.6948 C   0  0  1  0  0  0  0  0  0  0  0  0
   32.8597   21.9395    5.7134 C   0  0  0  0  0  0  0  0  0  0  0  0
   29.2752   25.6766    1.1572 C   0  0  0  0  0  0  0  0  0  0  0  0
   35.5728   24.5030    6.2162 C   0  0  0  0  0  0  0  0  0  0  0  0
   28.9148   24.1834    2.0088 C   0  0  0  0  0  0  0  0  0  0  0  0
   33.7693   22.3764    6.6729 C   0  0  0  0  0  0  0  0  0  0  0  0
   29.8088   23.8646    1.3642 C   0  0  0  0  0  0  0  0  0  0  0  0
   28.7577   27.9652   -0.6817 C   0  0  0  0  0  0  0  0  0  0  0  0
   31.3995   24.5750    2.6355 C   0  0  1  0  0  0  0  0  0  0  0  0
   33.1668   24.3423    3.5149 C   0  0  2  0  0  0  0  0  0  0  0  0
   29.9433   22.9329    5.5544 O   0  0  0  0  0  0  0  0  0  0  0  0
   34.5567   24.5568    7.7789 C   0  0  0  0  0  0  0  0  0  0  0  0
   30.9495   22.8934    4.5897 C   0  0  2  0  0  0  0  0  0  0  0  0
   26.7777   28.2907    0.6222 C   0  0  0  0  0  0  0  0  0  0  0  0
   31.5937   25.2838    1.4266 C   0  0  2  0  0  0  0  0  0  0  0  0
   32.4841   25.9594    2.9245 C   0  0  1  0  0  0  0  0  0  0  0  0
   32.1226   26.8265    3.5351 O   0  0  0  0  0  0  0  0  0  0  0  0
   34.6131   24.8274    8.6955 O   0  0  0  0  0  0  0  0  0  0  0  0
   32.7050   23.2830    4.5942 C   0  0  1  0  0  0  0  0  0  0  0  0
   30.6387   23.4929    3.1942 C   0  0  0  0  0  0  0  0  0  0  0  0
   25.9052   28.1326    0.4676 O   0  0  0  0  0  0  0  0  0  0  0  0
   30.6131   26.4204    0.4934 C   0  0  0  0  0  0  0  0  0  0  0  0
   29.9929   27.6807   -0.7605 C   0  0  0  0  0  0  0  0  0  0  0  0
   34.8170   22.8987    4.9812 C   0  0  0  0  0  0  0  0  0  0  0  0
   27.9983   27.3663    0.8750 C   0  0  0  0  0  0  0  0  0  0  0  0
   34.7043   24.3241    4.5750 C   0  0  2  0  0  0  0  0  0  0  0  0
  4  1  1  0
  5  3  1  0
  6  1  1  0
  6  2  1  0
  7  5  1  0
  1 12  1  1
 13 11  1  1
 15  9  1  0
 16  9  1  0
 16 10  1  0
 16 15  1  0
 16 17  1  1
 18 12  1  0
 19  2  1  6
 19 10  1  0
 19 13  1  0
  9 20  1  1
 20 13  1  0
 21 14  2  0
 22  3  1  0
 15 22  1  1
 23  8  1  0
 23 22  2  3
 25  8  1  0
 25 14  1  0
 26  4  1  0
 10 26  1  1
 26 24  1  1
M  END
>  <ID>  (1) 
conformer_0

$$$$
