
     RDKit          3D

 24 27  0  0  0  0  0  0  0  0999 V2000
   31.8486   23.4115    3.6600 C   0  0  0  0  0  0  0  0  0  0  0  0
   33.6563   22.6610    6.9179 C   0  0  0  0  0  0  0  0  0  0  0  0
   29.3161   23.9301    1.9169 C   0  0  0  0  0  0  0  0  0  0  0  0
   33.5402   23.9884    3.8811 C   0  0  0  0  0  0  0  0  0  0  0  0
   30.3759   23.7341    2.5852 C   0  0  0  0  0  0  0  0  0  0  0  0
   34.0779   22.5692    4.5397 C   0  0  0  0  0  0  0  0  0  0  0  0
   31.4226   25.3067    1.5229 C   0  0  0  0  0  0  0  0  0  0  0  0
   35.1027   24.4765    6.5505 C   0  0  0  0  0  0  0  0  0  0  0  0
   28.2955   27.5146    0.4978 C   0  0  0  0  0  0  0  0  0  0  0  0
   34.1683   24.0652    8.0973 C   0  0  0  0  0  0  0  0  0  0  0  0
   32.3478   24.5818    2.5166 C   0  0  0  0  0  0  0  0  0  0  0  0
   26.6564   28.4516    0.4974 C   0  0  0  0  0  0  0  0  0  0  0  0
   31.6494   26.7838    3.6316 O   0  0  0  0  0  0  0  0  0  0  0  0
   25.7975   28.2604    0.8479 O   0  0  0  0  0  0  0  0  0  0  0  0
   30.1706   22.9295    5.5607 O   0  0  0  0  0  0  0  0  0  0  0  0
   33.4845   24.7791    8.3222 O   0  0  0  0  0  0  0  0  0  0  0  0
   34.9400   23.7192    5.2844 C   0  0  0  0  0  0  0  0  0  0  0  0
   33.2119   22.0632    5.7565 C   0  0  0  0  0  0  0  0  0  0  0  0
   32.0645   25.9565    2.8073 C   0  0  0  0  0  0  0  0  0  0  0  0
   26.5399   29.0721   -0.5878 O   0  0  0  0  0  0  0  0  0  0  0  0
   30.1424   26.4642    0.6543 C   0  0  0  0  0  0  0  0  0  0  0  0
   29.1327   27.6471   -0.3841 C   0  0  0  0  0  0  0  0  0  0  0  0
   30.7013   22.9270    4.2730 C   0  0  0  0  0  0  0  0  0  0  0  0
   29.0710   25.1450    1.3801 C   0  0  0  0  0  0  0  0  0  0  0  0
  4  1  1  0
  5  1  1  0
  5  3  1  0
  6  4  1  0
 10  2  1  0
 10  8  1  0
 11  1  1  0
 11  4  1  0
 11  7  1  0
 12  9  1  0
 14 12  2  0
 16 10  1  0
 17  6  1  0
 17  8  2  0
 18  2  1  0
 18  6  1  0
 19  7  1  0
 19 11  1  0
 19 13  1  0
 20 12  1  0
 21  7  1  0
 22  9  1  0
 22 21  1  0
 23  1  1  0
 23 15  1  0
 24  3  1  0
 24 21  2  0
M  END
>  <ID>  (1) 
conformer_0

$$$$
