
     RDKit          3D

 29 33  0  0  0  0  0  0  0  0999 V2000
   35.1778   22.7366    4.6548 C   0  0  0  0  0  0  0  0  0  0  0  0
   34.1336   24.0011    5.1491 C   0  0  0  0  0  0  0  0  0  0  0  0
   28.7280   23.9419    1.9778 C   0  0  0  0  0  0  0  0  0  0  0  0
   31.7996   23.1020    3.6762 C   0  0  0  0  0  0  0  0  0  0  0  0
   34.2068   23.2365    3.4869 C   0  0  0  0  0  0  0  0  0  0  0  0
   34.3368   23.2435    6.7498 C   0  0  0  0  0  0  0  0  0  0  0  0
   30.2311   23.3518    2.6190 C   0  0  0  0  0  0  0  0  0  0  0  0
   33.0280   22.1422    5.1901 C   0  0  0  0  0  0  0  0  0  0  0  0
   32.7914   24.4385    3.6711 C   0  0  0  0  0  0  0  0  0  0  0  0
   33.3229   21.9646    6.9612 C   0  0  0  0  0  0  0  0  0  0  0  0
   32.0294   24.4463    1.9251 C   0  0  0  0  0  0  0  0  0  0  0  0
   32.7895   26.8554    2.6919 O   0  0  0  0  0  0  0  0  0  0  0  0
   34.3952   23.7456    8.0503 C   0  0  0  0  0  0  0  0  0  0  0  0
   32.4412   25.8624    3.0690 C   0  0  0  0  0  0  0  0  0  0  0  0
   33.7715   24.6677    8.4106 O   0  0  0  0  0  0  0  0  0  0  0  0
   25.8661   27.9068    1.0397 O   0  0  0  0  0  0  0  0  0  0  0  0
   30.3051   22.8214    5.4185 O   0  0  0  0  0  0  0  0  0  0  0  0
   26.5469   28.5683    0.5369 C   0  0  0  0  0  0  0  0  0  0  0  0
   31.0261   26.0446    0.8553 C   0  0  0  0  0  0  0  0  0  0  0  0
   35.4126   24.6176    6.6238 C   0  0  0  0  0  0  0  0  0  0  0  0
   28.6638   27.6816   -0.2028 C   0  0  0  0  0  0  0  0  0  0  0  0
   31.2625   22.5935    4.4754 C   0  0  0  0  0  0  0  0  0  0  0  0
   26.2208   29.2804   -0.3397 O   0  0  0  0  0  0  0  0  0  0  0  0
   29.7113   24.9270    1.2305 C   0  0  0  0  0  0  0  0  0  0  0  0
   30.0493   27.3000   -0.3794 C   0  0  0  0  0  0  0  0  0  0  0  0
   28.9640   26.3842    1.0708 C   0  0  0  0  0  0  0  0  0  0  0  0
   31.9705   26.4875    4.5766 O   0  0  0  0  0  0  0  0  0  0  0  0
   27.7218   29.0741    0.4213 C   0  0  0  0  0  0  0  0  0  0  0  0
   30.8002   25.0997    2.6660 C   0  0  0  0  0  0  0  0  0  0  0  0
  2  1  1  0
  5  1  1  0
  5  2  1  0
  6  2  1  0
  7  3  1  0
  7  4  1  0
  9  4  1  0
  9  5  1  0
 10  6  1  0
 10  8  1  0
 11  9  1  0
 13  6  1  0
 14  9  1  0
 14 12  1  0
 15 13  1  0
 18 16  2  0
 20  6  1  0
 22  4  1  0
 22  8  1  0
 22 17  1  0
 23 18  1  0
 24  3  1  0
 24 19  1  0
 25 21  1  0
 26 21  1  0
 26 24  1  0
 27 14  1  0
 28 18  1  0
 28 21  1  0
 29  7  1  0
 29 11  1  0
 29 14  1  0
 29 24  1  0
M  END
>  <ID>  (1) 
conformer_0

$$$$
