
     RDKit          3D

 28 30  0  0  0  0  0  0  0  0999 V2000
   32.5962   23.4008    4.5040 C   0  0  0  0  0  0  0  0  0  0  0  0
   29.1649   23.9138    1.5567 C   0  0  0  0  0  0  0  0  0  0  0  0
   34.5720   22.2503    5.3415 C   0  0  2  0  0  0  0  0  0  0  0  0
   30.6674   23.2631    3.2548 C   0  0  0  0  0  0  0  0  0  0  0  0
   32.2306   21.7128    5.1193 C   0  0  1  0  0  0  0  0  0  0  0  0
   31.7160   24.4977    1.5635 C   0  0  0  0  0  0  0  0  0  0  0  0
   33.3158   21.9142    6.3471 C   0  0  2  0  0  0  0  0  0  0  0  0
   29.7252   24.8556    1.7300 C   0  0  0  0  0  0  0  0  0  0  0  0
   34.9670   24.2169    4.9331 C   0  0  0  0  0  0  0  0  0  0  0  0
   32.0445   26.0690    2.7496 C   0  0  0  0  0  0  0  0  0  0  0  0
   26.3796   28.4053    0.5715 C   0  0  0  0  0  0  0  0  0  0  0  0
   31.0909   26.0977    0.8280 C   0  0  0  0  0  0  0  0  0  0  0  0
   29.5506   22.7496    5.1608 O   0  0  0  0  0  0  0  0  0  0  0  0
   30.9848   22.7248    4.7374 C   0  0  0  0  0  0  0  0  0  0  0  0
   34.3455   24.4820    7.7422 C   0  0  2  0  0  0  0  0  0  0  0  0
   32.2688   26.9371    3.2212 O   0  0  0  0  0  0  0  0  0  0  0  0
   34.2862   24.7133    8.6102 O   0  0  0  0  0  0  0  0  0  0  0  0
   29.6789   26.5773    0.5253 C   0  0  0  0  0  0  0  0  0  0  0  0
   25.5299   29.0050   -0.2146 O   0  0  0  0  0  0  0  0  0  0  0  0
   26.4511   27.7699    1.1985 O   0  0  0  0  0  0  0  0  0  0  0  0
   29.7046   27.8163   -0.4334 C   0  0  0  0  0  0  0  0  0  0  0  0
   34.0721   23.3088    6.7177 C   0  0  2  0  0  0  0  0  0  0  0  0
   35.5033   24.5842    6.5073 C   0  0  1  0  0  0  0  0  0  0  0  0
   28.0725   28.3348   -0.1169 C   0  0  0  0  0  0  0  0  0  0  0  0
   31.0332   24.8574    3.1334 C   0  0  1  0  0  0  0  0  0  0  0  0
   30.7784   23.1516    6.4557 O   0  0  0  0  0  0  0  0  0  0  0  0
   34.8623   23.1186    3.8786 C   0  0  0  0  0  0  0  0  0  0  0  0
   33.3531   24.4730    3.4569 C   0  0  0  0  0  0  0  0  0  0  0  0
  5  1  1  6
  7  3  1  0
  7  5  1  6
  8  2  2  3
 12  6  1  0
 14  4  1  0
 14  5  1  0
 14 13  1  0
 16 10  1  0
 15 17  1  1
 18 12  1  0
 19 11  1  0
 20 11  2  0
 21 18  1  0
 22  3  1  0
 22  7  1  0
 22 15  1  1
 23  9  1  6
 23 15  1  0
 23 22  1  0
 24 11  1  0
 24 21  1  0
 25  4  1  1
 25  6  1  0
 25  8  1  0
 25 10  1  0
 26 14  1  0
  3 27  1  6
 27  9  1  0
 28  1  1  0
M  END
>  <ID>  (1) 
conformer_0

$$$$
