
     RDKit          3D

 25 27  0  0  0  0  0  0  0  0999 V2000
   33.5130   21.7922    6.1056 C   0  0  0  0  0  0  0  0  0  0  0  0
   30.4416   23.6643    2.9055 C   0  0  0  0  0  0  0  0  0  0  0  0
   32.3982   22.2785    5.1635 C   0  0  0  0  0  0  0  0  0  0  0  0
   31.7735   23.9841    3.6116 C   0  0  0  0  0  0  0  0  0  0  0  0
   30.3439   24.3080    1.4776 C   0  0  0  0  0  0  0  0  0  0  0  0
   29.1125   24.7248    1.6972 C   0  0  0  0  0  0  0  0  0  0  0  0
   33.4185   23.9427    4.2823 C   0  0  0  0  0  0  0  0  0  0  0  0
   29.0087   26.3604    0.7000 C   0  0  0  0  0  0  0  0  0  0  0  0
   34.9746   24.5903    6.2873 C   0  0  0  0  0  0  0  0  0  0  0  0
   32.0807   24.6847    1.8644 C   0  0  0  0  0  0  0  0  0  0  0  0
   34.2816   24.3463    7.5771 C   0  0  0  0  0  0  0  0  0  0  0  0
   30.1360   23.1761    5.4943 O   0  0  0  0  0  0  0  0  0  0  0  0
   32.5009   26.5315    3.5295 O   0  0  0  0  0  0  0  0  0  0  0  0
   31.0399   22.8828    4.8235 C   0  0  0  0  0  0  0  0  0  0  0  0
   33.6664   24.5395    8.3410 O   0  0  0  0  0  0  0  0  0  0  0  0
   32.4708   25.6076    2.9887 C   0  0  0  0  0  0  0  0  0  0  0  0
   27.2246   28.4802    0.1556 C   0  0  0  0  0  0  0  0  0  0  0  0
   33.7296   23.0429    6.4319 C   0  0  0  0  0  0  0  0  0  0  0  0
   35.1795   23.7404    5.1304 C   0  0  0  0  0  0  0  0  0  0  0  0
   34.9180   22.6210    4.5184 C   0  0  0  0  0  0  0  0  0  0  0  0
   28.5703   28.6131   -0.6256 C   0  0  0  0  0  0  0  0  0  0  0  0
   26.2206   28.4966    0.5837 C   0  0  0  0  0  0  0  0  0  0  0  0
   30.9712   26.0008    0.9690 C   0  0  0  0  0  0  0  0  0  0  0  0
   29.6843   27.3775   -0.1692 C   0  0  0  0  0  0  0  0  0  0  0  0
   31.3111   24.0943    6.7600 O   0  0  0  0  0  0  0  0  0  0  0  0
  3  1  1  0
  4  2  1  0
  5  2  1  0
  6  5  1  0
  7  4  1  0
  8  6  1  0
 10  5  1  0
 11  9  1  0
 14  3  1  0
 14  4  1  0
 14 12  1  0
 15 11  1  0
 16  4  1  0
 16 10  1  0
 16 13  1  0
 18  1  1  0
 18 11  1  0
 19  7  1  0
 19  9  1  0
 20 19  1  0
 21 17  1  0
 22 17  3  0
 23  5  1  0
 23 10  1  0
 24  8  1  0
 24 21  1  0
 25 14  1  0
M  END
>  <ID>  (1) 
conformer_0

$$$$
