
     RDKit          3D

 30 34  0  0  0  0  0  0  0  0999 V2000
   30.5005   23.9885    3.1310 C   0  0  2  0  0  0  0  0  0  0  0  0
   28.7389   24.0384    1.6780 C   0  0  0  0  0  0  0  0  0  0  0  0
   29.0225   25.7953    1.3654 C   0  0  2  0  0  0  0  0  0  0  0  0
   32.3118   24.3309    3.2960 C   0  0  1  0  0  0  0  0  0  0  0  0
   30.9237   26.7367    0.3525 C   0  0  0  0  0  0  0  0  0  0  0  0
   29.7511   27.7280   -0.6701 C   0  0  0  0  0  0  0  0  0  0  0  0
   33.3096   21.8413    6.2344 C   0  0  0  0  0  0  0  0  0  0  0  0
   31.9904   24.9429    1.4583 C   0  0  0  0  0  0  0  0  0  0  0  0
   27.7099   28.4729    0.4140 C   0  0  0  0  0  0  0  0  0  0  0  0
   29.4853   22.3259    4.8041 O   0  0  0  0  0  0  0  0  0  0  0  0
   33.6328   24.8523    8.1567 O   0  0  0  0  0  0  0  0  0  0  0  0
   34.1512   24.4546    7.4337 C   0  0  2  0  0  0  0  0  0  0  0  0
   26.5021   28.5358    0.6794 C   0  0  0  0  0  0  0  0  0  0  0  0
   25.9236   27.8887    1.3487 O   0  0  0  0  0  0  0  0  0  0  0  0
   28.7342   27.2072    0.6237 C   0  0  1  0  0  0  0  0  0  0  0  0
   30.8304   22.7746    4.5735 C   0  0  0  0  0  0  0  0  0  0  0  0
   34.3538   23.0869    6.5222 C   0  0  1  0  0  0  0  0  0  0  0  0
   35.4669   24.9449    6.6356 C   0  0  0  0  0  0  0  0  0  0  0  0
   32.3837   26.5021    3.1310 O   0  0  0  0  0  0  0  0  0  0  0  0
   25.8962   29.2207   -0.0439 O   0  0  0  0  0  0  0  0  0  0  0  0
   32.4947   25.6154    2.4731 C   0  0  1  0  0  0  0  0  0  0  0  0
   30.2887   25.0556    0.9359 C   0  0  2  0  0  0  0  0  0  0  0  0
   30.4368   23.4697    1.6574 C   0  0  1  0  0  0  0  0  0  0  0  0
   33.4143   23.9420    5.2612 C   0  0  0  0  0  0  0  0  0  0  0  0
   34.2371   24.1103    3.6837 C   0  0  0  0  0  0  0  0  0  0  0  0
   34.6577   22.5399    4.5960 C   0  0  0  0  0  0  0  0  0  0  0  0
   32.3923   21.7965    5.4032 C   0  0  0  0  0  0  0  0  0  0  0  0
   31.9924   22.9733    4.1878 C   0  0  2  0  0  0  0  0  0  0  0  0
   30.4074   23.2217    6.0030 O   0  0  0  0  0  0  0  0  0  0  0  0
   35.4811   24.2126    5.3800 C   0  0  0  0  0  0  0  0  0  0  0  0
  3  2  1  6
  4  1  1  0
  6  5  1  0
 12 11  1  1
 13  9  1  0
 14 13  2  0
 15  3  1  0
 15  6  1  0
 15  9  1  6
  1 16  1  1
 16 10  1  0
 17  7  1  0
 17 12  1  0
 18 12  1  0
 20 13  1  0
  4 21  1  1
 21  8  1  0
 21 19  1  1
 22  3  1  0
 22  5  1  6
 22  8  1  0
 23  1  1  0
 23  2  1  1
 23 22  1  0
 17 24  1  6
 25 24  1  0
 26 25  1  0
 27  7  2  3
 28  4  1  0
 28 16  1  1
 28 27  1  0
 29 16  1  0
 30 17  1  0
 30 18  1  0
M  END
>  <ID>  (1) 
conformer_0

$$$$
