
     RDKit          3D

 31 36  0  0  0  0  0  0  0  0999 V2000
   29.4655   26.9877    0.4411 C   0  0  0  0  0  0  0  0  0  0  0  0
   32.3387   21.6640    5.0155 C   0  0  0  0  0  0  0  0  0  0  0  0
   30.9529   24.8140    2.9243 C   0  0  1  0  0  0  0  0  0  0  0  0
   29.5886   25.3485    1.4115 C   0  0  0  0  0  0  0  0  0  0  0  0
   32.0657   24.2421    1.5148 C   0  0  0  0  0  0  0  0  0  0  0  0
   35.2676   24.2720    4.7908 C   0  0  1  0  0  0  0  0  0  0  0  0
   30.4118   23.1001    3.0699 C   0  0  1  0  0  0  0  0  0  0  0  0
   27.7955   28.0589    0.8208 C   0  0  0  0  0  0  0  0  0  0  0  0
   30.3543   23.5057    1.4367 C   0  0  1  0  0  0  0  0  0  0  0  0
   28.7624   23.9911    2.0308 C   0  0  0  0  0  0  0  0  0  0  0  0
   30.9455   22.6424    4.7071 C   0  0  0  0  0  0  0  0  0  0  0  0
   26.5457   28.6884    0.5083 C   0  0  0  0  0  0  0  0  0  0  0  0
   29.4543   22.5390    5.0359 O   0  0  0  0  0  0  0  0  0  0  0  0
   34.4394   24.3443    8.1056 C   0  0  1  0  0  0  0  0  0  0  0  0
   26.0462   29.1962   -0.4544 O   0  0  0  0  0  0  0  0  0  0  0  0
   32.2599   26.7468    3.4407 O   0  0  0  0  0  0  0  0  0  0  0  0
   34.1838   24.7774    8.8488 O   0  0  0  0  0  0  0  0  0  0  0  0
   32.2223   25.8064    2.7856 C   0  0  1  0  0  0  0  0  0  0  0  0
   33.8281   23.3260    7.2466 C   0  0  0  0  0  0  0  0  0  0  0  0
   35.2085   24.3254    6.6083 C   0  0  1  0  0  0  0  0  0  0  0  0
   25.7439   28.3760    1.1760 O   0  0  0  0  0  0  0  0  0  0  0  0
   33.3196   24.7547    3.4188 C   0  0  0  0  0  0  0  0  0  0  0  0
   34.9589   22.7935    3.9534 C   0  0  0  0  0  0  0  0  0  0  0  0
   31.4540   26.2088    1.0931 C   0  0  0  0  0  0  0  0  0  0  0  0
   30.6814   27.7631   -0.2698 C   0  0  0  0  0  0  0  0  0  0  0  0
   32.1056   23.5123    3.8492 C   0  0  1  0  0  0  0  0  0  0  0  0
   34.2525   22.2171    5.4473 C   0  0  2  0  0  0  0  0  0  0  0  0
   33.0226   21.5788    6.3449 C   0  0  0  0  0  0  0  0  0  0  0  0
   30.6311   23.2081    6.2458 O   0  0  0  0  0  0  0  0  0  0  0  0
   28.8931   28.1616   -0.4076 C   0  0  1  0  0  0  0  0  0  0  0  0
   33.5014   23.5989    5.1177 C   0  0  1  0  0  0  0  0  0  0  0  0
  4  1  2  3
  3  5  1  6
  7  3  1  0
  9  5  1  0
  7  9  1  6
 10  4  1  0
  9 10  1  1
 11  2  1  0
 12  8  1  0
 13 11  1  0
 15 12  1  0
 14 17  1  6
 18  3  1  0
 18 16  1  0
 19 14  1  0
 20  6  1  0
 20 14  1  0
 20 19  1  1
 21 12  2  0
 22 18  1  0
  6 23  1  1
 18 24  1  6
 25  1  1  0
 26  7  1  0
 26 11  1  0
 26 22  1  1
 27 23  1  6
 28  2  1  0
 28 27  1  0
 29 11  1  0
 30  1  1  0
 30  8  1  1
 30 25  1  0
 31  6  1  0
 31 26  1  0
 31 27  1  6
M  END
>  <ID>  (1) 
conformer_0

$$$$
