
     RDKit          3D

 25 26  0  0  0  0  0  0  0  0999 V2000
   30.8422   24.3802    2.9787 C   0  0  2  0  0  0  0  0  0  0  0  0
   29.3304   25.8868    0.8066 C   0  0  1  0  0  0  0  0  0  0  0  0
   30.6019   25.5710    1.1020 C   0  0  2  0  0  0  0  0  0  0  0  0
   31.7691   24.8446    1.7436 C   0  0  1  0  0  0  0  0  0  0  0  0
   31.6711   23.3521    3.8833 C   0  0  0  0  0  0  0  0  0  0  0  0
   33.4401   24.0811    3.2146 C   0  0  0  0  0  0  0  0  0  0  0  0
   30.9889   27.1676    0.6905 C   0  0  0  0  0  0  0  0  0  0  0  0
   32.7172   21.9916    5.5629 C   0  0  1  0  0  0  0  0  0  0  0  0
   29.4284   27.6052   -0.1404 C   0  0  2  0  0  0  0  0  0  0  0  0
   33.5800   21.8843    6.5795 C   0  0  0  0  0  0  0  0  0  0  0  0
   34.5585   23.9908    7.9830 C   0  0  0  0  0  0  0  0  0  0  0  0
   32.4980   26.8022    3.0914 O   0  0  0  0  0  0  0  0  0  0  0  0
   30.4039   23.4312    5.9095 O   0  0  0  0  0  0  0  0  0  0  0  0
   28.3997   27.9424    0.1063 C   0  0  0  0  0  0  0  0  0  0  0  0
   26.8232   28.3382    0.5683 C   0  0  0  0  0  0  0  0  0  0  0  0
   32.1862   25.9519    2.6197 C   0  0  0  0  0  0  0  0  0  0  0  0
   29.7347   23.6767    2.0885 C   0  0  0  0  0  0  0  0  0  0  0  0
   28.8358   24.1672    1.5742 C   0  0  0  0  0  0  0  0  0  0  0  0
   26.0481   27.6943    1.1376 O   0  0  0  0  0  0  0  0  0  0  0  0
   26.3923   29.2493   -0.1780 O   0  0  0  0  0  0  0  0  0  0  0  0
   31.4961   22.7726    4.9023 C   0  0  1  0  0  0  0  0  0  0  0  0
   33.8027   23.2520    4.7110 C   0  0  0  0  0  0  0  0  0  0  0  0
   34.1521   23.3133    6.7405 C   0  0  0  0  0  0  0  0  0  0  0  0
   34.9805   23.4497    4.4283 C   0  0  0  0  0  0  0  0  0  0  0  0
   35.2482   24.4324    6.1348 C   0  0  0  0  0  0  0  0  0  0  0  0
  3  2  1  0
  4  1  1  0
  4  3  1  0
  1  5  1  1
  3  7  1  1
  9  2  1  0
  9  7  1  0
  8 10  1  1
  9 14  1  1
 15 14  1  0
  4 16  1  1
 16 12  1  0
 17  1  1  0
  2 18  1  6
 18 17  1  0
 19 15  2  0
 20 15  1  0
 21  5  1  0
 21  8  1  0
 21 13  1  1
 22  6  1  0
 22  8  1  0
 23 10  1  0
 23 11  1  0
 24 22  2  3
 25 23  1  0
M  END
>  <ID>  (1) 
conformer_0

$$$$
