
     RDKit          3D

 29 34  0  0  0  0  0  0  0  0999 V2000
   32.7262   22.5952    4.9282 C   0  0  0  0  0  0  0  0  0  0  0  0
   33.6852   22.6420    7.0809 C   0  0  0  0  0  0  0  0  0  0  0  0
   31.1546   23.0905    3.5172 C   0  0  0  0  0  0  0  0  0  0  0  0
   34.5623   22.4683    5.5057 C   0  0  0  0  0  0  0  0  0  0  0  0
   32.7534   21.3855    6.5499 C   0  0  0  0  0  0  0  0  0  0  0  0
   32.0758   24.3264    1.6801 C   0  0  0  0  0  0  0  0  0  0  0  0
   35.1354   24.3346    7.1205 C   0  0  0  0  0  0  0  0  0  0  0  0
   30.4509   24.9055    1.8226 C   0  0  0  0  0  0  0  0  0  0  0  0
   33.8327   24.1534    3.3456 C   0  0  0  0  0  0  0  0  0  0  0  0
   29.8409   23.4112    2.7240 C   0  0  0  0  0  0  0  0  0  0  0  0
   32.4367   26.8068    3.3032 O   0  0  0  0  0  0  0  0  0  0  0  0
   29.0523   24.1921    1.7111 C   0  0  0  0  0  0  0  0  0  0  0  0
   30.1201   23.1433    5.9178 O   0  0  0  0  0  0  0  0  0  0  0  0
   33.8193   24.5790    8.6009 O   0  0  0  0  0  0  0  0  0  0  0  0
   25.3173   28.2209    1.0903 O   0  0  0  0  0  0  0  0  0  0  0  0
   26.1923   28.5983    0.2564 C   0  0  0  0  0  0  0  0  0  0  0  0
   25.9491   29.2524   -0.6981 O   0  0  0  0  0  0  0  0  0  0  0  0
   33.7113   23.7522    7.5850 C   0  0  0  0  0  0  0  0  0  0  0  0
   32.3844   25.8835    2.8802 C   0  0  0  0  0  0  0  0  0  0  0  0
   30.3982   26.7189    0.1494 C   0  0  0  0  0  0  0  0  0  0  0  0
   28.7989   27.4556   -0.0149 C   0  0  0  0  0  0  0  0  0  0  0  0
   31.6412   25.8002    0.8925 C   0  0  0  0  0  0  0  0  0  0  0  0
   31.0307   22.7567    4.8309 C   0  0  0  0  0  0  0  0  0  0  0  0
   27.6730   27.9952    0.4453 C   0  0  0  0  0  0  0  0  0  0  0  0
   33.7681   24.4047    5.3411 C   0  0  0  0  0  0  0  0  0  0  0  0
   29.1699   26.0649    1.0336 C   0  0  0  0  0  0  0  0  0  0  0  0
   32.2936   24.5184    3.4418 C   0  0  0  0  0  0  0  0  0  0  0  0
   35.3580   24.1998    5.2856 C   0  0  0  0  0  0  0  0  0  0  0  0
   34.8621   22.9307    3.7050 C   0  0  0  0  0  0  0  0  0  0  0  0
  4  1  1  0
  4  2  1  0
  5  2  1  0
  8  6  1  0
 10  3  1  0
 10  8  1  0
 12  8  1  0
 12 10  1  0
 16 15  2  0
 17 16  1  0
 18  2  1  0
 18  7  1  0
 18 14  1  0
 19 11  1  0
 21 20  1  0
 22  6  1  0
 22  8  1  0
 22 20  1  0
 23  1  1  0
 23  3  1  0
 23 13  1  0
 24 16  1  0
 24 21  1  0
 26 20  1  0
 26 21  1  0
 27  3  1  0
 27  6  1  0
 27  9  1  0
 27 19  1  0
 28  4  1  0
 28  7  1  0
 28 25  1  0
 29  4  1  0
 29  9  1  0
M  END
>  <ID>  (1) 
conformer_0

$$$$
