
     RDKit          3D

 27 28  0  0  0  0  0  0  0  0999 V2000
   29.1447   24.7808    1.5039 C   0  0  0  0  0  0  0  0  0  0  0  0
   29.4697   23.6958    2.0493 C   0  0  0  0  0  0  0  0  0  0  0  0
   29.7981   26.1523    0.8443 C   0  0  1  0  0  0  0  0  0  0  0  0
   30.9883   23.1089    3.2173 C   0  0  0  0  0  0  0  0  0  0  0  0
   34.3729   23.1578    6.6389 C   0  0  2  0  0  0  0  0  0  0  0  0
   31.2741   24.5067    1.4768 C   0  0  0  0  0  0  0  0  0  0  0  0
   34.6233   22.7294    4.8412 C   0  0  0  0  0  0  0  0  0  0  0  0
   31.6766   26.1577    1.0280 C   0  0  2  0  0  0  0  0  0  0  0  0
   32.7806   23.3116    4.2867 C   0  0  0  0  0  0  0  0  0  0  0  0
   30.3879   27.1991   -0.2509 C   0  0  0  0  0  0  0  0  0  0  0  0
   32.5194   26.7604    3.4179 O   0  0  0  0  0  0  0  0  0  0  0  0
   34.7435   23.9648    7.7666 C   0  0  2  0  0  0  0  0  0  0  0  0
   26.5926   28.7592    0.3291 C   0  0  0  0  0  0  0  0  0  0  0  0
   34.3757   24.7713    8.3685 O   0  0  0  0  0  0  0  0  0  0  0  0
   26.3783   29.5163   -0.7430 O   0  0  0  0  0  0  0  0  0  0  0  0
   25.5270   28.3427    0.7477 O   0  0  0  0  0  0  0  0  0  0  0  0
   30.2186   22.8230    5.9800 O   0  0  0  0  0  0  0  0  0  0  0  0
   34.7148   24.1531    4.8183 C   0  0  0  0  0  0  0  0  0  0  0  0
   28.9184   27.8844   -0.4863 C   0  0  0  0  0  0  0  0  0  0  0  0
   32.2876   25.6964    2.8388 C   0  0  2  0  0  0  0  0  0  0  0  0
   35.6594   24.6024    6.2871 C   0  0  0  0  0  0  0  0  0  0  0  0
   27.8647   28.0120    0.5221 C   0  0  0  0  0  0  0  0  0  0  0  0
   31.3468   22.2036    5.1306 C   0  0  2  0  0  0  0  0  0  0  0  0
   32.9752   21.6320    5.7385 C   0  0  0  0  0  0  0  0  0  0  0  0
   33.3768   21.8217    7.1288 C   0  0  0  0  0  0  0  0  0  0  0  0
   32.8242   24.4557    3.2219 C   0  0  0  0  0  0  0  0  0  0  0  0
   30.9036   24.7046    3.0959 C   0  0  2  0  0  0  0  0  0  0  0  0
  2  1  2  3
  3  1  1  0
  7  5  1  0
  8  3  1  0
  8  6  1  6
  3 10  1  6
 12  5  1  0
 12 14  1  6
 15 13  1  0
 16 13  2  0
 18  7  1  0
 19 10  1  0
 20  8  1  0
 20 11  1  1
 21 12  1  0
 21 18  1  0
 22 13  1  0
 22 19  2  3
 23  9  1  0
 23 17  1  1
 24 23  1  0
  5 25  1  1
 25 24  1  0
 26  9  1  0
 26 20  1  0
 27  4  1  1
 27  6  1  0
 27 20  1  0
M  END
>  <ID>  (1) 
conformer_0

$$$$
