
     RDKit          3D

 29 32  0  0  0  0  0  0  0  0999 V2000
   35.1090   24.5019    6.7661 C   0  0  0  0  0  0  0  0  0  0  0  0
   34.0833   24.3265    3.7998 C   0  0  0  0  0  0  0  0  0  0  0  0
   30.2473   23.1711    2.9980 C   0  0  0  0  0  0  0  0  0  0  0  0
   34.6559   22.3869    5.0112 C   0  0  0  0  0  0  0  0  0  0  0  0
   32.3245   24.7544    3.4072 C   0  0  0  0  0  0  0  0  0  0  0  0
   28.5938   23.9421    2.0470 C   0  0  0  0  0  0  0  0  0  0  0  0
   35.4343   23.9139    5.2517 C   0  0  0  0  0  0  0  0  0  0  0  0
   29.5477   24.3662    1.4168 C   0  0  0  0  0  0  0  0  0  0  0  0
   33.5862   23.9636    5.2440 C   0  0  0  0  0  0  0  0  0  0  0  0
   30.4522   24.8538    2.6160 C   0  0  0  0  0  0  0  0  0  0  0  0
   31.7964   23.2842    3.9558 C   0  0  0  0  0  0  0  0  0  0  0  0
   34.3112   24.1225    7.7798 C   0  0  0  0  0  0  0  0  0  0  0  0
   33.8694   24.6406    8.6348 O   0  0  0  0  0  0  0  0  0  0  0  0
   30.0950   23.3418    5.5870 O   0  0  0  0  0  0  0  0  0  0  0  0
   27.8993   28.2259    0.2757 C   0  0  0  0  0  0  0  0  0  0  0  0
   30.2841   26.2594    0.7281 C   0  0  0  0  0  0  0  0  0  0  0  0
   25.8666   28.5736    0.7183 O   0  0  0  0  0  0  0  0  0  0  0  0
   26.5478   28.6786    0.6396 C   0  0  0  0  0  0  0  0  0  0  0  0
   31.7665   26.8383    3.3455 O   0  0  0  0  0  0  0  0  0  0  0  0
   32.3753   25.5563    2.5711 C   0  0  0  0  0  0  0  0  0  0  0  0
   31.8351   24.2526    1.4193 C   0  0  0  0  0  0  0  0  0  0  0  0
   31.7888   25.9480    0.8272 C   0  0  0  0  0  0  0  0  0  0  0  0
   28.7634   26.3427    1.0961 C   0  0  0  0  0  0  0  0  0  0  0  0
   30.6877   27.6065   -0.4228 C   0  0  0  0  0  0  0  0  0  0  0  0
   29.0900   28.0960   -0.3034 C   0  0  0  0  0  0  0  0  0  0  0  0
   30.9950   22.7137    4.6357 C   0  0  0  0  0  0  0  0  0  0  0  0
   32.5026   22.0718    4.9372 C   0  0  0  0  0  0  0  0  0  0  0  0
   33.8591   22.4382    6.7859 C   0  0  0  0  0  0  0  0  0  0  0  0
   32.7749   21.3791    6.4525 C   0  0  0  0  0  0  0  0  0  0  0  0
  5  2  1  0
  7  1  1  0
  7  4  1  0
  8  6  1  0
  9  2  1  0
  9  4  1  0
  9  7  1  0
 10  3  1  0
 10  8  1  0
 11  3  1  0
 11  5  1  0
 12  1  1  0
 13 12  1  0
 18 15  1  0
 18 17  2  0
 20  5  1  0
 20 19  1  0
 21 10  1  0
 21 20  1  0
 22 16  1  0
 22 20  1  0
 22 21  1  0
 23 16  1  0
 24 16  1  0
 25 15  3  0
 25 24  1  0
 26 11  1  0
 26 14  1  0
 27 26  1  0
 28  4  1  0
 29 27  1  0
 29 28  1  0
M  END
>  <ID>  (1) 
conformer_0

$$$$
