
     RDKit          3D

 27 33  0  0  0  0  0  0  0  0999 V2000
   34.7825   24.3113    6.7513 C   0  0  0  0  0  0  0  0  0  0  0  0
   32.2174   23.2296    4.0998 C   0  0  0  0  0  0  0  0  0  0  0  0
   34.7198   22.8255    3.9218 C   0  0  0  0  0  0  0  0  0  0  0  0
   34.9468   24.1775    4.9077 C   0  0  0  0  0  0  0  0  0  0  0  0
   32.9054   21.6350    6.6841 C   0  0  0  0  0  0  0  0  0  0  0  0
   33.3332   24.4441    4.3531 C   0  0  0  0  0  0  0  0  0  0  0  0
   33.5283   23.0807    6.5477 C   0  0  0  0  0  0  0  0  0  0  0  0
   32.8631   24.4472    2.7097 C   0  0  0  0  0  0  0  0  0  0  0  0
   30.6816   23.6632    3.1434 C   0  0  0  0  0  0  0  0  0  0  0  0
   32.3576   26.0495    2.9016 C   0  0  0  0  0  0  0  0  0  0  0  0
   29.2054   23.9732    1.9731 C   0  0  0  0  0  0  0  0  0  0  0  0
   33.3884   23.4183    7.6652 C   0  0  0  0  0  0  0  0  0  0  0  0
   32.4012   26.9697    3.3485 O   0  0  0  0  0  0  0  0  0  0  0  0
   33.7054   24.3126    8.6836 O   0  0  0  0  0  0  0  0  0  0  0  0
   26.5235   28.3649    0.3702 C   0  0  0  0  0  0  0  0  0  0  0  0
   29.1024   25.1898    1.3531 C   0  0  0  0  0  0  0  0  0  0  0  0
   31.6520   25.8577    1.0372 C   0  0  0  0  0  0  0  0  0  0  0  0
   31.1996   23.1607    7.4392 O   0  0  0  0  0  0  0  0  0  0  0  0
   26.3491   27.9658    1.0110 F   0  0  0  0  0  0  0  0  0  0  0  0
   28.0566   28.0146   -0.2982 C   0  0  0  0  0  0  0  0  0  0  0  0
   30.1306   26.1372    0.8136 C   0  0  0  0  0  0  0  0  0  0  0  0
   28.8208   27.0444   -0.0474 C   0  0  0  0  0  0  0  0  0  0  0  0
   30.5137   27.5680   -0.3302 C   0  0  0  0  0  0  0  0  0  0  0  0
   30.7570   25.1961    3.1619 C   0  0  0  0  0  0  0  0  0  0  0  0
   31.2518   24.0994    1.5060 C   0  0  0  0  0  0  0  0  0  0  0  0
   33.0483   21.9254    5.1731 C   0  0  0  0  0  0  0  0  0  0  0  0
   35.0643   22.3491    5.4788 C   0  0  0  0  0  0  0  0  0  0  0  0
  4  1  1  0
  4  3  1  0
  6  2  1  0
  6  4  1  0
  7  1  1  0
  7  5  1  0
  8  2  1  0
  8  6  1  0
  9  2  1  0
 10  8  1  0
 11  9  1  0
 12  7  1  0
 13 10  1  0
 14 12  1  0
 16 11  1  0
 18 12  1  0
 19 15  1  0
 20 15  1  0
 21 16  1  0
 21 17  1  0
 22 20  1  0
 22 21  1  0
 23 21  1  0
 23 22  1  0
 24  9  1  0
 24 10  1  0
 25  9  1  0
 25 17  1  0
 26  2  1  0
 26  5  1  0
 26  7  1  0
 27  3  1  0
 27  4  1  0
M  END
>  <ID>  (1) 
conformer_0

$$$$
