
     RDKit          3D

 30 34  0  0  0  0  0  0  0  0999 V2000
   33.8192   24.3983    4.6027 C   0  0  0  0  0  0  0  0  0  0  0  0
   31.9489   23.6316    3.4657 C   0  0  0  0  0  0  0  0  0  0  0  0
   35.2214   24.2705    6.0568 C   0  0  0  0  0  0  0  0  0  0  0  0
   28.7445   24.4415    1.3228 C   0  0  0  0  0  0  0  0  0  0  0  0
   32.7026   22.3248    4.9894 C   0  0  0  0  0  0  0  0  0  0  0  0
   32.2477   25.0010    2.4041 C   0  0  0  0  0  0  0  0  0  0  0  0
   33.8032   23.4015    6.9806 C   0  0  0  0  0  0  0  0  0  0  0  0
   31.1723   24.8414    1.1690 C   0  0  0  0  0  0  0  0  0  0  0  0
   33.2381   21.8940    6.7823 C   0  0  0  0  0  0  0  0  0  0  0  0
   29.5722   23.5486    1.8908 C   0  0  0  0  0  0  0  0  0  0  0  0
   30.6864   23.3505    2.8823 C   0  0  0  0  0  0  0  0  0  0  0  0
   34.3403   23.9408    8.1113 C   0  0  0  0  0  0  0  0  0  0  0  0
   30.2471   22.8305    5.5253 O   0  0  0  0  0  0  0  0  0  0  0  0
   31.3437   22.1980    4.4618 C   0  0  0  0  0  0  0  0  0  0  0  0
   31.7491   26.8927    3.3781 O   0  0  0  0  0  0  0  0  0  0  0  0
   33.8787   24.8812    8.5861 O   0  0  0  0  0  0  0  0  0  0  0  0
   26.2686   28.5589    0.7744 C   0  0  0  0  0  0  0  0  0  0  0  0
   25.3220   28.4020    1.2626 O   0  0  0  0  0  0  0  0  0  0  0  0
   31.8430   26.0092    2.6945 C   0  0  0  0  0  0  0  0  0  0  0  0
   34.4355   22.8368    5.3606 C   0  0  0  0  0  0  0  0  0  0  0  0
   29.8307   25.5126    1.7495 C   0  0  0  0  0  0  0  0  0  0  0  0
   25.7938   29.2211   -0.2565 O   0  0  0  0  0  0  0  0  0  0  0  0
   35.1740   23.3866    9.0884 O   0  0  0  0  0  0  0  0  0  0  0  0
   31.2862   26.7456    0.5626 C   0  0  0  0  0  0  0  0  0  0  0  0
   29.7951   28.0636    0.0195 C   0  0  0  0  0  0  0  0  0  0  0  0
   29.3224   26.5463    0.6240 C   0  0  0  0  0  0  0  0  0  0  0  0
   27.5710   27.6349    1.2781 C   0  0  0  0  0  0  0  0  0  0  0  0
   27.9860   28.6861   -0.0218 C   0  0  0  0  0  0  0  0  0  0  0  0
   33.7966   23.5002    3.3368 C   0  0  0  0  0  0  0  0  0  0  0  0
   35.3937   22.8684    3.9658 C   0  0  0  0  0  0  0  0  0  0  0  0
  6  2  1  0
  7  3  1  0
  8  6  1  0
  9  5  1  0
  9  7  1  0
 10  4  1  0
 11  2  1  0
 11 10  1  0
 12  7  1  0
 14  2  1  0
 14  5  1  0
 14 13  1  0
 16 12  1  0
 18 17  1  0
 19  6  1  0
 19 15  1  0
 20  1  1  0
 20  3  1  0
 20  7  1  0
 21  4  1  0
 21  8  1  0
 22 17  1  0
 23 12  2  0
 26 21  1  0
 26 24  1  0
 26 25  1  0
 27 17  1  0
 28 17  1  0
 28 25  1  0
 28 27  1  0
 29  1  1  0
 29  2  1  0
 30 20  1  0
 30 29  1  0
M  END
>  <ID>  (1) 
conformer_0

$$$$
