
     RDKit          3D

 30 33  0  0  0  0  0  0  0  0999 V2000
   34.9790   23.5907    3.9221 C   0  0  0  0  0  0  0  0  0  0  0  0
   34.8635   22.3521    5.5728 C   0  0  0  0  0  0  0  0  0  0  0  0
   32.2369   24.3910    3.6776 C   0  0  2  0  0  0  0  0  0  0  0  0
   33.5198   23.7854    5.4825 C   0  0  1  0  0  0  0  0  0  0  0  0
   34.8268   24.1247    7.2049 C   0  0  0  0  0  0  0  0  0  0  0  0
   29.9423   26.0637    1.0890 C   0  0  0  0  0  0  0  0  0  0  0  0
   32.5442   24.3404    1.9040 C   0  0  2  0  0  0  0  0  0  0  0  0
   30.5585   22.9994    3.1769 C   0  0  0  0  0  0  0  0  0  0  0  0
   30.6218   24.6204    2.8822 C   0  0  1  0  0  0  0  0  0  0  0  0
   33.8601   24.7886    3.4527 C   0  0  0  0  0  0  0  0  0  0  0  0
   26.5718   28.2209    0.7587 C   0  0  0  0  0  0  0  0  0  0  0  0
   25.7725   27.9530    1.4163 O   0  0  0  0  0  0  0  0  0  0  0  0
   33.5953   24.4556    8.5961 O   0  0  0  0  0  0  0  0  0  0  0  0
   31.8610   26.9269    3.1471 O   0  0  0  0  0  0  0  0  0  0  0  0
   30.5555   22.9999    5.9631 O   0  0  0  0  0  0  0  0  0  0  0  0
   35.3965   24.2336    5.2843 C   0  0  0  0  0  0  0  0  0  0  0  0
   33.8589   23.8540    7.7581 C   0  0  0  0  0  0  0  0  0  0  0  0
   28.0285   27.6689    0.9752 C   0  0  0  0  0  0  0  0  0  0  0  0
   26.4084   28.8484   -0.1874 O   0  0  0  0  0  0  0  0  0  0  0  0
   31.9141   26.0031    2.5728 C   0  0  1  0  0  0  0  0  0  0  0  0
   30.0368   24.0564    1.4399 C   0  0  0  0  0  0  0  0  0  0  0  0
   28.6279   25.6683    1.1652 C   0  0  0  0  0  0  0  0  0  0  0  0
   28.6537   23.8480    1.9453 C   0  0  0  0  0  0  0  0  0  0  0  0
   31.4553   22.9712    5.0580 C   0  0  0  0  0  0  0  0  0  0  0  0
   28.7635   27.5959   -0.1235 C   0  0  0  0  0  0  0  0  0  0  0  0
   31.7543   25.6564    1.0428 C   0  0  2  0  0  0  0  0  0  0  0  0
   30.4501   26.9640   -0.1677 C   0  0  0  0  0  0  0  0  0  0  0  0
   32.3057   22.9977    4.3537 C   0  0  1  0  0  0  0  0  0  0  0  0
   33.6325   22.3139    6.9494 C   0  0  1  0  0  0  0  0  0  0  0  0
   32.9786   21.6680    5.5483 C   0  0  0  0  0  0  0  0  0  0  0  0
  4  2  1  1
  7  3  1  0
  9  3  1  0
  9  8  1  6
 10  1  1  0
  3 10  1  1
 12 11  2  0
 16  1  1  0
 16  4  1  0
 17  5  2  3
 17 13  1  0
 18 11  1  0
 19 11  1  0
 20  7  1  0
 20  9  1  0
 20 14  1  6
 21  9  1  0
 22  6  2  3
 23 21  1  0
 24 15  1  0
 25 18  1  0
 26  6  1  1
  7 26  1  6
 26 20  1  0
 27  6  1  0
 27 25  1  0
 28  3  1  0
 28  4  1  0
 28 24  1  1
 29  2  1  6
 29 17  1  0
 30 28  1  0
 30 29  1  0
M  END
>  <ID>  (1) 
conformer_0

$$$$
