
     RDKit          3D

 30 39  0  0  0  0  0  0  0  0999 V2000
   33.3222   24.8007    3.9928 C   0  0  0  0  0  0  0  0  0  0  0  0
   30.7465   27.5564    0.1272 C   0  0  0  0  0  0  0  0  0  0  0  0
   30.8542   25.0074    3.3419 C   0  0  0  0  0  0  0  0  0  0  0  0
   34.9050   24.2568    6.6199 C   0  0  0  0  0  0  0  0  0  0  0  0
   32.6047   24.7474    2.2823 C   0  0  0  0  0  0  0  0  0  0  0  0
   27.9944   27.5467    0.9771 C   0  0  0  0  0  0  0  0  0  0  0  0
   30.3028   23.2512    2.7652 C   0  0  0  0  0  0  0  0  0  0  0  0
   33.9967   22.5795    6.7735 C   0  0  0  0  0  0  0  0  0  0  0  0
   29.5220   28.2206    0.2672 C   0  0  0  0  0  0  0  0  0  0  0  0
   29.0840   26.1237    1.0366 C   0  0  0  0  0  0  0  0  0  0  0  0
   34.8273   23.8117    3.5848 C   0  0  0  0  0  0  0  0  0  0  0  0
   35.2694   24.3519    5.0943 C   0  0  0  0  0  0  0  0  0  0  0  0
   32.0772   27.1615    3.4390 O   0  0  0  0  0  0  0  0  0  0  0  0
   34.1993   23.8123    7.9103 C   0  0  0  0  0  0  0  0  0  0  0  0
   32.0384   26.2021    2.9715 C   0  0  0  0  0  0  0  0  0  0  0  0
   26.8415   28.1211    1.0001 C   0  0  0  0  0  0  0  0  0  0  0  0
   33.4749   24.2302    8.5147 O   0  0  0  0  0  0  0  0  0  0  0  0
   29.9648   22.8228    5.5586 O   0  0  0  0  0  0  0  0  0  0  0  0
   26.2907   28.7973    0.1271 O   0  0  0  0  0  0  0  0  0  0  0  0
   31.2780   24.4168    1.1178 C   0  0  0  0  0  0  0  0  0  0  0  0
   35.0602   22.4109    4.8586 C   0  0  0  0  0  0  0  0  0  0  0  0
   30.6996   22.5012    4.3569 C   0  0  0  0  0  0  0  0  0  0  0  0
   30.9776   26.1922    1.1966 C   0  0  0  0  0  0  0  0  0  0  0  0
   29.4960   24.9867    1.8661 C   0  0  0  0  0  0  0  0  0  0  0  0
   28.6131   23.9053    1.8712 C   0  0  0  0  0  0  0  0  0  0  0  0
   25.8666   27.7074    1.5685 O   0  0  0  0  0  0  0  0  0  0  0  0
   31.7744   23.5497    3.5787 C   0  0  0  0  0  0  0  0  0  0  0  0
   33.3047   23.2169    4.9484 C   0  0  0  0  0  0  0  0  0  0  0  0
   32.1178   22.0339    4.6146 C   0  0  0  0  0  0  0  0  0  0  0  0
   33.1224   21.6070    6.0217 C   0  0  0  0  0  0  0  0  0  0  0  0
  5  1  1  0
  7  3  1  0
  8  4  1  0
  9  2  1  0
  9  6  2  0
 10  6  1  0
 11  1  1  0
 12  4  1  0
 12 11  1  0
 14  4  1  0
 14  8  1  0
 15  3  1  0
 15  5  1  0
 15 13  1  0
 16  6  1  0
 17 14  1  0
 19 16  1  0
 20  5  1  0
 21 11  1  0
 21 12  1  0
 22  7  1  0
 22 18  1  0
 23  2  1  0
 23 10  1  0
 23 20  1  0
 24 10  1  0
 25 24  1  0
 26 16  2  0
 27  3  1  0
 27  7  1  0
 27 22  1  0
 28  1  1  0
 28 21  1  0
 29 22  1  0
 29 27  1  0
 29 28  1  0
 30  8  1  0
 30 28  1  0
 30 29  1  0
M  END
>  <ID>  (1) 
conformer_0

$$$$
