
     RDKit          3D

 30 32  0  0  0  0  0  0  0  0999 V2000
   31.4455   23.7404    2.6877 C   0  0  0  0  0  0  0  0  0  0  0  0
   33.6228   21.8568    7.2216 C   0  0  0  0  0  0  0  0  0  0  0  0
   34.3885   22.4875    5.4830 C   0  0  0  0  0  0  0  0  0  0  0  0
   32.3851   22.5736    4.8500 C   0  0  1  0  0  0  0  0  0  0  0  0
   33.3124   24.7129    2.9299 C   0  0  0  0  0  0  0  0  0  0  0  0
   32.7326   21.3769    6.0794 C   0  0  0  0  0  0  0  0  0  0  0  0
   31.7804   25.4685    1.0759 C   0  0  1  0  0  0  0  0  0  0  0  0
   30.0157   26.0143    0.7020 C   0  0  0  0  0  0  0  0  0  0  0  0
   30.3145   23.0146    3.4355 C   0  0  0  0  0  0  0  0  0  0  0  0
   34.7317   23.4567    3.6576 C   0  0  0  0  0  0  0  0  0  0  0  0
   30.3756   23.1054    5.9964 O   0  0  0  0  0  0  0  0  0  0  0  0
   26.4095   28.3388    0.6346 C   0  0  0  0  0  0  0  0  0  0  0  0
   34.5344   24.1985    5.0300 C   0  0  0  0  0  0  0  0  0  0  0  0
   34.3368   24.1639    7.8949 C   0  0  1  0  0  0  0  0  0  0  0  0
   32.3392   26.8494    3.2331 O   0  0  0  0  0  0  0  0  0  0  0  0
   34.1857   24.6675    8.7461 O   0  0  0  0  0  0  0  0  0  0  0  0
   32.2652   25.9548    2.5981 C   0  0  2  0  0  0  0  0  0  0  0  0
   29.2091   27.5386   -0.3451 C   0  0  0  0  0  0  0  0  0  0  0  0
   30.9579   27.3205    0.1102 C   0  0  0  0  0  0  0  0  0  0  0  0
   31.2131   22.9043    5.0616 C   0  0  1  0  0  0  0  0  0  0  0  0
   25.6284   27.9265    0.9244 O   0  0  0  0  0  0  0  0  0  0  0  0
   25.9600   29.1567   -0.0984 O   0  0  0  0  0  0  0  0  0  0  0  0
   27.8814   27.8561    0.6895 C   0  0  0  0  0  0  0  0  0  0  0  0
   28.7985   26.0596    1.1252 C   0  0  0  0  0  0  0  0  0  0  0  0
   28.7991   24.1227    1.9456 C   0  0  0  0  0  0  0  0  0  0  0  0
   29.8907   23.8130    1.2909 C   0  0  0  0  0  0  0  0  0  0  0  0
   30.7224   25.0221    2.4865 C   0  0  2  0  0  0  0  0  0  0  0  0
   32.5711   24.1734    4.2872 C   0  0  0  0  0  0  0  0  0  0  0  0
   33.5762   23.4747    6.8639 C   0  0  1  0  0  0  0  0  0  0  0  0
   35.3152   24.2794    6.8712 C   0  0  0  0  0  0  0  0  0  0  0  0
  6  2  1  0
  4  6  1  1
  7  8  1  6
  9  1  1  0
 13  3  1  0
 13 10  1  0
 14 16  1  6
 17  5  1  0
 17  7  1  0
 17 15  1  6
 19  8  1  0
 19 18  1  0
 20  4  1  0
 20  9  1  0
 20 11  1  1
 21 12  2  0
 22 12  1  0
 23 12  1  0
 23 18  2  3
 24  8  2  3
 26 25  1  0
 27  1  1  0
 27  7  1  0
 27 17  1  0
 27 26  1  6
 28  4  1  0
 28  5  1  0
 29  2  1  6
 29  3  1  0
 29 14  1  0
 30 14  1  0
 30 29  1  0
M  END
>  <ID>  (1) 
conformer_0

$$$$
