
     RDKit          3D

 27 30  0  0  0  0  0  0  0  0999 V2000
   31.8365   22.8011    4.0552 C   0  0  0  0  0  0  0  0  0  0  0  0
   30.1677   23.8700    1.8560 C   0  0  0  0  0  0  0  0  0  0  0  0
   32.1409   24.6144    1.1269 C   0  0  0  0  0  0  0  0  0  0  0  0
   32.8143   21.8125    5.9237 C   0  0  0  0  0  0  0  0  0  0  0  0
   29.8346   25.4348    1.0653 C   0  0  0  0  0  0  0  0  0  0  0  0
   28.6970   24.2929    1.7327 C   0  0  0  0  0  0  0  0  0  0  0  0
   28.7166   26.6844    0.6075 C   0  0  0  0  0  0  0  0  0  0  0  0
   32.0572   24.4852    2.7980 C   0  0  0  0  0  0  0  0  0  0  0  0
   26.1403   27.8174    1.6451 O   0  0  0  0  0  0  0  0  0  0  0  0
   30.4183   23.6346    3.1207 C   0  0  0  0  0  0  0  0  0  0  0  0
   33.8663   24.1736    7.4569 C   0  0  0  0  0  0  0  0  0  0  0  0
   26.6653   28.3189    0.8013 C   0  0  0  0  0  0  0  0  0  0  0  0
   30.4699   23.3305    6.0432 O   0  0  0  0  0  0  0  0  0  0  0  0
   26.1212   28.9625   -0.1476 O   0  0  0  0  0  0  0  0  0  0  0  0
   32.6822   26.4357    3.2108 O   0  0  0  0  0  0  0  0  0  0  0  0
   33.6305   23.1759    6.7081 C   0  0  0  0  0  0  0  0  0  0  0  0
   34.0270   25.0998    8.0058 O   0  0  0  0  0  0  0  0  0  0  0  0
   29.8998   27.4047   -0.0554 C   0  0  0  0  0  0  0  0  0  0  0  0
   28.2866   28.1733    0.4414 C   0  0  0  0  0  0  0  0  0  0  0  0
   31.2538   22.9441    5.2220 C   0  0  0  0  0  0  0  0  0  0  0  0
   32.6145   25.4460    2.7934 C   0  0  0  0  0  0  0  0  0  0  0  0
   34.3206   22.1317    5.4131 C   0  0  0  0  0  0  0  0  0  0  0  0
   31.2272   26.0114    0.7045 C   0  0  0  0  0  0  0  0  0  0  0  0
   32.9848   23.6326    4.8264 C   0  0  0  0  0  0  0  0  0  0  0  0
   34.2638   24.3817    3.8815 C   0  0  0  0  0  0  0  0  0  0  0  0
   35.3360   24.5621    6.0224 C   0  0  0  0  0  0  0  0  0  0  0  0
   35.2787   23.5650    4.8427 C   0  0  0  0  0  0  0  0  0  0  0  0
  5  2  1  0
  6  2  1  0
  6  5  1  0
  7  5  1  0
  8  3  1  0
 10  1  1  0
 10  2  1  0
 10  8  1  0
 12  9  2  0
 14 12  1  0
 16  4  1  0
 16 11  1  0
 17 11  1  0
 18  7  1  0
 19  7  1  0
 19 12  1  0
 19 18  1  0
 20  1  1  0
 20 13  1  0
 21  8  1  0
 21 15  1  0
 22  4  1  0
 22 16  1  0
 23  3  1  0
 23  5  1  0
 24  1  1  0
 25 24  1  0
 27 22  1  0
 27 25  1  0
 27 26  1  0
M  END
>  <ID>  (1) 
conformer_0

$$$$
