
     RDKit          3D

 26 28  0  0  0  0  0  0  0  0999 V2000
   34.0021   22.8218    6.4990 C   0  0  0  0  0  0  0  0  0  0  0  0
   32.3469   24.4604    1.7309 C   0  0  1  0  0  0  0  0  0  0  0  0
   35.2413   23.7221    5.0376 C   0  0  0  0  0  0  0  0  0  0  0  0
   30.8809   23.2848    3.1184 C   0  0  1  0  0  0  0  0  0  0  0  0
   35.0923   24.5583    6.0565 C   0  0  0  0  0  0  0  0  0  0  0  0
   28.3393   27.8077    0.6017 C   0  0  0  0  0  0  0  0  0  0  0  0
   32.5710   22.7786    4.8077 C   0  0  1  0  0  0  0  0  0  0  0  0
   33.3263   21.6869    5.8862 C   0  0  0  0  0  0  0  0  0  0  0  0
   31.0484   25.5167    1.4659 C   0  0  2  0  0  0  0  0  0  0  0  0
   30.4579   27.3397   -0.0751 C   0  0  0  0  0  0  0  0  0  0  0  0
   26.6301   28.1878    1.1343 C   0  0  0  0  0  0  0  0  0  0  0  0
   34.4943   24.3467    7.5468 C   0  0  1  0  0  0  0  0  0  0  0  0
   30.3815   23.0242    5.8534 O   0  0  0  0  0  0  0  0  0  0  0  0
   32.2483   26.8580    3.0733 O   0  0  0  0  0  0  0  0  0  0  0  0
   32.1673   25.9768    2.7373 C   0  0  2  0  0  0  0  0  0  0  0  0
   26.0950   27.6007    1.6517 O   0  0  0  0  0  0  0  0  0  0  0  0
   31.3254   22.7675    4.8148 C   0  0  1  0  0  0  0  0  0  0  0  0
   33.9247   24.6927    8.2620 O   0  0  0  0  0  0  0  0  0  0  0  0
   26.3025   29.1797    0.3663 O   0  0  0  0  0  0  0  0  0  0  0  0
   35.2678   22.2314    5.0695 C   0  0  0  0  0  0  0  0  0  0  0  0
   29.7035   27.9234   -0.9637 C   0  0  0  0  0  0  0  0  0  0  0  0
   29.0832   26.4027    0.8914 C   0  0  0  0  0  0  0  0  0  0  0  0
   29.4157   24.7702    1.4678 C   0  0  2  0  0  0  0  0  0  0  0  0
   29.6271   23.7647    2.0295 C   0  0  0  0  0  0  0  0  0  0  0  0
   31.4259   24.6084    3.3567 C   0  0  2  0  0  0  0  0  0  0  0  0
   33.2711   24.4268    4.2297 C   0  0  0  0  0  0  0  0  0  0  0  0
  5  3  1  0
  8  1  1  0
  8  7  1  0
  2  9  1  6
 11  6  1  0
 12  1  1  0
 12  5  1  0
 15  2  1  0
 15  9  1  0
 15 14  1  1
 16 11  2  0
 17  4  1  0
 17  7  1  0
 17 13  1  1
 12 18  1  6
 19 11  1  0
 20  3  1  0
 21 10  1  0
 22  6  2  3
 22 10  1  0
  9 23  1  1
 23 22  1  1
  4 24  1  1
 24 23  1  0
 25  2  1  0
 25  4  1  6
 25 15  1  0
  7 26  1  1
M  END
>  <ID>  (1) 
conformer_0

$$$$
