
     RDKit          3D

 29 35  0  0  0  0  0  0  0  0999 V2000
   34.8212   23.2958    4.0379 C   0  0  0  0  0  0  0  0  0  0  0  0
   35.3238   24.5475    5.5319 C   0  0  0  0  0  0  0  0  0  0  0  0
   32.9211   21.6615    6.3617 C   0  0  0  0  0  0  0  0  0  0  0  0
   33.8754   23.1437    7.0325 C   0  0  0  0  0  0  0  0  0  0  0  0
   33.0478   24.6476    3.1732 C   0  0  0  0  0  0  0  0  0  0  0  0
   33.4409   24.0758    5.0748 C   0  0  0  0  0  0  0  0  0  0  0  0
   34.8011   25.0223    6.8304 C   0  0  0  0  0  0  0  0  0  0  0  0
   31.9761   24.3358    1.3235 C   0  0  0  0  0  0  0  0  0  0  0  0
   30.4707   23.1732    2.8300 C   0  0  0  0  0  0  0  0  0  0  0  0
   32.2104   21.8966    4.9904 C   0  0  0  0  0  0  0  0  0  0  0  0
   29.7319   22.7364    5.2320 O   0  0  0  0  0  0  0  0  0  0  0  0
   26.2778   27.7697    1.2208 O   0  0  0  0  0  0  0  0  0  0  0  0
   32.5640   26.6986    3.5566 O   0  0  0  0  0  0  0  0  0  0  0  0
   34.2879   24.0206    7.8522 C   0  0  0  0  0  0  0  0  0  0  0  0
   31.8300   26.0922    2.6690 C   0  0  0  0  0  0  0  0  0  0  0  0
   33.8506   24.5372    8.7790 O   0  0  0  0  0  0  0  0  0  0  0  0
   29.6568   25.4253    1.3447 C   0  0  0  0  0  0  0  0  0  0  0  0
   26.7899   28.2976    0.7285 C   0  0  0  0  0  0  0  0  0  0  0  0
   30.8786   22.4463    4.2487 C   0  0  0  0  0  0  0  0  0  0  0  0
   28.9889   27.1120    0.7571 C   0  0  0  0  0  0  0  0  0  0  0  0
   34.3643   22.6093    5.2707 C   0  0  0  0  0  0  0  0  0  0  0  0
   30.7093   24.7337    2.6693 C   0  0  0  0  0  0  0  0  0  0  0  0
   31.3036   26.0405    1.1337 C   0  0  0  0  0  0  0  0  0  0  0  0
   30.7127   26.9944   -0.0914 C   0  0  0  0  0  0  0  0  0  0  0  0
   29.2699   27.9138   -0.3708 C   0  0  0  0  0  0  0  0  0  0  0  0
   30.9842   27.4079    2.9523 O   0  0  0  0  0  0  0  0  0  0  0  0
   27.3339   28.7895   -0.0701 C   0  0  0  0  0  0  0  0  0  0  0  0
   28.9860   24.0102    1.9903 C   0  0  0  0  0  0  0  0  0  0  0  0
   32.1687   23.3451    3.6401 C   0  0  0  0  0  0  0  0  0  0  0  0
  4  3  1  0
  6  1  1  0
  7  2  1  0
 10  3  1  0
 14  4  1  0
 14  7  1  0
 15 13  1  0
 16 14  1  0
 18 12  1  0
 19  9  1  0
 19 10  1  0
 19 11  1  0
 20 17  1  0
 21  1  1  0
 21  4  1  0
 21  6  1  0
 22  8  1  0
 22  9  1  0
 22 15  1  0
 22 17  1  0
 23  8  1  0
 23 15  1  0
 23 17  1  0
 24 20  1  0
 24 23  1  0
 25 20  1  0
 25 24  1  0
 26 15  1  0
 27 18  1  0
 27 25  1  0
 28  9  1  0
 28 17  1  0
 29  5  1  0
 29  9  1  0
 29 19  1  0
M  END
>  <ID>  (1) 
conformer_0

$$$$
