
     RDKit          3D

 26 27  0  0  0  0  0  0  0  0999 V2000
   32.5503   24.5356    2.9113 C   0  0  1  0  0  0  0  0  0  0  0  0
   28.8511   27.2929    0.0057 C   0  0  0  0  0  0  0  0  0  0  0  0
   35.0662   24.6845    6.1424 C   0  0  0  0  0  0  0  0  0  0  0  0
   28.4756   28.5929   -0.0095 C   0  0  0  0  0  0  0  0  0  0  0  0
   31.2699   23.1758    3.6603 C   0  0  2  0  0  0  0  0  0  0  0  0
   34.1881   24.1182    3.9733 C   0  0  0  0  0  0  0  0  0  0  0  0
   32.8534   23.4668    4.6565 C   0  0  0  0  0  0  0  0  0  0  0  0
   30.9290   26.2229    0.9347 C   0  0  0  0  0  0  0  0  0  0  0  0
   30.0455   23.6132    2.5362 C   0  0  0  0  0  0  0  0  0  0  0  0
   29.0756   24.1703    1.6604 C   0  0  0  0  0  0  0  0  0  0  0  0
   29.7778   22.8892    5.4246 O   0  0  0  0  0  0  0  0  0  0  0  0
   35.1182   23.3338    4.8330 C   0  0  2  0  0  0  0  0  0  0  0  0
   31.9409   26.1893    3.2022 C   0  0  2  0  0  0  0  0  0  0  0  0
   30.4464   22.5941    4.3773 C   0  0  0  0  0  0  0  0  0  0  0  0
   33.9933   23.8517    7.4939 C   0  0  0  0  0  0  0  0  0  0  0  0
   31.7932   27.0321    3.9129 O   0  0  0  0  0  0  0  0  0  0  0  0
   33.3976   24.3001    8.0875 O   0  0  0  0  0  0  0  0  0  0  0  0
   26.8395   28.5758    0.3036 C   0  0  0  0  0  0  0  0  0  0  0  0
   34.2554   23.4153    6.2971 C   0  0  1  0  0  0  0  0  0  0  0  0
   32.3240   21.6448    5.5345 C   0  0  0  0  0  0  0  0  0  0  0  0
   33.3085   21.9504    6.1991 C   0  0  0  0  0  0  0  0  0  0  0  0
   30.7489   25.2801    2.9735 C   0  0  2  0  0  0  0  0  0  0  0  0
   31.6042   24.3689    1.3627 C   0  0  0  0  0  0  0  0  0  0  0  0
   26.1860   28.4868    0.4173 O   0  0  0  0  0  0  0  0  0  0  0  0
   29.5947   25.6307    1.2519 C   0  0  0  0  0  0  0  0  0  0  0  0
   30.3451   27.7622   -0.2248 C   0  0  0  0  0  0  0  0  0  0  0  0
  4  2  1  0
  5  7  1  1
  7  6  1  0
  9  5  1  0
 10  9  1  0
 12  3  1  0
 12  6  1  6
 13  1  1  0
 14  5  1  0
 14 11  1  0
 13 16  1  1
 17 15  1  0
 18  4  1  0
 19  3  1  0
 19 12  1  0
 19 15  1  1
 21 19  1  0
 21 20  2  3
 22  1  1  0
 22  9  1  6
 22 13  1  0
  1 23  1  6
 24 18  1  0
 25  8  1  0
 25 10  1  0
 26  2  1  0
 26  8  1  0
M  END
>  <ID>  (1) 
conformer_0

$$$$
