
     RDKit          3D

 27 29  0  0  0  0  0  0  0  0999 V2000
   31.1579   24.4628    1.3713 C   0  0  0  0  0  0  0  0  0  0  0  0
   31.2548   24.5197    2.8011 C   0  0  1  0  0  0  0  0  0  0  0  0
   29.0148   24.3681    1.5459 C   0  0  0  0  0  0  0  0  0  0  0  0
   29.7054   23.4926    2.4629 C   0  0  0  0  0  0  0  0  0  0  0  0
   34.2794   23.1813    7.0133 C   0  0  0  0  0  0  0  0  0  0  0  0
   31.2176   26.3083    0.7812 C   0  0  2  0  0  0  0  0  0  0  0  0
   34.5617   22.5634    5.6086 C   0  0  1  0  0  0  0  0  0  0  0  0
   30.4547   27.4896   -0.2929 C   0  0  0  0  0  0  0  0  0  0  0  0
   35.2140   24.6903    6.1404 C   0  0  0  0  0  0  0  0  0  0  0  0
   30.2910   22.8884    5.7771 O   0  0  0  0  0  0  0  0  0  0  0  0
   29.0744   27.3135   -0.2826 C   0  0  0  0  0  0  0  0  0  0  0  0
   33.3189   21.8118    6.6353 C   0  0  2  0  0  0  0  0  0  0  0  0
   31.0170   22.3980    4.4610 C   0  0  2  0  0  0  0  0  0  0  0  0
   26.2775   28.1845    1.6111 O   0  0  0  0  0  0  0  0  0  0  0  0
   32.6817   26.6963    2.8242 O   0  0  0  0  0  0  0  0  0  0  0  0
   26.6432   28.6698    0.8135 C   0  0  0  0  0  0  0  0  0  0  0  0
   34.8087   24.2750    7.8134 C   0  0  1  0  0  0  0  0  0  0  0  0
   32.3334   25.8326    2.2901 C   0  0  1  0  0  0  0  0  0  0  0  0
   25.9397   29.3067    0.0273 O   0  0  0  0  0  0  0  0  0  0  0  0
   34.5377   24.5116    8.7802 O   0  0  0  0  0  0  0  0  0  0  0  0
   28.3038   28.2207    0.3895 C   0  0  0  0  0  0  0  0  0  0  0  0
   29.5341   25.6796    0.8301 C   0  0  0  0  0  0  0  0  0  0  0  0
   34.4376   23.3457    4.1553 C   0  0  0  0  0  0  0  0  0  0  0  0
   33.3370   23.7844    4.6098 C   0  0  0  0  0  0  0  0  0  0  0  0
   33.0077   24.2851    2.6114 C   0  0  0  0  0  0  0  0  0  0  0  0
   32.5299   21.8122    5.3234 C   0  0  0  0  0  0  0  0  0  0  0  0
   31.7118   23.0748    3.6245 C   0  0  0  0  0  0  0  0  0  0  0  0
  2  1  1  0
  4  3  1  0
  6  1  1  0
  7  5  1  0
  6  8  1  1
 11  8  1  0
 12  5  1  0
 12  7  1  0
 13 10  1  1
 16 14  2  0
 17  5  1  0
 17  9  1  6
 18  2  1  0
 18  6  1  0
 18 15  1  1
 19 16  1  0
 20 17  1  0
 21 11  2  3
 21 16  1  0
 22  3  2  3
 22  6  1  0
  7 23  1  6
 24 23  1  0
 25  2  1  0
 25 18  1  0
 12 26  1  6
 26 13  1  0
  2 27  1  1
 27 13  1  0
M  END
>  <ID>  (1) 
conformer_0

$$$$
