
     RDKit          3D

 30 32  0  0  0  0  0  0  0  0999 V2000
   28.9463   26.0886    1.6707 C   0  0  0  0  0  0  0  0  0  0  0  0
   29.3265   26.4434    0.3939 C   0  0  0  0  0  0  0  0  0  0  0  0
   29.0375   23.9758    1.8744 C   0  0  0  0  0  0  0  0  0  0  0  0
   31.0259   26.2437    0.7242 C   0  0  0  0  0  0  0  0  0  0  0  0
   30.8244   25.0979    2.8879 C   0  0  0  0  0  0  0  0  0  0  0  0
   33.7801   23.5178    5.2771 C   0  0  0  0  0  0  0  0  0  0  0  0
   30.0514   27.6954   -0.5576 C   0  0  0  0  0  0  0  0  0  0  0  0
   32.0219   24.5524    1.4979 C   0  0  0  0  0  0  0  0  0  0  0  0
   33.9009   23.1017    7.7294 C   0  0  0  0  0  0  0  0  0  0  0  0
   28.4938   28.1373   -0.3285 C   0  0  0  0  0  0  0  0  0  0  0  0
   30.5252   23.0276    6.0595 O   0  0  0  0  0  0  0  0  0  0  0  0
   26.4869   28.4540    0.9317 C   0  0  0  0  0  0  0  0  0  0  0  0
   34.7637   22.1795    5.6252 C   0  0  0  0  0  0  0  0  0  0  0  0
   25.7087   28.0952    1.3120 O   0  0  0  0  0  0  0  0  0  0  0  0
   30.4587   23.0474    3.1887 C   0  0  0  0  0  0  0  0  0  0  0  0
   31.7733   26.6996    4.0581 O   0  0  0  0  0  0  0  0  0  0  0  0
   31.3756   22.5435    5.0695 C   0  0  0  0  0  0  0  0  0  0  0  0
   28.0444   27.9094    1.3804 C   0  0  0  0  0  0  0  0  0  0  0  0
   34.5197   23.0925    7.7047 C   0  0  0  0  0  0  0  0  0  0  0  0
   26.3007   29.0129    0.1042 O   0  0  0  0  0  0  0  0  0  0  0  0
   31.9768   25.6381    3.2750 C   0  0  0  0  0  0  0  0  0  0  0  0
   34.9506   23.3938    4.1622 C   0  0  0  0  0  0  0  0  0  0  0  0
   35.1497   24.5946    5.7114 C   0  0  0  0  0  0  0  0  0  0  0  0
   35.8285   22.6853    8.1922 O   0  0  0  0  0  0  0  0  0  0  0  0
   34.7699   24.8319    7.2101 C   0  0  0  0  0  0  0  0  0  0  0  0
   33.3574   24.5015    3.5525 C   0  0  0  0  0  0  0  0  0  0  0  0
   30.1253   24.3001    1.3082 C   0  0  0  0  0  0  0  0  0  0  0  0
   31.8613   23.6211    3.6888 C   0  0  0  0  0  0  0  0  0  0  0  0
   33.4283   21.6077    6.7560 C   0  0  0  0  0  0  0  0  0  0  0  0
   32.5313   22.1249    5.0232 C   0  0  0  0  0  0  0  0  0  0  0  0
  2  1  1  0
  4  2  1  0
  7  2  1  0
  8  4  1  0
  8  5  1  0
 10  7  1  0
 13  6  1  0
 14 12  2  0
 17 11  1  0
 18 10  1  0
 18 12  1  0
 19  9  1  0
 20 12  1  0
 21  5  1  0
 21 16  1  0
 22  6  1  0
 22 13  1  0
 23  6  1  0
 24 19  1  0
 25 19  1  0
 25 23  1  0
 26 21  1  0
 27  3  1  0
 27  5  1  0
 27  8  1  0
 28 15  1  0
 28 17  1  0
 28 26  1  0
 29  9  1  0
 29 13  1  0
 30  6  1  0
 30 17  1  0
M  END
>  <ID>  (1) 
conformer_0

$$$$
