
     RDKit          3D

 20 22  0  0  0  0  0  0  0  0999 V2000
  -28.1067   31.0976  -44.0127 O   0  0  0  0  0  0  0  0  0  0  0  0
  -23.6681   35.0088  -45.5882 C   0  0  0  0  0  0  0  0  0  0  0  0
  -27.5363   35.4079  -44.3246 C   0  0  0  0  0  0  0  0  0  0  0  0
  -22.1221   37.5972  -49.2231 O   0  0  0  0  0  0  0  0  0  0  0  0
  -24.6651   33.0037  -44.3791 C   0  0  0  0  0  0  0  0  0  0  0  0
  -25.0339   36.7822  -46.4116 C   0  0  0  0  0  0  0  0  0  0  0  0
  -22.8578   36.2597  -47.3817 C   0  0  0  0  0  0  0  0  0  0  0  0
  -27.0199   33.0470  -44.2612 N   0  0  0  0  0  0  0  0  0  0  0  0
  -28.0793   34.0543  -43.8230 C   0  0  0  0  0  0  0  0  0  0  0  0
  -24.8989   35.6781  -45.5621 C   0  0  0  0  0  0  0  0  0  0  0  0
  -21.8233   36.5008  -48.4557 C   0  0  0  0  0  0  0  0  0  0  0  0
  -22.4724   31.8942  -44.4763 C   0  0  0  0  0  0  0  0  0  0  0  0
  -24.5477   30.8590  -43.5609 C   0  0  0  0  0  0  0  0  0  0  0  0
  -22.6711   35.2774  -46.4477 C   0  0  0  0  0  0  0  0  0  0  0  0
  -25.9025   30.8420  -43.5372 N   0  0  0  0  0  0  0  0  0  0  0  0
  -23.8939   31.9237  -44.1277 C   0  0  0  0  0  0  0  0  0  0  0  0
  -24.0179   37.0387  -47.3226 C   0  0  0  0  0  0  0  0  0  0  0  0
  -25.8152   33.7651  -44.4313 C   0  0  0  0  0  0  0  0  0  0  0  0
  -26.0682   35.2214  -44.7035 C   0  0  0  0  0  0  0  0  0  0  0  0
  -26.8811   31.6751  -43.9518 C   0  0  0  0  0  0  0  0  0  0  0  0
  1 20  2  0
  2 10  2  0
  2 14  1  0
  3  9  1  0
  3 19  1  0
  4 11  1  0
  5 16  2  0
  5 18  2  0
  6 10  1  0
  6 17  2  0
  7 11  1  0
  7 14  2  0
  7 17  1  0
  8  9  1  0
  8 18  1  0
  8 20  1  0
 10 19  1  0
 12 16  1  0
 13 15  2  0
 13 16  1  0
 15 20  1  0
 18 19  1  0
M  END
>  <ID>  (1) 
conformer_0

$$$$
