
     RDKit          3D

 25 29  0  0  0  0  0  0  0  0999 V2000
  -27.9515   31.0166  -43.8770 C   0  0  0  0  0  0  0  0  0  0  0  0
  -25.2767   31.7481  -44.6953 C   0  0  0  0  0  0  0  0  0  0  0  0
  -21.7196   35.3901  -45.9322 C   0  0  0  0  0  0  0  0  0  0  0  0
  -25.8548   36.3988  -45.4501 C   0  0  0  0  0  0  0  0  0  0  0  0
  -23.7517   38.2648  -46.6188 F   0  0  0  0  0  0  0  0  0  0  0  0
  -28.1543   35.6918  -44.7044 O   0  0  0  0  0  0  0  0  0  0  0  0
  -20.4675   35.0237  -46.0669 F   0  0  0  0  0  0  0  0  0  0  0  0
  -22.0990   36.5942  -46.4162 C   0  0  0  0  0  0  0  0  0  0  0  0
  -27.0129   33.3509  -43.9272 C   0  0  0  0  0  0  0  0  0  0  0  0
  -27.3945   35.2761  -42.3429 C   0  0  0  0  0  0  0  0  0  0  0  0
  -25.8996   35.4989  -44.1707 C   0  0  0  0  0  0  0  0  0  0  0  0
  -26.0595   29.1232  -42.6147 C   0  0  0  0  0  0  0  0  0  0  0  0
  -25.6551   31.4840  -43.2312 C   0  0  0  0  0  0  0  0  0  0  0  0
  -24.3539   36.2054  -45.6303 C   0  0  0  0  0  0  0  0  0  0  0  0
  -23.9164   35.0243  -45.1231 C   0  0  0  0  0  0  0  0  0  0  0  0
  -27.2307   34.8823  -43.8119 C   0  0  0  0  0  0  0  0  0  0  0  0
  -27.9386   32.4159  -44.4987 O   0  0  0  0  0  0  0  0  0  0  0  0
  -24.3598   31.2020  -42.4100 C   0  0  0  0  0  0  0  0  0  0  0  0
  -25.6903   33.2120  -44.9526 C   0  0  0  0  0  0  0  0  0  0  0  0
  -22.6312   34.5660  -45.2813 C   0  0  0  0  0  0  0  0  0  0  0  0
  -27.2874   36.0263  -46.0058 C   0  0  0  0  0  0  0  0  0  0  0  0
  -26.3936   32.7159  -42.6592 C   0  0  0  0  0  0  0  0  0  0  0  0
  -23.4334   37.0377  -46.2291 C   0  0  0  0  0  0  0  0  0  0  0  0
  -24.9731   34.3491  -44.4648 O   0  0  0  0  0  0  0  0  0  0  0  0
  -26.7449   30.3507  -43.2007 C   0  0  0  0  0  0  0  0  0  0  0  0
  1 17  1  0
  1 25  2  0
  2 13  1  0
  2 19  1  0
  3  7  1  0
  3  8  1  0
  3 20  2  0
  4 11  1  0
  4 14  1  0
  4 21  1  0
  5 23  1  0
  6 16  1  0
  6 21  1  0
  8 23  2  0
  9 16  1  0
  9 17  1  0
  9 19  1  0
  9 22  1  0
 10 16  1  0
 11 16  1  0
 12 25  1  0
 13 18  1  0
 13 22  1  0
 13 25  1  0
 14 15  2  0
 14 23  1  0
 15 20  1  0
 15 24  1  0
 19 24  1  0
M  END
>  <ID>  (1) 
conformer_0

$$$$
