
     RDKit          3D

 25 27  0  0  0  0  0  0  0  0999 V2000
  -21.5626   34.6482  -45.2645 C   0  0  0  0  0  0  0  0  0  0  0  0
  -26.2253   32.2122  -43.5630 C   0  0  0  0  0  0  0  0  0  0  0  0
  -27.2824   31.3570  -43.8933 C   0  0  0  0  0  0  0  0  0  0  0  0
  -27.1961   30.0358  -43.5052 C   0  0  0  0  0  0  0  0  0  0  0  0
  -20.6582   33.9783  -44.3980 C   0  0  0  0  0  0  0  0  0  0  0  0
  -25.0495   30.4708  -42.4717 C   0  0  0  0  0  0  0  0  0  0  0  0
  -28.8175   37.2147  -44.1115 O   0  0  0  0  0  0  0  0  0  0  0  0
  -27.7383   35.4321  -43.0069 C   0  0  0  0  0  0  0  0  0  0  0  0
  -26.3136   33.5996  -43.8899 C   0  0  0  0  0  0  0  0  0  0  0  0
  -22.9113   34.7424  -45.0667 C   0  0  0  0  0  0  0  0  0  0  0  0
  -26.9472   36.2251  -45.1868 C   0  0  0  0  0  0  0  0  0  0  0  0
  -21.6735   36.7998  -49.1805 N   0  0  0  0  0  0  0  0  0  0  0  0
  -22.5893   36.6868  -48.1482 C   0  0  0  0  0  0  0  0  0  0  0  0
  -27.0219   34.3644  -43.0340 C   0  0  0  0  0  0  0  0  0  0  0  0
  -22.4182   35.8571  -46.9644 C   0  0  0  0  0  0  0  0  0  0  0  0
  -25.7013   34.1086  -45.0147 C   0  0  0  0  0  0  0  0  0  0  0  0
  -23.5156   35.4413  -46.0752 N   0  0  0  0  0  0  0  0  0  0  0  0
  -24.8143   35.8730  -46.4315 C   0  0  0  0  0  0  0  0  0  0  0  0
  -27.8247   36.3055  -44.0883 C   0  0  0  0  0  0  0  0  0  0  0  0
  -26.0847   29.5870  -42.7933 C   0  0  0  0  0  0  0  0  0  0  0  0
  -26.5263   36.4449  -48.1585 C   0  0  0  0  0  0  0  0  0  0  0  0
  -25.9026   35.4053  -45.5000 C   0  0  0  0  0  0  0  0  0  0  0  0
  -25.1095   36.5955  -47.6792 C   0  0  0  0  0  0  0  0  0  0  0  0
  -21.2547   35.3235  -46.4529 C   0  0  0  0  0  0  0  0  0  0  0  0
  -25.1167   31.7774  -42.8577 C   0  0  0  0  0  0  0  0  0  0  0  0
  1  5  1  0
  1 10  1  0
  1 24  1  0
  2  3  1  0
  2  9  1  0
  2 25  1  0
  3  4  2  0
  4 20  1  0
  6 20  1  0
  6 25  2  0
  7 19  1  0
  8 14  2  0
  8 19  1  0
  9 14  1  0
  9 16  2  0
 10 17  1  0
 11 19  2  0
 11 22  1  0
 12 13  1  0
 13 15  1  0
 15 17  1  0
 15 24  1  0
 16 22  1  0
 17 18  1  0
 18 22  1  0
 18 23  1  0
 21 23  1  0
M  END
>  <ID>  (1) 
conformer_0

$$$$
