
     RDKit          3D

 29 33  0  0  0  0  0  0  0  0999 V2000
  -27.0290   34.5961  -44.1059 C   0  0  0  0  0  0  0  0  0  0  0  0
  -25.8335   29.8675  -42.7071 C   0  0  0  0  0  0  0  0  0  0  0  0
  -23.5230   36.1724  -45.8489 C   0  0  0  0  0  0  0  0  0  0  0  0
  -24.6542   31.7273  -43.6173 C   0  0  0  0  0  0  0  0  0  0  0  0
  -22.5514   36.6301  -47.9173 C   0  0  0  0  0  0  0  0  0  0  0  0
  -28.2204   36.6294  -44.7067 O   0  0  0  0  0  0  0  0  0  0  0  0
  -25.9456   36.2341  -45.5028 C   0  0  0  0  0  0  0  0  0  0  0  0
  -22.2430   35.5983  -45.8048 N   0  0  0  0  0  0  0  0  0  0  0  0
  -22.2454   31.6441  -44.1148 C   0  0  0  0  0  0  0  0  0  0  0  0
  -23.6175   37.0033  -46.9511 O   0  0  0  0  0  0  0  0  0  0  0  0
  -23.4916   32.3597  -44.0367 N   0  0  0  0  0  0  0  0  0  0  0  0
  -21.9514   30.6105  -45.0302 C   0  0  0  0  0  0  0  0  0  0  0  0
  -25.8652   32.4030  -43.8467 C   0  0  0  0  0  0  0  0  0  0  0  0
  -20.5906   30.1414  -44.8219 C   0  0  0  0  0  0  0  0  0  0  0  0
  -21.1118   31.9106  -43.3057 C   0  0  0  0  0  0  0  0  0  0  0  0
  -27.0523   31.6869  -43.6831 C   0  0  0  0  0  0  0  0  0  0  0  0
  -25.8787   33.7789  -44.2172 C   0  0  0  0  0  0  0  0  0  0  0  0
  -24.6435   34.3324  -44.6699 C   0  0  0  0  0  0  0  0  0  0  0  0
  -21.0583   35.0510  -45.0744 C   0  0  0  0  0  0  0  0  0  0  0  0
  -23.5273   33.6223  -44.4540 N   0  0  0  0  0  0  0  0  0  0  0  0
  -24.6590   30.4997  -42.9878 C   0  0  0  0  0  0  0  0  0  0  0  0
  -19.8782   29.0399  -45.4933 C   0  0  0  0  0  0  0  0  0  0  0  0
  -22.3999   37.2336  -49.2052 C   0  0  0  0  0  0  0  0  0  0  0  0
  -28.0731   34.3139  -43.0959 C   0  0  0  0  0  0  0  0  0  0  0  0
  -27.0773   35.8044  -44.8194 C   0  0  0  0  0  0  0  0  0  0  0  0
  -21.5493   35.9014  -47.0862 C   0  0  0  0  0  0  0  0  0  0  0  0
  -19.9929   30.9514  -43.7555 O   0  0  0  0  0  0  0  0  0  0  0  0
  -24.7142   35.6077  -45.3458 C   0  0  0  0  0  0  0  0  0  0  0  0
  -27.0473   30.4510  -43.1110 C   0  0  0  0  0  0  0  0  0  0  0  0
  1 17  1  0
  1 24  1  0
  1 25  2  0
  2 21  2  0
  2 29  1  0
  3  8  1  0
  3 10  1  0
  3 28  1  0
  4 11  1  0
  4 13  2  0
  4 21  1  0
  5 10  1  0
  5 23  1  0
  5 26  1  0
  6 25  1  0
  7 25  1  0
  7 28  2  0
  8 19  1  0
  8 26  1  0
  9 11  1  0
  9 12  1  0
  9 15  1  0
 11 20  1  0
 12 14  1  0
 13 16  1  0
 13 17  1  0
 14 22  1  0
 14 27  1  0
 15 27  1  0
 16 29  2  0
 17 18  1  0
 18 20  2  0
 18 28  1  0
M  END
>  <ID>  (1) 
conformer_0

$$$$
