
     RDKit          3D

 31 32  0  0  0  0  0  0  0  0999 V2000
  -25.8627   34.7532  -45.2672 C   0  0  0  0  0  0  0  0  0  0  0  0
  -24.8120   29.9369  -43.3200 C   0  0  0  0  0  0  0  0  0  0  0  0
  -27.2296   30.6640  -43.0644 C   0  0  0  0  0  0  0  0  0  0  0  0
  -24.7824   35.6620  -45.3031 N   0  0  0  0  0  0  0  0  0  0  0  0
  -23.0825   37.5133  -49.4020 C   0  0  0  0  0  0  0  0  0  0  0  0
  -25.0741   37.0353  -45.2276 N   0  0  0  0  0  0  0  0  0  0  0  0
  -22.4220   30.4311  -43.5522 C   0  0  0  0  0  0  0  0  0  0  0  0
  -27.0298   34.9548  -42.7550 C   0  0  0  0  0  0  0  0  0  0  0  0
  -22.0294   34.5632  -45.1776 C   0  0  0  0  0  0  0  0  0  0  0  0
  -27.1300   32.6080  -44.6732 N   0  0  0  0  0  0  0  0  0  0  0  0
  -22.5259   33.3825  -44.6100 N   0  0  0  0  0  0  0  0  0  0  0  0
  -27.6697   32.1085  -43.3640 C   0  0  0  0  0  0  0  0  0  0  0  0
  -23.9227   37.7481  -48.3366 C   0  0  0  0  0  0  0  0  0  0  0  0
  -24.1629   37.8128  -45.9294 C   0  0  0  0  0  0  0  0  0  0  0  0
  -26.5628   36.1878  -42.2228 O   0  0  0  0  0  0  0  0  0  0  0  0
  -23.6334   37.1871  -47.1314 C   0  0  0  0  0  0  0  0  0  0  0  0
  -22.6997   36.1350  -47.0537 C   0  0  0  0  0  0  0  0  0  0  0  0
  -21.2485   29.9754  -43.5174 C   0  0  0  0  0  0  0  0  0  0  0  0
  -25.8607   33.3028  -44.8587 C   0  0  0  0  0  0  0  0  0  0  0  0
  -21.7086   32.4069  -44.2507 C   0  0  0  0  0  0  0  0  0  0  0  0
  -25.8494   30.6271  -42.4296 C   0  0  0  0  0  0  0  0  0  0  0  0
  -27.4270   29.9421  -44.2424 O   0  0  0  0  0  0  0  0  0  0  0  0
  -20.6376   34.9917  -44.7435 C   0  0  0  0  0  0  0  0  0  0  0  0
  -21.7632   35.9777  -48.0703 C   0  0  0  0  0  0  0  0  0  0  0  0
  -23.6056   30.5719  -43.3986 O   0  0  0  0  0  0  0  0  0  0  0  0
  -22.6740   35.2910  -46.0351 N   0  0  0  0  0  0  0  0  0  0  0  0
  -20.5140   32.0330  -44.1926 C   0  0  0  0  0  0  0  0  0  0  0  0
  -27.9664   35.0089  -43.9407 C   0  0  0  0  0  0  0  0  0  0  0  0
  -20.1233   30.7785  -43.8688 C   0  0  0  0  0  0  0  0  0  0  0  0
  -27.2886   35.2590  -45.3065 C   0  0  0  0  0  0  0  0  0  0  0  0
  -21.9835   36.6770  -49.2590 C   0  0  0  0  0  0  0  0  0  0  0  0
  1  4  1  0
  1 19  2  0
  1 30  1  0
  2 21  1  0
  2 25  1  0
  3 12  1  0
  3 21  1  0
  3 22  1  0
  4  6  1  0
  5 13  2  0
  5 31  1  0
  6 14  1  0
  7 18  1  0
  7 25  1  0
  8 15  1  0
  8 28  1  0
  9 11  2  0
  9 23  1  0
  9 26  1  0
 10 12  1  0
 10 19  1  0
 11 20  1  0
 13 16  1  0
 14 16  1  0
 16 17  1  0
 17 24  2  0
 17 26  1  0
 18 29  1  0
 20 27  2  0
 24 31  1  0
 27 29  1  0
 28 30  1  0
M  END
>  <ID>  (1) 
conformer_0

$$$$
