
     RDKit          3D

 18 18  0  0  0  0  0  0  0  0999 V2000
  -22.7553   34.4664  -45.0618 C   0  0  0  0  0  0  0  0  0  0  0  0
  -27.8593   34.9013  -43.9982 C   0  0  0  0  0  0  0  0  0  0  0  0
  -21.3075   34.2176  -45.0468 C   0  0  0  0  0  0  0  0  0  0  0  0
  -25.2653   34.5360  -44.4962 N   0  0  0  0  0  0  0  0  0  0  0  0
  -20.4580   35.0573  -45.0590 O   0  0  0  0  0  0  0  0  0  0  0  0
  -25.9573   35.2348  -45.6513 C   0  0  0  0  0  0  0  0  0  0  0  0
  -23.3053   35.3607  -46.1157 C   0  0  0  0  0  0  0  0  0  0  0  0
  -22.3318   32.2648  -44.4915 C   0  0  0  0  0  0  0  0  0  0  0  0
  -21.1060   32.8821  -44.8187 N   0  0  0  0  0  0  0  0  0  0  0  0
  -23.3231   33.2302  -44.4510 C   0  0  0  0  0  0  0  0  0  0  0  0
  -27.3683   35.9416  -43.2999 O   0  0  0  0  0  0  0  0  0  0  0  0
  -22.4510   36.4245  -46.6679 C   0  0  0  0  0  0  0  0  0  0  0  0
  -22.5457   31.0754  -44.6097 O   0  0  0  0  0  0  0  0  0  0  0  0
  -26.3485   32.2929  -44.5051 C   0  0  0  0  0  0  0  0  0  0  0  0
  -27.0637   30.9378  -44.1448 C   0  0  0  0  0  0  0  0  0  0  0  0
  -27.4522   33.4114  -43.9973 C   0  0  0  0  0  0  0  0  0  0  0  0
  -24.8514   33.0683  -44.3588 C   0  0  0  0  0  0  0  0  0  0  0  0
  -27.0102   36.1772  -46.1502 C   0  0  0  0  0  0  0  0  0  0  0  0
  1  3  1  0
  1  7  1  0
  1 10  1  0
  2 11  1  0
  2 16  1  0
  3  5  2  0
  3  9  1  0
  4  6  1  0
  4 17  1  0
  6 18  1  0
  7 12  1  0
  8  9  1  0
  8 10  1  0
  8 13  2  0
 10 17  1  0
 14 15  1  0
 14 16  1  0
 14 17  1  0
M  END
>  <ID>  (1) 
conformer_0

$$$$
