
     RDKit          3D

 22 23  0  0  0  0  0  0  0  0999 V2000
  -20.6064   34.9368  -44.7874 Cl  0  0  0  0  0  0  0  0  0  0  0  0
  -24.4003   32.2661  -42.6362 C   0  0  0  0  0  0  0  0  0  0  0  0
  -22.7492   36.8303  -45.9749 C   0  0  0  0  0  0  0  0  0  0  0  0
  -26.6252   34.8420  -44.0957 C   0  0  0  0  0  0  0  0  0  0  0  0
  -26.5210   33.4491  -43.7311 O   0  0  0  0  0  0  0  0  0  0  0  0
  -22.6438   36.3216  -47.4673 C   0  0  0  0  0  0  0  0  0  0  0  0
  -27.9377   31.1749  -43.6760 C   0  0  0  0  0  0  0  0  0  0  0  0
  -21.3365   33.5145  -44.5250 C   0  0  0  0  0  0  0  0  0  0  0  0
  -23.8238   36.7569  -48.2616 C   0  0  0  0  0  0  0  0  0  0  0  0
  -26.4781   30.9803  -43.3340 C   0  0  0  0  0  0  0  0  0  0  0  0
  -26.8264   35.7078  -43.0453 O   0  0  0  0  0  0  0  0  0  0  0  0
  -25.5195   35.8438  -46.4337 C   0  0  0  0  0  0  0  0  0  0  0  0
  -27.0302   36.1133  -46.2216 C   0  0  0  0  0  0  0  0  0  0  0  0
  -21.6579   31.1880  -45.0551 C   0  0  0  0  0  0  0  0  0  0  0  0
  -25.0665   35.1781  -44.9051 S   0  0  0  0  0  0  0  0  0  0  0  0
  -22.7634   31.1280  -44.2265 C   0  0  0  0  0  0  0  0  0  0  0  0
  -25.8383   32.3483  -42.9719 C   0  0  0  0  0  0  0  0  0  0  0  0
  -22.3993   33.4244  -43.6262 C   0  0  0  0  0  0  0  0  0  0  0  0
  -23.1820   32.2801  -43.5106 C   0  0  0  0  0  0  0  0  0  0  0  0
  -20.9275   32.4027  -45.2238 C   0  0  0  0  0  0  0  0  0  0  0  0
  -27.6610   35.1990  -45.2190 C   0  0  0  0  0  0  0  0  0  0  0  0
  -25.1001   36.6723  -47.6344 C   0  0  0  0  0  0  0  0  0  0  0  0
  1  8  1  0
  2 17  1  0
  2 19  1  0
  3  6  1  0
  4  5  1  0
  4 11  1  0
  4 15  1  0
  4 21  1  0
  5 17  1  0
  6  9  1  0
  7 10  1  0
  8 18  2  0
  8 20  1  0
  9 22  1  0
 10 17  1  0
 12 13  1  0
 12 15  1  0
 12 22  1  0
 13 21  1  0
 14 16  1  0
 14 20  2  0
 16 19  2  0
 18 19  1  0
M  END
>  <ID>  (1) 
conformer_0

$$$$
