
     RDKit          3D

 30 33  0  0  0  0  0  0  0  0999 V2000
  -22.9040   33.4024  -44.3041 C   0  0  0  0  0  0  0  0  0  0  0  0
  -23.6869   31.0675  -43.5207 C   0  0  0  0  0  0  0  0  0  0  0  0
  -27.9957   34.2058  -45.2023 N   0  0  0  0  0  0  0  0  0  0  0  0
  -25.1841   32.9822  -43.1893 C   0  0  0  0  0  0  0  0  0  0  0  0
  -23.8513   36.2997  -47.1843 C   0  0  0  0  0  0  0  0  0  0  0  0
  -21.9772   34.2172  -44.9162 C   0  0  0  0  0  0  0  0  0  0  0  0
  -21.0894   30.3915  -43.5757 O   0  0  0  0  0  0  0  0  0  0  0  0
  -27.2178   33.1729  -44.2989 C   0  0  0  0  0  0  0  0  0  0  0  0
  -22.4349   37.1213  -49.0918 C   0  0  0  0  0  0  0  0  0  0  0  0
  -26.5810   35.6616  -42.0113 O   0  0  0  0  0  0  0  0  0  0  0  0
  -21.3886   36.9881  -49.7998 O   0  0  0  0  0  0  0  0  0  0  0  0
  -22.5234   36.4157  -47.8449 C   0  0  0  0  0  0  0  0  0  0  0  0
  -23.6520   35.6544  -46.0247 C   0  0  0  0  0  0  0  0  0  0  0  0
  -26.1948   33.7962  -43.5161 C   0  0  0  0  0  0  0  0  0  0  0  0
  -26.1450   36.7119  -45.4710 C   0  0  0  0  0  0  0  0  0  0  0  0
  -26.3277   36.3234  -46.9773 C   0  0  0  0  0  0  0  0  0  0  0  0
  -27.1501   35.8721  -44.5837 C   0  0  0  0  0  0  0  0  0  0  0  0
  -20.6538   33.8311  -44.6701 C   0  0  0  0  0  0  0  0  0  0  0  0
  -25.1042   36.5948  -47.7044 N   0  0  0  0  0  0  0  0  0  0  0  0
  -22.3535   35.2205  -45.8607 C   0  0  0  0  0  0  0  0  0  0  0  0
  -27.3019   31.7964  -44.3383 N   0  0  0  0  0  0  0  0  0  0  0  0
  -23.4239   37.7389  -49.5460 O   0  0  0  0  0  0  0  0  0  0  0  0
  -21.3335   31.6832  -43.8529 C   0  0  0  0  0  0  0  0  0  0  0  0
  -25.0127   31.6679  -43.5228 C   0  0  0  0  0  0  0  0  0  0  0  0
  -21.6471   35.7755  -46.9867 C   0  0  0  0  0  0  0  0  0  0  0  0
  -20.3377   32.6185  -44.1620 C   0  0  0  0  0  0  0  0  0  0  0  0
  -28.2836   36.6708  -44.3143 O   0  0  0  0  0  0  0  0  0  0  0  0
  -22.6850   32.1211  -43.8594 C   0  0  0  0  0  0  0  0  0  0  0  0
  -26.2972   35.3111  -43.3784 C   0  0  0  0  0  0  0  0  0  0  0  0
  -26.1863   30.9965  -43.8971 C   0  0  0  0  0  0  0  0  0  0  0  0
  1  6  1  0
  1 28  2  0
  2 24  1  0
  2 28  1  0
  3  8  2  0
  4 14  2  0
  4 24  1  0
  5 12  1  0
  5 13  1  0
  5 19  2  0
  6 18  1  0
  6 20  1  0
  7 23  1  0
  8 14  1  0
  8 21  1  0
  9 11  2  0
  9 12  1  0
  9 22  1  0
 10 29  1  0
 12 25  1  0
 13 20  1  0
 14 29  1  0
 15 16  1  0
 15 17  1  0
 16 19  1  0
 17 27  1  0
 17 29  1  0
 18 26  1  0
 20 25  1  0
 21 30  2  0
 23 26  2  0
 23 28  1  0
 24 30  1  0
M  END
>  <ID>  (1) 
conformer_0

$$$$
