
     RDKit          3D

 35 40  0  0  0  0  0  0  0  0999 V2000
  -21.7458   36.8148  -49.3284 C   0  0  0  0  0  0  0  0  0  0  0  0
  -22.5817   35.4203  -45.9487 C   0  0  0  0  0  0  0  0  0  0  0  0
  -25.1129   31.2001  -43.4304 C   0  0  0  0  0  0  0  0  0  0  0  0
  -20.5414   30.0441  -45.2553 C   0  0  0  0  0  0  0  0  0  0  0  0
  -27.3697   33.7267  -43.3213 C   0  0  0  0  0  0  0  0  0  0  0  0
  -25.9791   33.1115  -42.8991 C   0  0  0  0  0  0  0  0  0  0  0  0
  -23.8250   37.6471  -50.2615 N   0  0  0  0  0  0  0  0  0  0  0  0
  -21.8483   34.4605  -45.0603 C   0  0  0  0  0  0  0  0  0  0  0  0
  -27.9319   30.0039  -43.6679 C   0  0  0  0  0  0  0  0  0  0  0  0
  -19.9903   29.7542  -44.0183 C   0  0  0  0  0  0  0  0  0  0  0  0
  -20.6643   34.7452  -44.7341 O   0  0  0  0  0  0  0  0  0  0  0  0
  -24.4247   36.8837  -46.7488 O   0  0  0  0  0  0  0  0  0  0  0  0
  -20.2331   30.6123  -42.9418 C   0  0  0  0  0  0  0  0  0  0  0  0
  -27.6980   36.1297  -46.2541 C   0  0  0  0  0  0  0  0  0  0  0  0
  -25.4950   35.0929  -45.9673 C   0  0  0  0  0  0  0  0  0  0  0  0
  -27.0179   36.1280  -42.7716 C   0  0  0  0  0  0  0  0  0  0  0  0
  -27.1023   35.1208  -43.9585 C   0  0  0  0  0  0  0  0  0  0  0  0
  -20.9503   31.7677  -43.1769 C   0  0  0  0  0  0  0  0  0  0  0  0
  -25.7665   34.9680  -44.5484 C   0  0  0  0  0  0  0  0  0  0  0  0
  -22.4575   36.6286  -48.1202 C   0  0  0  0  0  0  0  0  0  0  0  0
  -21.8242   36.0725  -46.9593 C   0  0  0  0  0  0  0  0  0  0  0  0
  -24.0197   35.6387  -46.0775 C   0  0  0  0  0  0  0  0  0  0  0  0
  -24.7317   32.6695  -43.7991 C   0  0  0  0  0  0  0  0  0  0  0  0
  -21.2155   31.2586  -45.4995 C   0  0  0  0  0  0  0  0  0  0  0  0
  -21.4996   32.1093  -44.4199 C   0  0  0  0  0  0  0  0  0  0  0  0
  -23.3922   33.2170  -43.5429 C   0  0  0  0  0  0  0  0  0  0  0  0
  -22.4776   37.3327  -50.3828 C   0  0  0  0  0  0  0  0  0  0  0  0
  -24.4857   37.5069  -49.0802 C   0  0  0  0  0  0  0  0  0  0  0  0
  -27.6878   31.1611  -42.7770 C   0  0  0  0  0  0  0  0  0  0  0  0
  -26.2564   31.6326  -42.8878 N   0  0  0  0  0  0  0  0  0  0  0  0
  -28.2012   35.4760  -44.9736 C   0  0  0  0  0  0  0  0  0  0  0  0
  -26.1760   36.5126  -46.3291 C   0  0  0  0  0  0  0  0  0  0  0  0
  -24.5142   30.2527  -43.1888 O   0  0  0  0  0  0  0  0  0  0  0  0
  -23.7915   37.0040  -48.0005 C   0  0  0  0  0  0  0  0  0  0  0  0
  -22.3177   33.2413  -44.5516 N   0  0  0  0  0  0  0  0  0  0  0  0
  1 20  2  0
  1 27  1  0
  2  8  1  0
  2 21  1  0
  2 22  1  0
  3 23  1  0
  3 30  1  0
  3 33  2  0
  4 10  2  0
  4 24  1  0
  5  6  1  0
  5 17  1  0
  6 23  1  0
  6 30  1  0
  7 27  2  0
  7 28  1  0
  8 11  2  0
  8 35  1  0
  9 29  1  0
 10 13  1  0
 12 22  1  0
 12 34  1  0
 13 18  2  0
 14 31  1  0
 14 32  1  0
 15 19  1  0
 15 22  1  0
 15 32  1  0
 16 17  1  0
 17 19  1  0
 17 31  1  0
 18 25  1  0
 20 21  1  0
 20 34  1  0
 23 26  1  0
 24 25  2  0
 25 35  1  0
 26 35  1  0
 28 34  2  0
 29 30  1  0
M  END
>  <ID>  (1) 
conformer_0

$$$$
