
     RDKit          3D

 28 31  0  0  0  0  0  0  0  0999 V2000
  -23.7190   35.5204  -45.3029 C   0  0  0  0  0  0  0  0  0  0  0  0
  -23.0425   34.4078  -44.7158 C   0  0  0  0  0  0  0  0  0  0  0  0
  -27.5567   35.7803  -43.0718 O   0  0  0  0  0  0  0  0  0  0  0  0
  -21.8394   36.2009  -48.3566 C   0  0  0  0  0  0  0  0  0  0  0  0
  -26.9083   32.2302  -43.7850 C   0  0  0  0  0  0  0  0  0  0  0  0
  -22.3039   31.7924  -44.4486 C   0  0  0  0  0  0  0  0  0  0  0  0
  -25.1053   35.4006  -44.9448 C   0  0  0  0  0  0  0  0  0  0  0  0
  -23.5383   32.2174  -43.8634 C   0  0  0  0  0  0  0  0  0  0  0  0
  -21.0740   29.9209  -45.6898 C   0  0  0  0  0  0  0  0  0  0  0  0
  -21.1230   32.7860  -44.4740 C   0  0  0  0  0  0  0  0  0  0  0  0
  -27.8020   34.4976  -43.5973 C   0  0  0  0  0  0  0  0  0  0  0  0
  -26.6444   33.6859  -43.7876 N   0  0  0  0  0  0  0  0  0  0  0  0
  -21.6312   34.1484  -44.5962 C   0  0  0  0  0  0  0  0  0  0  0  0
  -26.7791   30.6548  -43.5817 C   0  0  0  0  0  0  0  0  0  0  0  0
  -22.1085   35.7320  -47.1339 C   0  0  0  0  0  0  0  0  0  0  0  0
  -26.0144   36.2733  -45.3755 O   0  0  0  0  0  0  0  0  0  0  0  0
  -25.8020   31.4166  -44.3767 C   0  0  0  0  0  0  0  0  0  0  0  0
  -22.6085   37.5083  -50.1244 N   0  0  0  0  0  0  0  0  0  0  0  0
  -23.3507   38.0374  -47.8912 C   0  0  0  0  0  0  0  0  0  0  0  0
  -19.9351   30.7726  -45.4148 O   0  0  0  0  0  0  0  0  0  0  0  0
  -23.5898   37.5050  -46.6825 C   0  0  0  0  0  0  0  0  0  0  0  0
  -19.9873   31.6222  -44.2415 C   0  0  0  0  0  0  0  0  0  0  0  0
  -24.5293   31.2523  -43.5285 C   0  0  0  0  0  0  0  0  0  0  0  0
  -23.1068   36.2722  -46.3451 C   0  0  0  0  0  0  0  0  0  0  0  0
  -24.0197   33.5205  -44.1956 C   0  0  0  0  0  0  0  0  0  0  0  0
  -22.6050   37.2779  -48.8028 C   0  0  0  0  0  0  0  0  0  0  0  0
  -28.2882   32.1413  -44.1481 O   0  0  0  0  0  0  0  0  0  0  0  0
  -25.3577   34.1704  -44.2413 C   0  0  0  0  0  0  0  0  0  0  0  0
  1  2  1  0
  1  7  1  0
  1 24  1  0
  2 13  1  0
  2 25  1  0
  3 11  1  0
  4 15  2  0
  4 26  1  0
  5 12  1  0
  5 17  1  0
  5 27  1  0
  6  8  1  0
  6 10  1  0
  7 16  1  0
  7 28  2  0
  8 23  1  0
  8 25  1  0
  9 20  1  0
 10 13  2  0
 10 22  1  0
 11 12  1  0
 12 28  1  0
 14 17  1  0
 15 24  1  0
 17 23  1  0
 18 26  1  0
 19 21  2  0
 19 26  1  0
 20 22  1  0
 21 24  1  0
 25 28  1  0
M  END
>  <ID>  (1) 
conformer_0

$$$$
