
     RDKit          3D

 31 34  0  0  0  0  0  0  0  0999 V2000
  -23.1042   31.6195  -44.2774 O   0  0  0  0  0  0  0  0  0  0  0  0
  -24.4337   36.7402  -48.2879 C   0  0  0  0  0  0  0  0  0  0  0  0
  -21.9439   36.6794  -48.2284 C   0  0  0  0  0  0  0  0  0  0  0  0
  -27.3612   30.1089  -42.6719 C   0  0  0  0  0  0  0  0  0  0  0  0
  -25.0904   29.4123  -42.2828 C   0  0  0  0  0  0  0  0  0  0  0  0
  -24.5833   36.4402  -45.3545 C   0  0  0  0  0  0  0  0  0  0  0  0
  -21.2543   35.1166  -45.3159 C   0  0  0  0  0  0  0  0  0  0  0  0
  -23.2267   33.9297  -44.8904 C   0  0  0  0  0  0  0  0  0  0  0  0
  -26.4542   29.2302  -42.1480 C   0  0  0  0  0  0  0  0  0  0  0  0
  -20.4893   31.7323  -43.7790 C   0  0  0  0  0  0  0  0  0  0  0  0
  -23.2047   36.3806  -47.4547 C   0  0  0  0  0  0  0  0  0  0  0  0
  -23.3752   36.1119  -46.0583 C   0  0  0  0  0  0  0  0  0  0  0  0
  -25.5023   32.8958  -43.9827 C   0  0  0  0  0  0  0  0  0  0  0  0
  -27.0662   34.6047  -43.1508 C   0  0  0  0  0  0  0  0  0  0  0  0
  -25.6230   31.5462  -43.4262 C   0  0  0  0  0  0  0  0  0  0  0  0
  -21.1777   32.9279  -44.3182 C   0  0  0  0  0  0  0  0  0  0  0  0
  -26.6624   35.9845  -43.8572 C   0  0  0  0  0  0  0  0  0  0  0  0
  -26.8593   33.4775  -44.2168 C   0  0  0  0  0  0  0  0  0  0  0  0
  -27.7852   32.2795  -44.0080 C   0  0  0  0  0  0  0  0  0  0  0  0
  -20.3302   30.6983  -44.8936 C   0  0  0  0  0  0  0  0  0  0  0  0
  -24.6892   30.5488  -42.9119 C   0  0  0  0  0  0  0  0  0  0  0  0
  -25.3411   35.6846  -44.4294 O   0  0  0  0  0  0  0  0  0  0  0  0
  -28.7030   37.0619  -44.3008 O   0  0  0  0  0  0  0  0  0  0  0  0
  -22.5573   32.8724  -44.4611 C   0  0  0  0  0  0  0  0  0  0  0  0
  -23.2739   30.8230  -43.1321 C   0  0  0  0  0  0  0  0  0  0  0  0
  -26.9565   31.2352  -43.3229 C   0  0  0  0  0  0  0  0  0  0  0  0
  -20.5288   34.0724  -44.7848 C   0  0  0  0  0  0  0  0  0  0  0  0
  -22.2774   37.2612  -49.6154 C   0  0  0  0  0  0  0  0  0  0  0  0
  -27.5283   35.8672  -46.3026 C   0  0  0  0  0  0  0  0  0  0  0  0
  -22.6253   35.0216  -45.3998 C   0  0  0  0  0  0  0  0  0  0  0  0
  -27.7900   36.2694  -44.8898 C   0  0  0  0  0  0  0  0  0  0  0  0
  1 24  1  0
  1 25  1  0
  2 11  1  0
  3 11  1  0
  3 28  1  0
  4  9  1  0
  4 26  2  0
  5  9  1  0
  5 21  2  0
  6 12  1  0
  6 22  1  0
  7 27  1  0
  7 30  2  0
  8 24  2  0
  8 30  1  0
 10 16  1  0
 10 20  1  0
 11 12  1  0
 12 30  1  0
 13 15  1  0
 13 18  1  0
 14 17  1  0
 14 18  1  0
 15 21  1  0
 15 26  1  0
 16 24  1  0
 16 27  2  0
 17 22  1  0
 17 31  1  0
 18 19  1  0
 19 26  1  0
 21 25  1  0
 23 31  1  0
 29 31  1  0
M  END
>  <ID>  (1) 
conformer_0

$$$$
