
     RDKit          3D

 23 25  0  0  0  0  0  0  0  0999 V2000
  -26.9130   30.9554  -43.5990 C   0  0  0  0  0  0  0  0  0  0  0  0
  -26.7508   35.5389  -42.6882 O   0  0  0  0  0  0  0  0  0  0  0  0
  -26.5566   32.2848  -44.4697 C   0  0  0  0  0  0  0  0  0  0  0  0
  -27.5688   35.5588  -44.9785 C   0  0  0  0  0  0  0  0  0  0  0  0
  -23.1386   31.3115  -44.0236 C   0  0  0  0  0  0  0  0  0  0  0  0
  -27.6189   33.2633  -44.1114 N   0  0  0  0  0  0  0  0  0  0  0  0
  -25.5328   31.0126  -42.9156 C   0  0  0  0  0  0  0  0  0  0  0  0
  -20.8926   31.4054  -44.8764 C   0  0  0  0  0  0  0  0  0  0  0  0
  -24.4860   37.1116  -44.9694 O   0  0  0  0  0  0  0  0  0  0  0  0
  -24.1417   34.8343  -44.7780 N   0  0  0  0  0  0  0  0  0  0  0  0
  -21.9683   30.6933  -44.2809 C   0  0  0  0  0  0  0  0  0  0  0  0
  -27.4119   34.6780  -43.7360 C   0  0  0  0  0  0  0  0  0  0  0  0
  -21.3407   35.0868  -45.5043 C   0  0  0  0  0  0  0  0  0  0  0  0
  -21.9265   33.7251  -45.0989 C   0  0  0  0  0  0  0  0  0  0  0  0
  -23.3148   33.6972  -44.6568 C   0  0  0  0  0  0  0  0  0  0  0  0
  -25.2642   32.3778  -43.6203 C   0  0  0  0  0  0  0  0  0  0  0  0
  -23.8677   32.4521  -44.1098 C   0  0  0  0  0  0  0  0  0  0  0  0
  -26.3060   35.9178  -45.6243 O   0  0  0  0  0  0  0  0  0  0  0  0
  -23.3267   36.3730  -47.4362 C   0  0  0  0  0  0  0  0  0  0  0  0
  -22.0030   35.8960  -46.5549 C   0  0  0  0  0  0  0  0  0  0  0  0
  -24.8966   36.5635  -47.9614 C   0  0  0  0  0  0  0  0  0  0  0  0
  -21.0430   32.7244  -45.1845 C   0  0  0  0  0  0  0  0  0  0  0  0
  -24.9432   35.9492  -45.1361 C   0  0  0  0  0  0  0  0  0  0  0  0
  1  3  1  0
  1  7  1  0
  2 12  2  0
  3  6  1  0
  3 16  1  0
  4 12  1  0
  4 18  1  0
  5 11  1  0
  5 17  2  0
  6 12  1  0
  7 16  1  0
  8 11  2  0
  8 22  1  0
  9 23  2  0
 10 15  1  0
 10 23  1  0
 13 14  1  0
 13 20  1  0
 14 15  1  0
 14 22  2  0
 15 17  1  0
 16 17  1  0
 18 23  1  0
 19 20  1  0
 19 21  1  0
M  END
>  <ID>  (1) 
conformer_0

$$$$
