
     RDKit          3D

 28 31  0  0  0  0  0  0  0  0999 V2000
  -23.9046   36.3533  -46.2107 C   0  0  0  0  0  0  0  0  0  0  0  0
  -28.0357   33.0859  -43.4637 O   0  0  0  0  0  0  0  0  0  0  0  0
  -22.6101   36.8643  -49.6219 O   0  0  0  0  0  0  0  0  0  0  0  0
  -23.3443   37.4368  -45.5525 C   0  0  0  0  0  0  0  0  0  0  0  0
  -24.6413   35.3761  -45.4505 C   0  0  0  0  0  0  0  0  0  0  0  0
  -22.5923   34.1643  -44.8527 C   0  0  0  0  0  0  0  0  0  0  0  0
  -25.8817   33.2527  -44.2025 C   0  0  0  0  0  0  0  0  0  0  0  0
  -20.5630   30.2367  -43.3558 C   0  0  0  0  0  0  0  0  0  0  0  0
  -22.8177   36.9683  -48.2622 C   0  0  0  0  0  0  0  0  0  0  0  0
  -27.7707   34.3916  -43.8502 C   0  0  0  0  0  0  0  0  0  0  0  0
  -28.4237   35.3899  -43.5474 O   0  0  0  0  0  0  0  0  0  0  0  0
  -23.8900   34.3221  -44.8798 C   0  0  0  0  0  0  0  0  0  0  0  0
  -26.5604   30.8350  -43.4095 C   0  0  0  0  0  0  0  0  0  0  0  0
  -22.4488   38.2309  -46.2403 C   0  0  0  0  0  0  0  0  0  0  0  0
  -21.4207   31.3590  -43.7274 C   0  0  0  0  0  0  0  0  0  0  0  0
  -26.5435   34.4463  -44.5083 N   0  0  0  0  0  0  0  0  0  0  0  0
  -23.7696   32.1136  -43.8731 C   0  0  0  0  0  0  0  0  0  0  0  0
  -24.5138   33.1777  -44.3060 C   0  0  0  0  0  0  0  0  0  0  0  0
  -20.5837   34.7536  -45.0960 C   0  0  0  0  0  0  0  0  0  0  0  0
  -20.8614   32.5247  -44.2586 C   0  0  0  0  0  0  0  0  0  0  0  0
  -26.7154   32.3102  -43.7044 C   0  0  0  0  0  0  0  0  0  0  0  0
  -22.8236   31.2984  -43.5718 C   0  0  0  0  0  0  0  0  0  0  0  0
  -26.8202   36.0486  -46.4186 C   0  0  0  0  0  0  0  0  0  0  0  0
  -27.9842   30.3565  -43.4150 C   0  0  0  0  0  0  0  0  0  0  0  0
  -26.0281   35.3774  -45.3732 N   0  0  0  0  0  0  0  0  0  0  0  0
  -22.1526   37.9782  -47.5706 C   0  0  0  0  0  0  0  0  0  0  0  0
  -21.4291   33.6755  -44.6843 C   0  0  0  0  0  0  0  0  0  0  0  0
  -23.6910   36.1173  -47.5820 C   0  0  0  0  0  0  0  0  0  0  0  0
  1  4  2  0
  1  5  1  0
  1 28  1  0
  2 10  1  0
  2 21  1  0
  3  9  1  0
  4 14  1  0
  5 12  1  0
  5 25  1  0
  6 12  2  0
  6 27  2  0
  7 16  1  0
  7 18  1  0
  7 21  1  0
  8 15  1  0
  9 26  1  0
  9 28  2  0
 10 11  2  0
 10 16  1  0
 12 18  1  0
 13 21  1  0
 13 24  1  0
 14 26  2  0
 15 20  2  0
 15 22  1  0
 16 25  1  0
 17 18  2  0
 17 22  2  0
 19 27  1  0
 20 27  1  0
 23 25  1  0
M  END
>  <ID>  (1) 
conformer_0

$$$$
