
     RDKit          3D

 27 30  0  0  0  0  0  0  0  0999 V2000
  -22.3232   33.8077  -44.2723 C   0  0  0  0  0  0  0  0  0  0  0  0
  -26.2521   35.6804  -44.8940 C   0  0  0  0  0  0  0  0  0  0  0  0
  -23.6309   33.2052  -44.0904 N   0  0  0  0  0  0  0  0  0  0  0  0
  -21.1325   30.1475  -45.9886 C   0  0  0  0  0  0  0  0  0  0  0  0
  -24.7702   35.4192  -44.7158 C   0  0  0  0  0  0  0  0  0  0  0  0
  -21.4433   31.1083  -44.8869 C   0  0  0  0  0  0  0  0  0  0  0  0
  -24.7022   34.0761  -44.0683 C   0  0  0  0  0  0  0  0  0  0  0  0
  -24.7996   36.1674  -47.1396 C   0  0  0  0  0  0  0  0  0  0  0  0
  -26.6467   35.5591  -42.6191 O   0  0  0  0  0  0  0  0  0  0  0  0
  -22.3839   37.4716  -46.9220 C   0  0  0  0  0  0  0  0  0  0  0  0
  -22.7925   31.0401  -44.4297 N   0  0  0  0  0  0  0  0  0  0  0  0
  -27.9927   31.9011  -44.1924 O   0  0  0  0  0  0  0  0  0  0  0  0
  -19.2152   30.2401  -44.5416 C   0  0  0  0  0  0  0  0  0  0  0  0
  -24.1726   36.2001  -45.8766 C   0  0  0  0  0  0  0  0  0  0  0  0
  -28.4638   34.4851  -44.2259 C   0  0  0  0  0  0  0  0  0  0  0  0
  -24.6667   31.3067  -42.8711 C   0  0  0  0  0  0  0  0  0  0  0  0
  -23.0586   37.4033  -48.1465 C   0  0  0  0  0  0  0  0  0  0  0  0
  -26.0882   31.1019  -43.0483 C   0  0  0  0  0  0  0  0  0  0  0  0
  -27.2163   35.8904  -46.0517 C   0  0  0  0  0  0  0  0  0  0  0  0
  -26.0709   33.5118  -43.7859 C   0  0  0  0  0  0  0  0  0  0  0  0
  -20.3945   30.8236  -43.8394 C   0  0  0  0  0  0  0  0  0  0  0  0
  -26.9680   34.7949  -43.8373 C   0  0  0  0  0  0  0  0  0  0  0  0
  -24.2565   36.7212  -48.2535 C   0  0  0  0  0  0  0  0  0  0  0  0
  -19.6363   29.9515  -45.9690 C   0  0  0  0  0  0  0  0  0  0  0  0
  -22.9776   36.9125  -45.7781 C   0  0  0  0  0  0  0  0  0  0  0  0
  -26.8839   32.2710  -43.4721 C   0  0  0  0  0  0  0  0  0  0  0  0
  -23.7515   31.8378  -43.8279 C   0  0  0  0  0  0  0  0  0  0  0  0
  1  3  1  0
  2  5  1  0
  2 19  1  0
  2 22  1  0
  3  7  1  0
  3 27  1  0
  4  6  1  0
  4 24  1  0
  5  7  1  0
  5 14  1  0
  6 11  1  0
  6 21  1  0
  7 20  1  0
  8 14  2  0
  8 23  1  0
  9 22  1  0
 10 17  1  0
 10 25  2  0
 11 27  2  3
 12 26  1  0
 13 21  1  0
 13 24  1  0
 14 25  1  0
 15 22  1  0
 16 18  1  0
 16 27  1  0
 17 23  2  0
 18 26  1  0
 20 22  1  0
 20 26  1  0
M  END
>  <ID>  (1) 
conformer_0

$$$$
