
     RDKit          3D

 20 20  0  0  0  0  0  0  0  0999 V2000
  -24.7120   32.7605  -44.1266 C   0  0  0  0  0  0  0  0  0  0  0  0
  -26.0923   33.3048  -43.9363 C   0  0  0  0  0  0  0  0  0  0  0  0
  -21.7989   36.0094  -46.9028 C   0  0  0  0  0  0  0  0  0  0  0  0
  -26.8850   34.2745  -44.8316 C   0  0  0  0  0  0  0  0  0  0  0  0
  -23.6351   33.5812  -43.9841 C   0  0  0  0  0  0  0  0  0  0  0  0
  -21.8157   34.1618  -45.4038 C   0  0  0  0  0  0  0  0  0  0  0  0
  -28.1255   36.4782  -44.5927 O   0  0  0  0  0  0  0  0  0  0  0  0
  -23.7045   37.5356  -47.1632 C   0  0  0  0  0  0  0  0  0  0  0  0
  -23.0888   34.4777  -44.9849 C   0  0  0  0  0  0  0  0  0  0  0  0
  -25.0096   36.1969  -45.1638 C   0  0  0  0  0  0  0  0  0  0  0  0
  -27.6285   31.2141  -44.0524 C   0  0  0  0  0  0  0  0  0  0  0  0
  -21.1820   34.9326  -46.3315 C   0  0  0  0  0  0  0  0  0  0  0  0
  -27.6606   35.3570  -44.1024 C   0  0  0  0  0  0  0  0  0  0  0  0
  -23.7179   35.6382  -45.5370 C   0  0  0  0  0  0  0  0  0  0  0  0
  -25.8367   29.6771  -42.1914 C   0  0  0  0  0  0  0  0  0  0  0  0
  -24.6165   31.3895  -43.9511 N   0  0  0  0  0  0  0  0  0  0  0  0
  -23.0688   36.3756  -46.5222 C   0  0  0  0  0  0  0  0  0  0  0  0
  -24.6925   30.4354  -42.9519 C   0  0  0  0  0  0  0  0  0  0  0  0
  -26.9936   32.2770  -43.2102 C   0  0  0  0  0  0  0  0  0  0  0  0
  -27.7449   35.1738  -42.8242 O   0  0  0  0  0  0  0  0  0  0  0  0
  1  2  1  0
  1  5  1  0
  1 16  1  0
  2  4  1  0
  2 19  1  0
  3 12  2  0
  3 17  1  0
  4 13  1  0
  5  9  1  0
  6  9  2  0
  6 12  1  0
  7 13  2  0
  8 17  1  0
  9 14  1  0
 10 14  1  0
 11 19  1  0
 13 20  1  0
 14 17  2  0
 15 18  1  0
 16 18  1  0
M  END
>  <ID>  (1) 
conformer_0

$$$$
