
     RDKit          3D

 19 21  0  0  0  0  0  0  0  0999 V2000
  -22.6084   32.2199  -44.3302 C   0  0  0  0  0  0  0  0  0  0  0  0
  -24.2660   34.1527  -44.7430 C   0  0  0  0  0  0  0  0  0  0  0  0
  -24.8613   32.0214  -43.8080 O   0  0  0  0  0  0  0  0  0  0  0  0
  -22.0661   34.8705  -45.5566 C   0  0  0  0  0  0  0  0  0  0  0  0
  -27.2886   32.5270  -44.0288 C   0  0  0  0  0  0  0  0  0  0  0  0
  -25.2723   36.6537  -45.5725 C   0  0  0  0  0  0  0  0  0  0  0  0
  -25.5971   34.5567  -44.4885 C   0  0  0  0  0  0  0  0  0  0  0  0
  -23.9651   36.3275  -45.9096 C   0  0  0  0  0  0  0  0  0  0  0  0
  -27.6804   35.3915  -44.0938 C   0  0  0  0  0  0  0  0  0  0  0  0
  -23.4244   35.0890  -45.3975 C   0  0  0  0  0  0  0  0  0  0  0  0
  -26.0186   35.7758  -44.8418 N   0  0  0  0  0  0  0  0  0  0  0  0
  -23.2414   37.3043  -46.8653 C   0  0  0  0  0  0  0  0  0  0  0  0
  -26.9187   33.9595  -43.8003 C   0  0  0  0  0  0  0  0  0  0  0  0
  -23.1983   36.6750  -48.2127 C   0  0  0  0  0  0  0  0  0  0  0  0
  -26.1214   31.5426  -44.2334 C   0  0  0  0  0  0  0  0  0  0  0  0
  -21.4054   32.6466  -44.7713 C   0  0  0  0  0  0  0  0  0  0  0  0
  -23.8522   32.8307  -44.3252 C   0  0  0  0  0  0  0  0  0  0  0  0
  -26.6594   30.2615  -43.4785 C   0  0  0  0  0  0  0  0  0  0  0  0
  -21.1935   33.9035  -45.3239 C   0  0  0  0  0  0  0  0  0  0  0  0
  1 16  2  0
  1 17  1  0
  2  7  1  0
  2 10  2  0
  2 17  1  0
  3 15  1  0
  3 17  1  0
  4 10  1  0
  4 19  2  0
  5 13  1  0
  5 15  1  0
  6  8  2  0
  6 11  1  0
  7 11  2  0
  7 13  1  0
  8 10  1  0
  8 12  1  0
  9 13  1  0
 12 14  1  0
 15 18  1  0
 16 19  1  0
M  END
>  <ID>  (1) 
conformer_0

$$$$
