
     RDKit          3D

 21 22  0  0  0  0  0  0  0  0999 V2000
  -23.5295   35.7925  -47.4535 C   0  0  0  0  0  0  0  0  0  0  0  0
  -21.5651   32.9227  -44.4238 C   0  0  0  0  0  0  0  0  0  0  0  0
  -26.2890   33.9449  -44.8992 C   0  0  0  0  0  0  0  0  0  0  0  0
  -21.9039   37.5649  -48.4405 Cl  0  0  0  0  0  0  0  0  0  0  0  0
  -27.5138   33.5707  -44.2105 C   0  0  0  0  0  0  0  0  0  0  0  0
  -28.2210   34.7218  -43.5857 C   0  0  0  0  0  0  0  0  0  0  0  0
  -24.2605   35.2366  -46.4712 C   0  0  0  0  0  0  0  0  0  0  0  0
  -24.1736   32.2521  -43.7848 C   0  0  0  0  0  0  0  0  0  0  0  0
  -24.4285   35.7434  -45.1967 C   0  0  0  0  0  0  0  0  0  0  0  0
  -23.2451   37.7171  -46.0643 C   0  0  0  0  0  0  0  0  0  0  0  0
  -23.9989   37.1103  -45.0475 C   0  0  0  0  0  0  0  0  0  0  0  0
  -22.5156   33.9052  -44.2406 C   0  0  0  0  0  0  0  0  0  0  0  0
  -25.0212   34.6722  -44.1738 C   0  0  0  0  0  0  0  0  0  0  0  0
  -27.8514   32.2443  -43.5626 C   0  0  0  0  0  0  0  0  0  0  0  0
  -22.9621   37.0406  -47.2324 C   0  0  0  0  0  0  0  0  0  0  0  0
  -23.8990   33.5695  -44.0507 C   0  0  0  0  0  0  0  0  0  0  0  0
  -27.7732   35.9800  -43.6455 O   0  0  0  0  0  0  0  0  0  0  0  0
  -23.2312   31.2623  -43.8928 C   0  0  0  0  0  0  0  0  0  0  0  0
  -21.9480   31.5930  -44.2837 C   0  0  0  0  0  0  0  0  0  0  0  0
  -21.0643   30.5800  -44.5192 F   0  0  0  0  0  0  0  0  0  0  0  0
  -27.8879   31.2016  -44.4894 O   0  0  0  0  0  0  0  0  0  0  0  0
  1  7  2  0
  1 15  1  0
  2 12  2  0
  2 19  1  0
  3  5  1  0
  3 13  1  0
  4 15  1  0
  5  6  1  0
  5 14  1  0
  6 17  1  0
  7  9  1  0
  8 16  2  0
  8 18  1  0
  9 11  2  0
  9 13  1  0
 10 11  1  0
 10 15  2  0
 12 16  1  0
 13 16  1  0
 14 21  1  0
 18 19  2  0
 19 20  1  0
M  END
>  <ID>  (1) 
conformer_0

$$$$
