
     RDKit          3D

 31 35  0  0  0  0  0  0  0  0999 V2000
  -25.3709   37.1498  -47.4151 O   0  0  0  0  0  0  0  0  0  0  0  0
  -25.7098   30.2785  -42.5653 C   0  0  0  0  0  0  0  0  0  0  0  0
  -27.0763   30.2837  -42.9158 C   0  0  0  0  0  0  0  0  0  0  0  0
  -20.0910   31.9307  -43.9773 C   0  0  0  0  0  0  0  0  0  0  0  0
  -25.4763   32.4486  -43.6770 C   0  0  0  0  0  0  0  0  0  0  0  0
  -27.0787   35.7219  -46.2568 C   0  0  0  0  0  0  0  0  0  0  0  0
  -24.9717   31.3375  -42.9763 C   0  0  0  0  0  0  0  0  0  0  0  0
  -28.0450   35.9738  -45.0438 C   0  0  0  0  0  0  0  0  0  0  0  0
  -24.4479   33.4159  -44.1320 C   0  0  0  0  0  0  0  0  0  0  0  0
  -21.1980   32.6732  -44.2959 C   0  0  0  0  0  0  0  0  0  0  0  0
  -21.1968   34.0314  -44.5326 C   0  0  0  0  0  0  0  0  0  0  0  0
  -26.8839   32.5036  -43.9420 C   0  0  0  0  0  0  0  0  0  0  0  0
  -27.7123   34.9340  -43.9848 C   0  0  0  0  0  0  0  0  0  0  0  0
  -23.2951   37.6321  -49.5320 F   0  0  0  0  0  0  0  0  0  0  0  0
  -23.9511   36.9041  -47.3508 C   0  0  0  0  0  0  0  0  0  0  0  0
  -21.5515   35.6333  -47.1122 C   0  0  0  0  0  0  0  0  0  0  0  0
  -27.2504   35.1542  -42.7487 O   0  0  0  0  0  0  0  0  0  0  0  0
  -23.0301   36.9840  -48.3931 C   0  0  0  0  0  0  0  0  0  0  0  0
  -27.6592   31.3630  -43.5991 C   0  0  0  0  0  0  0  0  0  0  0  0
  -21.3209   29.9084  -44.4847 C   0  0  0  0  0  0  0  0  0  0  0  0
  -22.4680   30.6357  -44.7022 C   0  0  0  0  0  0  0  0  0  0  0  0
  -26.0803   36.8170  -46.2049 C   0  0  0  0  0  0  0  0  0  0  0  0
  -22.4512   35.6221  -46.0606 C   0  0  0  0  0  0  0  0  0  0  0  0
  -23.5066   36.4366  -46.1706 C   0  0  0  0  0  0  0  0  0  0  0  0
  -27.4673   33.6682  -44.5326 N   0  0  0  0  0  0  0  0  0  0  0  0
  -23.5626   34.1036  -44.5013 N   0  0  0  0  0  0  0  0  0  0  0  0
  -23.3976   32.8541  -44.3136 N   0  0  0  0  0  0  0  0  0  0  0  0
  -20.1506   30.5435  -44.0919 C   0  0  0  0  0  0  0  0  0  0  0  0
  -21.7926   36.3515  -48.2764 C   0  0  0  0  0  0  0  0  0  0  0  0
  -22.4342   32.0074  -44.4282 C   0  0  0  0  0  0  0  0  0  0  0  0
  -22.3638   34.6614  -44.9719 C   0  0  0  0  0  0  0  0  0  0  0  0
  1 15  1  0
  1 22  1  0
  2  3  1  0
  2  7  2  0
  3 19  2  0
  4 10  2  0
  4 28  1  0
  5  7  1  0
  5  9  1  0
  5 12  2  0
  6  8  1  0
  6 22  1  0
  8 13  1  0
  9 26  2  0
  9 27  1  0
 10 11  1  0
 10 30  1  0
 11 31  1  0
 12 19  1  0
 12 25  1  0
 13 17  2  0
 13 25  1  0
 14 18  1  0
 15 18  1  0
 15 24  1  0
 16 23  2  0
 16 29  1  0
 18 29  2  0
 20 21  2  0
 20 28  1  0
 21 30  1  0
 23 24  1  0
 23 31  1  0
 26 31  1  0
 27 30  1  0
M  END
>  <ID>  (1) 
conformer_0

$$$$
