
     RDKit          3D

 21 24  0  0  0  0  0  0  0  0999 V2000
  -24.1021   38.1985  -45.7690 O   0  0  0  0  0  0  0  0  0  0  0  0
  -27.7382   31.3010  -43.7779 C   0  0  0  0  0  0  0  0  0  0  0  0
  -25.7100   36.1979  -46.8394 C   0  0  0  0  0  0  0  0  0  0  0  0
  -28.2502   33.8296  -44.0038 C   0  0  0  0  0  0  0  0  0  0  0  0
  -26.6786   36.4373  -45.6075 C   0  0  0  0  0  0  0  0  0  0  0  0
  -25.2074   30.8264  -43.1115 C   0  0  0  0  0  0  0  0  0  0  0  0
  -27.5323   35.1665  -43.5474 C   0  0  0  0  0  0  0  0  0  0  0  0
  -21.8832   35.9965  -47.5203 C   0  0  0  0  0  0  0  0  0  0  0  0
  -24.7299   32.1094  -43.7187 C   0  0  0  0  0  0  0  0  0  0  0  0
  -26.3490   35.4477  -44.4679 C   0  0  0  0  0  0  0  0  0  0  0  0
  -25.8276   32.9723  -44.2094 C   0  0  0  0  0  0  0  0  0  0  0  0
  -24.2631   35.8548  -46.3475 C   0  0  0  0  0  0  0  0  0  0  0  0
  -22.0441   35.3631  -44.9527 C   0  0  0  0  0  0  0  0  0  0  0  0
  -27.2203   32.7001  -43.7954 C   0  0  0  0  0  0  0  0  0  0  0  0
  -23.0362   34.1967  -44.8036 C   0  0  0  0  0  0  0  0  0  0  0  0
  -24.2921   34.5718  -45.5344 C   0  0  0  0  0  0  0  0  0  0  0  0
  -23.5242   37.1628  -46.2012 C   0  0  0  0  0  0  0  0  0  0  0  0
  -26.6451   30.3598  -43.2892 C   0  0  0  0  0  0  0  0  0  0  0  0
  -21.3929   35.2211  -46.3274 C   0  0  0  0  0  0  0  0  0  0  0  0
  -25.6423   34.2059  -45.0262 C   0  0  0  0  0  0  0  0  0  0  0  0
  -22.3765   37.2624  -46.9729 O   0  0  0  0  0  0  0  0  0  0  0  0
  1 17  2  0
  2 14  1  0
  2 18  1  0
  3  5  1  0
  3 12  1  0
  4  7  1  0
  4 14  1  0
  5 10  1  0
  6  9  1  0
  6 18  1  0
  7 10  1  0
  8 19  1  0
  8 21  1  0
  9 11  1  0
 10 20  1  0
 11 14  1  0
 11 20  1  0
 12 16  1  0
 12 17  1  0
 13 15  1  0
 13 19  1  0
 15 16  1  0
 16 20  1  0
 17 21  1  0
M  END
>  <ID>  (1) 
conformer_0

$$$$
