
     RDKit          3D

 27 30  0  0  0  0  0  0  0  0999 V2000
  -27.5704   32.0159  -44.4248 C   0  0  0  0  0  0  0  0  0  0  0  0
  -25.3963   35.9962  -46.2306 C   0  0  0  0  0  0  0  0  0  0  0  0
  -26.8474   35.5532  -45.9953 C   0  0  0  0  0  0  0  0  0  0  0  0
  -24.4855   35.2675  -45.6207 C   0  0  0  0  0  0  0  0  0  0  0  0
  -24.8708   37.0135  -47.0910 C   0  0  0  0  0  0  0  0  0  0  0  0
  -22.6621   36.0228  -46.7562 C   0  0  0  0  0  0  0  0  0  0  0  0
  -26.8249   33.1116  -43.6541 C   0  0  0  0  0  0  0  0  0  0  0  0
  -21.0354   32.3651  -44.6030 C   0  0  0  0  0  0  0  0  0  0  0  0
  -26.8727   34.4336  -44.7640 N   0  0  0  0  0  0  0  0  0  0  0  0
  -21.4160   35.7971  -47.2015 F   0  0  0  0  0  0  0  0  0  0  0  0
  -20.1682   30.1221  -44.5948 C   0  0  0  0  0  0  0  0  0  0  0  0
  -21.1064   33.8027  -44.8190 C   0  0  0  0  0  0  0  0  0  0  0  0
  -26.0717   30.9992  -42.5114 C   0  0  0  0  0  0  0  0  0  0  0  0
  -22.5361   34.1400  -44.9238 C   0  0  0  0  0  0  0  0  0  0  0  0
  -21.4692   29.6257  -44.6912 C   0  0  0  0  0  0  0  0  0  0  0  0
  -23.1781   35.1565  -45.7307 C   0  0  0  0  0  0  0  0  0  0  0  0
  -28.2011   36.2091  -43.8966 O   0  0  0  0  0  0  0  0  0  0  0  0
  -27.3560   35.3059  -43.6506 C   0  0  0  0  0  0  0  0  0  0  0  0
  -19.9489   31.5381  -44.5517 C   0  0  0  0  0  0  0  0  0  0  0  0
  -26.7383   35.3959  -42.4933 O   0  0  0  0  0  0  0  0  0  0  0  0
  -25.5163   32.3792  -43.0361 C   0  0  0  0  0  0  0  0  0  0  0  0
  -28.3636   31.0258  -43.9529 O   0  0  0  0  0  0  0  0  0  0  0  0
  -23.4624   36.9709  -47.3566 C   0  0  0  0  0  0  0  0  0  0  0  0
  -24.3903   32.9905  -43.6189 O   0  0  0  0  0  0  0  0  0  0  0  0
  -22.5404   30.4994  -44.6887 C   0  0  0  0  0  0  0  0  0  0  0  0
  -22.3851   31.8499  -44.5215 C   0  0  0  0  0  0  0  0  0  0  0  0
  -23.2352   32.9775  -44.3940 C   0  0  0  0  0  0  0  0  0  0  0  0
  1  7  1  0
  1 22  1  0
  2  3  1  0
  2  4  1  0
  2  5  2  0
  3  9  1  0
  4 16  2  0
  5 23  1  0
  6 10  1  0
  6 16  1  0
  6 23  2  0
  7  9  1  0
  7 21  1  0
  8 12  1  0
  8 19  2  0
  8 26  1  0
  9 18  1  0
 11 15  2  0
 11 19  1  0
 12 14  1  0
 13 21  1  0
 14 16  1  0
 14 27  1  0
 15 25  1  0
 17 18  2  0
 18 20  1  0
 21 24  1  0
 24 27  1  0
 25 26  2  0
 26 27  1  0
M  END
>  <ID>  (1) 
conformer_0

$$$$
