
     RDKit          3D

 22 23  0  0  0  0  0  0  0  0999 V2000
  -21.1519   34.9873  -45.8527 C   0  0  0  0  0  0  0  0  0  0  0  0
  -22.0567   33.4748  -44.2233 C   0  0  0  0  0  0  0  0  0  0  0  0
  -25.2665   30.0652  -42.9014 N   0  0  0  0  0  0  0  0  0  0  0  0
  -23.2869   34.0994  -44.3418 C   0  0  0  0  0  0  0  0  0  0  0  0
  -26.8212   30.1945  -43.0230 C   0  0  0  0  0  0  0  0  0  0  0  0
  -24.2605   31.0610  -43.2929 C   0  0  0  0  0  0  0  0  0  0  0  0
  -27.9382   35.6320  -44.8654 C   0  0  0  0  0  0  0  0  0  0  0  0
  -24.7261   32.4404  -43.1400 C   0  0  0  0  0  0  0  0  0  0  0  0
  -27.5064   34.6968  -43.7699 C   0  0  0  0  0  0  0  0  0  0  0  0
  -27.9345   31.0884  -43.7906 C   0  0  0  0  0  0  0  0  0  0  0  0
  -24.3139   33.6498  -43.5455 O   0  0  0  0  0  0  0  0  0  0  0  0
  -28.3381   36.9092  -44.3857 O   0  0  0  0  0  0  0  0  0  0  0  0
  -26.8148   33.3067  -44.0201 C   0  0  0  0  0  0  0  0  0  0  0  0
  -27.6802   32.3285  -44.6371 N   0  0  0  0  0  0  0  0  0  0  0  0
  -22.3888   35.6504  -45.9493 C   0  0  0  0  0  0  0  0  0  0  0  0
  -26.1875   32.6189  -42.7860 C   0  0  0  0  0  0  0  0  0  0  0  0
  -22.5117   36.8859  -46.8631 C   0  0  0  0  0  0  0  0  0  0  0  0
  -27.0442   35.4448  -42.6433 O   0  0  0  0  0  0  0  0  0  0  0  0
  -23.4613   35.1708  -45.2100 C   0  0  0  0  0  0  0  0  0  0  0  0
  -21.0028   33.9300  -44.9864 C   0  0  0  0  0  0  0  0  0  0  0  0
  -23.7114   36.6477  -47.8037 C   0  0  0  0  0  0  0  0  0  0  0  0
  -27.0726   35.6461  -46.1119 C   0  0  0  0  0  0  0  0  0  0  0  0
  1 15  1  0
  1 20  2  0
  2  4  1  0
  2 20  1  0
  3  5  1  0
  3  6  1  0
  4 11  1  0
  4 19  2  0
  5 10  2  0
  6  8  1  0
  7  9  1  0
  7 12  1  0
  7 22  1  0
  8 11  1  0
  8 16  1  0
  9 13  1  0
  9 18  1  0
 10 14  1  0
 13 14  1  0
 13 16  1  0
 15 17  1  0
 15 19  1  0
 17 21  1  0
M  END
>  <ID>  (1) 
conformer_0

$$$$
