
     RDKit          3D

 23 26  0  0  0  0  0  0  0  0999 V2000
  -24.4446   31.4910  -43.7824 C   0  0  0  0  0  0  0  0  0  0  0  0
  -22.1684   37.5153  -50.2843 N   0  0  0  0  0  0  0  0  0  0  0  0
  -27.3424   35.5216  -43.8391 C   0  0  0  0  0  0  0  0  0  0  0  0
  -24.9026   35.5118  -45.1108 N   0  0  0  0  0  0  0  0  0  0  0  0
  -27.4394   30.3790  -43.9701 C   0  0  0  0  0  0  0  0  0  0  0  0
  -23.9928   35.8100  -46.1380 C   0  0  0  0  0  0  0  0  0  0  0  0
  -24.7229   34.3706  -44.3169 C   0  0  0  0  0  0  0  0  0  0  0  0
  -27.2175   34.0034  -43.9372 C   0  0  0  0  0  0  0  0  0  0  0  0
  -23.3089   32.2515  -44.1894 C   0  0  0  0  0  0  0  0  0  0  0  0
  -25.7146   32.1318  -43.7585 C   0  0  0  0  0  0  0  0  0  0  0  0
  -22.3760   34.4277  -44.8862 C   0  0  0  0  0  0  0  0  0  0  0  0
  -21.6753   35.7450  -46.7776 C   0  0  0  0  0  0  0  0  0  0  0  0
  -21.9484   36.4269  -47.8926 C   0  0  0  0  0  0  0  0  0  0  0  0
  -24.2955   36.5031  -47.3209 C   0  0  0  0  0  0  0  0  0  0  0  0
  -23.2614   36.7902  -48.2287 C   0  0  0  0  0  0  0  0  0  0  0  0
  -22.0941   31.5668  -44.6202 C   0  0  0  0  0  0  0  0  0  0  0  0
  -22.6981   35.3419  -45.9379 C   0  0  0  0  0  0  0  0  0  0  0  0
  -28.0130   32.7352  -43.6881 C   0  0  0  0  0  0  0  0  0  0  0  0
  -25.7971   33.5655  -43.7271 C   0  0  0  0  0  0  0  0  0  0  0  0
  -27.0437   31.6283  -43.3321 C   0  0  0  0  0  0  0  0  0  0  0  0
  -23.4699   33.6442  -44.4444 C   0  0  0  0  0  0  0  0  0  0  0  0
  -23.5023   37.5020  -49.5179 C   0  0  0  0  0  0  0  0  0  0  0  0
  -26.6207   35.9960  -42.6110 O   0  0  0  0  0  0  0  0  0  0  0  0
  1  9  1  0
  1 10  1  0
  2 22  1  0
  3  8  1  0
  3 23  1  0
  4  6  1  0
  4  7  1  0
  5 20  1  0
  6 14  1  0
  6 17  2  0
  7 19  1  0
  7 21  1  0
  8 18  1  0
  8 19  1  0
  9 16  1  0
  9 21  2  0
 10 19  1  0
 10 20  1  0
 11 17  1  0
 11 21  1  0
 12 13  2  0
 12 17  1  0
 13 15  1  0
 14 15  2  0
 15 22  1  0
 18 20  1  0
M  END
>  <ID>  (1) 
conformer_0

$$$$
