
     RDKit          3D

 23 25  0  0  0  0  0  0  0  0999 V2000
  -20.5285   31.6110  -45.3806 C   0  0  0  0  0  0  0  0  0  0  0  0
  -22.5936   34.9985  -45.7084 C   0  0  0  0  0  0  0  0  0  0  0  0
  -22.5817   32.9172  -44.7770 C   0  0  0  0  0  0  0  0  0  0  0  0
  -23.8501   33.0861  -44.2778 N   0  0  0  0  0  0  0  0  0  0  0  0
  -25.7824   36.7455  -45.7749 O   0  0  0  0  0  0  0  0  0  0  0  0
  -26.6824   33.0256  -43.5924 N   0  0  0  0  0  0  0  0  0  0  0  0
  -26.9639   35.2392  -43.8500 C   0  0  0  0  0  0  0  0  0  0  0  0
  -28.2230   31.2441  -43.9167 O   0  0  0  0  0  0  0  0  0  0  0  0
  -26.7106   29.3474  -42.6626 C   0  0  0  0  0  0  0  0  0  0  0  0
  -22.0457   30.0907  -44.3750 C   0  0  0  0  0  0  0  0  0  0  0  0
  -21.9522   33.9023  -45.3937 N   0  0  0  0  0  0  0  0  0  0  0  0
  -24.7818   30.8651  -43.3269 C   0  0  0  0  0  0  0  0  0  0  0  0
  -26.1060   34.0822  -44.4176 C   0  0  0  0  0  0  0  0  0  0  0  0
  -21.8081   35.9595  -46.3952 C   0  0  0  0  0  0  0  0  0  0  0  0
  -22.3670   37.1043  -46.8042 C   0  0  0  0  0  0  0  0  0  0  0  0
  -24.5207   36.4407  -45.8932 C   0  0  0  0  0  0  0  0  0  0  0  0
  -23.7071   37.3344  -46.5832 C   0  0  0  0  0  0  0  0  0  0  0  0
  -23.9567   35.2129  -45.4174 C   0  0  0  0  0  0  0  0  0  0  0  0
  -24.2767   32.1878  -43.2809 O   0  0  0  0  0  0  0  0  0  0  0  0
  -24.6355   34.1775  -44.6975 C   0  0  0  0  0  0  0  0  0  0  0  0
  -21.8784   31.5547  -44.7223 C   0  0  0  0  0  0  0  0  0  0  0  0
  -27.0938   31.6822  -43.4966 C   0  0  0  0  0  0  0  0  0  0  0  0
  -26.1734   30.7433  -42.7973 C   0  0  0  0  0  0  0  0  0  0  0  0
  1 21  1  0
  2 11  2  0
  2 14  1  0
  2 18  1  0
  3  4  1  0
  3 11  1  0
  3 21  2  3
  4 19  1  0
  4 20  1  0
  5 16  1  0
  6 13  1  0
  6 22  1  0
  7 13  1  0
  8 22  2  0
  9 23  1  0
 10 21  1  0
 12 19  1  0
 12 23  1  0
 13 20  1  0
 14 15  2  0
 15 17  1  0
 16 17  2  0
 16 18  1  0
 18 20  2  0
 22 23  1  0
M  END
>  <ID>  (1) 
conformer_0

$$$$
