
     RDKit          3D

 19 20  0  0  0  0  0  0  0  0999 V2000
  -27.8432   31.1659  -43.9329 N   0  0  0  0  0  0  0  0  0  0  0  0
  -27.1259   34.6699  -42.7596 C   0  0  0  0  0  0  0  0  0  0  0  0
  -21.6224   36.5770  -46.4138 C   0  0  0  0  0  0  0  0  0  0  0  0
  -22.8322   32.0883  -44.2229 C   0  0  0  0  0  0  0  0  0  0  0  0
  -25.1533   31.7584  -43.6374 C   0  0  0  0  0  0  0  0  0  0  0  0
  -24.6771   35.3406  -44.6859 C   0  0  0  0  0  0  0  0  0  0  0  0
  -27.1157   34.4536  -45.2545 O   0  0  0  0  0  0  0  0  0  0  0  0
  -23.1859   33.3859  -44.5451 C   0  0  0  0  0  0  0  0  0  0  0  0
  -23.8105   35.8073  -45.7298 C   0  0  0  0  0  0  0  0  0  0  0  0
  -24.2901   35.9918  -47.0218 C   0  0  0  0  0  0  0  0  0  0  0  0
  -25.4902   33.0376  -43.9654 C   0  0  0  0  0  0  0  0  0  0  0  0
  -26.9488   33.6765  -43.9587 C   0  0  0  0  0  0  0  0  0  0  0  0
  -22.4824   36.0873  -45.4615 C   0  0  0  0  0  0  0  0  0  0  0  0
  -22.1312   36.7763  -47.7117 C   0  0  0  0  0  0  0  0  0  0  0  0
  -25.3310   36.2346  -44.1164 O   0  0  0  0  0  0  0  0  0  0  0  0
  -28.0696   32.6319  -43.7951 C   0  0  0  0  0  0  0  0  0  0  0  0
  -24.4655   33.9007  -44.3888 C   0  0  0  0  0  0  0  0  0  0  0  0
  -23.8461   31.2608  -43.7209 C   0  0  0  0  0  0  0  0  0  0  0  0
  -23.4567   36.4788  -48.0135 C   0  0  0  0  0  0  0  0  0  0  0  0
  1 16  1  0
  2 12  1  0
  3 13  2  0
  3 14  1  0
  4  8  2  0
  4 18  1  0
  5 11  2  0
  5 18  1  0
  6  9  1  0
  6 15  2  0
  6 17  1  0
  7 12  1  0
  8 17  1  0
  9 10  2  0
  9 13  1  0
 10 19  1  0
 11 12  1  0
 11 17  1  0
 12 16  1  0
 14 19  2  0
M  END
>  <ID>  (1) 
conformer_0

$$$$
