
     RDKit          3D

 22 26  0  0  0  0  0  0  0  0999 V2000
  -24.6343   30.8704  -43.3632 C   0  0  0  0  0  0  0  0  0  0  0  0
  -25.6618   34.5301  -44.1281 C   0  0  0  0  0  0  0  0  0  0  0  0
  -22.4536   33.7481  -44.2735 C   0  0  0  0  0  0  0  0  0  0  0  0
  -22.1411   30.9490  -44.3238 C   0  0  0  0  0  0  0  0  0  0  0  0
  -25.7983   31.8965  -43.5022 C   0  0  0  0  0  0  0  0  0  0  0  0
  -23.4018   31.4726  -43.8157 C   0  0  0  0  0  0  0  0  0  0  0  0
  -21.8546   34.7676  -44.9905 O   0  0  0  0  0  0  0  0  0  0  0  0
  -23.7942   35.9711  -45.5912 C   0  0  0  0  0  0  0  0  0  0  0  0
  -27.9242   33.3223  -43.8842 C   0  0  0  0  0  0  0  0  0  0  0  0
  -27.7473   35.8073  -43.8147 O   0  0  0  0  0  0  0  0  0  0  0  0
  -24.5499   35.3385  -44.5679 N   0  0  0  0  0  0  0  0  0  0  0  0
  -27.1495   34.6080  -44.0397 C   0  0  0  0  0  0  0  0  0  0  0  0
  -27.1326   32.0409  -44.2711 C   0  0  0  0  0  0  0  0  0  0  0  0
  -21.8962   35.9049  -47.1191 C   0  0  0  0  0  0  0  0  0  0  0  0
  -22.5658   36.8318  -47.9239 C   0  0  0  0  0  0  0  0  0  0  0  0
  -20.9463   31.8157  -43.9294 C   0  0  0  0  0  0  0  0  0  0  0  0
  -23.6819   32.8972  -44.0859 C   0  0  0  0  0  0  0  0  0  0  0  0
  -22.4853   35.5414  -45.9315 C   0  0  0  0  0  0  0  0  0  0  0  0
  -25.0815   33.1775  -43.7498 C   0  0  0  0  0  0  0  0  0  0  0  0
  -24.3793   36.9752  -46.3379 C   0  0  0  0  0  0  0  0  0  0  0  0
  -21.3521   33.1754  -43.4008 C   0  0  0  0  0  0  0  0  0  0  0  0
  -23.7530   37.3855  -47.5051 C   0  0  0  0  0  0  0  0  0  0  0  0
  1  5  1  0
  1  6  1  0
  2 11  1  0
  2 12  1  0
  2 19  2  0
  3  7  1  0
  3 17  1  0
  3 21  1  0
  4  6  1  0
  4 16  1  0
  5 13  1  0
  5 19  1  0
  6 17  1  0
  7 18  1  0
  8 11  1  0
  8 18  2  0
  8 20  1  0
  9 12  1  0
  9 13  1  0
 10 12  1  0
 14 15  2  0
 14 18  1  0
 15 22  1  0
 16 21  1  0
 17 19  1  0
 20 22  2  0
M  END
>  <ID>  (1) 
conformer_0

$$$$
