
     RDKit          3D

 17 18  0  0  0  0  0  0  0  0999 V2000
  -24.8851   36.8374  -45.8124 C   0  0  0  0  0  0  0  0  0  0  0  0
  -22.7659   36.1436  -46.6933 C   0  0  0  0  0  0  0  0  0  0  0  0
  -26.4687   33.8555  -44.7735 N   0  0  0  0  0  0  0  0  0  0  0  0
  -24.1621   31.6072  -43.4043 C   0  0  0  0  0  0  0  0  0  0  0  0
  -27.7433   30.9660  -43.1009 C   0  0  0  0  0  0  0  0  0  0  0  0
  -26.3843   30.6319  -43.0703 C   0  0  0  0  0  0  0  0  0  0  0  0
  -23.0568   31.4846  -44.4234 C   0  0  0  0  0  0  0  0  0  0  0  0
  -23.9298   34.7372  -45.1767 C   0  0  0  0  0  0  0  0  0  0  0  0
  -27.9006   32.2410  -43.7263 C   0  0  0  0  0  0  0  0  0  0  0  0
  -25.6482   31.6651  -43.6224 N   0  0  0  0  0  0  0  0  0  0  0  0
  -23.7722   37.0854  -46.5868 C   0  0  0  0  0  0  0  0  0  0  0  0
  -26.2876   35.2127  -44.5417 C   0  0  0  0  0  0  0  0  0  0  0  0
  -27.1661   35.9816  -44.1096 O   0  0  0  0  0  0  0  0  0  0  0  0
  -26.6421   32.7192  -44.0970 C   0  0  0  0  0  0  0  0  0  0  0  0
  -21.6871   36.3308  -47.6602 C   0  0  0  0  0  0  0  0  0  0  0  0
  -25.0003   35.6195  -45.1583 C   0  0  0  0  0  0  0  0  0  0  0  0
  -22.8089   34.9892  -45.9342 C   0  0  0  0  0  0  0  0  0  0  0  0
  1 11  2  0
  1 16  1  0
  2 11  1  0
  2 15  1  0
  2 17  2  0
  3 12  1  0
  3 14  2  3
  4  7  1  0
  4 10  1  0
  5  6  1  0
  5  9  1  0
  6 10  1  0
  8 16  2  0
  8 17  1  0
  9 14  1  0
 10 14  1  0
 12 13  2  0
 12 16  1  0
M  END
>  <ID>  (1) 
conformer_0

$$$$
