
     RDKit          3D

 35 38  0  0  0  0  0  0  0  0999 V2000
  -21.0613   35.1656  -45.4204 C   0  0  0  0  0  0  0  0  0  0  0  0
  -20.9683   31.8770  -44.3498 C   0  0  0  0  0  0  0  0  0  0  0  0
  -22.1602   32.6707  -44.4539 C   0  0  0  0  0  0  0  0  0  0  0  0
  -25.6141   32.1378  -43.1422 O   0  0  0  0  0  0  0  0  0  0  0  0
  -20.4849   34.3710  -44.3492 C   0  0  0  0  0  0  0  0  0  0  0  0
  -21.1395   30.5800  -43.9702 C   0  0  0  0  0  0  0  0  0  0  0  0
  -25.0428   36.7247  -45.1339 C   0  0  0  0  0  0  0  0  0  0  0  0
  -26.9459   35.1657  -45.5499 C   0  0  0  0  0  0  0  0  0  0  0  0
  -26.2669   28.9278  -41.9019 C   0  0  0  0  0  0  0  0  0  0  0  0
  -23.0969   32.3792  -43.4120 C   0  0  0  0  0  0  0  0  0  0  0  0
  -20.0759   29.6632  -43.8427 C   0  0  0  0  0  0  0  0  0  0  0  0
  -20.0886   30.5121  -46.2586 C   0  0  0  0  0  0  0  0  0  0  0  0
  -22.4482   30.0652  -43.5344 C   0  0  0  0  0  0  0  0  0  0  0  0
  -27.7148   33.0427  -44.1260 C   0  0  0  0  0  0  0  0  0  0  0  0
  -26.7214   31.8763  -44.0247 C   0  0  0  0  0  0  0  0  0  0  0  0
  -26.8360   36.1882  -46.6869 C   0  0  0  0  0  0  0  0  0  0  0  0
  -26.5249   34.9886  -43.0835 O   0  0  0  0  0  0  0  0  0  0  0  0
  -26.5115   36.6254  -45.2692 C   0  0  0  0  0  0  0  0  0  0  0  0
  -27.0164   34.3763  -44.2263 C   0  0  0  0  0  0  0  0  0  0  0  0
  -28.6634   33.0110  -43.0646 O   0  0  0  0  0  0  0  0  0  0  0  0
  -19.8744   31.1788  -44.9491 C   0  0  0  0  0  0  0  0  0  0  0  0
  -25.9371   29.8085  -43.0664 C   0  0  0  0  0  0  0  0  0  0  0  0
  -23.5302   30.9544  -43.3195 C   0  0  0  0  0  0  0  0  0  0  0  0
  -20.9197   33.1273  -44.0662 C   0  0  0  0  0  0  0  0  0  0  0  0
  -27.2486   30.6032  -43.3814 C   0  0  0  0  0  0  0  0  0  0  0  0
  -22.0979   36.4399  -47.6862 C   0  0  0  0  0  0  0  0  0  0  0  0
  -23.0916   36.0510  -46.5710 C   0  0  0  0  0  0  0  0  0  0  0  0
  -20.0121   28.5477  -44.4313 O   0  0  0  0  0  0  0  0  0  0  0  0
  -19.2032   29.8763  -42.7382 C   0  0  0  0  0  0  0  0  0  0  0  0
  -24.9056   30.8455  -42.8472 C   0  0  0  0  0  0  0  0  0  0  0  0
  -24.4045   36.6125  -46.4953 C   0  0  0  0  0  0  0  0  0  0  0  0
  -25.5403   36.2876  -47.4631 C   0  0  0  0  0  0  0  0  0  0  0  0
  -27.4710   37.4353  -44.7334 O   0  0  0  0  0  0  0  0  0  0  0  0
  -22.5599   35.0351  -45.7162 C   0  0  0  0  0  0  0  0  0  0  0  0
  -22.4476   37.8768  -47.9317 C   0  0  0  0  0  0  0  0  0  0  0  0
  1  5  1  0
  1 34  1  0
  2  6  1  0
  2 21  1  0
  2 24  1  0
  3 10  1  0
  3 24  1  0
  4 15  1  0
  4 30  1  0
  5 24  1  0
  6 11  1  0
  6 13  2  0
  7 18  1  0
  7 31  1  0
  8 16  1  0
  8 19  1  0
  9 22  1  0
 10 23  1  0
 11 28  2  0
 11 29  1  0
 12 21  1  0
 13 23  1  0
 14 15  1  0
 14 19  1  0
 14 20  1  0
 15 25  1  0
 16 18  1  0
 16 32  1  0
 17 19  1  0
 18 33  1  0
 22 25  1  0
 22 30  1  0
 23 30  1  0
 26 27  1  0
 26 35  1  0
 27 31  1  0
 27 34  1  0
 31 32  1  0
M  END
>  <ID>  (1) 
conformer_0

$$$$
