
     RDKit          3D

 22 22  0  0  0  0  0  0  0  0999 V2000
  -20.5824   31.9339  -44.5419 C   0  0  0  0  0  0  0  0  0  0  0  0
  -24.0318   37.0548  -47.5069 C   0  0  0  0  0  0  0  0  0  0  0  0
  -21.8933   36.0099  -47.6354 C   0  0  0  0  0  0  0  0  0  0  0  0
  -25.5776   31.6833  -43.8143 N   0  0  0  0  0  0  0  0  0  0  0  0
  -27.3128   34.1123  -43.9411 C   0  0  0  0  0  0  0  0  0  0  0  0
  -22.3511   33.3032  -43.9332 N   0  0  0  0  0  0  0  0  0  0  0  0
  -22.8670   36.7129  -48.1538 C   0  0  0  0  0  0  0  0  0  0  0  0
  -22.9860   31.1237  -43.4310 O   0  0  0  0  0  0  0  0  0  0  0  0
  -26.0177   36.0909  -44.6762 C   0  0  0  0  0  0  0  0  0  0  0  0
  -26.9416   31.6420  -43.7749 C   0  0  0  0  0  0  0  0  0  0  0  0
  -21.7104   35.3740  -46.5966 C   0  0  0  0  0  0  0  0  0  0  0  0
  -24.6819   32.6861  -43.9256 C   0  0  0  0  0  0  0  0  0  0  0  0
  -20.9679   30.9352  -45.6425 C   0  0  0  0  0  0  0  0  0  0  0  0
  -23.2457   32.2682  -43.7750 C   0  0  0  0  0  0  0  0  0  0  0  0
  -24.8691   33.9892  -44.1597 N   0  0  0  0  0  0  0  0  0  0  0  0
  -27.5891   30.3804  -43.6099 C   0  0  0  0  0  0  0  0  0  0  0  0
  -24.3843   36.7791  -46.3395 C   0  0  0  0  0  0  0  0  0  0  0  0
  -28.4619   35.0969  -43.7738 C   0  0  0  0  0  0  0  0  0  0  0  0
  -26.0158   34.6918  -44.2484 C   0  0  0  0  0  0  0  0  0  0  0  0
  -21.2215   33.3180  -44.7750 C   0  0  0  0  0  0  0  0  0  0  0  0
  -27.7039   32.8058  -43.8010 C   0  0  0  0  0  0  0  0  0  0  0  0
  -24.7904   36.5763  -45.1175 C   0  0  0  0  0  0  0  0  0  0  0  0
  1 13  1  0
  1 20  1  0
  2  7  1  0
  2 17  2  0
  3  7  1  0
  3 11  2  0
  4 10  2  0
  4 12  1  0
  5 18  1  0
  5 19  1  0
  5 21  2  0
  6 14  1  0
  6 20  1  0
  8 14  2  0
  9 19  2  3
  9 22  1  0
 10 16  1  0
 10 21  1  0
 12 14  1  0
 12 15  2  0
 15 19  1  0
 17 22  2  0
M  END
>  <ID>  (1) 
conformer_0

$$$$
