
     RDKit          3D

 36 41  0  0  0  0  0  0  0  0999 V2000
  -24.0682   37.0403  -49.1352 N   0  0  0  0  0  0  0  0  0  0  0  0
  -19.9455   30.6435  -45.2095 C   0  0  0  0  0  0  0  0  0  0  0  0
  -27.1976   30.4789  -43.3059 C   0  0  0  0  0  0  0  0  0  0  0  0
  -18.9365   29.6012  -42.8238 C   0  0  0  0  0  0  0  0  0  0  0  0
  -27.0218   36.1246  -44.1436 N   0  0  0  0  0  0  0  0  0  0  0  0
  -22.6216   35.4766  -46.0701 C   0  0  0  0  0  0  0  0  0  0  0  0
  -24.6827   30.8402  -42.7740 C   0  0  0  0  0  0  0  0  0  0  0  0
  -27.9721   32.6694  -43.7471 C   0  0  0  0  0  0  0  0  0  0  0  0
  -22.4969   31.6809  -42.8613 C   0  0  0  0  0  0  0  0  0  0  0  0
  -24.0352   36.7024  -47.8134 C   0  0  0  0  0  0  0  0  0  0  0  0
  -27.1443   33.7821  -43.9817 C   0  0  0  0  0  0  0  0  0  0  0  0
  -23.6221   34.8082  -45.2133 C   0  0  0  0  0  0  0  0  0  0  0  0
  -20.4905   31.1202  -44.0174 C   0  0  0  0  0  0  0  0  0  0  0  0
  -24.0907   29.8460  -42.3326 O   0  0  0  0  0  0  0  0  0  0  0  0
  -25.8942   35.9654  -44.8460 C   0  0  0  0  0  0  0  0  0  0  0  0
  -27.7250   35.0254  -43.6891 C   0  0  0  0  0  0  0  0  0  0  0  0
  -25.9721   30.6891  -43.1576 C   0  0  0  0  0  3  0  0  0  0  0  0
  -23.9089   31.9909  -42.8835 N   0  0  0  0  0  0  0  0  0  0  0  0
  -25.3027   36.7406  -47.1047 C   0  0  0  0  0  0  0  0  0  0  0  0
  -25.0957   34.8011  -44.8557 C   0  0  0  0  0  0  0  0  0  0  0  0
  -18.3545   29.1987  -43.9992 C   0  0  0  0  0  0  0  0  0  0  0  0
  -19.9960   30.5160  -42.8254 C   0  0  0  0  0  0  0  0  0  0  0  0
  -26.4498   36.9482  -49.1850 C   0  0  0  0  0  0  0  0  0  0  0  0
  -21.2978   35.2267  -45.8034 C   0  0  0  0  0  0  0  0  0  0  0  0
  -18.8541   29.7096  -45.2077 C   0  0  0  0  0  0  0  0  0  0  0  0
  -28.1797   31.4703  -43.6069 C   0  0  0  0  0  0  0  0  0  0  0  0
  -26.4701   36.7021  -47.8247 C   0  0  0  0  0  0  0  0  0  0  0  0
  -25.4337   36.9651  -45.7036 O   0  0  0  0  0  0  0  0  0  0  0  0
  -20.8750   34.1729  -44.9752 C   0  0  0  0  0  0  0  0  0  0  0  0
  -21.8527   33.3509  -44.4154 C   0  0  0  0  0  0  0  0  0  0  0  0
  -21.5624   32.0413  -43.9027 C   0  0  0  0  0  0  0  0  0  0  0  0
  -23.0881   33.8101  -44.4711 C   0  0  0  0  0  0  0  0  0  0  0  0
  -22.8499   36.2908  -47.2031 N   0  0  0  0  0  0  0  0  0  0  0  0
  -21.6949   36.4642  -48.1058 C   0  0  0  0  0  0  0  0  0  0  0  0
  -25.8845   33.7592  -44.4778 C   0  0  0  0  0  0  0  0  0  0  0  0
  -25.2626   37.1735  -49.8136 C   0  0  0  0  0  0  0  0  0  0  0  0
  1 10  1  0
  1 36  2  0
  2 13  2  0
  2 25  1  0
  3 17  2  0
  3 26  1  0
  4 21  2  0
  4 22  1  0
  5 15  1  0
  5 16  1  0
  6 12  2  0
  6 24  1  0
  6 33  1  0
  7 14  2  0
  7 17  1  0
  7 18  1  0
  8 11  1  0
  8 26  1  0
  9 18  1  0
  9 31  1  0
 10 19  1  0
 10 33  1  0
 11 16  2  0
 11 35  1  0
 12 20  1  0
 12 32  1  0
 13 22  1  0
 13 31  1  0
 15 20  1  0
 15 28  1  0
 19 27  1  0
 19 28  1  0
 20 35  2  0
 21 25  1  0
 23 27  2  0
 23 36  1  0
 24 29  2  0
 29 30  1  0
 30 31  1  0
 30 32  2  0
 33 34  1  0
M  END
>  <ID>  (1) 
conformer_0

$$$$
