
     RDKit          3D

 18 20  0  0  0  0  0  0  0  0999 V2000
  -23.6816   34.2101  -44.9488 C   0  0  0  0  0  0  0  0  0  0  0  0
  -23.7811   32.0685  -43.5645 C   0  0  0  0  0  0  0  0  0  0  0  0
  -25.8868   33.0712  -44.3727 C   0  0  0  0  0  0  0  0  0  0  0  0
  -23.0389   33.1582  -44.2593 C   0  0  0  0  0  0  0  0  0  0  0  0
  -25.1714   34.2611  -44.8605 C   0  0  0  0  0  0  0  0  0  0  0  0
  -23.8980   37.4968  -45.6408 C   0  0  0  0  0  0  0  0  0  0  0  0
  -22.9090   35.1560  -45.6877 C   0  0  0  0  0  0  0  0  0  0  0  0
  -22.6813   36.6281  -47.7090 C   0  0  0  0  0  0  0  0  0  0  0  0
  -27.6452   31.4629  -43.6953 C   0  0  0  0  0  0  0  0  0  0  0  0
  -20.9440   33.9884  -44.9971 C   0  0  0  0  0  0  0  0  0  0  0  0
  -25.8333   35.4814  -45.0254 O   0  0  0  0  0  0  0  0  0  0  0  0
  -27.3761   32.8707  -44.1602 C   0  0  0  0  0  0  0  0  0  0  0  0
  -21.6487   33.0950  -44.2593 C   0  0  0  0  0  0  0  0  0  0  0  0
  -26.6813   35.6210  -46.1896 C   0  0  0  0  0  0  0  0  0  0  0  0
  -25.1697   31.8245  -44.0449 C   0  0  0  0  0  0  0  0  0  0  0  0
  -23.4513   36.3227  -46.4605 C   0  0  0  0  0  0  0  0  0  0  0  0
  -21.5507   34.9787  -45.7154 C   0  0  0  0  0  0  0  0  0  0  0  0
  -26.2661   30.8180  -43.5830 C   0  0  0  0  0  0  0  0  0  0  0  0
  1  4  2  0
  1  5  1  0
  1  7  1  0
  2  4  1  0
  2 15  1  0
  3  5  2  0
  3 12  1  0
  3 15  1  0
  4 13  1  0
  5 11  1  0
  6 16  1  0
  7 16  1  0
  7 17  2  0
  8 16  1  0
  9 12  1  0
  9 18  1  0
 10 13  2  0
 10 17  1  0
 11 14  1  0
 15 18  1  0
M  END
>  <ID>  (1) 
conformer_0

$$$$
