
     RDKit          3D

 20 22  0  0  0  0  0  0  0  0999 V2000
  -24.7161   36.7270  -45.4382 N   0  0  0  0  0  0  0  0  0  0  0  0
  -21.7197   32.8899  -44.3549 C   0  0  0  0  0  0  0  0  0  0  0  0
  -25.6135   31.4362  -43.4897 C   0  0  0  0  0  0  0  0  0  0  0  0
  -25.3861   32.7873  -43.8863 N   0  0  0  0  0  0  0  0  0  0  0  0
  -24.1270   36.4802  -47.7876 C   0  0  0  0  0  0  0  0  0  0  0  0
  -26.9046   29.4205  -43.1161 O   0  0  0  0  0  0  0  0  0  0  0  0
  -23.5963   36.9216  -46.3663 C   0  0  0  0  0  0  0  0  0  0  0  0
  -22.6011   34.9205  -45.2588 C   0  0  0  0  0  0  0  0  0  0  0  0
  -26.9258   30.7395  -43.5926 C   0  0  0  0  0  0  0  0  0  0  0  0
  -24.9515   35.4821  -44.9250 C   0  0  0  0  0  0  0  0  0  0  0  0
  -23.1897   38.4303  -46.3015 C   0  0  0  0  0  0  0  0  0  0  0  0
  -23.8680   34.5263  -44.7922 C   0  0  0  0  0  0  0  0  0  0  0  0
  -27.5940   35.9916  -44.6310 S   0  0  0  0  0  0  0  0  0  0  0  0
  -22.3911   36.1261  -46.0286 C   0  0  0  0  0  0  0  0  0  0  0  0
  -21.5252   34.0968  -45.0012 C   0  0  0  0  0  0  0  0  0  0  0  0
  -22.9737   32.4611  -43.9721 C   0  0  0  0  0  0  0  0  0  0  0  0
  -28.2776   31.3086  -43.2310 C   0  0  0  0  0  0  0  0  0  0  0  0
  -24.0776   33.2591  -44.2078 C   0  0  0  0  0  0  0  0  0  0  0  0
  -26.2551   35.0614  -44.4194 C   0  0  0  0  0  0  0  0  0  0  0  0
  -26.4233   33.7261  -43.8655 C   0  0  0  0  0  0  0  0  0  0  0  0
  1  7  1  0
  1 10  1  0
  2 15  1  0
  2 16  2  0
  3  4  1  0
  3  9  1  0
  4 18  1  0
  4 20  1  0
  5  7  1  0
  6  9  1  0
  7 11  1  0
  7 14  1  0
  8 12  1  0
  8 14  1  0
  8 15  2  0
  9 17  1  0
 10 12  2  0
 10 19  1  0
 12 18  1  0
 13 19  2  0
 16 18  1  0
 19 20  1  0
M  END
>  <ID>  (1) 
conformer_0

$$$$
