
     RDKit          3D

 28 32  0  0  0  0  0  0  0  0999 V2000
  -26.6421   29.3401  -42.8198 F   0  0  0  0  0  0  0  0  0  0  0  0
  -25.6380   36.1773  -45.5774 C   0  0  0  0  0  0  0  0  0  0  0  0
  -25.3476   33.1087  -43.9162 C   0  0  0  0  0  0  0  0  0  0  0  0
  -21.7159   33.7115  -43.9979 C   0  0  0  0  0  0  0  0  0  0  0  0
  -24.8104   30.8732  -43.1900 C   0  0  0  0  0  0  0  0  0  0  0  0
  -23.7975   34.8990  -44.9685 C   0  0  0  0  0  0  0  0  0  0  0  0
  -27.4353   35.2060  -44.1204 C   0  0  0  0  0  0  0  0  0  0  0  0
  -23.1417   36.7503  -46.3508 C   0  0  0  0  0  0  0  0  0  0  0  0
  -22.4558   34.4977  -45.0030 C   0  0  0  0  0  0  0  0  0  0  0  0
  -25.9981   35.2077  -44.6306 N   0  0  0  0  0  0  0  0  0  0  0  0
  -21.8679   32.8938  -42.9019 C   0  0  0  0  0  0  0  0  0  0  0  0
  -21.6545   34.9654  -46.0426 C   0  0  0  0  0  0  0  0  0  0  0  0
  -22.3200   37.3488  -50.4890 C   0  0  0  0  0  0  0  0  0  0  0  0
  -23.1463   38.0641  -46.3545 O   0  0  0  0  0  0  0  0  0  0  0  0
  -24.1706   36.0651  -45.6928 C   0  0  0  0  0  0  0  0  0  0  0  0
  -28.4252   31.1874  -43.5525 F   0  0  0  0  0  0  0  0  0  0  0  0
  -24.4494   32.1281  -43.5806 C   0  0  0  0  0  0  0  0  0  0  0  0
  -26.7132   32.8254  -43.7715 C   0  0  0  0  0  0  0  0  0  0  0  0
  -21.6731   36.3194  -48.2910 C   0  0  0  0  0  0  0  0  0  0  0  0
  -27.7772   33.8443  -43.8187 O   0  0  0  0  0  0  0  0  0  0  0  0
  -22.0623   36.0097  -46.8787 C   0  0  0  0  0  0  0  0  0  0  0  0
  -24.0425   37.1820  -49.0045 C   0  0  0  0  0  0  0  0  0  0  0  0
  -27.0874   36.6143  -46.4195 S   0  0  0  0  0  0  0  0  0  0  0  0
  -24.9909   34.3466  -44.4093 N   0  0  0  0  0  0  0  0  0  0  0  0
  -26.1479   30.5975  -43.1851 C   0  0  0  0  0  0  0  0  0  0  0  0
  -22.5516   37.2209  -49.0551 C   0  0  0  0  0  0  0  0  0  0  0  0
  -27.1004   31.5341  -43.4996 C   0  0  0  0  0  0  0  0  0  0  0  0
  -28.2999   36.1224  -45.0067 C   0  0  0  0  0  0  0  0  0  0  0  0
  1 25  1  0
  2 10  1  0
  2 15  1  0
  2 23  1  0
  3 17  1  0
  3 18  2  0
  3 24  1  0
  4  9  1  0
  4 11  2  0
  5 17  2  0
  5 25  1  0
  6  9  1  0
  6 15  2  0
  6 24  1  0
  7 10  1  0
  7 20  1  0
  7 28  1  0
  8 14  1  0
  8 15  1  0
  8 21  1  0
  9 12  2  0
 10 24  1  0
 12 21  1  0
 13 26  1  0
 16 27  1  0
 18 20  1  0
 18 27  1  0
 19 21  2  3
 19 26  1  0
 22 26  1  0
 23 28  1  0
 25 27  2  0
M  END
>  <ID>  (1) 
conformer_0

$$$$
