
     RDKit          3D

 31 35  0  0  0  0  0  0  0  0999 V2000
  -22.4630   34.6170  -44.8944 C   0  0  0  0  0  0  0  0  0  0  0  0
  -22.2071   30.5952  -44.5428 C   0  0  0  0  0  0  0  0  0  0  0  0
  -27.5024   30.5095  -42.9623 C   0  0  0  0  0  0  0  0  0  0  0  0
  -22.4557   35.8562  -46.7912 N   0  0  0  0  0  0  0  0  0  0  0  0
  -21.8430   31.9407  -43.8552 C   0  0  0  0  0  0  0  0  0  0  0  0
  -23.8314   36.1907  -46.2034 C   0  0  0  0  0  0  0  0  0  0  0  0
  -24.7627   30.2697  -43.6099 C   0  0  0  0  0  0  0  0  0  0  0  0
  -28.3033   36.7221  -44.2475 O   0  0  0  0  0  0  0  0  0  0  0  0
  -19.9007   29.6104  -44.5668 C   0  0  0  0  0  0  0  0  0  0  0  0
  -23.6859   35.3338  -44.9255 O   0  0  0  0  0  0  0  0  0  0  0  0
  -27.5452   35.6543  -44.6461 C   0  0  0  0  0  0  0  0  0  0  0  0
  -21.3216   29.5332  -44.9749 C   0  0  0  0  0  0  0  0  0  0  0  0
  -23.2012   37.2959  -48.3573 C   0  0  0  0  0  0  0  0  0  0  0  0
  -23.5410   37.6918  -49.6479 C   0  0  0  0  0  0  0  0  0  0  0  0
  -26.8617   35.1455  -42.2953 O   0  0  0  0  0  0  0  0  0  0  0  0
  -22.1750   36.4463  -48.0167 C   0  0  0  0  0  0  0  0  0  0  0  0
  -26.4576   32.3784  -44.2043 C   0  0  0  0  0  0  0  0  0  0  0  0
  -26.7782   35.7879  -45.9308 C   0  0  0  0  0  0  0  0  0  0  0  0
  -21.6334   35.0510  -46.0520 C   0  0  0  0  0  0  0  0  0  0  0  0
  -24.3777   31.6964  -43.2003 C   0  0  0  0  0  0  0  0  0  0  0  0
  -26.0876   29.8806  -42.9498 C   0  0  0  0  0  0  0  0  0  0  0  0
  -19.7894   30.3966  -43.2855 C   0  0  0  0  0  0  0  0  0  0  0  0
  -22.9947   31.9934  -42.6286 C   0  0  0  0  0  0  0  0  0  0  0  0
  -26.8547   34.8160  -43.6262 C   0  0  0  0  0  0  0  0  0  0  0  0
  -21.7457   33.5530  -44.0365 C   0  0  0  0  0  0  0  0  0  0  0  0
  -27.8373   31.9378  -43.5644 C   0  0  0  0  0  0  0  0  0  0  0  0
  -25.3769   36.1328  -45.8330 O   0  0  0  0  0  0  0  0  0  0  0  0
  -24.1447   37.6571  -47.2215 S   0  0  0  0  0  0  0  0  0  0  0  0
  -25.8911   33.7256  -44.0192 C   0  0  0  0  0  0  0  0  0  0  0  0
  -25.5616   32.6002  -43.0272 C   0  0  0  0  0  0  0  0  0  0  0  0
  -20.4106   31.7441  -43.3661 C   0  0  0  0  0  0  0  0  0  0  0  0
  1 10  1  0
  1 19  1  0
  1 25  1  0
  2  5  1  0
  2 12  2  0
  3 21  2  0
  3 26  1  0
  4  6  1  0
  4 16  1  0
  4 19  1  0
  5 23  1  0
  5 25  1  0
  5 31  1  0
  6 10  1  0
  6 27  1  0
  6 28  1  0
  7 20  1  0
  7 21  1  0
  8 11  1  0
  9 12  1  0
  9 22  1  0
 11 18  1  0
 11 24  1  0
 13 14  1  0
 13 16  1  0
 13 28  1  0
 15 24  1  0
 17 26  1  0
 17 29  1  0
 17 30  1  0
 18 27  1  0
 20 23  1  0
 20 30  1  0
 22 31  1  0
 24 29  1  0
M  END
>  <ID>  (1) 
conformer_0

$$$$
