
     RDKit          3D

 21 22  0  0  0  0  0  0  0  0999 V2000
  -26.7044   34.0416  -45.1967 N   0  0  0  0  0  0  0  0  0  0  0  0
  -21.6421   32.7790  -43.1568 C   0  0  0  0  0  0  0  0  0  0  0  0
  -28.0148   31.0569  -43.6661 C   0  0  0  0  0  0  0  0  0  0  0  0
  -25.2240   32.2187  -44.3554 N   0  0  0  0  0  0  0  0  0  0  0  0
  -26.8886   35.1825  -42.6650 C   0  0  0  0  0  0  0  0  0  0  0  0
  -25.5341   30.9406  -43.6829 C   0  0  0  0  0  0  0  0  0  0  0  0
  -22.9203   32.1844  -43.2773 C   0  0  0  0  0  0  0  0  0  0  0  0
  -27.4197   35.1912  -44.9808 C   0  0  0  0  0  0  0  0  0  0  0  0
  -23.4304   33.8196  -44.9842 C   0  0  0  0  0  0  0  0  0  0  0  0
  -22.1477   34.4005  -44.8950 C   0  0  0  0  0  0  0  0  0  0  0  0
  -28.0567   36.8003  -44.2240 C   0  0  0  0  0  0  0  0  0  0  0  0
  -23.8031   32.7605  -44.1976 C   0  0  0  0  0  0  0  0  0  0  0  0
  -26.7946   30.8817  -44.5764 C   0  0  0  0  0  0  0  0  0  0  0  0
  -26.1567   33.9786  -42.8557 C   0  0  0  0  0  0  0  0  0  0  0  0
  -27.4904   35.7376  -43.7738 C   0  0  0  0  0  0  0  0  0  0  0  0
  -22.4249   36.2487  -46.6985 C   0  0  0  0  0  0  0  0  0  0  0  0
  -21.8217   36.2806  -48.1028 C   0  0  0  0  0  0  0  0  0  0  0  0
  -23.7167   36.8644  -46.2037 C   0  0  0  0  0  0  0  0  0  0  0  0
  -26.0942   33.4689  -44.1453 C   0  0  0  0  0  0  0  0  0  0  0  0
  -21.6745   35.5151  -45.7710 C   0  0  0  0  0  0  0  0  0  0  0  0
  -21.2743   33.8669  -43.9467 C   0  0  0  0  0  0  0  0  0  0  0  0
  1  8  2  0
  1 19  1  0
  2  7  2  0
  2 21  1  0
  3 13  1  0
  4  6  1  0
  4 12  1  0
  4 19  1  0
  5 14  1  0
  5 15  1  0
  6 13  1  0
  7 12  1  0
  8 15  1  0
  9 10  1  0
  9 12  2  0
 10 20  1  0
 10 21  2  0
 11 15  2  0
 14 19  2  0
 16 17  1  0
 16 18  1  0
 16 20  1  0
M  END
>  <ID>  (1) 
conformer_0

$$$$
