
     RDKit          3D

 28 31  0  0  0  0  0  0  0  0999 V2000
  -21.7352   36.5558  -48.1571 C   0  0  0  0  0  0  0  0  0  0  0  0
  -26.7922   33.3670  -43.3577 C   0  0  0  0  0  0  0  0  0  0  0  0
  -27.8889   31.1900  -43.8994 C   0  0  0  0  0  0  0  0  0  0  0  0
  -26.4233   36.1149  -46.8782 C   0  0  0  0  0  0  0  0  0  0  0  0
  -22.6974   36.2506  -47.2472 C   0  0  0  0  0  0  0  0  0  0  0  0
  -26.0156   34.3379  -44.1427 C   0  0  0  0  0  0  0  0  0  0  0  0
  -24.0381   36.4892  -47.5115 C   0  0  0  0  0  0  0  0  0  0  0  0
  -24.5205   35.6059  -45.3703 N   0  0  0  0  0  0  0  0  0  0  0  0
  -27.4053   36.2065  -43.5801 O   0  0  0  0  0  0  0  0  0  0  0  0
  -23.4659   37.4619  -49.6060 C   0  0  0  0  0  0  0  0  0  0  0  0
  -23.5036   33.6346  -44.4727 C   0  0  0  0  0  0  0  0  0  0  0  0
  -24.4173   37.0681  -48.6790 C   0  0  0  0  0  0  0  0  0  0  0  0
  -22.2269   34.0629  -44.7807 C   0  0  0  0  0  0  0  0  0  0  0  0
  -23.6872   32.2643  -44.2157 C   0  0  0  0  0  0  0  0  0  0  0  0
  -25.6066   30.8378  -43.1412 C   0  0  0  0  0  0  0  0  0  0  0  0
  -27.2538   35.6160  -45.8047 N   0  0  0  0  0  0  0  0  0  0  0  0
  -27.8531   32.7008  -44.1216 C   0  0  0  0  0  0  0  0  0  0  0  0
  -21.5486   31.8233  -45.1390 C   0  0  0  0  0  0  0  0  0  0  0  0
  -24.6607   34.5286  -44.5448 C   0  0  0  0  0  0  0  0  0  0  0  0
  -26.8602   35.4994  -44.4684 C   0  0  0  0  0  0  0  0  0  0  0  0
  -22.1176   37.2213  -49.3645 C   0  0  0  0  0  0  0  0  0  0  0  0
  -21.2472   33.1759  -45.1776 C   0  0  0  0  0  0  0  0  0  0  0  0
  -20.6179   30.8064  -45.6583 C   0  0  0  0  0  0  0  0  0  0  0  0
  -25.0486   36.0354  -46.5569 C   0  0  0  0  0  0  0  0  0  0  0  0
  -27.0450   30.9117  -42.6283 C   0  0  0  0  0  0  0  0  0  0  0  0
  -26.6219   33.4169  -42.0562 O   0  0  0  0  0  0  0  0  0  0  0  0
  -24.7851   31.8709  -43.5602 O   0  0  0  0  0  0  0  0  0  0  0  0
  -22.7443   31.3685  -44.5863 C   0  0  0  0  0  0  0  0  0  0  0  0
  1  5  2  0
  1 21  1  0
  2  6  1  0
  2 17  1  0
  2 26  1  0
  3 17  1  0
  3 25  1  0
  4 16  1  0
  4 24  1  0
  5  7  1  0
  6 19  2  0
  6 20  1  0
  7 12  2  0
  7 24  1  0
  8 19  1  0
  8 24  1  0
  9 20  2  0
 10 12  1  0
 10 21  2  0
 11 13  1  0
 11 14  1  0
 11 19  1  0
 13 22  2  0
 14 27  1  0
 14 28  2  0
 15 25  1  0
 15 27  1  0
 16 20  1  0
 18 22  1  0
 18 23  1  0
 18 28  1  0
M  END
>  <ID>  (1) 
conformer_0

$$$$
