
     RDKit          3D

 27 30  0  0  0  0  0  0  0  0999 V2000
  -22.0431   34.6628  -45.3624 C   0  0  0  0  0  0  0  0  0  0  0  0
  -26.0524   35.6866  -45.8426 C   0  0  0  0  0  0  0  0  0  0  0  0
  -25.2908   36.6064  -48.1322 C   0  0  0  0  0  0  0  0  0  0  0  0
  -27.5723   36.1087  -44.0804 C   0  0  0  0  0  0  0  0  0  0  0  0
  -24.5919   37.6193  -46.0045 O   0  0  0  0  0  0  0  0  0  0  0  0
  -21.1609   32.4542  -44.0490 C   0  0  0  0  0  0  0  0  0  0  0  0
  -23.7245   35.5481  -46.6113 N   0  0  0  0  0  0  0  0  0  0  0  0
  -24.1977   31.0756  -43.0393 N   0  0  0  0  0  0  0  0  0  0  0  0
  -26.1616   34.3160  -45.6470 C   0  0  0  0  0  0  0  0  0  0  0  0
  -23.2224   31.8209  -43.1464 N   0  0  0  0  0  0  0  0  0  0  0  0
  -26.8724   36.5318  -45.2020 C   0  0  0  0  0  0  0  0  0  0  0  0
  -27.4301   34.8000  -43.6553 C   0  0  0  0  0  0  0  0  0  0  0  0
  -26.7438   30.0881  -43.0991 C   0  0  0  0  0  0  0  0  0  0  0  0
  -26.2635   32.1937  -42.8978 O   0  0  0  0  0  0  0  0  0  0  0  0
  -25.5255   31.0445  -43.2330 C   0  0  0  0  0  0  0  0  0  0  0  0
  -20.7010   34.3621  -45.3325 C   0  0  0  0  0  0  0  0  0  0  0  0
  -22.9213   33.8813  -44.6268 C   0  0  0  0  0  0  0  0  0  0  0  0
  -20.2857   33.2435  -44.6969 N   0  0  0  0  0  0  0  0  0  0  0  0
  -26.9883   33.8393  -44.5387 N   0  0  0  0  0  0  0  0  0  0  0  0
  -27.6353   34.4725  -42.3925 O   0  0  0  0  0  0  0  0  0  0  0  0
  -22.4819   32.7326  -43.9756 C   0  0  0  0  0  0  0  0  0  0  0  0
  -27.9386   30.9496  -43.6749 C   0  0  0  0  0  0  0  0  0  0  0  0
  -24.0765   37.0494  -48.8635 O   0  0  0  0  0  0  0  0  0  0  0  0
  -21.7173   36.5440  -46.6957 O   0  0  0  0  0  0  0  0  0  0  0  0
  -27.2653   32.3494  -44.0570 C   0  0  0  0  0  0  0  0  0  0  0  0
  -24.9118   36.3771  -46.6498 C   0  0  0  0  0  0  0  0  0  0  0  0
  -22.4748   35.7168  -46.2395 C   0  0  0  0  0  0  0  0  0  0  0  0
  1 16  2  0
  1 17  1  0
  1 27  1  0
  2  9  2  0
  2 11  1  0
  2 26  1  0
  3 23  1  0
  3 26  1  0
  4 11  2  0
  4 12  1  0
  5 26  1  0
  6 18  2  0
  6 21  1  0
  7 26  1  0
  7 27  1  0
  8 10  1  0
  8 15  1  0
  9 19  1  0
 10 21  1  0
 12 19  1  0
 12 20  2  0
 13 15  1  0
 13 22  1  0
 14 15  1  0
 14 25  1  0
 16 18  1  0
 17 21  2  0
 19 25  1  0
 22 25  1  0
 24 27  2  0
M  END
>  <ID>  (1) 
conformer_0

$$$$
