
     RDKit          3D

 20 21  0  0  0  0  0  0  0  0999 V2000
  -22.0586   36.8202  -48.0597 Cl  0  0  0  0  0  0  0  0  0  0  0  0
  -28.0946   35.4230  -45.4660 C   0  0  0  0  0  0  0  0  0  0  0  0
  -21.5185   34.1023  -45.2754 C   0  0  0  0  0  0  0  0  0  0  0  0
  -27.4648   35.8790  -43.1442 O   0  0  0  0  0  0  0  0  0  0  0  0
  -22.2608   35.8661  -46.6849 C   0  0  0  0  0  0  0  0  0  0  0  0
  -26.4213   31.4534  -43.8401 C   0  0  0  0  0  0  0  0  0  0  0  0
  -25.0037   35.2056  -44.5410 N   0  0  0  0  0  0  0  0  0  0  0  0
  -22.7522   33.9750  -44.7017 C   0  0  0  0  0  0  0  0  0  0  0  0
  -25.6007   36.2038  -45.3659 C   0  0  0  0  0  0  0  0  0  0  0  0
  -27.6745   34.9152  -44.1204 C   0  0  0  0  0  0  0  0  0  0  0  0
  -23.4792   35.8661  -46.0060 C   0  0  0  0  0  0  0  0  0  0  0  0
  -21.2597   35.0210  -46.2603 C   0  0  0  0  0  0  0  0  0  0  0  0
  -27.2375   30.2497  -43.4741 C   0  0  0  0  0  0  0  0  0  0  0  0
  -25.7508   32.0996  -42.6024 C   0  0  0  0  0  0  0  0  0  0  0  0
  -23.7350   34.9381  -45.0244 C   0  0  0  0  0  0  0  0  0  0  0  0
  -27.9050   33.4480  -43.8507 C   0  0  0  0  0  0  0  0  0  0  0  0
  -22.9972   32.7855  -43.8213 C   0  0  0  0  0  0  0  0  0  0  0  0
  -24.5209   36.7504  -46.1778 O   0  0  0  0  0  0  0  0  0  0  0  0
  -26.8458   35.9209  -46.3170 C   0  0  0  0  0  0  0  0  0  0  0  0
  -27.1297   32.4104  -44.6106 N   0  0  0  0  0  0  0  0  0  0  0  0
  1  5  1  0
  2 10  1  0
  2 19  1  0
  3  8  2  0
  3 12  1  0
  4 10  1  0
  5 11  1  0
  5 12  2  0
  6 13  1  0
  6 14  1  0
  6 20  1  0
  7  9  1  0
  7 15  1  0
  8 15  1  0
  8 17  1  0
  9 18  1  0
  9 19  1  0
 10 16  1  0
 11 15  2  0
 11 18  1  0
 16 20  1  0
M  END
>  <ID>  (1) 
conformer_0

$$$$
