
     RDKit          3D

 27 30  0  0  0  0  0  0  0  0999 V2000
  -24.5727   36.5115  -47.8522 C   0  0  0  0  0  0  0  0  0  0  0  0
  -28.7634   34.6438  -43.5702 C   0  0  0  0  0  0  0  0  0  0  0  0
  -26.4344   30.1638  -43.1427 C   0  0  0  0  0  0  0  0  0  0  0  0
  -25.3843   32.3851  -43.1836 C   0  0  0  0  0  0  0  0  0  0  0  0
  -20.3507   30.5949  -43.3968 C   0  0  0  0  0  0  0  0  0  0  0  0
  -21.4111   30.0852  -45.5961 C   0  0  0  0  0  0  0  0  0  0  0  0
  -22.9572   34.7355  -45.0912 C   0  0  0  0  0  0  0  0  0  0  0  0
  -26.0794   35.6060  -44.5663 N   0  0  0  0  0  0  0  0  0  0  0  0
  -21.0346   33.2829  -45.1253 C   0  0  0  0  0  0  0  0  0  0  0  0
  -27.7345   32.2510  -43.7754 C   0  0  0  0  0  0  0  0  0  0  0  0
  -25.0924   38.2375  -46.1854 O   0  0  0  0  0  0  0  0  0  0  0  0
  -23.2576   36.1865  -47.1256 C   0  0  0  0  0  0  0  0  0  0  0  0
  -25.0670   35.9136  -45.5487 C   0  0  0  0  0  0  0  0  0  0  0  0
  -23.5843   35.9407  -45.6542 C   0  0  0  0  0  0  0  0  0  0  0  0
  -28.5594   36.0051  -43.8245 O   0  0  0  0  0  0  0  0  0  0  0  0
  -23.0140   32.5514  -44.1108 C   0  0  0  0  0  0  0  0  0  0  0  0
  -25.1307   33.6580  -43.8334 C   0  0  0  0  0  0  0  0  0  0  0  0
  -25.4706   36.9471  -46.6534 C   0  0  0  0  0  0  0  0  0  0  0  0
  -21.3124   30.9438  -44.4356 N   0  0  0  0  0  0  0  0  0  0  0  0
  -21.7906   32.2813  -44.5426 C   0  0  0  0  0  0  0  0  0  0  0  0
  -26.3438   34.3469  -44.0272 N   0  0  0  0  0  0  0  0  0  0  0  0
  -21.6397   34.5202  -45.3706 C   0  0  0  0  0  0  0  0  0  0  0  0
  -23.6841   33.7100  -44.3577 C   0  0  0  0  0  0  0  0  0  0  0  0
  -27.5997   33.7210  -43.6408 C   0  0  0  0  0  0  0  0  0  0  0  0
  -26.9127   36.6713  -47.0389 C   0  0  0  0  0  0  0  0  0  0  0  0
  -26.3912   31.5232  -43.7347 C   0  0  0  0  0  0  0  0  0  0  0  0
  -28.6065   31.2714  -44.1098 O   0  0  0  0  0  0  0  0  0  0  0  0
  1 12  1  0
  1 18  1  0
  2 15  1  0
  2 24  2  3
  3 26  1  0
  4 17  1  0
  4 26  1  0
  5 19  1  0
  6 19  1  0
  7 14  1  0
  7 22  2  0
  7 23  1  0
  8 13  1  0
  8 21  1  0
  9 20  2  0
  9 22  1  0
 10 24  1  0
 10 26  1  0
 10 27  1  0
 11 18  1  0
 12 14  1  0
 13 14  1  0
 13 18  1  0
 16 20  1  0
 16 23  2  0
 17 21  1  0
 17 23  1  0
 18 25  1  0
 19 20  1  0
 21 24  1  0
M  END
>  <ID>  (1) 
conformer_0

$$$$
