
     RDKit          3D

 29 34  0  0  0  0  0  0  0  0999 V2000
  -28.6625   36.9131  -44.0369 O   0  0  0  0  0  0  0  0  0  0  0  0
  -20.4848   31.0633  -45.6806 C   0  0  0  0  0  0  0  0  0  0  0  0
  -27.2079   32.9398  -44.1661 C   0  0  0  0  0  0  0  0  0  0  0  0
  -22.5880   37.1420  -49.2356 C   0  0  0  0  0  0  0  0  0  0  0  0
  -24.8251   30.3444  -42.8508 C   0  0  0  0  0  0  0  0  0  0  0  0
  -22.1130   35.8792  -45.6714 C   0  0  0  0  0  0  0  0  0  0  0  0
  -25.6094   36.1977  -46.7547 C   0  0  0  0  0  0  0  0  0  0  0  0
  -27.0143   35.9994  -46.0064 C   0  0  0  0  0  0  0  0  0  0  0  0
  -24.4367   32.5035  -44.0168 C   0  0  0  0  0  0  0  0  0  0  0  0
  -24.1097   37.2036  -49.3332 O   0  0  0  0  0  0  0  0  0  0  0  0
  -22.5878   34.6769  -45.0582 C   0  0  0  0  0  0  0  0  0  0  0  0
  -23.2195   36.4521  -46.3689 N   0  0  0  0  0  0  0  0  0  0  0  0
  -20.3047   30.9904  -43.1497 O   0  0  0  0  0  0  0  0  0  0  0  0
  -25.3427   31.5266  -43.5642 C   0  0  0  0  0  0  0  0  0  0  0  0
  -27.7336   30.6701  -43.3744 C   0  0  0  0  0  0  0  0  0  0  0  0
  -27.0262   35.2938  -44.7099 C   0  0  0  0  0  0  0  0  0  0  0  0
  -24.0109   34.6752  -45.0674 C   0  0  0  0  0  0  0  0  0  0  0  0
  -27.9129   35.7731  -43.6705 C   0  0  0  0  0  0  0  0  0  0  0  0
  -21.8476   32.4865  -44.2632 C   0  0  0  0  0  0  0  0  0  0  0  0
  -26.7206   31.7366  -43.7229 C   0  0  0  0  0  0  0  0  0  0  0  0
  -24.4759   35.7756  -45.8547 C   0  0  0  0  0  0  0  0  0  0  0  0
  -26.3635   33.9961  -44.4925 C   0  0  0  0  0  0  0  0  0  0  0  0
  -21.6476   33.7524  -44.7128 C   0  0  0  0  0  0  0  0  0  0  0  0
  -24.9487   33.7392  -44.5194 C   0  0  0  0  0  0  0  0  0  0  0  0
  -23.5949   37.5771  -47.1396 C   0  0  0  0  0  0  0  0  0  0  0  0
  -23.1099   32.1794  -43.9477 C   0  0  0  0  0  0  0  0  0  0  0  0
  -24.8373   36.9565  -48.0106 C   0  0  0  0  0  0  0  0  0  0  0  0
  -22.2883   37.0914  -47.7680 C   0  0  0  0  0  0  0  0  0  0  0  0
  -20.7530   31.5115  -44.3175 C   0  0  0  0  0  0  0  0  0  0  0  0
  1 18  1  0
  2 29  1  0
  3 20  2  0
  3 22  1  0
  4 10  1  0
  4 28  1  0
  5 14  1  0
  6 11  1  0
  6 12  1  0
  7  8  2  0
  7 21  1  0
  7 27  1  0
  8 16  1  0
  9 14  1  0
  9 24  1  0
  9 26  2  0
 10 27  1  0
 11 17  2  0
 11 23  1  0
 12 21  1  0
 12 25  1  0
 13 29  1  0
 14 20  1  0
 15 20  1  0
 16 18  1  0
 16 22  1  0
 17 21  1  0
 17 24  1  0
 19 23  2  0
 19 26  1  0
 19 29  1  0
 22 24  2  0
 25 27  1  0
 25 28  1  0
M  END
>  <ID>  (1) 
conformer_0

$$$$
