
     RDKit          3D

 20 23  0  0  0  0  0  0  0  0999 V2000
  -24.9845   35.7353  -46.3045 C   0  0  0  0  0  0  0  0  0  0  0  0
  -24.5419   34.7933  -45.3950 C   0  0  0  0  0  0  0  0  0  0  0  0
  -27.4880   32.9762  -43.8455 C   0  0  0  0  0  0  0  0  0  0  0  0
  -22.2621   35.5369  -45.8008 C   0  0  0  0  0  0  0  0  0  0  0  0
  -22.7399   36.4822  -46.6730 C   0  0  0  0  0  0  0  0  0  0  0  0
  -21.3915   30.8131  -44.5975 C   0  0  0  0  0  0  0  0  0  0  0  0
  -20.7250   30.5042  -45.9581 C   0  0  0  0  0  0  0  0  0  0  0  0
  -22.8640   31.0815  -44.6883 C   0  0  0  0  0  0  0  0  0  0  0  0
  -23.1385   34.6718  -45.1957 C   0  0  0  0  0  0  0  0  0  0  0  0
  -26.9065   34.2808  -44.4489 C   0  0  0  0  0  0  0  0  0  0  0  0
  -25.1133   32.5616  -44.4281 C   0  0  0  0  0  0  0  0  0  0  0  0
  -26.5434   31.8241  -44.3348 C   0  0  0  0  0  0  0  0  0  0  0  0
  -20.7193   31.9881  -43.8708 C   0  0  0  0  0  0  0  0  0  0  0  0
  -27.4687   30.6639  -43.9510 C   0  0  0  0  0  0  0  0  0  0  0  0
  -21.2165   33.3140  -44.3295 C   0  0  0  0  0  0  0  0  0  0  0  0
  -23.5916   32.3838  -44.4790 C   0  0  0  0  0  0  0  0  0  0  0  0
  -24.0801   36.5822  -46.9312 C   0  0  0  0  0  0  0  0  0  0  0  0
  -27.0876   35.4244  -43.4627 C   0  0  0  0  0  0  0  0  0  0  0  0
  -25.4714   33.9662  -44.6785 N   0  0  0  0  0  0  0  0  0  0  0  0
  -22.6715   33.5292  -44.3425 C   0  0  0  0  0  0  0  0  0  0  0  0
  1  2  2  0
  1 17  1  0
  2  9  1  0
  2 19  1  0
  3 10  1  0
  3 12  1  0
  4  5  1  0
  4  9  2  0
  5 17  2  0
  6  7  1  0
  6  8  1  0
  6 13  1  0
  8 16  2  0
  9 20  1  0
 10 18  1  0
 10 19  1  0
 11 12  1  0
 11 16  1  0
 11 19  1  0
 12 14  1  0
 13 15  1  0
 15 20  1  0
 16 20  1  0
M  END
>  <ID>  (1) 
conformer_0

$$$$
