
     RDKit          3D

 24 29  0  0  0  0  0  0  0  0999 V2000
  -21.6531   32.8506  -44.4425 C   0  0  0  0  0  0  0  0  0  0  0  0
  -22.1550   35.9893  -46.9903 C   0  0  0  0  0  0  0  0  0  0  0  0
  -24.0034   32.5051  -43.9057 C   0  0  0  0  0  0  0  0  0  0  0  0
  -26.4788   31.8347  -44.2333 C   0  0  0  0  0  0  0  0  0  0  0  0
  -23.8144   37.4275  -47.8756 C   0  0  0  0  0  0  0  0  0  0  0  0
  -23.0903   33.4646  -44.5312 C   0  0  0  0  0  0  0  0  0  0  0  0
  -23.4538   31.2746  -43.3838 C   0  0  0  0  0  0  0  0  0  0  0  0
  -25.4230   32.7902  -44.1031 C   0  0  0  0  0  0  0  0  0  0  0  0
  -24.7139   37.0173  -46.9213 C   0  0  0  0  0  0  0  0  0  0  0  0
  -22.1417   31.2307  -42.7102 C   0  0  0  0  0  0  0  0  0  0  0  0
  -27.7700   32.6168  -44.0047 C   0  0  0  0  0  0  0  0  0  0  0  0
  -24.4135   36.0491  -45.9993 C   0  0  0  0  0  0  0  0  0  0  0  0
  -23.0190   35.6036  -45.9689 C   0  0  0  0  0  0  0  0  0  0  0  0
  -26.9692   36.0254  -45.6750 C   0  0  0  0  0  0  0  0  0  0  0  0
  -25.9383   34.1580  -44.4912 C   0  0  0  0  0  0  0  0  0  0  0  0
  -26.3974   30.5479  -43.8979 N   0  0  0  0  0  0  0  0  0  0  0  0
  -21.4216   32.5551  -42.9428 C   0  0  0  0  0  0  0  0  0  0  0  0
  -27.5077   34.0722  -44.3622 C   0  0  0  0  0  0  0  0  0  0  0  0
  -28.1429   36.3338  -43.6220 O   0  0  0  0  0  0  0  0  0  0  0  0
  -22.4858   34.8044  -44.8805 C   0  0  0  0  0  0  0  0  0  0  0  0
  -28.0503   35.4175  -44.7665 C   0  0  0  0  0  0  0  0  0  0  0  0
  -25.5955   35.4940  -45.1707 C   0  0  0  0  0  0  0  0  0  0  0  0
  -21.0765   34.2293  -44.7978 C   0  0  0  0  0  0  0  0  0  0  0  0
  -22.5340   36.8935  -47.9395 C   0  0  0  0  0  0  0  0  0  0  0  0
  1  6  1  0
  1 17  1  0
  1 23  1  0
  2 13  1  0
  2 24  2  0
  3  6  1  0
  3  7  1  0
  3  8  1  0
  4  8  1  0
  4 11  1  0
  4 16  1  0
  5  9  1  0
  5 24  1  0
  6 20  1  0
  7 10  1  0
  8 15  1  0
  9 12  2  0
 10 17  1  0
 11 18  1  0
 12 13  1  0
 12 22  1  0
 13 20  1  0
 14 21  1  0
 14 22  1  0
 15 18  2  0
 15 22  1  0
 18 21  1  0
 19 21  1  0
 20 23  1  0
M  END
>  <ID>  (1) 
conformer_0

$$$$
