
     RDKit          3D

  9  9  0  0  0  0  0  0  0  0999 V2000
  -25.9125   33.3213  -44.2438 C   0  0  0  0  0  0  0  0  0  0  0  0
  -24.6849   32.6601  -44.3331 C   0  0  0  0  0  0  0  0  0  0  0  0
  -25.9808   34.6981  -44.5537 C   0  0  0  0  0  0  0  0  0  0  0  0
  -24.8393   35.3637  -45.0249 C   0  0  0  0  0  0  0  0  0  0  0  0
  -23.5807   33.3365  -44.7763 C   0  0  0  0  0  0  0  0  0  0  0  0
  -23.6556   34.6544  -45.1884 C   0  0  0  0  0  0  0  0  0  0  0  0
  -22.4566   35.3119  -45.9114 C   0  0  0  0  0  0  0  0  0  0  0  0
  -27.1900   31.1101  -44.3079 N   0  0  0  0  0  0  0  0  0  0  0  0
  -27.2294   32.5344  -43.8360 C   0  0  0  0  0  0  0  0  0  0  0  0
  1  2  2  0
  1  3  1  0
  1  9  1  0
  2  5  1  0
  3  4  2  0
  4  6  1  0
  5  6  2  0
  6  7  1  0
  8  9  1  0
M  END
>  <ID>  (1) 
conformer_0

$$$$
