
     RDKit          3D

 23 27  0  0  0  0  0  0  0  0999 V2000
  -21.9828   32.8039  -44.6182 C   0  0  0  0  0  0  0  0  0  0  0  0
  -22.3619   37.3907  -46.8493 O   0  0  0  0  0  0  0  0  0  0  0  0
  -23.3305   33.1020  -44.6322 C   0  0  0  0  0  0  0  0  0  0  0  0
  -25.5593   36.0218  -45.3708 C   0  0  0  0  0  0  0  0  0  0  0  0
  -26.8784   36.5039  -45.3599 C   0  0  0  0  0  0  0  0  0  0  0  0
  -24.2824   32.1109  -44.3138 O   0  0  0  0  0  0  0  0  0  0  0  0
  -21.5258   35.0303  -45.4179 C   0  0  0  0  0  0  0  0  0  0  0  0
  -21.5716   31.4725  -44.2434 C   0  0  0  0  0  0  0  0  0  0  0  0
  -25.6420   32.4329  -44.2453 N   0  0  0  0  0  0  0  0  0  0  0  0
  -26.7762   31.7057  -43.8301 C   0  0  0  0  0  0  0  0  0  0  0  0
  -25.1543   34.7280  -44.9514 C   0  0  0  0  0  0  0  0  0  0  0  0
  -23.7816   34.4018  -45.0266 C   0  0  0  0  0  0  0  0  0  0  0  0
  -27.4606   33.8678  -44.2308 C   0  0  0  0  0  0  0  0  0  0  0  0
  -28.3853   34.8718  -44.3394 C   0  0  0  0  0  0  0  0  0  0  0  0
  -24.6187   36.9310  -45.9328 N   0  0  0  0  0  0  0  0  0  0  0  0
  -22.1559   36.6633  -48.1989 C   0  0  0  0  0  0  0  0  0  0  0  0
  -28.0520   36.1104  -44.8858 C   0  0  0  0  0  0  0  0  0  0  0  0
  -26.0554   33.7440  -44.4998 C   0  0  0  0  0  0  0  0  0  0  0  0
  -26.6981   30.3163  -43.4733 Cl  0  0  0  0  0  0  0  0  0  0  0  0
  -23.3033   36.6103  -46.0531 C   0  0  0  0  0  0  0  0  0  0  0  0
  -22.8591   35.3590  -45.5105 C   0  0  0  0  0  0  0  0  0  0  0  0
  -27.9144   32.5305  -43.7705 C   0  0  0  0  0  0  0  0  0  0  0  0
  -21.0832   33.7937  -44.9757 C   0  0  0  0  0  0  0  0  0  0  0  0
  1  3  2  0
  1  8  1  0
  1 23  1  0
  2 16  1  0
  2 20  1  0
  3  6  1  0
  3 12  1  0
  4  5  1  0
  4 11  1  0
  4 15  1  0
  5 17  2  0
  6  9  1  0
  7 21  1  0
  7 23  2  0
  9 10  1  0
  9 18  1  0
 10 19  1  0
 10 22  1  0
 11 12  1  0
 11 18  2  0
 12 21  2  0
 13 14  2  0
 13 18  1  0
 13 22  1  0
 14 17  1  0
 15 20  2  0
 20 21  1  0
M  END
>  <ID>  (1) 
conformer_0

$$$$
