
     RDKit          3D

 19 20  0  0  0  0  0  0  0  0999 V2000
  -22.6164   33.7777  -44.9153 C   0  0  0  0  0  0  0  0  0  0  0  0
  -21.3535   33.9429  -45.4216 C   0  0  0  0  0  0  0  0  0  0  0  0
  -24.0445   37.2013  -45.7226 C   0  0  0  0  0  0  0  0  0  0  0  0
  -28.0783   30.8721  -43.5400 C   0  0  0  0  0  0  0  0  0  0  0  0
  -23.2174   35.9966  -45.7653 C   0  0  0  0  0  0  0  0  0  0  0  0
  -27.5163   34.3877  -43.1562 C   0  0  0  0  0  0  0  0  0  0  0  0
  -24.9165   37.4391  -44.9020 O   0  0  0  0  0  0  0  0  0  0  0  0
  -22.8946   32.6231  -44.2055 C   0  0  0  0  0  0  0  0  0  0  0  0
  -26.7912   31.0776  -44.3599 C   0  0  0  0  0  0  0  0  0  0  0  0
  -21.9524   36.0206  -46.3502 C   0  0  0  0  0  0  0  0  0  0  0  0
  -23.6991   38.1727  -46.6236 N   0  0  0  0  0  0  0  0  0  0  0  0
  -24.1894   32.2687  -43.9942 C   0  0  0  0  0  0  0  0  0  0  0  0
  -27.7342   33.3517  -44.2944 C   0  0  0  0  0  0  0  0  0  0  0  0
  -21.0701   35.0033  -46.1639 C   0  0  0  0  0  0  0  0  0  0  0  0
  -26.6187   35.6316  -42.8647 C   0  0  0  0  0  0  0  0  0  0  0  0
  -24.8900   34.3823  -44.8854 O   0  0  0  0  0  0  0  0  0  0  0  0
  -25.1813   33.1054  -44.4701 C   0  0  0  0  0  0  0  0  0  0  0  0
  -26.5608   32.5097  -44.7044 C   0  0  0  0  0  0  0  0  0  0  0  0
  -23.6063   34.7716  -45.1753 C   0  0  0  0  0  0  0  0  0  0  0  0
  1  2  2  0
  1  8  1  0
  1 19  1  0
  2 14  1  0
  3  5  1  0
  3  7  2  0
  3 11  1  0
  4  9  1  0
  5 10  1  0
  5 19  2  0
  6 13  1  0
  6 15  1  0
  8 12  2  0
  9 18  1  0
 10 14  2  0
 12 17  1  0
 13 18  1  0
 16 17  1  0
 16 19  1  0
 17 18  1  0
M  END
>  <ID>  (1) 
conformer_0

$$$$
