
     RDKit          3D

 18 18  0  0  0  0  0  0  0  0999 V2000
  -25.2813   31.7480  -44.5469 C   0  0  0  0  0  0  0  0  0  0  0  0
  -28.1783   33.0092  -43.6640 C   0  0  0  0  0  0  0  0  0  0  0  0
  -21.6226   37.1126  -49.2711 F   0  0  0  0  0  0  0  0  0  0  0  0
  -21.8722   35.8148  -47.3508 C   0  0  0  0  0  0  0  0  0  0  0  0
  -27.6824   31.6264  -43.9254 O   0  0  0  0  0  0  0  0  0  0  0  0
  -26.2486   31.5316  -43.3761 C   0  0  0  0  0  0  0  0  0  0  0  0
  -22.3697   36.8623  -48.1230 C   0  0  0  0  0  0  0  0  0  0  0  0
  -23.4903   37.5513  -47.7854 C   0  0  0  0  0  0  0  0  0  0  0  0
  -23.9066   31.8450  -44.3054 O   0  0  0  0  0  0  0  0  0  0  0  0
  -23.7258   36.2133  -45.8363 C   0  0  0  0  0  0  0  0  0  0  0  0
  -22.1813   34.4647  -45.4910 O   0  0  0  0  0  0  0  0  0  0  0  0
  -27.9864   35.4525  -43.6299 O   0  0  0  0  0  0  0  0  0  0  0  0
  -25.9813   34.4413  -44.0572 N   0  0  0  0  0  0  0  0  0  0  0  0
  -24.3449   35.9201  -44.6623 N   0  0  0  0  0  0  0  0  0  0  0  0
  -27.3389   34.2644  -43.7687 C   0  0  0  0  0  0  0  0  0  0  0  0
  -22.5747   35.4680  -46.2101 C   0  0  0  0  0  0  0  0  0  0  0  0
  -24.1738   37.2285  -46.6168 C   0  0  0  0  0  0  0  0  0  0  0  0
  -25.5832   35.7021  -44.4224 N   0  0  0  0  0  0  0  0  0  0  0  0
  1  6  1  0
  1  9  1  0
  2  5  1  0
  2 15  1  0
  3  7  1  0
  4  7  2  0
  4 16  1  0
  5  6  1  0
  7  8  1  0
  8 17  2  0
 10 14  1  0
 10 16  2  0
 10 17  1  0
 11 16  1  0
 12 15  2  0
 13 15  1  0
 13 18  2  3
 14 18  1  0
M  END
>  <ID>  (1) 
conformer_0

$$$$
