
     RDKit          3D

 19 19  0  0  0  0  0  0  0  0999 V2000
  -26.6741   35.7047  -43.2008 O   0  0  0  0  0  0  0  0  0  0  0  0
  -23.3697   32.7482  -44.3184 C   0  0  0  0  0  0  0  0  0  0  0  0
  -21.4248   30.8706  -44.2344 Cl  0  0  0  0  0  0  0  0  0  0  0  0
  -23.0168   37.3528  -46.0297 C   0  0  0  0  0  0  0  0  0  0  0  0
  -26.7415   33.3931  -42.8214 O   0  0  0  0  0  0  0  0  0  0  0  0
  -25.2800   36.2341  -46.3922 C   0  0  0  0  0  0  0  0  0  0  0  0
  -27.9752   32.8896  -44.6833 O   0  0  0  0  0  0  0  0  0  0  0  0
  -22.0557   32.4678  -44.5851 C   0  0  0  0  0  0  0  0  0  0  0  0
  -23.1596   34.8743  -45.4661 C   0  0  0  0  0  0  0  0  0  0  0  0
  -25.3086   34.2103  -44.4892 N   0  0  0  0  0  0  0  0  0  0  0  0
  -27.0505   30.1235  -42.8217 C   0  0  0  0  0  0  0  0  0  0  0  0
  -21.8085   34.6204  -45.5967 C   0  0  0  0  0  0  0  0  0  0  0  0
  -21.2356   33.4295  -45.1908 C   0  0  0  0  0  0  0  0  0  0  0  0
  -26.4641   31.1565  -43.7798 C   0  0  0  0  0  0  0  0  0  0  0  0
  -25.8480   29.5295  -42.0023 C   0  0  0  0  0  0  0  0  0  0  0  0
  -23.9430   33.9199  -44.7420 C   0  0  0  0  0  0  0  0  0  0  0  0
  -23.7928   36.0721  -46.1321 C   0  0  0  0  0  0  0  0  0  0  0  0
  -27.2107   32.4211  -43.8122 C   0  0  0  0  0  0  0  0  0  0  0  0
  -26.1584   34.5644  -43.4791 C   0  0  0  0  0  0  0  0  0  0  0  0
  1 19  2  0
  2  8  2  0
  2 16  1  0
  3  8  1  0
  4 17  1  0
  5 18  1  0
  5 19  1  0
  6 17  1  0
  7 18  2  0
  8 13  1  0
  9 12  1  0
  9 16  2  0
  9 17  1  0
 10 16  1  0
 10 19  1  0
 11 14  1  0
 11 15  1  0
 12 13  2  0
 14 18  1  0
M  END
>  <ID>  (1) 
conformer_0

$$$$
