
     RDKit          3D

 28 32  0  0  0  0  0  0  0  0999 V2000
  -25.6355   29.8078  -42.2566 C   0  0  0  0  0  0  0  0  0  0  0  0
  -25.4648   31.7322  -43.7219 C   0  0  0  0  0  0  0  0  0  0  0  0
  -23.0607   37.7863  -45.3900 O   0  0  0  0  0  0  0  0  0  0  0  0
  -24.9648   30.8274  -42.7498 C   0  0  0  0  0  0  0  0  0  0  0  0
  -26.9544   35.3739  -42.4919 C   0  0  0  0  0  0  0  0  0  0  0  0
  -20.9466   31.7227  -44.1483 C   0  0  0  0  0  0  0  0  0  0  0  0
  -22.9681   33.1483  -44.6053 C   0  0  0  0  0  0  0  0  0  0  0  0
  -25.3125   33.1424  -44.2048 C   0  0  0  0  0  0  0  0  0  0  0  0
  -21.6153   32.8540  -44.7399 C   0  0  0  0  0  0  0  0  0  0  0  0
  -21.3871   31.2933  -42.9829 F   0  0  0  0  0  0  0  0  0  0  0  0
  -27.4750   30.3499  -43.6440 N   0  0  0  0  0  0  0  0  0  0  0  0
  -27.7255   35.5650  -43.8157 C   0  0  0  0  0  0  0  0  0  0  0  0
  -25.6190   34.4722  -44.7979 C   0  0  0  0  0  0  0  0  0  0  0  0
  -24.1423   32.5984  -44.1268 C   0  0  0  0  0  0  0  0  0  0  0  0
  -23.2069   36.8660  -46.2505 C   0  0  0  0  0  0  0  0  0  0  0  0
  -21.9659   34.7822  -45.8607 C   0  0  0  0  0  0  0  0  0  0  0  0
  -26.9478   29.5546  -42.6622 C   0  0  0  0  0  0  0  0  0  0  0  0
  -20.9943   33.8297  -45.5140 N   0  0  0  0  0  0  0  0  0  0  0  0
  -23.1849   34.3897  -45.2828 N   0  0  0  0  0  0  0  0  0  0  0  0
  -25.7853   36.3572  -47.0368 C   0  0  0  0  0  0  0  0  0  0  0  0
  -26.8586   35.3528  -44.9737 C   0  0  0  0  0  0  0  0  0  0  0  0
  -21.8393   36.3689  -48.2448 C   0  0  0  0  0  0  0  0  0  0  0  0
  -26.7753   31.2994  -44.2013 N   0  0  0  0  0  0  0  0  0  0  0  0
  -24.5126   36.1968  -46.2519 C   0  0  0  0  0  0  0  0  0  0  0  0
  -19.7887   31.4192  -44.5861 F   0  0  0  0  0  0  0  0  0  0  0  0
  -21.9696   36.0551  -46.7507 C   0  0  0  0  0  0  0  0  0  0  0  0
  -27.0462   35.8009  -46.3809 C   0  0  0  0  0  0  0  0  0  0  0  0
  -24.4466   35.0008  -45.3980 C   0  0  0  0  0  0  0  0  0  0  0  0
  1  4  2  0
  1 17  1  0
  2  4  1  0
  2  8  1  0
  2 23  1  0
  3 15  2  0
  5 12  1  0
  6  9  1  0
  6 10  1  0
  6 25  1  0
  7  9  2  0
  7 14  1  0
  7 19  1  0
  8 13  1  0
  8 14  2  0
  9 18  1  0
 11 17  2  0
 11 23  1  0
 12 21  1  0
 13 21  1  0
 13 28  2  0
 15 24  1  0
 15 26  1  0
 16 18  2  0
 16 19  1  0
 16 26  1  0
 19 28  1  0
 20 24  1  0
 20 27  1  0
 21 27  1  0
 22 26  1  0
 24 28  1  0
M  END
>  <ID>  (1) 
conformer_0

$$$$
