
     RDKit          3D

 27 32  0  0  0  0  0  0  0  0999 V2000
  -20.8221   31.2022  -44.2628 C   0  0  0  0  0  0  0  0  0  0  0  0
  -21.5110   29.8590  -44.2030 C   0  0  0  0  0  0  0  0  0  0  0  0
  -27.2070   33.0117  -44.0838 C   0  0  0  0  0  0  0  0  0  0  0  0
  -23.4282   33.8693  -44.5236 C   0  0  0  0  0  0  0  0  0  0  0  0
  -26.7084   30.6168  -43.8550 C   0  0  0  0  0  0  0  0  0  0  0  0
  -23.5536   37.9242  -47.6113 C   0  0  0  0  0  0  0  0  0  0  0  0
  -22.2600   37.2706  -48.0376 C   0  0  0  0  0  0  0  0  0  0  0  0
  -23.6239   36.4923  -45.3911 C   0  0  0  0  0  0  0  0  0  0  0  0
  -24.9123   37.2512  -47.3652 C   0  0  0  0  0  0  0  0  0  0  0  0
  -22.2570   34.3930  -45.4210 C   0  0  0  0  0  0  0  0  0  0  0  0
  -21.7571   36.0688  -47.2487 C   0  0  0  0  0  0  0  0  0  0  0  0
  -25.3873   31.3485  -43.8615 C   0  0  0  0  0  0  0  0  0  0  0  0
  -22.6076   35.6247  -46.1454 C   0  0  0  0  0  0  0  0  0  0  0  0
  -23.0683   32.3781  -44.3127 C   0  0  0  0  0  0  0  0  0  0  0  0
  -25.6966   32.8291  -43.9165 C   0  0  0  0  0  0  0  0  0  0  0  0
  -21.0071   33.5574  -43.3843 C   0  0  0  0  0  0  0  0  0  0  0  0
  -27.8372   31.6700  -43.7962 C   0  0  0  0  0  0  0  0  0  0  0  0
  -27.5034   34.5098  -43.8409 C   0  0  0  0  0  0  0  0  0  0  0  0
  -26.1997   35.2167  -44.3718 C   0  0  0  0  0  0  0  0  0  0  0  0
  -20.9410   34.4159  -44.6503 C   0  0  0  0  0  0  0  0  0  0  0  0
  -27.3293   34.7800  -42.2775 C   0  0  0  0  0  0  0  0  0  0  0  0
  -23.9516   31.1182  -44.3431 C   0  0  0  0  0  0  0  0  0  0  0  0
  -26.2175   35.7538  -45.7966 C   0  0  0  0  0  0  0  0  0  0  0  0
  -21.7075   32.2644  -43.6952 C   0  0  0  0  0  0  0  0  0  0  0  0
  -24.9911   34.2052  -44.1593 C   0  0  0  0  0  0  0  0  0  0  0  0
  -21.9382   37.0288  -49.5194 C   0  0  0  0  0  0  0  0  0  0  0  0
  -25.0393   36.7892  -45.9072 C   0  0  0  0  0  0  0  0  0  0  0  0
  1  2  1  0
  1 24  1  0
  3 15  1  0
  3 17  1  0
  3 18  1  0
  4 10  1  0
  4 14  1  0
  4 25  1  0
  5 12  1  0
  5 17  1  0
  6  7  1  0
  6  9  1  0
  7 11  1  0
  7 26  1  0
  8 13  1  0
  8 27  1  0
  9 27  1  0
 10 13  1  0
 10 20  1  0
 11 13  1  0
 12 15  1  0
 12 22  1  0
 14 22  1  0
 14 24  1  0
 15 25  1  0
 16 20  1  0
 16 24  1  0
 18 19  1  0
 18 21  1  0
 19 23  1  0
 19 25  1  0
 23 27  1  0
M  END
>  <ID>  (1) 
conformer_0

$$$$
