
     RDKit          3D

 30 34  0  0  0  0  0  0  0  0999 V2000
  -25.2111   37.1254  -48.6927 C   0  0  0  0  0  0  0  0  0  0  0  0
  -25.3402   33.2335  -44.0962 N   0  0  0  0  0  0  0  0  0  0  0  0
  -23.3678   36.5275  -47.0557 C   0  0  0  0  0  0  0  0  0  0  0  0
  -24.0849   37.6098  -49.5712 C   0  0  0  0  0  0  0  0  0  0  0  0
  -24.7572   31.0673  -42.8895 C   0  0  0  0  0  0  0  0  0  0  0  0
  -24.1714   33.7875  -44.0296 C   0  0  0  0  0  0  0  0  0  0  0  0
  -25.5941   31.8740  -43.6329 N   0  0  0  0  0  0  0  0  0  0  0  0
  -22.6246   37.4332  -49.1937 C   0  0  0  0  0  0  0  0  0  0  0  0
  -28.4629   34.4096  -44.2049 C   0  0  0  0  0  0  0  0  0  0  0  0
  -22.2676   36.4298  -48.1119 C   0  0  0  0  0  0  0  0  0  0  0  0
  -26.5957   29.9353  -43.1891 N   0  0  0  0  0  0  0  0  0  0  0  0
  -28.2210   33.9453  -42.7265 C   0  0  0  0  0  0  0  0  0  0  0  0
  -20.9734   32.1621  -43.4571 C   0  0  0  0  0  0  0  0  0  0  0  0
  -20.0315   31.2019  -43.7431 C   0  0  0  0  0  0  0  0  0  0  0  0
  -27.4330   35.4900  -44.6296 C   0  0  0  0  0  0  0  0  0  0  0  0
  -24.7151   36.8929  -47.3173 C   0  0  0  0  0  0  0  0  0  0  0  0
  -22.3643   31.2739  -45.1828 C   0  0  0  0  0  0  0  0  0  0  0  0
  -26.9867   35.5368  -46.0845 C   0  0  0  0  0  0  0  0  0  0  0  0
  -25.6719   36.2649  -46.3358 C   0  0  0  0  0  0  0  0  0  0  0  0
  -23.3235   35.5867  -45.9678 C   0  0  0  0  0  0  0  0  0  0  0  0
  -26.7870   31.1279  -43.8050 C   0  0  0  0  0  0  0  0  0  0  0  0
  -24.6319   35.6517  -45.4594 C   0  0  0  0  0  0  0  0  0  0  0  0
  -22.1326   32.2089  -44.1591 C   0  0  0  0  0  0  0  0  0  0  0  0
  -20.2439   30.2844  -44.7525 C   0  0  0  0  0  0  0  0  0  0  0  0
  -21.4541   30.2820  -45.4603 C   0  0  0  0  0  0  0  0  0  0  0  0
  -25.1491   34.6955  -44.4537 C   0  0  0  0  0  0  0  0  0  0  0  0
  -23.7986   37.8695  -46.7891 C   0  0  0  0  0  0  0  0  0  0  0  0
  -25.2804   29.9113  -42.6165 C   0  0  0  0  0  0  0  0  0  0  0  0
  -23.0313   33.2241  -43.8281 N   0  0  0  0  0  0  0  0  0  0  0  0
  -26.1839   35.4652  -43.7740 C   0  0  0  0  0  0  0  0  0  0  0  0
  1  4  1  0
  1 16  1  0
  2  6  2  3
  2  7  1  0
  3 10  1  0
  3 16  1  0
  3 20  1  0
  3 27  1  0
  4  8  1  0
  5  7  1  0
  5 28  1  0
  6 26  1  0
  6 29  1  0
  7 21  1  0
  8 10  1  0
  9 12  1  0
  9 15  1  0
 11 21  1  0
 11 28  1  0
 13 14  2  0
 13 23  1  0
 14 24  1  0
 15 18  1  0
 15 30  1  0
 16 19  1  0
 17 23  2  0
 17 25  1  0
 18 19  1  0
 19 22  1  0
 20 22  1  0
 22 26  1  0
 23 29  1  0
 24 25  2  0
 26 30  1  0
M  END
>  <ID>  (1) 
conformer_0

$$$$
