
     RDKit          3D

 15 15  0  0  0  0  0  0  0  0999 V2000
  -23.6955   37.9627  -45.7230 C   0  0  0  0  0  0  0  0  0  0  0  0
  -21.3784   35.1732  -46.1081 C   0  0  0  0  0  0  0  0  0  0  0  0
  -22.6351   36.4576  -48.1216 C   0  0  0  0  0  0  0  0  0  0  0  0
  -25.0322   33.3862  -43.7823 C   0  0  0  0  0  0  0  0  0  0  0  0
  -23.5478   36.4793  -45.7569 C   0  0  0  0  0  0  0  0  0  0  0  0
  -22.5313   35.9238  -46.6797 C   0  0  0  0  0  0  0  0  0  0  0  0
  -27.6501   33.0046  -43.7045 C   0  0  0  0  0  0  0  0  0  0  0  0
  -26.1437   31.1109  -43.9535 C   0  0  0  0  0  0  0  0  0  0  0  0
  -26.2160   32.5265  -43.3473 C   0  0  0  0  0  0  0  0  0  0  0  0
  -21.6924   33.9296  -45.3362 C   0  0  0  0  0  0  0  0  0  0  0  0
  -26.7434   35.2266  -44.4192 C   0  0  0  0  0  0  0  0  0  0  0  0
  -27.5842   30.6679  -43.9044 C   0  0  0  0  0  0  0  0  0  0  0  0
  -27.7294   34.5477  -43.4711 C   0  0  0  0  0  0  0  0  0  0  0  0
  -25.3275   34.8262  -44.0838 C   0  0  0  0  0  0  0  0  0  0  0  0
  -24.2794   35.5995  -44.8442 C   0  0  0  0  0  0  0  0  0  0  0  0
  1  5  1  0
  2  6  1  0
  2 10  1  0
  3  6  1  0
  4  9  1  0
  4 14  1  0
  5  6  1  0
  5 15  2  0
  7  9  1  0
  7 13  1  0
  8  9  1  0
  8 12  1  0
 11 13  1  0
 11 14  1  0
 14 15  2  0
M  END
>  <ID>  (1) 
conformer_0

$$$$
