
     RDKit          3D

 15 17  0  0  0  0  0  0  0  0999 V2000
  -22.1480   35.7286  -45.7982 C   0  0  0  0  0  0  0  0  0  0  0  0
  -26.5690   31.6117  -44.2711 C   0  0  0  0  0  0  0  0  0  0  0  0
  -26.1023   33.0490  -44.4121 C   0  0  0  0  0  0  0  0  0  0  0  0
  -24.5191   35.7865  -45.2908 C   0  0  0  0  0  0  0  0  0  0  0  0
  -26.0087   36.0600  -45.2341 C   0  0  0  0  0  0  0  0  0  0  0  0
  -23.9671   34.4174  -45.0230 C   0  0  0  0  0  0  0  0  0  0  0  0
  -22.4400   32.2162  -44.5942 C   0  0  0  0  0  0  0  0  0  0  0  0
  -27.9706   31.3114  -43.7800 C   0  0  0  0  0  0  0  0  0  0  0  0
  -23.4221   36.6236  -45.8317 C   0  0  0  0  0  0  0  0  0  0  0  0
  -23.7903   32.1229  -44.3595 C   0  0  0  0  0  0  0  0  0  0  0  0
  -21.8458   33.3137  -45.0738 N   0  0  0  0  0  0  0  0  0  0  0  0
  -27.2994   33.9806  -44.3815 C   0  0  0  0  0  0  0  0  0  0  0  0
  -22.6042   34.4370  -45.2771 C   0  0  0  0  0  0  0  0  0  0  0  0
  -24.5700   33.2294  -44.6044 C   0  0  0  0  0  0  0  0  0  0  0  0
  -27.0322   35.4585  -44.2708 C   0  0  0  0  0  0  0  0  0  0  0  0
  1  9  1  0
  1 13  1  0
  2  3  1  0
  2  8  1  0
  3 12  2  0
  3 14  1  0
  4  5  1  0
  4  6  1  0
  4  9  1  0
  5 15  1  0
  6 13  2  0
  6 14  1  0
  7 10  1  0
  7 11  2  0
 10 14  2  0
 11 13  1  0
 12 15  1  0
M  END
>  <ID>  (1) 
conformer_0

$$$$
