
     RDKit          3D

 30 34  0  0  0  0  0  0  0  0999 V2000
  -22.6018   35.7969  -46.3441 C   0  0  0  0  0  0  0  0  0  0  0  0
  -20.3760   31.6471  -44.3343 C   0  0  0  0  0  0  0  0  0  0  0  0
  -28.3650   36.6902  -44.4854 O   0  0  0  0  0  0  0  0  0  0  0  0
  -27.6924   32.0310  -43.8206 C   0  0  0  0  0  0  0  0  0  0  0  0
  -27.7570   35.5328  -44.7543 C   0  0  0  0  0  0  0  0  0  0  0  0
  -24.0480   31.3122  -43.9244 C   0  0  0  0  0  0  0  0  0  0  0  0
  -24.4141   37.1913  -47.9026 C   0  0  0  0  0  0  0  0  0  0  0  0
  -22.8544   33.9935  -44.9002 C   0  0  0  0  0  0  0  0  0  0  0  0
  -23.9774   35.8005  -46.1485 C   0  0  0  0  0  0  0  0  0  0  0  0
  -20.7509   33.0267  -44.5300 C   0  0  0  0  0  0  0  0  0  0  0  0
  -21.4875   29.5725  -45.2339 C   0  0  0  0  0  0  0  0  0  0  0  0
  -26.6748   35.1911  -42.5155 C   0  0  0  0  0  0  0  0  0  0  0  0
  -22.3310   32.8787  -44.5320 C   0  0  0  0  0  0  0  0  0  0  0  0
  -25.1517   32.0666  -44.3158 C   0  0  0  0  0  0  0  0  0  0  0  0
  -23.0486   37.2297  -48.1690 C   0  0  0  0  0  0  0  0  0  0  0  0
  -22.6813   31.5523  -44.2252 C   0  0  0  0  0  0  0  0  0  0  0  0
  -26.3286   36.3800  -46.4990 C   0  0  0  0  0  0  0  0  0  0  0  0
  -25.8227   30.3829  -43.0067 C   0  0  0  0  0  0  0  0  0  0  0  0
  -20.6192   34.3748  -45.0101 C   0  0  0  0  0  0  0  0  0  0  0  0
  -26.2677   31.5259  -43.7414 C   0  0  0  0  0  0  0  0  0  0  0  0
  -24.8867   36.4293  -46.8218 C   0  0  0  0  0  0  0  0  0  0  0  0
  -27.5268   34.6434  -43.5861 C   0  0  0  0  0  0  0  0  0  0  0  0
  -22.1125   36.5466  -47.3775 C   0  0  0  0  0  0  0  0  0  0  0  0
  -26.8515   35.1953  -45.8612 N   0  0  0  0  0  0  0  0  0  0  0  0
  -28.5569   31.0170  -43.9492 O   0  0  0  0  0  0  0  0  0  0  0  0
  -21.5218   30.7621  -44.3466 C   0  0  0  0  0  0  0  0  0  0  0  0
  -28.1397   33.3435  -43.5293 C   0  0  0  0  0  0  0  0  0  0  0  0
  -24.4689   30.2805  -43.0918 O   0  0  0  0  0  0  0  0  0  0  0  0
  -21.8924   34.9136  -45.4423 C   0  0  0  0  0  0  0  0  0  0  0  0
  -26.6631   29.3785  -42.1898 C   0  0  0  0  0  0  0  0  0  0  0  0
  1  9  2  0
  1 23  1  0
  1 29  1  0
  2 10  1  0
  2 26  1  0
  3  5  2  0
  4 20  1  0
  4 25  1  0
  4 27  1  0
  5 22  1  0
  5 24  1  0
  6 14  1  0
  6 16  1  0
  6 28  1  0
  7 15  1  0
  7 21  2  0
  8 13  1  0
  8 29  1  0
  9 21  1  0
 10 13  2  0
 10 19  1  0
 11 26  1  0
 12 22  1  0
 13 16  1  0
 14 20  1  0
 15 23  2  0
 16 26  1  0
 17 21  1  0
 17 24  1  0
 18 20  2  0
 18 28  1  0
 18 30  1  0
 19 29  1  0
 22 27  1  0
M  END
>  <ID>  (1) 
conformer_0

$$$$
