
     RDKit          3D

 17 19  0  0  0  0  0  0  0  0999 V2000
  -20.9455   33.9105  -45.3656 C   0  0  0  0  0  0  0  0  0  0  0  0
  -23.6386   33.9014  -44.8737 C   0  0  0  0  0  0  0  0  0  0  0  0
  -27.4300   34.0334  -44.1771 C   0  0  0  0  0  0  0  0  0  0  0  0
  -26.5326   30.9314  -43.8510 C   0  0  0  0  0  0  0  0  0  0  0  0
  -25.3342   35.4673  -45.1763 C   0  0  0  0  0  0  0  0  0  0  0  0
  -21.7111   35.0466  -45.6245 C   0  0  0  0  0  0  0  0  0  0  0  0
  -24.0177   36.0483  -45.5790 C   0  0  0  0  0  0  0  0  0  0  0  0
  -22.8932   32.7861  -44.5946 C   0  0  0  0  0  0  0  0  0  0  0  0
  -25.0415   34.1673  -44.6662 C   0  0  0  0  0  0  0  0  0  0  0  0
  -26.3142   36.2239  -44.4680 C   0  0  0  0  0  0  0  0  0  0  0  0
  -23.0484   35.0267  -45.3955 C   0  0  0  0  0  0  0  0  0  0  0  0
  -21.5618   32.7708  -44.8590 C   0  0  0  0  0  0  0  0  0  0  0  0
  -26.1176   33.3077  -44.3210 C   0  0  0  0  0  0  0  0  0  0  0  0
  -24.0158   37.3548  -46.6530 S   0  0  0  0  0  0  0  0  0  0  0  0
  -26.0254   31.9212  -44.8111 C   0  0  0  0  0  0  0  0  0  0  0  0
  -27.9724   31.1371  -43.4860 C   0  0  0  0  0  0  0  0  0  0  0  0
  -27.3100   35.4561  -43.7509 C   0  0  0  0  0  0  0  0  0  0  0  0
  1  6  2  0
  1 12  1  0
  2  8  1  0
  2  9  1  0
  2 11  2  0
  3 13  1  0
  3 17  1  0
  4 15  1  0
  4 16  1  0
  5  7  1  0
  5  9  1  0
  5 10  1  0
  6 11  1  0
  7 11  1  0
  7 14  2  0
  8 12  2  0
  9 13  1  0
 10 17  1  0
 13 15  1  0
M  END
>  <ID>  (1) 
conformer_0

$$$$
