
     RDKit          3D

 20 21  0  0  0  0  0  0  0  0999 V2000
  -21.3945   34.4570  -45.2585 C   0  0  0  0  0  0  0  0  0  0  0  0
  -21.5732   30.6367  -45.4661 C   0  0  0  0  0  0  0  0  0  0  0  0
  -21.1242   31.9600  -44.7738 C   0  0  0  0  0  0  0  0  0  0  0  0
  -25.3094   31.0799  -43.5316 C   0  0  0  0  0  0  0  0  0  0  0  0
  -21.8534   36.8714  -45.8285 C   0  0  0  0  0  0  0  0  0  0  0  0
  -27.7115   31.5684  -43.9451 O   0  0  0  0  0  0  0  0  0  0  0  0
  -24.5501   35.9625  -46.7018 C   0  0  0  0  0  0  0  0  0  0  0  0
  -25.6577   34.3222  -44.7188 C   0  0  0  0  0  0  0  0  0  0  0  0
  -24.3041   34.2127  -45.0827 C   0  0  0  0  0  0  0  0  0  0  0  0
  -23.4273   33.1255  -44.6482 C   0  0  0  0  0  0  0  0  0  0  0  0
  -26.2363   33.4750  -43.5506 C   0  0  0  0  0  0  0  0  0  0  0  0
  -26.4372   35.3180  -45.3780 C   0  0  0  0  0  0  0  0  0  0  0  0
  -26.9116   34.5615  -42.6336 C   0  0  0  0  0  0  0  0  0  0  0  0
  -23.6869   35.1679  -45.9318 C   0  0  0  0  0  0  0  0  0  0  0  0
  -25.8957   36.0303  -46.4512 C   0  0  0  0  0  0  0  0  0  0  0  0
  -26.4696   36.0210  -42.6590 O   0  0  0  0  0  0  0  0  0  0  0  0
  -26.3833   32.0084  -43.9122 C   0  0  0  0  0  0  0  0  0  0  0  0
  -27.7366   35.6511  -45.0267 O   0  0  0  0  0  0  0  0  0  0  0  0
  -22.0742   33.1212  -45.1284 C   0  0  0  0  0  0  0  0  0  0  0  0
  -22.2228   35.4320  -45.9719 C   0  0  0  0  0  0  0  0  0  0  0  0
  1 19  1  0
  1 20  1  0
  2  3  1  0
  3 19  1  0
  4 17  1  0
  5 20  1  0
  6 17  1  0
  7 14  1  0
  7 15  2  0
  8  9  1  0
  8 11  1  0
  8 12  2  0
  9 10  2  0
  9 14  1  0
 10 19  1  0
 11 13  1  0
 11 17  1  0
 12 15  1  0
 12 18  1  0
 13 16  1  0
 14 20  1  0
M  END
>  <ID>  (1) 
conformer_0

$$$$
