
     RDKit          3D

 23 26  0  0  0  0  0  0  0  0999 V2000
  -24.9794   35.3802  -44.7625 O   0  0  0  0  0  0  0  0  0  0  0  0
  -21.1158   36.4930  -45.9931 C   0  0  0  0  0  0  0  0  0  0  0  0
  -26.6028   33.6994  -44.8910 C   0  0  0  0  0  0  0  0  0  0  0  0
  -22.1881   30.6658  -43.6999 C   0  0  0  0  0  0  0  0  0  0  0  0
  -26.1415   33.6648  -42.3938 O   0  0  0  0  0  0  0  0  0  0  0  0
  -26.7231   36.3659  -42.3786 O   0  0  0  0  0  0  0  0  0  0  0  0
  -27.3220   36.0171  -44.8971 C   0  0  0  0  0  0  0  0  0  0  0  0
  -23.5210   36.5459  -46.1619 C   0  0  0  0  0  0  0  0  0  0  0  0
  -22.4940   34.6574  -45.0964 C   0  0  0  0  0  0  0  0  0  0  0  0
  -22.4532   33.2887  -44.6638 C   0  0  0  0  0  0  0  0  0  0  0  0
  -26.8144   34.1924  -43.3950 C   0  0  0  0  0  0  0  0  0  0  0  0
  -25.1429   32.9144  -44.9286 C   0  0  0  0  0  0  0  0  0  0  0  0
  -22.2859   37.0764  -46.4795 C   0  0  0  0  0  0  0  0  0  0  0  0
  -27.3835   35.6035  -43.4242 C   0  0  0  0  0  0  0  0  0  0  0  0
  -27.9006   33.1124  -45.0527 O   0  0  0  0  0  0  0  0  0  0  0  0
  -23.6770   35.4565  -45.3542 C   0  0  0  0  0  0  0  0  0  0  0  0
  -25.7295   31.5876  -45.2243 O   0  0  0  0  0  0  0  0  0  0  0  0
  -21.0569   31.4192  -43.9578 C   0  0  0  0  0  0  0  0  0  0  0  0
  -23.4369   31.2270  -43.9755 C   0  0  0  0  0  0  0  0  0  0  0  0
  -26.2390   35.0769  -45.5261 C   0  0  0  0  0  0  0  0  0  0  0  0
  -21.1960   32.6834  -44.4252 C   0  0  0  0  0  0  0  0  0  0  0  0
  -21.2548   35.2864  -45.3506 C   0  0  0  0  0  0  0  0  0  0  0  0
  -23.6519   32.4962  -44.5068 C   0  0  0  0  0  0  0  0  0  0  0  0
  1 16  1  0
  1 20  1  0
  2 13  1  0
  2 22  2  0
  3 11  1  0
  3 12  1  0
  3 15  1  0
  3 20  1  0
  4 18  1  0
  4 19  2  0
  5 11  1  0
  6 14  1  0
  7 14  1  0
  7 20  1  0
  8 13  2  0
  8 16  1  0
  9 10  1  0
  9 16  1  0
  9 22  1  0
 10 21  1  0
 10 23  2  0
 11 14  1  0
 12 17  1  0
 12 23  1  0
 18 21  2  0
 19 23  1  0
M  END
>  <ID>  (1) 
conformer_0

$$$$
