
     RDKit          3D

 20 22  0  0  0  0  0  0  0  0999 V2000
  -26.9922   34.9426  -42.7962 C   0  0  0  0  0  0  0  0  0  0  0  0
  -23.6630   35.7316  -46.3438 C   0  0  0  0  0  0  0  0  0  0  0  0
  -21.8553   32.9493  -44.8612 C   0  0  0  0  0  0  0  0  0  0  0  0
  -23.4123   34.6502  -45.4365 C   0  0  0  0  0  0  0  0  0  0  0  0
  -22.6457   37.1369  -48.0175 C   0  0  0  0  0  0  0  0  0  0  0  0
  -22.6870   30.8777  -44.1243 O   0  0  0  0  0  0  0  0  0  0  0  0
  -24.4670   33.9404  -44.8461 C   0  0  0  0  0  0  0  0  0  0  0  0
  -26.8318   33.9153  -43.9757 C   0  0  0  0  0  0  0  0  0  0  0  0
  -25.7926   34.4764  -44.8272 O   0  0  0  0  0  0  0  0  0  0  0  0
  -26.0780   30.9842  -44.0308 C   0  0  0  0  0  0  0  0  0  0  0  0
  -24.2090   32.6623  -44.3074 C   0  0  0  0  0  0  0  0  0  0  0  0
  -25.1611   31.9181  -43.6434 O   0  0  0  0  0  0  0  0  0  0  0  0
  -27.8102   32.7162  -43.6690 C   0  0  0  0  0  0  0  0  0  0  0  0
  -22.5345   36.3658  -46.9013 C   0  0  0  0  0  0  0  0  0  0  0  0
  -22.9070   32.1646  -44.4241 C   0  0  0  0  0  0  0  0  0  0  0  0
  -27.5384   31.2062  -43.7609 C   0  0  0  0  0  0  0  0  0  0  0  0
  -24.9142   36.0262  -46.8320 C   0  0  0  0  0  0  0  0  0  0  0  0
  -22.1184   34.2039  -45.2962 C   0  0  0  0  0  0  0  0  0  0  0  0
  -25.0396   36.7769  -47.9497 C   0  0  0  0  0  0  0  0  0  0  0  0
  -23.9074   37.3173  -48.5601 C   0  0  0  0  0  0  0  0  0  0  0  0
  1  8  1  0
  2  4  2  3
  2 14  1  0
  2 17  1  0
  3 15  2  0
  3 18  1  0
  4  7  1  0
  4 18  1  0
  5 14  2  0
  5 20  1  0
  6 15  1  0
  7  9  1  0
  7 11  2  0
  8  9  1  0
  8 13  1  0
 10 12  1  0
 10 16  1  0
 11 12  1  0
 11 15  1  0
 13 16  1  0
 17 19  2  0
 19 20  1  0
M  END
>  <ID>  (1) 
conformer_0

$$$$
