
     RDKit          3D

 24 26  0  0  0  0  0  0  0  0999 V2000
  -22.4035   35.5840  -46.7685 C   0  0  0  0  0  0  0  0  0  0  0  0
  -23.6733   36.2510  -46.8379 C   0  0  0  0  0  0  0  0  0  0  0  0
  -25.1642   35.3030  -44.9945 C   0  0  0  0  0  0  0  0  0  0  0  0
  -26.6092   33.1553  -44.0191 C   0  0  0  0  0  0  0  0  0  0  0  0
  -21.7920   30.5778  -45.3139 C   0  0  0  0  0  0  0  0  0  0  0  0
  -27.1439   36.7337  -44.9485 O   0  0  0  0  0  0  0  0  0  0  0  0
  -21.4717   35.9205  -47.5923 O   0  0  0  0  0  0  0  0  0  0  0  0
  -26.4845   35.6266  -44.2946 C   0  0  0  0  0  0  0  0  0  0  0  0
  -23.0549   33.9269  -45.0525 C   0  0  0  0  0  0  0  0  0  0  0  0
  -21.5772   32.0633  -44.3396 C   0  0  0  0  0  0  0  0  0  0  0  0
  -27.3622   34.4040  -44.2214 C   0  0  0  0  0  0  0  0  0  0  0  0
  -24.6886   36.0756  -45.9863 C   0  0  0  0  0  0  0  0  0  0  0  0
  -26.4868   35.9510  -42.7757 C   0  0  0  0  0  0  0  0  0  0  0  0
  -25.1754   33.0585  -44.0157 C   0  0  0  0  0  0  0  0  0  0  0  0
  -20.6187   31.4114  -45.2588 C   0  0  0  0  0  0  0  0  0  0  0  0
  -23.8479   37.2122  -47.9579 C   0  0  0  0  0  0  0  0  0  0  0  0
  -21.4007   31.4648  -42.9233 C   0  0  0  0  0  0  0  0  0  0  0  0
  -24.4327   34.1277  -44.6387 C   0  0  0  0  0  0  0  0  0  0  0  0
  -22.2275   34.6079  -45.8536 C   0  0  0  0  0  0  0  0  0  0  0  0
  -26.7103   30.8186  -43.3449 C   0  0  0  0  0  0  0  0  0  0  0  0
  -22.5170   32.7846  -44.6637 O   0  0  0  0  0  0  0  0  0  0  0  0
  -25.3434   30.7929  -43.1267 C   0  0  0  0  0  0  0  0  0  0  0  0
  -27.3522   31.9917  -43.7875 C   0  0  0  0  0  0  0  0  0  0  0  0
  -24.6252   31.9121  -43.4630 C   0  0  0  0  0  0  0  0  0  0  0  0
  1  2  1  0
  1  7  1  0
  1 19  2  0
  2 12  2  0
  2 16  1  0
  3  8  1  0
  3 12  1  0
  3 18  1  0
  4 11  1  0
  4 14  1  0
  4 23  1  0
  5 15  1  0
  6  8  1  0
  8 11  1  0
  8 13  1  0
  9 18  2  0
  9 19  1  0
  9 21  1  0
 10 15  1  0
 10 17  1  0
 10 21  1  0
 14 18  1  0
 14 24  1  0
 20 22  1  0
 20 23  2  0
 22 24  2  0
M  END
>  <ID>  (1) 
conformer_0

$$$$
