
     RDKit          3D

 28 30  0  0  0  0  0  0  0  0999 V2000
  -23.9940   32.9592  -44.2087 C   0  0  0  0  0  0  0  0  0  0  0  0
  -22.7693   32.2296  -43.8514 C   0  0  0  0  0  0  0  0  0  0  0  0
  -26.5902   36.3419  -45.7880 C   0  0  0  0  0  0  0  0  0  0  0  0
  -27.8484   35.6402  -43.1770 O   0  0  0  0  0  0  0  0  0  0  0  0
  -23.1024   37.7471  -45.6653 C   0  0  0  0  0  0  0  0  0  0  0  0
  -28.3156   31.5056  -44.4728 O   0  0  0  0  0  0  0  0  0  0  0  0
  -22.8999   30.7534  -43.6931 C   0  0  0  0  0  0  0  0  0  0  0  0
  -20.7463   29.2805  -44.0264 O   0  0  0  0  0  0  0  0  0  0  0  0
  -25.3597   32.5037  -43.7900 C   0  0  0  0  0  0  0  0  0  0  0  0
  -21.4994   32.6479  -44.5457 C   0  0  0  0  0  0  0  0  0  0  0  0
  -25.0111   35.1832  -44.1849 C   0  0  0  0  0  0  0  0  0  0  0  0
  -23.8400   34.3601  -44.5996 O   0  0  0  0  0  0  0  0  0  0  0  0
  -23.8668   37.0537  -48.7916 C   0  0  0  0  0  0  0  0  0  0  0  0
  -23.3591   36.2241  -47.6363 C   0  0  0  0  0  0  0  0  0  0  0  0
  -20.4129   31.7382  -44.0205 C   0  0  0  0  0  0  0  0  0  0  0  0
  -27.3405   34.3216  -42.7536 C   0  0  0  0  0  0  0  0  0  0  0  0
  -27.0671   33.7907  -45.0310 C   0  0  0  0  0  0  0  0  0  0  0  0
  -26.2019   35.0405  -45.1393 C   0  0  0  0  0  0  0  0  0  0  0  0
  -24.0008   36.6613  -46.2998 C   0  0  0  0  0  0  0  0  0  0  0  0
  -20.1584   30.3265  -46.0816 C   0  0  0  0  0  0  0  0  0  0  0  0
  -26.7623   33.1378  -43.6058 C   0  0  0  0  0  0  0  0  0  0  0  0
  -25.2956   31.1611  -43.2140 C   0  0  0  0  0  0  0  0  0  0  0  0
  -26.6848   30.7288  -42.9128 C   0  0  0  0  0  0  0  0  0  0  0  0
  -20.3680   30.3494  -44.6069 C   0  0  0  0  0  0  0  0  0  0  0  0
  -27.6538   31.9053  -43.2351 C   0  0  0  0  0  0  0  0  0  0  0  0
  -21.8411   36.0472  -47.5419 C   0  0  0  0  0  0  0  0  0  0  0  0
  -25.4626   37.0842  -46.5037 C   0  0  0  0  0  0  0  0  0  0  0  0
  -24.1447   30.3020  -43.1103 C   0  0  0  0  0  0  0  0  0  0  0  0
  1  2  1  0
  1  9  1  0
  1 12  1  0
  2  7  1  0
  2 10  1  0
  3 18  1  0
  3 27  2  3
  4 16  1  0
  5 19  1  0
  6 25  1  0
  7 28  1  0
  8 24  2  0
  9 21  1  0
  9 22  1  0
 10 15  1  0
 11 12  1  0
 11 18  1  0
 13 14  1  0
 14 19  1  0
 14 26  1  0
 15 24  1  0
 16 21  1  0
 17 18  1  0
 17 21  1  0
 19 27  1  0
 20 24  1  0
 21 25  1  0
 22 23  1  0
 22 28  2  0
 23 25  1  0
M  END
>  <ID>  (1) 
conformer_0

$$$$
