
     RDKit          3D

 21 23  0  0  0  0  0  0  0  0999 V2000
  -25.7988   36.9182  -45.4529 N   0  0  0  0  0  0  0  0  0  0  0  0
  -21.6426   34.1783  -44.9827 C   0  0  0  0  0  0  0  0  0  0  0  0
  -22.9528   33.8161  -44.8866 C   0  0  0  0  0  0  0  0  0  0  0  0
  -27.1442   34.7098  -43.0057 C   0  0  0  0  0  0  0  0  0  0  0  0
  -23.2841   32.4790  -44.5378 C   0  0  0  0  0  0  0  0  0  0  0  0
  -24.5340   32.0206  -44.4335 N   0  0  0  0  0  0  0  0  0  0  0  0
  -24.0282   34.7851  -45.1164 C   0  0  0  0  0  0  0  0  0  0  0  0
  -23.0060   37.3839  -48.1804 C   0  0  0  0  0  0  0  0  0  0  0  0
  -22.2443   31.5720  -44.3331 C   0  0  0  0  0  0  0  0  0  0  0  0
  -28.1497   31.2402  -43.5541 C   0  0  0  0  0  0  0  0  0  0  0  0
  -24.4720   37.1527  -45.7788 C   0  0  0  0  0  0  0  0  0  0  0  0
  -22.4092   37.6871  -46.7932 C   0  0  0  0  0  0  0  0  0  0  0  0
  -23.6025   35.9978  -45.6662 C   0  0  0  0  0  0  0  0  0  0  0  0
  -20.6408   33.3189  -44.7819 C   0  0  0  0  0  0  0  0  0  0  0  0
  -22.3278   36.3238  -46.1823 O   0  0  0  0  0  0  0  0  0  0  0  0
  -20.9535   31.9993  -44.4598 C   0  0  0  0  0  0  0  0  0  0  0  0
  -25.4528   34.4976  -44.8436 C   0  0  0  0  0  0  0  0  0  0  0  0
  -26.9011   31.1411  -44.4053 C   0  0  0  0  0  0  0  0  0  0  0  0
  -25.8651   32.1699  -44.1366 C   0  0  0  0  0  0  0  0  0  0  0  0
  -26.3546   33.6107  -43.9369 C   0  0  0  0  0  0  0  0  0  0  0  0
  -26.3242   35.5548  -45.5404 C   0  0  0  0  0  0  0  0  0  0  0  0
  1 11  1  0
  1 21  1  0
  2  3  1  0
  2 14  2  0
  3  5  1  0
  3  7  2  0
  4 20  1  0
  5  6  1  0
  5  9  2  0
  6 19  2  0
  7 13  1  0
  7 17  1  0
  8 12  1  0
  9 16  1  0
 10 18  1  0
 11 13  1  0
 12 15  1  0
 13 15  1  0
 14 16  1  0
 17 20  1  0
 17 21  1  0
 18 19  1  0
 19 20  1  0
M  END
>  <ID>  (1) 
conformer_0

$$$$
