
     RDKit          3D

 20 24  0  0  0  0  0  0  0  0999 V2000
  -22.5417   34.8502  -45.3661 C   0  0  0  0  0  0  0  0  0  0  0  0
  -26.8415   30.7838  -43.5948 S   0  0  0  0  0  0  0  0  0  0  0  0
  -24.6907   32.5432  -43.5326 C   0  0  0  0  0  0  0  0  0  0  0  0
  -23.5123   34.1330  -44.7231 C   0  0  0  0  0  0  0  0  0  0  0  0
  -20.9872   33.4060  -44.3651 C   0  0  0  0  0  0  0  0  0  0  0  0
  -27.7592   34.7571  -43.5769 C   0  0  0  0  0  0  0  0  0  0  0  0
  -27.5498   36.0526  -44.1096 N   0  0  0  0  0  0  0  0  0  0  0  0
  -24.1414   37.4363  -47.4000 C   0  0  0  0  0  0  0  0  0  0  0  0
  -21.9982   32.6835  -43.7495 C   0  0  0  0  0  0  0  0  0  0  0  0
  -23.3415   33.0623  -43.9518 C   0  0  0  0  0  0  0  0  0  0  0  0
  -27.8518   32.2438  -43.7990 C   0  0  0  0  0  0  0  0  0  0  0  0
  -21.2624   34.4920  -45.1869 C   0  0  0  0  0  0  0  0  0  0  0  0
  -25.1369   36.7131  -46.7553 C   0  0  0  0  0  0  0  0  0  0  0  0
  -25.0706   31.1113  -43.4379 C   0  0  0  0  0  0  0  0  0  0  0  0
  -24.6023   35.7546  -45.9461 C   0  0  0  0  0  0  0  0  0  0  0  0
  -23.1653   35.8410  -46.0987 C   0  0  0  0  0  0  0  0  0  0  0  0
  -22.8387   36.8705  -46.9798 S   0  0  0  0  0  0  0  0  0  0  0  0
  -27.1449   33.5869  -44.2906 C   0  0  0  0  0  0  0  0  0  0  0  0
  -24.8961   34.5979  -44.9801 C   0  0  0  0  0  0  0  0  0  0  0  0
  -25.6716   33.4847  -44.2300 C   0  0  0  0  0  0  0  0  0  0  0  0
  1  4  1  0
  1 12  2  0
  1 16  1  0
  2 11  1  0
  2 14  1  0
  3 10  1  0
  3 14  1  0
  3 20  1  0
  4 10  2  0
  4 19  1  0
  5  9  2  0
  5 12  1  0
  6  7  1  0
  6 18  1  0
  8 13  1  0
  8 17  1  0
  9 10  1  0
 11 18  1  0
 13 15  1  0
 15 16  2  0
 15 19  1  0
 16 17  1  0
 18 20  1  0
 19 20  1  0
M  END
>  <ID>  (1) 
conformer_0

$$$$
