
     RDKit          3D

 24 27  0  0  0  0  0  0  0  0999 V2000
  -25.4950   36.9121  -47.2892 C   0  0  0  0  0  0  0  0  0  0  0  0
  -26.2528   35.7878  -43.5403 C   0  0  0  0  0  0  0  0  0  0  0  0
  -23.4095   34.0903  -44.6170 C   0  0  0  0  0  0  0  0  0  0  0  0
  -24.1932   36.2227  -47.6510 C   0  0  0  0  0  0  0  0  0  0  0  0
  -25.5958   37.2291  -45.7157 C   0  0  0  0  0  0  0  0  0  0  0  0
  -25.4715   33.0042  -43.6659 C   0  0  0  0  0  0  0  0  0  0  0  0
  -21.7450   36.4216  -47.9331 C   0  0  0  0  0  0  0  0  0  0  0  0
  -24.3813   35.1368  -45.0984 C   0  0  0  0  0  0  0  0  0  0  0  0
  -27.6033   34.7386  -43.5443 C   0  0  0  0  0  0  0  0  0  0  0  0
  -28.3125   35.4514  -44.7843 C   0  0  0  0  0  0  0  0  0  0  0  0
  -25.6326   31.6737  -43.1149 N   0  0  0  0  0  0  0  0  0  0  0  0
  -22.0532   34.1396  -44.8388 C   0  0  0  0  0  0  0  0  0  0  0  0
  -22.7315   37.6743  -45.9523 C   0  0  0  0  0  0  0  0  0  0  0  0
  -26.6519   29.6295  -42.7738 C   0  0  0  0  0  0  0  0  0  0  0  0
  -27.7433   32.1522  -43.7914 C   0  0  0  0  0  0  0  0  0  0  0  0
  -26.9144   33.4196  -44.0403 C   0  0  0  0  0  0  0  0  0  0  0  0
  -25.7734   35.7581  -45.0347 C   0  0  0  0  0  0  0  0  0  0  0  0
  -26.7450   30.9511  -43.6145 C   0  0  0  0  0  0  0  0  0  0  0  0
  -23.1581   31.9164  -43.6461 C   0  0  0  0  0  0  0  0  0  0  0  0
  -21.2690   33.0715  -44.5270 C   0  0  0  0  0  0  0  0  0  0  0  0
  -23.9548   32.9941  -43.9708 C   0  0  0  0  0  0  0  0  0  0  0  0
  -22.8728   36.5545  -46.9600 C   0  0  0  0  0  0  0  0  0  0  0  0
  -27.1401   35.4064  -45.8520 C   0  0  0  0  0  0  0  0  0  0  0  0
  -21.8184   31.9394  -43.9406 C   0  0  0  0  0  0  0  0  0  0  0  0
  1  4  1  0
  1  5  1  0
  2  9  1  0
  2 17  1  0
  3  8  1  0
  3 12  1  0
  3 21  2  0
  4 22  1  0
  5 17  1  0
  6 11  1  0
  6 16  1  0
  6 21  1  0
  7 22  1  0
  8 17  1  0
  9 10  1  0
  9 16  1  0
 10 23  1  0
 11 18  1  0
 12 20  2  0
 13 22  1  0
 14 18  1  0
 15 16  1  0
 15 18  1  0
 17 23  1  0
 19 21  1  0
 19 24  2  0
 20 24  1  0
M  END
>  <ID>  (1) 
conformer_0

$$$$
