
     RDKit          3D

 17 18  0  0  0  0  0  0  0  0999 V2000
  -27.8719   33.4201  -43.8105 C   0  0  0  0  0  0  0  0  0  0  0  0
  -24.3902   33.2148  -44.8270 O   0  0  0  0  0  0  0  0  0  0  0  0
  -20.5731   32.2734  -44.5893 C   0  0  0  0  0  0  0  0  0  0  0  0
  -21.5624   31.3461  -44.8490 C   0  0  0  0  0  0  0  0  0  0  0  0
  -23.7598   37.7389  -46.2099 C   0  0  0  0  0  0  0  0  0  0  0  0
  -24.5452   35.6995  -45.3591 C   0  0  0  0  0  0  0  0  0  0  0  0
  -26.7188   32.8294  -44.3315 C   0  0  0  0  0  0  0  0  0  0  0  0
  -26.8574   35.6036  -44.1246 N   0  0  0  0  0  0  0  0  0  0  0  0
  -25.7461   35.0696  -44.6956 C   0  0  0  0  0  0  0  0  0  0  0  0
  -20.8655   33.5867  -44.3234 C   0  0  0  0  0  0  0  0  0  0  0  0
  -25.6251   33.6570  -44.6502 C   0  0  0  0  0  0  0  0  0  0  0  0
  -23.1318   33.0546  -44.6670 C   0  0  0  0  0  0  0  0  0  0  0  0
  -24.7061   36.5340  -46.5693 C   0  0  0  0  0  0  0  0  0  0  0  0
  -26.5836   31.5085  -44.5423 O   0  0  0  0  0  0  0  0  0  0  0  0
  -22.1787   33.9889  -44.3409 C   0  0  0  0  0  0  0  0  0  0  0  0
  -27.8657   34.8158  -43.6809 C   0  0  0  0  0  0  0  0  0  0  0  0
  -22.8457   31.7478  -44.8942 C   0  0  0  0  0  0  0  0  0  0  0  0
  1  7  2  0
  1 16  1  0
  2 11  1  0
  2 12  1  0
  3  4  2  0
  3 10  1  0
  4 17  1  0
  5 13  1  0
  6  9  1  0
  6 13  1  0
  7 11  1  0
  7 14  1  0
  8  9  1  0
  8 16  2  0
  9 11  1  0
 10 15  2  0
 12 15  1  0
 12 17  2  0
M  END
>  <ID>  (1) 
conformer_0

$$$$
