
     RDKit          3D

 31 36  0  0  0  0  0  0  0  0999 V2000
  -27.7017   35.8543  -44.3866 C   0  0  0  0  0  0  0  0  0  0  0  0
  -20.9226   30.5439  -46.4127 F   0  0  0  0  0  0  0  0  0  0  0  0
  -19.4784   31.2593  -44.9297 F   0  0  0  0  0  0  0  0  0  0  0  0
  -26.7750   34.1522  -42.5393 C   0  0  0  0  0  0  0  0  0  0  0  0
  -27.7231   35.2446  -42.9825 C   0  0  0  0  0  0  0  0  0  0  0  0
  -23.3540   30.7028  -43.4787 C   0  0  0  0  0  0  0  0  0  0  0  0
  -21.9286   35.6906  -45.2993 O   0  0  0  0  0  0  0  0  0  0  0  0
  -24.5571   30.6052  -43.0059 C   0  0  0  0  0  0  0  0  0  0  0  0
  -20.7522   30.8795  -45.1136 C   0  0  0  0  0  0  0  0  0  0  0  0
  -22.3856   36.8527  -48.7847 C   0  0  0  0  0  0  0  0  0  0  0  0
  -26.3475   33.0569  -43.5750 C   0  0  0  0  0  0  0  0  0  0  0  0
  -25.6427   35.1768  -45.6985 C   0  0  0  0  0  0  0  0  0  0  0  0
  -23.8065   32.8485  -44.1944 C   0  0  0  0  0  0  0  0  0  0  0  0
  -25.4884   36.2680  -46.7214 C   0  0  0  0  0  0  0  0  0  0  0  0
  -27.1532   33.4575  -44.8006 N   0  0  0  0  0  0  0  0  0  0  0  0
  -21.6701   36.4662  -47.5146 C   0  0  0  0  0  0  0  0  0  0  0  0
  -21.6460   32.0433  -44.8069 C   0  0  0  0  0  0  0  0  0  0  0  0
  -21.2676   33.3298  -45.1611 C   0  0  0  0  0  0  0  0  0  0  0  0
  -25.0218   32.7146  -43.7569 C   0  0  0  0  0  0  0  0  0  0  0  0
  -22.1854   34.3516  -45.0566 C   0  0  0  0  0  0  0  0  0  0  0  0
  -26.9267   31.7405  -42.9037 C   0  0  0  0  0  0  0  0  0  0  0  0
  -22.8205   31.8116  -44.1829 C   0  0  0  0  0  0  0  0  0  0  0  0
  -23.5150   34.0872  -44.7282 C   0  0  0  0  0  0  0  0  0  0  0  0
  -27.0625   34.8350  -45.3178 C   0  0  0  0  0  0  0  0  0  0  0  0
  -28.1664   31.2583  -43.6193 C   0  0  0  0  0  0  0  0  0  0  0  0
  -23.8401   36.9382  -48.4222 C   0  0  0  0  0  0  0  0  0  0  0  0
  -23.9918   36.2473  -47.1039 C   0  0  0  0  0  0  0  0  0  0  0  0
  -21.0331   29.8083  -44.3769 F   0  0  0  0  0  0  0  0  0  0  0  0
  -25.9243   30.6729  -42.7391 C   0  0  0  0  0  0  0  0  0  0  0  0
  -24.5072   34.9829  -44.9446 N   0  0  0  0  0  0  0  0  0  0  0  0
  -22.6705   36.3066  -46.3543 C   0  0  0  0  0  0  0  0  0  0  0  0
  1  5  1  0
  1 24  1  0
  2  9  1  0
  3  9  1  0
  4  5  1  0
  4 11  1  0
  6  8  2  0
  6 22  1  0
  7 20  1  0
  7 31  1  0
  8 29  2  0
  9 17  1  0
  9 28  1  0
 10 16  1  0
 10 26  1  0
 11 15  1  0
 11 19  1  0
 11 21  1  0
 12 14  1  0
 12 24  1  0
 12 30  1  0
 13 19  1  0
 13 22  1  0
 13 23  2  0
 14 27  1  0
 15 24  1  0
 16 31  1  0
 17 18  2  0
 17 22  1  0
 18 20  1  0
 20 23  1  0
 21 25  1  0
 21 29  1  0
 23 30  1  0
 26 27  1  0
 27 31  1  0
M  END
>  <ID>  (1) 
conformer_0

$$$$
