
     RDKit          3D

 20 23  0  0  0  0  0  0  0  0999 V2000
  -21.3835   32.9828  -44.9776 C   0  0  0  0  0  0  0  0  0  0  0  0
  -27.5784   34.0286  -44.0060 C   0  0  0  0  0  0  0  0  0  0  0  0
  -23.4037   36.9931  -48.4554 C   0  0  0  0  0  0  0  0  0  0  0  0
  -26.9536   36.3633  -44.1455 O   0  0  0  0  0  0  0  0  0  0  0  0
  -25.2859   33.1419  -44.2524 C   0  0  0  0  0  0  0  0  0  0  0  0
  -22.3182   30.9403  -44.1426 C   0  0  0  0  0  0  0  0  0  0  0  0
  -23.0416   34.7798  -45.5711 C   0  0  0  0  0  0  0  0  0  0  0  0
  -22.6415   33.5639  -44.9674 C   0  0  0  0  0  0  0  0  0  0  0  0
  -22.4790   35.5753  -46.6023 C   0  0  0  0  0  0  0  0  0  0  0  0
  -26.5848   35.1234  -44.0746 N   0  0  0  0  0  0  0  0  0  0  0  0
  -23.5274   36.3116  -47.1697 C   0  0  0  0  0  0  0  0  0  0  0  0
  -24.4350   35.1713  -45.3681 C   0  0  0  0  0  0  0  0  0  0  0  0
  -23.7164   32.8407  -44.4648 C   0  0  0  0  0  0  0  0  0  0  0  0
  -25.3227   34.6614  -44.3822 C   0  0  0  0  0  0  0  0  0  0  0  0
  -26.7885   32.7433  -44.0804 C   0  0  0  0  0  0  0  0  0  0  0  0
  -21.2166   31.6772  -44.5730 C   0  0  0  0  0  0  0  0  0  0  0  0
  -24.6709   36.1115  -46.4175 C   0  0  0  0  0  0  0  0  0  0  0  0
  -23.5408   31.6003  -44.1432 C   0  0  0  0  0  0  0  0  0  0  0  0
  -27.4031   31.5248  -44.2323 N   0  0  0  0  0  0  0  0  0  0  0  0
  -24.7203   31.1359  -43.8196 O   0  0  0  0  0  0  0  0  0  0  0  0
  1  8  1  0
  1 16  2  0
  2 10  1  0
  2 15  1  0
  3 11  1  0
  4 10  1  0
  5 13  1  0
  5 14  1  0
  5 15  2  0
  6 16  1  0
  6 18  1  0
  7  8  1  0
  7  9  1  0
  7 12  1  0
  8 13  1  0
  9 11  1  0
 10 14  1  0
 11 17  1  0
 12 14  1  0
 12 17  1  0
 13 18  2  0
 15 19  1  0
 18 20  1  0
M  END
>  <ID>  (1) 
conformer_0

$$$$
