
     RDKit          3D

 27 31  0  0  0  0  0  0  0  0999 V2000
  -23.2000   36.7198  -46.8431 O   0  0  0  0  0  0  0  0  0  0  0  0
  -25.7928   34.7529  -45.2327 C   0  0  0  0  0  0  0  0  0  0  0  0
  -22.5363   31.6437  -43.6733 C   0  0  0  0  0  0  0  0  0  0  0  0
  -22.2662   30.6858  -44.3945 O   0  0  0  0  0  0  0  0  0  0  0  0
  -23.5607   31.5249  -42.7244 O   0  0  0  0  0  0  0  0  0  0  0  0
  -25.8337   33.6047  -44.2111 C   0  0  0  0  0  0  0  0  0  0  0  0
  -27.1804   31.7735  -43.5614 C   0  0  0  0  0  0  0  0  0  0  0  0
  -25.7594   36.7862  -47.2583 C   0  0  0  0  0  0  0  0  0  0  0  0
  -24.6541   35.3543  -45.7078 C   0  0  0  0  0  0  0  0  0  0  0  0
  -22.4835   35.7344  -46.0845 C   0  0  0  0  0  0  0  0  0  0  0  0
  -21.0453   33.4815  -44.6055 C   0  0  0  0  0  0  0  0  0  0  0  0
  -27.6773   30.5867  -43.1218 C   0  0  0  0  0  0  0  0  0  0  0  0
  -20.6312   34.5012  -45.3246 C   0  0  0  0  0  0  0  0  0  0  0  0
  -23.3444   34.9088  -45.3531 C   0  0  0  0  0  0  0  0  0  0  0  0
  -26.9433   36.1633  -46.8351 C   0  0  0  0  0  0  0  0  0  0  0  0
  -24.8921   31.2002  -42.9394 C   0  0  0  0  0  0  0  0  0  0  0  0
  -26.7654   29.6914  -42.5440 C   0  0  0  0  0  0  0  0  0  0  0  0
  -25.3903   29.9879  -42.4618 C   0  0  0  0  0  0  0  0  0  0  0  0
  -22.2676   32.9639  -44.1929 C   0  0  0  0  0  0  0  0  0  0  0  0
  -27.3112   34.0152  -43.6622 C   0  0  0  0  0  0  0  0  0  0  0  0
  -24.5898   36.3660  -46.6530 C   0  0  0  0  0  0  0  0  0  0  0  0
  -26.9729   35.2334  -45.8380 C   0  0  0  0  0  0  0  0  0  0  0  0
  -21.1712   35.5010  -46.0764 F   0  0  0  0  0  0  0  0  0  0  0  0
  -28.0611   32.8500  -44.0317 O   0  0  0  0  0  0  0  0  0  0  0  0
  -26.9257   35.1157  -42.6367 C   0  0  0  0  0  0  0  0  0  0  0  0
  -25.8653   32.1688  -43.5659 C   0  0  0  0  0  0  0  0  0  0  0  0
  -23.1915   33.8560  -44.5251 C   0  0  0  0  0  0  0  0  0  0  0  0
  1 10  1  0
  1 21  1  0
  2  6  1  0
  2  9  2  0
  2 22  1  0
  3  4  2  0
  3  5  1  0
  3 19  1  0
  5 16  1  0
  6 20  1  0
  6 26  1  0
  7 12  1  0
  7 24  1  0
  7 26  2  0
  8 15  1  0
  8 21  2  0
  9 14  1  0
  9 21  1  0
 10 14  2  0
 10 23  1  0
 11 13  2  0
 11 19  1  0
 12 17  2  0
 14 27  1  0
 15 22  2  0
 16 18  2  0
 16 26  1  0
 17 18  1  0
 19 27  1  0
 20 24  1  0
 20 25  1  0
M  END
>  <ID>  (1) 
conformer_0

$$$$
