
     RDKit          3D

 28 31  0  0  0  0  0  0  0  0999 V2000
  -23.2190   36.6454  -45.8235 C   0  0  0  0  0  0  0  0  0  0  0  0
  -23.7496   33.5278  -43.7079 C   0  0  0  0  0  0  0  0  0  0  0  0
  -23.7464   37.1135  -48.1058 C   0  0  0  0  0  0  0  0  0  0  0  0
  -25.5825   37.1539  -46.4428 C   0  0  0  0  0  0  0  0  0  0  0  0
  -22.1032   31.4040  -44.1695 C   0  0  0  0  0  0  0  0  0  0  0  0
  -26.5581   34.3032  -44.3062 N   0  0  0  0  0  0  0  0  0  0  0  0
  -23.3148   31.1876  -43.5433 C   0  0  0  0  0  0  0  0  0  0  0  0
  -21.5329   36.4079  -47.5412 C   0  0  0  0  0  0  0  0  0  0  0  0
  -28.6976   31.4570  -43.1100 C   0  0  0  0  0  0  0  0  0  0  0  0
  -26.6151   35.4882  -45.1230 C   0  0  0  0  0  0  0  0  0  0  0  0
  -24.1368   36.9924  -46.7859 C   0  0  0  0  0  0  0  0  0  0  0  0
  -24.1451   32.2493  -43.3435 C   0  0  0  0  0  0  0  0  0  0  0  0
  -21.2508   30.3395  -44.3721 F   0  0  0  0  0  0  0  0  0  0  0  0
  -26.5166   35.1559  -42.2076 O   0  0  0  0  0  0  0  0  0  0  0  0
  -21.9330   36.3557  -46.2376 C   0  0  0  0  0  0  0  0  0  0  0  0
  -21.7068   32.6579  -44.5662 C   0  0  0  0  0  0  0  0  0  0  0  0
  -22.4442   36.9003  -48.4724 C   0  0  0  0  0  0  0  0  0  0  0  0
  -25.4013   31.9267  -42.8006 O   0  0  0  0  0  0  0  0  0  0  0  0
  -26.5929   32.6892  -42.5989 C   0  0  0  0  0  0  0  0  0  0  0  0
  -27.4705   30.8797  -44.0517 C   0  0  0  0  0  0  0  0  0  0  0  0
  -25.7895   36.6521  -45.0591 C   0  0  0  0  0  0  0  0  0  0  0  0
  -26.9508   35.1097  -46.5245 C   0  0  0  0  0  0  0  0  0  0  0  0
  -26.3983   36.2215  -47.3171 C   0  0  0  0  0  0  0  0  0  0  0  0
  -27.6761   33.3797  -44.7138 C   0  0  0  0  0  0  0  0  0  0  0  0
  -27.6017   32.2815  -43.7111 C   0  0  0  0  0  0  0  0  0  0  0  0
  -22.0104   37.1845  -49.7306 F   0  0  0  0  0  0  0  0  0  0  0  0
  -26.3329   34.1347  -42.9378 C   0  0  0  0  0  0  0  0  0  0  0  0
  -22.5167   33.7181  -44.3192 C   0  0  0  0  0  0  0  0  0  0  0  0
  1 11  2  0
  1 15  1  0
  2 12  1  0
  2 28  1  0
  3 11  1  0
  3 17  2  0
  4 11  1  0
  4 21  1  0
  4 23  1  0
  5  7  1  0
  5 13  1  0
  5 16  1  0
  6 10  1  0
  6 24  1  0
  6 27  1  0
  7 12  2  0
  8 15  2  0
  8 17  1  0
  9 25  1  0
 10 21  1  0
 10 22  1  0
 12 18  1  0
 14 27  2  0
 16 28  2  0
 17 26  1  0
 18 19  1  0
 19 25  1  0
 19 27  1  0
 20 25  1  0
 22 23  1  0
 24 25  1  0
M  END
>  <ID>  (1) 
conformer_0

$$$$
