
     RDKit          3D

 25 30  0  0  0  0  0  0  0  0999 V2000
  -25.2147   34.9020  -45.1234 C   0  0  0  0  0  0  0  0  0  0  0  0
  -24.2607   35.0821  -46.2866 C   0  0  0  0  0  0  0  0  0  0  0  0
  -24.7893   32.5636  -45.3958 C   0  0  0  0  0  0  0  0  0  0  0  0
  -28.5715   35.7213  -44.2149 C   0  0  0  0  0  0  0  0  0  0  0  0
  -23.5697   30.9782  -43.9654 C   0  0  0  0  0  0  0  0  0  0  0  0
  -25.7812   33.5702  -44.7600 C   0  0  0  0  0  0  0  0  0  0  0  0
  -26.8243   36.1265  -42.3720 C   0  0  0  0  0  0  0  0  0  0  0  0
  -20.7218   34.6014  -44.7778 C   0  0  0  0  0  0  0  0  0  0  0  0
  -21.5496   34.3855  -45.9954 C   0  0  0  0  0  0  0  0  0  0  0  0
  -26.1988   31.0759  -43.8294 C   0  0  0  0  0  0  0  0  0  0  0  0
  -26.8569   33.9110  -43.6737 C   0  0  0  0  0  0  0  0  0  0  0  0
  -27.1141   35.4580  -43.7527 C   0  0  0  0  0  0  0  0  0  0  0  0
  -21.0392   33.7633  -43.5750 C   0  0  0  0  0  0  0  0  0  0  0  0
  -24.8964   31.2418  -44.6300 C   0  0  0  0  0  0  0  0  0  0  0  0
  -24.0716   37.3165  -47.2605 C   0  0  0  0  0  0  0  0  0  0  0  0
  -28.0794   33.0098  -43.8425 C   0  0  0  0  0  0  0  0  0  0  0  0
  -26.0877   36.0550  -44.7243 C   0  0  0  0  0  0  0  0  0  0  0  0
  -22.6343   32.0098  -44.4965 C   0  0  0  0  0  0  0  0  0  0  0  0
  -23.0086   34.3139  -45.7417 C   0  0  0  0  0  0  0  0  0  0  0  0
  -23.3981   33.0371  -45.1881 C   0  0  0  0  0  0  0  0  0  0  0  0
  -25.0869   36.2394  -47.0395 C   0  0  0  0  0  0  0  0  0  0  0  0
  -27.6294   31.5543  -43.8883 C   0  0  0  0  0  0  0  0  0  0  0  0
  -21.3430   31.4850  -42.5075 C   0  0  0  0  0  0  0  0  0  0  0  0
  -26.1293   36.8707  -46.0066 C   0  0  0  0  0  0  0  0  0  0  0  0
  -21.3607   32.2850  -43.8115 C   0  0  0  0  0  0  0  0  0  0  0  0
  1  2  1  0
  1  6  1  0
  1 17  1  0
  2 19  1  0
  2 21  1  0
  3  6  1  0
  3 14  1  0
  3 20  1  0
  4 12  1  0
  5 14  1  0
  5 18  1  0
  6 11  1  0
  7 12  1  0
  8  9  1  0
  8 13  1  0
  9 19  1  0
 10 14  1  0
 10 22  1  0
 11 12  1  0
 11 16  1  0
 12 17  1  0
 13 25  1  0
 15 21  1  0
 16 22  1  0
 17 24  1  0
 18 20  1  0
 18 25  1  0
 19 20  1  0
 21 24  1  0
 23 25  1  0
M  END
>  <ID>  (1) 
conformer_0

$$$$
