
     RDKit          3D

 30 32  0  0  0  0  0  0  0  0999 V2000
  -21.9593   31.2883  -43.4087 C   0  0  0  0  0  0  0  0  0  0  0  0
  -25.8039   36.0404  -45.9555 C   0  0  0  0  0  0  0  0  0  0  0  0
  -23.3064   38.0860  -45.4426 F   0  0  0  0  0  0  0  0  0  0  0  0
  -20.6740   30.5698  -45.6379 C   0  0  0  0  0  0  0  0  0  0  0  0
  -20.9999   34.5004  -44.7963 C   0  0  0  0  0  0  0  0  0  0  0  0
  -22.6254   35.9103  -45.8863 C   0  0  0  0  0  0  0  0  0  0  0  0
  -23.5428   35.0241  -45.4800 C   0  0  0  0  0  0  0  0  0  0  0  0
  -21.7954   37.7702  -47.0276 F   0  0  0  0  0  0  0  0  0  0  0  0
  -27.6512   36.0240  -43.5573 O   0  0  0  0  0  0  0  0  0  0  0  0
  -25.1282   36.0838  -47.3153 C   0  0  0  0  0  0  0  0  0  0  0  0
  -23.2988   34.0199  -44.6389 C   0  0  0  0  0  0  0  0  0  0  0  0
  -20.5701   29.6708  -44.5007 C   0  0  0  0  0  0  0  0  0  0  0  0
  -25.7588   37.1713  -45.1797 O   0  0  0  0  0  0  0  0  0  0  0  0
  -24.0207   37.0941  -47.5465 C   0  0  0  0  0  0  0  0  0  0  0  0
  -21.7418   32.7121  -43.1589 C   0  0  0  0  0  0  0  0  0  0  0  0
  -26.4401   32.6018  -43.4014 C   0  0  0  0  0  0  0  0  0  0  0  0
  -25.2943   31.7586  -43.0127 C   0  0  0  0  0  0  0  0  0  0  0  0
  -26.3284   34.8071  -45.2105 C   0  0  0  0  0  0  0  0  0  0  0  0
  -21.8895   29.8162  -45.3306 C   0  0  0  0  0  0  0  0  0  0  0  0
  -21.3250   35.6036  -45.6244 C   0  0  0  0  0  0  0  0  0  0  0  0
  -20.7640   30.4312  -43.2374 C   0  0  0  0  0  0  0  0  0  0  0  0
  -27.1034   34.8766  -43.8955 C   0  0  0  0  0  0  0  0  0  0  0  0
  -27.8689   30.6715  -43.8076 O   0  0  0  0  0  0  0  0  0  0  0  0
  -27.1278   35.4836  -46.2020 C   0  0  0  0  0  0  0  0  0  0  0  0
  -22.8531   30.5082  -44.4076 C   0  0  0  0  0  0  0  0  0  0  0  0
  -27.6864   32.0694  -43.9410 C   0  0  0  0  0  0  0  0  0  0  0  0
  -26.4497   33.9987  -42.8382 C   0  0  0  0  0  0  0  0  0  0  0  0
  -22.0273   33.7661  -44.2202 C   0  0  0  0  0  0  0  0  0  0  0  0
  -22.9438   37.2288  -46.5109 C   0  0  0  0  0  0  0  0  0  0  0  0
  -24.3623   31.0564  -44.1281 C   0  0  0  0  0  0  0  0  0  0  0  0
  1 15  1  0
  1 21  1  0
  1 25  1  0
  2 10  1  0
  2 13  1  0
  2 24  1  0
  3 29  1  0
  4 12  1  0
  4 19  1  0
  5 20  1  0
  5 28  2  0
  6  7  1  0
  6 20  2  0
  6 29  1  0
  7 11  2  0
  8 29  1  0
  9 22  1  0
 10 14  1  0
 11 28  1  0
 12 21  1  0
 14 29  1  0
 15 28  1  0
 16 17  1  0
 16 26  1  0
 16 27  1  0
 17 30  1  0
 18 22  1  0
 18 24  1  0
 19 25  1  0
 22 27  1  0
 23 26  1  0
 25 30  1  0
M  END
>  <ID>  (1) 
conformer_0

$$$$
