
     RDKit          3D

 30 34  0  0  0  0  0  0  0  0999 V2000
  -24.7563   36.7021  -46.9016 C   0  0  0  0  0  0  0  0  0  0  0  0
  -22.6622   31.7162  -44.2471 C   0  0  0  0  0  0  0  0  0  0  0  0
  -26.5598   30.6003  -43.3402 C   0  0  0  0  0  0  0  0  0  0  0  0
  -26.6441   29.3792  -42.4981 C   0  0  0  0  0  0  0  0  0  0  0  0
  -28.1535   32.5200  -43.5468 C   0  0  0  0  0  0  0  0  0  0  0  0
  -23.7676   35.4594  -45.1219 C   0  0  0  0  0  0  0  0  0  0  0  0
  -20.8718   29.8086  -45.6834 C   0  0  0  0  0  0  0  0  0  0  0  0
  -21.3694   34.6634  -45.2088 C   0  0  0  0  0  0  0  0  0  0  0  0
  -23.5471   36.6481  -47.5740 C   0  0  0  0  0  0  0  0  0  0  0  0
  -20.3650   31.2716  -45.8678 C   0  0  0  0  0  0  0  0  0  0  0  0
  -20.3380   31.8286  -44.4897 N   0  0  0  0  0  0  0  0  0  0  0  0
  -28.5063   35.7979  -44.5252 C   0  0  0  0  0  0  0  0  0  0  0  0
  -27.8602   31.1076  -43.7723 C   0  0  0  0  0  0  0  0  0  0  0  0
  -22.5663   35.3536  -45.7686 C   0  0  0  0  0  0  0  0  0  0  0  0
  -20.1618   30.6138  -43.5149 C   0  0  0  0  0  0  0  0  0  0  0  0
  -22.4905   35.9637  -47.0115 C   0  0  0  0  0  0  0  0  0  0  0  0
  -20.8074   29.4860  -44.2233 C   0  0  0  0  0  0  0  0  0  0  0  0
  -27.4713   33.5757  -44.3288 N   0  0  0  0  0  0  0  0  0  0  0  0
  -24.8574   36.1028  -45.6464 C   0  0  0  0  0  0  0  0  0  0  0  0
  -26.1668   35.2907  -43.6876 C   0  0  0  0  0  0  0  0  0  0  0  0
  -26.1403   36.2568  -44.8860 C   0  0  0  0  0  0  0  0  0  0  0  0
  -25.2312   32.8956  -43.4412 C   0  0  0  0  0  0  0  0  0  0  0  0
  -25.3917   31.4037  -43.3680 C   0  0  0  0  0  0  0  0  0  0  0  0
  -23.3853   37.3552  -48.8267 C   0  0  0  0  0  0  0  0  0  0  0  0
  -21.4567   33.9018  -44.0083 C   0  0  0  0  0  0  0  0  0  0  0  0
  -27.4450   36.1344  -45.5950 C   0  0  0  0  0  0  0  0  0  0  0  0
  -21.5363   32.4843  -44.1667 C   0  0  0  0  0  0  0  0  0  0  0  0
  -21.3356   35.9042  -47.6473 F   0  0  0  0  0  0  0  0  0  0  0  0
  -27.7957   34.9401  -43.4935 C   0  0  0  0  0  0  0  0  0  0  0  0
  -25.9548   33.8484  -44.4008 C   0  0  0  0  0  0  0  0  0  0  0  0
  1  9  2  0
  1 19  1  0
  2 27  2  0
  3  4  1  0
  3 13  1  0
  3 23  1  0
  5 13  1  0
  5 18  1  0
  6 14  1  0
  6 19  2  0
  7 10  1  0
  7 17  1  0
  8 14  1  0
  8 25  1  0
  9 16  1  0
  9 24  1  0
 10 11  1  0
 11 15  1  0
 11 27  1  0
 12 26  1  0
 12 29  1  0
 14 16  2  0
 15 17  1  0
 16 28  1  0
 18 29  1  0
 18 30  1  0
 19 21  1  0
 20 21  1  0
 20 29  1  0
 20 30  1  0
 21 26  1  0
 22 23  1  0
 22 30  1  0
 25 27  1  0
M  END
>  <ID>  (1) 
conformer_0

$$$$
