
     RDKit          3D

 27 30  0  0  0  0  0  0  0  0999 V2000
  -20.4477   30.5418  -44.5176 C   0  0  0  0  0  0  0  0  0  0  0  0
  -20.4315   30.8468  -43.1000 C   0  0  0  0  0  0  0  0  0  0  0  0
  -23.8838   35.3077  -45.3069 C   0  0  0  0  0  0  0  0  0  0  0  0
  -25.0435   36.2223  -45.0046 C   0  0  0  0  0  0  0  0  0  0  0  0
  -27.9912   35.0893  -44.6687 C   0  0  0  0  0  0  0  0  0  0  0  0
  -24.5053   36.5740  -48.0523 C   0  0  0  0  0  0  0  0  0  0  0  0
  -23.1908   36.8431  -47.2982 C   0  0  0  0  0  0  0  0  0  0  0  0
  -22.0760   36.9352  -48.3410 C   0  0  0  0  0  0  0  0  0  0  0  0
  -23.7848   34.0164  -44.6233 C   0  0  0  0  0  0  0  0  0  0  0  0
  -21.6087   35.2866  -46.1797 C   0  0  0  0  0  0  0  0  0  0  0  0
  -26.8369   29.4385  -42.2444 C   0  0  0  0  0  0  0  0  0  0  0  0
  -22.9116   31.6382  -43.6147 N   0  0  0  0  0  0  0  0  0  0  0  0
  -26.9599   31.8124  -43.1475 N   0  0  0  0  0  0  0  0  0  0  0  0
  -24.8374   33.0980  -43.9554 C   0  0  0  0  0  0  0  0  0  0  0  0
  -21.3945   34.1854  -45.4103 C   0  0  0  0  0  0  0  0  0  0  0  0
  -24.2345   31.8448  -43.5571 C   0  0  0  0  0  0  0  0  0  0  0  0
  -24.8966   30.7624  -43.0845 N   0  0  0  0  0  0  0  0  0  0  0  0
  -26.2738   36.4609  -45.8297 C   0  0  0  0  0  0  0  0  0  0  0  0
  -27.3021   35.3686  -45.9716 C   0  0  0  0  0  0  0  0  0  0  0  0
  -26.2151   30.6873  -42.8449 C   0  0  0  0  0  0  0  0  0  0  0  0
  -20.5331   31.9539  -44.0618 C   0  0  0  0  0  0  0  0  0  0  0  0
  -27.5007   34.1420  -43.6344 C   0  0  0  0  0  0  0  0  0  0  0  0
  -26.3906   32.9992  -43.6094 C   0  0  0  0  0  0  0  0  0  0  0  0
  -28.2769   36.3759  -44.0921 O   0  0  0  0  0  0  0  0  0  0  0  0
  -22.4061   33.5525  -44.7177 C   0  0  0  0  0  0  0  0  0  0  0  0
  -22.9090   35.7980  -46.2264 C   0  0  0  0  0  0  0  0  0  0  0  0
  -21.9684   32.3588  -44.1069 C   0  0  0  0  0  0  0  0  0  0  0  0
  1  2  1  0
  2 21  1  0
  3  4  1  0
  3  9  1  0
  3 26  1  0
  4 18  1  0
  5 19  1  0
  5 22  1  0
  5 24  1  0
  6  7  1  0
  7  8  1  0
  7 26  1  0
  9 14  2  0
  9 25  1  0
 10 15  2  0
 10 26  1  0
 11 20  1  0
 12 16  2  0
 12 27  1  0
 13 20  1  0
 13 23  2  0
 14 16  1  0
 14 23  1  0
 15 25  1  0
 16 17  1  0
 17 20  2  0
 18 19  1  0
 21 27  1  0
 22 23  1  0
 25 27  2  0
M  END
>  <ID>  (1) 
conformer_0

$$$$
