
     RDKit          3D

 20 23  0  0  0  0  0  0  0  0999 V2000
  -21.4548   35.5436  -46.6649 C   0  0  0  0  0  0  0  0  0  0  0  0
  -27.6717   30.9797  -43.6841 C   0  0  0  0  0  0  0  0  0  0  0  0
  -21.7218   34.4917  -45.7732 N   0  0  0  0  0  0  0  0  0  0  0  0
  -27.0762   32.3839  -43.5660 C   0  0  0  0  0  0  0  0  0  0  0  0
  -27.3146   35.7742  -44.8680 S   0  0  0  0  0  0  0  0  0  0  0  0
  -21.8077   32.4650  -43.4842 C   0  0  0  0  0  0  0  0  0  0  0  0
  -24.8823   35.9569  -45.8920 C   0  0  0  0  0  0  0  0  0  0  0  0
  -28.1949   33.4261  -43.8098 C   0  0  0  0  0  0  0  0  0  0  0  0
  -23.5902   35.6273  -46.1180 C   0  0  0  0  0  0  0  0  0  0  0  0
  -22.5745   31.2060  -45.0039 C   0  0  0  0  0  0  0  0  0  0  0  0
  -23.0047   34.5050  -45.4874 C   0  0  0  0  0  0  0  0  0  0  0  0
  -25.1303   33.7946  -44.6749 C   0  0  0  0  0  0  0  0  0  0  0  0
  -22.8687   37.2840  -47.8548 C   0  0  0  0  0  0  0  0  0  0  0  0
  -25.6436   35.1051  -45.1434 C   0  0  0  0  0  0  0  0  0  0  0  0
  -23.7629   33.5959  -44.7861 N   0  0  0  0  0  0  0  0  0  0  0  0
  -27.7843   34.8575  -43.4812 C   0  0  0  0  0  0  0  0  0  0  0  0
  -25.8751   32.7222  -44.2294 N   0  0  0  0  0  0  0  0  0  0  0  0
  -21.1856   31.3013  -44.3342 C   0  0  0  0  0  0  0  0  0  0  0  0
  -22.6063   36.2376  -46.9142 C   0  0  0  0  0  0  0  0  0  0  0  0
  -23.1746   32.3594  -44.1772 C   0  0  0  0  0  0  0  0  0  0  0  0
  1  3  1  0
  1 19  1  0
  2  4  1  0
  3 11  1  0
  4  8  1  0
  4 17  1  0
  5 14  1  0
  5 16  1  0
  6 18  1  0
  6 20  1  0
  7  9  1  0
  7 14  2  0
  8 16  1  0
  9 11  2  0
  9 19  1  0
 10 18  1  0
 10 20  1  0
 11 15  1  0
 12 14  1  0
 12 15  1  0
 12 17  2  0
 13 19  1  0
 15 20  1  0
M  END
>  <ID>  (1) 
conformer_0

$$$$
