
     RDKit          3D

 41 45  0  0  0  0  0  0  0  0999 V2000
  -27.3185   36.2735  -45.0047 C   0  0  0  0  0  0  0  0  0  0  0  0
  -21.0842   36.4781  -46.1359 C   0  0  0  0  0  0  0  0  0  0  0  0
  -26.0022   30.8536  -43.1885 C   0  0  0  0  0  0  0  0  0  0  0  0
  -20.8834   34.3475  -44.7976 C   0  0  0  0  0  0  0  0  0  0  0  0
  -22.7900   37.5412  -49.3420 C   0  0  0  0  0  0  0  0  0  0  0  0
  -17.7501   29.8058  -44.4869 C   0  0  0  0  0  0  0  0  0  0  0  0
  -21.6834   35.1724  -45.6187 C   0  0  0  0  0  0  0  0  0  0  0  0
  -27.6908   32.7676  -43.1498 C   0  0  0  0  0  0  0  0  0  0  0  0
  -23.2766   31.4925  -44.1469 C   0  0  0  0  0  0  0  0  0  0  0  0
  -26.5655   36.9347  -46.1905 C   0  0  0  0  0  0  0  0  0  0  0  0
  -20.9438   31.2089  -44.3668 C   0  0  0  0  0  0  0  0  0  0  0  0
  -27.1822   36.1818  -47.4591 C   0  0  0  0  0  0  0  0  0  0  0  0
  -26.3271   36.6197  -48.6465 C   0  0  0  0  0  0  0  0  0  0  0  0
  -20.1067   32.2404  -44.0388 C   0  0  0  0  0  0  0  0  0  0  0  0
  -23.9059   29.8008  -42.6855 O   0  0  0  0  0  0  0  0  0  0  0  0
  -23.5247   31.0035  -45.4959 F   0  0  0  0  0  0  0  0  0  0  0  0
  -22.0441   30.7393  -43.5872 C   0  0  0  0  0  0  0  0  0  0  0  0
  -20.2074   29.9761  -44.8866 C   0  0  0  0  0  0  0  0  0  0  0  0
  -23.5292   37.5234  -46.2064 C   0  0  0  0  0  0  0  0  0  0  0  0
  -24.1824   37.8796  -48.8920 C   0  0  0  0  0  0  0  0  0  0  0  0
  -27.2298   35.1233  -42.6064 C   0  0  0  0  0  0  0  0  0  0  0  0
  -19.9732   30.0991  -46.2357 O   0  0  0  0  0  0  0  0  0  0  0  0
  -24.4858   30.9124  -43.3172 C   0  0  0  0  0  0  0  0  0  0  0  0
  -20.3485   28.9476  -44.2228 O   0  0  0  0  0  0  0  0  0  0  0  0
  -22.1543   36.5723  -48.3675 C   0  0  0  0  0  0  0  0  0  0  0  0
  -27.6188   34.1409  -43.7194 C   0  0  0  0  0  0  0  0  0  0  0  0
  -23.5435   33.9757  -44.4102 C   0  0  0  0  0  0  0  0  0  0  0  0
  -28.6999   36.6115  -44.4443 C   0  0  0  0  0  0  0  0  0  0  0  0
  -24.8809   36.7335  -48.1176 C   0  0  0  0  0  0  0  0  0  0  0  0
  -25.0326   37.2171  -46.5898 C   0  0  0  0  0  0  0  0  0  0  0  0
  -24.7862   33.6807  -43.7156 C   0  0  0  0  0  0  0  0  0  0  0  0
  -22.2426   37.1077  -46.9193 C   0  0  0  0  0  0  0  0  0  0  0  0
  -21.2789   32.8759  -44.5942 C   0  0  0  0  0  0  0  0  0  0  0  0
  -26.2725   36.1198  -42.5837 O   0  0  0  0  0  0  0  0  0  0  0  0
  -27.1420   31.5722  -43.8229 C   0  0  0  0  0  0  0  0  0  0  0  0
  -28.1830   30.7807  -44.2174 O   0  0  0  0  0  0  0  0  0  0  0  0
  -23.1276   34.9917  -45.4157 C   0  0  0  0  0  0  0  0  0  0  0  0
  -27.3708   34.7107  -45.0717 C   0  0  0  0  0  0  0  0  0  0  0  0
  -26.4774   29.7174  -42.3255 C   0  0  0  0  0  0  0  0  0  0  0  0
  -22.6670   32.8393  -44.1804 C   0  0  0  0  0  0  0  0  0  0  0  0
  -19.1806   29.6184  -43.9183 C   0  0  0  0  0  0  0  0  0  0  0  0
  1 10  1  0
  1 28  1  0
  1 38  1  0
  2  7  1  0
  2 32  1  0
  3 23  2  0
  3 35  1  0
  3 39  1  0
  4  7  1  0
  4 33  1  0
  5 20  1  0
  5 25  1  0
  6 41  1  0
  7 37  1  0
  8 26  1  0
  8 35  1  0
  9 16  1  0
  9 17  1  0
  9 23  1  0
  9 40  1  0
 10 12  1  0
 10 30  1  0
 11 14  1  0
 11 17  1  0
 11 18  1  0
 12 13  1  0
 13 29  1  0
 14 33  1  0
 15 23  1  0
 18 22  1  0
 18 24  1  0
 18 41  1  0
 19 30  1  0
 19 32  1  0
 20 29  1  0
 21 26  1  0
 21 34  1  0
 25 32  1  0
 26 38  1  0
 27 31  1  0
 27 37  1  0
 27 40  1  0
 29 30  1  0
 33 40  1  0
 35 36  1  0
M  END
>  <ID>  (1) 
conformer_0

$$$$
