
     RDKit          3D

 18 21  0  0  0  0  0  0  0  0999 V2000
  -25.8808   35.9909  -45.1199 C   0  0  0  0  0  0  0  0  0  0  0  0
  -26.6885   31.5174  -43.8693 C   0  0  0  0  0  0  0  0  0  0  0  0
  -23.9849   34.4698  -44.8185 C   0  0  0  0  0  0  0  0  0  0  0  0
  -23.5130   35.5866  -45.6045 C   0  0  0  0  0  0  0  0  0  0  0  0
  -23.4441   32.0191  -44.0587 C   0  0  0  0  0  0  0  0  0  0  0  0
  -23.0226   33.4161  -44.4991 C   0  0  0  0  0  0  0  0  0  0  0  0
  -24.6147   36.5315  -45.6905 N   0  0  0  0  0  0  0  0  0  0  0  0
  -20.7263   32.4459  -44.4911 C   0  0  0  0  0  0  0  0  0  0  0  0
  -25.0649   31.3796  -43.7197 S   0  0  0  0  0  0  0  0  0  0  0  0
  -27.4083   36.0060  -44.9906 C   0  0  0  0  0  0  0  0  0  0  0  0
  -21.1567   34.7538  -45.4682 C   0  0  0  0  0  0  0  0  0  0  0  0
  -21.5822   33.6465  -44.5999 C   0  0  0  0  0  0  0  0  0  0  0  0
  -22.2109   35.3987  -46.2694 C   0  0  0  0  0  0  0  0  0  0  0  0
  -25.4530   34.6713  -44.5487 C   0  0  0  0  0  0  0  0  0  0  0  0
  -27.2071   32.7904  -44.1957 C   0  0  0  0  0  0  0  0  0  0  0  0
  -27.7424   35.1226  -43.7793 C   0  0  0  0  0  0  0  0  0  0  0  0
  -26.6237   34.0927  -43.7712 C   0  0  0  0  0  0  0  0  0  0  0  0
  -27.7409   30.5057  -43.6380 C   0  0  0  0  0  0  0  0  0  0  0  0
  1  7  1  0
  1 10  1  0
  1 14  2  0
  2  9  1  0
  2 15  1  0
  2 18  1  0
  3  4  2  0
  3  6  1  0
  3 14  1  0
  4  7  1  0
  4 13  1  0
  5  6  2  0
  5  9  1  0
  6 12  1  0
  8 12  1  0
 10 16  1  0
 11 12  1  0
 11 13  1  0
 14 17  1  0
 15 17  1  0
 16 17  1  0
M  END
>  <ID>  (1) 
conformer_0

$$$$
