
     RDKit          3D

 27 30  0  0  0  0  0  0  0  0999 V2000
  -23.0165   35.4065  -45.8789 C   0  0  0  0  0  0  0  0  0  0  0  0
  -27.1274   33.9669  -44.2142 C   0  0  0  0  0  0  0  0  0  0  0  0
  -23.9958   33.6731  -44.6735 C   0  0  0  0  0  0  0  0  0  0  0  0
  -26.9168   35.1225  -44.9558 C   0  0  0  0  0  0  0  0  0  0  0  0
  -27.6786   30.3569  -43.4582 C   0  0  0  0  0  0  0  0  0  0  0  0
  -25.5306   36.6146  -47.6934 C   0  0  0  0  0  0  0  0  0  0  0  0
  -20.4108   30.6720  -43.9444 C   0  0  0  0  0  0  0  0  0  0  0  0
  -24.3202   32.9079  -43.5106 C   0  0  0  0  0  0  0  0  0  0  0  0
  -25.5141   32.0723  -43.4098 C   0  0  0  0  0  0  0  0  0  0  0  0
  -26.4535   29.9475  -42.9217 C   0  0  0  0  0  0  0  0  0  0  0  0
  -20.4337   34.8790  -44.6172 O   0  0  0  0  0  0  0  0  0  0  0  0
  -27.8623   31.6407  -43.9301 C   0  0  0  0  0  0  0  0  0  0  0  0
  -25.5101   36.7424  -46.1283 C   0  0  0  0  0  0  0  0  0  0  0  0
  -22.0394   32.0228  -43.4932 C   0  0  0  0  0  0  0  0  0  0  0  0
  -21.3480   34.0842  -44.6205 C   0  0  0  0  0  0  0  0  0  0  0  0
  -28.5131   36.6133  -44.0895 O   0  0  0  0  0  0  0  0  0  0  0  0
  -23.1691   32.4697  -42.7928 C   0  0  0  0  0  0  0  0  0  0  0  0
  -21.5833   30.7503  -43.3651 N   0  0  0  0  0  0  0  0  0  0  0  0
  -20.0617   31.9357  -44.4565 C   0  0  0  0  0  0  0  0  0  0  0  0
  -28.0129   36.0879  -45.2975 C   0  0  0  0  0  0  0  0  0  0  0  0
  -21.9049   35.5120  -46.8464 C   0  0  0  0  0  0  0  0  0  0  0  0
  -25.3762   30.7967  -42.8877 C   0  0  0  0  0  0  0  0  0  0  0  0
  -22.7568   34.4123  -44.8361 C   0  0  0  0  0  0  0  0  0  0  0  0
  -21.0817   32.7370  -44.2305 C   0  0  0  0  0  0  0  0  0  0  0  0
  -25.5750   35.4564  -45.5675 N   0  0  0  0  0  0  0  0  0  0  0  0
  -24.2175   36.1987  -45.6458 C   0  0  0  0  0  0  0  0  0  0  0  0
  -26.7908   32.5443  -43.8676 C   0  0  0  0  0  0  0  0  0  0  0  0
  1 21  1  0
  1 23  1  0
  1 26  1  0
  2  4  1  0
  2 27  1  0
  3  8  1  0
  3 23  1  0
  4 20  1  0
  4 25  1  0
  5 10  2  0
  5 12  1  0
  6 13  1  0
  7 18  1  0
  7 19  1  0
  8  9  1  0
  8 17  1  0
  9 22  2  0
  9 27  1  0
 10 22  1  0
 11 15  2  0
 12 27  2  0
 13 25  1  0
 13 26  1  0
 14 17  1  0
 14 18  1  0
 14 24  1  0
 15 23  1  0
 15 24  1  0
 16 20  1  0
 19 24  1  0
M  END
>  <ID>  (1) 
conformer_0

$$$$
