
     RDKit          3D

 24 25  0  0  0  0  0  0  0  0999 V2000
  -21.3488   33.0682  -44.9525 C   0  0  0  0  0  0  0  0  0  0  0  0
  -22.5131   33.1839  -44.7535 N   0  0  0  0  0  0  0  0  0  0  0  0
  -23.3761   36.8304  -46.9352 S   0  0  0  0  0  4  0  0  0  0  0  0
  -21.3053   34.3704  -45.0829 C   0  0  0  0  0  0  0  0  0  0  0  0
  -27.7074   33.9628  -44.4764 C   0  0  0  0  0  0  0  0  0  0  0  0
  -26.7922   35.0452  -44.0724 C   0  0  0  0  0  0  0  0  0  0  0  0
  -27.4518   32.6746  -43.6949 C   0  0  0  0  0  0  0  0  0  0  0  0
  -25.4393   34.9977  -44.4578 O   0  0  0  0  0  0  0  0  0  0  0  0
  -28.0257   31.4276  -43.8811 O   0  0  0  0  0  0  0  0  0  0  0  0
  -23.3932   32.1420  -44.4444 C   0  0  0  0  0  0  0  0  0  0  0  0
  -22.7382   37.3550  -49.2999 C   0  0  0  0  0  0  0  0  0  0  0  0
  -23.3952   38.1416  -46.3791 O   0  0  0  0  0  0  0  0  0  0  0  0
  -27.2326   35.9506  -43.3338 O   0  0  0  0  0  0  0  0  0  0  0  0
  -24.5234   35.9682  -44.9519 C   0  0  0  0  0  0  0  0  0  0  0  0
  -25.4489   31.4243  -43.4661 C   0  0  0  0  0  0  0  0  0  0  0  0
  -24.8851   32.4053  -44.3032 C   0  0  0  0  0  0  0  0  0  0  0  0
  -25.9374   32.7252  -43.3675 C   0  0  0  0  0  0  0  0  0  0  0  0
  -22.8363   30.9005  -44.2994 C   0  0  0  0  0  0  0  0  0  0  0  0
  -21.8687   35.4275  -45.5851 C   0  0  0  0  0  0  0  0  0  0  0  0
  -20.6912   31.8665  -44.8965 C   0  0  0  0  0  0  0  0  0  0  0  0
  -23.2234   35.8038  -45.7103 N   0  0  0  0  0  0  0  0  0  0  0  0
  -24.7589   36.4932  -47.6387 C   0  0  0  0  0  0  0  0  0  0  0  0
  -22.2830   36.6694  -48.0316 O   0  0  0  0  0  0  0  0  0  0  0  0
  -21.4537   30.7362  -44.5530 C   0  0  0  0  0  0  0  0  0  0  0  0
  1  2  2  0
  1  4  1  0
  1 20  1  0
  2 10  1  0
  3 12  1  0
  3 21  1  0
  3 22  1  0
  3 23  1  0
  4 19  1  0
  5  6  1  0
  5  7  1  0
  6  8  1  0
  6 13  2  0
  7  9  1  0
  7 17  1  0
  8 14  1  0
 10 16  1  0
 10 18  2  0
 11 23  1  0
 14 21  1  0
 15 16  1  0
 15 17  1  0
 18 24  1  0
 19 21  1  0
 20 24  2  0
M  END
>  <ID>  (1) 
conformer_0

$$$$
