
     RDKit          3D

 20 22  0  0  0  0  0  0  0  0999 V2000
  -22.0160   34.7803  -45.3878 C   0  0  0  0  0  0  0  0  0  0  0  0
  -27.2138   32.5599  -44.0999 N   0  0  0  0  0  0  0  0  0  0  0  0
  -23.3074   36.0251  -46.9113 C   0  0  0  0  0  0  0  0  0  0  0  0
  -24.3063   30.8554  -43.5358 C   0  0  0  0  0  0  0  0  0  0  0  0
  -23.4810   32.1351  -43.1183 C   0  0  0  0  0  0  0  0  0  0  0  0
  -25.9038   34.7291  -44.6584 N   0  0  0  0  0  0  0  0  0  0  0  0
  -22.0610   35.6247  -46.4513 C   0  0  0  0  0  0  0  0  0  0  0  0
  -27.9087   34.8413  -43.1931 C   0  0  0  0  0  0  0  0  0  0  0  0
  -20.7708   34.4990  -44.7472 C   0  0  0  0  0  0  0  0  0  0  0  0
  -24.4680   34.7665  -45.2052 C   0  0  0  0  0  0  0  0  0  0  0  0
  -25.8544   36.2470  -46.5209 C   0  0  0  0  0  0  0  0  0  0  0  0
  -23.3998   36.7066  -47.9853 O   0  0  0  0  0  0  0  0  0  0  0  0
  -27.7969   31.2898  -43.9158 C   0  0  0  0  0  0  0  0  0  0  0  0
  -24.4798   35.6644  -46.2546 C   0  0  0  0  0  0  0  0  0  0  0  0
  -25.5905   30.8138  -42.8010 C   0  0  0  0  0  0  0  0  0  0  0  0
  -26.6675   35.9372  -45.3277 C   0  0  0  0  0  0  0  0  0  0  0  0
  -26.8955   30.2909  -43.2963 C   0  0  0  0  0  0  0  0  0  0  0  0
  -22.9419   32.8108  -44.2715 C   0  0  0  0  0  0  0  0  0  0  0  0
  -26.8897   33.9440  -43.9393 C   0  0  0  0  0  0  0  0  0  0  0  0
  -23.1556   34.1534  -44.9190 C   0  0  0  0  0  0  0  0  0  0  0  0
  1  7  2  0
  1  9  1  0
  1 20  1  0
  2 13  1  0
  2 19  2  0
  3  7  1  0
  3 12  2  0
  3 14  1  0
  4  5  1  0
  4 15  1  0
  5 18  1  0
  6 10  1  0
  6 16  1  0
  6 19  1  0
  8 19  1  0
 10 14  2  0
 10 20  1  0
 11 14  1  0
 11 16  1  0
 13 17  1  0
 15 17  1  0
 18 20  1  0
M  END
>  <ID>  (1) 
conformer_0

$$$$
