
     RDKit          3D

 17 19  0  0  0  0  0  0  0  0999 V2000
  -24.5076   36.5761  -45.6117 C   0  0  0  0  0  0  0  0  0  0  0  0
  -26.7776   35.7734  -44.9185 C   0  0  0  0  0  0  0  0  0  0  0  0
  -27.2445   31.7419  -44.0444 C   0  0  0  0  0  0  0  0  0  0  0  0
  -27.5398   35.9053  -46.1700 C   0  0  0  0  0  0  0  0  0  0  0  0
  -26.0099   31.0316  -43.5505 C   0  0  0  0  0  0  0  0  0  0  0  0
  -27.2389   36.1181  -43.7649 O   0  0  0  0  0  0  0  0  0  0  0  0
  -23.1873   36.4540  -45.8643 N   0  0  0  0  0  0  0  0  0  0  0  0
  -22.5804   35.2659  -45.5211 C   0  0  0  0  0  0  0  0  0  0  0  0
  -24.6668   34.3556  -44.7381 C   0  0  0  0  0  0  0  0  0  0  0  0
  -25.4563   33.2180  -44.2513 N   0  0  0  0  0  0  0  0  0  0  0  0
  -21.1885   34.8959  -45.7944 C   0  0  0  0  0  0  0  0  0  0  0  0
  -24.8635   31.9795  -43.8545 C   0  0  0  0  0  0  0  0  0  0  0  0
  -21.0425   33.5187  -45.2368 C   0  0  0  0  0  0  0  0  0  0  0  0
  -22.2791   33.2177  -44.4534 C   0  0  0  0  0  0  0  0  0  0  0  0
  -25.3120   35.5959  -45.0764 C   0  0  0  0  0  0  0  0  0  0  0  0
  -23.2712   34.2566  -44.8864 C   0  0  0  0  0  0  0  0  0  0  0  0
  -26.8840   33.1921  -43.9897 C   0  0  0  0  0  0  0  0  0  0  0  0
  1  7  2  0
  1 15  1  0
  2  4  1  0
  2  6  1  0
  2 15  1  0
  3  5  1  0
  3 17  1  0
  5 12  1  0
  7  8  1  0
  8 11  1  0
  8 16  2  0
  9 10  1  0
  9 15  2  0
  9 16  1  0
 10 12  1  0
 10 17  1  0
 11 13  1  0
 13 14  1  0
 14 16  1  0
M  END
>  <ID>  (1) 
conformer_0

$$$$
