
     RDKit          3D

 23 26  0  0  0  0  0  0  0  0999 V2000
  -23.5751   37.0372  -46.6060 C   0  0  0  0  0  0  0  0  0  0  0  0
  -21.5828   34.8590  -45.9720 C   0  0  0  0  0  0  0  0  0  0  0  0
  -21.5734   36.0652  -48.3854 C   0  0  0  0  0  0  0  0  0  0  0  0
  -26.4548   35.2450  -43.2684 C   0  0  0  0  0  0  0  0  0  0  0  0
  -27.9356   35.8439  -45.1460 C   0  0  0  0  0  0  0  0  0  0  0  0
  -24.7612   30.8285  -43.6875 C   0  0  0  0  0  0  0  0  0  0  0  0
  -23.9850   35.6695  -45.9611 C   0  0  0  0  0  0  0  0  0  0  0  0
  -22.0654   37.2309  -46.4691 C   0  0  0  0  0  0  0  0  0  0  0  0
  -27.9099   35.0317  -43.8053 C   0  0  0  0  0  0  0  0  0  0  0  0
  -25.7659   33.0706  -43.9534 C   0  0  0  0  0  0  0  0  0  0  0  0
  -26.1661   30.3301  -43.3065 C   0  0  0  0  0  0  0  0  0  0  0  0
  -25.6063   34.6301  -44.4125 C   0  0  0  0  0  0  0  0  0  0  0  0
  -24.1265   38.2356  -45.7937 C   0  0  0  0  0  0  0  0  0  0  0  0
  -22.8848   35.0171  -45.1788 C   0  0  0  0  0  0  0  0  0  0  0  0
  -24.2225   37.0350  -48.0329 C   0  0  0  0  0  0  0  0  0  0  0  0
  -25.3474   35.9261  -45.3392 C   0  0  0  0  0  0  0  0  0  0  0  0
  -25.7215   33.5429  -45.1985 O   0  0  0  0  0  0  0  0  0  0  0  0
  -27.0948   32.6421  -43.3717 C   0  0  0  0  0  0  0  0  0  0  0  0
  -27.3789   31.1535  -43.7424 C   0  0  0  0  0  0  0  0  0  0  0  0
  -28.2613   33.5569  -43.9254 C   0  0  0  0  0  0  0  0  0  0  0  0
  -24.5800   32.3165  -43.4043 C   0  0  0  0  0  0  0  0  0  0  0  0
  -26.7095   36.7019  -45.3771 C   0  0  0  0  0  0  0  0  0  0  0  0
  -21.3829   35.9884  -46.9305 C   0  0  0  0  0  0  0  0  0  0  0  0
  1  7  1  0
  1  8  1  0
  1 13  1  0
  1 15  1  0
  2 14  1  0
  2 23  1  0
  3 23  1  0
  4  9  1  0
  4 12  1  0
  5  9  1  0
  5 22  1  0
  6 11  1  0
  6 21  1  0
  7 14  1  0
  7 16  1  0
  8 23  1  0
  9 20  1  0
 10 17  1  0
 10 18  1  0
 10 21  1  0
 11 19  1  0
 12 16  1  0
 12 17  1  0
 16 22  1  0
 18 19  1  0
 18 20  1  0
M  END
>  <ID>  (1) 
conformer_0

$$$$
