
     RDKit          3D

 30 33  0  0  0  0  0  0  0  0999 V2000
  -22.0702   33.7259  -44.9961 C   0  0  0  0  0  0  0  0  0  0  0  0
  -23.5639   35.4787  -45.2178 C   0  0  0  0  0  0  0  0  0  0  0  0
  -25.5144   37.0068  -45.0227 C   0  0  0  0  0  0  0  0  0  0  0  0
  -21.8535   35.5596  -46.8802 C   0  0  0  0  0  0  0  0  0  0  0  0
  -22.4110   34.9565  -45.7324 C   0  0  0  0  0  0  0  0  0  0  0  0
  -22.1545   31.2242  -43.8691 N   0  0  0  0  0  0  0  0  0  0  0  0
  -28.1073   32.6979  -44.1389 O   0  0  0  0  0  0  0  0  0  0  0  0
  -24.6733   31.5680  -43.4042 C   0  0  0  0  0  0  0  0  0  0  0  0
  -22.0896   37.0973  -49.9085 C   0  0  0  0  0  0  0  0  0  0  0  0
  -26.7399   36.3059  -45.3968 C   0  0  0  0  0  0  0  0  0  0  0  0
  -23.7909   37.0197  -46.9085 C   0  0  0  0  0  0  0  0  0  0  0  0
  -23.3288   31.9605  -43.8665 C   0  0  0  0  0  0  0  0  0  0  0  0
  -26.6286   35.8144  -42.2031 O   0  0  0  0  0  0  0  0  0  0  0  0
  -24.9187   30.2588  -42.9389 C   0  0  0  0  0  0  0  0  0  0  0  0
  -26.2369   29.8219  -42.8082 C   0  0  0  0  0  0  0  0  0  0  0  0
  -24.2774   36.4873  -45.7460 C   0  0  0  0  0  0  0  0  0  0  0  0
  -28.9201   35.5133  -44.5258 C   0  0  0  0  0  0  0  0  0  0  0  0
  -25.5853   33.9486  -43.2558 N   0  0  0  0  0  0  0  0  0  0  0  0
  -27.3249   30.6684  -43.1605 C   0  0  0  0  0  0  0  0  0  0  0  0
  -22.5751   36.6329  -47.4850 C   0  0  0  0  0  0  0  0  0  0  0  0
  -23.1677   33.1857  -44.3950 N   0  0  0  0  0  0  0  0  0  0  0  0
  -27.3387   35.3991  -44.3688 N   0  0  0  0  0  0  0  0  0  0  0  0
  -25.7391   32.5154  -43.4778 C   0  0  0  0  0  0  0  0  0  0  0  0
  -27.0691   31.9532  -43.5706 C   0  0  0  0  0  0  0  0  0  0  0  0
  -20.9753   31.7473  -44.3149 C   0  0  0  0  0  0  0  0  0  0  0  0
  -20.9100   33.0164  -44.8838 C   0  0  0  0  0  0  0  0  0  0  0  0
  -26.7511   35.6497  -46.7716 C   0  0  0  0  0  0  0  0  0  0  0  0
  -19.6831   30.9019  -44.2475 Cl  0  0  0  0  0  0  0  0  0  0  0  0
  -22.0460   37.3424  -48.5257 O   0  0  0  0  0  0  0  0  0  0  0  0
  -26.4382   35.0616  -43.2761 C   0  0  0  0  0  0  0  0  0  0  0  0
  1  5  1  0
  1 21  2  0
  1 26  1  0
  2  5  2  0
  2 16  1  0
  3 10  1  0
  3 16  1  0
  4  5  1  0
  4 20  2  0
  6 12  2  0
  6 25  1  0
  7 24  1  0
  8 12  1  0
  8 14  1  0
  8 23  1  0
  9 29  1  0
 10 22  1  0
 10 27  1  0
 11 16  2  0
 11 20  1  0
 12 21  1  0
 13 30  2  0
 14 15  2  0
 15 19  1  0
 17 22  1  0
 18 23  2  0
 18 30  1  0
 19 24  2  0
 20 29  1  0
 22 30  1  0
 23 24  1  0
 25 26  2  0
 25 28  1  0
M  END
>  <ID>  (1) 
conformer_0

$$$$
