
     RDKit          3D

 29 31  0  0  0  0  0  0  0  0999 V2000
  -26.8697   31.3873  -44.3267 C   0  0  0  0  0  0  0  0  0  0  0  0
  -25.6549   33.3165  -43.2327 C   0  0  0  0  0  0  0  0  0  0  0  0
  -26.5583   30.5394  -43.0578 C   0  0  0  0  0  0  0  0  0  0  0  0
  -21.3173   29.1084  -44.6125 C   0  0  0  0  0  0  0  0  0  0  0  0
  -28.2436   31.5080  -44.3869 O   0  0  0  0  0  0  0  0  0  0  0  0
  -24.9634   35.7573  -45.8688 N   0  0  0  0  0  0  0  0  0  0  0  0
  -26.4727   34.4719  -42.5590 C   0  0  0  0  0  0  0  0  0  0  0  0
  -20.3329   29.1811  -45.6280 C   0  0  0  0  0  0  0  0  0  0  0  0
  -22.0177   30.2090  -44.1557 C   0  0  0  0  0  0  0  0  0  0  0  0
  -20.5283   35.6090  -45.1841 F   0  0  0  0  0  0  0  0  0  0  0  0
  -20.4500   34.3642  -44.2516 C   0  0  0  0  0  0  0  0  0  0  0  0
  -28.3119   35.8136  -44.7507 C   0  0  0  0  0  0  0  0  0  0  0  0
  -22.5733   35.7056  -46.4599 C   0  0  0  0  0  0  0  0  0  0  0  0
  -22.3067   32.7400  -44.3644 C   0  0  0  0  0  0  0  0  0  0  0  0
  -27.7634   35.0002  -43.5015 C   0  0  0  0  0  0  0  0  0  0  0  0
  -26.1571   35.1555  -45.8656 C   0  0  0  0  0  0  0  0  0  0  0  0
  -20.6766   31.5243  -45.6206 N   0  0  0  0  0  0  0  0  0  0  0  0
  -27.4571   36.0332  -46.0371 C   0  0  0  0  0  0  0  0  0  0  0  0
  -26.4364   33.7842  -45.4950 N   0  0  0  0  0  0  0  0  0  0  0  0
  -28.7118   37.1587  -44.3089 O   0  0  0  0  0  0  0  0  0  0  0  0
  -21.6845   31.4491  -44.6985 C   0  0  0  0  0  0  0  0  0  0  0  0
  -20.0516   30.4665  -46.1127 C   0  0  0  0  0  0  0  0  0  0  0  0
  -24.3745   32.9897  -42.8730 C   0  0  0  0  0  0  0  0  0  0  0  0
  -21.9060   35.0166  -45.6910 C   0  0  0  0  0  0  0  0  0  0  0  0
  -24.2956   36.4643  -47.7686 O   0  0  0  0  0  0  0  0  0  0  0  0
  -21.8289   33.9234  -44.9055 C   0  0  0  0  0  0  0  0  0  0  0  0
  -26.2680   32.8209  -44.4494 C   0  0  0  0  0  0  0  0  0  0  0  0
  -23.2571   32.7679  -43.4052 C   0  0  0  0  0  0  0  0  0  0  0  0
  -23.9305   36.0089  -46.6860 C   0  0  0  0  0  0  0  0  0  0  0  0
  1  3  1  0
  1  5  1  0
  1 27  1  0
  2  7  1  0
  2 23  1  0
  2 27  1  0
  4  8  2  0
  4  9  1  0
  6 16  2  0
  6 29  1  0
  7 15  1  0
  8 22  1  0
  9 21  2  0
 10 11  1  0
 11 26  1  0
 12 15  1  0
 12 18  1  0
 12 20  1  0
 13 24  1  0
 13 29  1  0
 14 21  1  0
 14 26  1  0
 14 28  2  0
 16 18  1  0
 16 19  1  0
 17 21  1  0
 17 22  2  0
 19 27  2  0
 23 28  2  0
 24 26  2  0
 25 29  2  0
M  END
>  <ID>  (1) 
conformer_0

$$$$
