
     RDKit          3D

 25 29  0  0  0  0  0  0  0  0999 V2000
  -26.9560   35.1643  -44.0734 C   0  0  0  0  0  0  0  0  0  0  0  0
  -26.6544   33.7453  -44.0651 C   0  0  0  0  0  0  0  0  0  0  0  0
  -23.4544   31.6837  -44.2282 N   0  0  0  0  0  0  0  0  0  0  0  0
  -27.7387   35.7779  -43.3198 O   0  0  0  0  0  0  0  0  0  0  0  0
  -27.6086   32.7498  -43.8306 C   0  0  0  0  0  0  0  0  0  0  0  0
  -24.8689   35.4994  -45.3281 C   0  0  0  0  0  0  0  0  0  0  0  0
  -26.9804   36.2396  -46.2277 C   0  0  0  0  0  0  0  0  0  0  0  0
  -22.5449   32.6594  -44.6447 C   0  0  0  0  0  0  0  0  0  0  0  0
  -25.8707   31.0218  -43.8784 C   0  0  0  0  0  0  0  0  0  0  0  0
  -25.3058   33.3327  -44.3174 C   0  0  0  0  0  0  0  0  0  0  0  0
  -24.3926   34.2643  -44.8225 C   0  0  0  0  0  0  0  0  0  0  0  0
  -22.6188   37.6646  -47.6235 C   0  0  0  0  0  0  0  0  0  0  0  0
  -24.8641   31.9744  -44.1236 C   0  0  0  0  0  0  0  0  0  0  0  0
  -21.5391   30.1739  -44.1173 C   0  0  0  0  0  0  0  0  0  0  0  0
  -21.2118   32.3685  -44.8704 C   0  0  0  0  0  0  0  0  0  0  0  0
  -26.2169   35.9129  -44.9941 N   0  0  0  0  0  0  0  0  0  0  0  0
  -22.8714   37.1086  -49.0197 C   0  0  0  0  0  0  0  0  0  0  0  0
  -22.0385   34.8207  -45.3556 C   0  0  0  0  0  0  0  0  0  0  0  0
  -22.9349   36.6171  -46.6405 C   0  0  0  0  0  0  0  0  0  0  0  0
  -21.8227   35.8584  -46.1169 C   0  0  0  0  0  0  0  0  0  0  0  0
  -23.0051   33.9669  -44.9370 C   0  0  0  0  0  0  0  0  0  0  0  0
  -22.8614   30.4561  -43.9443 N   0  0  0  0  0  0  0  0  0  0  0  0
  -27.2139   31.4243  -43.7839 C   0  0  0  0  0  0  0  0  0  0  0  0
  -24.1748   36.2946  -46.1863 C   0  0  0  0  0  0  0  0  0  0  0  0
  -20.6797   31.1408  -44.6195 C   0  0  0  0  0  0  0  0  0  0  0  0
  1  2  1  0
  1  4  2  0
  1 16  1  0
  2  5  1  0
  2 10  2  0
  3  8  1  0
  3 13  1  0
  3 22  1  0
  5 23  2  0
  6 11  1  0
  6 16  1  0
  6 24  1  0
  7 16  1  0
  8 15  1  0
  8 21  1  0
  9 13  2  0
  9 23  1  0
 10 11  1  0
 10 13  1  0
 11 21  2  0
 12 17  1  0
 12 19  1  0
 14 22  2  0
 14 25  1  0
 15 25  2  0
 18 20  2  0
 18 21  1  0
 19 20  1  0
 19 24  2  0
M  END
>  <ID>  (1) 
conformer_0

$$$$
