
     RDKit          3D

 20 22  0  0  0  0  0  0  0  0999 V2000
  -24.6332   36.3630  -45.3489 C   0  0  0  0  0  0  0  0  0  0  0  0
  -21.0564   31.0499  -44.5546 C   0  0  0  0  0  0  0  0  0  0  0  0
  -25.5997   33.4620  -44.8986 C   0  0  0  0  0  0  0  0  0  0  0  0
  -23.3072   35.6228  -45.7501 C   0  0  0  0  0  0  0  0  0  0  0  0
  -27.3745   35.1161  -44.6985 C   0  0  0  0  0  0  0  0  0  0  0  0
  -26.6743   33.8931  -43.9713 C   0  0  0  0  0  0  0  0  0  0  0  0
  -24.3891   31.4866  -43.2246 C   0  0  0  0  0  0  0  0  0  0  0  0
  -25.9195   31.1278  -43.3407 C   0  0  0  0  0  0  0  0  0  0  0  0
  -23.1336   32.1561  -43.8876 C   0  0  0  0  0  0  0  0  0  0  0  0
  -23.2000   33.6603  -44.0585 C   0  0  0  0  0  0  0  0  0  0  0  0
  -23.4239   37.6567  -47.0734 C   0  0  0  0  0  0  0  0  0  0  0  0
  -27.7709   32.8013  -43.6800 C   0  0  0  0  0  0  0  0  0  0  0  0
  -24.5395   37.6985  -46.0738 C   0  0  0  0  0  0  0  0  0  0  0  0
  -24.7069   34.1362  -43.8969 C   0  0  0  0  0  0  0  0  0  0  0  0
  -22.7211   36.3458  -46.9154 C   0  0  0  0  0  0  0  0  0  0  0  0
  -21.5815   36.0342  -47.4712 O   0  0  0  0  0  0  0  0  0  0  0  0
  -26.2443   36.1072  -45.1790 C   0  0  0  0  0  0  0  0  0  0  0  0
  -22.4437   31.3122  -44.8957 C   0  0  0  0  0  0  0  0  0  0  0  0
  -27.1958   31.4453  -44.1680 C   0  0  0  0  0  0  0  0  0  0  0  0
  -22.6327   34.2908  -45.3928 C   0  0  0  0  0  0  0  0  0  0  0  0
  1  4  1  0
  1 13  1  0
  1 17  1  0
  2 18  1  0
  3  6  1  0
  3 14  1  0
  4 15  2  0
  4 20  1  0
  5  6  1  0
  5 17  1  0
  6 12  1  0
  7  8  2  0
  7  9  1  0
  8 19  1  0
  9 10  1  0
  9 18  1  0
 10 14  1  0
 10 20  1  0
 11 13  1  0
 11 15  1  0
 12 19  1  0
 15 16  1  0
M  END
>  <ID>  (1) 
conformer_0

$$$$
