
     RDKit          3D

 27 29  0  0  0  0  0  0  0  0999 V2000
  -27.1134   35.7170  -44.7665 C   0  0  0  0  0  0  0  0  0  0  0  0
  -23.9027   33.0845  -43.3297 N   0  0  0  0  0  0  0  0  0  0  0  0
  -24.4341   30.9037  -42.8811 O   0  0  0  0  0  0  0  0  0  0  0  0
  -20.7087   33.6818  -44.6785 C   0  0  0  0  0  0  0  0  0  0  0  0
  -22.7648   33.1777  -43.7657 C   0  0  0  0  0  0  0  0  0  0  0  0
  -25.2991   36.0493  -46.7162 C   0  0  0  0  0  0  0  0  0  0  0  0
  -23.8261   36.8990  -48.3849 C   0  0  0  0  0  0  0  0  0  0  0  0
  -22.9427   35.8855  -46.4401 C   0  0  0  0  0  0  0  0  0  0  0  0
  -26.7471   35.7422  -46.2370 C   0  0  0  0  0  0  0  0  0  0  0  0
  -21.5816   32.6628  -44.2730 C   0  0  0  0  0  0  0  0  0  0  0  0
  -21.2405   31.3158  -44.4331 C   0  0  0  0  0  0  0  0  0  0  0  0
  -28.3847   31.1671  -43.3428 C   0  0  0  0  0  0  0  0  0  0  0  0
  -26.3214   35.0944  -43.6518 C   0  0  0  0  0  0  0  0  0  0  0  0
  -28.5876   35.1069  -44.6132 C   0  0  0  0  0  0  0  0  0  0  0  0
  -22.7454   36.4808  -47.6652 C   0  0  0  0  0  0  0  0  0  0  0  0
  -21.7920   35.5839  -45.7529 C   0  0  0  0  0  0  0  0  0  0  0  0
  -21.2111   30.7233  -45.6334 C   0  0  0  0  0  0  0  0  0  0  0  0
  -26.5182   35.9176  -42.4630 O   0  0  0  0  0  0  0  0  0  0  0  0
  -25.1181   36.7002  -47.9197 C   0  0  0  0  0  0  0  0  0  0  0  0
  -28.4451   33.8586  -43.7985 C   0  0  0  0  0  0  0  0  0  0  0  0
  -20.9397   34.8662  -45.1715 C   0  0  0  0  0  0  0  0  0  0  0  0
  -24.1990   35.6948  -45.9894 N   0  0  0  0  0  0  0  0  0  0  0  0
  -27.0053   31.2895  -44.1090 C   0  0  0  0  0  0  0  0  0  0  0  0
  -24.7829   32.0718  -43.1419 C   0  0  0  0  0  0  0  0  0  0  0  0
  -26.9073   33.7349  -43.3946 C   0  0  0  0  0  0  0  0  0  0  0  0
  -22.0544   30.3210  -44.5907 C   0  0  0  0  0  0  0  0  0  0  0  0
  -26.2108   32.3658  -43.3079 C   0  0  0  0  0  0  0  0  0  0  0  0
  1  9  1  0
  1 13  1  0
  1 14  1  0
  2  5  2  0
  2 24  1  0
  3 24  2  0
  4 10  1  0
  4 21  1  0
  5 10  1  0
  6  9  1  0
  6 19  1  0
  6 22  2  0
  7 15  2  0
  7 19  1  0
  8 15  1  0
  8 16  2  0
  8 22  1  0
 10 11  1  0
 11 17  1  0
 11 26  1  0
 12 23  1  0
 13 18  1  0
 13 25  1  0
 14 20  1  0
 16 21  2  0
 20 25  1  0
 23 27  1  0
 24 27  1  0
 25 27  1  0
M  END
>  <ID>  (1) 
conformer_0

$$$$
