
     RDKit          3D

 19 22  0  0  0  0  0  0  0  0999 V2000
  -21.8191   33.3848  -45.0669 N   0  0  0  0  0  0  0  0  0  0  0  0
  -21.9542   34.6681  -45.6711 C   0  0  0  0  0  0  0  0  0  0  0  0
  -24.9471   31.6713  -43.8280 C   0  0  0  0  0  0  0  0  0  0  0  0
  -23.9859   34.0536  -44.9044 N   0  0  0  0  0  0  0  0  0  0  0  0
  -23.8820   36.1933  -46.1573 C   0  0  0  0  0  0  0  0  0  0  0  0
  -23.0933   32.9944  -44.6163 C   0  0  0  0  0  0  0  0  0  0  0  0
  -23.5028   36.9639  -48.5248 C   0  0  0  0  0  0  0  0  0  0  0  0
  -25.8491   32.7516  -44.0359 C   0  0  0  0  0  0  0  0  0  0  0  0
  -26.2197   36.2073  -45.1396 N   0  0  0  0  0  0  0  0  0  0  0  0
  -25.3113   33.9782  -44.5490 C   0  0  0  0  0  0  0  0  0  0  0  0
  -26.3245   34.9498  -44.6433 C   0  0  0  0  0  0  0  0  0  0  0  0
  -25.1753   36.6576  -45.8520 C   0  0  0  0  0  0  0  0  0  0  0  0
  -25.3974   30.5034  -43.4158 O   0  0  0  0  0  0  0  0  0  0  0  0
  -27.2719   32.9117  -43.8523 C   0  0  0  0  0  0  0  0  0  0  0  0
  -22.9872   37.0325  -47.1533 C   0  0  0  0  0  0  0  0  0  0  0  0
  -27.6676   34.3417  -44.1913 C   0  0  0  0  0  0  0  0  0  0  0  0
  -28.2716   31.5828  -43.3863 Cl  0  0  0  0  0  0  0  0  0  0  0  0
  -23.5689   31.8224  -44.0779 C   0  0  0  0  0  0  0  0  0  0  0  0
  -23.3039   35.0563  -45.5860 C   0  0  0  0  0  0  0  0  0  0  0  0
  1  2  1  0
  1  6  2  0
  2 19  1  0
  3  8  1  0
  3 13  1  0
  3 18  2  0
  4  6  1  0
  4 10  1  0
  4 19  1  0
  5 12  1  0
  5 15  1  0
  5 19  1  0
  6 18  1  0
  7 15  1  0
  8 10  1  0
  8 14  2  0
  9 11  1  0
  9 12  2  0
 10 11  2  0
 11 16  1  0
 14 16  1  0
 14 17  1  0
M  END
>  <ID>  (1) 
conformer_0

$$$$
