
     RDKit          3D

 20 21  0  0  0  0  0  0  0  0999 V2000
  -21.3914   34.2170  -45.5930 O   0  0  0  0  0  0  0  0  0  0  0  0
  -25.7016   33.1854  -42.7828 C   0  0  0  0  0  0  0  0  0  0  0  0
  -26.8441   35.4091  -42.7134 C   0  0  0  0  0  0  0  0  0  0  0  0
  -23.3001   32.5565  -44.0634 C   0  0  0  0  0  0  0  0  0  0  0  0
  -25.1734   36.9112  -45.3918 O   0  0  0  0  0  0  0  0  0  0  0  0
  -26.8260   30.0569  -42.7247 C   0  0  0  0  0  0  0  0  0  0  0  0
  -22.5650   36.7456  -46.6413 O   0  0  0  0  0  0  0  0  0  0  0  0
  -26.9486   31.8743  -44.4918 C   0  0  0  0  0  0  0  0  0  0  0  0
  -25.7371   34.6288  -43.3044 C   0  0  0  0  0  0  0  0  0  0  0  0
  -27.7026   33.1004  -44.7826 O   0  0  0  0  0  0  0  0  0  0  0  0
  -24.6575   34.8481  -44.3207 C   0  0  0  0  0  0  0  0  0  0  0  0
  -23.5313   33.9479  -44.5016 C   0  0  0  0  0  0  0  0  0  0  0  0
  -23.1128   35.8733  -45.7884 C   0  0  0  0  0  0  0  0  0  0  0  0
  -22.6004   34.6541  -45.3147 C   0  0  0  0  0  0  0  0  0  0  0  0
  -24.4151   31.5871  -44.3069 C   0  0  0  0  0  0  0  0  0  0  0  0
  -21.9847   36.3409  -47.9248 C   0  0  0  0  0  0  0  0  0  0  0  0
  -27.7609   30.8642  -43.6118 C   0  0  0  0  0  0  0  0  0  0  0  0
  -27.5717   36.2622  -43.4994 O   0  0  0  0  0  0  0  0  0  0  0  0
  -25.6921   32.1653  -43.8271 N   0  0  0  0  0  0  0  0  0  0  0  0
  -24.4083   35.9587  -45.1586 C   0  0  0  0  0  0  0  0  0  0  0  0
  1 14  1  0
  2  9  1  0
  2 19  1  0
  3  9  1  0
  3 18  1  0
  4 12  1  0
  4 15  1  0
  5 20  2  0
  6 17  1  0
  7 13  1  0
  7 16  1  0
  8 10  1  0
  8 17  1  0
  8 19  1  0
  9 11  1  0
 11 12  1  0
 11 20  1  0
 12 14  1  0
 13 14  2  0
 13 20  1  0
 15 19  1  0
M  END
>  <ID>  (1) 
conformer_0

$$$$
