
     RDKit          3D

 25 28  0  0  0  0  0  0  0  0999 V2000
  -28.1026   31.4129  -43.4949 C   0  0  0  0  0  0  0  0  0  0  0  0
  -26.0885   35.9298  -42.8646 O   0  0  0  0  0  0  0  0  0  0  0  0
  -22.5507   32.8570  -43.1475 C   0  0  0  0  0  0  0  0  0  0  0  0
  -22.3743   34.8596  -45.5334 C   0  0  0  0  0  0  0  0  0  0  0  0
  -21.2379   32.9909  -43.3300 C   0  0  0  0  0  0  0  0  0  0  0  0
  -24.8056   33.0053  -43.5999 O   0  0  0  0  0  0  0  0  0  0  0  0
  -22.8571   35.6927  -46.5835 C   0  0  0  0  0  0  0  0  0  0  0  0
  -25.2551   36.9541  -48.3162 O   0  0  0  0  0  0  0  0  0  0  0  0
  -25.4564   36.4250  -47.1607 C   0  0  0  0  0  0  0  0  0  0  0  0
  -26.9700   35.4215  -43.8945 C   0  0  0  0  0  0  0  0  0  0  0  0
  -25.1756   31.8437  -43.5988 C   0  0  0  0  0  0  0  0  0  0  0  0
  -26.7095   36.0374  -46.3543 C   0  0  0  0  0  0  0  0  0  0  0  0
  -24.6920   35.0271  -45.3506 N   0  0  0  0  0  0  0  0  0  0  0  0
  -25.7961   30.7066  -43.5815 C   0  0  0  0  0  0  0  0  0  0  0  0
  -28.0019   32.6824  -43.5106 C   0  0  0  0  0  0  0  0  0  0  0  0
  -24.2926   35.7998  -46.4827 C   0  0  0  0  0  0  0  0  0  0  0  0
  -22.1013   36.3094  -47.6566 C   0  0  0  0  0  0  0  0  0  0  0  0
  -23.5621   33.4522  -43.8464 C   0  0  0  0  0  0  0  0  0  0  0  0
  -23.5237   34.4092  -44.8290 C   0  0  0  0  0  0  0  0  0  0  0  0
  -28.0907   36.2941  -44.0722 O   0  0  0  0  0  0  0  0  0  0  0  0
  -27.1620   30.3897  -43.5262 C   0  0  0  0  0  0  0  0  0  0  0  0
  -21.1147   34.5264  -45.2233 C   0  0  0  0  0  0  0  0  0  0  0  0
  -26.1640   35.2339  -45.1474 N   0  0  0  0  0  0  0  0  0  0  0  0
  -27.5912   34.0366  -43.3567 C   0  0  0  0  0  0  0  0  0  0  0  0
  -20.6218   33.7385  -44.2707 C   0  0  0  0  0  0  0  0  0  0  0  0
  1 15  2  0
  1 21  1  0
  2 10  1  0
  3  5  2  0
  3 18  1  0
  4  7  1  0
  4 19  2  0
  4 22  1  0
  5 25  1  0
  6 11  1  0
  6 18  1  0
  7 16  1  0
  7 17  1  0
  8  9  1  0
  9 12  1  0
  9 16  2  0
 10 20  1  0
 10 23  1  0
 10 24  1  0
 11 14  1  0
 12 23  1  0
 13 16  1  0
 13 19  1  0
 13 23  1  0
 14 21  2  0
 15 24  2  0
 18 19  1  0
 22 25  2  0
M  END
>  <ID>  (1) 
conformer_0

$$$$
