
     RDKit          3D

 24 26  0  0  0  0  0  0  0  0999 V2000
  -24.6933   32.9342  -44.3441 C   0  0  0  0  0  0  0  0  0  0  0  0
  -25.7101   34.9555  -44.6750 C   0  0  0  0  0  0  0  0  0  0  0  0
  -23.6125   37.1845  -48.9850 C   0  0  0  0  0  0  0  0  0  0  0  0
  -23.7430   33.8281  -44.9092 C   0  0  0  0  0  0  0  0  0  0  0  0
  -25.7632   30.8327  -43.3190 C   0  0  0  0  0  0  0  0  0  0  0  0
  -27.3098   30.5744  -43.5330 C   0  0  0  0  0  0  0  0  0  0  0  0
  -24.9841   37.0595  -49.0710 C   0  0  0  0  0  0  0  0  0  0  0  0
  -25.0405   36.3794  -46.8342 C   0  0  0  0  0  0  0  0  0  0  0  0
  -24.6299   31.4636  -44.0943 C   0  0  0  0  0  0  0  0  0  0  0  0
  -28.0881   34.3520  -43.4725 C   0  0  0  0  0  0  0  0  0  0  0  0
  -21.4906   36.2344  -48.3190 F   0  0  0  0  0  0  0  0  0  0  0  0
  -22.6973   37.0422  -47.9564 C   0  0  0  0  0  0  0  0  0  0  0  0
  -25.3291   30.0164  -42.2252 O   0  0  0  0  0  0  0  0  0  0  0  0
  -22.8471   36.8506  -45.5152 C   0  0  0  0  0  0  0  0  0  0  0  0
  -24.4074   35.0286  -45.1206 N   0  0  0  0  0  0  0  0  0  0  0  0
  -24.0923   36.0891  -45.9012 C   0  0  0  0  0  0  0  0  0  0  0  0
  -27.8869   35.6104  -44.0207 C   0  0  0  0  0  0  0  0  0  0  0  0
  -25.8762   33.6545  -44.1346 C   0  0  0  0  0  0  0  0  0  0  0  0
  -27.0809   33.3888  -43.5104 C   0  0  0  0  0  0  0  0  0  0  0  0
  -25.7257   36.6054  -47.9242 C   0  0  0  0  0  0  0  0  0  0  0  0
  -26.6964   35.9053  -44.6368 C   0  0  0  0  0  0  0  0  0  0  0  0
  -22.3448   37.6787  -46.6459 C   0  0  0  0  0  0  0  0  0  0  0  0
  -23.1938   30.9911  -43.9103 C   0  0  0  0  0  0  0  0  0  0  0  0
  -22.9602   37.5024  -50.0902 F   0  0  0  0  0  0  0  0  0  0  0  0
  1  4  1  0
  1  9  1  0
  1 18  1  0
  2 15  1  0
  2 18  2  0
  2 21  1  0
  3  7  2  0
  3 12  1  0
  3 24  1  0
  4 15  1  0
  5  6  1  0
  5  9  1  0
  5 13  1  0
  7 20  1  0
  8 16  2  0
  8 20  2  0
  9 23  1  0
 10 17  1  0
 10 19  2  0
 11 12  1  0
 12 22  1  0
 14 16  1  0
 14 22  1  0
 15 16  1  0
 17 21  2  0
 18 19  1  0
M  END
>  <ID>  (1) 
conformer_0

$$$$
