
     RDKit          3D

 22 25  0  0  0  0  0  0  0  0999 V2000
  -22.9268   36.1444  -47.2172 C   0  0  0  0  0  0  0  0  0  0  0  0
  -25.0597   32.8029  -43.9088 C   0  0  0  0  0  0  0  0  0  0  0  0
  -23.2751   36.9141  -48.3183 C   0  0  0  0  0  0  0  0  0  0  0  0
  -27.2724   34.0539  -43.5591 C   0  0  0  0  0  0  0  0  0  0  0  0
  -25.0417   32.3289  -42.5541 O   0  0  0  0  0  0  0  0  0  0  0  0
  -25.1403   36.5166  -46.9591 C   0  0  0  0  0  0  0  0  0  0  0  0
  -27.9842   35.4055  -43.7680 C   0  0  0  0  0  0  0  0  0  0  0  0
  -27.2431   31.5032  -44.2524 C   0  0  0  0  0  0  0  0  0  0  0  0
  -23.1598   34.2117  -44.7886 C   0  0  0  0  0  0  0  0  0  0  0  0
  -25.8417   31.8116  -44.7857 C   0  0  0  0  0  0  0  0  0  0  0  0
  -24.1236   35.1798  -45.1935 N   0  0  0  0  0  0  0  0  0  0  0  0
  -21.8037   34.4705  -44.8528 C   0  0  0  0  0  0  0  0  0  0  0  0
  -28.0331   32.7375  -43.7794 C   0  0  0  0  0  0  0  0  0  0  0  0
  -21.3372   32.2192  -44.3426 C   0  0  0  0  0  0  0  0  0  0  0  0
  -25.7762   34.1224  -43.9376 C   0  0  0  0  0  0  0  0  0  0  0  0
  -25.2040   35.2658  -44.4034 N   0  0  0  0  0  0  0  0  0  0  0  0
  -24.7431   37.1356  -48.1330 C   0  0  0  0  0  0  0  0  0  0  0  0
  -24.0432   35.9030  -46.3743 C   0  0  0  0  0  0  0  0  0  0  0  0
  -22.6694   31.9860  -44.2063 C   0  0  0  0  0  0  0  0  0  0  0  0
  -20.8907   33.4951  -44.6125 C   0  0  0  0  0  0  0  0  0  0  0  0
  -21.6565   35.7326  -47.1531 F   0  0  0  0  0  0  0  0  0  0  0  0
  -23.6046   32.9971  -44.3166 C   0  0  0  0  0  0  0  0  0  0  0  0
  1  3  1  0
  1 18  2  0
  1 21  1  0
  2  5  1  0
  2 10  1  0
  2 15  1  0
  2 22  1  0
  3 17  1  0
  4  7  1  0
  4 13  1  0
  4 15  1  0
  6 17  1  0
  6 18  1  0
  8 10  1  0
  8 13  1  0
  9 11  1  0
  9 12  1  0
  9 22  2  0
 11 16  1  0
 11 18  1  0
 12 20  2  0
 14 19  2  0
 14 20  1  0
 15 16  1  0
 19 22  1  0
M  END
>  <ID>  (1) 
conformer_0

$$$$
