
     RDKit          3D

 22 25  0  0  0  0  0  0  0  0999 V2000
  -24.1588   34.0199  -44.5869 C   0  0  0  0  0  0  0  0  0  0  0  0
  -24.9690   32.0252  -44.1240 C   0  0  0  0  0  0  0  0  0  0  0  0
  -26.4110   30.0276  -43.0821 C   0  0  0  0  0  0  0  0  0  0  0  0
  -27.7410   33.2755  -43.8135 C   0  0  0  0  0  0  0  0  0  0  0  0
  -26.4608   34.1034  -43.7290 C   0  0  0  0  0  0  0  0  0  0  0  0
  -23.6297   31.8920  -44.2377 N   0  0  0  0  0  0  0  0  0  0  0  0
  -26.6000   35.6041  -43.8038 C   0  0  0  0  0  0  0  0  0  0  0  0
  -27.4680   31.8678  -44.3290 N   0  0  0  0  0  0  0  0  0  0  0  0
  -21.2821   34.3553  -45.4307 C   0  0  0  0  0  0  0  0  0  0  0  0
  -23.3051   35.7430  -46.0359 C   0  0  0  0  0  0  0  0  0  0  0  0
  -22.3435   37.3545  -49.1791 C   0  0  0  0  0  0  0  0  0  0  0  0
  -21.4312   35.8100  -47.3507 O   0  0  0  0  0  0  0  0  0  0  0  0
  -22.4276   36.6570  -47.8945 C   0  0  0  0  0  0  0  0  0  0  0  0
  -23.1231   33.1265  -44.5020 C   0  0  0  0  0  0  0  0  0  0  0  0
  -26.6177   36.1021  -42.4938 O   0  0  0  0  0  0  0  0  0  0  0  0
  -23.5577   36.6711  -47.0373 C   0  0  0  0  0  0  0  0  0  0  0  0
  -27.4182   35.9959  -45.0385 C   0  0  0  0  0  0  0  0  0  0  0  0
  -22.0189   35.2048  -46.1639 C   0  0  0  0  0  0  0  0  0  0  0  0
  -25.2924   33.3674  -44.1722 N   0  0  0  0  0  0  0  0  0  0  0  0
  -21.7365   33.3414  -44.6557 C   0  0  0  0  0  0  0  0  0  0  0  0
  -26.1879   31.0820  -44.0898 C   0  0  0  0  0  0  0  0  0  0  0  0
  -24.2034   35.2879  -45.1138 C   0  0  0  0  0  0  0  0  0  0  0  0
  1 14  1  0
  1 19  1  0
  1 22  1  0
  2  6  2  0
  2 19  1  0
  2 21  1  0
  3 21  1  0
  4  5  1  0
  4  8  1  0
  5  7  1  0
  5 19  1  0
  6 14  1  0
  7 15  1  0
  7 17  1  0
  8 21  1  0
  9 18  1  0
  9 20  2  0
 10 16  1  0
 10 18  2  0
 10 22  1  0
 11 13  1  0
 12 13  1  0
 12 18  1  0
 13 16  1  0
 14 20  1  0
M  END
>  <ID>  (1) 
conformer_0

$$$$
