
     RDKit          3D

 21 22  0  0  0  0  0  0  0  0999 V2000
  -22.2713   30.8644  -44.2687 C   0  0  0  0  0  0  0  0  0  0  0  0
  -25.9721   36.2366  -45.6311 C   0  0  0  0  0  0  0  0  0  0  0  0
  -26.4485   35.9773  -42.7336 O   0  0  0  0  0  0  0  0  0  0  0  0
  -26.4042   32.6513  -44.5172 C   0  0  0  0  0  0  0  0  0  0  0  0
  -27.1301   30.6386  -43.2858 C   0  0  0  0  0  0  0  0  0  0  0  0
  -24.5709   31.1442  -43.3572 C   0  0  0  0  0  0  0  0  0  0  0  0
  -26.7311   34.9163  -43.5988 C   0  0  0  0  0  0  0  0  0  0  0  0
  -20.9148   31.4693  -44.4240 C   0  0  0  0  0  0  0  0  0  0  0  0
  -28.3490   30.9711  -44.0209 O   0  0  0  0  0  0  0  0  0  0  0  0
  -22.3441   36.9645  -48.5352 C   0  0  0  0  0  0  0  0  0  0  0  0
  -22.4259   35.9953  -47.4298 C   0  0  0  0  0  0  0  0  0  0  0  0
  -20.9524   32.9293  -44.8821 C   0  0  0  0  0  0  0  0  0  0  0  0
  -24.0517   33.3926  -44.2823 C   0  0  0  0  0  0  0  0  0  0  0  0
  -22.9728   34.3837  -44.4111 O   0  0  0  0  0  0  0  0  0  0  0  0
  -21.6520   33.8684  -43.8942 C   0  0  0  0  0  0  0  0  0  0  0  0
  -24.3585   36.6028  -45.7422 C   0  0  0  0  0  0  0  0  0  0  0  0
  -25.9502   31.2933  -44.0086 C   0  0  0  0  0  0  0  0  0  0  0  0
  -25.5626   33.8572  -43.9429 C   0  0  0  0  0  0  0  0  0  0  0  0
  -27.2022   35.4502  -44.9924 C   0  0  0  0  0  0  0  0  0  0  0  0
  -22.7444   36.5590  -46.0186 C   0  0  0  0  0  0  0  0  0  0  0  0
  -23.4589   31.9309  -44.1675 C   0  0  0  0  0  0  0  0  0  0  0  0
  1  8  1  0
  1 21  1  0
  2 16  1  0
  2 19  1  0
  3  7  1  0
  4 17  1  0
  4 18  1  0
  5  9  1  0
  5 17  1  0
  6 17  1  0
  6 21  1  0
  7 18  1  0
  7 19  1  0
  8 12  1  0
 10 11  1  0
 11 20  1  0
 12 15  1  0
 13 14  1  0
 13 18  1  0
 13 21  1  0
 14 15  1  0
 16 20  1  0
M  END
>  <ID>  (1) 
conformer_0

$$$$
