
     RDKit          3D

 22 25  0  0  0  0  0  0  0  0999 V2000
  -26.8155   32.2451  -44.0505 C   0  0  0  0  0  0  0  0  0  0  0  0
  -26.5096   35.2044  -44.6936 C   0  0  0  0  0  0  0  0  0  0  0  0
  -20.9983   32.9309  -43.8354 C   0  0  0  0  0  0  0  0  0  0  0  0
  -26.7580   29.9778  -43.0339 C   0  0  0  0  0  0  0  0  0  0  0  0
  -24.7124   33.3592  -43.9244 C   0  0  0  0  0  0  0  0  0  0  0  0
  -27.3631   30.8312  -44.0646 C   0  0  0  0  0  0  0  0  0  0  0  0
  -22.8406   36.4216  -47.9984 C   0  0  0  0  0  0  0  0  0  0  0  0
  -23.2747   33.4099  -44.0752 C   0  0  0  0  0  0  0  0  0  0  0  0
  -20.6933   33.8683  -44.8185 C   0  0  0  0  0  0  0  0  0  0  0  0
  -25.2583   34.5558  -44.6440 C   0  0  0  0  0  0  0  0  0  0  0  0
  -24.1459   35.2073  -45.3201 C   0  0  0  0  0  0  0  0  0  0  0  0
  -23.2394   37.1140  -46.7272 C   0  0  0  0  0  0  0  0  0  0  0  0
  -24.3456   36.3777  -46.0648 C   0  0  0  0  0  0  0  0  0  0  0  0
  -22.3098   32.6863  -43.4850 C   0  0  0  0  0  0  0  0  0  0  0  0
  -26.7297   36.2999  -45.5422 C   0  0  0  0  0  0  0  0  0  0  0  0
  -25.4197   32.2728  -43.6417 N   0  0  0  0  0  0  0  0  0  0  0  0
  -22.6346   38.0675  -45.8146 C   0  0  0  0  0  0  0  0  0  0  0  0
  -22.9507   34.4572  -44.9998 C   0  0  0  0  0  0  0  0  0  0  0  0
  -25.6547   36.8726  -46.1995 C   0  0  0  0  0  0  0  0  0  0  0  0
  -21.6878   34.5899  -45.3974 C   0  0  0  0  0  0  0  0  0  0  0  0
  -27.6922   34.8406  -43.7776 C   0  0  0  0  0  3  0  0  0  0  0  0
  -27.9722   33.2624  -43.5801 S   0  0  0  0  0  3  0  0  0  0  0  0
  1  6  1  0
  1 16  1  0
  1 22  1  0
  2 10  2  0
  2 15  1  0
  2 21  1  0
  3  9  1  0
  3 14  2  0
  4  6  1  0
  5  8  1  0
  5 10  1  0
  5 16  1  0
  7 12  1  0
  8 14  1  0
  8 18  2  0
  9 20  2  0
 10 11  1  0
 11 13  2  0
 11 18  1  0
 12 13  1  0
 12 17  1  0
 13 19  1  0
 15 19  2  0
 18 20  1  0
 21 22  2  0
M  END
>  <ID>  (1) 
conformer_0

$$$$
