
     RDKit          3D

 21 24  0  0  0  0  0  0  0  0999 V2000
  -20.7302   34.2023  -45.1851 C   0  0  0  0  0  0  0  0  0  0  0  0
  -22.0109   34.6734  -45.4682 C   0  0  0  0  0  0  0  0  0  0  0  0
  -23.7569   36.1803  -46.0229 C   0  0  0  0  0  0  0  0  0  0  0  0
  -26.3825   32.6412  -44.3979 C   0  0  0  0  0  0  0  0  0  0  0  0
  -26.9380   35.0440  -43.9509 C   0  0  0  0  0  0  0  0  0  0  0  0
  -24.0998   32.1042  -43.6739 C   0  0  0  0  0  0  0  0  0  0  0  0
  -23.5159   37.4334  -45.3907 O   0  0  0  0  0  0  0  0  0  0  0  0
  -25.7922   35.3570  -44.8169 N   0  0  0  0  0  0  0  0  0  0  0  0
  -28.0034   31.0357  -43.6592 C   0  0  0  0  0  0  0  0  0  0  0  0
  -26.6851   31.2252  -44.3017 O   0  0  0  0  0  0  0  0  0  0  0  0
  -25.2656   32.9969  -43.4258 C   0  0  0  0  0  0  0  0  0  0  0  0
  -23.0998   34.1622  -44.7957 C   0  0  0  0  0  0  0  0  0  0  0  0
  -26.2353   36.3719  -45.8806 C   0  0  0  0  0  0  0  0  0  0  0  0
  -21.6886   32.4208  -43.8936 C   0  0  0  0  0  0  0  0  0  0  0  0
  -27.5482   33.6630  -44.1969 C   0  0  0  0  0  0  0  0  0  0  0  0
  -24.2990   35.0982  -44.9817 C   0  0  0  0  0  0  0  0  0  0  0  0
  -22.9418   32.9242  -44.1260 C   0  0  0  0  0  0  0  0  0  0  0  0
  -20.5929   33.0954  -44.3860 C   0  0  0  0  0  0  0  0  0  0  0  0
  -25.0325   36.3741  -46.9412 C   0  0  0  0  0  0  0  0  0  0  0  0
  -26.9017   35.6996  -42.8132 O   0  0  0  0  0  0  0  0  0  0  0  0
  -22.3527   35.6603  -46.4827 C   0  0  0  0  0  0  0  0  0  0  0  0
  1  2  1  0
  1 18  2  0
  2 12  1  0
  2 21  1  0
  3  7  1  0
  3 16  1  0
  3 19  1  0
  3 21  1  0
  4 10  1  0
  4 11  1  0
  4 15  1  0
  5  8  1  0
  5 15  1  0
  5 20  2  0
  6 11  1  0
  6 17  1  0
  8 13  1  0
  8 16  1  0
  9 10  1  0
 12 16  2  0
 12 17  1  0
 13 19  1  0
 14 17  2  0
 14 18  1  0
M  END
>  <ID>  (1) 
conformer_0

$$$$
