
     RDKit          3D

 20 21  0  0  0  0  0  0  0  0999 V2000
  -23.2779   34.5585  -44.9870 C   0  0  0  0  0  0  0  0  0  0  0  0
  -27.3297   34.7817  -43.3783 C   0  0  0  0  0  0  0  0  0  0  0  0
  -21.1815   34.8667  -45.9547 F   0  0  0  0  0  0  0  0  0  0  0  0
  -24.9875   36.9785  -45.8453 C   0  0  0  0  0  0  0  0  0  0  0  0
  -27.3791   32.2632  -43.8308 C   0  0  0  0  0  0  0  0  0  0  0  0
  -22.6231   36.6285  -46.2235 C   0  0  0  0  0  0  0  0  0  0  0  0
  -23.7556   37.3794  -46.2809 C   0  0  0  0  0  0  0  0  0  0  0  0
  -25.3140   35.7808  -45.3033 C   0  0  0  0  0  0  0  0  0  0  0  0
  -25.9230   30.4162  -42.3927 C   0  0  0  0  0  0  0  0  0  0  0  0
  -22.6039   33.4475  -44.2563 C   0  0  0  0  0  0  0  0  0  0  0  0
  -26.1295   31.6387  -43.2010 C   0  0  0  0  0  0  0  0  0  0  0  0
  -28.1779   31.2122  -44.2345 O   0  0  0  0  0  0  0  0  0  0  0  0
  -24.6706   34.6813  -44.8687 C   0  0  0  0  0  0  0  0  0  0  0  0
  -28.5712   34.6863  -43.1072 O   0  0  0  0  0  0  0  0  0  0  0  0
  -26.8820   33.6399  -44.3457 C   0  0  0  0  0  0  0  0  0  0  0  0
  -22.4212   35.4063  -45.7227 C   0  0  0  0  0  0  0  0  0  0  0  0
  -25.3739   33.5655  -44.3002 N   0  0  0  0  0  0  0  0  0  0  0  0
  -26.5968   35.6323  -42.7821 O   0  0  0  0  0  0  0  0  0  0  0  0
  -26.5168   29.1318  -42.9308 C   0  0  0  0  0  0  0  0  0  0  0  0
  -24.9661   32.2302  -43.8864 C   0  0  0  0  0  0  0  0  0  0  0  0
  1 10  1  0
  1 13  1  0
  1 16  1  0
  2 14  2  0
  2 15  1  0
  2 18  1  0
  3 16  1  0
  4  7  2  0
  4  8  1  0
  5 11  1  0
  5 12  1  0
  5 15  1  0
  6  7  1  0
  6 16  2  0
  8 13  2  0
  9 11  1  0
  9 19  1  0
 11 20  1  0
 13 17  1  0
 15 17  1  0
 17 20  1  0
M  END
>  <ID>  (1) 
conformer_0

$$$$
