
     RDKit          3D

 20 21  0  0  0  0  0  0  0  0999 V2000
  -24.2154   35.1712  -45.3519 C   0  0  0  0  0  0  0  0  0  0  0  0
  -26.2550   31.4290  -42.9815 C   0  0  0  0  0  0  0  0  0  0  0  0
  -26.6374   34.8584  -45.3089 C   0  0  0  0  0  0  0  0  0  0  0  0
  -27.7127   31.7356  -44.8332 O   0  0  0  0  0  0  0  0  0  0  0  0
  -25.1471   33.2810  -44.0087 C   0  0  0  0  0  0  0  0  0  0  0  0
  -20.6651   34.8194  -45.3151 C   0  0  0  0  0  0  0  0  0  0  0  0
  -26.4030   30.0538  -43.1523 O   0  0  0  0  0  0  0  0  0  0  0  0
  -22.7343   33.7019  -44.5611 N   0  0  0  0  0  0  0  0  0  0  0  0
  -22.4134   37.8263  -46.5930 C   0  0  0  0  0  0  0  0  0  0  0  0
  -27.7924   34.7177  -43.4106 C   0  0  0  0  0  0  0  0  0  0  0  0
  -26.6130   33.7987  -44.1099 C   0  0  0  0  0  0  0  0  0  0  0  0
  -24.0734   33.9974  -44.6062 C   0  0  0  0  0  0  0  0  0  0  0  0
  -27.3164   32.3619  -43.6151 C   0  0  0  0  0  0  0  0  0  0  0  0
  -23.0087   35.5038  -45.9700 C   0  0  0  0  0  0  0  0  0  0  0  0
  -25.5214   35.8642  -45.3251 C   0  0  0  0  0  0  0  0  0  0  0  0
  -22.9898   36.5252  -47.0271 C   0  0  0  0  0  0  0  0  0  0  0  0
  -22.0829   34.6552  -45.3165 O   0  0  0  0  0  0  0  0  0  0  0  0
  -23.8704   36.3854  -47.9452 O   0  0  0  0  0  0  0  0  0  0  0  0
  -27.3469   36.0574  -43.2233 O   0  0  0  0  0  0  0  0  0  0  0  0
  -24.9443   31.9210  -43.5399 C   0  0  0  0  0  0  0  0  0  0  0  0
  1 12  2  0
  1 14  1  0
  1 15  1  0
  2  7  1  0
  2 13  1  0
  2 20  1  0
  3 11  1  0
  3 15  1  0
  4 13  1  0
  5 11  1  0
  5 12  1  0
  5 20  1  0
  6 17  1  0
  8 12  1  0
  9 16  1  0
 10 11  1  0
 10 19  1  0
 11 13  1  0
 14 16  1  0
 14 17  1  0
 16 18  2  0
M  END
>  <ID>  (1) 
conformer_0

$$$$
