
     RDKit          3D

 32 35  0  0  0  0  0  0  0  0999 V2000
  -26.0482   36.3954  -47.6982 C   0  0  0  0  0  0  0  0  0  0  0  0
  -22.3034   32.9289  -44.1448 C   0  0  0  0  0  0  0  0  0  0  0  0
  -27.2840   34.0535  -44.4561 C   0  0  0  0  0  0  0  0  0  0  0  0
  -24.5312   31.0504  -43.1835 C   0  0  0  0  0  0  0  0  0  0  0  0
  -23.2209   30.9030  -43.0842 C   0  0  0  0  0  0  0  0  0  0  0  0
  -25.1106   36.1078  -46.6275 C   0  0  0  0  0  0  0  0  0  0  0  0
  -23.8893   37.0220  -48.3812 C   0  0  0  0  0  0  0  0  0  0  0  0
  -25.6800   35.4751  -45.4773 O   0  0  0  0  0  0  0  0  0  0  0  0
  -20.9550   31.3311  -42.8934 O   0  0  0  0  0  0  0  0  0  0  0  0
  -23.8317   36.5664  -47.0495 C   0  0  0  0  0  0  0  0  0  0  0  0
  -26.8710   31.8410  -43.3782 C   0  0  0  0  0  0  0  0  0  0  0  0
  -22.6826   37.3646  -50.5164 C   0  0  0  0  0  0  0  0  0  0  0  0
  -27.8151   35.3580  -43.8883 C   0  0  0  0  0  0  0  0  0  0  0  0
  -19.9889   30.8075  -43.8099 C   0  0  0  0  0  0  0  0  0  0  0  0
  -25.2935   36.9518  -48.8156 C   0  0  0  0  0  0  0  0  0  0  0  0
  -27.5809   30.4726  -43.3759 C   0  0  0  0  0  0  0  0  0  0  0  0
  -23.4867   34.6785  -45.1100 C   0  0  0  0  0  0  0  0  0  0  0  0
  -23.5567   33.5054  -44.4462 C   0  0  0  0  0  0  0  0  0  0  0  0
  -22.7017   36.5485  -46.2569 O   0  0  0  0  0  0  0  0  0  0  0  0
  -22.0783   37.6880  -45.7827 C   0  0  0  0  0  0  0  0  0  0  0  0
  -21.2877   34.8453  -45.2695 C   0  0  0  0  0  0  0  0  0  0  0  0
  -22.8453   37.4903  -49.1009 O   0  0  0  0  0  0  0  0  0  0  0  0
  -25.4286   32.0173  -43.6162 C   0  0  0  0  0  0  0  0  0  0  0  0
  -26.8447   29.4204  -42.5700 C   0  0  0  0  0  0  0  0  0  0  0  0
  -24.9197   33.1382  -44.2562 C   0  0  0  0  0  0  0  0  0  0  0  0
  -25.8763   34.1073  -44.9280 C   0  0  0  0  0  0  0  0  0  0  0  0
  -27.9060   36.4831  -44.4868 O   0  0  0  0  0  0  0  0  0  0  0  0
  -21.1972   33.6312  -44.5759 C   0  0  0  0  0  0  0  0  0  0  0  0
  -22.1555   31.7397  -43.4127 C   0  0  0  0  0  0  0  0  0  0  0  0
  -28.0567   35.2380  -42.6166 O   0  0  0  0  0  0  0  0  0  0  0  0
  -22.5036   35.3717  -45.5401 C   0  0  0  0  0  0  0  0  0  0  0  0
  -27.8619   32.9077  -43.6434 C   0  0  0  0  0  0  0  0  0  0  0  0
  1  6  1  0
  1 15  1  0
  2 18  1  0
  2 28  1  0
  2 29  2  0
  3 13  1  0
  3 26  1  0
  3 32  1  0
  4  5  2  0
  4 23  1  0
  5 29  1  0
  6  8  1  0
  6 10  1  0
  7 10  2  0
  7 15  1  0
  7 22  1  0
  8 26  1  0
  9 14  1  0
  9 29  1  0
 10 19  1  0
 11 16  1  0
 11 23  1  0
 11 32  1  0
 12 22  1  0
 13 27  2  0
 13 30  1  0
 16 24  1  0
 17 18  2  0
 17 31  1  0
 18 25  1  0
 19 20  1  0
 21 28  2  0
 21 31  1  0
 23 25  2  0
 25 26  1  0
M  END
>  <ID>  (1) 
conformer_0

$$$$
