
     RDKit          3D

 31 34  0  0  0  0  0  0  0  0999 V2000
  -23.7284   37.4435  -49.9152 C   0  0  0  0  0  0  0  0  0  0  0  0
  -22.9703   33.3148  -44.6550 C   0  0  0  0  0  0  0  0  0  0  0  0
  -21.7647   33.4503  -43.9801 C   0  0  0  0  0  0  0  0  0  0  0  0
  -24.9756   31.3903  -44.1299 C   0  0  0  0  0  0  0  0  0  0  0  0
  -24.2010   32.6884  -44.2691 C   0  0  0  0  0  0  0  0  0  0  0  0
  -23.2805   34.5169  -45.3476 C   0  0  0  0  0  0  0  0  0  0  0  0
  -22.8363   36.5534  -46.4726 C   0  0  0  0  0  0  0  0  0  0  0  0
  -21.0749   35.1486  -45.6385 C   0  0  0  0  0  0  0  0  0  0  0  0
  -25.0071   36.5265  -47.7547 C   0  0  0  0  0  0  0  0  0  0  0  0
  -25.0928   37.2530  -49.9718 C   0  0  0  0  0  0  0  0  0  0  0  0
  -25.7451   36.7695  -48.8538 C   0  0  0  0  0  0  0  0  0  0  0  0
  -20.7906   34.0527  -44.8450 C   0  0  0  0  0  0  0  0  0  0  0  0
  -27.9661   36.9692  -43.5953 O   0  0  0  0  0  0  0  0  0  0  0  0
  -26.4783   31.6956  -44.2875 C   0  0  0  0  0  0  0  0  0  0  0  0
  -26.7934   35.4307  -41.7611 O   0  0  0  0  0  0  0  0  0  0  0  0
  -23.7695   38.4712  -45.4242 O   0  0  0  0  0  0  0  0  0  0  0  0
  -26.0957   33.8628  -43.3095 C   0  0  0  0  0  0  0  0  0  0  0  0
  -22.3647   35.3200  -46.0176 C   0  0  0  0  0  0  0  0  0  0  0  0
  -28.1812   35.2387  -45.2858 C   0  0  0  0  0  0  0  0  0  0  0  0
  -27.7615   31.3071  -44.5088 O   0  0  0  0  0  0  0  0  0  0  0  0
  -24.9976   30.3852  -42.9736 C   0  0  0  0  0  0  0  0  0  0  0  0
  -25.1691   33.7693  -44.4337 C   0  0  0  0  0  0  0  0  0  0  0  0
  -27.6371   36.0837  -46.4814 C   0  0  0  0  0  0  0  0  0  0  0  0
  -22.6017   37.7329  -45.6978 C   0  0  0  0  0  0  0  0  0  0  0  0
  -23.0018   37.2034  -48.7928 C   0  0  0  0  0  0  0  0  0  0  0  0
  -27.0312   34.8937  -42.9919 C   0  0  0  0  0  0  0  0  0  0  0  0
  -24.6363   34.7512  -45.2568 C   0  0  0  0  0  0  0  0  0  0  0  0
  -27.5133   35.7369  -44.0487 C   0  0  0  0  0  0  0  0  0  0  0  0
  -26.3166   29.5917  -42.7635 C   0  0  0  0  0  0  0  0  0  0  0  0
  -26.5758   32.4960  -42.9045 C   0  0  0  0  0  0  0  0  0  0  0  0
  -23.6337   36.7360  -47.6494 C   0  0  0  0  0  0  0  0  0  0  0  0
  1 10  1  0
  1 25  2  0
  2  3  1  0
  2  5  1  0
  2  6  1  0
  3 12  1  0
  4  5  1  0
  4 14  1  0
  4 21  1  0
  5 22  1  0
  6 18  1  0
  6 27  1  0
  7 18  1  0
  7 24  1  0
  7 31  1  0
  8 12  1  0
  8 18  2  0
  9 11  2  0
  9 31  1  0
 10 11  1  0
 13 28  1  0
 14 20  1  0
 14 30  1  0
 15 26  1  0
 16 24  1  0
 17 22  1  0
 17 26  1  0
 17 30  1  0
 19 23  1  0
 19 28  1  0
 21 29  1  0
 22 27  1  0
 25 31  1  0
 26 28  1  0
M  END
>  <ID>  (1) 
conformer_0

$$$$
