
     RDKit          3D

 15 17  0  0  0  0  0  0  0  0999 V2000
  -25.1524   34.1163  -44.7920 C   0  0  0  0  0  0  0  0  0  0  0  0
  -23.0032   36.6291  -47.4702 C   0  0  0  0  0  0  0  0  0  0  0  0
  -24.3909   35.0901  -45.5986 C   0  0  0  0  0  0  0  0  0  0  0  0
  -25.1487   31.7585  -44.1083 C   0  0  0  0  0  0  0  0  0  0  0  0
  -27.2643   35.4967  -44.3125 C   0  0  0  0  0  0  0  0  0  0  0  0
  -24.3608   36.7948  -47.3144 C   0  0  0  0  0  0  0  0  0  0  0  0
  -25.0285   36.0624  -46.3692 C   0  0  0  0  0  0  0  0  0  0  0  0
  -27.2312   33.0377  -44.1058 C   0  0  0  0  0  0  0  0  0  0  0  0
  -22.9897   34.9767  -45.7153 C   0  0  0  0  0  0  0  0  0  0  0  0
  -22.9596   32.8915  -44.4130 C   0  0  0  0  0  0  0  0  0  0  0  0
  -26.5297   34.1987  -44.4270 C   0  0  0  0  0  0  0  0  0  0  0  0
  -22.2962   35.7543  -46.6533 C   0  0  0  0  0  0  0  0  0  0  0  0
  -22.2458   34.0252  -44.9064 N   0  0  0  0  0  0  0  0  0  0  0  0
  -26.5332   31.8127  -44.0136 C   0  0  0  0  0  0  0  0  0  0  0  0
  -24.4340   32.9293  -44.4355 C   0  0  0  0  0  0  0  0  0  0  0  0
  1  3  1  0
  1 11  1  0
  1 15  1  0
  2  6  2  0
  2 12  1  0
  3  7  2  0
  3  9  1  0
  4 14  2  0
  4 15  1  0
  5 11  1  0
  6  7  1  0
  8 11  2  0
  8 14  1  0
  9 12  2  0
  9 13  1  0
 10 13  1  0
 10 15  2  0
M  END
>  <ID>  (1) 
conformer_0

$$$$
