
     RDKit          3D

 21 25  0  0  0  0  0  0  0  0999 V2000
   -0.8532  -30.6827  -15.3778 C   0  0  0  0  0  0  0  0  0  0  0  0
    0.3666  -31.2441  -15.6553 C   0  0  0  0  0  0  0  0  0  0  0  0
   -4.7633  -28.9073   -9.5770 C   0  0  0  0  0  0  0  0  0  0  0  0
   -1.9379  -30.0787  -13.9794 C   0  0  0  0  0  0  0  0  0  0  0  0
   -2.4677  -29.5381   -8.2354 C   0  0  0  0  0  0  0  0  0  0  0  0
   -3.7925  -29.2482  -10.7766 C   0  0  0  0  0  0  0  0  0  0  0  0
   -1.7579  -30.7458  -16.8171 C   0  0  0  0  0  0  0  0  0  0  0  0
   -4.1889  -29.6957  -15.0384 O   0  0  0  0  0  0  0  0  0  0  0  0
   -3.7869  -30.2775   -6.6226 C   0  0  0  0  0  0  0  0  0  0  0  0
   -3.1329  -29.9860  -14.8690 C   0  0  0  0  0  0  0  0  0  0  0  0
    0.7072  -31.3074  -16.9705 C   0  0  0  0  0  0  0  0  0  0  0  0
   -3.6588  -29.3246  -12.2736 N   0  0  0  0  0  0  0  0  0  0  0  0
   -2.6703  -30.7951   -5.9208 O   0  0  0  0  0  0  0  0  0  0  0  0
   -2.9796  -29.4397   -9.3799 C   0  0  0  0  0  0  0  0  0  0  0  0
   -4.4257  -29.9529   -5.9543 O   0  0  0  0  0  0  0  0  0  0  0  0
   -3.0982  -30.5450  -16.7543 N   0  0  0  0  0  0  0  0  0  0  0  0
   -1.2107  -30.1168  -12.4904 C   0  0  0  0  0  0  0  0  0  0  0  0
   -0.3637  -30.9721  -17.8992 C   0  0  0  0  0  0  0  0  0  0  0  0
   -2.5898  -29.6279  -12.6107 C   0  0  0  0  0  0  0  0  0  0  0  0
   -4.3834  -29.8724   -8.0060 C   0  0  0  0  0  0  0  0  0  0  0  0
   -2.0616  -30.0621  -10.6553 C   0  0  0  0  0  0  0  0  0  0  0  0
  2  1  2  0
  4  1  1  0
  6  3  1  0
  7  1  1  0
 10  4  1  0
 10  8  2  0
 11  2  1  0
 12  6  1  0
 13  9  1  0
 14  3  1  0
 14  5  1  0
 14  6  1  0
 15  9  2  0
 16  7  1  0
 17  4  1  0
 18  7  1  0
 18 11  2  0
 19  4  1  0
 19 12  1  0
 19 17  1  0
 20  3  1  0
 20  5  1  0
 20  9  1  0
 21  6  1  0
 21 14  1  0
M  END
>  <ID>  (1) 
conformer_0

$$$$
