
     RDKit          3D

 23 25  0  0  0  0  0  0  0  0999 V2000
   -2.3202  -30.0152   -7.6461 C   0  0  0  0  0  0  0  0  0  0  0  0
   -1.8638  -30.1809   -9.9939 C   0  0  0  0  0  0  0  0  0  0  0  0
   -1.2731  -30.2997  -15.6352 C   0  0  0  0  0  0  0  0  0  0  0  0
   -3.2279  -29.5383   -9.7010 C   0  0  0  0  0  0  0  0  0  0  0  0
    0.0127  -30.7861  -15.8234 C   0  0  0  0  0  0  0  0  0  0  0  0
   -3.8307  -29.3111  -10.7007 C   0  0  0  0  0  0  0  0  0  0  0  0
   -0.3303  -30.3183  -11.8532 C   0  0  0  0  0  0  0  0  0  0  0  0
   -1.8741  -30.5745  -17.0954 C   0  0  0  0  0  0  0  0  0  0  0  0
   -3.7106  -29.2635  -12.2073 N   0  0  0  0  0  0  0  0  0  0  0  0
   -3.8460  -29.8261   -7.8596 C   0  0  0  0  0  0  0  0  0  0  0  0
   -4.2346  -29.8938  -14.8517 O   0  0  0  0  0  0  0  0  0  0  0  0
   -2.7185  -31.1189   -5.5507 O   0  0  0  0  0  0  0  0  0  0  0  0
   -4.7968  -29.7717   -5.9481 O   0  0  0  0  0  0  0  0  0  0  0  0
   -2.5881  -29.5253  -12.3231 C   0  0  0  0  0  0  0  0  0  0  0  0
   -3.9372  -30.2203   -6.4516 C   0  0  0  0  0  0  0  0  0  0  0  0
   -3.1050  -30.3277  -16.8640 N   0  0  0  0  0  0  0  0  0  0  0  0
   -0.6037  -30.7801  -18.0755 C   0  0  0  0  0  0  0  0  0  0  0  0
   -1.9347  -29.9902  -11.9302 C   0  0  0  0  0  0  0  0  0  0  0  0
   -4.9509  -29.1545   -9.4036 C   0  0  0  0  0  0  0  0  0  0  0  0
   -3.2012  -29.8259  -14.6618 C   0  0  0  0  0  3  0  0  0  0  0  0
   -0.5079  -30.0176  -13.4662 C   0  0  0  0  0  0  0  0  0  0  0  0
   -2.0503  -29.8609  -14.1108 C   0  0  0  0  0  0  0  0  0  0  0  0
    0.4552  -31.0321  -17.0910 C   0  0  0  0  0  0  0  0  0  0  0  0
  4  2  1  0
  5  3  2  0
  6  4  2  0
  8  3  1  0
  9  6  1  0
 10  1  1  0
 10  4  1  0
 14  9  1  0
 15 10  1  0
 15 12  1  0
 15 13  2  0
 16  8  1  0
 17  8  1  0
 18  2  1  0
 18  7  1  0
 18 14  1  0
 19  6  1  0
 20 11  2  0
 21  7  1  0
 22  3  1  0
 22 14  1  0
 22 20  1  0
 22 21  1  0
 23  5  1  0
 23 17  2  0
M  RAD  1  20   2
M  END
>  <ID>  (1) 
conformer_0

$$$$
