
     RDKit          3D

 19 20  0  0  0  0  0  0  0  0999 V2000
   -4.2049  -29.3878   -8.3406 C   0  0  0  0  0  0  0  0  0  0  0  0
   -1.1297  -30.6527  -15.5977 C   0  0  0  0  0  0  0  0  0  0  0  0
   -1.3201  -30.0210  -12.7694 C   0  0  0  0  0  0  0  0  0  0  0  0
    0.2087  -31.0737  -15.5544 C   0  0  0  0  0  0  0  0  0  0  0  0
   -2.6475  -30.2423   -8.2310 C   0  0  0  0  0  0  0  0  0  0  0  0
   -1.5743  -30.1745  -10.9558 C   0  0  0  0  0  0  0  0  0  0  0  0
   -3.2597  -29.4187  -11.7253 C   0  0  0  0  0  0  0  0  0  0  0  0
   -3.9496  -30.1836   -6.4371 C   0  0  0  0  0  0  0  0  0  0  0  0
    0.6944  -31.1869  -16.8601 C   0  0  0  0  0  0  0  0  0  0  0  0
   -1.7766  -30.6322  -17.2446 C   0  0  0  0  0  0  0  0  0  0  0  0
   -4.3623  -29.5237  -15.0376 O   0  0  0  0  0  0  0  0  0  0  0  0
   -3.7063  -29.3259  -12.3359 N   0  0  0  0  0  0  0  0  0  0  0  0
   -3.1436  -29.6541  -14.3277 C   0  0  0  0  0  0  0  0  0  0  0  0
   -2.0608  -29.9038  -14.0304 C   0  0  0  0  0  0  0  0  0  0  0  0
   -4.5687  -29.9332   -5.8737 O   0  0  0  0  0  0  0  0  0  0  0  0
   -2.9268  -30.3114  -17.3303 N   0  0  0  0  0  0  0  0  0  0  0  0
   -0.2880  -30.9974  -17.8686 C   0  0  0  0  0  0  0  0  0  0  0  0
   -2.6397  -29.7697   -9.9561 C   0  0  0  0  0  0  0  0  0  0  0  0
   -4.3313  -28.9780   -9.7852 C   0  0  0  0  0  0  0  0  0  0  0  0
  4  2  2  0
  5  1  1  0
  6  3  1  0
  8  1  1  0
  9  4  1  0
 10  2  1  0
 12  7  3  0
 13 11  2  0
 14  2  1  0
 14  3  1  0
 14 13  2  0
 15  8  1  0
 16 10  1  0
 17  9  2  0
 17 10  1  0
 18  5  1  0
 18  6  1  0
 18  7  1  0
 19  1  1  0
 19 18  1  0
M  END
>  <ID>  (1) 
conformer_0

$$$$
