
     RDKit          3D

 19 19  0  0  0  0  0  0  0  0999 V2000
   -0.0478  -31.2189  -15.6027 C   0  0  0  0  0  0  0  0  0  0  0  0
    0.6790  -31.4302  -16.7448 C   0  0  0  0  0  0  0  0  0  0  0  0
   -2.7214  -29.5275   -7.9881 C   0  0  0  0  0  0  0  0  0  0  0  0
   -1.8916  -29.9294  -13.9013 C   0  0  0  0  0  0  0  0  0  0  0  0
   -1.8786  -30.1369  -10.9617 C   0  0  0  0  0  0  0  0  0  0  0  0
    0.1629  -30.8281  -17.8719 C   0  0  0  0  0  0  0  0  0  0  0  0
   -3.7272  -29.2923  -10.7039 C   0  0  0  0  0  0  0  0  0  0  0  0
   -3.4694  -29.2390  -12.2391 N   0  0  0  0  0  0  0  0  0  0  0  0
   -2.4654  -29.5484   -9.0907 C   0  0  0  0  0  0  0  0  0  0  0  0
   -4.7733  -29.9329   -6.2005 O   0  0  0  0  0  0  0  0  0  0  0  0
   -3.0987  -29.6709  -14.9873 C   0  0  0  0  0  0  0  0  0  0  0  0
   -4.2091  -29.3937  -15.2456 O   0  0  0  0  0  0  0  0  0  0  0  0
   -3.5001  -30.4096   -6.4338 C   0  0  0  0  0  0  0  0  0  0  0  0
   -3.2237  -30.2702  -16.6964 N   0  0  0  0  0  0  0  0  0  0  0  0
   -2.0894  -30.6230  -16.7478 C   0  0  0  0  0  0  0  0  0  0  0  0
   -1.1222  -30.5714  -17.9536 C   0  0  0  0  0  0  0  0  0  0  0  0
   -4.4229  -29.1349   -9.7475 C   0  0  0  0  0  0  0  0  0  0  0  0
   -2.4884  -29.6066  -12.4679 C   0  0  2  0  0  0  0  0  0  0  0  0
   -1.2101  -30.6551  -15.6180 C   0  0  0  0  0  0  0  0  0  0  0  0
  2  1  2  0
  6  2  1  0
  8  7  1  0
  9  3  2  0
  9  5  2  0
 11  4  1  0
 12 11  2  0
 13  3  1  0
 13 10  1  0
 14 11  1  0
 15 14  1  0
 16  6  2  0
 16 15  1  0
 17  7  2  3
 18  4  1  6
 18  5  1  0
 18  8  1  0
 19  1  1  0
 19 15  2  0
M  END
>  <ID>  (1) 
conformer_0

$$$$
