
     RDKit          3D

 21 23  0  0  0  0  0  0  0  0999 V2000
   -3.2889  -30.2781   -7.5651 C   0  0  0  0  0  0  0  0  0  0  0  0
   -0.8672  -30.5985  -15.6291 C   0  0  0  0  0  0  0  0  0  0  0  0
   -4.5834  -29.0922   -9.4835 C   0  0  0  0  0  0  0  0  0  0  0  0
   -2.4925  -30.1056   -8.5519 C   0  0  0  0  0  0  0  0  0  0  0  0
    0.3257  -31.0077  -16.2443 C   0  0  0  0  0  0  0  0  0  0  0  0
   -1.4585  -30.3025  -10.5698 C   0  0  0  0  0  0  0  0  0  0  0  0
   -3.9859  -29.1493  -10.9162 C   0  0  0  0  0  0  0  0  0  0  0  0
   -1.8930  -30.5617  -16.7061 C   0  0  0  0  0  0  0  0  0  0  0  0
   -5.0403  -29.4205   -6.1395 O   0  0  0  0  0  1  0  0  0  0  0  0
   -3.0543  -29.7724  -14.5920 C   0  0  0  0  0  0  0  0  0  0  0  0
   -3.9364  -30.2215   -6.4708 C   0  0  0  0  0  0  0  0  0  0  0  0
   -3.2256  -30.2088  -16.3173 N   0  0  0  0  0  0  0  0  0  0  0  0
   -3.2111  -30.4409   -5.3459 O   0  0  0  0  0  0  0  0  0  0  0  0
   -1.7055  -29.8805  -12.1974 C   0  0  0  0  0  0  0  0  0  0  0  0
   -3.6263  -29.3637  -12.5711 N   0  0  0  0  0  0  0  0  0  0  0  0
    0.3264  -30.9761  -17.6318 C   0  0  0  0  0  0  0  0  0  0  0  0
   -1.0343  -30.8117  -18.1863 C   0  0  0  0  0  0  0  0  0  0  0  0
   -1.8738  -29.8672  -14.0087 C   0  0  0  0  0  0  0  0  0  0  0  0
   -3.9539  -29.3449  -14.6577 O   0  0  0  0  0  0  0  0  0  0  0  0
   -2.7358  -29.5913  -12.4609 C   0  0  0  0  0  0  0  0  0  0  0  0
   -2.9876  -29.5646  -10.1154 C   0  0  0  0  0  0  0  0  0  0  0  0
  4  1  2  0
  5  2  2  0
  7  3  1  0
  8  2  1  0
 11  1  2  0
 11  9  1  0
 12  8  1  0
 12 10  1  0
 13 11  1  0
 14  6  1  0
 15  7  1  0
 16  5  1  0
 17  8  1  0
 17 16  2  0
 18 10  1  0
 19 10  2  0
 20 14  1  0
 20 15  2  0
 20 18  1  0
 21  3  1  0
 21  4  1  0
 21  6  1  0
 21  7  1  0
M  RAD  1   9   2
M  END
>  <ID>  (1) 
conformer_0

$$$$
