
     RDKit          3D

 21 21  0  0  0  0  0  0  0  0999 V2000
   -2.1720  -30.1649   -7.8190 C   0  0  0  0  0  0  0  0  0  0  0  0
   -0.3641  -30.9571  -15.3346 C   0  0  0  0  0  0  0  0  0  0  0  0
   -1.7413  -30.0299  -12.4067 C   0  0  0  0  0  0  0  0  0  0  0  0
    0.5552  -31.4474  -16.1296 C   0  0  0  0  0  0  0  0  0  0  0  0
   -2.3696  -29.9809  -10.3776 C   0  0  0  0  0  0  0  0  0  0  0  0
   -2.7637  -29.6370  -12.2634 C   0  0  0  0  0  0  0  0  0  0  0  0
   -3.9957  -29.8916   -8.0094 C   0  0  0  0  0  0  0  0  0  0  0  0
   -1.0246  -31.0863  -18.0717 C   0  0  0  0  0  0  0  0  0  0  0  0
   -4.0239  -30.2038   -6.5284 C   0  0  0  0  0  0  0  0  0  0  0  0
   -2.0537  -30.7456  -17.0110 C   0  0  0  0  0  0  0  0  0  0  0  0
   -3.9261  -29.1927  -12.3472 N   0  0  0  0  0  0  0  0  0  0  0  0
   -4.2004  -29.5896  -14.9778 O   0  0  0  0  0  0  0  0  0  0  0  0
   -3.2837  -29.7064  -14.6401 C   0  0  0  0  0  0  0  0  0  0  0  0
   -3.8984  -30.0192   -5.8538 N   0  0  0  0  0  0  0  0  0  0  0  0
   -2.5164  -29.4641   -8.9588 C   0  0  1  0  0  0  0  0  0  0  0  0
   -3.2099  -30.4538  -16.8265 N   0  0  0  0  0  0  0  0  0  0  0  0
   -1.5109  -30.5027  -15.6646 C   0  0  0  0  0  0  0  0  0  0  0  0
   -2.0725  -29.9705  -14.1076 C   0  0  0  0  0  0  0  0  0  0  0  0
   -4.3930  -28.9547   -9.7980 C   0  0  0  0  0  0  0  0  0  0  0  0
   -4.1334  -29.0677  -11.0154 C   0  0  0  0  0  0  0  0  0  0  0  0
    0.2866  -31.3172  -17.5068 C   0  0  0  0  0  0  0  0  0  0  0  0
  4  2  2  0
  6  3  1  0
  6  5  1  0
  9  7  1  0
 10  8  1  0
 11  6  1  0
 13 12  2  0
 14  9  2  3
 15  1  1  1
 15  5  1  0
 15  7  1  0
 16 10  1  0
 17  2  1  0
 17 10  2  0
 18  3  1  0
 18 13  2  0
 18 17  1  0
 20 11  1  0
 20 19  3  0
 21  4  1  0
 21  8  2  0
M  END
>  <ID>  (1) 
conformer_0

$$$$
