
     RDKit          3D

 22 26  0  0  0  0  0  0  0  0999 V2000
   -2.3631  -29.8934  -10.9052 C   0  0  0  0  0  0  0  0  0  0  0  0
   -1.4243  -30.4987  -15.4917 C   0  0  0  0  0  0  0  0  0  0  0  0
   -1.3373  -30.0663  -12.2600 C   0  0  0  0  0  0  0  0  0  0  0  0
   -0.2940  -30.9597  -15.6998 C   0  0  0  0  0  0  0  0  0  0  0  0
   -1.9775  -30.4839   -7.4821 C   0  0  0  0  0  0  0  0  0  0  0  0
   -4.0864  -29.2371  -10.5535 C   0  0  0  0  0  0  0  0  0  0  0  0
   -3.8142  -29.2818  -12.4128 N   0  0  0  0  0  0  0  0  0  0  0  0
   -2.2653  -30.6296  -16.5928 C   0  0  0  0  0  0  0  0  0  0  0  0
   -1.6883  -30.0096  -13.8353 C   0  0  0  0  0  0  0  0  0  0  0  0
   -4.2097  -29.9207   -6.2759 O   0  0  0  0  0  0  0  0  0  0  0  0
   -1.8637  -31.1784  -17.9532 C   0  0  0  0  0  0  0  0  0  0  0  0
   -3.5194  -30.3582   -5.2011 C   0  0  0  0  0  0  0  0  0  0  0  0
   -3.1499  -29.7299  -14.5336 C   0  0  0  0  0  0  0  0  0  0  0  0
   -4.3144  -29.4717  -14.9719 O   0  0  0  0  0  0  0  0  0  0  0  0
   -3.3677  -30.3387  -16.4070 N   0  0  0  0  0  0  0  0  0  0  0  0
   -1.7189  -30.1181   -9.3262 C   0  0  0  0  0  0  0  0  0  0  0  0
    0.3081  -31.2803  -16.8555 C   0  0  0  0  0  0  0  0  0  0  0  0
   -0.5295  -31.1661  -18.1803 C   0  0  0  0  0  0  0  0  0  0  0  0
   -2.6864  -29.6005  -12.1053 C   0  0  0  0  0  0  0  0  0  0  0  0
   -3.2304  -29.5912   -8.8297 C   0  0  0  0  0  0  0  0  0  0  0  0
   -3.7103  -30.1514   -7.3204 C   0  0  0  0  0  0  0  0  0  0  0  0
   -4.6389  -29.0293   -9.7538 C   0  0  0  0  0  0  0  0  0  0  0  0
  3  1  1  0
  4  2  2  0
  6  1  1  0
  7  6  1  0
  8  2  1  0
  9  2  1  0
  9  3  1  0
 11  8  2  0
 12 10  1  0
 13  9  2  0
 14 13  2  0
 15  8  1  0
 16  1  1  0
 16  5  1  0
 17  4  1  0
 18 11  1  0
 18 17  2  0
 19  1  1  0
 19  3  1  0
 19  7  1  0
 20 16  1  0
 21  5  1  0
 21 10  1  0
 21 20  1  0
 22  6  2  0
 22 20  1  0
M  END
>  <ID>  (1) 
conformer_0

$$$$
