
     RDKit          3D

 22 24  0  0  0  0  0  0  0  0999 V2000
    0.2392  -30.9740  -15.5376 C   0  0  0  0  0  0  0  0  0  0  0  0
   -2.9959  -29.4951  -10.0520 C   0  0  0  0  0  0  0  0  0  0  0  0
   -1.8087  -30.0991   -8.5849 C   0  0  0  0  0  0  0  0  0  0  0  0
    0.2890  -31.2192  -17.5571 C   0  0  0  0  0  0  0  0  0  0  0  0
   -1.5086  -30.2543  -10.5705 C   0  0  0  0  0  0  0  0  0  0  0  0
   -3.6935  -29.2183  -10.6529 C   0  0  0  0  0  0  0  0  0  0  0  0
   -2.2007  -30.6882  -16.6287 C   0  0  0  0  0  0  0  0  0  0  0  0
   -4.2818  -29.6792  -14.7522 O   0  0  0  0  0  0  0  0  0  0  0  0
   -3.7061  -30.1042   -6.6730 C   0  0  0  0  0  0  0  0  0  0  0  0
   -4.8028  -29.2793   -6.1982 O   0  0  0  0  0  0  0  0  0  0  0  0
   -1.3851  -30.0549  -12.3963 C   0  0  0  0  0  0  0  0  0  0  0  0
   -1.4665  -31.1544  -18.1666 C   0  0  0  0  0  0  0  0  0  0  0  0
   -3.2154  -30.4294  -16.7761 N   0  0  0  0  0  0  0  0  0  0  0  0
   -3.7292  -29.1808  -11.9567 N   0  0  0  0  0  0  0  0  0  0  0  0
   -2.5017  -29.7460  -12.2711 C   0  0  0  0  0  0  0  0  0  0  0  0
   -1.9671  -30.0193  -13.9073 C   0  0  0  0  0  0  0  0  0  0  0  0
   -3.0460  -30.8611   -6.2425 O   0  0  0  0  0  0  0  0  0  0  0  0
   -1.5478  -30.5025  -15.1270 C   0  0  0  0  0  0  0  0  0  0  0  0
   -3.2576  -29.5619   -7.9674 C   0  0  0  0  0  0  0  0  0  0  0  0
   -3.2588  -29.8397  -14.5976 C   0  0  0  0  0  0  0  0  0  0  0  0
   -4.4828  -29.0153   -8.9697 C   0  0  0  0  0  0  0  0  0  0  0  0
   -0.7109  -31.2334  -16.4848 C   0  0  0  0  0  0  0  0  0  0  0  0
  5  2  1  0
  6  2  2  0
 10  9  2  0
 11  5  1  0
 12  4  1  0
 12  7  1  0
 13  7  1  0
 14  6  1  0
 15 11  1  0
 15 14  1  0
 16 11  1  0
 17  9  1  0
 18  7  1  0
 18 16  1  0
 19  3  1  0
 19  9  1  0
 20  8  2  0
 20 16  2  0
 21  6  1  0
 21 19  1  0
 22  1  1  0
 22  4  1  0
 22  7  1  0
 22 18  1  0
M  END
>  <ID>  (1) 
conformer_0

$$$$
