
     RDKit          3D

 17 18  0  0  0  0  0  0  0  0999 V2000
   -0.1020  -30.8547  -17.7979 C   0  0  0  0  0  0  0  0  0  0  0  0
   -2.4780  -29.6614   -9.6262 C   0  0  0  0  0  0  0  0  0  0  0  0
   -1.8042  -29.8544  -11.4128 C   0  0  1  0  0  0  0  0  0  0  0  0
   -1.4009  -31.0034  -18.1190 C   0  0  0  0  0  0  0  0  0  0  0  0
   -1.6724  -29.9031  -13.4288 C   0  0  0  0  0  0  0  0  0  0  0  0
   -2.7478  -29.9987   -8.3308 C   0  0  0  0  0  3  0  0  0  0  0  0
   -3.8842  -29.2108  -12.2506 N   0  0  0  0  0  0  0  0  0  0  0  0
   -3.6193  -29.2559  -11.1313 C   0  0  1  0  0  0  0  0  0  0  0  0
   -4.0817  -29.8722  -15.0145 O   0  0  0  0  0  0  0  0  0  0  0  0
    0.0683  -30.7353  -16.3454 C   0  0  0  0  0  0  0  0  0  0  0  0
   -3.3861  -30.4250   -6.6494 C   0  0  0  0  0  0  0  0  0  0  0  0
   -2.8764  -29.7577  -13.9175 C   0  0  0  0  0  0  0  0  0  0  0  0
   -2.1876  -30.6608  -16.6820 C   0  0  0  0  0  0  0  0  0  0  0  0
   -4.4064  -30.1870   -6.3472 O   0  0  0  0  0  0  0  0  0  0  0  0
   -4.4456  -28.9694   -9.5337 C   0  0  0  0  0  0  0  0  0  0  0  0
   -3.0614  -30.6263   -5.4231 O   0  0  0  0  0  0  0  0  0  0  0  0
   -1.1695  -30.5262  -15.5629 C   0  0  0  0  0  0  0  0  0  0  0  0
  3  2  1  0
  4  1  2  0
  3  5  1  6
  6  2  2  3
  8  2  1  0
  8  3  1  0
  8  7  1  0
 10  1  1  0
 11  6  1  0
 12  5  2  0
 12  9  2  0
 13  4  1  0
 14 11  2  0
  8 15  1  1
 16 11  1  0
 17  5  1  0
 17 10  1  0
 17 13  2  0
M  RAD  1   6   2
M  END
>  <ID>  (1) 
conformer_0

$$$$
