
     RDKit          3D

 23 26  0  0  0  0  0  0  0  0999 V2000
   -1.2588  -30.5445  -15.5126 C   0  0  0  0  0  0  0  0  0  0  0  0
   -2.9917  -29.6485   -9.7938 C   0  0  0  0  0  0  0  0  0  0  0  0
   -1.9576  -29.9000  -11.2173 C   0  0  0  0  0  0  0  0  0  0  0  0
    0.0290  -30.9696  -15.4126 C   0  0  0  0  0  0  0  0  0  0  0  0
   -2.9370  -30.3420   -7.2538 C   0  0  0  0  0  0  0  0  0  0  0  0
   -3.9504  -29.0828  -10.9147 C   0  0  0  0  0  0  0  0  0  0  0  0
   -2.1038  -29.9826   -8.6854 C   0  0  0  0  0  0  0  0  0  0  0  0
   -1.9517  -30.6299  -16.7343 C   0  0  0  0  0  0  0  0  0  0  0  0
    0.2371  -31.0812  -17.6736 C   0  0  0  0  0  0  0  0  0  0  0  0
   -4.2562  -29.6333  -14.8573 O   0  0  0  0  0  0  0  0  0  0  0  0
   -4.9255  -29.9694   -5.7865 O   0  0  0  0  0  0  0  0  0  0  0  0
   -3.6709  -29.1099  -12.2586 N   0  0  0  0  0  0  0  0  0  0  0  0
   -3.1734  -30.4431  -16.7924 N   0  0  0  0  0  0  0  0  0  0  0  0
   -2.4467  -29.5942  -12.4468 C   0  0  0  0  0  0  0  0  0  0  0  0
   -3.8069  -30.2656   -6.1852 C   0  0  0  0  0  0  0  0  0  0  0  0
   -3.1592  -31.1451   -5.3560 O   0  0  0  0  0  0  0  0  0  0  0  0
   -4.5948  -29.0513   -9.7898 C   0  0  0  0  0  0  0  0  0  0  0  0
   -1.1816  -30.9180  -17.9804 C   0  0  0  0  0  0  0  0  0  0  0  0
   -1.6877  -29.9874  -13.7967 C   0  0  0  0  0  0  0  0  0  0  0  0
   -3.1832  -29.8486  -14.8023 C   0  0  0  0  0  0  0  0  0  0  0  0
   -4.0917  -29.4729   -8.1755 C   0  0  0  0  0  0  0  0  0  0  0  0
    0.7422  -31.3412  -16.4978 C   0  0  0  0  0  0  0  0  0  0  0  0
   -0.4464  -30.0445  -13.1013 C   0  0  0  0  0  0  0  0  0  0  0  0
  3  2  1  0
  4  1  2  0
  6  2  1  0
  7  2  1  0
  7  5  1  0
  8  1  1  0
 12  6  1  0
 13  8  1  0
 14  3  1  0
 14 12  2  0
 15  5  1  0
 15 11  2  0
 16 15  1  0
 17  2  1  0
 17  6  1  0
 18  8  2  0
 18  9  1  0
 19  1  1  0
 19 14  1  0
 20 10  2  0
 20 19  1  0
 21  5  1  0
 21 17  1  0
 22  4  1  0
 22  9  2  0
 23 19  1  0
M  END
>  <ID>  (1) 
conformer_0

$$$$
