
     RDKit          3D

 24 27  0  0  0  0  0  0  0  0999 V2000
   -2.1060  -30.0533   -8.1455 C   0  0  0  0  0  0  0  0  0  0  0  0
    0.1545  -31.4364  -17.3372 C   0  0  0  0  0  0  0  0  0  0  0  0
   -1.5545  -30.3202  -10.6529 C   0  0  2  0  0  0  0  0  0  0  0  0
   -0.6160  -30.9985  -15.2402 C   0  0  0  0  0  3  0  0  0  0  0  0
   -1.3244  -29.9872  -12.0990 C   0  0  2  0  0  0  0  0  0  0  0  0
   -4.0922  -29.2687  -10.3695 C   0  0  0  0  0  0  0  0  0  0  0  0
   -0.8190  -30.8613  -18.3644 C   0  0  0  0  0  0  0  0  0  0  0  0
   -3.9919  -29.2314  -14.9360 O   0  0  0  0  0  0  0  0  0  0  0  0
   -2.8806  -29.4973  -14.3823 C   0  0  0  0  0  0  0  0  0  0  0  0
   -2.3411  -30.5545  -16.6103 C   0  0  0  0  0  0  0  0  0  0  0  0
   -3.5385  -30.4726   -6.5252 C   0  0  0  0  0  0  0  0  0  0  0  0
   -3.3500  -29.1977  -12.4450 N   0  0  0  0  0  0  0  0  0  0  0  0
   -3.5217  -30.0058   -7.9676 C   0  0  0  0  0  0  0  0  0  0  0  0
   -4.4164  -30.1947   -5.8945 O   0  0  0  0  0  0  0  0  0  0  0  0
   -2.3010  -31.0564   -5.8136 O   0  0  0  0  0  0  0  0  0  0  0  0
   -1.8230  -30.2733  -15.4713 C   0  0  2  0  0  0  0  0  0  0  0  0
   -3.4276  -30.2923  -16.5455 N   0  0  0  0  0  0  0  0  0  0  0  0
   -4.6848  -28.7673   -9.3516 C   0  0  0  0  0  0  0  0  0  0  0  0
   -4.7082  -29.0705  -11.6369 N   0  0  0  0  0  0  0  0  0  0  0  0
   -2.6937  -29.5182  -12.0359 C   0  0  0  0  0  0  0  0  0  0  0  0
   -1.6663  -30.0247  -13.7367 C   0  0  2  0  0  0  0  0  0  0  0  0
    0.2265  -30.5518  -16.2948 C   0  0  0  0  0  0  0  0  0  0  0  0
   -2.0900  -31.3273  -17.7586 C   0  0  0  0  0  0  0  0  0  0  0  0
   -2.7303  -29.6846   -9.7684 C   0  0  1  0  0  0  0  0  0  0  0  0
  5  3  1  0
  7  2  2  0
  9  8  2  0
 13  1  1  0
 13 11  1  0
 14 11  2  0
 15 11  1  0
 16  4  1  1
 16  9  1  0
 16 10  1  0
 17 10  1  0
 18  6  2  3
 19  6  1  0
 19 12  1  0
  3 20  1  6
  5 20  1  1
 20 12  2  0
 21  5  1  0
 21  9  1  1
 21 16  1  0
 22  2  1  0
 22  4  1  0
 23  7  1  0
 23 10  2  0
 24  1  1  1
 24  3  1  0
 24  6  1  0
M  RAD  1   4   2
M  END
>  <ID>  (1) 
conformer_0

$$$$
