
     RDKit          3D

 22 26  0  0  0  0  0  0  0  0999 V2000
   -4.8337  -29.0640   -9.7290 C   0  0  0  0  0  0  0  0  0  0  0  0
   -2.9787  -29.5889   -9.8450 C   0  0  0  0  0  0  0  0  0  0  0  0
    0.6195  -31.1210  -16.1776 C   0  0  0  0  0  0  0  0  0  0  0  0
   -1.3125  -29.9721  -13.7427 C   0  0  0  0  0  0  0  0  0  0  0  0
    0.3829  -30.8985  -17.5309 C   0  0  0  0  0  0  0  0  0  0  0  0
   -3.7692  -29.2835  -10.9168 C   0  0  0  0  0  0  0  0  0  0  0  0
   -2.3217  -30.1200   -8.2002 C   0  0  0  0  0  0  0  0  0  0  0  0
   -3.6365  -29.2647  -12.6155 N   0  0  0  0  0  0  0  0  0  0  0  0
   -3.0928  -29.7195  -14.8146 C   0  0  0  0  0  0  0  0  0  0  0  0
   -1.9077  -30.6006  -17.0367 C   0  0  0  0  0  0  0  0  0  0  0  0
   -0.9591  -30.9507  -17.9546 C   0  0  0  0  0  0  0  0  0  0  0  0
   -3.9615  -30.3295   -6.7075 C   0  0  0  0  0  0  0  0  0  0  0  0
   -4.5022  -30.0047   -5.7727 O   0  0  0  0  0  0  0  0  0  0  0  0
   -4.3390  -29.6470  -14.8482 O   0  0  0  0  0  0  0  0  0  0  0  0
   -3.2027  -30.0861  -16.6568 N   0  0  0  0  0  0  0  0  0  0  0  0
   -1.4855  -30.0480  -12.2860 C   0  0  0  0  0  0  0  0  0  0  0  0
   -1.8484  -30.1966  -10.4943 C   0  0  0  0  0  0  0  0  0  0  0  0
   -2.9172  -30.9686   -6.0246 O   0  0  0  0  0  0  0  0  0  0  0  0
   -0.3075  -30.5029  -15.3254 C   0  0  0  0  0  0  0  0  0  0  0  0
   -1.5125  -30.4035  -15.6735 C   0  0  0  0  0  0  0  0  0  0  0  0
   -4.1825  -29.8147   -8.0946 C   0  0  0  0  0  0  0  0  0  0  0  0
   -2.6590  -29.5542  -12.6217 C   0  0  0  0  0  0  0  0  0  0  0  0
  5  3  2  0
  6  1  1  0
  6  2  1  0
  7  2  1  0
  8  6  1  0
 11  5  1  0
 11 10  2  0
 13 12  2  0
 14  9  1  0
 15  9  1  0
 15 10  1  0
 16  4  1  0
 17  2  1  0
 17 16  1  0
 18 12  1  0
 19  3  1  0
 19  4  1  0
 20  9  1  0
 20 10  1  0
 20 19  2  0
 21  1  1  0
 21  7  1  0
 21 12  1  0
 22  4  1  0
 22  8  1  0
 22 16  2  0
M  END
>  <ID>  (1) 
conformer_0

$$$$
