
     RDKit          3D

 22 27  0  0  0  0  0  0  0  0999 V2000
   -2.3419  -29.8966  -10.6973 C   0  0  0  0  0  0  0  0  0  0  0  0
   -0.2324  -31.3714  -17.5501 C   0  0  0  0  0  0  0  0  0  0  0  0
   -0.0102  -30.9496  -15.1968 C   0  0  0  0  0  0  0  0  0  0  0  0
   -1.5191  -29.8278  -12.3460 C   0  0  0  0  0  0  0  0  0  0  0  0
   -2.0613  -30.2523   -8.3839 C   0  0  0  0  0  0  0  0  0  0  0  0
   -3.6540  -29.2551  -11.2287 C   0  0  0  0  0  0  0  0  0  0  0  0
   -3.6588  -29.2267  -12.8932 N   0  0  0  0  0  0  0  0  0  0  0  0
   -1.6539  -31.2734  -17.4868 C   0  0  0  0  0  0  0  0  0  0  0  0
   -2.5260  -29.5029  -13.0090 C   0  0  0  0  0  0  0  0  0  0  0  0
   -4.1786  -29.5244  -15.1509 O   0  0  0  0  0  0  0  0  0  0  0  0
   -3.6623  -30.4072   -6.5028 C   0  0  0  0  0  0  0  0  0  0  0  0
   -4.5120  -29.0354  -10.1743 C   0  0  0  0  0  0  0  0  0  0  0  0
   -2.0781  -30.6605  -16.4439 C   0  0  0  0  0  0  0  0  0  0  0  0
   -4.0822  -29.7318   -5.6619 O   0  0  0  0  0  0  0  0  0  0  0  0
   -2.8738  -31.0994   -5.6736 O   0  0  0  0  0  0  0  0  0  0  0  0
   -3.2806  -30.1999  -16.5762 N   0  0  0  0  0  0  0  0  0  0  0  0
   -1.4011  -30.6248  -15.2264 C   0  0  0  0  0  0  0  0  0  0  0  0
   -1.8459  -29.8692  -13.8929 C   0  0  0  0  0  0  0  0  0  0  0  0
   -3.1936  -29.5059   -9.3878 C   0  0  0  0  0  0  0  0  0  0  0  0
   -3.1514  -29.7092  -15.1096 C   0  0  0  0  0  0  0  0  0  0  0  0
    0.5632  -31.3449  -16.3508 C   0  0  0  0  0  0  0  0  0  0  0  0
   -3.9635  -30.3429   -7.6761 C   0  0  0  0  0  0  0  0  0  0  0  0
  4  1  1  0
  6  1  1  0
  7  6  1  0
  8  2  2  0
  9  4  1  0
  9  7  1  0
 12  6  1  0
 13  8  1  0
 14 11  2  0
 15 11  1  0
 16 13  1  0
 17  3  1  0
 17 13  2  0
 18  4  1  0
 18  9  1  0
 18 17  1  0
 19  1  1  0
 19  5  1  0
 19  6  1  0
 19 12  1  0
 20 10  2  0
 20 16  1  0
 20 18  1  0
 21  2  1  0
 21  3  2  0
 22  5  1  0
 22 11  1  0
M  END
>  <ID>  (1) 
conformer_0

$$$$
