
     RDKit          3D

 18 18  0  0  0  0  0  0  0  0999 V2000
   -0.2261  -30.8934  -15.5357 C   0  0  0  0  0  0  0  0  0  0  0  0
   -1.5899  -29.8966  -13.4019 C   0  0  0  0  0  0  0  0  0  0  0  0
   -4.3072  -29.1614   -9.2314 C   0  0  0  0  0  0  0  0  0  0  0  0
   -2.5715  -30.1787   -7.9400 C   0  0  0  0  0  0  0  0  0  0  0  0
    0.3781  -31.2563  -16.8312 C   0  0  0  0  0  0  0  0  0  0  0  0
   -3.7111  -29.1286  -12.2015 N   0  0  0  0  0  0  0  0  0  0  0  0
   -2.6597  -29.8074   -9.3683 C   0  0  0  0  0  0  0  0  0  0  0  0
   -3.8351  -30.3146   -6.5572 C   0  0  0  0  0  0  0  0  0  0  0  0
   -2.6222  -29.5731  -12.0982 C   0  0  0  0  0  0  0  0  0  0  0  0
   -4.9952  -29.2546   -6.4425 O   0  0  0  0  0  0  0  0  0  0  0  0
   -3.0517  -29.7135  -14.6729 C   0  0  0  0  0  0  0  0  0  0  0  0
   -2.0235  -30.8075  -17.0677 C   0  0  0  0  0  0  0  0  0  0  0  0
   -4.1977  -29.6089  -14.8550 O   0  0  0  0  0  0  0  0  0  0  0  0
   -0.7846  -31.2468  -17.9012 C   0  0  0  0  0  0  0  0  0  0  0  0
   -1.4977  -30.0811  -11.5049 C   0  0  0  0  0  0  0  0  0  0  0  0
   -3.0451  -30.8378   -5.2729 O   0  0  0  0  0  0  0  0  0  0  0  0
   -1.5874  -30.5431  -15.5895 C   0  0  0  0  0  0  0  0  0  0  0  0
   -4.2829  -29.0820  -10.5160 C   0  0  0  0  0  0  0  0  0  0  0  0
  5  1  2  0
  7  3  1  0
  7  4  1  0
  8  4  1  0
  9  2  1  0
  9  6  1  0
 10  8  2  0
 11  2  1  0
 13 11  2  0
 14  5  1  0
 14 12  2  0
 15  9  2  3
 16  8  1  0
 17  1  1  0
 17 11  1  0
 17 12  1  0
 18  3  1  0
 18  6  1  0
M  END
>  <ID>  (1) 
conformer_0

$$$$
