
     RDKit          3D

 21 24  0  0  0  0  0  0  0  0999 V2000
    0.2030  -31.1316  -16.1276 C   0  0  0  0  0  0  0  0  0  0  0  0
   -2.8895  -30.5390   -7.3236 C   0  0  0  0  0  0  0  0  0  0  0  0
   -1.0058  -30.7032  -15.7170 C   0  0  0  0  0  0  0  0  0  0  0  0
   -1.6814  -29.9467  -12.4205 C   0  0  0  0  0  0  0  0  0  0  0  0
   -1.9229  -29.8063   -8.4595 C   0  0  0  0  0  0  0  0  0  0  0  0
   -4.0347  -29.3660   -8.0644 C   0  0  0  0  0  0  0  0  0  0  0  0
   -3.9273  -29.2538  -10.5500 C   0  0  0  0  0  0  0  0  0  0  0  0
    0.5310  -31.0470  -17.4359 C   0  0  0  0  0  0  0  0  0  0  0  0
   -2.0316  -30.7679  -17.0551 C   0  0  0  0  0  0  0  0  0  0  0  0
   -3.5860  -29.2753  -12.2599 N   0  0  0  0  0  0  0  0  0  0  0  0
   -4.2313  -29.5159  -14.8564 O   0  0  0  0  0  0  0  0  0  0  0  0
   -3.0713  -29.7007  -14.8305 C   0  0  0  0  0  0  0  0  0  0  0  0
   -5.0939  -29.8711   -5.9791 O   0  0  0  0  0  0  0  0  0  0  0  0
   -4.3755  -30.1259   -6.7365 C   0  0  0  0  0  0  0  0  0  0  0  0
   -1.7460  -30.2144  -10.2880 C   0  0  0  0  0  0  0  0  0  0  0  0
   -3.1137  -30.3478  -16.7199 N   0  0  0  0  0  0  0  0  0  0  0  0
   -0.6775  -30.8491  -18.2050 C   0  0  0  0  0  0  0  0  0  0  0  0
   -1.7513  -29.9189  -14.1769 C   0  0  0  0  0  0  0  0  0  0  0  0
   -3.0393  -29.5197   -9.7669 C   0  0  0  0  0  0  0  0  0  0  0  0
   -4.8736  -28.8456   -9.5668 C   0  0  0  0  0  0  0  0  0  0  0  0
   -2.7687  -29.5510  -12.2475 C   0  0  0  0  0  0  0  0  0  0  0  0
  3  1  2  0
  5  2  1  0
  6  2  1  0
  8  1  1  0
  9  3  1  0
 10  7  1  0
 12 11  2  0
 14  2  1  0
 14  6  1  0
 14 13  2  0
 15  5  1  0
 16  9  1  0
 17  8  1  0
 17  9  2  0
 18  3  1  0
 18  4  1  0
 18 12  2  0
 19  5  1  0
 19  7  1  0
 19 15  1  0
 20  6  1  0
 20  7  1  0
 21  4  1  0
 21 10  1  0
M  END
>  <ID>  (1) 
conformer_0

$$$$
