
     RDKit          3D

 21 25  0  0  0  0  0  0  0  0999 V2000
    0.3669  -31.2254  -16.1616 C   0  0  0  0  0  0  0  0  0  0  0  0
   -3.2619  -30.1219   -7.8454 C   0  0  0  0  0  0  0  0  0  0  0  0
   -1.2329  -30.3041  -11.4260 C   0  0  0  0  0  0  0  0  0  0  0  0
   -0.7983  -30.7625  -15.5842 C   0  0  0  0  0  0  0  0  0  0  0  0
   -4.2565  -29.0629  -10.8445 C   0  0  0  0  0  0  0  0  0  0  0  0
   -1.5015  -29.9723  -13.4704 C   0  0  0  0  0  0  0  0  0  0  0  0
   -3.7591  -30.4902   -5.9777 C   0  0  0  0  0  0  0  0  0  0  0  0
   -1.9304  -30.6838  -16.5230 C   0  0  0  0  0  0  0  0  0  0  0  0
   -4.2667  -29.6178  -14.9307 O   0  0  0  0  0  0  0  0  0  0  0  0
   -2.6264  -29.5677  -12.2617 C   0  0  0  0  0  0  0  0  0  0  0  0
    0.3303  -31.1092  -17.5273 C   0  0  0  0  0  0  0  0  0  0  0  0
   -3.9252  -29.1840  -12.3465 N   0  0  0  0  0  0  0  0  0  0  0  0
   -4.6484  -29.1369   -6.4776 O   0  0  0  0  0  0  0  0  0  0  0  0
   -2.5289  -30.8871   -5.5485 O   0  0  0  0  0  0  0  0  0  0  0  0
   -3.0689  -30.5274  -16.4095 N   0  0  0  0  0  0  0  0  0  0  0  0
   -2.3231  -29.9714   -9.2631 C   0  0  0  0  0  0  0  0  0  0  0  0
   -4.3226  -29.1343   -9.5868 C   0  0  0  0  0  0  0  0  0  0  0  0
   -2.9152  -29.8916  -14.5198 C   0  0  0  0  0  0  0  0  0  0  0  0
   -1.0685  -30.8218  -18.0743 C   0  0  0  0  0  0  0  0  0  0  0  0
   -2.6063  -29.8079  -10.8614 C   0  0  0  0  0  0  0  0  0  0  0  0
   -4.4689  -29.7034   -7.7775 C   0  0  0  0  0  0  0  0  0  0  0  0
  4  1  2  0
  7  2  1  0
  8  4  1  0
 10  3  1  0
 10  6  1  0
 11  1  1  0
 12  5  1  0
 12 10  1  0
 13  7  1  0
 14  7  1  0
 15  8  1  0
 16  2  1  0
 17  5  1  0
 18  6  1  0
 18  9  2  0
 18 15  1  0
 19  8  2  0
 19 11  1  0
 20  3  1  0
 20  5  1  0
 20 10  1  0
 20 16  1  0
 21  2  1  0
 21 13  1  0
 21 17  1  0
M  END
>  <ID>  (1) 
conformer_0

$$$$
