
     RDKit          3D

 18 18  0  0  0  0  0  0  0  0999 V2000
   -1.9180  -30.3300   -8.0290 C   0  0  0  0  0  0  0  0  0  0  0  0
   -1.4862  -29.9907  -12.0197 C   0  0  0  0  0  0  0  0  0  0  0  0
    0.0754  -31.1385  -15.8839 C   0  0  0  0  0  0  0  0  0  0  0  0
   -1.1558  -30.6609  -15.4548 C   0  0  0  0  0  0  0  0  0  0  0  0
   -3.7946  -29.8083   -8.2664 C   0  0  0  0  0  0  0  0  0  0  0  0
   -1.9984  -30.0825  -10.1786 C   0  0  0  0  0  0  0  0  0  0  0  0
   -3.2878  -29.4004  -11.4299 C   0  0  0  0  0  0  0  0  0  0  0  0
   -4.0073  -29.5438  -15.0503 O   0  0  0  0  0  0  0  0  0  0  0  0
    0.1866  -31.3281  -17.2710 C   0  0  0  0  0  0  0  0  0  0  0  0
   -3.8925  -30.3111   -6.3913 C   0  0  0  0  0  0  0  0  0  0  0  0
   -2.1570  -30.7465  -16.6873 C   0  0  0  0  0  0  0  0  0  0  0  0
   -3.0762  -29.6579  -14.1230 C   0  0  0  0  0  0  0  0  0  0  0  0
   -4.3178  -29.0485   -9.7568 C   0  0  0  0  0  0  0  0  0  0  0  0
   -3.1788  -30.5881  -16.9000 N   0  0  0  0  0  0  0  0  0  0  0  0
   -4.3634  -29.8346   -5.4797 O   0  0  0  0  0  0  0  0  0  0  0  0
   -2.6669  -31.0083   -5.3761 O   0  0  0  0  0  0  0  0  0  0  0  0
   -1.6045  -29.8442  -13.5126 C   0  0  0  0  0  0  0  0  0  0  0  0
   -1.1271  -31.2104  -17.9723 C   0  0  0  0  0  0  0  0  0  0  0  0
  4  3  2  0
  5  1  1  0
  6  2  1  0
  7  6  1  0
  9  3  1  0
 10  5  1  0
 11  4  1  0
 12  8  2  0
 13  5  1  0
 13  7  1  0
 14 11  1  0
 15 10  2  0
 16 10  1  0
 17  2  1  0
 17  4  1  0
 17 12  2  0
 18  9  1  0
 18 11  2  0
M  END
>  <ID>  (1) 
conformer_0

$$$$
