
     RDKit          3D

 23 27  0  0  0  0  0  0  0  0999 V2000
   -0.2644  -31.0975  -18.0763 C   0  0  0  0  0  0  0  0  0  0  0  0
   -2.3594  -30.3548   -7.2401 C   0  0  0  0  0  0  0  0  0  0  0  0
   -1.7034  -31.2597  -18.0696 C   0  0  0  0  0  0  0  0  0  0  0  0
   -1.9005  -29.7864  -14.2784 C   0  0  0  0  0  0  0  0  0  0  0  0
   -3.7503  -29.6974   -8.6576 C   0  0  0  0  0  0  0  0  0  0  0  0
   -4.3838  -29.0292  -10.8067 C   0  0  0  0  0  0  0  0  0  0  0  0
   -4.9184  -28.8441   -9.8344 C   0  0  0  0  0  0  0  0  0  0  0  0
   -3.5317  -29.2884  -12.2450 N   0  0  0  0  0  0  0  0  0  0  0  0
   -2.3210  -29.6197  -13.1362 C   0  0  0  0  0  0  0  0  0  0  0  0
   -2.2678  -30.5846  -16.9087 C   0  0  0  0  0  3  0  0  0  0  0  0
   -4.2438  -29.4386  -15.1251 O   0  0  0  0  0  0  0  0  0  0  0  0
    0.3520  -31.1334  -16.7719 C   0  0  0  0  0  0  0  0  0  0  0  0
   -4.6975  -29.5601   -5.8495 O   0  0  0  0  0  0  0  0  0  0  0  0
   -3.5551  -30.4482   -6.2567 C   0  0  0  0  0  0  0  0  0  0  0  0
   -2.7095  -30.7346   -5.1870 O   0  0  0  0  0  0  0  0  0  0  0  0
   -3.2355  -30.3480  -16.8526 N   0  0  0  0  0  0  0  0  0  0  0  0
   -2.1404  -29.9232   -8.6533 C   0  0  0  0  0  0  0  0  0  0  0  0
   -1.3394  -29.9508  -12.6982 C   0  0  0  0  0  0  0  0  0  0  0  0
   -0.3468  -30.7931  -15.7578 C   0  0  0  0  0  0  0  0  0  0  0  0
   -3.2836  -29.7506  -14.9889 C   0  0  0  0  0  0  0  0  0  0  0  0
   -2.6362  -29.6322  -11.1973 C   0  0  0  0  0  0  0  0  0  0  0  0
   -2.4041  -29.9496  -10.3984 C   0  0  0  0  0  0  0  0  0  0  0  0
   -1.5720  -30.3627  -15.6800 C   0  0  0  0  0  0  0  0  0  0  0  0
  3  1  2  0
  7  5  1  0
  7  6  1  0
  8  6  1  0
  9  4  1  0
  9  8  1  0
 10  3  1  0
 12  1  1  0
 14  2  1  0
 14 13  1  0
 15 14  1  0
 16 10  1  0
 17  2  1  0
 17  5  1  0
 18  9  1  0
 19 12  2  0
 20  4  1  0
 20 11  2  0
 21  6  1  0
 21  8  1  0
 21  9  1  0
 22 17  1  0
 22 21  1  0
 23  4  1  0
 23 10  1  0
 23 19  1  0
 23 20  1  0
M  RAD  1  10   2
M  END
>  <ID>  (1) 
conformer_0

$$$$
