
     RDKit          3D

 20 23  0  0  0  0  0  0  0  0999 V2000
   -0.2563  -30.8075  -15.4074 C   0  0  0  0  0  0  0  0  0  0  0  0
   -2.1954  -30.2946   -8.5152 C   0  0  0  0  0  0  0  0  0  0  0  0
   -2.4402  -29.8439  -10.3716 C   0  0  0  0  0  0  0  0  0  0  0  0
    0.4961  -31.2579  -16.4443 C   0  0  0  0  0  0  0  0  0  0  0  0
   -3.8923  -29.1063  -11.0203 C   0  0  0  0  0  0  0  0  0  0  0  0
   -4.5490  -29.0645   -9.7846 C   0  0  0  0  0  0  0  0  0  0  0  0
   -3.7014  -29.0261  -12.5087 N   0  0  0  0  0  0  0  0  0  0  0  0
   -1.5461  -31.1302  -17.8011 C   0  0  0  0  0  0  0  0  0  0  0  0
   -3.0428  -29.7334  -14.8222 C   0  0  0  0  0  3  0  0  0  0  0  0
   -4.0111  -29.7958   -5.8948 O   0  0  0  0  0  0  0  0  0  0  0  0
   -3.4450  -30.4764   -6.5828 C   0  0  0  0  0  0  0  0  0  0  0  0
   -2.2609  -30.7063  -16.6966 C   0  0  0  0  0  0  0  0  0  0  0  0
   -3.4043  -29.6020   -8.7882 C   0  0  0  0  0  0  0  0  0  0  0  0
   -4.1028  -29.6910  -15.3410 O   0  0  0  0  0  0  0  0  0  0  0  0
   -0.1358  -31.2009  -17.7350 C   0  0  0  0  0  0  0  0  0  0  0  0
   -1.5805  -29.7919  -13.9678 C   0  0  0  0  0  0  0  0  0  0  0  0
   -3.3502  -30.3304  -16.5634 N   0  0  0  0  0  0  0  0  0  0  0  0
   -2.7103  -29.4330  -12.5879 C   0  0  0  0  0  0  0  0  0  0  0  0
   -1.4746  -29.7980  -12.4270 C   0  0  0  0  0  0  0  0  0  0  0  0
   -1.5049  -30.4512  -15.5382 C   0  0  0  0  0  0  0  0  0  0  0  0
  4  1  1  0
  5  3  1  0
  6  5  1  0
  7  5  1  0
 11  2  1  0
 11 10  2  0
 12  8  2  0
 13  2  1  0
 13  3  1  0
 13  6  1  0
 14  9  1  0
 15  4  2  0
 15  8  1  0
 16  9  1  0
 17 12  1  0
 17 14  1  0
 18  7  1  0
 19 16  1  0
 19 18  1  0
 20  1  1  0
 20  9  1  0
 20 12  1  0
 20 16  1  0
M  RAD  1   9   2
M  END
>  <ID>  (1) 
conformer_0

$$$$
