
     RDKit          3D

 23 26  0  0  0  0  0  0  0  0999 V2000
   -1.6057  -30.3933  -15.6827 C   0  0  0  0  0  0  0  0  0  0  0  0
   -4.3935  -29.7594   -8.3181 C   0  0  0  0  0  0  0  0  0  0  0  0
   -4.1983  -28.9943   -9.7206 C   0  0  0  0  0  0  0  0  0  0  0  0
   -0.4171  -30.7587  -15.4189 C   0  0  0  0  0  3  0  0  0  0  0  0
   -2.6462  -29.8738   -9.7947 C   0  0  0  0  0  0  0  0  0  0  0  0
   -4.0560  -29.3361  -14.8783 O   0  0  0  0  0  0  0  0  0  0  0  0
   -2.1113  -30.6314  -17.0207 C   0  0  0  0  0  0  0  0  0  0  0  0
   -3.6819  -29.3781  -10.6474 C   0  0  0  0  0  0  0  0  0  0  0  0
   -1.9675  -29.8662  -12.0467 C   0  0  0  0  0  0  0  0  0  0  0  0
    0.3212  -31.4449  -16.4410 C   0  0  0  0  0  0  0  0  0  0  0  0
   -3.0992  -29.7287  -14.8417 C   0  0  0  0  0  0  0  0  0  0  0  0
   -3.7229  -29.2602  -12.2337 N   0  0  0  0  0  0  0  0  0  0  0  0
   -4.7903  -30.0935   -5.8104 O   0  0  0  0  0  0  0  0  0  0  0  0
   -3.7902  -30.3922   -6.3249 C   0  0  0  0  0  0  0  0  0  0  0  0
   -3.1852  -30.6360  -17.1073 N   0  0  0  0  0  0  0  0  0  0  0  0
   -1.7073  -29.8995  -13.9105 C   0  0  0  0  0  0  0  0  0  0  0  0
   -3.1375  -30.7123   -5.2105 O   0  0  0  0  0  0  0  0  0  0  0  0
   -1.0545  -30.8138  -18.2624 C   0  0  0  0  0  0  0  0  0  0  0  0
   -1.2390  -30.4405  -10.5851 C   0  0  0  0  0  0  0  0  0  0  0  0
   -0.4595  -30.2809  -12.1836 C   0  0  0  0  0  0  0  0  0  0  0  0
   -2.7125  -29.5444  -12.5874 C   0  0  0  0  0  0  0  0  0  0  0  0
   -2.7789  -30.3437   -7.2094 C   0  0  0  0  0  0  0  0  0  0  0  0
    0.2192  -30.7480  -17.5778 C   0  0  0  0  0  0  0  0  0  0  0  0
  3  2  1  0
  4  1  1  0
  7  1  1  0
  8  3  1  0
  8  5  2  0
 10  4  1  0
 11  1  1  0
 11  6  2  0
 12  8  1  0
 14 13  2  0
 15  7  1  0
 16  1  1  0
 16 11  1  0
 17 14  1  0
 18  7  2  0
 19  5  1  0
 19  9  2  0
 20  9  1  0
 20 19  1  0
 21  9  1  0
 21 12  2  0
 21 16  1  0
 22  2  1  0
 22 14  1  0
 23 10  2  0
 23 18  1  0
M  RAD  1   4   2
M  END
>  <ID>  (1) 
conformer_0

$$$$
