
     RDKit          3D

 24 28  0  0  0  0  0  0  0  0999 V2000
   -4.4744  -28.8263   -9.5095 C   0  0  0  0  0  0  0  0  0  0  0  0
   -0.4339  -30.1958  -15.8243 C   0  0  0  0  0  0  0  0  0  0  0  0
    0.3604  -31.4488  -16.1484 C   0  0  0  0  0  0  0  0  0  0  0  0
   -2.6683  -30.4557   -7.5706 C   0  0  0  0  0  0  0  0  0  0  0  0
   -2.2560  -29.7378   -8.8805 C   0  0  0  0  0  0  0  0  0  0  0  0
   -2.7567  -29.5858  -12.5317 C   0  0  0  0  0  0  0  0  0  0  0  0
   -1.5607  -30.2221  -11.0938 C   0  0  0  0  0  0  0  0  0  0  0  0
   -1.5985  -30.6142  -15.7923 C   0  0  0  0  0  0  0  0  0  0  0  0
   -3.7668  -29.3074  -12.4463 N   0  0  0  0  0  0  0  0  0  0  0  0
   -3.2142  -29.8088  -14.8073 C   0  0  0  0  0  0  0  0  0  0  0  0
   -3.6633  -30.2396   -6.4387 C   0  0  0  0  0  0  0  0  0  0  0  0
   -4.2490  -29.8562  -14.8344 O   0  0  0  0  0  0  0  0  0  0  0  0
   -4.5265  -29.6891   -5.8275 O   0  0  0  0  0  0  0  0  0  0  0  0
   -2.7976  -31.1207   -5.4738 O   0  0  0  0  0  0  0  0  0  0  0  0
   -1.4932  -29.9293  -12.7989 C   0  0  0  0  0  0  0  0  0  0  0  0
   -3.4220  -30.2967  -16.6011 N   0  0  0  0  0  0  0  0  0  0  0  0
   -2.2574  -30.6864  -16.8489 C   0  0  0  0  0  0  0  0  0  0  0  0
   -1.6642  -30.7949  -18.1533 C   0  0  0  0  0  0  0  0  0  0  0  0
   -1.7823  -29.9167  -14.2375 C   0  0  0  0  0  0  0  0  0  0  0  0
   -2.7708  -29.7150  -10.1653 C   0  0  0  0  0  0  0  0  0  0  0  0
   -3.6477  -29.2915  -10.8755 C   0  0  0  0  0  0  0  0  0  0  0  0
    0.6002  -30.7689  -17.5446 C   0  0  0  0  0  0  0  0  0  0  0  0
   -0.3975  -31.0377  -18.3431 C   0  0  0  0  0  0  0  0  0  0  0  0
   -4.2229  -29.7479   -8.1634 C   0  0  0  0  0  0  0  0  0  0  0  0
  3  2  2  0
  5  4  1  0
  8  2  1  0
  9  6  1  0
 11  4  1  0
 12 10  2  0
 13 11  1  0
 14 11  1  0
 15  6  1  0
 15  7  1  0
 16 10  1  0
 17  8  1  0
 17 16  1  0
 18 17  2  0
 19  8  1  0
 19 10  1  0
 19 15  1  0
 20  5  1  0
 20  7  1  0
 21  1  1  0
 21  9  1  0
 21 20  2  0
 22  3  1  0
 23 18  1  0
 23 22  2  0
 24  1  1  0
 24  4  1  0
 24 11  1  0
M  END
>  <ID>  (1) 
conformer_0

$$$$
