
     RDKit          3D

 21 24  0  0  0  0  0  0  0  0999 V2000
   -1.7783  -29.9090  -12.3238 C   0  0  0  0  0  0  0  0  0  0  0  0
   -2.2981  -30.0427   -8.0915 C   0  0  0  0  0  0  0  0  0  0  0  0
    0.1639  -31.2112  -17.6448 C   0  0  0  0  0  0  0  0  0  0  0  0
    0.6614  -31.1893  -16.2984 C   0  0  0  0  0  0  0  0  0  0  0  0
   -2.3357  -29.7534  -10.4812 C   0  0  0  0  0  0  0  0  0  0  0  0
   -3.0379  -29.5974   -9.1044 C   0  0  0  0  0  0  0  0  0  0  0  0
   -4.0281  -29.0677  -12.2099 N   0  0  0  0  0  0  0  0  0  0  0  0
   -4.0529  -29.1180  -10.5668 C   0  0  0  0  0  0  0  0  0  0  0  0
   -2.9020  -30.5591   -5.6416 C   0  0  0  0  0  0  0  0  0  0  0  0
   -3.2674  -29.6049  -14.7523 C   0  0  0  0  0  0  0  0  0  0  0  0
   -1.3954  -31.1798  -17.9100 C   0  0  0  0  0  0  0  0  0  0  0  0
   -4.2469  -29.6743  -14.8693 O   0  0  0  0  0  0  0  0  0  0  0  0
   -1.9263  -30.6955  -16.7443 C   0  0  0  0  0  0  0  0  0  0  0  0
   -4.1027  -29.7925   -6.2417 O   0  0  0  0  0  0  0  0  0  0  0  0
   -3.1987  -29.9929  -16.4707 N   0  0  0  0  0  0  0  0  0  0  0  0
   -4.7502  -29.0225   -9.4126 C   0  0  0  0  0  0  0  0  0  0  0  0
   -0.2271  -30.7733  -15.2954 C   0  0  0  0  0  0  0  0  0  0  0  0
   -1.4944  -30.4425  -15.4799 C   0  0  0  0  0  0  0  0  0  0  0  0
   -2.9113  -29.4230  -12.4133 C   0  0  0  0  0  0  0  0  0  0  0  0
   -1.8185  -29.9127  -13.8542 C   0  0  0  0  0  0  0  0  0  0  0  0
   -4.0433  -30.1715   -7.3984 C   0  0  0  0  0  0  0  0  0  0  0  0
  4  3  2  0
  5  1  1  0
  6  2  1  0
  6  5  1  0
  8  5  1  0
  8  7  1  0
 11  3  1  0
 12 10  2  0
 13 11  2  0
 14  9  1  0
 15 10  1  0
 15 13  1  0
 16  6  1  0
 16  8  1  0
 17  4  1  0
 18 13  1  0
 18 17  2  0
 19  1  1  0
 19  7  1  0
 20  1  1  0
 20 10  1  0
 20 18  1  0
 21  2  1  0
 21 14  1  0
M  END
>  <ID>  (1) 
conformer_0

$$$$
