
     RDKit          3D

 22 27  0  0  0  0  0  0  0  0999 V2000
   -4.4230  -29.0527   -9.4122 C   0  0  0  0  0  0  0  0  0  0  0  0
    0.0421  -31.3959  -17.6460 C   0  0  0  0  0  0  0  0  0  0  0  0
    0.5184  -31.3181  -16.3151 C   0  0  0  0  0  0  0  0  0  0  0  0
   -3.4513  -29.7823   -7.9386 C   0  0  0  0  0  0  0  0  0  0  0  0
   -2.2117  -29.4957   -8.3067 C   0  0  0  0  0  0  0  0  0  0  0  0
   -4.0834  -29.1345  -10.4819 C   0  0  0  0  0  0  0  0  0  0  0  0
   -3.8353  -29.1787  -11.5133 N   0  0  0  0  0  0  0  0  0  0  0  0
   -1.3541  -31.2161  -18.0621 C   0  0  0  0  0  0  0  0  0  0  0  0
   -1.8709  -29.9883  -13.7983 C   0  0  0  0  0  0  0  0  0  0  0  0
   -3.4405  -30.3605   -6.3620 C   0  0  0  0  0  0  0  0  0  0  0  0
   -2.9563  -29.8054  -14.7787 C   0  0  0  0  0  0  0  0  0  0  0  0
   -4.0599  -29.7587  -15.5058 O   0  0  0  0  0  0  0  0  0  0  0  0
   -2.1620  -30.7160  -16.9644 C   0  0  0  0  0  0  0  0  0  0  0  0
   -2.6968  -30.9317   -5.4792 O   0  0  0  0  0  0  0  0  0  0  0  0
   -4.5200  -29.8864   -5.6352 O   0  0  0  0  0  0  0  0  0  0  0  0
   -3.1842  -30.4121  -17.0143 N   0  0  0  0  0  0  0  0  0  0  0  0
   -1.5774  -30.5204  -15.6503 C   0  0  0  0  0  0  0  0  0  0  0  0
   -2.3399  -29.7858  -10.0138 C   0  0  0  0  0  0  0  0  0  0  0  0
   -2.6485  -29.5840  -12.0858 C   0  0  0  0  0  0  0  0  0  0  0  0
   -1.6101  -30.1125  -11.6705 C   0  0  0  0  0  0  0  0  0  0  0  0
   -0.3789  -30.8274  -15.4476 C   0  0  0  0  0  3  0  0  0  0  0  0
   -3.5274  -29.3296  -13.2297 N   0  0  0  0  0  0  0  0  0  0  0  0
  3  2  2  0
  4  1  1  0
  5  4  1  0
  6  1  2  0
  7  6  1  0
  8  2  1  0
 10  4  1  0
 11  9  1  0
 12 11  1  0
 13  8  2  0
 14 10  1  0
 15 10  2  0
 16 13  1  0
 17  9  1  0
 17 11  1  0
 17 13  1  0
 18  5  1  0
 18  6  1  0
 19  7  1  0
 19  9  1  0
 20 18  1  0
 20 19  1  0
 21  3  1  0
 21 17  1  0
 22  7  1  0
 22 11  1  0
 22 19  1  0
M  RAD  1  21   2
M  END
>  <ID>  (1) 
conformer_0

$$$$
