
     RDKit          3D

 17 17  0  0  0  0  0  0  0  0999 V2000
   -4.3887  -29.0832   -9.1449 C   0  0  0  0  0  0  0  0  0  0  0  0
    0.3264  -31.0692  -17.3711 C   0  0  0  0  0  0  0  0  0  0  0  0
   -1.0428  -31.0456  -17.9206 C   0  0  0  0  0  0  0  0  0  0  0  0
   -2.9195  -30.0351   -8.2108 C   0  0  0  0  0  0  0  0  0  0  0  0
   -2.5528  -29.8362   -9.7773 C   0  0  0  0  0  0  0  0  0  0  0  0
   -2.8593  -29.4708  -11.7268 C   0  0  0  0  0  0  0  0  0  0  0  0
    0.2427  -31.0776  -15.9770 C   0  0  0  0  0  0  0  0  0  0  0  0
   -1.7312  -30.0632  -11.4105 C   0  0  0  0  0  0  0  0  0  0  0  0
   -4.0541  -30.2318   -6.6895 C   0  0  0  0  0  0  0  0  0  0  0  0
   -4.2955  -29.5731  -14.9896 O   0  0  0  0  0  0  0  0  0  0  0  0
   -3.6374  -29.2722  -12.5812 N   0  0  0  0  0  0  0  0  0  0  0  0
   -2.9945  -29.6950  -14.4427 C   0  0  0  0  0  0  0  0  0  0  0  0
   -2.0614  -30.7615  -16.6965 C   0  0  0  0  0  0  0  0  0  0  0  0
   -3.1788  -30.4558  -16.4863 N   0  0  0  0  0  0  0  0  0  0  0  0
   -0.9720  -30.6047  -15.5115 C   0  0  0  0  0  0  0  0  0  0  0  0
   -1.6758  -29.8781  -13.4901 C   0  0  0  0  0  0  0  0  0  0  0  0
   -4.7098  -30.2414   -6.1168 O   0  0  0  0  0  0  0  0  0  0  0  0
  3  2  2  0
  4  1  1  0
  5  4  1  0
  7  2  1  0
  8  5  1  0
  8  6  1  0
  9  4  1  0
 11  6  1  0
 12 10  1  0
 12 11  1  0
 13  3  1  0
 14 10  1  0
 14 13  1  0
 15  7  1  0
 15 13  2  0
 16 12  1  0
 17  9  1  0
M  END
>  <ID>  (1) 
conformer_0

$$$$
