
     RDKit          3D

 24 27  0  0  0  0  0  0  0  0999 V2000
   -2.1692  -29.8100   -9.1383 C   0  0  0  0  0  0  0  0  0  0  0  0
    0.8388  -30.9621  -16.0159 C   0  0  0  0  0  0  0  0  0  0  0  0
   -0.4903  -31.1179  -15.2860 C   0  0  0  0  0  0  0  0  0  0  0  0
   -1.8810  -29.9881  -10.9505 C   0  0  0  0  0  0  0  0  0  0  0  0
   -5.1819  -28.5326   -9.5670 C   0  0  0  0  0  0  0  0  0  0  0  0
   -1.6618  -29.8149  -12.6587 C   0  0  0  0  0  0  0  0  0  0  0  0
   -3.9399  -29.2181  -10.8491 C   0  0  0  0  0  0  0  0  0  0  0  0
   -1.2643  -30.9430  -18.1925 C   0  0  0  0  0  0  0  0  0  0  0  0
   -4.6936  -30.0097   -5.7047 O   0  0  0  0  0  0  0  0  0  0  0  0
   -3.8122  -29.1863  -12.2310 N   0  0  0  0  0  0  0  0  0  0  0  0
   -3.0413  -29.6695  -14.8681 C   0  0  0  0  0  0  0  0  0  0  0  0
   -4.2053  -29.5223  -14.9005 O   0  0  0  0  0  0  0  0  0  0  0  0
   -1.9316  -30.6618  -16.9102 C   0  0  0  0  0  0  0  0  0  0  0  0
   -3.6357  -30.4566   -6.4202 C   0  0  0  0  0  0  0  0  0  0  0  0
   -1.9524  -29.8453  -14.2548 C   0  0  0  0  0  0  0  0  0  0  0  0
   -2.9662  -30.3403  -16.8510 N   0  0  0  0  0  0  0  0  0  0  0  0
   -1.2437  -30.2933  -15.8229 C   0  0  0  0  0  0  0  0  0  0  0  0
   -2.6119  -30.8820   -5.6033 O   0  0  0  0  0  0  0  0  0  0  0  0
   -3.6330  -29.2495  -10.0512 C   0  0  0  0  0  0  0  0  0  0  0  0
   -4.0905  -29.4623   -8.2417 C   0  0  0  0  0  0  0  0  0  0  0  0
   -2.7884  -29.5092  -12.5724 C   0  0  0  0  0  0  0  0  0  0  0  0
    0.5777  -31.7811  -17.0814 C   0  0  0  0  0  0  0  0  0  0  0  0
    0.2728  -30.7674  -18.1358 C   0  0  0  0  0  0  0  0  0  0  0  0
   -2.5919  -30.3267   -7.5299 C   0  0  0  0  0  0  0  0  0  0  0  0
  3  2  2  0
  4  1  1  0
  6  4  1  0
 10  7  1  0
 12 11  2  0
 13  8  1  0
 14  9  2  0
 15  6  1  0
 15 11  1  0
 16 13  1  0
 17  3  1  0
 17 13  2  0
 17 15  1  0
 18 14  1  0
 19  1  1  0
 19  5  1  0
 19  7  1  0
 20  5  1  0
 20 19  1  0
 21  6  1  0
 21 10  1  0
 22  2  1  0
 23  8  2  0
 23 22  1  0
 24  1  1  0
 24 14  1  0
 24 20  1  0
M  END
>  <ID>  (1) 
conformer_0

$$$$
