
     RDKit          3D

 21 22  0  0  0  0  0  0  0  0999 V2000
   -1.2904  -30.7026   -8.6198 C   0  0  0  0  0  0  0  0  0  0  0  0
   -2.2683  -29.9148  -10.9764 C   0  0  0  0  0  0  0  0  0  0  0  0
   -0.2723  -30.6287  -15.2013 C   0  0  0  0  0  0  0  0  0  0  0  0
   -1.4421  -30.2723  -15.4217 C   0  0  0  0  0  0  0  0  0  0  0  0
   -2.4168  -30.3688   -7.9453 C   0  0  0  0  0  0  0  0  0  0  0  0
   -4.0421  -29.1858  -10.3899 C   0  0  0  0  0  0  0  0  0  0  0  0
   -4.1593  -29.1691  -12.0523 N   0  0  0  0  0  0  0  0  0  0  0  0
    0.1298  -30.9847  -17.5006 C   0  0  0  0  0  0  0  0  0  0  0  0
   -4.3061  -29.8514  -14.7212 O   0  0  0  0  0  0  0  0  0  0  0  0
   -3.4568  -29.7587  -14.6039 C   0  0  0  0  0  0  0  0  0  0  0  0
   -3.6225  -30.3402   -6.8703 C   0  0  0  0  0  0  0  0  0  0  0  0
   -2.0407  -30.5695  -16.7084 C   0  0  0  0  0  0  0  0  0  0  0  0
   -2.2924  -29.7561  -13.9217 C   0  0  0  0  0  0  0  0  0  0  0  0
   -3.2323  -30.4054  -16.7588 N   0  0  0  0  0  0  0  0  0  0  0  0
   -3.6318  -29.6650   -8.8084 C   0  0  0  0  0  0  0  0  0  0  0  0
   -1.1754  -31.0015  -17.8610 C   0  0  0  0  0  0  0  0  0  0  0  0
   -2.9649  -30.6877   -5.8174 O   0  0  0  0  0  0  0  0  0  0  0  0
   -3.1727  -29.4761  -12.2048 C   0  0  0  0  0  0  0  0  0  0  0  0
   -1.4970  -29.9719  -12.7637 C   0  0  1  0  0  0  0  0  0  0  0  0
   -4.7985  -28.9127   -9.5446 C   0  0  0  0  0  0  0  0  0  0  0  0
    0.5731  -31.0489  -16.2261 C   0  0  0  0  0  0  0  0  0  0  0  0
  4  3  2  0
  5  1  2  3
  7  6  1  0
 10  9  2  0
 11  5  1  0
 12  4  1  0
 13  4  1  0
 13 10  2  0
 14 12  1  0
 15  5  1  0
 16  8  1  0
 16 12  2  0
 17 11  1  0
 18  2  1  0
 18  7  1  0
 19  2  1  0
 19 13  1  6
 19 18  1  0
 20  6  1  0
 20 15  1  0
 21  3  1  0
 21  8  2  0
M  END
>  <ID>  (1) 
conformer_0

$$$$
