
     RDKit          3D

 20 22  0  0  0  0  0  0  0  0999 V2000
   -0.0401  -30.9821  -16.2130 C   0  0  0  0  0  0  0  0  0  0  0  0
   -2.6817  -30.3958   -7.2691 C   0  0  0  0  0  0  0  0  0  0  0  0
   -3.6377  -29.3619   -8.8645 C   0  0  0  0  0  0  0  0  0  0  0  0
   -0.2370  -31.3560  -17.5624 C   0  0  0  0  0  0  0  0  0  0  0  0
   -4.6112  -28.8519   -9.8493 C   0  0  0  0  0  0  0  0  0  0  0  0
   -1.9687  -30.0677  -10.6685 C   0  0  0  0  0  0  0  0  0  0  0  0
   -3.6591  -29.2177  -10.9081 C   0  0  0  0  0  0  0  0  0  0  0  0
   -2.3328  -30.6856  -16.6749 C   0  0  0  0  0  0  0  0  0  0  0  0
   -4.7635  -29.5326   -6.3183 O   0  0  0  0  0  0  0  0  0  0  0  0
   -3.4300  -29.3095  -12.4004 N   0  0  0  0  0  0  0  0  0  0  0  0
   -3.8330  -30.2164   -6.5753 C   0  0  0  0  0  0  0  0  0  0  0  0
   -4.2112  -29.2061  -14.9083 O   0  0  0  0  0  0  0  0  0  0  0  0
   -3.1561  -29.6784  -14.5876 C   0  0  0  0  0  0  0  0  0  0  0  0
   -1.5748  -31.3660  -18.0721 C   0  0  0  0  0  0  0  0  0  0  0  0
   -3.3733  -30.4881  -16.6283 N   0  0  0  0  0  0  0  0  0  0  0  0
   -1.3681  -30.0896  -12.4140 C   0  0  0  0  0  0  0  0  0  0  0  0
   -2.2297  -29.9458   -9.0847 C   0  0  0  0  0  0  0  0  0  0  0  0
   -1.2013  -30.5432  -15.5778 C   0  0  0  0  0  0  0  0  0  0  0  0
   -2.2897  -29.7247  -12.2958 C   0  0  0  0  0  0  0  0  0  0  0  0
   -1.6941  -29.8507  -14.0541 C   0  0  0  0  0  0  0  0  0  0  0  0
  4  1  2  0
  5  3  1  0
  7  5  2  0
  7  6  1  0
 10  7  1  0
 11  2  1  0
 11  9  2  0
 13 12  2  0
 14  4  1  0
 14  8  2  0
 15  8  1  0
 17  2  1  0
 17  3  1  0
 17  6  1  0
 18  1  1  0
 18  8  1  0
 19  6  1  0
 19 10  1  0
 19 16  1  0
 20 13  2  0
 20 16  1  0
 20 18  1  0
M  END
>  <ID>  (1) 
conformer_0

$$$$
