
     RDKit          3D

 21 24  0  0  0  0  0  0  0  0999 V2000
   -2.1813  -30.4008   -8.8054 C   0  0  0  0  0  0  0  0  0  0  0  0
    0.2400  -31.1227  -17.5018 C   0  0  0  0  0  0  0  0  0  0  0  0
    0.4056  -31.2080  -16.1212 C   0  0  0  0  0  0  0  0  0  0  0  0
   -1.8020  -30.0643  -11.4803 C   0  0  0  0  0  0  0  0  0  0  0  0
   -2.8292  -29.4442   -9.4562 C   0  0  1  0  0  0  0  0  0  0  0  0
   -3.8732  -29.2656  -10.7524 C   0  0  2  0  0  0  0  0  0  0  0  0
   -0.5313  -30.7431  -15.2632 C   0  0  0  0  0  3  0  0  0  0  0  0
   -4.2836  -29.5887  -14.8019 O   0  0  0  0  0  0  0  0  0  0  0  0
   -3.6143  -29.4393  -12.2097 N   0  0  0  0  0  0  0  0  0  0  0  0
   -3.1571  -29.8156  -14.5167 C   0  0  0  0  0  0  0  0  0  0  0  0
   -3.3700  -30.2581   -6.6016 C   0  0  0  0  0  0  0  0  0  0  0  0
   -4.3139  -28.9216   -9.3420 C   0  0  1  0  0  0  0  0  0  0  0  0
   -2.1257  -30.7510  -16.9622 C   0  0  0  0  0  0  0  0  0  0  0  0
   -2.3781  -30.8922   -5.9198 O   0  0  0  0  0  0  0  0  0  0  0  0
   -3.7938  -29.3229   -5.9645 O   0  0  0  0  0  0  0  0  0  0  0  0
   -1.7268  -30.4123  -15.6919 C   0  0  1  0  0  0  0  0  0  0  0  0
   -3.7533  -29.9406   -7.7655 C   0  0  1  0  0  0  0  0  0  0  0  0
   -3.3877  -30.3821  -16.4373 N   0  0  0  0  0  0  0  0  0  0  0  0
   -1.8532  -29.8853  -13.7368 C   0  0  0  0  0  0  0  0  0  0  0  0
   -2.5073  -29.6446  -12.2354 C   0  0  0  0  0  0  0  0  0  0  0  0
   -1.1223  -30.8961  -18.0662 C   0  0  0  0  0  0  0  0  0  0  0  0
  3  2  2  0
  5  1  1  1
  6  5  1  0
  7  3  1  0
  6  9  1  6
 10  8  2  0
 12  5  1  0
 12  6  1  0
 14 11  1  0
 15 11  2  0
 16  7  1  0
 16 10  1  1
 16 13  1  0
 17  1  1  0
 17 11  1  1
 12 17  1  1
 18 13  1  0
 18 16  1  0
 19 10  1  0
 20  4  2  3
 20  9  1  0
 20 19  1  0
 21  2  1  0
 21 13  2  0
M  RAD  1   7   2
M  END
>  <ID>  (1) 
conformer_0

$$$$
