
     RDKit          3D

 21 25  0  0  0  0  0  0  0  0999 V2000
   -1.3119  -30.6017  -15.2378 C   0  0  0  0  0  0  0  0  0  0  0  0
   -3.4331  -30.2963   -7.7303 C   0  0  0  0  0  0  0  0  0  0  0  0
   -2.4107  -29.9261  -11.2618 C   0  0  0  0  0  0  0  0  0  0  0  0
   -0.0724  -31.1648  -15.5789 C   0  0  0  0  0  0  0  0  0  0  0  0
   -2.4801  -29.9688   -9.8590 C   0  0  0  0  0  0  0  0  0  0  0  0
    0.1920  -31.2090  -16.8983 C   0  0  0  0  0  0  0  0  0  0  0  0
   -3.8057  -29.1590  -10.7332 C   0  0  0  0  0  0  0  0  0  0  0  0
   -2.1436  -30.5277  -16.6483 C   0  0  0  0  0  0  0  0  0  0  0  0
   -2.6486  -31.0858   -5.9110 O   0  0  0  0  0  0  0  0  0  0  0  0
   -3.9062  -29.0427  -12.5059 N   0  0  0  0  0  0  0  0  0  0  0  0
   -3.9919  -30.3805   -6.7785 C   0  0  0  0  0  0  0  0  0  0  0  0
   -4.2349  -29.5406  -15.0521 O   0  0  0  0  0  0  0  0  0  0  0  0
   -3.2338  -30.3629  -16.7493 N   0  0  0  0  0  0  0  0  0  0  0  0
   -3.4178  -29.6697  -14.7367 C   0  0  0  0  0  0  0  0  0  0  0  0
   -1.1784  -30.1859  -12.5968 C   0  0  0  0  0  0  0  0  0  0  0  0
   -0.8946  -30.7563  -17.7800 C   0  0  0  0  0  0  0  0  0  0  0  0
   -4.9021  -29.8153   -6.2927 O   0  0  0  0  0  0  0  0  0  0  0  0
   -2.4059  -29.6391   -8.4887 C   0  0  0  0  0  0  0  0  0  0  0  0
   -2.2307  -29.9308  -13.9281 C   0  0  0  0  0  0  0  0  0  0  0  0
   -4.6778  -29.0834   -9.6033 C   0  0  0  0  0  0  0  0  0  0  0  0
   -2.7738  -29.4767  -12.5854 C   0  0  0  0  0  0  0  0  0  0  0  0
  4  1  2  0
  5  3  1  0
  6  4  1  0
  7  3  1  0
  7  5  1  0
  8  1  1  0
 10  7  1  0
 11  2  1  0
 11  9  1  0
 13  8  1  0
 14 12  1  0
 15  3  1  0
 16  6  2  0
 16  8  1  0
 17 11  2  0
 18  2  1  0
 18  5  1  0
 19  1  1  0
 19 14  1  0
 19 15  1  0
 20  7  1  0
 21  3  1  0
 21 10  1  0
 21 15  1  0
 21 19  1  0
M  END
>  <ID>  (1) 
conformer_0

$$$$
