
     RDKit          3D

 26 31  0  0  0  0  0  0  0  0999 V2000
   -1.7130  -30.3098   -7.9504 C   0  0  0  0  0  0  0  0  0  0  0  0
   -0.2812  -30.7692  -15.3445 C   0  0  0  0  0  0  0  0  0  0  0  0
   -1.6188  -30.6617  -15.5750 C   0  0  0  0  0  0  0  0  0  0  0  0
   -1.9424  -30.0751  -14.0713 C   0  0  2  0  0  0  0  0  0  0  0  0
   -3.3014  -29.4584   -9.3652 C   0  0  1  0  0  0  0  0  0  0  0  0
   -2.9061  -29.4304  -13.1416 C   0  0  1  0  0  0  0  0  0  0  0  0
   -2.1126  -30.7694  -16.8196 C   0  0  0  0  0  0  0  0  0  0  0  0
    0.3345  -31.7297  -16.3689 C   0  0  0  0  0  0  0  0  0  0  0  0
   -2.8813  -30.5813   -6.1105 C   0  0  0  0  0  0  0  0  0  0  0  0
   -3.3322  -29.7818  -15.1835 C   0  0  2  0  0  0  0  0  0  0  0  0
   -3.2296  -29.1823  -11.5836 N   0  0  0  0  0  0  0  0  0  0  0  0
   -3.3860  -29.9127   -8.0611 C   0  0  2  0  0  0  0  0  0  0  0  0
   -4.6734  -29.7506   -6.1369 O   0  0  0  0  0  0  0  0  0  0  0  0
   -4.2346  -29.6333  -15.1412 O   0  0  0  0  0  0  0  0  0  0  0  0
   -3.2209  -30.6315  -16.8052 N   0  0  0  0  0  0  0  0  0  0  0  0
   -1.7733  -30.2017  -10.3728 C   0  0  0  0  0  0  0  0  0  0  0  0
   -0.2136  -31.1251  -18.3221 C   0  0  0  0  0  0  0  0  0  0  0  0
   -2.3852  -30.6855   -5.6595 O   0  0  0  0  0  0  0  0  0  0  0  0
   -4.0681  -29.1610  -10.5551 C   0  0  2  0  0  0  0  0  0  0  0  0
   -1.4342  -30.1740  -12.4912 C   0  0  1  0  0  0  0  0  0  0  0  0
   -3.7026  -29.2409  -13.5233 N   0  0  0  0  0  0  0  0  0  0  0  0
    0.5422  -30.5226  -17.1586 C   0  0  0  0  0  0  0  0  0  0  0  0
   -1.5543  -30.7378  -18.2102 C   0  0  0  0  0  0  0  0  0  0  0  0
   -4.5003  -29.8457   -7.0224 C   0  0  2  0  0  0  0  0  0  0  0  0
   -2.2567  -29.8471  -11.2289 C   0  0  0  0  0  0  0  0  0  0  0  0
   -5.0937  -28.6779   -9.4762 C   0  0  0  0  0  0  0  0  0  0  0  0
  3  2  2  0
  4  3  1  1
  6  4  1  0
  7  3  1  0
  8  2  1  0
 10  4  1  0
 11  6  1  0
 12  1  1  1
 12  5  1  0
 10 14  1  1
 15  7  1  0
 15 10  1  0
 18  9  1  0
 19  5  1  0
 19 11  1  6
 20  4  1  0
 20  6  1  0
  6 21  1  6
 21 10  1  0
 22  8  1  0
 22 17  2  0
 23  7  2  0
 23 17  1  0
 24  9  1  0
 24 12  1  0
 24 13  1  1
 25 11  1  0
 25 16  2  3
 20 25  1  1
  5 26  1  1
 26 19  1  0
M  END
>  <ID>  (1) 
conformer_0

$$$$
