
     RDKit          3D

 19 19  0  0  0  0  0  0  0  0999 V2000
   -0.0840  -30.9403  -15.7616 C   0  0  0  0  0  0  0  0  0  0  0  0
   -1.3892  -29.9692  -12.2146 C   0  0  0  0  0  0  0  0  0  0  0  0
   -1.6639  -29.9149  -13.6634 C   0  0  0  0  0  0  0  0  0  0  0  0
   -1.3090  -30.4821  -15.5563 C   0  0  0  0  0  0  0  0  0  0  0  0
   -2.8506  -30.1697   -7.9871 C   0  0  0  0  0  0  0  0  0  0  0  0
   -3.5395  -29.2533  -11.2252 C   0  0  0  0  0  0  0  0  0  0  0  0
   -3.2780  -29.7398   -9.1162 C   0  0  1  0  0  0  0  0  0  0  0  0
   -1.9882  -30.6644  -17.0413 C   0  0  0  0  0  0  0  0  0  0  0  0
   -4.0556  -29.6290  -14.5714 O   0  0  0  0  0  0  0  0  0  0  0  0
   -3.8929  -29.0660  -12.0308 N   0  0  0  0  0  0  0  0  0  0  0  0
   -3.0126  -29.6326  -13.9889 C   0  0  0  0  0  0  0  0  0  0  0  0
   -2.3228  -31.1982   -5.6556 O   0  0  0  0  0  0  0  0  0  0  0  0
    0.5079  -31.0308  -16.9767 C   0  0  0  0  0  0  0  0  0  0  0  0
   -4.4683  -30.2793   -5.7260 O   0  0  0  0  0  0  0  0  0  0  0  0
   -3.4111  -30.5425   -6.5801 C   0  0  0  0  0  0  0  0  0  0  0  0
   -4.7907  -28.9015   -9.4310 C   0  0  0  0  0  0  0  0  0  0  0  0
   -2.1503  -29.8794  -10.6329 C   0  0  1  0  0  0  0  0  0  0  0  0
   -0.2810  -30.6917  -18.0194 C   0  0  0  0  0  0  0  0  0  0  0  0
   -2.2856  -30.9131  -17.7486 N   0  0  0  0  0  0  0  0  0  0  0  0
  3  2  1  0
  4  1  2  0
  4  3  1  0
  7  5  1  0
  8  4  1  0
 10  6  2  3
 11  3  2  0
 11  9  2  0
 13  1  1  0
 15  5  1  0
 15 12  1  0
 15 14  2  0
  7 16  1  1
 17  2  1  6
 17  6  1  0
 17  7  1  0
 18  8  2  0
 18 13  1  0
 19  8  1  0
M  END
>  <ID>  (1) 
conformer_0

$$$$
