
     RDKit          3D

 22 23  0  0  0  0  0  0  0  0999 V2000
   -2.8269  -30.2550   -7.5798 C   0  0  0  0  0  0  0  0  0  0  0  0
   -1.2303  -30.5145  -15.4403 C   0  0  0  0  0  0  0  0  0  0  0  0
   -0.0301  -30.9874  -15.6876 C   0  0  0  0  0  0  0  0  0  0  0  0
   -1.8902  -29.8685  -13.9817 C   0  0  0  0  0  0  0  0  0  0  0  0
   -4.0089  -29.0943  -10.7093 C   0  0  0  0  0  0  0  0  0  0  0  0
   -1.8448  -30.0151  -11.5837 C   0  0  0  0  0  0  0  0  0  0  0  0
   -2.1328  -30.6761  -16.5498 C   0  0  0  0  0  0  0  0  0  0  0  0
   -3.7461  -30.2459   -6.3426 C   0  0  0  0  0  0  0  0  0  0  0  0
   -3.7103  -29.0485  -12.3468 N   0  0  0  0  0  0  0  0  0  0  0  0
   -3.2443  -29.6113  -14.5086 C   0  0  0  0  0  0  0  0  0  0  0  0
    0.5805  -31.2710  -16.8209 C   0  0  0  0  0  0  0  0  0  0  0  0
   -4.7866  -29.7024   -6.2759 O   0  0  0  0  0  0  0  0  0  0  0  0
   -4.4576  -29.7073  -14.6937 O   0  0  0  0  0  0  0  0  0  0  0  0
   -2.8925  -31.1993   -5.3250 O   0  0  0  0  0  0  0  0  0  0  0  0
   -2.0217  -29.9877   -9.6867 C   0  0  0  0  0  0  0  0  0  0  0  0
   -3.2577  -30.2704  -16.3825 N   0  0  0  0  0  0  0  0  0  0  0  0
   -3.1103  -29.5081   -8.7250 C   0  0  0  0  0  0  0  0  0  0  0  0
   -1.6762  -31.2254  -17.9717 C   0  0  0  0  0  0  0  0  0  0  0  0
   -2.7552  -29.4873  -12.1914 C   0  0  0  0  0  0  0  0  0  0  0  0
   -4.3842  -29.0447   -9.5860 C   0  0  0  0  0  0  0  0  0  0  0  0
   -0.3375  -31.2086  -18.0521 C   0  0  0  0  0  0  0  0  0  0  0  0
   -0.7549  -30.1208  -13.1103 C   0  0  0  0  0  0  0  0  0  0  0  0
  3  2  2  0
  4  2  1  0
  7  2  1  0
  8  1  1  0
  9  5  1  0
 10  4  2  0
 11  3  1  0
 12  8  2  0
 13 10  2  0
 14  8  1  0
 15  6  1  0
 16  7  1  0
 17  1  1  0
 17 15  1  0
 18  7  2  0
 19  6  1  0
 19  9  1  0
 20  5  1  0
 20 17  1  0
 21 11  2  0
 21 18  1  0
 22  4  1  0
 22  6  1  0
M  END
>  <ID>  (1) 
conformer_0

$$$$
