
     RDKit          3D

 23 25  0  0  0  0  0  0  0  0999 V2000
   -2.5007  -30.3213   -7.6920 C   0  0  0  0  0  0  0  0  0  0  0  0
    0.0720  -30.9710  -17.8814 C   0  0  0  0  0  0  0  0  0  0  0  0
   -1.5537  -29.8638  -12.9317 C   0  0  0  0  0  0  0  0  0  0  0  0
   -3.7494  -29.4538   -8.4332 C   0  0  0  0  0  0  0  0  0  0  0  0
    0.5670  -31.4025  -16.5558 C   0  0  0  0  0  0  0  0  0  0  0  0
   -2.1055  -30.0846  -11.1257 C   0  0  0  0  0  0  0  0  0  0  0  0
   -3.9148  -29.2299  -10.7343 C   0  0  0  0  0  0  0  0  0  0  0  0
   -2.0644  -30.7255  -16.8237 C   0  0  0  0  0  0  0  0  0  0  0  0
   -4.1425  -29.6030  -14.7931 O   0  0  0  0  0  0  0  0  0  0  0  0
   -1.3180  -31.3151  -18.0497 C   0  0  0  0  0  0  0  0  0  0  0  0
   -4.4922  -29.6608   -6.1462 O   0  0  0  0  0  0  0  0  0  0  0  0
   -2.7228  -31.2686   -5.6922 O   0  0  0  0  0  0  0  0  0  0  0  0
   -3.1610  -29.6501  -14.7405 C   0  0  0  0  0  0  0  0  0  0  0  0
   -3.6143  -29.0817  -12.3500 N   0  0  0  0  0  0  0  0  0  0  0  0
   -3.1685  -30.4434  -16.7775 N   0  0  0  0  0  0  0  0  0  0  0  0
   -3.3767  -30.3822   -6.6165 C   0  0  0  0  0  0  0  0  0  0  0  0
   -1.9015  -29.8180  -14.2868 C   0  0  0  0  0  0  0  0  0  0  0  0
   -5.6622  -28.6143   -9.5432 C   0  0  0  0  0  0  0  0  0  0  0  0
   -0.1048  -30.6114  -15.5591 C   0  0  0  0  0  0  0  0  0  0  0  0
   -2.6600  -29.4800  -12.3720 C   0  0  0  0  0  0  0  0  0  0  0  0
   -2.2335  -29.9328   -9.4970 C   0  0  0  0  0  0  0  0  0  0  0  0
   -4.2363  -29.1832  -10.1417 C   0  0  0  0  0  0  0  0  0  0  0  0
   -1.2921  -30.4935  -15.6364 C   0  0  0  0  0  0  0  0  0  0  0  0
  4  1  1  0
  5  2  2  0
 10  2  1  0
 10  8  2  0
 13  9  2  0
 14  7  1  0
 15  8  1  0
 16  1  1  0
 16 11  2  0
 16 12  1  0
 17  3  1  0
 17 13  2  0
 19  5  1  0
 20  3  1  0
 20  6  1  0
 20 14  1  0
 21  1  1  0
 21  4  1  0
 21  6  1  0
 22  4  1  0
 22  7  1  0
 22 18  1  0
 23  8  1  0
 23 17  1  0
 23 19  2  0
M  END
>  <ID>  (1) 
conformer_0

$$$$
