
     RDKit          3D

 21 24  0  0  0  0  0  0  0  0999 V2000
   -0.2284  -30.7236  -15.6142 C   0  0  0  0  0  0  0  0  0  0  0  0
   -3.8914  -29.6650   -8.3075 C   0  0  0  0  0  0  0  0  0  0  0  0
   -1.8985  -30.0005  -14.1051 C   0  0  0  0  0  0  0  0  0  0  0  0
   -1.6064  -30.5062  -15.7959 C   0  0  0  0  0  0  0  0  0  0  0  0
   -2.0928  -30.3677   -7.2602 C   0  0  0  0  0  0  0  0  0  0  0  0
   -4.0058  -29.1613  -10.7145 C   0  0  0  0  0  0  0  0  0  0  0  0
   -2.3287  -29.6934   -8.8358 C   0  0  0  0  0  0  0  0  0  0  0  0
   -4.1824  -29.4424  -14.9479 O   0  0  0  0  0  0  0  0  0  0  0  0
    0.2328  -30.8581  -17.9142 C   0  0  0  0  0  0  0  0  0  0  0  0
   -1.9869  -30.6897  -17.0826 C   0  0  0  0  0  0  0  0  0  0  0  0
   -3.0097  -31.1676   -5.3981 O   0  0  0  0  0  0  0  0  0  0  0  0
   -3.6688  -30.3385   -6.5274 C   0  0  0  0  0  0  0  0  0  0  0  0
   -2.8116  -29.5169  -12.1010 C   0  0  0  0  0  0  0  0  0  0  0  0
   -4.4849  -29.7712   -5.6944 O   0  0  0  0  0  0  0  0  0  0  0  0
   -1.4995  -29.9908  -12.5959 C   0  0  0  0  0  0  0  0  0  0  0  0
   -3.5997  -29.2200  -11.8869 N   0  0  0  0  0  0  0  0  0  0  0  0
   -1.1418  -30.9937  -18.2647 C   0  0  0  0  0  0  0  0  0  0  0  0
   -4.6253  -28.8681   -9.6475 C   0  0  0  0  0  0  0  0  0  0  0  0
   -2.2157  -29.8350  -10.4923 C   0  0  0  0  0  0  0  0  0  0  0  0
   -3.2968  -29.6644  -14.3425 C   0  0  0  0  0  0  0  0  0  0  0  0
    0.5127  -31.2246  -16.5969 C   0  0  0  0  0  0  0  0  0  0  0  0
  4  1  2  0
  4  3  1  0
  7  2  1  0
  7  5  1  0
 10  4  1  0
 12  2  1  0
 12  5  1  0
 12 11  1  0
 14 12  1  0
 15  3  1  0
 15 13  1  0
 16  6  1  0
 16 13  2  0
 17  9  1  0
 17 10  2  0
 18  2  1  0
 18  6  1  0
 19  6  1  0
 19  7  1  0
 19 13  1  0
 20  3  2  0
 20  8  2  0
 21  1  1  0
 21  9  2  0
M  END
>  <ID>  (1) 
conformer_0

$$$$
