
     RDKit          3D

 22 24  0  0  0  0  0  0  0  0999 V2000
   -1.1415  -30.3547  -11.1094 C   0  0  0  0  0  0  0  0  0  0  0  0
   -1.2911  -29.8441  -12.9271 C   0  0  0  0  0  0  0  0  0  0  0  0
    0.2795  -30.9419  -16.3680 C   0  0  0  0  0  0  0  0  0  0  0  0
   -2.0153  -29.8613  -13.8181 C   0  0  0  0  0  0  0  0  0  0  0  0
   -0.8416  -30.5571  -15.5714 C   0  0  0  0  0  0  0  0  0  0  0  0
   -4.3416  -29.0878  -10.0374 C   0  0  0  0  0  0  0  0  0  0  0  0
   -2.1205  -30.7966  -16.4929 C   0  0  0  0  0  0  0  0  0  0  0  0
   -2.1780  -29.4900   -7.9352 C   0  0  2  0  0  0  0  0  0  0  0  0
   -4.1759  -29.8411  -14.7438 O   0  0  0  0  0  0  0  0  0  0  0  0
   -2.7149  -30.8967   -5.7632 O   0  0  0  0  0  0  0  0  0  0  0  0
   -1.9987  -30.2145   -9.1515 C   0  0  0  0  0  0  0  0  0  0  0  0
   -0.0245  -30.9704  -17.7123 C   0  0  0  0  0  0  0  0  0  0  0  0
   -3.4707  -30.2010   -6.9228 C   0  0  0  0  0  0  0  0  0  0  0  0
   -4.6184  -30.0657   -6.4100 O   0  0  0  0  0  0  0  0  0  0  0  0
   -3.1744  -29.8322  -14.4603 C   0  0  0  0  0  0  0  0  0  0  0  0
   -3.0513  -30.7252  -16.6151 N   0  0  0  0  0  0  0  0  0  0  0  0
   -3.6212  -29.8036   -8.6013 C   0  0  2  0  0  0  0  0  0  0  0  0
   -3.6866  -29.0040  -11.8650 N   0  0  0  0  0  0  0  0  0  0  0  0
   -3.3030  -29.3764  -11.8115 C   0  0  0  0  0  0  0  0  0  0  0  0
   -1.3376  -31.2109  -18.0190 C   0  0  0  0  0  0  0  0  0  0  0  0
   -5.1511  -28.7802   -9.6633 C   0  0  0  0  0  0  0  0  0  0  0  0
   -2.5594  -29.8088  -11.0460 C   0  0  0  0  0  0  0  0  0  0  0  0
  2  1  1  0
  4  2  1  0
  5  3  2  0
  5  4  1  0
  7  5  1  0
  8 11  1  6
 12  3  1  0
 13  8  1  0
 13 10  1  0
 14 13  1  0
 15  4  2  0
 15  9  2  0
 16  7  1  0
 17  6  1  0
 17  8  1  0
 17 11  1  6
 17 13  1  0
 18  6  1  0
 19 18  1  0
 20  7  2  0
 20 12  1  0
 21  6  2  3
 22  1  1  0
 22 19  1  0
M  END
>  <ID>  (1) 
conformer_0

$$$$
