
     RDKit          3D

 23 27  0  0  0  0  0  0  0  0999 V2000
    0.6226  -30.7339  -16.9835 C   0  0  0  0  0  0  0  0  0  0  0  0
   -2.5844  -30.2968   -7.3310 C   0  0  0  0  0  0  0  0  0  0  0  0
   -1.4294  -30.3909  -10.6416 C   0  0  0  0  0  0  0  0  0  0  0  0
    0.1266  -30.8754  -18.2400 C   0  0  0  0  0  0  0  0  0  0  0  0
   -2.7270  -29.7508  -11.1793 C   0  0  0  0  0  0  0  0  0  0  0  0
   -2.8343  -29.7835   -9.2956 C   0  0  0  0  0  0  0  0  0  0  0  0
   -2.7232  -29.6104  -12.4490 C   0  0  0  0  0  0  0  0  0  0  0  0
   -1.9955  -30.6171  -16.9791 C   0  0  0  0  0  0  0  0  0  0  0  0
   -4.8623  -29.7483   -5.7852 O   0  0  0  0  0  0  0  0  0  0  0  0
   -4.2121  -29.5196  -15.0170 O   0  0  0  0  0  0  0  0  0  0  0  0
   -3.5890  -30.3524   -6.1399 C   0  0  0  0  0  0  0  0  0  0  0  0
   -2.9610  -29.7877  -14.6989 C   0  0  0  0  0  3  0  0  0  0  0  0
   -1.2257  -30.3853  -15.7213 C   0  0  0  0  0  0  0  0  0  0  0  0
   -3.9048  -29.2503  -12.2948 N   0  0  0  0  0  0  0  0  0  0  0  0
   -2.4696  -31.1291   -5.2643 O   0  0  0  0  0  0  0  0  0  0  0  0
   -1.2068  -30.0482  -12.5357 C   0  0  0  0  0  0  0  0  0  0  0  0
   -3.0390  -30.3660  -16.7360 N   0  0  0  0  0  0  0  0  0  0  0  0
   -2.0558  -29.9248  -14.0231 C   0  0  0  0  0  0  0  0  0  0  0  0
   -1.2554  -30.5413  -18.3237 C   0  0  0  0  0  0  0  0  0  0  0  0
   -4.1378  -29.1494  -10.7330 C   0  0  0  0  0  0  0  0  0  0  0  0
   -3.8101  -29.6994   -8.1268 C   0  0  0  0  0  0  0  0  0  0  0  0
   -4.6907  -28.8526   -9.6432 C   0  0  0  0  0  0  0  0  0  0  0  0
   -0.0657  -31.2030  -15.9858 C   0  0  0  0  0  0  0  0  0  0  0  0
  4  1  2  0
  5  3  1  0
  7  5  1  0
 11  2  1  0
 11  9  2  0
 12 10  2  0
 13  8  1  0
 14  5  1  0
 14  7  1  0
 15 11  1  0
 16  3  1  0
 16  7  1  0
 17  8  1  0
 18  7  1  0
 18 12  1  0
 18 13  1  0
 18 16  1  0
 19  4  1  0
 19  8  2  0
 20  5  1  0
 20 14  1  0
 21  2  1  0
 21  6  1  0
 22 20  1  0
 22 21  1  0
 23  1  1  0
 23 13  2  0
M  RAD  1  12   2
M  END
>  <ID>  (1) 
conformer_0

$$$$
