
     RDKit          3D

 18 18  0  0  0  0  0  0  0  0999 V2000
    0.5763  -31.0262  -17.0289 C   0  0  0  0  0  0  0  0  0  0  0  0
   -2.9798  -30.0355   -7.9145 C   0  0  0  0  0  0  0  0  0  0  0  0
   -1.4210  -30.6115  -15.7768 C   0  0  0  0  0  0  0  0  0  0  0  0
   -1.5857  -29.8711  -13.6383 C   0  0  0  0  0  0  0  0  0  0  0  0
   -3.2726  -29.4361  -11.3389 C   0  0  0  0  0  0  0  0  0  0  0  0
   -2.6041  -29.8289   -9.2326 C   0  0  0  0  0  0  0  0  0  0  0  0
   -2.9675  -29.6679  -14.0217 C   0  0  1  0  0  0  0  0  0  0  0  0
   -0.1561  -30.7754  -18.2294 C   0  0  0  0  0  0  0  0  0  0  0  0
   -4.4373  -29.0944   -9.2227 C   0  0  0  0  0  0  0  0  0  0  0  0
   -3.7860  -30.1041   -6.2678 C   0  0  0  0  0  0  0  0  0  0  0  0
   -3.7316  -29.2980  -12.1920 N   0  0  0  0  0  0  0  0  0  0  0  0
   -4.1415  -29.5067  -14.8734 O   0  0  0  0  0  0  0  0  0  0  0  0
   -4.5720  -29.5714   -6.0898 O   0  0  0  0  0  0  0  0  0  0  0  0
   -2.1096  -30.5791  -16.8479 C   0  0  0  0  0  0  0  0  0  0  0  0
   -0.1065  -30.9657  -15.8657 C   0  0  0  0  0  0  0  0  0  0  0  0
   -1.6284  -30.7852  -18.0715 C   0  0  0  0  0  0  0  0  0  0  0  0
   -3.2428  -30.0157  -16.3712 N   0  0  0  0  0  0  0  0  0  0  0  0
   -1.9773  -29.8872  -11.2095 C   0  0  0  0  0  0  0  0  0  0  0  0
  6  2  2  0
  7  4  1  6
  8  1  2  0
  9  6  1  0
 10  2  2  0
 11  5  2  3
 11  7  1  0
 12  7  1  0
 13 10  1  0
 14  3  1  0
 15  1  1  0
 15  3  2  0
 16  8  1  0
 16 14  2  0
 17 12  1  0
 17 14  1  0
 18  5  1  0
 18  6  1  0
M  END
>  <ID>  (1) 
conformer_0

$$$$
