
     RDKit          3D

 18 19  0  0  0  0  0  0  0  0999 V2000
    0.6021  -31.2793  -17.0889 C   0  0  0  0  0  0  0  0  0  0  0  0
   -4.2165  -29.3462   -9.2930 C   0  0  0  0  0  0  0  0  0  0  0  0
    0.2084  -31.1496  -15.7486 C   0  0  0  0  0  0  0  0  0  0  0  0
   -3.4788  -29.8320   -7.9199 C   0  0  2  0  0  0  0  0  0  0  0  0
   -2.3778  -29.7781   -9.4981 C   0  0  1  0  0  0  0  0  0  0  0  0
   -3.2913  -29.3932  -11.6313 C   0  0  0  0  0  0  0  0  0  0  0  0
   -1.6747  -30.0234  -11.2891 C   0  0  1  0  0  0  0  0  0  0  0  0
   -1.0441  -30.7085  -15.5423 C   0  0  0  0  0  0  0  0  0  0  0  0
   -3.0947  -29.7601  -14.5715 C   0  0  0  0  0  0  0  0  0  0  0  0
   -3.8763  -30.2088   -6.1004 C   0  0  0  0  0  0  0  0  0  0  0  0
   -1.7654  -30.6702  -17.0970 C   0  0  0  0  0  0  0  0  0  0  0  0
   -4.8580  -29.7087   -5.5578 O   0  0  0  0  0  0  0  0  0  0  0  0
   -2.8716  -30.6780   -5.3176 O   0  0  0  0  0  0  0  0  0  0  0  0
   -3.5862  -29.2340  -12.0060 N   0  0  0  0  0  0  0  0  0  0  0  0
   -1.6700  -29.8949  -13.3985 C   0  0  1  0  0  0  0  0  0  0  0  0
   -0.5841  -31.0514  -17.9294 C   0  0  0  0  0  0  0  0  0  0  0  0
   -4.1445  -29.6361  -15.1113 O   0  0  0  0  0  0  0  0  0  0  0  0
   -3.6337  -29.9078  -14.9622 N   0  0  0  0  0  0  0  0  0  0  0  0
  3  1  2  0
  4  2  1  0
  5  2  1  6
  5  4  1  0
  7  5  1  0
  7  6  1  6
  8  3  1  0
  4 10  1  6
 11  8  2  0
 12 10  2  0
 13 10  1  0
 14  6  2  3
 15  7  1  0
 15  8  1  0
 15  9  1  6
 16  1  1  0
 16 11  1  0
 18  9  1  0
 18 17  2  0
M  END
>  <ID>  (1) 
conformer_0

$$$$
