
     RDKit          3D

 16 17  0  0  0  0  0  0  0  0999 V2000
    0.0820  -30.9593  -15.8731 C   0  0  0  0  0  0  0  0  0  0  0  0
   -3.9162  -29.7980   -8.4392 C   0  0  0  0  0  0  0  0  0  0  0  0
   -2.4530  -30.1001   -8.4846 C   0  0  0  0  0  0  0  0  0  0  0  0
   -2.1975  -29.9866  -10.3120 C   0  0  0  0  0  0  0  0  0  0  0  0
   -1.1837  -30.5090  -15.5309 C   0  0  0  0  0  0  0  0  0  0  0  0
   -1.4374  -30.1217  -11.5622 C   0  0  0  0  0  0  0  0  0  0  0  0
   -3.4623  -29.3687  -11.2771 C   0  0  0  0  0  0  0  0  0  0  0  0
   -3.7612  -29.2710  -12.5479 N   0  0  0  0  0  0  0  0  0  0  0  0
   -2.8629  -29.7847  -14.1476 C   0  0  0  0  0  0  0  0  0  0  0  0
   -1.9504  -30.6478  -17.0615 C   0  0  0  0  0  0  0  0  0  0  0  0
   -3.9891  -30.4476   -6.7654 C   0  0  0  0  0  0  0  0  0  0  0  0
    0.4666  -31.1372  -17.1402 C   0  0  0  0  0  0  0  0  0  0  0  0
   -3.9944  -30.0019  -15.0634 O   0  0  0  0  0  0  0  0  0  0  0  0
   -1.6072  -29.9104  -13.4948 C   0  0  0  0  0  0  0  0  0  0  0  0
   -4.6297  -29.1315   -9.6483 C   0  0  0  0  0  0  0  0  0  0  0  0
   -0.5966  -30.8293  -18.0349 C   0  0  0  0  0  0  0  0  0  0  0  0
  3  2  1  0
  4  3  1  0
  5  1  2  0
  6  4  2  0
  7  4  1  0
  8  7  2  0
  9  8  1  0
 10  5  1  0
 11  2  1  0
 12  1  1  0
 13  9  2  0
 14  5  1  0
 14  6  1  0
 14  9  1  0
 15  2  1  0
 16 10  2  0
 16 12  1  0
M  END
>  <ID>  (1) 
conformer_0

$$$$
