
     RDKit          3D

 22 24  0  0  0  0  0  0  0  0999 V2000
    0.2961  -31.1305  -16.9702 C   0  0  0  0  0  0  0  0  0  0  0  0
   -2.4566  -29.8297  -10.8033 C   0  0  0  0  0  0  0  0  0  0  0  0
   -2.5913  -30.3445   -7.1951 C   0  0  0  0  0  0  0  0  0  0  0  0
   -0.0802  -30.8967  -15.6645 C   0  0  0  0  0  0  0  0  0  0  0  0
   -1.0796  -30.4396  -11.1650 C   0  0  0  0  0  0  0  0  0  0  0  0
   -3.8957  -29.6678   -8.8445 C   0  0  0  0  0  0  0  0  0  0  0  0
   -3.9771  -29.3216  -10.4199 C   0  0  0  0  0  0  0  0  0  0  0  0
   -2.1002  -30.6978  -16.7379 C   0  0  0  0  0  0  0  0  0  0  0  0
   -4.6615  -29.7969   -6.3068 O   0  0  0  0  0  0  0  0  0  0  0  0
   -4.3174  -29.6407  -14.3420 O   0  0  0  0  0  0  0  0  0  0  0  0
   -0.8083  -30.9684  -17.8631 C   0  0  0  0  0  0  0  0  0  0  0  0
   -3.1654  -29.7025  -14.4002 C   0  0  0  0  0  0  0  0  0  0  0  0
   -3.2956  -30.5054  -16.6311 N   0  0  0  0  0  0  0  0  0  0  0  0
   -3.6658  -29.2843  -12.0967 N   0  0  0  0  0  0  0  0  0  0  0  0
   -3.5995  -30.3343   -6.6812 C   0  0  0  0  0  0  0  0  0  0  0  0
   -5.0759  -28.5666  -10.0589 C   0  0  0  0  0  0  0  0  0  0  0  0
   -2.7887  -30.7877   -5.3987 O   0  0  0  0  0  0  0  0  0  0  0  0
   -1.2605  -30.4558  -15.3474 C   0  0  0  0  0  0  0  0  0  0  0  0
   -1.3393  -29.8983  -12.7919 C   0  0  0  0  0  0  0  0  0  0  0  0
   -2.8594  -29.5068  -12.1578 C   0  0  0  0  0  0  0  0  0  0  0  0
   -2.1238  -29.8091  -13.9329 C   0  0  0  0  0  0  0  0  0  0  0  0
   -2.1836  -29.9892   -8.8959 C   0  0  0  0  0  0  0  0  0  0  0  0
  4  1  2  0
  5  2  1  0
  7  2  1  0
  7  6  1  0
 11  1  1  0
 11  8  1  0
 12 10  2  0
 13  8  1  0
 14  7  1  0
 15  3  1  0
 15  9  2  0
 16  7  1  0
 17 15  1  0
 18  4  1  0
 18  8  2  0
 19  5  1  0
 20  2  2  0
 20 14  1  0
 20 19  1  0
 21 12  1  0
 21 18  1  0
 21 19  1  0
 22  3  1  0
 22  6  1  0
M  END
>  <ID>  (1) 
conformer_0

$$$$
