
     RDKit          3D

 23 26  0  0  0  0  0  0  0  0999 V2000
   -4.9287  -29.5299   -8.0193 C   0  0  0  0  0  0  0  0  0  0  0  0
    0.7148  -31.1850  -16.9369 C   0  0  0  0  0  0  0  0  0  0  0  0
   -2.8684  -30.0755   -7.6484 C   0  0  0  0  0  0  0  0  0  0  0  0
    0.0725  -31.1245  -15.8064 C   0  0  0  0  0  0  0  0  0  0  0  0
   -1.5772  -30.1893  -10.9791 C   0  0  0  0  0  0  0  0  0  0  0  0
   -1.8625  -29.8028  -12.5967 C   0  0  0  0  0  0  0  0  0  0  0  0
   -1.0901  -30.4998  -15.6868 C   0  0  0  0  0  0  0  0  0  0  0  0
   -3.0055  -29.8651  -14.8119 C   0  0  0  0  0  0  0  0  0  0  0  0
   -2.8407  -29.6120  -12.4298 C   0  0  0  0  0  0  0  0  0  0  0  0
   -4.2176  -29.8641  -14.5260 O   0  0  0  0  0  0  0  0  0  0  0  0
   -3.1721  -30.5426   -5.7825 C   0  0  0  0  0  0  0  0  0  0  0  0
   -4.0108  -29.2020  -11.9257 N   0  0  0  0  0  0  0  0  0  0  0  0
   -3.2070  -30.1889  -16.4519 N   0  0  0  0  0  0  0  0  0  0  0  0
   -4.4503  -30.3460   -5.7000 O   0  0  0  0  0  0  0  0  0  0  0  0
   -1.9491  -30.5332  -16.8075 C   0  0  0  0  0  0  0  0  0  0  0  0
   -1.7263  -30.0712  -14.1770 C   0  0  0  0  0  0  0  0  0  0  0  0
   -1.2274  -30.4722  -18.0958 C   0  0  0  0  0  0  0  0  0  0  0  0
   -1.9776  -30.0577   -8.9001 C   0  0  0  0  0  0  0  0  0  0  0  0
   -2.9199  -29.5615  -10.1267 C   0  0  0  0  0  0  0  0  0  0  0  0
   -4.0687  -29.1897  -10.4926 C   0  0  0  0  0  0  0  0  0  0  0  0
    0.1696  -30.6706  -18.0874 C   0  0  0  0  0  0  0  0  0  0  0  0
   -4.9279  -29.8792   -6.8043 C   0  0  0  0  0  0  0  0  0  0  0  0
   -4.4583  -29.1376   -9.2045 C   0  0  0  0  0  0  0  0  0  0  0  0
  4  2  2  0
  6  5  1  0
  7  4  1  0
  9  6  1  0
 10  8  2  0
 11  3  1  0
 12  9  1  0
 13  8  1  0
 14 11  1  0
 15  7  2  0
 15 13  1  0
 16  6  1  0
 16  7  1  0
 16  8  1  0
 17 15  1  0
 18  3  1  0
 19  5  1  0
 19 18  1  0
 20 12  1  0
 20 19  2  0
 21  2  1  0
 21 17  2  0
 22  1  3  0
 22 14  1  0
 23  1  1  0
 23 20  1  0
M  END
>  <ID>  (1) 
conformer_0

$$$$
