
     RDKit          3D

 21 22  0  0  0  0  0  0  0  0999 V2000
   -3.6719  -30.2300   -7.8100 C   0  0  0  0  0  0  0  0  0  0  0  0
   -0.1627  -30.9271  -16.0474 C   0  0  0  0  0  0  0  0  0  0  0  0
   -2.3330  -30.2005   -8.7095 C   0  0  0  0  0  0  0  0  0  0  0  0
    0.3220  -30.7263  -17.3498 C   0  0  0  0  0  0  0  0  0  0  0  0
   -1.3352  -30.4443  -10.4000 C   0  0  0  0  0  0  0  0  0  0  0  0
   -2.6461  -29.6800  -10.5840 C   0  0  0  0  0  0  0  0  0  0  0  0
   -1.3671  -30.5229  -15.6932 C   0  0  0  0  0  0  0  0  0  0  0  0
   -4.3464  -29.0826   -9.6255 C   0  0  0  0  0  0  0  0  0  0  0  0
   -3.3980  -29.2771  -11.3070 C   0  0  0  0  0  0  0  0  0  0  0  0
   -3.7490  -29.2039  -12.7138 N   0  0  0  0  0  0  0  0  0  0  0  0
   -2.9447  -29.7132  -14.2349 C   0  0  0  0  0  0  0  0  0  0  0  0
   -5.0309  -29.4726   -5.9014 O   0  0  0  0  0  0  0  0  0  0  0  0
   -2.1819  -30.4217  -16.5972 C   0  0  0  0  0  0  0  0  0  0  0  0
   -4.0978  -30.3605   -6.5262 C   0  0  0  0  0  0  0  0  0  0  0  0
   -4.2638  -29.9393  -14.8905 O   0  0  0  0  0  0  0  0  0  0  0  0
   -0.5672  -30.7227  -18.4304 C   0  0  0  0  0  0  0  0  0  0  0  0
   -3.0448  -30.6630   -5.8063 O   0  0  0  0  0  0  0  0  0  0  0  0
   -1.5972  -29.8788  -12.2543 C   0  0  0  0  0  0  0  0  0  0  0  0
   -3.1636  -29.8599  -16.0950 N   0  0  0  0  0  0  0  0  0  0  0  0
   -1.7706  -29.8321  -13.7044 C   0  0  0  0  0  0  0  0  0  0  0  0
   -2.0148  -30.7693  -17.9503 C   0  0  0  0  0  0  0  0  0  0  0  0
  3  1  1  0
  4  2  2  0
  6  3  1  0
  6  5  1  0
  7  2  1  0
  9  6  1  0
  9  8  1  0
 10  9  1  0
 11 10  2  0
 13  7  2  0
 14  1  1  0
 14 12  2  0
 15 11  1  0
 16  4  1  0
 17 14  1  0
 18  5  1  0
 19 13  1  0
 19 15  1  0
 20 11  1  0
 20 18  1  0
 21 13  1  0
 21 16  2  0
M  END
>  <ID>  (1) 
conformer_0

$$$$
