
     RDKit          3D

 22 26  0  0  0  0  0  0  0  0999 V2000
    0.5993  -31.3443  -16.4510 C   0  0  0  0  0  0  0  0  0  0  0  0
   -2.2542  -30.2832   -8.1555 C   0  0  0  0  0  0  0  0  0  0  0  0
   -1.7068  -29.8666  -13.8619 C   0  0  0  0  0  0  0  0  0  0  0  0
   -0.3102  -30.8536  -15.5761 C   0  0  0  0  0  0  0  0  0  0  0  0
   -1.4289  -30.4254  -15.6625 C   0  0  0  0  0  0  0  0  0  0  0  0
   -4.1336  -29.3312   -9.5600 C   0  0  0  0  0  0  0  0  0  0  0  0
   -4.1991  -29.0722  -10.5421 C   0  0  0  0  0  0  0  0  0  0  0  0
   -3.9939  -28.8963  -11.6159 N   0  0  0  0  0  0  0  0  0  0  0  0
   -3.0237  -29.7398  -14.8345 C   0  0  0  0  0  0  0  0  0  0  0  0
   -1.9826  -30.4859  -17.0101 C   0  0  0  0  0  3  0  0  0  0  0  0
   -4.3453  -29.6802  -15.1116 O   0  0  0  0  0  0  0  0  0  0  0  0
   -3.5057  -30.4390   -6.1501 C   0  0  0  0  0  0  0  0  0  0  0  0
   -3.9403  -29.9039   -5.4302 O   0  0  0  0  0  0  0  0  0  0  0  0
   -2.5607  -31.4035   -5.1483 O   0  0  0  0  0  0  0  0  0  0  0  0
   -2.4281  -29.9086  -10.2301 C   0  0  0  0  0  0  0  0  0  0  0  0
   -3.1059  -30.1828  -16.9992 N   0  0  0  0  0  0  0  0  0  0  0  0
    0.3592  -31.0394  -17.7696 C   0  0  0  0  0  0  0  0  0  0  0  0
   -1.8066  -29.8745  -12.0895 C   0  0  0  0  0  0  0  0  0  0  0  0
   -2.7459  -29.4566  -12.3789 C   0  0  0  0  0  0  0  0  0  0  0  0
   -3.7546  -30.1131   -7.9916 C   0  0  0  0  0  0  0  0  0  0  0  0
   -3.6732  -29.3121  -13.3886 N   0  0  0  0  0  0  0  0  0  0  0  0
   -0.9996  -30.8008  -18.1517 C   0  0  0  0  0  0  0  0  0  0  0  0
  4  1  2  0
  5  3  1  0
  5  4  1  0
  7  6  1  0
  8  7  1  0
  9  3  1  0
  9  5  1  0
 10  5  1  0
 11  9  1  0
 13 12  2  0
 14 12  1  0
 15  6  2  0
 16 10  1  0
 17  1  1  0
 18  3  1  0
 18 15  1  0
 19  8  1  0
 19 18  2  0
 20  2  1  0
 20  6  1  0
 20 12  1  0
 21  8  1  0
 21  9  1  0
 21 19  1  0
 22 10  1  0
 22 17  2  0
M  RAD  1  10   2
M  END
>  <ID>  (1) 
conformer_0

$$$$
