
     RDKit          3D

 21 21  0  0  0  0  0  0  0  0999 V2000
   -0.9443  -30.3312  -17.9609 C   0  0  0  0  0  0  0  0  0  0  0  0
   -3.4962  -29.5159   -8.6346 C   0  0  0  0  0  0  0  0  0  0  0  0
    0.2835  -30.7225  -17.7862 C   0  0  0  0  0  0  0  0  0  0  0  0
   -1.4764  -29.9938  -11.8867 C   0  0  0  0  0  0  0  0  0  0  0  0
   -4.5568  -28.9156   -9.9979 C   0  0  0  0  0  0  0  0  0  0  0  0
   -3.9320  -29.0806  -10.9849 C   0  0  0  0  0  0  0  0  0  0  0  0
   -2.3501  -29.8712   -8.1305 C   0  0  1  0  0  0  0  0  0  0  0  0
   -0.3901  -31.0177  -15.5657 C   0  0  0  0  0  0  0  0  0  0  0  0
   -3.1778  -29.7606  -14.6894 C   0  0  0  0  0  0  0  0  0  0  0  0
   -4.2953  -29.5182  -14.9451 O   0  0  0  0  0  0  0  0  0  0  0  0
   -5.0501  -29.9900   -6.3601 O   0  0  0  0  0  0  0  0  0  0  0  0
   -3.7202  -30.4323   -6.6148 C   0  0  0  0  0  0  0  0  0  0  0  0
   -3.6331  -29.1658  -12.0376 N   0  0  0  0  0  0  0  0  0  0  0  0
   -3.3966  -30.1969  -16.7219 N   0  0  0  0  0  0  0  0  0  0  0  0
   -2.1438  -30.5799  -16.9989 C   0  0  0  0  0  0  0  0  0  0  0  0
   -1.5563  -30.4452  -15.7719 C   0  0  0  0  0  0  0  0  0  0  0  0
   -2.1414  -29.6124   -9.9142 C   0  0  0  0  0  0  0  0  0  0  0  0
   -3.1754  -30.7800   -5.6785 O   0  0  0  0  0  0  0  0  0  0  0  0
   -2.5121  -29.5528  -12.2592 C   0  0  0  0  0  0  0  0  0  0  0  0
   -1.6220  -30.0139  -13.8374 C   0  0  2  0  0  0  0  0  0  0  0  0
    0.4717  -31.4511  -16.5688 C   0  0  0  0  0  0  0  0  0  0  0  0
  3  1  2  0
  5  2  1  0
  6  5  1  0
  7  2  1  0
 10  9  1  0
 12  7  1  0
 12 11  2  0
 13  6  1  0
 15  1  1  0
 15 14  1  0
 16  8  1  0
 16 15  2  0
  7 17  1  6
 18 12  1  0
 19  4  2  3
 19 13  1  0
 20  9  1  6
 20 16  1  0
 20 19  1  0
 21  3  1  0
 21  8  2  0
M  END
>  <ID>  (1) 
conformer_0

$$$$
