
     RDKit          3D

 22 23  0  0  0  0  0  0  0  0999 V2000
   -1.8244  -30.1369   -7.9370 C   0  0  0  0  0  0  0  0  0  0  0  0
   -1.4870  -29.9600  -12.7315 C   0  0  0  0  0  0  0  0  0  0  0  0
   -0.3154  -30.6997  -15.4580 C   0  0  0  0  0  0  0  0  0  0  0  0
    0.5753  -31.1049  -16.4262 C   0  0  0  0  0  0  0  0  0  0  0  0
   -4.4332  -29.0985   -9.8079 C   0  0  0  0  0  0  0  0  0  0  0  0
   -3.7484  -30.2197   -6.6975 C   0  0  0  0  0  0  0  0  0  0  0  0
   -2.8434  -29.5059  -12.1962 C   0  0  0  0  0  0  0  0  0  0  0  0
   -2.4861  -29.9396  -10.9838 C   0  0  1  0  0  0  0  0  0  0  0  0
   -3.9398  -29.0160  -12.2359 N   0  0  0  0  0  0  0  0  0  0  0  0
    0.0438  -31.1318  -17.7314 C   0  0  0  0  0  0  0  0  0  0  0  0
   -2.1233  -30.7147  -16.8979 C   0  0  0  0  0  0  0  0  0  0  0  0
   -4.1438  -29.4848  -14.8066 O   0  0  0  0  0  0  0  0  0  0  0  0
   -4.8177  -29.4850   -6.2339 O   0  0  0  0  0  0  0  0  0  0  0  0
   -2.8798  -30.5622   -5.3824 O   0  0  0  0  0  0  0  0  0  0  0  0
   -3.3445  -29.6698  -14.7530 C   0  0  0  0  0  0  0  0  0  0  0  0
   -3.3022  -30.5213  -16.8102 N   0  0  0  0  0  0  0  0  0  0  0  0
   -1.9579  -29.8436  -14.1003 C   0  0  0  0  0  0  0  0  0  0  0  0
   -1.5071  -30.3806  -15.6372 C   0  0  0  0  0  0  0  0  0  0  0  0
   -1.7894  -30.1118   -9.6784 C   0  0  0  0  0  0  0  0  0  0  0  0
   -3.6101  -29.6590   -8.6327 C   0  0  0  0  0  0  0  0  0  0  0  0
   -4.1365  -29.0665  -10.7473 C   0  0  1  0  0  0  0  0  0  0  0  0
   -1.2773  -31.0668  -18.0870 C   0  0  0  0  0  0  0  0  0  0  0  0
  4  3  2  0
  7  2  1  0
  8  7  1  0
  9  7  1  0
 10  4  1  0
 13  6  2  0
 14  6  1  0
 15 12  2  0
 16 11  1  0
 17  2  1  0
 17 15  2  0
 18  3  1  0
 18 11  2  0
 18 17  1  0
 19  1  1  0
  8 19  1  1
 20  5  2  3
 20  6  1  0
 21  5  1  0
 21  8  1  0
 21  9  1  6
 22 10  2  0
 22 11  1  0
M  END
>  <ID>  (1) 
conformer_0

$$$$
