
     RDKit          3D

 24 31  0  0  0  0  0  0  0  0999 V2000
   -4.7023  -29.0539   -9.8672 C   0  0  0  0  0  0  0  0  0  0  0  0
    0.5900  -31.2655  -16.6812 C   0  0  0  0  0  0  0  0  0  0  0  0
   -0.1160  -30.8437  -15.6355 C   0  0  0  0  0  0  0  0  0  0  0  0
   -3.7026  -29.1637   -8.8201 C   0  0  0  0  0  0  0  0  0  0  0  0
   -1.9908  -30.0016   -9.2231 C   0  0  0  0  0  0  0  0  0  0  0  0
   -2.3799  -29.9670  -10.7853 C   0  0  0  0  0  0  0  0  0  0  0  0
   -4.7811  -28.9355  -10.6176 C   0  0  0  0  0  0  0  0  0  0  0  0
   -3.1230  -29.7934  -15.2185 C   0  0  0  0  0  0  0  0  0  0  0  0
   -3.8641  -29.2137  -12.2490 N   0  0  0  0  0  0  0  0  0  0  0  0
   -2.0497  -30.7471  -16.8111 C   0  0  0  0  0  3  0  0  0  0  0  0
   -1.4621  -31.0526  -18.1824 C   0  0  0  0  0  0  0  0  0  0  0  0
   -2.9485  -30.4484   -5.3609 C   0  0  0  0  0  0  0  0  0  0  0  0
   -4.2167  -29.6567  -15.0836 O   0  0  0  0  0  0  0  0  0  0  0  0
   -4.4150  -29.9331   -6.0341 O   0  0  0  0  0  0  0  0  0  0  0  0
   -1.3914  -30.1156  -12.1714 C   0  0  0  0  0  0  0  0  0  0  0  0
   -3.1289  -30.2988  -16.6816 N   0  0  0  0  0  0  0  0  0  0  0  0
   -1.4226  -30.5031  -15.5350 C   0  0  0  0  0  0  0  0  0  0  0  0
   -2.7295  -29.5367  -13.1957 C   0  0  0  0  0  0  0  0  0  0  0  0
   -2.8210  -30.1062   -7.9080 C   0  0  0  0  0  0  0  0  0  0  0  0
   -1.8587  -29.9368  -14.0079 C   0  0  0  0  0  0  0  0  0  0  0  0
   -3.9583  -29.9422   -7.1084 C   0  0  0  0  0  0  0  0  0  0  0  0
   -0.0181  -31.1719  -17.9897 C   0  0  0  0  0  0  0  0  0  0  0  0
   -1.9649  -30.6739   -6.4586 C   0  0  0  0  0  0  0  0  0  0  0  0
   -2.9218  -29.5535  -11.1811 C   0  0  0  0  0  0  0  0  0  0  0  0
  3  2  2  0
  4  1  1  0
  5  4  1  0
  6  5  1  0
  7  1  1  0
  9  7  1  0
 11 10  1  0
 13  8  1  0
 14 12  1  0
 15  6  1  0
 16  8  1  0
 16 10  1  0
 17  3  1  0
 17  8  1  0
 17 10  1  0
 18  9  1  0
 18 15  1  0
 19  4  1  0
 19  5  1  0
 20  8  1  0
 20 17  1  0
 20 18  1  0
 21  4  1  0
 21 14  1  0
 21 19  1  0
 22  2  1  0
 22 11  2  0
 23 12  2  0
 23 19  1  0
 24  6  1  0
 24  9  1  0
M  RAD  1  10   2
M  END
>  <ID>  (1) 
conformer_0

$$$$
