
     RDKit          3D

 23 27  0  0  0  0  0  0  0  0999 V2000
   -0.9818  -30.7407  -18.1558 C   0  0  0  0  0  0  0  0  0  0  0  0
    0.4478  -31.2888  -16.5218 C   0  0  0  0  0  0  0  0  0  0  0  0
   -2.0656  -29.8813  -11.2553 C   0  0  0  0  0  0  0  0  0  0  0  0
   -1.2320  -30.0393  -12.8267 C   0  0  0  0  0  0  0  0  0  0  0  0
   -2.0716  -29.9647   -9.6373 C   0  0  0  0  0  0  0  0  0  0  0  0
   -3.8326  -29.1991  -11.0614 C   0  0  0  0  0  0  0  0  0  0  0  0
   -4.5838  -28.9636  -10.0951 C   0  0  0  0  0  0  0  0  0  0  0  0
   -0.3673  -30.7469  -15.6098 C   0  0  0  0  0  0  0  0  0  0  0  0
   -3.8448  -29.3503  -12.5155 N   0  0  0  0  0  0  0  0  0  0  0  0
   -3.1154  -29.7410  -14.8062 C   0  0  0  0  0  0  0  0  0  0  0  0
   -5.0517  -30.0170   -6.0148 O   0  0  0  0  0  0  0  0  0  0  0  0
   -4.0907  -29.4118  -15.1714 O   0  0  0  0  0  0  0  0  0  0  0  0
   -3.8848  -30.3855   -6.1598 C   0  0  0  0  0  0  0  0  0  0  0  0
   -2.0960  -30.5649  -17.1815 C   0  0  0  0  0  0  0  0  0  0  0  0
   -1.9160  -29.9023  -14.2008 C   0  0  0  0  0  0  0  0  0  0  0  0
   -3.4482  -30.6649   -4.8419 O   0  0  0  0  0  0  0  0  0  0  0  0
   -1.6526  -30.3573  -15.8016 C   0  0  0  0  0  0  0  0  0  0  0  0
   -3.4218  -29.4756   -9.0902 C   0  0  0  0  0  0  0  0  0  0  0  0
   -3.3753  -30.2404  -16.7542 N   0  0  0  0  0  0  0  0  0  0  0  0
   -3.7276  -30.0855   -7.9096 C   0  0  0  0  0  0  0  0  0  0  0  0
   -2.5340  -29.6887  -12.4516 C   0  0  0  0  0  0  0  0  0  0  0  0
   -2.6260  -30.5407   -6.3783 C   0  0  0  0  0  0  0  0  0  0  0  0
    0.3395  -30.6944  -17.7758 C   0  0  0  0  0  0  0  0  0  0  0  0
  4  3  1  0
  5  3  1  0
  6  3  1  0
  7  6  2  0
  8  2  1  0
  9  6  1  0
 12 10  1  0
 13 11  1  0
 14  1  2  0
 15  4  1  0
 15 10  1  0
 16 13  1  0
 17  8  2  0
 17 14  1  0
 17 15  1  0
 18  5  1  0
 18  7  1  0
 19 14  1  0
 20 13  1  0
 20 18  1  0
 21  3  1  0
 21  4  1  0
 21  9  1  0
 21 15  1  0
 22 13  1  0
 23  1  1  0
 23  2  2  0
M  END
>  <ID>  (1) 
conformer_0

$$$$
