
     RDKit          3D

 22 23  0  0  0  0  0  0  0  0999 V2000
   -2.3711  -29.8656  -11.4330 C   0  0  2  0  0  0  0  0  0  0  0  0
    0.6658  -31.2863  -16.6674 C   0  0  0  0  0  0  0  0  0  0  0  0
   -1.7049  -29.8992  -13.7784 C   0  0  0  0  0  0  0  0  0  0  0  0
   -0.0037  -30.8619  -17.8771 C   0  0  0  0  0  0  0  0  0  0  0  0
   -1.0414  -30.0804  -12.5152 C   0  0  0  0  0  0  0  0  0  0  0  0
   -4.0099  -29.1604  -10.4963 C   0  0  0  0  0  0  0  0  0  0  0  0
   -2.0708  -30.6688  -16.5237 C   0  0  0  0  0  0  0  0  0  0  0  0
   -1.3129  -30.9071  -17.9490 C   0  0  0  0  0  0  0  0  0  0  0  0
   -4.2293  -29.6724  -14.8758 O   0  0  0  0  0  0  0  0  0  0  0  0
   -4.4065  -29.5789   -5.5006 O   0  0  0  0  0  0  0  0  0  0  0  0
   -3.8499  -29.1173  -12.2152 N   0  0  0  0  0  0  0  0  0  0  0  0
   -3.5833  -30.2734   -6.1895 C   0  0  0  0  0  0  0  0  0  0  0  0
   -3.1965  -29.8383  -14.5907 C   0  0  0  0  0  0  0  0  0  0  0  0
   -2.7853  -30.3382   -7.4482 C   0  0  0  0  0  0  0  0  0  0  0  0
   -3.2257  -30.6098  -16.6528 N   0  0  0  0  0  0  0  0  0  0  0  0
   -2.8550  -31.0278   -5.3174 O   0  0  0  0  0  0  0  0  0  0  0  0
   -4.3330  -29.0935   -9.1842 C   0  0  0  0  0  0  0  0  0  0  0  0
   -0.0626  -30.9533  -15.6013 C   0  0  0  0  0  0  0  0  0  0  0  0
   -1.2429  -30.4750  -15.3896 C   0  0  0  0  0  0  0  0  0  0  0  0
   -2.8694  -30.0204   -8.7412 C   0  0  0  0  0  0  0  0  0  0  0  0
   -2.9329  -29.4201  -12.1437 C   0  0  0  0  0  0  0  0  0  0  0  0
   -1.8530  -30.2489  -10.1296 C   0  0  0  0  0  0  0  0  0  0  0  0
  4  2  2  0
  1  5  1  6
  5  3  1  0
  8  4  1  0
  8  7  2  0
 11  6  1  0
 12 10  2  0
 13  3  2  0
 13  9  2  0
 14 12  1  0
 15  7  1  0
 16 12  1  0
 17  6  1  0
 18  2  1  0
 19  3  1  0
 19  7  1  0
 19 18  2  0
 20 14  2  3
 20 17  1  0
 21  1  1  0
 21 11  1  0
 22  1  1  0
 22 20  1  0
M  END
>  <ID>  (1) 
conformer_0

$$$$
