
     RDKit          3D

 19 20  0  0  0  0  0  0  0  0999 V2000
   -1.6694  -30.2985  -10.4219 C   0  0  0  0  0  0  0  0  0  0  0  0
   -3.6440  -30.1438   -8.0971 C   0  0  0  0  0  0  0  0  0  0  0  0
   -1.4350  -30.4172  -15.4946 C   0  0  0  0  0  0  0  0  0  0  0  0
   -1.6181  -30.0136  -12.0283 C   0  0  0  0  0  0  0  0  0  0  0  0
   -0.2650  -30.6750  -15.8692 C   0  0  0  0  0  0  0  0  0  0  0  0
   -3.8535  -29.2968  -12.8411 N   0  0  0  0  0  0  0  0  0  0  0  0
   -3.1836  -29.4107  -11.6011 C   0  0  0  0  0  0  0  0  0  0  0  0
   -2.9123  -29.8567   -9.4161 C   0  0  0  0  0  0  0  0  0  0  0  0
   -2.3403  -30.7083  -16.8158 C   0  0  0  0  0  0  0  0  0  0  0  0
   -3.0959  -29.6200  -14.1880 C   0  0  0  0  0  0  0  0  0  0  0  0
   -3.4433  -30.5300   -6.4449 C   0  0  0  0  0  0  0  0  0  0  0  0
   -1.2354  -31.1125  -18.0077 C   0  0  0  0  0  0  0  0  0  0  0  0
   -3.9279  -30.3577   -5.8356 O   0  0  0  0  0  0  0  0  0  0  0  0
   -3.4067  -30.1813  -16.4108 N   0  0  0  0  0  0  0  0  0  0  0  0
   -2.3655  -31.0818   -5.8294 O   0  0  0  0  0  0  0  0  0  0  0  0
   -1.8338  -29.7427  -13.8823 C   0  0  0  0  0  0  0  0  0  0  0  0
   -4.3061  -29.1027  -10.0014 C   0  0  0  0  0  0  0  0  0  0  0  0
   -4.1710  -29.6649  -14.8133 O   0  0  0  0  0  0  0  0  0  0  0  0
   -0.0184  -31.1022  -17.2413 C   0  0  0  0  0  0  0  0  0  0  0  0
  4  1  1  0
  5  3  2  0
  7  4  1  0
  7  6  1  0
  8  1  1  0
  8  2  1  0
  9  3  1  0
 10  6  1  0
 11  2  1  0
 12  9  1  0
 13 11  2  0
 14  9  1  0
 15 11  1  0
 16  3  1  0
 16  4  1  0
 16 10  1  0
 17  8  1  0
 18 10  2  0
 19  5  1  0
 19 12  2  0
M  END
>  <ID>  (1) 
conformer_0

$$$$
