
     RDKit          3D

 22 26  0  0  0  0  0  0  0  0999 V2000
   -1.4317  -30.3795  -15.5210 C   0  0  0  0  0  0  0  0  0  0  0  0
   -1.8256  -30.4200   -9.3213 C   0  0  0  0  0  0  0  0  0  0  0  0
   -0.2383  -30.8208  -15.5138 C   0  0  0  0  0  0  0  0  0  0  0  0
   -1.0889  -30.0502  -13.6832 C   0  0  0  0  0  0  0  0  0  0  0  0
   -3.9622  -28.9026   -9.6088 C   0  0  0  0  0  0  0  0  0  0  0  0
   -2.8189  -29.5352  -12.3184 C   0  0  0  0  0  0  0  0  0  0  0  0
    0.0175  -30.8447  -17.7863 C   0  0  0  0  0  0  0  0  0  0  0  0
   -4.7346  -30.2303   -6.2953 O   0  0  0  0  0  0  0  0  0  0  0  0
   -2.6157  -30.9506   -5.6856 O   0  0  0  0  0  0  0  0  0  0  0  0
   -2.2638  -29.8193  -10.8039 C   0  0  0  0  0  0  0  0  0  0  0  0
   -3.1963  -29.5810  -14.8048 C   0  0  0  0  0  0  0  0  0  0  0  0
   -4.2706  -29.6600  -15.0973 O   0  0  0  0  0  0  0  0  0  0  0  0
   -2.1472  -30.4691  -16.7409 C   0  0  0  0  0  0  0  0  0  0  0  0
   -3.5684  -30.5360   -6.7466 C   0  0  0  0  0  0  0  0  0  0  0  0
   -3.1533  -29.9811  -16.6476 N   0  0  0  0  0  0  0  0  0  0  0  0
   -3.9176  -29.5148  -11.9578 N   0  0  0  0  0  0  0  0  0  0  0  0
   -1.2932  -30.6907  -17.9885 C   0  0  0  0  0  0  0  0  0  0  0  0
   -2.2495  -30.4691   -7.9829 C   0  0  0  0  0  0  0  0  0  0  0  0
   -3.6975  -29.5329   -8.2945 C   0  0  0  0  0  0  0  0  0  0  0  0
   -3.7481  -29.3213  -10.5552 C   0  0  0  0  0  0  0  0  0  0  0  0
   -2.4924  -29.5623  -13.3164 C   0  0  0  0  0  0  0  0  0  0  0  0
    0.4581  -31.3357  -16.5391 C   0  0  0  0  0  0  0  0  0  0  0  0
  3  1  2  0
  4  1  1  0
 10  2  1  0
 10  6  1  0
 12 11  2  0
 13  1  1  0
 14  8  1  0
 14  9  1  0
 15 11  1  0
 15 13  1  0
 16  6  1  0
 17  7  1  0
 17 13  2  0
 18  2  1  0
 18 14  1  0
 19  5  1  0
 19 14  1  0
 19 18  1  0
 20  5  1  0
 20 10  1  0
 20 16  1  0
 21  4  2  0
 21  6  1  0
 21 11  1  0
 22  3  1  0
 22  7  2  0
M  END
>  <ID>  (1) 
conformer_0

$$$$
