
     RDKit          3D

 20 20  0  0  0  0  0  0  0  0999 V2000
   -0.0780  -30.8326  -15.7717 C   0  0  0  0  0  0  0  0  0  0  0  0
   -2.3329  -30.5230   -7.7202 C   0  0  0  0  0  0  0  0  0  0  0  0
   -0.0797  -30.9086  -18.1314 C   0  0  0  0  0  0  0  0  0  0  0  0
   -4.6529  -28.7652   -9.9987 C   0  0  0  0  0  0  0  0  0  0  0  0
   -3.5074  -29.3425   -8.6433 C   0  0  2  0  0  0  0  0  0  0  0  0
   -2.2246  -29.7928  -12.2713 C   0  0  0  0  0  0  0  0  0  0  0  0
   -2.6369  -29.8146   -9.5762 C   0  0  0  0  0  0  0  0  0  0  0  0
   -1.3628  -30.5819  -15.6418 C   0  0  0  0  0  0  0  0  0  0  0  0
   -2.9728  -29.9354  -14.5190 C   0  0  0  0  0  0  0  0  0  0  0  0
   -3.5197  -29.3974  -12.4486 N   0  0  0  0  0  0  0  0  0  0  0  0
   -4.4078  -30.3094   -6.0583 O   0  0  0  0  0  0  0  0  0  0  0  0
   -2.0638  -30.7415  -16.8119 C   0  0  0  0  0  0  0  0  0  0  0  0
   -4.2372  -30.1388  -14.6350 O   0  0  0  0  0  0  0  0  0  0  0  0
   -3.4607  -30.6140   -6.6012 C   0  0  0  0  0  0  0  0  0  0  0  0
   -3.2743  -30.1407  -16.3456 N   0  0  0  0  0  0  0  0  0  0  0  0
   -1.5929  -30.0527  -11.2815 C   0  0  0  0  0  0  0  0  0  0  0  0
    0.6503  -31.0395  -16.8963 C   0  0  0  0  0  0  0  0  0  0  0  0
   -1.5601  -30.9883  -18.0427 C   0  0  0  0  0  0  0  0  0  0  0  0
   -1.5832  -29.9791  -13.6149 C   0  0  0  0  0  0  0  0  0  0  0  0
   -3.8073  -29.2097  -11.0915 C   0  0  0  0  0  0  0  0  0  0  0  0
  5  2  1  0
  5  4  1  0
  5  7  1  6
  8  1  2  0
 10  6  1  0
 12  8  1  0
 13  9  2  0
 14  2  1  0
 14 11  1  0
 15  9  1  0
 15 12  1  0
 16  6  2  3
 17  1  1  0
 17  3  2  0
 18  3  1  0
 18 12  2  0
 19  6  1  0
 19  9  1  0
 20  4  1  0
 20 10  1  0
M  END
>  <ID>  (1) 
conformer_0

$$$$
