
     RDKit          3D

 20 21  0  0  0  0  0  0  0  0999 V2000
   -2.4211  -29.9943   -8.6112 C   0  0  0  0  0  0  0  0  0  0  0  0
   -0.8851  -31.1549  -17.9541 C   0  0  0  0  0  0  0  0  0  0  0  0
    0.2457  -31.2531  -16.9306 C   0  0  0  0  0  0  0  0  0  0  0  0
   -1.7172  -29.9323  -13.7313 C   0  0  1  0  0  0  0  0  0  0  0  0
   -2.7657  -29.5474   -9.9221 C   0  0  0  0  0  0  0  0  0  0  0  0
   -3.8554  -29.1508  -11.0300 C   0  0  2  0  0  0  0  0  0  0  0  0
   -3.3774  -30.3588   -6.3932 C   0  0  0  0  0  0  0  0  0  0  0  0
   -3.7607  -29.9501   -8.0865 C   0  0  0  0  0  0  0  0  0  0  0  0
   -3.9656  -29.3168  -14.9716 O   0  0  0  0  0  0  0  0  0  0  0  0
   -0.1493  -30.9020  -15.6737 C   0  0  0  0  0  0  0  0  0  0  0  0
   -2.1424  -30.6507  -16.9737 C   0  0  1  0  0  0  0  0  0  0  0  0
   -2.3939  -29.6159  -12.3410 C   0  0  0  0  0  0  0  0  0  0  0  0
   -2.7219  -30.7765   -5.2325 O   0  0  0  0  0  0  0  0  0  0  0  0
   -3.2397  -30.4909  -17.1218 N   0  0  0  0  0  0  0  0  0  0  0  0
   -3.2758  -29.4436  -12.3634 N   0  0  0  0  0  0  0  0  0  0  0  0
   -1.4453  -30.4645  -15.5186 C   0  0  0  0  0  0  0  0  0  0  0  0
   -4.6427  -28.9289   -9.7702 C   0  0  0  0  0  0  0  0  0  0  0  0
   -4.5483  -29.1711  -12.1097 N   0  0  0  0  0  0  0  0  0  0  0  0
   -1.5821  -30.0026  -11.6934 C   0  0  0  0  0  0  0  0  0  0  0  0
   -2.9962  -29.5964  -14.5908 C   0  0  0  0  0  0  0  0  0  0  0  0
  3  2  2  0
  5  1  1  0
  6  5  1  0
  8  1  1  0
  8  7  1  0
 10  3  1  0
 11  2  1  0
 12  4  1  0
 13  7  1  0
 11 14  1  1
 15  6  1  0
 15 12  1  0
 16  4  1  0
 16 10  2  0
 16 11  1  0
  6 17  1  1
 18  6  1  0
 18 15  1  0
 19 12  2  3
  4 20  1  6
 20  9  1  0
M  END
>  <ID>  (1) 
conformer_0

$$$$
