
     RDKit          3D

 22 26  0  0  0  0  0  0  0  0999 V2000
   -3.3710  -29.9577   -8.0043 C   0  0  0  0  0  3  0  0  0  0  0  0
   -1.3083  -31.1402  -18.1553 C   0  0  0  0  0  0  0  0  0  0  0  0
   -2.5797  -29.8638   -9.0017 C   0  0  0  0  0  0  0  0  0  0  0  0
    0.1018  -30.7804  -17.8730 C   0  0  0  0  0  0  0  0  0  0  0  0
   -1.2822  -30.5441  -10.8248 C   0  0  0  0  0  0  0  0  0  0  0  0
   -3.8067  -30.1920   -6.3744 C   0  0  0  0  0  0  0  0  0  0  0  0
   -1.1754  -30.0194  -12.4024 C   0  0  1  0  0  0  0  0  0  0  0  0
   -3.6418  -29.2681  -11.2325 C   0  0  0  0  0  0  0  0  0  0  0  0
   -3.0825  -29.7233  -14.9786 C   0  0  0  0  0  0  0  0  0  0  0  0
   -3.7008  -29.4539  -12.8878 N   0  0  0  0  0  0  0  0  0  0  0  0
   -2.1095  -30.6679  -16.9963 C   0  0  0  0  0  3  0  0  0  0  0  0
    0.4835  -31.3801  -16.6522 C   0  0  0  0  0  0  0  0  0  0  0  0
   -5.1479  -29.8858   -6.2623 O   0  0  0  0  0  0  0  0  0  0  0  0
   -4.1746  -29.4828  -15.2496 O   0  0  0  0  0  0  0  0  0  0  0  0
   -3.0456  -30.4131   -5.2524 O   0  0  0  0  0  0  0  0  0  0  0  0
   -1.6335  -29.8234  -14.1087 C   0  0  1  0  0  0  0  0  0  0  0  0
   -3.2011  -30.3563  -16.7556 N   0  0  0  0  0  0  0  0  0  0  0  0
   -0.2039  -30.6861  -15.6498 C   0  0  0  0  0  0  0  0  0  0  0  0
   -2.6909  -29.7368  -10.7074 C   0  0  0  0  0  0  0  0  0  0  0  0
   -4.1981  -28.9690   -9.8169 C   0  0  0  0  0  0  0  0  0  0  0  0
   -2.6219  -29.7109  -12.8427 C   0  0  1  0  0  0  0  0  0  0  0  0
   -1.4599  -30.4059  -15.7041 C   0  0  0  0  0  0  0  0  0  0  0  0
  3  1  2  3
  4  2  2  0
  6  1  1  0
  7  5  1  6
 10  8  1  0
 11  2  1  0
 12  4  1  0
 13  6  2  0
 14  9  1  0
 15  6  1  0
 16  7  1  0
 16  9  1  1
 17  9  1  0
 17 11  1  0
 18 12  2  0
 19  3  1  0
 19  5  1  0
 19  8  2  0
 20  8  1  0
 21  7  1  0
 21 10  1  1
 21 16  1  0
 22  9  1  0
 22 11  1  0
 22 16  1  0
 22 18  1  0
M  RAD  2   1   2  11   2
M  END
>  <ID>  (1) 
conformer_0

$$$$
