
     RDKit          3D

 23 27  0  0  0  0  0  0  0  0999 V2000
    0.1673  -30.6330  -18.1025 C   0  0  0  0  0  0  0  0  0  0  0  0
   -2.1737  -30.3463   -9.0170 C   0  0  0  0  0  0  0  0  0  0  0  0
   -0.0633  -31.0472  -15.8573 C   0  0  0  0  0  0  0  0  0  0  0  0
   -1.5968  -30.2972  -10.7129 C   0  0  0  0  0  0  0  0  0  0  0  0
   -2.0844  -29.7093  -12.0004 C   0  0  0  0  0  0  0  0  0  0  0  0
   -4.0507  -28.9719  -12.0972 N   0  0  0  0  0  0  0  0  0  0  0  0
   -1.2536  -30.5007  -15.8398 C   0  0  0  0  0  0  0  0  0  0  0  0
   -3.2498  -29.5050   -9.5617 C   0  0  0  0  0  0  0  0  0  0  0  0
   -2.6593  -29.4856  -12.8777 C   0  0  0  0  0  0  0  0  0  0  0  0
   -3.9884  -29.5990  -15.0434 O   0  0  0  0  0  0  0  0  0  0  0  0
   -2.8776  -29.8280  -15.0853 C   0  0  0  0  0  0  0  0  0  0  0  0
   -4.7866  -29.6792   -6.0759 O   0  0  0  0  0  0  0  0  0  0  0  0
   -3.7096  -30.4026   -6.6701 C   0  0  0  0  0  0  0  0  0  0  0  0
   -3.2083  -31.0677   -5.2898 O   0  0  0  0  0  0  0  0  0  0  0  0
   -3.2590  -30.2869  -16.6908 N   0  0  0  0  0  0  0  0  0  0  0  0
   -2.1020  -30.5160  -16.8539 C   0  0  0  0  0  0  0  0  0  0  0  0
   -1.2757  -30.5993  -18.1570 C   0  0  0  0  0  0  0  0  0  0  0  0
   -1.8300  -30.0084  -13.9834 C   0  0  0  0  0  0  0  0  0  0  0  0
   -4.9654  -28.8320   -9.8432 C   0  0  0  0  0  0  0  0  0  0  0  0
   -4.8941  -28.6412  -10.7723 C   0  0  0  0  0  0  0  0  0  0  0  0
    0.6654  -31.1778  -16.9579 C   0  0  0  0  0  0  0  0  0  0  0  0
   -2.8572  -30.3117   -7.2095 C   0  0  0  0  0  0  0  0  0  0  0  0
   -3.0663  -29.6360  -10.5439 C   0  0  0  0  0  0  0  0  0  0  0  0
  4  2  1  0
  5  4  1  0
  7  3  1  0
  8  2  1  0
  9  5  1  0
  9  6  2  0
 11  7  1  0
 11 10  1  0
 13 12  1  0
 14 13  1  0
 15 11  1  0
 16  7  2  0
 16 15  1  0
 17  1  2  0
 17 16  1  0
 18  9  1  0
 18 11  1  0
 19  8  1  0
 20  6  1  0
 20 19  1  0
 21  1  1  0
 21  3  2  0
 22  2  1  0
 22 13  1  0
 23  4  1  0
 23  5  1  0
 23  8  1  0
M  END
>  <ID>  (1) 
conformer_0

$$$$
