
     RDKit          3D

 22 25  0  0  0  0  0  0  0  0999 V2000
   -3.6482  -30.1176   -7.6021 C   0  0  0  0  0  0  0  0  0  0  0  0
    0.0767  -30.9955  -15.9732 C   0  0  0  0  0  0  0  0  0  0  0  0
   -2.7642  -29.8423   -8.7872 C   0  0  0  0  0  0  0  0  0  0  0  0
   -1.1962  -30.6571  -15.6387 C   0  0  0  0  0  0  0  0  0  0  0  0
   -4.6484  -28.7268   -9.4028 C   0  0  0  0  0  0  0  0  0  0  0  0
   -3.5065  -29.2108  -11.8737 N   0  0  0  0  0  0  0  0  0  0  0  0
   -3.4378  -29.3117  -10.9982 C   0  0  0  0  0  0  0  0  0  0  0  0
   -2.0072  -30.9141  -17.0839 C   0  0  0  0  0  0  0  0  0  0  0  0
   -4.0313  -30.1618   -6.3272 C   0  0  0  0  0  0  0  0  0  0  0  0
   -0.6524  -30.1904  -12.4432 C   0  0  0  0  0  0  0  0  0  0  0  0
   -4.4023  -29.5507  -14.8820 O   0  0  0  0  0  0  0  0  0  0  0  0
   -3.0232  -29.8828  -14.8651 C   0  0  0  0  0  0  0  0  0  0  0  0
   -3.1734  -30.7534  -16.9058 N   0  0  0  0  0  0  0  0  0  0  0  0
   -3.2660  -30.8505   -5.1112 O   0  0  0  0  0  0  0  0  0  0  0  0
   -0.8196  -31.0765  -18.1115 C   0  0  0  0  0  0  0  0  0  0  0  0
   -1.5108  -30.2688  -11.0064 C   0  0  0  0  0  0  0  0  0  0  0  0
   -5.1493  -29.4956   -5.9620 O   0  0  0  0  0  1  0  0  0  0  0  0
   -2.0765  -29.6726  -12.7573 C   0  0  0  0  0  0  0  0  0  0  0  0
   -1.4916  -30.0925  -14.1056 C   0  0  0  0  0  0  0  0  0  0  0  0
    0.4054  -31.1110  -17.2672 C   0  0  0  0  0  0  0  0  0  0  0  0
   -3.2316  -29.5687  -13.7322 N   0  0  0  0  0  0  0  0  0  0  0  0
   -3.1085  -29.5285  -10.1818 C   0  0  0  0  0  0  0  0  0  0  0  0
  3  1  2  0
  4  2  2  0
  7  6  1  0
  8  4  1  0
  9  1  2  0
 12 11  1  0
 13  8  1  0
 14  9  1  0
 15  8  2  0
 16 10  1  0
 17  9  1  0
 18  6  1  0
 18 10  1  0
 19  4  1  0
 19 10  1  0
 19 12  1  0
 19 18  1  0
 20  2  1  0
 20 15  1  0
 21 11  1  0
 21 12  1  0
 21 18  1  0
 22  3  1  0
 22  5  1  0
 22  7  1  0
M  RAD  1  17   2
M  END
>  <ID>  (1) 
conformer_0

$$$$
