
     RDKit          3D

 23 26  0  0  0  0  0  0  0  0999 V2000
   -1.6157  -31.1958  -18.1606 C   0  0  0  0  0  0  0  0  0  0  0  0
   -3.6812  -29.4333   -8.8918 C   0  0  0  0  0  0  0  0  0  0  0  0
   -1.1963  -29.9829  -12.9476 C   0  0  0  0  0  0  0  0  0  0  0  0
   -2.8019  -29.7932  -10.7428 C   0  0  0  0  0  0  0  0  0  0  0  0
   -0.2955  -30.7275  -18.2699 C   0  0  0  0  0  0  0  0  0  0  0  0
   -4.8523  -28.8867  -10.0171 C   0  0  0  0  0  0  0  0  0  0  0  0
   -3.8374  -29.2766  -10.8368 C   0  0  0  0  0  0  0  0  0  0  0  0
   -3.5404  -30.3100   -6.8157 C   0  0  0  0  0  0  0  0  0  0  0  0
   -2.1910  -30.5657  -16.8609 C   0  0  0  0  0  0  0  0  0  0  0  0
   -2.6989  -30.9796   -5.6141 O   0  0  0  0  0  0  0  0  0  0  0  0
   -1.3941  -30.3316  -15.7121 C   0  0  0  0  0  0  0  0  0  0  0  0
   -3.1587  -29.7237  -14.7945 C   0  0  0  0  0  0  0  0  0  0  0  0
   -4.4301  -29.4956  -14.6199 O   0  0  0  0  0  0  0  0  0  0  0  0
   -3.6000  -29.3281  -12.4224 N   0  0  0  0  0  0  0  0  0  0  0  0
   -4.6370  -29.6128   -6.2492 O   0  0  0  0  0  0  0  0  0  0  0  0
   -3.3333  -30.3084  -16.5583 N   0  0  0  0  0  0  0  0  0  0  0  0
   -1.8495  -29.8951  -14.1933 C   0  0  0  0  0  0  0  0  0  0  0  0
   -0.9406  -30.3509  -11.6373 C   0  0  0  0  0  0  0  0  0  0  0  0
    0.4454  -30.9201  -17.1501 C   0  0  0  0  0  0  0  0  0  0  0  0
   -0.1628  -30.6811  -15.9078 C   0  0  0  0  0  0  0  0  0  0  0  0
   -2.7237  -29.6229  -12.5475 C   0  0  0  0  0  0  0  0  0  0  0  0
   -2.5389  -29.9607   -7.9847 C   0  0  0  0  0  0  0  0  0  0  0  0
   -1.7018  -29.9722   -9.7868 C   0  0  0  0  0  0  0  0  0  0  0  0
  5  1  2  0
  6  2  1  0
  7  4  1  0
  7  6  1  0
  9  1  1  0
 10  8  1  0
 11  9  2  0
 13 12  2  0
 14  7  1  0
 15  8  2  0
 16  9  1  0
 16 12  1  0
 17  3  1  0
 17 11  1  0
 17 12  1  0
 18  3  1  0
 19  5  1  0
 20 11  1  0
 20 19  2  0
 21  3  1  0
 21  4  1  0
 21 14  1  0
 21 17  1  0
 22  2  1  0
 22  8  1  0
 23  4  1  0
M  END
>  <ID>  (1) 
conformer_0

$$$$
