
     RDKit          3D

 19 20  0  0  0  0  0  0  0  0999 V2000
   -2.3982  -30.0602   -7.3409 C   0  0  0  0  0  0  0  0  0  0  0  0
    0.0127  -30.9115  -15.8083 C   0  0  0  0  0  0  0  0  0  0  0  0
   -2.2072  -29.9652  -10.0175 C   0  0  0  0  0  0  0  0  0  0  0  0
    0.3269  -31.0078  -17.1861 C   0  0  0  0  0  0  0  0  0  0  0  0
   -1.8067  -30.0033  -11.7088 C   0  0  0  0  0  0  0  0  0  0  0  0
   -3.1072  -29.5338   -8.6449 C   0  0  1  0  0  0  0  0  0  0  0  0
   -4.0652  -29.0887  -10.4776 C   0  0  0  0  0  0  0  0  0  0  0  0
   -3.2638  -29.7463  -14.5132 C   0  0  0  0  0  0  0  0  0  0  0  0
   -0.8374  -30.7671  -18.0057 C   0  0  0  0  0  0  0  0  0  0  0  0
   -4.0186  -29.2955  -12.4719 N   0  0  0  0  0  0  0  0  0  0  0  0
   -4.6595  -30.3661   -6.3194 O   0  0  0  0  0  0  0  0  0  0  0  0
   -2.0472  -30.5569  -16.9061 C   0  0  0  0  0  0  0  0  0  0  0  0
   -4.1736  -29.5025  -15.1442 O   0  0  0  0  0  0  0  0  0  0  0  0
   -4.6428  -28.8887   -9.6530 C   0  0  0  0  0  0  0  0  0  0  0  0
   -3.6142  -30.2068   -6.6861 C   0  0  0  0  0  0  0  0  0  0  0  0
   -3.2671  -30.3605  -16.6362 N   0  0  0  0  0  0  0  0  0  0  0  0
   -1.2426  -30.4779  -15.6048 C   0  0  0  0  0  0  0  0  0  0  0  0
   -1.8570  -29.9091  -13.6174 C   0  0  1  0  0  0  0  0  0  0  0  0
   -3.1266  -29.5112  -12.2681 C   0  0  0  0  0  0  0  0  0  0  0  0
  4  2  2  0
  5  3  1  0
  6  1  1  1
  6  3  1  0
  9  4  1  0
 12  9  2  0
 13  8  1  0
 14  6  1  0
 14  7  1  0
 15  1  1  0
 15 11  1  0
 16 12  1  0
 16 13  1  0
 17  2  1  0
 17 12  1  0
 18  5  1  0
 18  8  1  6
 19  5  1  0
 19 10  2  3
 19 18  1  0
M  END
>  <ID>  (1) 
conformer_0

$$$$
