
     RDKit          3D

 22 24  0  0  0  0  0  0  0  0999 V2000
   -3.7448  -29.5600   -8.4405 C   0  0  0  0  0  0  0  0  0  0  0  0
   -1.5793  -30.6379  -15.5910 C   0  0  0  0  0  0  0  0  0  0  0  0
   -2.4549  -29.9123   -7.9543 C   0  0  0  0  0  0  0  0  0  0  0  0
   -0.2419  -30.7370  -15.5106 C   0  0  0  0  0  0  0  0  0  0  0  0
   -2.5838  -29.8208  -10.0548 C   0  0  0  0  0  0  0  0  0  0  0  0
   -4.0904  -29.1903  -10.5057 C   0  0  0  0  0  0  0  0  0  0  0  0
   -4.7913  -28.8827   -9.7249 C   0  0  0  0  0  0  0  0  0  0  0  0
   -2.0369  -30.7848  -16.9446 C   0  0  0  0  0  0  0  0  0  0  0  0
   -3.8432  -29.3398  -14.9567 O   0  0  0  0  0  0  0  0  0  0  0  0
   -4.8983  -29.5118   -6.1608 O   0  0  0  0  0  0  0  0  0  0  0  0
   -1.1949  -31.2696  -18.1266 C   0  0  0  0  0  0  0  0  0  0  0  0
   -3.8557  -29.3319  -12.2592 N   0  0  0  0  0  0  0  0  0  0  0  0
   -2.7244  -30.8608   -5.7257 O   0  0  0  0  0  0  0  0  0  0  0  0
   -3.5677  -30.1321   -6.6033 C   0  0  0  0  0  0  0  0  0  0  0  0
   -2.8379  -29.5552  -12.0285 C   0  0  0  0  0  0  0  0  0  0  0  0
   -3.1383  -30.5082  -16.9758 N   0  0  0  0  0  0  0  0  0  0  0  0
   -1.6873  -29.8310  -12.8171 C   0  0  0  0  0  0  0  0  0  0  0  0
    0.2660  -31.1283  -17.7187 C   0  0  0  0  0  0  0  0  0  0  0  0
   -1.9169  -29.9901  -14.0781 C   0  0  0  0  0  0  0  0  0  0  0  0
   -3.1272  -29.7343  -14.4699 C   0  0  0  0  0  0  0  0  0  0  0  0
   -1.5785  -30.1317  -11.2040 C   0  0  0  0  0  0  0  0  0  0  0  0
    0.5156  -31.4101  -16.3505 C   0  0  0  0  0  0  0  0  0  0  0  0
  3  1  1  0
  4  2  2  0
  6  5  2  0
  7  1  1  0
  7  6  1  0
  8  2  1  0
 11  8  2  0
 12  6  1  0
 14  3  1  0
 14 10  2  0
 14 13  1  0
 15 12  1  0
 16  8  1  0
 17 15  1  0
 18 11  1  0
 19  2  1  0
 19 17  1  0
 20  9  2  0
 20 19  2  0
 21  5  1  0
 21 15  1  0
 21 17  1  0
 22  4  1  0
 22 18  2  0
M  END
>  <ID>  (1) 
conformer_0

$$$$
