
     RDKit          3D

 22 22  0  0  0  0  0  0  0  0999 V2000
   -4.2773  -30.0659   -7.9665 C   0  0  0  0  0  0  0  0  0  0  0  0
    0.6356  -31.4535  -16.6185 C   0  0  0  0  0  0  0  0  0  0  0  0
   -4.1737  -29.3181   -9.8625 C   0  0  0  0  0  0  0  0  0  0  0  0
   -2.1708  -29.9955  -11.0656 C   0  0  0  0  0  0  0  0  0  0  0  0
   -3.0343  -29.7305  -14.4752 C   0  0  0  0  0  0  0  0  0  0  0  0
    0.0742  -31.1245  -15.3507 C   0  0  0  0  0  0  0  0  0  0  0  0
   -2.1055  -30.4466  -16.2093 C   0  0  0  0  0  0  0  0  0  0  0  0
   -0.9828  -30.1638  -12.2712 C   0  0  0  0  0  0  0  0  0  0  0  0
   -4.3182  -29.3527  -14.5619 O   0  0  0  0  0  0  0  0  0  0  0  0
   -3.7623  -30.4749   -6.3653 C   0  0  0  0  0  0  0  0  0  0  0  0
   -3.9075  -29.1417  -12.2205 N   0  0  0  0  0  0  0  0  0  0  0  0
   -2.6195  -29.7108  -12.4097 C   0  0  0  0  0  0  0  0  0  0  0  0
   -2.8385  -29.9488  -16.5639 N   0  0  0  0  0  0  0  0  0  0  0  0
   -2.1831  -29.8161   -9.7279 C   0  0  0  0  0  0  0  0  0  0  0  0
   -2.6362  -29.9496   -8.1776 C   0  0  0  0  0  0  0  0  0  0  0  0
   -1.1866  -30.5363  -15.4892 C   0  0  0  0  0  0  0  0  0  0  0  0
   -3.0940  -30.6966   -5.3977 O   0  0  0  0  0  0  0  0  0  0  0  0
   -4.2388  -30.3568   -5.3706 O   0  0  0  0  0  0  0  0  0  0  0  0
   -4.2301  -29.0636  -11.0132 C   0  0  0  0  0  0  0  0  0  0  0  0
   -1.2149  -30.0506  -13.9231 C   0  0  0  0  0  0  0  0  0  0  0  0
   -0.9907  -30.5580  -17.9341 C   0  0  0  0  0  0  0  0  0  0  0  0
   -0.3916  -31.0059  -17.6214 C   0  0  0  0  0  0  0  0  0  0  0  0
  6  2  1  0
  8  4  1  0
  9  5  2  0
 10  1  1  0
 12  4  1  0
 12  8  1  0
 12 11  1  0
 13  7  1  0
 14  4  1  0
 15  1  1  0
 15 14  1  0
 16  6  1  0
 16  7  1  0
 17 10  1  0
 18 10  2  0
 19  3  3  0
 19 11  1  0
 20  5  2  0
 20  8  1  0
 20 16  1  0
 22  2  2  0
 22 21  2  0
M  END
>  <ID>  (1) 
conformer_0

$$$$
