
     RDKit          3D

 19 21  0  0  0  0  0  0  0  0999 V2000
    0.1653  -31.0274  -16.0373 C   0  0  0  0  0  0  0  0  0  0  0  0
   -2.1632  -30.1561   -7.9117 C   0  0  0  0  0  0  0  0  0  0  0  0
   -1.6510  -29.9150   -9.6245 C   0  0  0  0  0  0  0  0  0  0  0  0
    0.3306  -31.0929  -17.4410 C   0  0  0  0  0  0  0  0  0  0  0  0
   -2.4735  -29.7070  -10.7666 C   0  0  0  0  0  0  0  0  0  0  0  0
   -3.5795  -29.3932   -8.6629 C   0  0  0  0  0  0  0  0  0  0  0  0
   -3.4030  -29.2955  -11.8477 C   0  0  0  0  0  0  0  0  0  0  0  0
   -3.5970  -30.3813   -6.6078 C   0  0  0  0  0  0  0  0  0  0  0  0
   -1.1162  -31.0502  -18.1187 C   0  0  0  0  0  0  0  0  0  0  0  0
   -2.0605  -30.7762  -16.9163 C   0  0  0  0  0  0  0  0  0  0  0  0
   -1.7160  -29.8677  -12.1780 C   0  0  0  0  0  0  0  0  0  0  0  0
   -4.3962  -29.6287  -15.0359 O   0  0  0  0  0  0  0  0  0  0  0  0
   -3.0823  -29.8524  -14.3580 C   0  0  0  0  0  0  0  0  0  0  0  0
   -3.2788  -30.5211  -16.5471 N   0  0  0  0  0  0  0  0  0  0  0  0
   -4.4560  -29.9911   -5.7757 O   0  0  0  0  0  0  0  0  0  0  0  0
   -3.6755  -29.5267  -13.1257 N   0  0  0  0  0  0  0  0  0  0  0  0
   -1.0978  -30.6584  -15.6298 C   0  0  0  0  0  0  0  0  0  0  0  0
   -1.8650  -29.8000  -13.8809 C   0  0  0  0  0  0  0  0  0  0  0  0
   -4.2276  -29.0199   -9.9284 C   0  0  0  0  0  0  0  0  0  0  0  0
  3  2  1  0
  4  1  2  0
  5  3  1  0
  6  2  1  0
  7  5  1  0
  8  2  1  0
  9  4  1  0
 10  9  2  0
 11  5  1  0
 11  7  1  0
 13 12  2  0
 14 10  1  0
 15  8  1  0
 16  7  1  0
 16 13  1  0
 17  1  1  0
 17 10  1  0
 18 11  1  0
 18 13  1  0
 18 17  1  0
 19  6  1  0
M  END
>  <ID>  (1) 
conformer_0

$$$$
