
     RDKit          3D

 17 17  0  0  0  0  0  0  0  0999 V2000
   -0.9123  -30.5695  -15.5573 C   0  0  0  0  0  0  0  0  0  0  0  0
   -1.6992  -30.1488  -10.7594 C   0  0  0  0  0  0  0  0  0  0  0  0
   -1.5578  -29.9483  -12.3492 C   0  0  0  0  0  0  0  0  0  0  0  0
   -3.0617  -30.0302   -7.7852 C   0  0  0  0  0  0  0  0  0  0  0  0
    0.0414  -30.9367  -16.5316 C   0  0  0  0  0  0  0  0  0  0  0  0
   -3.4380  -29.3784  -11.3626 C   0  0  0  0  0  0  0  0  0  0  0  0
   -2.3030  -29.9330   -9.1753 C   0  0  2  0  0  0  0  0  0  0  0  0
   -2.1343  -30.5347  -16.8265 C   0  0  0  0  0  0  0  0  0  0  0  0
   -4.3238  -29.5216  -14.7621 O   0  0  0  0  0  0  0  0  0  0  0  0
   -3.2812  -29.7078  -14.2881 C   0  0  0  0  0  0  0  0  0  0  0  0
   -0.4585  -30.7627  -17.8294 C   0  0  0  0  0  0  0  0  0  0  0  0
   -3.3197  -30.2681  -16.6835 N   0  0  0  0  0  0  0  0  0  0  0  0
   -3.8785  -29.2598  -12.1846 N   0  0  0  0  0  0  0  0  0  0  0  0
   -3.8352  -29.1934   -9.9082 C   0  0  0  0  0  0  0  0  0  0  0  0
   -3.3538  -30.3961   -6.1120 C   0  0  0  0  0  0  0  0  0  0  0  0
   -4.3420  -30.3775   -5.4859 O   0  0  0  0  0  0  0  0  0  0  0  0
   -1.8224  -29.8137  -13.7401 C   0  0  0  0  0  0  0  0  0  0  0  0
  3  2  3  0
  5  1  2  0
  7  2  1  6
  7  4  1  0
  8  1  1  0
 10  9  2  0
 11  5  1  0
 11  8  2  0
 12  8  1  0
 13  6  2  3
 14  6  1  0
 14  7  1  0
 15  4  1  0
 16 15  2  0
 17  1  1  0
 17  3  1  0
 17 10  2  0
M  END
>  <ID>  (1) 
conformer_0

$$$$
