
     RDKit          3D

 17 17  0  0  0  0  0  0  0  0999 V2000
   -1.1931  -30.6394  -15.3846 C   0  0  0  0  0  0  0  0  0  0  0  0
   -2.7323  -29.7336   -8.9182 C   0  0  0  0  0  0  0  0  0  0  0  0
   -2.5580  -30.2963   -7.4512 C   0  0  0  0  0  0  0  0  0  0  0  0
   -1.9899  -30.0080  -10.3850 C   0  0  0  0  0  0  0  0  0  0  0  0
   -0.0217  -31.1709  -15.9124 C   0  0  0  0  0  0  0  0  0  0  0  0
   -1.4242  -30.2317  -11.6413 C   0  0  0  0  0  0  0  0  0  0  0  0
   -3.7724  -29.2207  -11.0677 C   0  0  0  0  0  0  0  0  0  0  0  0
   -0.0215  -31.1380  -17.3369 C   0  0  0  0  0  0  0  0  0  0  0  0
   -4.1555  -29.3279  -15.0473 O   0  0  0  0  0  0  0  0  0  0  0  0
   -2.2344  -30.5710  -16.5499 C   0  0  0  0  0  0  0  0  0  0  0  0
   -2.8370  -29.6613  -13.9393 C   0  0  0  0  0  0  0  0  0  0  0  0
   -3.9276  -29.1886  -12.0742 N   0  0  0  0  0  0  0  0  0  0  0  0
   -1.7300  -29.9353  -13.3607 C   0  0  0  0  0  0  0  0  0  0  0  0
   -3.7369  -30.6018   -6.6595 C   0  0  0  0  0  0  0  0  0  0  0  0
   -3.2978  -30.3485  -16.5613 N   0  0  0  0  0  0  0  0  0  0  0  0
   -4.1630  -29.2592   -9.2451 C   0  0  0  0  0  0  0  0  0  0  0  0
   -1.2902  -30.9300  -17.9760 C   0  0  0  0  0  0  0  0  0  0  0  0
  3  2  1  0
  4  2  2  0
  5  1  2  0
  6  4  2  0
  8  5  1  0
 10  1  1  0
 11  9  1  0
 12  7  3  0
 13  6  1  0
 13 11  1  0
 14  3  1  0
 15  9  1  0
 15 10  1  0
 16  2  1  0
 16  7  1  0
 17  8  2  0
 17 10  1  0
M  END
>  <ID>  (1) 
conformer_0

$$$$
