
     RDKit          3D

 20 21  0  0  0  0  0  0  0  0999 V2000
   -2.2137  -30.0703   -8.2428 C   0  0  0  0  0  0  0  0  0  0  0  0
    0.4532  -30.8952  -17.2999 C   0  0  0  0  0  0  0  0  0  0  0  0
   -1.5894  -30.0302  -13.9858 C   0  0  0  0  0  0  0  0  0  0  0  0
   -3.7336  -29.6167   -8.4583 C   0  0  0  0  0  0  0  0  0  0  0  0
   -1.4342  -30.6092  -15.9675 C   0  0  0  0  0  0  0  0  0  0  0  0
   -3.9809  -29.1011  -10.6074 C   0  0  0  0  0  0  0  0  0  0  0  0
   -2.2265  -29.8365  -10.1635 C   0  0  0  0  0  0  0  0  0  0  0  0
   -3.7523  -30.1647   -6.5358 C   0  0  0  0  0  0  0  0  0  0  0  0
   -4.1467  -29.8423  -15.1573 O   0  0  0  0  0  0  0  0  0  0  0  0
   -1.9867  -30.8299  -17.4415 C   0  0  0  0  0  0  0  0  0  0  0  0
   -3.7857  -29.1778  -12.2240 N   0  0  0  0  0  0  0  0  0  0  0  0
   -3.0971  -29.7631  -14.5348 C   0  0  0  0  0  0  0  0  0  0  0  0
   -4.8750  -29.8992   -5.6777 O   0  0  0  0  0  0  0  0  0  0  0  0
   -0.5533  -30.9514  -18.3481 C   0  0  0  0  0  0  0  0  0  0  0  0
   -3.1352  -31.0233   -5.7689 O   0  0  0  0  0  0  0  0  0  0  0  0
   -1.5056  -29.9976  -12.1611 C   0  0  0  0  0  0  0  0  0  0  0  0
   -3.0970  -30.4618  -17.0202 N   0  0  0  0  0  0  0  0  0  0  0  0
   -4.6716  -28.9341   -9.5634 C   0  0  0  0  0  0  0  0  0  0  0  0
   -2.7079  -29.5725  -12.1280 C   0  0  0  0  0  0  0  0  0  0  0  0
   -0.1906  -30.8659  -15.9916 C   0  0  0  0  0  0  0  0  0  0  0  0
  4  1  1  0
  5  3  1  0
  7  1  1  0
  7  6  1  0
  8  4  1  0
 10  5  2  0
 11  6  1  0
 12  3  2  0
 12  9  2  0
 13  8  2  0
 14  2  2  0
 14 10  1  0
 15  8  1  0
 16  3  1  0
 17 10  1  0
 18  4  1  0
 18  6  1  0
 19 11  1  0
 19 16  1  0
 20  2  1  0
 20  5  1  0
M  END
>  <ID>  (1) 
conformer_0

$$$$
