
     RDKit          3D

 22 24  0  0  0  0  0  0  0  0999 V2000
    0.4001  -30.7436  -17.8507 C   0  0  0  0  0  0  0  0  0  0  0  0
   -4.4664  -30.0569   -7.3906 C   0  0  0  0  0  0  0  0  0  0  0  0
   -1.2925  -30.2533  -11.0125 C   0  0  0  0  0  0  0  0  0  0  0  0
    0.5186  -31.3709  -16.5758 C   0  0  0  0  0  0  0  0  0  0  0  0
   -1.2790  -30.0503  -12.5373 C   0  0  1  0  0  0  0  0  0  0  0  0
   -3.6924  -29.2433  -10.5484 C   0  0  0  0  0  0  0  0  0  0  0  0
   -1.9039  -29.9340  -14.0448 C   0  0  0  0  0  0  0  0  0  0  0  0
   -4.0923  -29.4278  -14.8574 O   0  0  0  0  0  0  0  0  0  0  0  0
   -2.9094  -29.7511  -14.7252 C   0  0  0  0  0  0  0  0  0  0  0  0
   -1.8876  -30.6386  -17.1857 C   0  0  0  0  0  0  0  0  0  0  0  0
   -3.6336  -29.3073  -12.1534 N   0  0  0  0  0  0  0  0  0  0  0  0
   -0.2417  -30.7836  -15.5929 C   0  0  0  0  0  0  0  0  0  0  0  0
   -4.8311  -29.4861   -5.3922 O   0  0  0  0  0  0  0  0  0  0  0  0
   -4.2387  -30.1333   -6.1002 C   0  0  0  0  0  0  0  0  0  0  0  0
   -3.1625  -30.6355   -5.5669 O   0  0  0  0  0  0  0  0  0  0  0  0
   -3.1534  -30.2898  -16.6679 N   0  0  0  0  0  0  0  0  0  0  0  0
   -4.2580  -28.9664   -9.3719 C   0  0  0  0  0  0  0  0  0  0  0  0
   -1.5310  -30.4977  -15.7393 C   0  0  0  0  0  0  0  0  0  0  0  0
   -2.3689  -29.7441  -12.2680 C   0  0  0  0  0  0  0  0  0  0  0  0
   -2.7910  -29.3560   -8.4503 C   0  0  2  0  0  0  0  0  0  0  0  0
   -2.6517  -29.5664  -10.2117 C   0  0  0  0  0  0  0  0  0  0  0  0
   -1.0694  -30.9628  -18.2388 C   0  0  0  0  0  0  0  0  0  0  0  0
  4  1  2  0
  5  3  1  1
  7  5  1  0
  9  7  2  3
  9  8  1  0
 11  6  1  0
 12  4  1  0
 14  2  1  0
 14 13  2  0
 15 14  1  0
 16 10  1  0
 17  6  1  0
 18  7  1  0
 18 10  1  0
 18 12  2  0
 19  5  1  0
 19 11  1  0
 20  2  1  1
 20 17  1  0
 21  3  1  0
 21  6  2  0
 21 20  1  0
 22  1  1  0
 22 10  2  0
M  END
>  <ID>  (1) 
conformer_0

$$$$
