
     RDKit          3D

 23 28  0  0  0  0  0  0  0  0999 V2000
    0.4840  -31.1282  -16.2679 C   0  0  0  0  0  0  0  0  0  0  0  0
   -4.3174  -30.0217   -7.5900 C   0  0  0  0  0  0  0  0  0  0  0  0
   -2.9097  -29.9593   -8.1630 C   0  0  0  0  0  0  0  0  0  0  0  0
   -0.3790  -30.7401  -15.4035 C   0  0  0  0  0  0  0  0  0  0  0  0
   -2.1705  -30.0457   -9.6818 C   0  0  0  0  0  0  0  0  0  0  0  0
   -4.7999  -28.8722   -9.0769 C   0  0  0  0  0  0  0  0  0  0  0  0
   -3.7317  -29.3857  -10.9224 C   0  0  0  0  0  0  0  0  0  0  0  0
   -2.0700  -30.5091  -16.8675 C   0  0  0  0  0  3  0  0  0  0  0  0
    0.2195  -31.0078  -17.5841 C   0  0  0  0  0  0  0  0  0  0  0  0
   -4.2229  -29.6178  -14.8682 O   0  0  0  0  0  0  0  0  0  0  0  0
   -4.0113  -30.0737   -6.1372 C   0  0  0  0  0  0  0  0  0  0  0  0
   -4.7709  -29.4908   -5.3807 O   0  0  0  0  0  0  0  0  0  0  0  0
   -3.6905  -29.4202  -12.2784 N   0  0  0  0  0  0  0  0  0  0  0  0
   -3.2429  -29.7245  -14.6202 C   0  0  0  0  0  0  0  0  0  0  0  0
   -3.1347  -30.3908  -16.9815 N   0  0  0  0  0  0  0  0  0  0  0  0
   -0.9843  -30.1266  -12.7275 C   0  0  0  0  0  0  0  0  0  0  0  0
   -3.0832  -30.6821   -5.4683 O   0  0  0  0  0  0  0  0  0  0  0  0
   -1.6242  -30.3078  -15.3142 C   0  0  0  0  0  0  0  0  0  0  0  0
   -2.0032  -29.8334  -13.7501 C   0  0  0  0  0  0  0  0  0  0  0  0
   -1.5231  -30.2955  -11.1555 C   0  0  0  0  0  0  0  0  0  0  0  0
   -2.3354  -29.7910  -12.2308 C   0  0  0  0  0  0  0  0  0  0  0  0
   -1.0463  -30.8921  -17.9833 C   0  0  0  0  0  0  0  0  0  0  0  0
   -3.7378  -29.3030  -10.0965 C   0  0  0  0  0  0  0  0  0  0  0  0
  3  2  1  0
  4  1  2  0
  5  3  1  0
  6  2  1  0
  9  1  1  0
 11  2  1  0
 12 11  2  0
 13  7  1  0
 14 10  2  0
 15  8  1  0
 17 11  1  0
 18  4  1  0
 18  8  1  0
 18 14  1  0
 19 14  1  0
 19 16  1  0
 19 18  1  0
 20  5  1  0
 20 16  1  0
 21 13  1  0
 21 16  1  0
 21 19  1  0
 21 20  1  0
 22  8  1  0
 22  9  2  0
 23  5  2  0
 23  6  1  0
 23  7  1  0
M  RAD  1   8   2
M  END
>  <ID>  (1) 
conformer_0

$$$$
