
     RDKit          3D

 21 25  0  0  0  0  0  0  0  0999 V2000
   -1.8568  -29.8201  -13.8734 C   0  0  0  0  0  0  0  0  0  0  0  0
   -2.7053  -30.0070   -7.8647 C   0  0  0  0  0  0  0  0  0  0  0  0
    0.1607  -31.1233  -17.5138 C   0  0  0  0  0  0  0  0  0  0  0  0
   -1.1993  -31.0129  -18.1909 C   0  0  0  0  0  0  0  0  0  0  0  0
   -1.9029  -29.9889  -11.3327 C   0  0  0  0  0  0  0  0  0  0  0  0
   -2.1326  -30.6962  -16.5954 C   0  0  0  0  0  0  0  0  0  0  0  0
   -3.3022  -29.3286  -11.5089 C   0  0  0  0  0  0  0  0  0  0  0  0
   -3.9414  -30.2580   -6.5180 C   0  0  0  0  0  0  0  0  0  0  0  0
   -4.2275  -29.5885  -14.6774 O   0  0  0  0  0  0  0  0  0  0  0  0
   -4.6463  -29.7279   -5.9445 O   0  0  0  0  0  0  0  0  0  0  0  0
    0.1292  -31.2604  -16.1194 C   0  0  0  0  0  0  0  0  0  0  0  0
   -3.3272  -30.3617  -16.4751 N   0  0  0  0  0  0  0  0  0  0  0  0
   -4.2230  -29.1991   -8.4987 C   0  0  0  0  0  0  0  0  0  0  0  0
   -3.0463  -29.5949  -14.2603 C   0  0  0  0  0  0  0  0  0  0  0  0
   -0.8432  -29.9071  -12.9693 C   0  0  0  0  0  0  0  0  0  0  0  0
   -3.1103  -31.2290   -6.3289 O   0  0  0  0  0  0  0  0  0  0  0  0
   -4.2528  -29.2921  -12.1890 N   0  0  0  0  0  0  0  0  0  0  0  0
   -1.0299  -30.6779  -15.4764 C   0  0  0  0  0  0  0  0  0  0  0  0
   -3.3865  -29.0516  -12.6691 N   0  0  0  0  0  0  0  0  0  0  0  0
   -2.1065  -30.0349   -9.4174 C   0  0  0  0  0  0  0  0  0  0  0  0
   -3.7113  -29.2764   -9.9076 C   0  0  0  0  0  0  0  0  0  0  0  0
  4  3  2  0
  6  4  1  0
  7  5  1  0
  8  2  1  0
 10  8  2  0
 11  3  1  0
 12  6  1  0
 13  2  1  0
 14  1  1  0
 14  9  2  0
 15  1  1  0
 15  5  1  0
 16  8  1  0
 17  7  1  0
 18  1  1  0
 18  6  2  0
 18 11  1  0
 19  7  1  0
 19 14  1  0
 19 17  1  0
 20  2  1  0
 20  5  1  0
 21  7  1  0
 21 13  1  0
 21 20  1  0
M  END
>  <ID>  (1) 
conformer_0

$$$$
