
     RDKit          3D

 21 25  0  0  0  0  0  0  0  0999 V2000
   -0.0347  -30.9352  -15.6453 C   0  0  0  0  0  0  0  0  0  0  0  0
   -3.9643  -29.7902   -7.9402 C   0  0  0  0  0  0  0  0  0  0  0  0
   -1.2681  -30.4788  -15.6311 C   0  0  0  0  0  0  0  0  0  0  0  0
   -1.9016  -29.9524  -10.7000 C   0  0  0  0  0  0  0  0  0  0  0  0
   -1.4113  -30.0181  -12.3237 C   0  0  0  0  0  0  0  0  0  0  0  0
   -5.1947  -28.6577   -9.3256 C   0  0  0  0  0  0  0  0  0  0  0  0
   -2.7486  -29.5609  -12.2955 C   0  0  0  0  0  0  0  0  0  0  0  0
    0.6702  -31.2477  -16.7568 C   0  0  0  0  0  0  0  0  0  0  0  0
   -3.8725  -29.1612  -12.1867 N   0  0  0  0  0  0  0  0  0  0  0  0
   -4.0984  -29.7834  -14.9239 O   0  0  0  0  0  0  0  0  0  0  0  0
   -3.7569  -30.1614   -6.5355 C   0  0  0  0  0  0  0  0  0  0  0  0
   -3.0273  -29.7887  -14.5915 C   0  0  0  0  0  0  0  0  0  0  0  0
   -2.0060  -30.6429  -16.7546 C   0  0  0  0  0  0  0  0  0  0  0  0
   -4.8769  -29.2591   -6.1018 O   0  0  0  0  0  0  0  0  0  0  0  0
   -2.6454  -30.9857   -5.9898 O   0  0  0  0  0  0  0  0  0  0  0  0
   -1.9903  -29.8656  -13.9619 C   0  0  0  0  0  0  0  0  0  0  0  0
    0.2037  -30.7115  -17.9331 C   0  0  0  0  0  0  0  0  0  0  0  0
   -3.9974  -29.2202  -10.5867 C   0  0  0  0  0  0  0  0  0  0  0  0
   -3.4321  -29.3799   -9.7652 C   0  0  0  0  0  0  0  0  0  0  0  0
   -2.2882  -29.7329   -8.5778 C   0  0  0  0  0  0  0  0  0  0  0  0
   -1.1329  -30.7924  -18.2284 C   0  0  0  0  0  0  0  0  0  0  0  0
  3  1  2  0
  5  4  1  0
  7  4  1  0
  7  5  1  0
  8  1  1  0
  9  7  1  0
 11  2  1  0
 12 10  1  0
 13  3  1  0
 14 11  2  0
 15 11  1  0
 16  3  1  0
 16  5  1  0
 16  7  1  0
 16 12  1  0
 17  8  2  0
 18  6  1  0
 18  9  2  0
 19  2  1  0
 19  4  1  0
 19 18  1  0
 20  2  1  0
 20 19  1  0
 21 13  2  0
 21 17  1  0
M  END
>  <ID>  (1) 
conformer_0

$$$$
