
     RDKit          3D

 20 21  0  0  0  0  0  0  0  0999 V2000
   -1.7403  -30.4684  -10.4026 C   0  0  0  0  0  0  0  0  0  0  0  0
   -2.2229  -30.0810   -8.5015 C   0  0  0  0  0  0  0  0  0  0  0  0
    0.4144  -31.1271  -16.6126 C   0  0  0  0  0  0  0  0  0  0  0  0
   -1.5752  -29.9620  -12.3275 C   0  0  0  0  0  0  0  0  0  0  0  0
   -0.2956  -30.8747  -15.5566 C   0  0  0  0  0  0  0  0  0  0  0  0
   -4.5435  -28.8367   -9.7546 C   0  0  0  0  0  0  0  0  0  0  0  0
   -3.8857  -29.2027  -10.9264 C   0  0  1  0  0  0  0  0  0  0  0  0
   -1.8270  -30.6574  -17.3786 C   0  0  0  0  0  0  0  0  0  0  0  0
   -4.1089  -29.4304  -15.2142 O   0  0  0  0  0  0  0  0  0  0  0  0
   -4.0496  -30.2561   -6.3767 C   0  0  0  0  0  0  0  0  0  0  0  0
   -3.6693  -29.2694  -12.3438 N   0  0  0  0  0  0  0  0  0  0  0  0
   -3.2487  -29.8100  -14.7531 C   0  0  0  0  0  0  0  0  0  0  0  0
   -1.5349  -30.5100  -15.6419 C   0  0  0  0  0  0  0  0  0  0  0  0
   -2.9431  -30.8193   -5.5514 O   0  0  0  0  0  0  0  0  0  0  0  0
   -3.7879  -29.7595   -7.8911 C   0  0  0  0  0  0  0  0  0  0  0  0
   -2.9179  -30.5046  -17.2033 N   0  0  0  0  0  0  0  0  0  0  0  0
   -1.6130  -29.9140  -13.9742 C   0  0  2  0  0  0  0  0  0  0  0  0
   -2.6938  -29.6189  -12.4912 C   0  0  0  0  0  0  0  0  0  0  0  0
   -0.3892  -30.9390  -17.8514 C   0  0  0  0  0  0  0  0  0  0  0  0
   -2.9265  -29.6240   -9.9128 C   0  0  1  0  0  0  0  0  0  0  0  0
  5  3  2  0
  7  6  1  0
  7 11  1  6
 12  9  1  0
 13  5  1  0
 13  8  2  0
 14 10  1  0
 15  2  1  0
 15 10  2  3
 16  8  1  0
 17  4  1  1
 17 12  1  0
 17 13  1  0
 18  4  1  0
 18 11  1  0
 19  3  1  0
 19  8  1  0
 20  1  1  1
 20  2  1  0
 20  6  1  0
 20  7  1  0
M  END
>  <ID>  (1) 
conformer_0

$$$$
