
     RDKit          3D

 21 25  0  0  0  0  0  0  0  0999 V2000
   -2.7854  -29.3875   -9.4466 C   0  0  0  0  0  0  0  0  0  0  0  0
    0.1294  -30.8239  -16.0281 C   0  0  0  0  0  0  0  0  0  0  0  0
   -1.3990  -30.2331  -10.2942 C   0  0  0  0  0  0  0  0  0  0  0  0
    0.4004  -30.9264  -17.3873 C   0  0  0  0  0  0  0  0  0  0  0  0
   -2.3029  -29.9098  -11.5206 C   0  0  0  0  0  0  0  0  0  0  0  0
   -3.8020  -29.3561  -11.0205 C   0  0  0  0  0  0  0  0  0  0  0  0
   -3.6967  -30.3642   -6.4834 C   0  0  0  0  0  0  0  0  0  0  0  0
   -1.9878  -30.5737  -17.1010 C   0  0  0  0  0  0  0  0  0  0  0  0
   -4.5644  -28.9502  -10.0925 C   0  0  0  0  0  0  0  0  0  0  0  0
   -4.2288  -29.8555  -14.9257 O   0  0  0  0  0  0  0  0  0  0  0  0
   -3.0716  -29.7694  -14.8663 C   0  0  0  0  0  0  0  0  0  0  0  0
   -0.7524  -30.7610  -18.1502 C   0  0  0  0  0  0  0  0  0  0  0  0
   -4.2948  -29.9419   -5.4806 O   0  0  0  0  0  0  0  0  0  0  0  0
   -3.7474  -29.4056  -12.5789 N   0  0  0  0  0  0  0  0  0  0  0  0
   -0.8794  -30.2073  -12.5622 C   0  0  0  0  0  0  0  0  0  0  0  0
   -3.0306  -30.2566  -16.9361 N   0  0  0  0  0  0  0  0  0  0  0  0
   -1.8271  -30.0497  -14.0547 C   0  0  0  0  0  0  0  0  0  0  0  0
   -1.1661  -30.4965  -15.6559 C   0  0  0  0  0  0  0  0  0  0  0  0
   -2.6692  -29.5870  -12.6491 C   0  0  0  0  0  0  0  0  0  0  0  0
   -3.8869  -29.9301   -8.0295 C   0  0  0  0  0  0  0  0  0  0  0  0
   -1.9798  -30.0065   -8.2425 C   0  0  0  0  0  0  0  0  0  0  0  0
  3  1  1  0
  4  2  2  0
  5  3  1  0
  6  1  1  0
  6  5  1  0
  9  6  1  0
 11 10  2  0
 12  4  1  0
 12  8  2  0
 13  7  2  0
 14  6  1  0
 15  5  1  0
 16  8  1  0
 17 11  1  0
 17 15  1  0
 18  2  1  0
 18  8  1  0
 18 17  1  0
 19  5  1  0
 19 14  1  0
 19 17  1  0
 20  1  1  0
 20  7  1  0
 21  1  1  0
 21 20  1  0
M  END
>  <ID>  (1) 
conformer_0

$$$$
