
     RDKit          3D

 23 23  0  0  0  0  0  0  0  0999 V2000
   -1.3913  -30.2764  -10.7778 C   0  0  0  0  0  0  0  0  0  0  0  0
   -1.2166  -30.4584  -15.4245 C   0  0  0  0  0  0  0  0  0  0  0  0
   -3.3083  -29.9509   -7.3906 C   0  0  0  0  0  3  0  0  0  0  0  0
    0.0685  -30.8691  -15.5475 C   0  0  0  0  0  0  0  0  0  0  0  0
   -2.1223  -29.8623  -11.8445 C   0  0  0  0  0  0  0  0  0  0  0  0
   -3.0145  -29.4902  -12.2812 C   0  0  0  0  0  0  0  0  0  0  0  0
    0.7681  -31.2528  -16.6210 C   0  0  0  0  0  0  0  0  0  0  0  0
   -3.2439  -29.8786  -14.7018 C   0  0  0  0  0  0  0  0  0  0  0  0
   -0.9915  -30.0422  -12.9948 C   0  0  0  0  0  0  0  0  0  0  0  0
   -4.3128  -29.6922  -14.9200 O   0  0  0  0  0  0  0  0  0  0  0  0
   -3.6756  -30.2195   -6.1701 C   0  0  0  0  0  0  0  0  0  0  0  0
   -3.9996  -29.2246  -12.0652 N   0  0  0  0  0  0  0  0  0  0  0  0
   -1.9837  -30.6668  -16.5766 C   0  0  0  0  0  0  0  0  0  0  0  0
   -4.7273  -29.7107   -5.9114 O   0  0  0  0  0  0  0  0  0  0  0  0
   -2.5954  -30.7225   -5.1512 O   0  0  0  0  0  0  0  0  0  0  0  0
   -3.1948  -30.4036  -16.6181 N   0  0  0  0  0  0  0  0  0  0  0  0
   -2.5552  -29.6875   -8.7516 C   0  0  0  0  0  0  0  0  0  0  0  0
    0.0058  -30.9212  -17.8711 C   0  0  0  0  0  0  0  0  0  0  0  0
   -2.1114  -29.9172  -14.0853 C   0  0  0  0  0  0  0  0  0  0  0  0
   -4.0007  -29.1119  -10.3635 C   0  0  0  0  0  0  0  0  0  0  0  0
   -1.3342  -30.9109  -17.8874 C   0  0  0  0  0  0  0  0  0  0  0  0
   -3.1476  -29.3736   -9.9640 C   0  0  0  0  0  0  0  0  0  0  0  0
   -4.5597  -28.8894   -8.8368 C   0  0  0  0  0  0  0  0  0  0  0  0
  4  2  2  0
  5  1  1  0
  6  5  2  3
  7  4  1  0
  9  5  1  0
 10  8  2  0
 11  3  1  0
 12  6  1  0
 13  2  1  0
 14 11  2  0
 15 11  1  0
 16 13  1  0
 17  3  2  3
 18  7  2  0
 19  2  1  0
 19  8  2  0
 19  9  1  0
 20 12  1  0
 21 13  2  0
 21 18  1  0
 22 17  1  0
 22 20  2  3
 23 20  1  0
M  RAD  1   3   2
M  END
>  <ID>  (1) 
conformer_0

$$$$
