
     RDKit          3D

 22 24  0  0  0  0  0  0  0  0999 V2000
   -3.2819  -30.3467   -7.6108 C   0  0  0  0  0  0  0  0  0  0  0  0
   -0.0384  -30.3631  -18.1236 C   0  0  0  0  0  0  0  0  0  0  0  0
   -4.0028  -29.0560   -8.5919 C   0  0  0  0  0  0  0  0  0  0  0  0
   -1.4881  -30.7516  -18.1707 C   0  0  0  0  0  0  0  0  0  0  0  0
   -1.7286  -30.2305  -10.6358 C   0  0  0  0  0  0  0  0  0  0  0  0
   -2.6002  -29.5904  -12.2361 C   0  0  0  0  0  0  0  0  0  0  0  0
    0.4975  -31.4880  -17.5271 C   0  0  0  0  0  0  0  0  0  0  0  0
   -3.8289  -29.2181  -12.1879 N   0  0  0  0  0  0  0  0  0  0  0  0
   -3.1422  -29.7302  -14.7189 C   0  0  0  0  0  0  0  0  0  0  0  0
   -5.0173  -29.8940   -5.8747 O   0  0  0  0  0  0  0  0  0  0  0  0
   -2.9938  -29.6971   -9.4593 C   0  0  0  0  0  0  0  0  0  0  0  0
   -4.3562  -29.7187  -14.8081 O   0  0  0  0  0  0  0  0  0  0  0  0
   -3.9316  -30.3773   -6.2363 C   0  0  0  0  0  0  0  0  0  0  0  0
   -3.2745  -30.1127  -16.4268 N   0  0  0  0  0  0  0  0  0  0  0  0
   -2.7885  -31.0586   -5.3049 O   0  0  0  0  0  0  0  0  0  0  0  0
   -2.0635  -30.6252  -16.7903 C   0  0  0  0  0  0  0  0  0  0  0  0
    0.8039  -30.9705  -16.1928 C   0  0  0  0  0  0  0  0  0  0  0  0
   -1.4180  -29.9926  -12.4057 C   0  0  0  0  0  0  0  0  0  0  0  0
   -3.8414  -29.2626  -10.6006 C   0  0  0  0  0  0  0  0  0  0  0  0
   -1.8231  -29.8898  -14.0809 C   0  0  0  0  0  0  0  0  0  0  0  0
   -1.3448  -30.3750  -15.7952 C   0  0  0  0  0  0  0  0  0  0  0  0
   -0.4195  -31.2131  -15.5443 C   0  0  0  0  0  0  0  0  0  0  0  0
  3  1  1  0
  4  2  2  0
  7  2  1  0
  8  6  1  0
 11  3  1  0
 11  5  1  0
 12  9  2  0
 13  1  1  0
 13 10  2  0
 14  9  1  0
 15 13  1  0
 16  4  1  0
 16 14  1  0
 17  7  1  0
 18  5  1  0
 18  6  1  0
 19  8  1  0
 19 11  2  0
 20  9  1  0
 20 18  1  0
 21 16  2  0
 21 20  1  0
 22 17  2  0
 22 21  1  0
M  END
>  <ID>  (1) 
conformer_0

$$$$
