
     RDKit          3D

 17 18  0  0  0  0  0  0  0  0999 V2000
   -3.2043  -29.6354   -7.6910 C   0  0  2  0  0  0  0  0  0  0  0  0
    0.2048  -31.0531  -16.1079 C   0  0  0  0  0  0  0  0  0  0  0  0
   -1.6082  -30.2543  -11.3546 C   0  0  0  0  0  0  0  0  0  0  0  0
   -1.0078  -30.6229  -15.4147 C   0  0  0  0  0  0  0  0  0  0  0  0
   -3.9155  -29.1569   -9.2121 C   0  0  0  0  0  0  0  0  0  0  0  0
   -2.2967  -29.8941   -9.2666 C   0  0  1  0  0  0  0  0  0  0  0  0
   -1.9863  -30.8361  -16.9570 C   0  0  0  0  0  0  0  0  0  0  0  0
   -2.7959  -29.5939  -11.4453 C   0  0  0  0  0  0  0  0  0  0  0  0
   -4.3482  -29.5352  -14.7190 O   0  0  0  0  0  0  0  0  0  0  0  0
   -3.4577  -30.1876   -5.9177 C   0  0  0  0  0  0  0  0  0  0  0  0
   -2.8522  -30.7486   -5.1596 O   0  0  0  0  0  0  0  0  0  0  0  0
   -0.3676  -31.3324  -17.4919 C   0  0  0  0  0  0  0  0  0  0  0  0
   -3.1501  -29.7261  -14.2335 C   0  0  0  0  0  0  0  0  0  0  0  0
   -3.1900  -30.5093  -16.8951 N   0  0  0  0  0  0  0  0  0  0  0  0
   -4.4316  -29.6531   -5.3900 O   0  0  0  0  0  0  0  0  0  0  0  0
   -1.8749  -29.9384  -13.6883 C   0  0  1  0  0  0  0  0  0  0  0  0
   -3.0047  -29.3664  -12.0770 N   0  0  0  0  0  0  0  0  0  0  0  0
  4  2  2  0
  5  1  1  0
  6  1  1  0
  6  3  1  6
  6  5  1  0
  7  4  1  0
  8  3  1  0
  1 10  1  6
 11 10  1  0
 12  2  1  0
 12  7  2  0
 13  9  1  0
 14  7  1  0
 15 10  2  0
 16  4  1  0
 16 13  1  6
 17  8  2  3
 17 16  1  0
M  END
>  <ID>  (1) 
conformer_0

$$$$
