
     RDKit          3D

 22 24  0  0  0  0  0  0  0  0999 V2000
   -2.8880  -30.2093   -7.7324 C   0  0  0  0  0  0  0  0  0  0  0  0
   -0.3620  -30.5714  -15.5273 C   0  0  0  0  0  0  0  0  0  0  0  0
   -1.6193  -30.3954  -15.7193 C   0  0  0  0  0  0  0  0  0  0  0  0
   -1.5237  -29.8686  -12.8951 C   0  0  0  0  0  0  0  0  0  0  0  0
   -4.6198  -28.8809   -9.5661 C   0  0  0  0  0  0  0  0  0  0  0  0
   -2.5197  -29.6568   -9.5319 C   0  0  0  0  0  0  0  0  0  0  0  0
   -3.6919  -29.1844  -11.9785 N   0  0  0  0  0  0  0  0  0  0  0  0
   -4.1526  -29.1019  -10.5158 C   0  0  0  0  0  0  0  0  0  0  0  0
   -4.1387  -29.5840  -15.0957 O   0  0  0  0  0  0  0  0  0  0  0  0
   -2.0062  -30.6471  -17.1650 C   0  0  0  0  0  0  0  0  0  0  0  0
    0.4527  -31.3558  -16.2711 C   0  0  0  0  0  0  0  0  0  0  0  0
   -4.8039  -30.1769   -5.8153 O   0  0  0  0  0  0  0  0  0  0  0  0
   -4.1012  -30.4601   -6.5061 C   0  0  0  0  0  0  0  0  0  0  0  0
   -3.0599  -31.2163   -5.3688 O   0  0  0  0  0  0  0  0  0  0  0  0
   -3.1941  -29.6625  -14.5377 C   0  0  0  0  0  0  0  0  0  0  0  0
   -1.6595  -30.0970  -11.0516 C   0  0  0  0  0  0  0  0  0  0  0  0
   -2.9118  -30.4744  -17.2734 N   0  0  0  0  0  0  0  0  0  0  0  0
   -2.0998  -29.7314  -14.2823 C   0  0  0  0  0  0  0  0  0  0  0  0
   -1.1823  -31.3208  -18.1882 C   0  0  0  0  0  0  0  0  0  0  0  0
   -2.5602  -29.5318  -11.8893 C   0  0  0  0  0  0  0  0  0  0  0  0
   -3.9881  -29.5139   -8.3026 C   0  0  0  0  0  0  0  0  0  0  0  0
    0.1858  -31.2286  -17.6231 C   0  0  0  0  0  0  0  0  0  0  0  0
  3  2  2  0
  6  1  1  0
  8  5  1  0
  8  7  1  0
 10  3  1  0
 11  2  1  0
 13  1  1  0
 13 12  2  0
 14 13  1  0
 15  9  2  0
 16  4  1  0
 16  6  1  0
 17 10  1  0
 18  3  1  0
 18  4  1  0
 18 15  2  0
 19 10  2  0
 20  4  1  0
 20  7  1  0
 20 16  1  0
 21  1  1  0
 21  5  2  0
 22 11  2  0
 22 19  1  0
M  END
>  <ID>  (1) 
conformer_0

$$$$
