
     RDKit          3D

 20 20  0  0  0  0  0  0  0  0999 V2000
    0.3488  -30.9760  -16.0921 C   0  0  0  0  0  0  0  0  0  0  0  0
   -3.1322  -30.3711   -7.7908 C   0  0  0  0  0  0  0  0  0  0  0  0
   -2.1476  -30.0059  -10.4203 C   0  0  0  0  0  0  0  0  0  0  0  0
   -0.8923  -30.6352  -15.7277 C   0  0  0  0  0  0  0  0  0  0  0  0
   -1.4975  -29.9518  -12.2620 C   0  0  1  0  0  0  0  0  0  0  0  0
   -2.7159  -29.8973   -8.8959 C   0  0  0  0  0  0  0  0  0  0  0  0
   -4.0367  -29.1437  -10.8695 C   0  0  0  0  0  0  0  0  0  0  0  0
   -3.6991  -29.1702  -12.4417 N   0  0  0  0  0  0  0  0  0  0  0  0
    0.5211  -31.0160  -17.5019 C   0  0  0  0  0  0  0  0  0  0  0  0
   -3.1776  -29.8052  -14.7595 C   0  0  0  0  0  0  0  0  0  0  0  0
   -4.5047  -29.4799   -5.9929 O   0  0  0  0  0  0  0  0  0  0  0  0
   -1.9507  -30.8363  -16.9654 C   0  0  0  0  0  0  0  0  0  0  0  0
   -3.7568  -30.2742   -6.4828 C   0  0  0  0  0  0  0  0  0  0  0  0
   -4.3311  -29.7864  -14.5657 O   0  0  0  0  0  0  0  0  0  0  0  0
   -3.2036  -30.3392  -16.4526 N   0  0  0  0  0  0  0  0  0  0  0  0
   -1.7690  -29.8690  -14.0937 C   0  0  0  0  0  0  0  0  0  0  0  0
   -4.3278  -28.9313   -9.8499 C   0  0  0  0  0  0  0  0  0  0  0  0
   -2.8340  -30.6942   -5.5419 O   0  0  0  0  0  0  0  0  0  0  0  0
   -0.7132  -30.8197  -18.1235 C   0  0  0  0  0  0  0  0  0  0  0  0
   -2.7679  -29.4842  -12.3278 C   0  0  0  0  0  0  0  0  0  0  0  0
  4  1  2  0
  5  3  1  1
  6  2  2  3
  6  3  1  0
  8  7  1  0
  9  1  1  0
 12  4  1  0
 13  2  1  0
 13 11  2  0
 14 10  2  0
 15 10  1  0
 15 12  1  0
 16  5  1  0
 16 10  1  0
 17  7  3  0
 18 13  1  0
 19  9  1  0
 19 12  2  0
 20  5  1  0
 20  8  1  0
M  END
>  <ID>  (1) 
conformer_0

$$$$
