
     RDKit          3D

 22 25  0  0  0  0  0  0  0  0999 V2000
   -2.2605  -30.2650   -7.8834 C   0  0  0  0  0  0  0  0  0  0  0  0
   -0.9595  -30.5802  -15.4145 C   0  0  0  0  0  0  0  0  0  0  0  0
   -1.8021  -29.8397  -14.1572 C   0  0  0  0  0  0  0  0  0  0  0  0
    0.3573  -30.9826  -15.6336 C   0  0  0  0  0  0  0  0  0  0  0  0
   -1.5170  -29.7903  -12.6749 C   0  0  0  0  0  0  0  0  0  0  0  0
   -3.5611  -29.3860  -10.8920 C   0  0  0  0  0  0  0  0  0  0  0  0
   -1.7188  -30.5483  -16.4970 C   0  0  0  0  0  0  0  0  0  0  0  0
   -2.7985  -29.5729  -12.7158 C   0  0  0  0  0  0  0  0  0  0  0  0
    0.0862  -31.0383  -17.9140 C   0  0  0  0  0  0  0  0  0  0  0  0
   -4.6387  -29.8134   -5.6663 O   0  0  0  0  0  0  0  0  0  0  0  0
   -4.3085  -29.3788  -14.8413 O   0  0  0  0  0  0  0  0  0  0  0  0
   -1.9850  -30.1345  -10.7734 C   0  0  0  0  0  0  0  0  0  0  0  0
   -2.7257  -30.7848   -5.3908 O   0  0  0  0  0  0  0  0  0  0  0  0
   -3.6060  -30.3383   -6.2439 C   0  0  0  0  0  0  0  0  0  0  0  0
   -3.0396  -30.2013  -16.4646 N   0  0  0  0  0  0  0  0  0  0  0  0
   -3.5386  -29.3303  -12.4521 N   0  0  0  0  0  0  0  0  0  0  0  0
   -4.5168  -29.0512  -10.1217 C   0  0  0  0  0  0  0  0  0  0  0  0
   -1.3481  -31.0663  -17.9640 C   0  0  0  0  0  0  0  0  0  0  0  0
   -2.8429  -29.9446   -9.5626 C   0  0  0  0  0  0  0  0  0  0  0  0
   -3.8204  -30.2038   -7.8509 C   0  0  0  0  0  0  0  0  0  0  0  0
   -3.0784  -29.7382  -14.9232 C   0  0  0  0  0  0  0  0  0  0  0  0
    0.8114  -31.3872  -16.7989 C   0  0  0  0  0  0  0  0  0  0  0  0
  3  2  1  0
  4  2  2  0
  5  3  1  0
  7  2  1  0
  8  3  1  0
  8  5  1  0
 12  6  1  0
 14 10  2  0
 14 13  1  0
 15  7  1  0
 16  6  1  0
 16  8  1  0
 17  6  1  0
 18  7  2  0
 18  9  1  0
 19  1  1  0
 19  6  1  0
 19 12  1  0
 20  1  1  0
 20 14  1  0
 21  3  1  0
 21 11  2  0
 21 15  1  0
 22  4  1  0
 22  9  2  0
M  END
>  <ID>  (1) 
conformer_0

$$$$
