
     RDKit          3D

 23 26  0  0  0  0  0  0  0  0999 V2000
   -1.1083  -31.2817  -18.0362 C   0  0  0  0  0  0  0  0  0  0  0  0
   -2.4425  -30.3771   -7.7038 C   0  0  0  0  0  0  0  0  0  0  0  0
   -2.0816  -29.6793  -14.5207 C   0  0  0  0  0  0  0  0  0  0  0  0
   -4.0693  -29.9214   -8.0117 C   0  0  0  0  0  0  0  0  0  0  0  0
    0.1317  -30.8805  -17.4156 C   0  0  0  0  0  0  0  0  0  0  0  0
   -2.2320  -30.7436  -16.9492 C   0  0  0  0  0  0  0  0  0  0  0  0
   -4.2599  -29.3511  -14.9418 O   0  0  0  0  0  0  0  0  0  0  0  0
   -4.7961  -28.9722   -9.6801 C   0  0  0  0  0  0  0  0  0  0  0  0
   -3.2614  -29.6575  -14.7051 C   0  0  0  0  0  0  0  0  0  0  0  0
   -3.7465  -29.1551  -10.6468 C   0  0  0  0  0  0  0  0  0  0  0  0
   -3.5962  -30.4276   -6.3923 C   0  0  0  0  0  0  0  0  0  0  0  0
   -3.2214  -30.8262   -5.3148 O   0  0  0  0  0  0  0  0  0  0  0  0
   -3.2861  -28.9582  -11.7679 N   0  0  0  0  0  0  0  0  0  0  0  0
   -3.3117  -30.3956  -16.7336 N   0  0  0  0  0  0  0  0  0  0  0  0
   -4.5021  -29.8265   -5.8806 O   0  0  0  0  0  0  0  0  0  0  0  0
   -0.1492  -31.1433  -16.1281 C   0  0  0  0  0  0  0  0  0  0  0  0
   -3.1682  -29.6919   -9.7948 C   0  0  0  0  0  0  0  0  0  0  0  0
   -3.9399  -29.4753  -12.6951 N   0  0  0  0  0  0  0  0  0  0  0  0
   -1.6481  -30.1929  -10.9404 C   0  0  0  0  0  0  0  0  0  0  0  0
   -2.4768  -29.5353  -12.5424 C   0  0  0  0  0  0  0  0  0  0  0  0
   -1.2870  -30.2849  -15.7492 C   0  0  0  0  0  0  0  0  0  0  0  0
   -1.4115  -29.9189  -13.0319 C   0  0  0  0  0  0  0  0  0  0  0  0
   -1.8531  -29.5703   -8.9105 C   0  0  0  0  0  0  0  0  0  0  0  0
  4  2  1  0
  5  1  2  0
  6  1  1  0
  9  3  2  0
  9  7  2  0
 10  8  1  0
 11  2  1  0
 11  4  1  0
 12 11  1  0
 13 10  1  0
 14  6  1  0
 15 11  1  0
 16  5  1  0
 17 10  1  0
 18 13  1  0
 19 17  1  0
 20 13  1  0
 20 18  1  0
 20 19  1  0
 21  3  1  0
 21  6  1  0
 21 16  2  0
 22  3  1  0
 22 20  1  0
 23  2  1  0
 23 17  1  0
M  END
>  <ID>  (1) 
conformer_0

$$$$
