
     RDKit          3D

 23 25  0  0  0  0  0  0  0  0999 V2000
   -1.7333  -30.7791  -17.8283 C   0  0  0  0  0  0  0  0  0  0  0  0
   -0.3779  -30.7954  -17.9381 C   0  0  0  0  0  0  0  0  0  0  0  0
   -0.8259  -29.9071  -13.1023 C   0  0  0  0  0  0  0  0  0  0  0  0
   -1.9273  -29.7127  -13.8798 C   0  0  2  0  0  0  0  0  0  0  0  0
   -3.5887  -30.4352   -7.6626 C   0  0  0  0  0  0  0  0  0  0  0  0
   -3.7777  -29.2067  -10.8069 C   0  0  0  0  0  0  0  0  0  0  0  0
   -0.2154  -30.7437  -15.5419 C   0  0  0  0  0  0  0  0  0  0  0  0
   -3.4349  -29.6766  -14.4792 C   0  0  0  0  0  0  0  0  0  0  0  0
   -4.4302  -29.8922  -14.7727 O   0  0  0  0  0  0  0  0  0  0  0  0
   -2.2966  -30.5159  -16.3585 C   0  0  0  0  0  0  0  0  0  0  0  0
   -1.7699  -29.9881  -11.3744 C   0  0  0  0  0  0  0  0  0  0  0  0
   -3.0286  -30.9024   -5.5393 O   0  0  0  0  0  0  0  0  0  0  0  0
   -3.6242  -30.4509   -6.4091 C   0  0  0  0  0  0  0  0  0  0  0  0
   -4.8395  -29.4547   -6.2574 O   0  0  0  0  0  0  0  0  0  0  0  0
   -3.4460  -29.2652  -12.2939 N   0  0  0  0  0  0  0  0  0  0  0  0
   -3.3254  -30.0756  -15.9859 N   0  0  0  0  0  0  0  0  0  0  0  0
   -2.7462  -29.9854   -9.8680 C   0  0  1  0  0  0  0  0  0  0  0  0
   -4.2416  -29.1694  -12.4399 N   0  0  0  0  0  0  0  0  0  0  0  0
   -1.3930  -30.3146  -15.3539 C   0  0  0  0  0  0  0  0  0  0  0  0
   -2.4837  -29.8168   -8.6398 C   0  0  0  0  0  0  0  0  0  0  0  0
   -2.6407  -29.5634  -12.3447 C   0  0  0  0  0  0  0  0  0  0  0  0
    0.2838  -31.2461  -16.7027 C   0  0  0  0  0  0  0  0  0  0  0  0
   -4.6027  -28.9597  -10.0098 C   0  0  0  0  0  0  0  0  0  0  0  0
  2  1  2  0
  4  3  1  1
  8  4  1  0
  9  8  2  0
 10  1  1  0
 13  5  1  0
 13 12  1  0
 14 13  2  0
 15  6  1  0
 16  8  1  0
 16 10  1  0
 17  6  1  0
 17 11  1  0
 18 15  1  0
 19  4  1  0
 19  7  1  0
 19 10  2  0
 20  5  1  0
 17 20  1  1
 21  4  1  0
 21 11  1  0
 21 15  1  0
 22  2  1  0
 22  7  2  0
 23  6  2  3
M  END
>  <ID>  (1) 
conformer_0

$$$$
