
     RDKit          3D

 20 22  0  0  0  0  0  0  0  0999 V2000
   -0.5450  -31.0335  -18.0380 C   0  0  0  0  0  0  0  0  0  0  0  0
    0.4453  -31.0652  -16.9532 C   0  0  0  0  0  0  0  0  0  0  0  0
   -2.0564  -30.1398   -8.5597 C   0  0  0  0  0  0  0  0  0  0  0  0
   -1.6551  -30.2105  -10.7554 C   0  0  0  0  0  0  0  0  0  0  0  0
   -3.1282  -29.4625   -8.2610 C   0  0  0  0  0  0  0  0  0  0  0  0
   -1.7498  -29.9825  -12.6111 C   0  0  0  0  0  0  0  0  0  0  0  0
   -3.7308  -29.3307  -10.8107 C   0  0  0  0  0  0  0  0  0  0  0  0
   -2.0477  -30.8829  -17.1889 C   0  0  0  0  0  0  0  0  0  0  0  0
   -4.1302  -29.7636  -15.1862 O   0  0  0  0  0  0  0  0  0  0  0  0
   -3.8293  -30.3170   -5.8621 O   0  0  0  0  0  0  0  0  0  0  0  0
   -0.1392  -30.8237  -15.7145 C   0  0  0  0  0  0  0  0  0  0  0  0
   -3.5299  -30.3035   -6.4118 C   0  0  0  0  0  0  0  0  0  0  0  0
   -3.2393  -29.7820  -14.8120 C   0  0  0  0  0  0  0  0  0  0  0  0
   -3.8250  -29.3267  -12.4078 N   0  0  0  0  0  0  0  0  0  0  0  0
   -2.2034  -29.8532  -13.9987 C   0  0  0  0  0  0  0  0  0  0  0  0
   -3.2147  -29.5165  -10.1991 C   0  0  0  0  0  0  0  0  0  0  0  0
   -1.4596  -30.4824  -15.6041 C   0  0  0  0  0  0  0  0  0  0  0  0
   -4.8189  -29.1792   -8.4389 C   0  0  0  0  0  0  0  0  0  0  0  0
   -5.1562  -28.5786   -9.8860 C   0  0  0  0  0  0  0  0  0  0  0  0
   -2.7419  -29.6480  -12.4296 C   0  0  0  0  0  0  0  0  0  0  0  0
  2  1  2  0
  5  3  1  0
  6  4  1  0
  8  1  1  0
 11  2  1  0
 12  5  1  0
 12 10  2  0
 13  9  2  0
 14  7  1  0
 15  6  1  0
 15 13  2  0
 16  4  1  0
 16  5  1  0
 16  7  2  0
 17  8  1  0
 17 11  2  0
 17 15  1  0
 18  5  1  0
 19  7  1  0
 19 18  1  0
 20  6  1  0
 20 14  1  0
M  END
>  <ID>  (1) 
conformer_0

$$$$
