
     RDKit          3D

 21 22  0  0  0  0  0  0  0  0999 V2000
   -0.2635  -30.8474  -15.5255 C   0  0  0  0  0  0  0  0  0  0  0  0
   -2.7190  -29.7257   -9.7756 C   0  0  0  0  0  0  0  0  0  0  0  0
    0.5321  -31.1478  -16.5858 C   0  0  0  0  0  0  0  0  0  0  0  0
   -1.7493  -29.9437  -13.7856 C   0  0  2  0  0  0  0  0  0  0  0  0
   -1.7038  -30.0025  -11.4566 C   0  0  0  0  0  0  0  0  0  0  0  0
   -2.5488  -29.4276   -8.7174 C   0  0  0  0  0  0  0  0  0  0  0  0
   -3.7760  -29.1564  -10.8378 C   0  0  0  0  0  0  0  0  0  0  0  0
   -3.6812  -29.3053  -12.4224 N   0  0  0  0  0  0  0  0  0  0  0  0
   -1.6741  -30.7746  -17.8970 C   0  0  0  0  0  0  0  0  0  0  0  0
   -3.2037  -29.7271  -14.6321 C   0  0  0  0  0  0  0  0  0  0  0  0
   -4.0620  -29.2540  -15.0844 O   0  0  0  0  0  0  0  0  0  0  0  0
   -2.7061  -31.0295   -5.8036 O   0  0  0  0  0  0  0  0  0  0  0  0
   -3.6446  -30.3873   -6.5125 C   0  0  0  0  0  0  0  0  0  0  0  0
   -4.6764  -29.3359   -6.0385 O   0  0  0  0  0  0  0  0  0  0  0  0
   -2.0567  -30.7549  -16.7984 C   0  0  0  0  0  0  0  0  0  0  0  0
   -4.6616  -28.8617   -9.8732 C   0  0  0  0  0  0  0  0  0  0  0  0
   -1.5231  -30.4528  -15.6384 C   0  0  0  0  0  0  0  0  0  0  0  0
   -3.5456  -30.3236  -16.3769 N   0  0  0  0  0  0  0  0  0  0  0  0
   -3.7480  -30.1822   -7.7753 C   0  0  0  0  0  0  0  0  0  0  0  0
   -2.6394  -29.6114  -12.3199 C   0  0  0  0  0  0  0  0  0  0  0  0
   -0.1638  -31.1038  -17.9842 C   0  0  0  0  0  0  0  0  0  0  0  0
  3  1  2  0
  6  2  1  0
  7  2  1  0
  8  7  1  0
  4 10  1  6
 11 10  1  0
 13 12  1  0
 14 13  2  0
 15  9  1  0
 16  7  2  3
 17  1  1  0
 17  4  1  0
 17 15  2  0
 18 11  1  0
 18 15  1  0
 19  6  1  0
 19 13  1  0
 20  4  1  0
 20  5  2  3
 20  8  1  0
 21  3  1  0
 21  9  2  0
M  END
>  <ID>  (1) 
conformer_0

$$$$
