
     RDKit          3D

 21 24  0  0  0  0  0  0  0  0999 V2000
    0.4551  -31.0567  -17.2783 C   0  0  0  0  0  0  0  0  0  0  0  0
   -2.3216  -29.5310   -8.3942 C   0  0  0  0  0  0  0  0  0  0  0  0
   -3.2608  -30.1108   -7.7874 C   0  0  0  0  0  0  0  0  0  0  0  0
   -1.4471  -30.4629  -10.9284 C   0  0  0  0  0  0  0  0  0  0  0  0
    0.0204  -30.9052  -15.9602 C   0  0  0  0  0  0  0  0  0  0  0  0
   -1.4454  -30.1559  -12.4526 C   0  0  0  0  0  0  0  0  0  0  0  0
   -3.8398  -29.1669  -10.9699 C   0  0  0  0  0  0  0  0  0  0  0  0
   -1.9963  -30.8593  -16.9995 C   0  0  0  0  0  0  0  0  0  0  0  0
   -4.3182  -30.2323  -15.0785 O   0  0  0  0  0  0  0  0  0  0  0  0
   -3.9429  -29.2016  -12.2350 N   0  0  0  0  0  0  0  0  0  0  0  0
   -3.6216  -30.2207   -6.3193 C   0  0  0  0  0  0  0  0  0  0  0  0
   -3.2264  -29.9813  -14.7656 C   0  0  0  0  0  0  0  0  0  0  0  0
   -1.1695  -30.5489  -15.6502 C   0  0  0  0  0  0  0  0  0  0  0  0
   -4.6707  -29.6296   -5.8276 O   0  0  0  0  0  0  0  0  0  0  0  0
   -1.6770  -29.9959  -13.8180 C   0  0  0  0  0  0  0  0  0  0  0  0
   -2.8134  -30.5506   -5.3878 O   0  0  0  0  0  0  0  0  0  0  0  0
   -3.0906  -30.3549  -16.6637 N   0  0  0  0  0  0  0  0  0  0  0  0
   -2.5899  -29.9289  -10.2524 C   0  0  0  0  0  0  0  0  0  0  0  0
   -4.0158  -29.1580   -9.6516 C   0  0  0  0  0  0  0  0  0  0  0  0
   -0.7151  -31.1075  -18.1599 C   0  0  0  0  0  0  0  0  0  0  0  0
   -2.7179  -29.6507  -12.5208 C   0  0  0  0  0  0  0  0  0  0  0  0
  3  2  1  0
  5  1  2  0
  6  4  1  0
 10  7  1  0
 11  3  1  0
 12  9  1  0
 13  5  1  0
 13  8  2  0
 14 11  2  0
 15  6  1  0
 15 12  1  0
 15 13  1  0
 16 11  1  0
 17  8  1  0
 18  2  1  0
 18  4  1  0
 18  7  1  0
 19  7  1  0
 19 18  1  0
 20  1  1  0
 20  8  1  0
 21  6  1  0
 21 10  2  0
 21 15  1  0
M  END
>  <ID>  (1) 
conformer_0

$$$$
