
     RDKit          3D

 24 28  0  0  0  0  0  0  0  0999 V2000
   -1.4840  -30.1782  -10.3800 C   0  0  0  0  0  0  0  0  0  0  0  0
   -0.1031  -30.8902  -15.3624 C   0  0  0  0  0  0  0  0  0  0  0  0
   -1.3797  -30.8519  -15.7544 C   0  0  0  0  0  0  0  0  0  0  0  0
   -1.5798  -30.0137  -12.3864 C   0  0  0  0  0  0  0  0  0  0  0  0
   -2.0151  -29.9587  -14.3201 C   0  0  0  0  0  0  0  0  0  0  0  0
   -4.5556  -28.8609  -10.3901 C   0  0  0  0  0  0  0  0  0  0  0  0
   -2.0565  -30.1978   -8.1867 C   0  0  0  0  0  0  0  0  0  0  0  0
    0.9096  -30.8150  -17.2037 C   0  0  0  0  0  0  0  0  0  0  0  0
   -2.6520  -29.6484  -13.3649 C   0  0  0  0  0  0  0  0  0  0  0  0
   -4.9620  -29.4065   -6.6699 O   0  0  0  0  0  0  0  0  0  0  0  0
   -3.6008  -30.3123   -6.6060 C   0  0  0  0  0  0  0  0  0  0  0  0
   -3.4773  -29.2880  -11.9936 N   0  0  0  0  0  0  0  0  0  0  0  0
   -4.2546  -29.6480  -14.4860 O   0  0  0  0  0  0  0  0  0  0  0  0
   -2.8391  -29.6011   -9.7226 C   0  0  0  0  0  0  0  0  0  0  0  0
   -1.9113  -30.6739  -16.8241 C   0  0  0  0  0  0  0  0  0  0  0  0
   -3.3094  -30.1486  -16.4408 N   0  0  0  0  0  0  0  0  0  0  0  0
   -0.1074  -31.1266  -18.2888 C   0  0  0  0  0  0  0  0  0  0  0  0
   -2.8036  -30.6133   -5.5832 O   0  0  0  0  0  0  0  0  0  0  0  0
   -3.3161  -30.1102  -15.5535 C   0  0  0  0  0  0  0  0  0  0  0  0
   -5.0806  -28.9052   -9.7958 C   0  0  0  0  0  0  0  0  0  0  0  0
    0.5046  -31.9015  -16.3061 C   0  0  0  0  0  0  0  0  0  0  0  0
   -1.4305  -30.7645  -18.0110 C   0  0  0  0  0  0  0  0  0  0  0  0
   -2.8070  -29.6904  -11.2732 C   0  0  0  0  0  0  0  0  0  0  0  0
   -3.6199  -29.8961   -8.2639 C   0  0  0  0  0  0  0  0  0  0  0  0
  3  2  2  0
  5  3  1  0
  9  4  1  0
  9  5  1  0
 11 10  2  0
 12  6  1  0
 12  9  1  0
 14  1  1  0
 14  7  1  0
 15  3  1  0
 16 15  1  0
 17  8  2  0
 18 11  1  0
 19  5  1  0
 19 13  2  0
 19 16  1  0
 20  6  3  0
 21  2  1  0
 21  8  1  0
 22 15  2  0
 22 17  1  0
 23  1  1  0
 23  4  1  0
 23 12  1  0
 23 14  1  0
 24  7  1  0
 24 11  1  0
 24 14  1  0
M  END
>  <ID>  (1) 
conformer_0

$$$$
