
     RDKit          3D

 22 25  0  0  0  0  0  0  0  0999 V2000
   -3.7828  -29.7707   -7.3796 C   0  0  0  0  0  0  0  0  0  0  0  0
   -1.3052  -30.4905  -15.5079 C   0  0  0  0  0  0  0  0  0  0  0  0
   -1.2239  -29.8516  -12.9920 C   0  0  0  0  0  0  0  0  0  0  0  0
   -0.0490  -30.8912  -15.4969 C   0  0  0  0  0  0  0  0  0  0  0  0
   -2.3032  -30.4461   -8.3869 C   0  0  2  0  0  0  0  0  0  0  0  0
   -3.7919  -29.3681  -10.4836 C   0  0  0  0  0  0  0  0  0  0  0  0
   -4.6269  -28.9218   -9.6768 C   0  0  0  0  0  0  0  0  0  0  0  0
   -1.9825  -30.7072  -16.8443 C   0  0  0  0  0  0  0  0  0  0  0  0
    0.6385  -31.2333  -16.5784 C   0  0  0  0  0  0  0  0  0  0  0  0
   -4.1646  -29.6247  -14.7664 O   0  0  0  0  0  0  0  0  0  0  0  0
   -2.5032  -30.9206   -5.8280 O   0  0  0  0  0  0  0  0  0  0  0  0
   -3.2224  -29.6686  -14.5727 C   0  0  0  0  0  0  0  0  0  0  0  0
   -3.8454  -30.0464   -6.5197 C   0  0  0  0  0  0  0  0  0  0  0  0
   -3.7149  -29.3642  -12.0176 N   0  0  0  0  0  0  0  0  0  0  0  0
   -3.2096  -29.6363   -9.4090 C   0  0  1  0  0  0  0  0  0  0  0  0
   -3.1187  -30.4096  -16.7901 N   0  0  0  0  0  0  0  0  0  0  0  0
    0.0973  -31.1240  -17.8601 C   0  0  0  0  0  0  0  0  0  0  0  0
   -2.0661  -29.8255  -14.1169 C   0  0  0  0  0  0  0  0  0  0  0  0
   -2.9868  -29.5579  -12.3512 C   0  0  0  0  0  0  0  0  0  0  0  0
   -1.6654  -30.6372  -10.0654 C   0  0  1  0  0  0  0  0  0  0  0  0
   -2.1669  -29.9103  -11.3999 C   0  0  1  0  0  0  0  0  0  0  0  0
   -1.3597  -31.2508  -18.0717 C   0  0  0  0  0  0  0  0  0  0  0  0
  4  2  2  0
  5  1  1  6
  7  6  1  0
  8  2  1  0
  9  4  1  0
 12 10  2  0
 13  1  2  3
 13 11  1  0
 14  6  2  0
 15  5  1  0
 15  6  1  0
 15  7  1  1
 16  8  1  0
 17  9  2  0
 18  2  1  0
 18  3  1  0
 18 12  2  0
 19 14  1  0
 20  5  1  0
 20 15  1  0
 21  3  1  6
 21 19  1  0
 20 21  1  1
 22  8  2  0
 22 17  1  0
M  END
>  <ID>  (1) 
conformer_0

$$$$
