
     RDKit          3D

 23 27  0  0  0  0  0  0  0  0999 V2000
   -4.1141  -29.3932   -9.0035 C   0  0  0  0  0  0  0  0  0  0  0  0
   -3.8294  -30.2997   -7.3790 C   0  0  0  0  0  0  0  0  0  0  0  0
   -0.6702  -30.3682  -17.8386 C   0  0  0  0  0  0  0  0  0  0  0  0
    0.4963  -30.9110  -17.5469 C   0  0  0  0  0  0  0  0  0  0  0  0
   -2.6890  -29.7296  -10.3757 C   0  0  0  0  0  0  0  0  0  0  0  0
   -4.9903  -28.8945  -10.1229 C   0  0  0  0  0  0  0  0  0  0  0  0
   -3.7860  -29.2944  -11.2215 C   0  0  0  0  0  0  0  0  0  0  0  0
   -0.2232  -30.8025  -15.2462 C   0  0  0  0  0  0  0  0  0  0  0  0
   -3.6927  -30.2196   -6.1412 C   0  0  0  0  0  0  0  0  0  0  0  0
   -4.3175  -29.5510  -14.7318 O   0  0  0  0  0  0  0  0  0  0  0  0
   -3.2157  -29.4581  -12.8597 N   0  0  0  0  0  0  0  0  0  0  0  0
   -3.3155  -30.5658  -16.9219 N   0  0  0  0  0  0  0  0  0  0  0  0
   -3.0993  -29.9452  -15.1532 C   0  0  0  0  0  0  0  0  0  0  0  0
   -1.4700  -30.2913  -10.9192 C   0  0  0  0  0  0  0  0  0  0  0  0
   -1.9331  -30.7163  -17.1024 C   0  0  0  0  0  3  0  0  0  0  0  0
   -1.4022  -30.3369  -15.7484 C   0  0  0  0  0  0  0  0  0  0  0  0
   -2.7100  -30.9101   -5.3468 O   0  0  0  0  0  0  0  0  0  0  0  0
   -0.6093  -30.3339  -12.3906 C   0  0  0  0  0  0  0  0  0  0  0  0
   -2.3204  -29.7063  -12.8418 C   0  0  0  0  0  0  0  0  0  0  0  0
   -4.4022  -29.4441   -5.7467 O   0  0  0  0  0  0  0  0  0  0  0  0
    0.7261  -31.1865  -16.2035 C   0  0  0  0  0  0  0  0  0  0  0  0
   -1.4942  -30.1364  -13.7539 C   0  0  0  0  0  0  0  0  0  0  0  0
   -2.5303  -29.9775   -8.6935 C   0  0  0  0  0  0  0  0  0  0  0  0
  2  1  1  0
  4  3  2  0
  6  1  1  0
  7  5  2  0
  7  6  1  0
  9  2  1  0
 11  7  1  0
 13 10  2  0
 13 12  1  0
 14  5  1  0
 15  3  1  0
 15 12  1  0
 16  8  1  0
 16 13  1  0
 16 15  1  0
 17  9  1  0
 18 14  1  0
 19 11  1  0
 20  9  2  0
 21  4  1  0
 21  8  2  0
 22 16  1  0
 22 18  1  0
 22 19  2  0
 23  1  1  0
 23  2  1  0
 23  5  1  0
M  RAD  1  15   2
M  END
>  <ID>  (1) 
conformer_0

$$$$
