
     RDKit          3D

 23 27  0  0  0  0  0  0  0  0999 V2000
   -2.1503  -30.2176   -9.2118 C   0  0  0  0  0  0  0  0  0  0  0  0
   -0.0499  -30.9791  -17.7161 C   0  0  0  0  0  0  0  0  0  0  0  0
   -1.3524  -31.1025  -18.0438 C   0  0  0  0  0  0  0  0  0  0  0  0
   -1.7920  -30.2986  -10.9793 C   0  0  1  0  0  0  0  0  0  0  0  0
   -5.0658  -28.3853   -9.5921 C   0  0  0  0  0  0  0  0  0  0  0  0
   -2.6642  -29.6135  -12.2428 C   0  0  1  0  0  0  0  0  0  0  0  0
   -1.9905  -29.8812  -14.0222 C   0  0  0  0  0  0  0  0  0  0  0  0
   -2.1780  -30.7371  -16.7489 C   0  0  0  0  0  3  0  0  0  0  0  0
   -3.7585  -29.2625  -12.3119 N   0  0  0  0  0  0  0  0  0  0  0  0
   -0.3639  -30.6733  -15.3956 C   0  0  0  0  0  0  0  0  0  0  0  0
   -4.2549  -29.7135  -15.0486 O   0  0  0  0  0  0  0  0  0  0  0  0
   -3.1793  -29.7307  -14.6510 C   0  0  0  0  0  0  0  0  0  0  0  0
   -3.8539  -30.0830   -5.7734 O   0  0  0  0  0  0  0  0  0  0  0  0
   -3.1069  -30.4272   -6.4701 C   0  0  0  0  0  0  0  0  0  0  0  0
   -3.2613  -30.7028  -16.7184 N   0  0  0  0  0  0  0  0  0  0  0  0
   -2.2170  -31.4068   -5.5907 O   0  0  0  0  0  0  0  0  0  0  0  0
   -1.3546  -29.8983  -12.5834 C   0  0  2  0  0  0  0  0  0  0  0  0
   -1.5761  -30.3904  -15.4003 C   0  0  2  0  0  0  0  0  0  0  0  0
   -3.9788  -29.2089  -10.6622 C   0  0  0  0  0  0  0  0  0  0  0  0
   -3.5669  -29.4438   -9.9384 C   0  0  0  0  0  0  0  0  0  0  0  0
   -3.8081  -29.1794   -8.2049 C   0  0  0  0  0  0  0  0  0  0  0  0
   -2.4637  -30.5244   -7.6293 C   0  0  0  0  0  3  0  0  0  0  0  0
    0.3989  -30.9494  -16.4674 C   0  0  0  0  0  0  0  0  0  0  0  0
  3  2  2  0
  4  1  1  1
  6  4  1  0
  7  6  1  0
  8  3  1  0
  6  9  1  6
 12  7  1  0
 12 11  2  0
 14 13  2  0
 15  8  1  0
 16 14  1  0
 17  4  1  0
 17  6  1  0
 17  7  1  6
 18  7  1  0
 18  8  1  1
 18 10  1  0
 18 12  1  0
 19  5  1  0
 19  9  1  0
 20  1  1  0
 20 19  2  0
 21 20  1  0
 22  1  2  3
 22 14  1  0
 23  2  1  0
 23 10  2  0
M  RAD  2   8   2  22   2
M  END
>  <ID>  (1) 
conformer_0

$$$$
