
     RDKit          3D

 19 21  0  0  0  0  0  0  0  0999 V2000
   -2.0313  -30.0379   -7.5238 C   0  0  0  0  0  0  0  0  0  0  0  0
   -1.1969  -31.1501  -18.0506 C   0  0  0  0  0  0  0  0  0  0  0  0
   -1.6816  -29.9157  -13.6871 C   0  0  0  0  0  0  0  0  0  0  0  0
    0.1789  -31.2002  -17.4633 C   0  0  0  0  0  0  0  0  0  0  0  0
   -2.4349  -29.8913  -10.0363 C   0  0  0  0  0  0  0  0  0  0  0  0
   -1.5229  -30.0045  -12.0190 C   0  0  0  0  0  0  0  0  0  0  0  0
   -4.1314  -29.1413  -10.3962 C   0  0  0  0  0  0  0  0  0  0  0  0
    0.0387  -30.8854  -16.0281 C   0  0  0  0  0  0  0  0  0  0  0  0
   -3.9388  -29.3992  -14.8281 O   0  0  0  0  0  0  0  0  0  0  0  0
   -3.7892  -29.1778  -11.9923 N   0  0  0  0  0  0  0  0  0  0  0  0
   -3.4727  -30.3506   -6.5979 C   0  0  0  0  0  0  0  0  0  0  0  0
   -3.0059  -29.7044  -14.7479 C   0  0  0  0  0  0  0  0  0  0  0  0
   -4.1936  -29.9427   -5.4281 O   0  0  0  0  0  0  0  0  0  0  0  0
   -2.2346  -30.7371  -16.9408 C   0  0  0  0  0  0  0  0  0  0  0  0
   -4.6790  -29.0860   -9.5417 C   0  0  0  0  0  0  0  0  0  0  0  0
   -3.3926  -30.3241  -16.6900 N   0  0  0  0  0  0  0  0  0  0  0  0
   -1.2538  -30.5375  -15.7187 C   0  0  0  0  0  0  0  0  0  0  0  0
   -3.4185  -29.7515   -8.3778 C   0  0  0  0  0  0  0  0  0  0  0  0
   -2.8374  -29.5703  -12.0755 C   0  0  0  0  0  0  0  0  0  0  0  0
  4  2  2  0
  6  3  1  0
  7  5  1  0
  8  4  1  0
 10  7  1  0
 11  1  1  0
 12  3  1  0
 12  9  2  0
 13 11  1  0
 14  2  1  0
 15  7  1  0
 16 12  1  0
 16 14  1  0
 17  8  2  0
 17 14  1  0
 18  1  1  0
 18  5  1  0
 18 11  1  0
 18 15  1  0
 19  6  1  0
 19 10  1  0
M  END
>  <ID>  (1) 
conformer_0

$$$$
