
     RDKit          3D

 23 31  0  0  0  0  0  0  0  0999 V2000
   -0.1575  -30.6997  -14.9573 C   0  0  0  0  0  0  0  0  0  0  0  0
   -3.6413  -29.6988   -7.7604 C   0  0  0  0  0  0  0  0  0  0  0  0
   -2.3688  -29.4282   -8.8321 C   0  0  0  0  0  0  0  0  0  0  0  0
    0.9154  -31.3925  -16.4106 C   0  0  0  0  0  0  0  0  0  0  0  0
   -3.9416  -29.1957  -10.5109 C   0  0  0  0  0  0  0  0  0  0  0  0
   -4.7072  -29.8400   -7.1305 C   0  0  0  0  0  0  0  0  0  0  0  0
    0.0454  -31.1846  -17.9781 C   0  0  0  0  0  0  0  0  0  0  0  0
   -3.9819  -29.3269   -9.4955 C   0  0  0  0  0  0  0  0  0  0  0  0
   -2.9583  -29.7233  -14.3836 C   0  0  0  0  0  0  0  0  0  0  0  0
   -4.2258  -29.4219  -14.7637 O   0  0  0  0  0  0  0  0  0  0  0  0
   -2.1556  -30.6264  -16.8034 C   0  0  0  0  0  0  0  0  0  0  0  0
   -3.4780  -29.3949  -12.1237 N   0  0  0  0  0  0  0  0  0  0  0  0
   -4.9801  -29.3972   -5.7586 O   0  0  0  0  0  0  0  0  0  0  0  0
   -0.9387  -30.3733  -12.0431 C   0  0  0  0  0  0  0  0  0  0  0  0
   -3.1753  -30.1369  -16.6872 N   0  0  0  0  0  0  0  0  0  0  0  0
   -2.8737  -30.6613   -5.6391 O   0  0  0  0  0  0  0  0  0  0  0  0
   -1.6140  -31.2579  -17.8909 C   0  0  0  0  0  0  0  0  0  0  0  0
   -2.3849  -29.8028  -11.9573 C   0  0  0  0  0  0  0  0  0  0  0  0
   -1.7440  -29.9008  -13.6637 C   0  0  0  0  0  0  0  0  0  0  0  0
   -1.9615  -30.1303  -10.6398 C   0  0  0  0  0  0  0  0  0  0  0  0
   -0.4248  -30.8819  -16.3234 C   0  0  0  0  0  0  0  0  0  0  0  0
   -1.8690  -30.3682  -15.2985 C   0  0  0  0  0  0  0  0  0  0  0  0
   -3.6060  -30.4493   -5.6453 C   0  0  0  0  0  0  0  0  0  0  0  0
  3  2  1  0
  4  1  2  0
  6  2  1  0
  7  4  1  0
  8  2  1  0
  8  3  1  0
  8  5  1  0
 10  9  1  0
 12  5  1  0
 13  6  1  0
 15 11  1  0
 17  7  1  0
 17 11  1  0
 18 12  1  0
 18 14  1  0
 19  9  1  0
 19 14  1  0
 19 18  1  0
 20 14  1  0
 20 18  1  0
 21  1  1  0
 21  4  1  0
 21  7  1  0
 21 11  1  0
 22  1  1  0
 22  9  1  0
 22 11  1  0
 22 19  1  0
 23  6  1  0
 23 13  1  0
 23 16  1  0
M  END
>  <ID>  (1) 
conformer_0

$$$$
