
     RDKit          3D

 24 28  0  0  0  0  0  0  0  0999 V2000
   -0.1950  -31.0076  -14.9595 C   0  0  0  0  0  0  0  0  0  0  0  0
   -0.8635  -30.0373  -12.9434 C   0  0  0  0  0  0  0  0  0  0  0  0
   -2.3372  -30.4655   -8.0604 C   0  0  0  0  0  0  0  0  0  0  0  0
    0.6025  -31.7122  -16.4700 C   0  0  0  0  0  0  0  0  0  0  0  0
   -1.9147  -29.8608  -11.7617 C   0  0  0  0  0  0  0  0  0  0  0  0
   -5.1041  -28.8609   -9.4976 C   0  0  0  0  0  0  0  0  0  0  0  0
   -3.9371  -29.1042  -10.6719 C   0  0  0  0  0  0  0  0  0  0  0  0
   -0.0163  -30.8473  -18.1625 C   0  0  0  0  0  0  0  0  0  0  0  0
   -3.3037  -29.8529  -14.8201 C   0  0  0  0  0  0  0  0  0  0  0  0
   -2.0574  -30.6887  -16.6771 C   0  0  0  0  0  0  0  0  0  0  0  0
   -4.4139  -29.6417  -14.7330 O   0  0  0  0  0  0  0  0  0  0  0  0
   -3.4244  -30.4588   -6.6147 C   0  0  0  0  0  0  0  0  0  0  0  0
   -3.7993  -29.1296  -12.2253 N   0  0  0  0  0  0  0  0  0  0  0  0
   -3.2599  -30.5123  -16.6411 N   0  0  0  0  0  0  0  0  0  0  0  0
   -4.2672  -30.3301   -5.9077 O   0  0  0  0  0  0  0  0  0  0  0  0
   -2.1859  -29.9481  -13.9529 C   0  0  0  0  0  0  0  0  0  0  0  0
   -1.4120  -30.7467  -17.8666 C   0  0  0  0  0  0  0  0  0  0  0  0
   -2.6271  -30.8281   -5.7882 O   0  0  0  0  0  0  0  0  0  0  0  0
   -2.0428  -30.0403   -9.8566 C   0  0  0  0  0  0  0  0  0  0  0  0
   -3.9728  -29.9992   -8.1548 C   0  0  0  0  0  0  0  0  0  0  0  0
   -2.9119  -29.4751  -12.4589 C   0  0  0  0  0  0  0  0  0  0  0  0
    0.4598  -30.5952  -16.5836 C   0  0  0  0  0  0  0  0  0  0  0  0
   -1.4945  -30.5085  -15.4176 C   0  0  0  0  0  0  0  0  0  0  0  0
   -3.5389  -29.5051   -9.9200 C   0  0  0  0  0  0  0  0  0  0  0  0
  5  2  1  0
  7  6  1  0
 11  9  2  0
 12  3  1  0
 13  7  2  0
 14 10  1  0
 15 12  1  0
 16  2  1  0
 16  9  1  0
 17  8  2  0
 17 10  1  0
 18 12  1  0
 19  3  1  0
 19  5  1  0
 20  3  1  0
 20 12  1  0
 21  5  2  0
 21 13  1  0
 21 16  1  0
 22  1  2  0
 22  4  1  0
 22  8  1  0
 23  1  1  0
 23 10  2  0
 23 16  1  0
 24  7  1  0
 24 19  2  0
 24 20  1  0
M  END
>  <ID>  (1) 
conformer_0

$$$$
