
     RDKit          3D

 22 25  0  0  0  0  0  0  0  0999 V2000
   -3.4058  -29.4182   -9.3450 C   0  0  0  0  0  0  0  0  0  0  0  0
   -0.4610  -31.1136  -18.0386 C   0  0  0  0  0  0  0  0  0  0  0  0
   -1.9306  -29.9464   -9.5271 C   0  0  1  0  0  0  0  0  0  0  0  0
    0.5859  -31.1501  -16.9910 C   0  0  0  0  0  0  0  0  0  0  0  0
   -2.4414  -30.2375   -7.9297 C   0  0  2  0  0  0  0  0  0  0  0  0
   -4.9076  -28.8798   -9.6199 C   0  0  0  0  0  0  0  0  0  0  0  0
   -2.7324  -29.5709  -12.3033 C   0  0  0  0  0  0  0  0  0  0  0  0
   -2.8388  -29.8578  -14.6195 C   0  0  0  0  0  0  0  0  0  0  0  0
   -1.9161  -30.9183  -17.0971 C   0  0  2  0  0  0  0  0  0  0  0  0
   -3.8192  -30.3654   -6.6039 C   0  0  0  0  0  0  0  0  0  0  0  0
   -4.1238  -29.8100  -14.7416 O   0  0  0  0  0  0  0  0  0  0  0  0
    0.0433  -31.0224  -15.7143 C   0  0  0  0  0  0  0  0  0  0  0  0
   -3.6378  -29.2324  -12.6585 N   0  0  0  0  0  0  0  0  0  0  0  0
   -0.9002  -30.1712  -12.6805 C   0  0  0  0  0  0  0  0  0  0  0  0
   -4.4669  -30.1509   -7.8051 C   0  0  0  0  0  0  0  0  0  0  0  0
   -4.6835  -29.5373   -5.7509 O   0  0  0  0  0  0  0  0  0  0  0  0
   -3.2137  -30.8320  -17.0469 O   0  0  0  0  0  0  0  0  0  0  0  0
   -3.2197  -30.8301   -5.6327 O   0  0  0  0  0  0  0  0  0  0  0  0
   -1.3398  -30.5989  -15.5556 C   0  0  0  0  0  0  0  0  0  0  0  0
   -4.1524  -29.1121  -10.7707 C   0  0  0  0  0  0  0  0  0  0  0  0
   -1.7232  -29.9610  -13.9266 C   0  0  1  0  0  0  0  0  0  0  0  0
   -2.0897  -29.8701  -11.2922 C   0  0  1  0  0  0  0  0  0  0  0  0
  3  1  1  1
  4  2  2  0
  5  1  1  0
  5  3  1  0
  6  1  1  0
  9  2  1  0
  5 10  1  6
 11  8  1  0
 12  4  1  0
 13  7  2  3
 15 10  1  0
 16 10  1  0
  9 17  1  6
 18 10  1  0
 19  9  1  0
 19 12  2  0
 20  1  1  0
 20  6  1  0
 21  7  1  0
 21  8  1  1
 21 14  1  0
 21 19  1  0
 22  3  1  0
 22  7  1  0
 22 14  1  1
M  END
>  <ID>  (1) 
conformer_0

$$$$
