
     RDKit          3D

 21 25  0  0  0  0  0  0  0  0999 V2000
   -3.1811  -29.7746   -7.5255 C   0  0  2  0  0  0  0  0  0  0  0  0
   -0.1429  -30.8635  -15.6962 C   0  0  0  0  0  3  0  0  0  0  0  0
   -1.7409  -30.5076   -8.2910 C   0  0  1  0  0  0  0  0  0  0  0  0
   -1.5223  -30.3512  -10.1479 C   0  0  0  0  0  0  0  0  0  0  0  0
   -1.3846  -30.4663  -15.4754 C   0  0  0  0  0  0  0  0  0  0  0  0
   -2.0713  -30.6429  -17.0589 C   0  0  0  0  0  0  0  0  0  0  0  0
   -4.6802  -28.8436   -9.5803 C   0  0  0  0  0  0  0  0  0  0  0  0
   -3.9304  -29.2697  -10.5808 C   0  0  1  0  0  0  0  0  0  0  0  0
   -4.3549  -29.7078  -14.8993 O   0  0  0  0  0  0  0  0  0  0  0  0
   -3.5937  -29.3291  -12.6163 N   0  0  0  0  0  0  0  0  0  0  0  0
    0.3233  -31.2273  -16.8725 C   0  0  0  0  0  0  0  0  0  0  0  0
   -3.4797  -30.2501   -6.6166 C   0  0  0  0  0  0  0  0  0  0  0  0
   -3.0684  -29.8154  -14.7024 C   0  0  1  0  0  0  0  0  0  0  0  0
   -3.1235  -30.4155  -17.0846 N   0  0  0  0  0  0  0  0  0  0  0  0
   -3.3376  -30.6965   -5.4470 O   0  0  0  0  0  0  0  0  0  0  0  0
   -1.6882  -29.9685  -14.0187 C   0  0  1  0  0  0  0  0  0  0  0  0
   -2.8390  -29.3778   -9.2679 C   0  0  2  0  0  0  0  0  0  0  0  0
   -0.6904  -31.1579  -17.9482 C   0  0  0  0  0  0  0  0  0  0  0  0
   -2.5195  -29.6656  -12.4673 C   0  0  0  0  0  0  0  0  0  0  0  0
   -2.7397  -29.8189  -10.9814 C   0  0  2  0  0  0  0  0  0  0  0  0
   -1.2699  -30.0227  -12.4583 C   0  0  0  0  0  0  0  0  0  0  0  0
  3  1  1  0
  3  4  1  6
  5  2  1  0
  6  5  1  0
  8  7  1  1
 11  2  1  0
  1 12  1  6
 13  5  1  0
 13  9  1  1
 14  6  1  0
 15 12  1  0
 16  5  1  0
 16 13  1  0
 17  1  1  6
 17  3  1  0
 17  8  1  0
 18  6  2  0
 18 11  1  0
 19 10  2  3
 20  4  1  1
 20  8  1  0
 20 17  1  0
 20 19  1  0
 16 21  1  1
 21 19  1  0
M  RAD  1   2   2
M  END
>  <ID>  (1) 
conformer_0

$$$$
