
     RDKit          3D

 24 25  0  0  0  0  0  0  0  0999 V2000
   -0.0373  -30.7355  -16.0340 C   0  0  0  0  0  0  0  0  0  0  0  0
   -0.9090  -30.0809  -12.6152 C   0  0  0  0  0  0  0  0  0  0  0  0
   -2.3381  -30.4481   -6.8896 C   0  0  0  0  0  0  0  0  0  0  0  0
   -1.3039  -30.3895  -15.8068 C   0  0  0  0  0  0  0  0  0  0  0  0
   -3.2895  -29.5335   -9.7714 C   0  0  0  0  0  0  0  0  0  0  0  0
   -3.6701  -29.3730   -8.5966 C   0  0  0  0  0  0  0  0  0  0  0  0
   -2.4576  -29.6174  -12.7574 C   0  0  0  0  0  0  0  0  0  0  0  0
   -1.9966  -29.8727  -13.6815 C   0  0  0  0  0  0  0  0  0  0  0  0
    0.5545  -30.9409  -17.2062 C   0  0  0  0  0  0  0  0  0  0  0  0
   -2.1098  -30.4932  -16.8893 C   0  0  0  0  0  0  0  0  0  0  0  0
   -4.1483  -29.6917  -15.2385 O   0  0  0  0  0  0  0  0  0  0  0  0
   -4.8803  -29.4018   -6.1169 O   0  0  0  0  0  0  0  0  0  0  0  0
   -3.3415  -30.8694   -5.1781 O   0  0  0  0  0  0  0  0  0  0  0  0
   -4.0248  -30.1911   -6.5839 C   0  0  0  0  0  0  0  0  0  0  0  0
   -3.7516  -29.3764  -12.3318 N   0  0  0  0  0  0  0  0  0  0  0  0
   -4.9564  -28.6478   -9.9251 C   0  0  0  0  0  0  0  0  0  0  0  0
   -0.8147  -30.3550  -11.2376 C   0  0  0  0  0  0  0  0  0  0  0  0
   -0.2138  -30.8758  -18.3092 C   0  0  0  0  0  0  0  0  0  0  0  0
   -3.0724  -30.2820  -16.8300 N   0  0  0  0  0  0  0  0  0  0  0  0
   -3.1158  -29.7069  -14.8715 C   0  0  0  0  0  0  0  0  0  0  0  0
   -3.9394  -29.1733  -11.5486 C   0  0  0  0  0  0  0  0  0  0  0  0
   -1.8840  -30.1036   -8.3459 C   0  0  0  0  0  0  0  0  0  0  0  0
   -2.5150  -29.5303  -10.7182 C   0  0  0  0  0  0  0  0  0  0  0  0
   -1.6281  -31.0043  -18.2193 C   0  0  0  0  0  0  0  0  0  0  0  0
  4  1  2  0
  6  5  1  0
  8  2  1  0
  8  7  2  0
  9  1  1  0
 10  4  1  0
 14  3  1  0
 14 12  1  0
 14 13  1  0
 15  7  1  0
 16  5  1  0
 17  2  1  0
 18  9  2  0
 19 10  1  0
 20  8  1  0
 20 11  2  0
 20 19  1  0
 21 15  1  0
 22  3  1  0
 22  6  1  0
 23  5  1  0
 23 17  1  0
 23 21  1  0
 24 10  2  0
 24 18  1  0
M  END
>  <ID>  (1) 
conformer_0

$$$$
