
     RDKit          3D

 22 27  0  0  0  0  0  0  0  0999 V2000
   -2.1649  -29.8600   -9.1152 C   0  0  0  0  0  0  0  0  0  0  0  0
   -1.3126  -30.1431  -11.6878 C   0  0  0  0  0  0  0  0  0  0  0  0
   -0.0200  -30.9271  -17.8254 C   0  0  0  0  0  0  0  0  0  0  0  0
    0.2252  -30.9196  -16.4667 C   0  0  0  0  0  0  0  0  0  0  0  0
   -2.7153  -29.6773  -10.6817 C   0  0  0  0  0  0  0  0  0  0  0  0
   -4.0051  -28.8058  -11.5965 N   0  0  0  0  0  0  0  0  0  0  0  0
   -4.7966  -28.8487   -9.7165 C   0  0  0  0  0  0  0  0  0  0  0  0
   -3.9203  -29.0610  -10.7503 C   0  0  0  0  0  0  0  0  0  0  0  0
   -2.0691  -30.6648  -16.6086 C   0  0  0  0  0  0  0  0  0  0  0  0
   -3.3681  -29.7558  -14.7162 C   0  0  0  0  0  0  0  0  0  0  0  0
   -4.3732  -29.4650  -14.8229 O   0  0  0  0  0  1  0  0  0  0  0  0
   -3.3774  -30.3556  -16.4523 N   0  0  0  0  0  0  0  0  0  0  0  0
   -3.4422  -30.3620   -6.4776 C   0  0  0  0  0  0  0  0  0  0  0  0
   -3.0370  -30.9255   -5.6064 O   0  0  0  0  0  0  0  0  0  0  0  0
   -1.0740  -29.9786  -13.2216 C   0  0  0  0  0  0  0  0  0  0  0  0
   -1.0524  -30.5090  -15.6507 C   0  0  0  0  0  0  0  0  0  0  0  0
   -1.9556  -29.9128  -14.2566 C   0  0  0  0  0  0  0  0  0  0  0  0
   -2.6557  -29.5993  -12.3973 C   0  0  0  0  0  0  0  0  0  0  0  0
   -1.3775  -31.0045  -18.0931 C   0  0  0  0  0  0  0  0  0  0  0  0
   -3.7659  -29.5525   -8.5474 C   0  0  0  0  0  0  0  0  0  0  0  0
   -2.5507  -30.3424   -7.2222 C   0  0  0  0  0  0  0  0  0  0  0  0
   -3.7030  -29.3792  -13.1023 N   0  0  0  0  0  0  0  0  0  0  0  0
  4  3  2  0
  5  1  1  0
  5  2  1  0
  8  5  1  0
  8  6  1  0
  8  7  1  0
 11 10  1  0
 12  9  1  0
 12 10  1  0
 14 13  1  0
 15  2  1  0
 16  4  1  0
 16  9  2  0
 17 10  1  0
 17 15  1  0
 17 16  1  0
 18  2  1  0
 18  5  1  0
 19  3  1  0
 19  9  1  0
 20  1  1  0
 20  7  1  0
 21 13  1  0
 21 20  1  0
 22  6  1  0
 22 10  1  0
 22 18  1  0
M  RAD  1  11   2
M  END
>  <ID>  (1) 
conformer_0

$$$$
