
     RDKit          3D

 22 26  0  0  0  0  0  0  0  0999 V2000
   -1.5005  -30.4105  -15.4526 C   0  0  0  0  0  0  0  0  0  0  0  0
   -2.2614  -30.4693   -8.1832 C   0  0  0  0  0  0  0  0  0  0  0  0
   -0.3280  -30.8180  -15.4663 C   0  0  0  0  0  0  0  0  0  0  0  0
   -2.7598  -29.6457   -9.8123 C   0  0  0  0  0  0  0  0  0  0  0  0
   -4.2909  -29.0453  -10.6703 C   0  0  0  0  0  0  0  0  0  0  0  0
   -1.7385  -29.8174  -13.9424 C   0  0  0  0  0  0  0  0  0  0  0  0
   -0.1243  -31.1960  -17.8216 C   0  0  0  0  0  0  0  0  0  0  0  0
   -4.4390  -30.2715   -6.2847 O   0  0  0  0  0  0  0  0  0  0  0  0
   -2.8961  -29.6908  -14.1827 C   0  0  0  0  0  0  0  0  0  0  0  0
   -3.4283  -30.5388   -6.4934 C   0  0  0  0  0  0  0  0  0  0  0  0
   -4.2134  -29.5643  -14.2861 O   0  0  0  0  0  0  0  0  0  0  0  0
   -3.7525  -29.2316  -11.9847 N   0  0  0  0  0  0  0  0  0  0  0  0
   -2.2530  -30.6454  -16.6274 C   0  0  0  0  0  0  0  0  0  0  0  0
   -3.7284  -29.9339   -8.3370 C   0  0  0  0  0  0  0  0  0  0  0  0
   -3.3601  -30.2040  -16.4032 N   0  0  0  0  0  0  0  0  0  0  0  0
   -2.6816  -31.0899   -5.1709 O   0  0  0  0  0  0  0  0  0  0  0  0
   -1.5002  -31.0668  -17.8654 C   0  0  0  0  0  0  0  0  0  0  0  0
   -4.6661  -28.9169   -9.7219 C   0  0  0  0  0  0  0  0  0  0  0  0
   -2.6712  -29.5790  -11.8467 C   0  0  0  0  0  0  0  0  0  0  0  0
    0.5272  -31.2253  -16.4418 C   0  0  0  0  0  0  0  0  0  0  0  0
   -1.7196  -30.1379  -10.6188 C   0  0  0  0  0  0  0  0  0  0  0  0
   -1.2094  -29.8949  -12.4675 C   0  0  0  0  0  0  0  0  0  0  0  0
  3  1  2  0
  4  2  1  0
  5  4  1  0
  6  1  1  0
  9  6  2  0
 10  8  2  0
 11  9  2  0
 12  5  1  0
 13  1  1  0
 14  2  1  0
 14  4  1  0
 14 10  1  0
 15 13  1  0
 16 10  1  0
 17  7  1  0
 17 13  2  0
 18  5  1  0
 18 14  1  0
 19 12  1  0
 20  3  1  0
 20  7  2  0
 21  4  1  0
 21 19  1  0
 22  6  1  0
 22 19  1  0
 22 21  1  0
M  END
>  <ID>  (1) 
conformer_0

$$$$
