
     RDKit          3D

 21 23  0  0  0  0  0  0  0  0999 V2000
   -4.7025  -28.9729   -9.3307 C   0  0  0  0  0  0  0  0  0  0  0  0
   -1.0498  -30.7021  -15.5972 C   0  0  0  0  0  0  0  0  0  0  0  0
   -1.8035  -30.1133  -10.8115 C   0  0  0  0  0  0  0  0  0  0  0  0
    0.1852  -31.1215  -15.7815 C   0  0  0  0  0  0  0  0  0  0  0  0
   -2.4584  -29.8116   -8.3969 C   0  0  0  0  0  0  0  0  0  0  0  0
   -3.8354  -29.2381  -10.7645 C   0  0  0  0  0  0  0  0  0  0  0  0
   -3.7990  -30.3003   -6.1978 C   0  0  0  0  0  0  0  0  0  0  0  0
   -3.8770  -29.1730  -12.1760 N   0  0  0  0  0  0  0  0  0  0  0  0
   -3.0976  -29.5744   -9.9125 C   0  0  0  0  0  0  0  0  0  0  0  0
   -1.8696  -30.8087  -17.0106 C   0  0  0  0  0  0  0  0  0  0  0  0
   -3.1139  -29.8315  -14.8642 C   0  0  0  0  0  0  0  0  0  0  0  0
    0.6222  -31.2007  -17.0661 C   0  0  0  0  0  0  0  0  0  0  0  0
   -4.3309  -30.3376   -5.8179 O   0  0  0  0  0  0  0  0  0  0  0  0
   -4.3585  -29.5957  -14.5957 O   0  0  0  0  0  0  0  0  0  0  0  0
   -3.3561  -29.9712  -15.9522 N   0  0  0  0  0  0  0  0  0  0  0  0
   -1.5927  -29.9243  -12.7180 C   0  0  2  0  0  0  0  0  0  0  0  0
   -0.3873  -30.9186  -18.0192 C   0  0  0  0  0  0  0  0  0  0  0  0
   -2.6638  -31.0455  -17.4160 N   0  0  0  0  0  0  0  0  0  0  0  0
   -2.6819  -29.5233  -12.4402 C   0  0  0  0  0  0  0  0  0  0  0  0
   -1.8890  -29.9544  -14.1751 C   0  0  1  0  0  0  0  0  0  0  0  0
   -3.9433  -29.8486   -7.9364 C   0  0  1  0  0  0  0  0  0  0  0  0
  4  2  2  0
  6  1  1  0
  8  6  1  0
  9  3  1  0
  9  5  1  0
  9  6  2  0
 10  2  1  0
 12  4  1  0
 13  7  2  0
 14 11  2  0
 15 11  1  0
 16  3  1  1
 17 10  1  0
 17 12  2  0
 18 10  2  3
 19  8  1  0
 19 16  1  0
 20  2  1  0
 20 11  1  1
 20 16  1  0
 21  1  1  0
 21  5  1  0
 21  7  1  1
M  END
>  <ID>  (1) 
conformer_0

$$$$
