
     RDKit          3D

 20 22  0  0  0  0  0  0  0  0999 V2000
    0.3360  -31.2239  -16.1276 C   0  0  0  0  0  0  0  0  0  0  0  0
   -3.1618  -29.8943   -7.9464 C   0  0  0  0  0  0  0  0  0  0  0  0
   -0.7882  -30.6381  -15.6788 C   0  0  0  0  0  0  0  0  0  0  0  0
   -2.2361  -30.0225   -9.9606 C   0  0  0  0  0  0  0  0  0  0  0  0
   -1.7691  -30.0120  -11.7943 C   0  0  0  0  0  0  0  0  0  0  0  0
   -2.8897  -29.5512  -12.1792 C   0  0  0  0  0  0  0  0  0  0  0  0
   -3.2021  -29.7449  -14.5285 C   0  0  0  0  0  0  0  0  0  0  0  0
   -1.7097  -29.9513  -13.8496 C   0  0  0  0  0  0  0  0  0  0  0  0
   -3.5158  -30.3338   -6.5279 C   0  0  0  0  0  0  0  0  0  0  0  0
    0.5315  -31.1021  -17.5004 C   0  0  0  0  0  0  0  0  0  0  0  0
   -3.9497  -29.2101  -11.9186 N   0  0  0  0  0  0  0  0  0  0  0  0
   -1.7451  -30.4468  -16.7772 C   0  0  0  0  0  0  0  0  0  0  0  0
   -4.1601  -29.7888  -14.9002 O   0  0  0  0  0  0  0  0  0  0  0  0
   -4.6143  -30.0145   -5.7537 O   0  0  0  0  0  0  0  0  0  0  0  0
   -2.5587  -31.0008   -5.8691 O   0  0  0  0  0  0  0  0  0  0  0  0
   -2.8750  -29.9180  -16.1012 N   0  0  0  0  0  0  0  0  0  0  0  0
   -3.5382  -29.3733   -9.0266 C   0  0  0  0  0  0  0  0  0  0  0  0
   -0.7502  -30.6871  -18.2334 C   0  0  0  0  0  0  0  0  0  0  0  0
   -4.0133  -29.1549  -10.6508 C   0  0  0  0  0  0  0  0  0  0  0  0
   -4.9507  -28.7045   -9.6361 C   0  0  0  0  0  0  0  0  0  0  0  0
  3  1  2  0
  5  4  1  0
  6  5  1  0
  8  5  1  0
  8  7  1  0
  9  2  1  0
 10  1  1  0
 11  6  2  0
 12  3  1  0
 13  7  2  0
 14  9  2  0
 15  9  1  0
 16  7  1  0
 16 12  1  0
 17  2  1  0
 17  4  1  0
 18 10  1  0
 18 12  2  0
 19 11  1  0
 19 17  1  0
 20 17  1  0
 20 19  1  0
M  END
>  <ID>  (1) 
conformer_0

$$$$
