
     RDKit          3D

 23 27  0  0  0  0  0  0  0  0999 V2000
    0.5468  -31.0458  -16.9559 C   0  0  0  0  0  0  0  0  0  0  0  0
   -2.2395  -30.6186   -7.6065 C   0  0  0  0  0  0  0  0  0  0  0  0
   -1.8959  -29.8340  -14.3878 C   0  0  0  0  0  0  0  0  0  0  0  0
   -0.2887  -31.1647  -18.2018 C   0  0  0  0  0  0  0  0  0  0  0  0
   -3.5795  -30.0642   -8.1823 C   0  0  0  0  0  0  0  0  0  0  0  0
   -1.9747  -29.9773   -9.2428 C   0  0  0  0  0  0  0  0  0  0  0  0
   -3.9341  -29.3112  -10.6518 C   0  0  0  0  0  0  0  0  0  0  0  0
   -3.5094  -29.2762  -12.3311 N   0  0  0  0  0  0  0  0  0  0  0  0
   -1.4360  -30.4853  -15.7121 C   0  0  0  0  0  0  0  0  0  0  0  0
   -4.2142  -29.3905  -14.9064 O   0  0  0  0  0  0  0  0  0  0  0  0
   -3.0924  -29.5959  -14.6837 C   0  0  0  0  0  0  0  0  0  0  0  0
   -2.1786  -30.7517  -16.8796 C   0  0  0  0  0  0  0  0  0  0  0  0
   -3.5411  -30.4715   -6.3439 C   0  0  0  0  0  0  0  0  0  0  0  0
   -4.5844  -30.0082   -6.0788 O   0  0  0  0  0  0  0  0  0  0  0  0
   -3.2811  -30.4418  -16.7130 N   0  0  0  0  0  0  0  0  0  0  0  0
   -2.5801  -31.0799   -5.3206 O   0  0  0  0  0  0  0  0  0  0  0  0
   -5.3963  -28.5438   -9.8583 C   0  0  0  0  0  0  0  0  0  0  0  0
   -1.2879  -29.9027  -12.9433 C   0  0  0  0  0  0  0  0  0  0  0  0
   -0.2121  -30.7516  -15.8470 C   0  0  0  0  0  0  0  0  0  0  0  0
   -1.6495  -31.3287  -18.1086 C   0  0  0  0  0  0  0  0  0  0  0  0
   -2.6288  -29.5345  -12.2451 C   0  0  0  0  0  0  0  0  0  0  0  0
   -3.7447  -29.3683   -9.7189 C   0  0  0  0  0  0  0  0  0  0  0  0
   -1.9047  -30.0892  -10.9321 C   0  0  0  0  0  0  0  0  0  0  0  0
  4  1  2  0
  5  2  1  0
  6  2  1  0
  6  5  1  0
  8  7  1  0
  9  3  1  0
 11  3  2  0
 11 10  2  0
 12  9  1  0
 13  2  1  0
 13  5  1  0
 14 13  1  0
 15 12  1  0
 16 13  1  0
 17  7  1  0
 18  3  1  0
 19  1  1  0
 19  9  2  0
 20  4  1  0
 20 12  2  0
 21  8  1  0
 21 18  1  0
 22  5  1  0
 22  6  1  0
 22  7  1  0
 23  6  1  0
 23 21  1  0
M  END
>  <ID>  (1) 
conformer_0

$$$$
