
     RDKit          3D

 19 20  0  0  0  0  0  0  0  0999 V2000
   -1.4757  -30.2128  -10.8252 C   0  0  0  0  0  0  0  0  0  0  0  0
    0.0653  -31.1479  -17.3754 C   0  0  0  0  0  0  0  0  0  0  0  0
   -3.1774  -29.9567   -7.9710 C   0  0  0  0  0  3  0  0  0  0  0  0
   -1.0630  -30.1323  -12.1578 C   0  0  2  0  0  0  0  0  0  0  0  0
    0.1255  -30.9438  -16.0319 C   0  0  0  0  0  0  0  0  0  0  0  0
   -2.7322  -29.5306  -12.2554 C   0  0  1  0  0  0  0  0  0  0  0  0
   -2.8322  -29.8433   -9.3592 C   0  0  0  0  0  0  0  0  0  0  0  0
   -1.8494  -31.0888  -17.2728 C   0  0  0  0  0  0  0  0  0  0  0  0
   -3.7386  -30.1519   -6.2491 C   0  0  0  0  0  0  0  0  0  0  0  0
   -4.0968  -29.7272  -15.1319 O   0  0  0  0  0  0  0  0  0  0  0  0
   -3.1441  -29.8359  -14.7235 C   0  0  0  0  0  0  0  0  0  0  0  0
   -4.7941  -29.9029   -6.1973 O   0  0  0  0  0  0  0  0  0  0  0  0
   -1.1747  -30.6096  -15.5725 C   0  0  0  0  0  0  0  0  0  0  0  0
   -1.5650  -30.0032  -13.6838 C   0  0  1  0  0  0  0  0  0  0  0  0
   -3.5945  -29.3508  -12.9160 N   0  0  0  0  0  0  0  0  0  0  0  0
   -3.2570  -30.6764  -16.8136 N   0  0  0  0  0  0  0  0  0  0  0  0
   -2.7090  -30.8866   -5.4695 O   0  0  0  0  0  0  0  0  0  0  0  0
   -4.6983  -29.0004   -9.7394 C   0  0  0  0  0  0  0  0  0  0  0  0
   -4.2155  -29.0770  -10.8755 C   0  0  0  0  0  0  0  0  0  0  0  0
  4  1  1  1
  5  2  2  0
  6  4  1  0
  7  1  1  0
  7  3  2  3
  8  2  1  0
  9  3  1  0
 11 10  1  0
 12  9  2  0
 13  5  1  0
 13  8  2  0
 14  4  1  0
 14  6  1  0
 14 11  1  1
 14 13  1  0
  6 15  1  1
 16  8  1  0
 17  9  1  0
 18  7  1  0
 19 18  1  0
M  RAD  1   3   2
M  END
>  <ID>  (1) 
conformer_0

$$$$
