
     RDKit          3D

 23 26  0  0  0  0  0  0  0  0999 V2000
   -1.5258  -30.4214   -9.4192 C   0  0  0  0  0  0  0  0  0  0  0  0
   -0.1699  -30.6536  -15.6606 C   0  0  0  0  0  0  0  0  0  0  0  0
   -2.2444  -30.0475  -11.2919 C   0  0  0  0  0  0  0  0  0  0  0  0
    0.1476  -30.9824  -17.9057 C   0  0  0  0  0  0  0  0  0  0  0  0
   -4.6875  -28.8455   -9.3535 C   0  0  0  0  0  0  0  0  0  0  0  0
   -3.7924  -29.2932  -10.8318 C   0  0  0  0  0  0  0  0  0  0  0  0
   -2.0829  -30.7482  -17.0220 C   0  0  0  0  0  0  0  0  0  0  0  0
   -3.1018  -29.7215   -9.7324 C   0  0  0  0  0  0  0  0  0  0  0  0
   -3.8852  -29.1275  -12.3727 N   0  0  0  0  0  0  0  0  0  0  0  0
   -3.6533  -30.2936   -6.3004 C   0  0  0  0  0  0  0  0  0  0  0  0
   -1.4262  -30.4557  -15.7185 C   0  0  0  0  0  0  0  0  0  0  0  0
   -3.1958  -29.6713  -14.9229 C   0  0  0  0  0  0  0  0  0  0  0  0
   -4.3054  -29.8195  -15.1819 O   0  0  0  0  0  0  0  0  0  0  0  0
   -3.1336  -30.4224  -16.8996 N   0  0  0  0  0  0  0  0  0  0  0  0
   -4.6950  -29.7719   -6.0255 O   0  0  0  0  0  0  0  0  0  0  0  0
   -1.1975  -29.8124  -13.0364 C   0  0  0  0  0  0  0  0  0  0  0  0
   -3.4597  -30.7934   -5.1706 O   0  0  0  0  0  0  0  0  0  0  0  0
   -1.1916  -31.1444  -18.2532 C   0  0  0  0  0  0  0  0  0  0  0  0
   -1.9781  -29.8606  -14.1739 C   0  0  0  0  0  0  0  0  0  0  0  0
   -2.8936  -29.4485  -12.6375 C   0  0  0  0  0  0  0  0  0  0  0  0
   -2.2228  -30.5630   -7.7409 C   0  0  0  0  0  0  0  0  0  0  0  0
   -3.7538  -29.7708   -8.0851 C   0  0  0  0  0  0  0  0  0  0  0  0
    0.6045  -31.1678  -16.6395 C   0  0  0  0  0  0  0  0  0  0  0  0
  6  3  1  0
  6  5  1  0
  8  1  1  0
  8  6  1  0
  9  6  1  0
 11  2  2  0
 11  7  1  0
 13 12  2  0
 14  7  1  0
 15 10  2  0
 17 10  1  0
 18  4  1  0
 18  7  2  0
 19 11  1  0
 19 12  2  0
 19 16  1  0
 20  3  1  0
 20  9  1  0
 20 16  1  0
 21  1  1  0
 22  5  1  0
 22  8  1  0
 22 10  1  0
 22 21  1  0
 23  2  1  0
 23  4  2  0
M  END
>  <ID>  (1) 
conformer_0

$$$$
