
     RDKit          3D

 18 18  0  0  0  0  0  0  0  0999 V2000
    0.4186  -31.0227  -17.3639 C   0  0  0  0  0  0  0  0  0  0  0  0
   -2.2861  -29.7739  -10.1732 C   0  0  0  0  0  0  0  0  0  0  0  0
   -3.1359  -30.2897   -7.8570 C   0  0  1  0  0  0  0  0  0  0  0  0
   -0.8667  -30.5929  -17.9170 C   0  0  0  0  0  0  0  0  0  0  0  0
   -4.3339  -29.2708   -9.3187 C   0  0  0  0  0  0  0  0  0  0  0  0
   -2.1236  -30.0442   -8.8241 C   0  0  0  0  0  0  0  0  0  0  0  0
   -3.4205  -29.4227  -11.4263 C   0  0  0  0  0  0  0  0  0  0  0  0
   -3.9317  -29.3650  -12.4559 N   0  0  0  0  0  0  0  0  0  0  0  0
    0.1682  -31.0508  -15.9374 C   0  0  0  0  0  0  0  0  0  0  0  0
   -3.1988  -29.7701  -14.2139 C   0  0  0  0  0  0  0  0  0  0  0  0
   -4.1673  -30.2032   -6.6910 C   0  0  0  0  0  0  0  0  0  0  0  0
   -4.8995  -29.8919   -6.0877 O   0  0  0  0  0  0  0  0  0  0  0  0
   -1.5781  -29.9191  -12.0495 C   0  0  0  0  0  0  0  0  0  0  0  0
   -3.3427  -30.1625  -16.4141 N   0  0  0  0  0  0  0  0  0  0  0  0
   -4.3184  -29.5306  -14.8414 O   0  0  0  0  0  0  0  0  0  0  0  0
   -1.1003  -30.5077  -15.6821 C   0  0  0  0  0  0  0  0  0  0  0  0
   -2.1250  -30.5321  -16.8017 C   0  0  0  0  0  0  0  0  0  0  0  0
   -1.7747  -29.8816  -13.8421 C   0  0  1  0  0  0  0  0  0  0  0  0
  4  1  2  0
  3  5  1  6
  6  2  2  3
  6  3  1  0
  7  2  1  0
  8  7  1  0
  9  1  1  0
 10  8  1  0
 11  3  1  0
 12 11  1  0
 15 10  2  0
 16  9  1  0
 17  4  1  0
 17 14  1  0
 17 16  2  0
 18 10  1  0
 18 13  1  1
 18 16  1  0
M  END
>  <ID>  (1) 
conformer_0

$$$$
