
     RDKit          3D

 20 22  0  0  0  0  0  0  0  0999 V2000
    0.1117  -31.1480  -15.8287 C   0  0  0  0  0  0  0  0  0  0  0  0
   -2.1321  -29.8968  -10.6599 C   0  0  0  0  0  0  0  0  0  0  0  0
   -1.3768  -30.0375  -12.1657 C   0  0  0  0  0  0  0  0  0  0  0  0
    0.1561  -31.3152  -17.2186 C   0  0  0  0  0  0  0  0  0  0  0  0
   -1.5700  -29.9861  -13.7645 C   0  0  0  0  0  0  0  0  0  0  0  0
   -3.0526  -29.8184   -7.8285 C   0  0  0  0  0  0  0  0  0  0  0  0
   -2.6589  -29.5906  -12.3814 C   0  0  0  0  0  0  0  0  0  0  0  0
   -1.1808  -31.1759  -17.9347 C   0  0  0  0  0  0  0  0  0  0  0  0
   -3.5117  -30.3765   -6.0878 C   0  0  0  0  0  0  0  0  0  0  0  0
   -4.3129  -29.5672  -14.9716 O   0  0  0  0  0  0  0  0  0  0  0  0
   -3.1378  -29.8128  -14.7474 C   0  0  0  0  0  0  0  0  0  0  0  0
   -2.1835  -30.7471  -16.7152 C   0  0  0  0  0  0  0  0  0  0  0  0
   -3.3096  -30.4341  -16.6344 N   0  0  0  0  0  0  0  0  0  0  0  0
   -4.0820  -30.3989   -5.7379 O   0  0  0  0  0  0  0  0  0  0  0  0
   -2.3837  -29.8401   -9.1092 C   0  0  0  0  0  0  0  0  0  0  0  0
   -3.6723  -29.4713  -12.1791 N   0  0  0  0  0  0  0  0  0  0  0  0
   -1.1829  -30.6244  -15.4623 C   0  0  0  0  0  0  0  0  0  0  0  0
   -2.7420  -30.7812   -5.2551 O   0  0  0  0  0  0  0  0  0  0  0  0
   -4.1732  -29.1046  -10.6334 C   0  0  0  0  0  0  0  0  0  0  0  0
   -4.1938  -29.1555   -9.7525 C   0  0  0  0  0  0  0  0  0  0  0  0
  3  2  1  0
  4  1  2  0
  5  3  1  0
  7  2  1  0
  7  3  1  0
  7  5  1  0
  8  4  1  0
  9  6  1  0
 11  5  1  0
 11 10  1  0
 12  8  2  0
 13 12  1  0
 14  9  2  0
 15  2  1  0
 15  6  3  0
 16  7  1  0
 17  1  1  0
 17  5  1  0
 17 12  1  0
 18  9  1  0
 19 16  1  0
 20 19  3  0
M  END
>  <ID>  (1) 
conformer_0

$$$$
