
     RDKit          3D

 22 25  0  0  0  0  0  0  0  0999 V2000
   -1.2113  -30.7102  -15.8246 C   0  0  0  0  0  0  0  0  0  0  0  0
   -4.8153  -28.9780   -9.7644 C   0  0  0  0  0  0  0  0  0  0  0  0
   -1.3963  -30.0142  -12.9975 C   0  0  0  0  0  0  0  0  0  0  0  0
    0.8497  -31.3436  -16.6944 C   0  0  0  0  0  0  0  0  0  0  0  0
   -2.4271  -29.7470  -10.4110 C   0  0  0  0  0  0  0  0  0  0  0  0
   -1.2387  -30.2291  -11.4565 C   0  0  0  0  0  0  0  0  0  0  0  0
   -2.7491  -29.6297  -12.3952 C   0  0  0  0  0  0  0  0  0  0  0  0
    0.3820  -30.8258  -17.9508 C   0  0  0  0  0  0  0  0  0  0  0  0
   -3.9182  -30.1669   -6.6159 C   0  0  0  0  0  0  0  0  0  0  0  0
   -4.2581  -29.8276  -14.9176 O   0  0  0  0  0  0  0  0  0  0  0  0
   -3.7057  -29.3847  -12.3117 N   0  0  0  0  0  0  0  0  0  0  0  0
   -3.0502  -29.9888  -15.0330 C   0  0  0  0  0  0  0  0  0  0  0  0
   -5.0154  -29.5251   -6.4293 O   0  0  0  0  0  0  0  0  0  0  0  0
   -3.1261  -30.4903  -16.9698 N   0  0  0  0  0  0  0  0  0  0  0  0
   -1.9673  -30.7866  -17.0959 C   0  0  0  0  0  0  0  0  0  0  0  0
   -1.8807  -30.0369  -14.2862 C   0  0  0  0  0  0  0  0  0  0  0  0
   -4.0517  -29.4344   -8.5037 C   0  0  0  0  0  0  0  0  0  0  0  0
   -0.0543  -31.1697  -15.7155 C   0  0  0  0  0  0  0  0  0  0  0  0
   -0.9369  -30.6762  -18.1322 C   0  0  0  0  0  0  0  0  0  0  0  0
   -2.4978  -29.6763   -8.8070 C   0  0  0  0  0  0  0  0  0  0  0  0
   -3.9560  -29.2559  -10.6799 C   0  0  0  0  0  0  0  0  0  0  0  0
   -2.0669  -30.2125   -6.6819 C   0  0  0  0  0  0  0  0  0  0  0  0
  6  3  1  0
  6  5  1  0
  7  3  1  0
  7  6  1  0
  8  4  2  0
 11  7  1  0
 12 10  2  0
 13  9  1  0
 15  1  1  0
 15 14  1  0
 16  1  1  0
 16  3  1  0
 16 12  1  0
 17  2  1  0
 17  9  1  0
 18  1  2  0
 18  4  1  0
 19  8  1  0
 19 15  2  0
 20  5  1  0
 20 17  1  0
 21  2  1  0
 21  5  2  0
 21 11  1  0
 22  9  1  0
M  END
>  <ID>  (1) 
conformer_0

$$$$
