
     RDKit          3D

 29 33  0  0  0  0  0  0  0  0999 V2000
   96.7568   46.7759   75.3336 P   0  0  0  0  0  4  0  0  0  0  0  0
   95.7568   47.2759   76.3336 O   0  0  0  0  0  1  0  0  0  0  0  0
   97.1568   45.5759   76.1336 O   0  0  0  0  0  0  0  0  0  0  0  0
   96.0568   46.2759   74.1336 O   0  0  0  0  0  0  0  0  0  0  0  0
   95.8568   46.7759   72.7336 C   0  0  0  0  0  0  0  0  0  0  0  0
   94.8568   47.8759   72.6336 C   0  0  0  0  0  0  0  0  0  0  0  0
   93.7568   47.4759   71.7336 C   0  0  0  0  0  0  0  0  0  0  0  0
   95.2568   49.2759   72.4336 C   0  0  0  0  0  0  0  0  0  0  0  0
   94.4568   49.8759   71.3336 C   0  0  0  0  0  0  0  0  0  0  0  0
   96.4568   49.8759   72.7336 C   0  0  0  0  0  0  0  0  0  0  0  0
   94.5568   51.2759   71.3336 N   0  0  0  0  0  0  0  0  0  0  0  0
   95.2568   50.2759   73.3336 C   0  0  0  0  0  0  0  0  0  0  0  0
   94.8568   51.5759   72.6336 C   0  0  0  0  0  0  0  0  0  0  0  0
   97.9568   47.5759   74.9336 O   0  0  0  0  0  0  0  0  0  0  0  0
   98.3568   48.6759   74.2336 P   0  0  0  0  0  4  0  0  0  0  0  0
   99.7568   48.9759   73.9336 O   0  0  0  0  0  1  0  0  0  0  0  0
   97.4568   49.1759   73.3336 O   0  0  0  0  0  0  0  0  0  0  0  0
   94.0568   49.3759   70.0336 N   0  0  0  0  0  0  0  0  0  0  0  0
   93.5568   48.0759   70.3336 C   0  0  0  0  0  0  0  0  0  0  0  0
   92.4568   47.4759   69.5336 C   0  0  0  0  0  0  0  0  0  0  0  0
   91.3568   46.6759   70.1336 C   0  0  0  0  0  0  0  0  0  0  0  0
   89.9568   46.9759   69.8336 C   0  0  0  0  0  0  0  0  0  0  0  0
   91.6568   45.9759   71.3336 C   0  0  0  0  0  0  0  0  0  0  0  0
   90.4568   45.6759   72.1336 C   0  0  0  0  0  0  0  0  0  0  0  0
   92.7568   46.5759   72.1336 C   0  0  0  0  0  0  0  0  0  0  0  0
   89.4568   45.0759   71.9336 O   0  0  0  0  0  0  0  0  0  0  0  0
   90.6568   46.0759   73.5336 N   0  0  0  0  0  0  0  0  0  0  0  0
   98.4568   49.6759   75.3336 O   0  0  0  0  0  0  0  0  0  0  0  0
   90.3568   44.9759   74.4336 C   0  0  0  0  0  0  0  0  0  0  0  0
  2  1  2  0
  3  1  1  0
  4  1  1  0
  5  4  1  0
  6  5  1  0
  7  6  1  0
  8  6  1  0
  9  8  1  0
 10  8  1  0
 11  9  2  0
 12  8  1  0
 12 10  1  0
 13 11  1  0
 13 12  1  0
 14  1  1  0
 15 14  1  0
 16 15  2  0
 17 10  1  0
 17 15  1  0
 18  9  1  0
 19  7  1  0
 19 18  1  0
 20 19  1  0
 21 20  1  0
 22 21  1  0
 23 21  1  0
 24 23  1  0
 25  7  2  0
 25 23  1  0
 26 24  2  0
 27 24  1  0
 28 15  1  0
 29 27  1  0
M  END
>  <ID>  (1) 
conformer_0

$$$$
