
     RDKit          3D

 21 24  0  0  0  0  0  0  0  0999 V2000
   96.7568   46.7759   75.3336 P   0  0  0  0  0  4  0  0  0  0  0  0
   95.7568   47.2759   76.3336 O   0  0  0  0  0  1  0  0  0  0  0  0
   97.1568   45.5759   76.1336 O   0  0  0  0  0  0  0  0  0  0  0  0
   96.0568   46.2759   74.1336 O   0  0  0  0  0  0  0  0  0  0  0  0
   95.8568   46.7759   72.7336 C   0  0  0  0  0  0  0  0  0  0  0  0
   94.4568   46.5759   72.2336 C   0  0  0  0  0  0  0  0  0  0  0  0
   96.3568   48.1759   72.8336 C   0  0  0  0  0  0  0  0  0  0  0  0
   97.7568   47.7759   74.9336 O   0  0  0  0  0  0  0  0  0  0  0  0
   93.9568   47.8759   71.7336 C   0  0  0  0  0  0  0  0  0  0  0  0
   94.1568   49.0759   72.4336 C   0  0  0  0  0  0  0  0  0  0  0  0
   93.4568   47.8759   70.3336 C   0  0  0  0  0  0  0  0  0  0  0  0
   95.0568   50.1759   72.1336 C   0  0  0  0  0  0  0  0  0  0  0  0
   96.1568   50.5759   72.9336 C   0  0  0  0  0  0  0  0  0  0  0  0
   96.4568   51.8759   73.5336 C   0  0  0  0  0  0  0  0  0  0  0  0
   97.3568   50.2759   72.1336 C   0  0  0  0  0  0  0  0  0  0  0  0
   97.5568   52.6759   73.0336 C   0  0  0  0  0  0  0  0  0  0  0  0
   98.8568   51.9759   73.2336 C   0  0  0  0  0  0  0  0  0  0  0  0
   98.6568   50.8759   74.0336 C   0  0  0  0  0  0  0  0  0  0  0  0
   97.6568   49.9759   73.4336 C   0  0  0  0  0  0  0  0  0  0  0  0
   97.4568   48.4759   73.7336 C   0  0  0  0  0  0  0  0  0  0  0  0
   93.7568   49.1759   69.7336 N   0  0  0  0  0  0  0  0  0  0  0  0
  2  1  2  0
  3  1  1  0
  4  1  1  0
  5  4  1  0
  6  5  1  0
  7  5  1  0
  8  1  1  0
  9  6  1  0
 10  9  1  0
 11  9  1  0
 12 10  1  0
 13 12  1  0
 14 13  1  0
 15 13  1  0
 16 14  1  0
 17 16  2  0
 18 17  1  0
 19 13  1  0
 19 15  1  0
 19 18  1  0
 20  7  1  0
 20  8  1  0
 20 19  1  0
 21 11  1  0
M  END
>  <ID>  (1) 
conformer_0

$$$$
