
     RDKit          3D

 21 22  0  0  0  0  0  0  0  0999 V2000
   96.7568   46.7759   75.3336 P   0  0  0  0  0  4  0  0  0  0  0  0
   95.7568   47.2759   76.3336 O   0  0  0  0  0  1  0  0  0  0  0  0
   97.3568   45.6759   76.1336 O   0  0  0  0  0  0  0  0  0  0  0  0
   96.2568   46.3759   74.0336 O   0  0  0  0  0  0  0  0  0  0  0  0
   96.0568   46.9759   72.7336 C   0  0  0  0  0  0  0  0  0  0  0  0
   94.8568   46.7759   72.0336 C   0  0  0  0  0  0  0  0  0  0  0  0
   96.5568   48.3759   72.7336 C   0  0  0  0  0  0  0  0  0  0  0  0
   97.8568   47.7759   75.1336 O   0  0  0  0  0  0  0  0  0  0  0  0
   95.4568   49.3759   72.5336 C   0  0  0  0  0  0  0  0  0  0  0  0
   94.0568   48.9759   72.7336 C   0  0  0  0  0  0  0  0  0  0  0  0
   95.8568   50.7759   72.6336 C   0  0  0  0  0  0  0  0  0  0  0  0
   97.2568   50.8759   72.9336 C   0  0  0  0  0  0  0  0  0  0  0  0
   93.7568   47.7759   71.9336 C   0  0  0  0  0  0  0  0  0  0  0  0
   95.1568   51.3759   73.7336 C   0  0  0  0  0  0  0  0  0  0  0  0
   97.4568   51.9759   73.7336 N   0  0  0  0  0  0  0  0  0  0  0  0
   96.2568   52.2759   74.2336 N   0  0  0  0  0  0  0  0  0  0  0  0
   96.7568   52.9759   73.3336 C   0  0  0  0  0  0  0  0  0  0  0  0
   99.2568   47.6759   75.0336 P   0  0  0  0  0  4  0  0  0  0  0  0
   99.7568   47.6759   76.4336 O   0  0  0  0  0  1  0  0  0  0  0  0
   99.8568   48.5759   74.0336 O   0  0  0  0  0  0  0  0  0  0  0  0
   99.3568   46.3759   74.3336 O   0  0  0  0  0  0  0  0  0  0  0  0
  2  1  2  0
  3  1  1  0
  4  1  1  0
  5  4  1  0
  6  5  1  0
  7  5  1  0
  8  1  1  0
  9  7  1  0
 10  9  1  0
 11  9  1  0
 12 11  1  0
 13  6  1  0
 13 10  1  0
 14 11  2  0
 15 12  1  0
 16 14  1  0
 17 15  1  0
 17 16  1  0
 18  8  1  0
 19 18  2  0
 20 18  1  0
 21 18  1  0
M  END
>  <ID>  (1) 
conformer_0

$$$$
