
     RDKit          3D

 24 27  0  0  0  0  0  0  0  0999 V2000
   96.7568   46.7759   75.3336 P   0  0  0  0  0  4  0  0  0  0  0  0
   95.7568   47.2759   76.3336 O   0  0  0  0  0  1  0  0  0  0  0  0
   97.1568   45.5759   76.1336 O   0  0  0  0  0  0  0  0  0  0  0  0
   96.0568   46.2759   74.1336 O   0  0  0  0  0  0  0  0  0  0  0  0
   95.8568   46.7759   72.7336 C   0  0  0  0  0  0  0  0  0  0  0  0
   94.4568   46.5759   72.2336 C   0  0  0  0  0  0  0  0  0  0  0  0
   96.2568   48.1759   72.7336 C   0  0  0  0  0  0  0  0  0  0  0  0
   97.7568   47.7759   75.0336 O   0  0  0  0  0  0  0  0  0  0  0  0
   93.9568   47.8759   71.8336 C   0  0  0  0  0  0  0  0  0  0  0  0
   95.0568   48.8759   72.0336 C   0  0  0  0  0  0  0  0  0  0  0  0
   93.1568   47.9759   70.6336 C   0  0  0  0  0  0  0  0  0  0  0  0
   91.8568   47.2759   70.8336 N   0  0  0  0  0  0  0  0  0  0  0  0
   92.0568   46.2759   71.8336 C   0  0  0  0  0  0  0  0  0  0  0  0
   90.7568   45.7759   72.2336 C   0  0  0  0  0  0  0  0  0  0  0  0
   90.7568   44.4759   72.9336 C   0  0  0  0  0  0  0  0  0  0  0  0
   90.5568   47.3759   70.2336 C   0  0  0  0  0  0  0  0  0  0  0  0
   89.8568   46.3759   71.2336 C   0  0  0  0  0  0  0  0  0  0  0  0
   89.8568   43.9759   73.7336 N   0  0  0  0  0  0  0  0  0  0  0  0
   91.8568   44.1759   73.3336 O   0  0  0  0  0  0  0  0  0  0  0  0
   98.1568   48.9759   74.4336 P   0  0  0  0  0  4  0  0  0  0  0  0
   99.5568   48.9759   73.9336 O   0  0  0  0  0  1  0  0  0  0  0  0
   97.9568   50.2759   75.1336 O   0  0  0  0  0  0  0  0  0  0  0  0
   97.2568   48.9759   73.2336 O   0  0  0  0  0  0  0  0  0  0  0  0
   93.2568   45.7759   71.9336 O   0  0  0  0  0  0  0  0  0  0  0  0
  2  1  2  0
  3  1  1  0
  4  1  1  0
  5  4  1  0
  6  5  1  0
  7  5  1  0
  8  1  1  0
  9  6  1  0
 10  7  2  0
 10  9  1  0
 11  9  1  0
 12 11  1  0
 13 12  1  0
 14 13  1  0
 15 14  1  0
 16 12  1  0
 17 14  1  0
 17 16  1  0
 18 15  1  0
 19 15  2  0
 20  8  1  0
 21 20  2  0
 22 20  1  0
 23  7  1  0
 23 20  1  0
 24  6  1  0
 24 13  1  0
M  END
>  <ID>  (1) 
conformer_0

$$$$
