
     RDKit          3D

 18 19  0  0  0  0  0  0  0  0999 V2000
   96.7310   46.7805   75.3352 P   0  0  0  0  0  4  0  0  0  0  0  0
   95.8310   47.1805   76.4352 O   0  0  0  0  0  1  0  0  0  0  0  0
   97.3310   45.6805   76.1352 O   0  0  0  0  0  0  0  0  0  0  0  0
   96.3310   46.0805   74.1352 O   0  0  0  0  0  0  0  0  0  0  0  0
   95.9310   46.6805   72.8352 C   0  0  0  0  0  0  0  0  0  0  0  0
   95.9310   48.1805   72.8352 C   0  0  0  0  0  0  0  0  0  0  0  0
   94.7310   48.9805   72.4352 C   0  0  0  0  0  0  0  0  0  0  0  0
   93.8310   48.3805   71.4352 C   0  0  0  0  0  0  0  0  0  0  0  0
   92.7310   49.2805   71.1352 N   0  0  0  0  0  0  0  0  0  0  0  0
   94.4310   50.2805   73.0352 O   0  0  0  0  0  0  0  0  0  0  0  0
   93.7310   46.9805   71.4352 C   0  0  0  0  0  0  0  0  0  0  0  0
   97.8310   47.7805   75.1352 O   0  0  0  0  0  0  0  0  0  0  0  0
   94.7310   46.1805   72.1352 C   0  0  0  0  0  0  0  0  0  0  0  0
   92.1311   48.8805   69.8352 C   0  0  0  0  0  0  0  0  0  0  0  0
   98.0310   48.8805   74.2352 P   0  0  0  0  0  4  0  0  0  0  0  0
   96.8310   49.0805   73.4352 O   0  0  0  0  0  0  0  0  0  0  0  0
   99.3310   49.4805   73.9352 O   0  0  0  0  0  1  0  0  0  0  0  0
   97.6310   49.9805   75.1352 O   0  0  0  0  0  0  0  0  0  0  0  0
  2  1  2  0
  3  1  1  0
  4  1  1  0
  5  4  1  0
  6  5  1  0
  7  6  1  0
  8  7  1  0
  9  8  1  0
 10  7  1  0
 11  8  1  0
 12  1  1  0
 13  5  1  0
 13 11  2  0
 14  9  1  0
 15 12  1  0
 16  6  1  0
 16 15  1  0
 17 15  2  0
 18 15  1  0
M  END
>  <ID>  (1) 
conformer_0

$$$$
