
     RDKit          3D

 24 26  0  0  0  0  0  0  0  0999 V2000
   96.7568   46.7759   75.3336 P   0  0  0  0  0  4  0  0  0  0  0  0
   95.7568   47.2759   76.3336 O   0  0  0  0  0  1  0  0  0  0  0  0
   97.1568   45.5759   76.1336 O   0  0  0  0  0  0  0  0  0  0  0  0
   96.0568   46.2759   74.1336 O   0  0  0  0  0  0  0  0  0  0  0  0
   95.8568   46.7759   72.7336 C   0  0  0  0  0  0  0  0  0  0  0  0
   94.8568   47.8759   72.6336 C   0  0  0  0  0  0  0  0  0  0  0  0
   93.7568   47.4759   71.7336 C   0  0  0  0  0  0  0  0  0  0  0  0
   95.4568   49.1759   72.4336 C   0  0  0  0  0  0  0  0  0  0  0  0
   94.6568   49.9759   71.5336 C   0  0  0  0  0  0  0  0  0  0  0  0
   96.8568   49.3759   72.4336 C   0  0  0  0  0  3  0  0  0  0  0  0
   97.1568   50.7759   72.1336 C   0  0  0  0  0  0  0  0  0  0  0  0
   96.1568   51.7759   72.2336 C   0  0  0  0  0  0  0  0  0  0  0  0
   94.6568   50.2759   72.9336 C   0  0  0  0  0  0  0  0  0  0  0  0
   97.7568   47.7759   74.9336 O   0  0  0  0  0  0  0  0  0  0  0  0
   93.0568   46.1759   71.9336 C   0  0  0  0  0  0  0  0  0  0  0  0
   92.0568   46.1759   73.0336 C   0  0  0  0  0  0  0  0  0  0  0  0
   90.8568   45.3759   72.8336 C   0  0  0  0  0  0  0  0  0  0  0  0
   90.3568   44.3759   73.8336 C   0  0  0  0  0  0  0  0  0  0  0  0
   96.5568   52.9759   71.5336 O   0  0  0  0  0  0  0  0  0  0  0  0
   95.3568   51.3759   73.4336 C   0  0  0  0  0  0  0  0  0  0  0  0
   90.7569   42.9759   73.5336 C   0  0  0  0  0  0  0  0  0  0  0  0
   92.1569   43.2759   73.1336 C   0  0  0  0  0  0  0  0  0  0  0  0
   92.3568   43.6759   71.7336 C   0  0  0  0  0  0  0  0  0  0  0  0
   91.2569   44.5759   71.5336 C   0  0  0  0  0  0  0  0  0  0  0  0
  2  1  2  0
  3  1  1  0
  4  1  1  0
  5  4  1  0
  6  5  1  0
  7  6  1  0
  8  6  1  0
  9  8  1  0
 10  8  1  0
 11 10  1  0
 12 11  2  0
 13  8  1  0
 13  9  1  0
 14  1  1  0
 15  7  1  0
 16 15  1  0
 17 16  1  0
 18 17  1  0
 19 12  1  0
 20 12  1  0
 20 13  2  0
 21 18  1  0
 22 21  1  0
 23 22  1  0
 24 17  1  0
 24 23  1  0
M  END
>  <ID>  (1) 
conformer_0

$$$$
