
     RDKit          3D

 27 29  0  0  0  0  0  0  0  0999 V2000
   96.7568   46.7759   75.3336 P   0  0  0  0  0  4  0  0  0  0  0  0
   95.7568   47.2759   76.3336 O   0  0  0  0  0  1  0  0  0  0  0  0
   97.1568   45.5759   76.1336 O   0  0  0  0  0  0  0  0  0  0  0  0
   96.0568   46.2759   74.1336 O   0  0  0  0  0  0  0  0  0  0  0  0
   95.8568   46.7759   72.7336 C   0  0  0  0  0  0  0  0  0  0  0  0
   94.8568   47.8759   72.6336 C   0  0  0  0  0  0  0  0  0  0  0  0
   93.7568   47.4759   71.7336 C   0  0  0  0  0  0  0  0  0  0  0  0
   95.2568   49.2759   72.4336 C   0  0  0  0  0  0  0  0  0  0  0  0
   94.4568   49.8759   71.3336 C   0  0  0  0  0  0  0  0  0  0  0  0
   96.6568   49.4759   72.3336 C   0  0  0  0  0  0  0  0  0  0  0  0
   94.6568   51.2759   71.4336 N   0  0  0  0  0  0  0  0  0  0  0  0
   97.7568   47.6759   74.7336 O   0  0  0  0  0  0  0  0  0  0  0  0
   95.6568   51.6759   72.4336 C   0  0  0  0  0  0  0  0  0  0  0  0
   96.8568   50.8759   72.0336 N   0  0  0  0  0  0  0  0  0  0  0  0
   94.1568   49.2759   70.2336 N   0  0  0  0  0  0  0  0  0  0  0  0
   98.8568   48.3759   75.4336 P   0  0  0  0  0  4  0  0  0  0  0  0
   99.6568   47.7759   76.5336 O   0  0  0  0  0  1  0  0  0  0  0  0
   99.0568   49.7759   75.0336 O   0  0  0  0  0  0  0  0  0  0  0  0
   93.5568   46.0759   71.9336 C   0  0  0  0  0  0  0  0  0  0  0  0
   92.2568   45.3759   71.9336 C   0  0  0  0  0  0  0  0  0  0  0  0
   90.9568   45.7759   71.8336 C   0  0  0  0  0  0  0  0  0  0  0  0
   89.8568   45.6759   72.6336 C   0  0  0  0  0  0  0  0  0  0  0  0
   90.2568   45.0759   73.9336 C   0  0  0  0  0  0  0  0  0  0  0  0
   91.0568   43.8759   73.6336 C   0  0  0  0  0  0  0  0  0  0  0  0
   92.2568   44.0759   72.6336 C   0  0  0  0  0  0  0  0  0  0  0  0
   89.9568   44.7759   71.7336 N   0  0  0  0  0  0  0  0  0  0  0  0
   99.8568   47.8759   74.4336 O   0  0  0  0  0  0  0  0  0  0  0  0
  2  1  2  0
  3  1  1  0
  4  1  1  0
  5  4  1  0
  6  5  1  0
  7  6  1  0
  8  6  1  0
  9  8  2  0
 10  8  1  0
 11  9  1  0
 12  1  1  0
 13 11  2  0
 14 10  2  0
 14 13  1  0
 15  9  1  0
 16 12  1  0
 17 16  2  0
 18 16  1  0
 19  7  1  0
 20 19  1  0
 21 20  1  0
 22 21  1  0
 23 22  1  0
 24 23  1  0
 25 20  1  0
 25 24  1  0
 26 21  1  0
 26 22  1  0
 27 16  1  0
M  END
>  <ID>  (1) 
conformer_0

$$$$
