
     RDKit          3D

 29 31  0  0  0  0  0  0  0  0999 V2000
   96.7568   46.7759   75.3336 P   0  0  0  0  0  4  0  0  0  0  0  0
   95.7568   47.2759   76.3336 O   0  0  0  0  0  1  0  0  0  0  0  0
   97.1568   45.5759   76.0336 O   0  0  0  0  0  0  0  0  0  0  0  0
   96.2568   46.5759   73.9336 O   0  0  0  0  0  0  0  0  0  0  0  0
   95.8568   46.9759   72.7336 C   0  0  0  0  0  0  0  0  0  0  0  0
   94.7568   46.3759   71.9336 C   0  0  0  0  0  0  0  0  0  0  0  0
   96.0568   48.3759   72.6336 C   0  0  0  0  0  0  0  0  0  0  0  0
   97.8568   47.7759   75.2336 O   0  0  0  0  0  0  0  0  0  0  0  0
   94.9568   49.0759   71.9336 C   0  0  0  0  0  0  0  0  0  0  0  0
   93.6568   48.5759   72.2336 C   0  0  0  0  0  0  0  0  0  0  0  0
   94.9568   50.4759   72.4336 C   0  0  0  0  0  0  0  0  0  0  0  0
   94.0568   50.7759   73.4336 C   0  0  0  0  0  0  0  0  0  0  0  0
   96.3568   50.8759   72.6336 C   0  0  0  0  0  0  0  0  0  0  0  0
   96.3568   51.6759   73.7336 N   0  0  0  0  0  0  0  0  0  0  0  0
   93.4568   47.0759   71.8336 C   0  0  0  0  0  0  0  0  0  0  0  0
   92.3568   46.3759   72.4336 C   0  0  0  0  0  0  0  0  0  0  0  0
   91.1568   45.9759   72.0336 C   0  0  0  0  0  0  0  0  0  0  0  0
   90.3568   45.0759   72.7336 C   0  0  0  0  0  0  0  0  0  0  0  0
   96.8568   51.5759   71.4336 N   0  0  0  0  0  0  0  0  0  0  0  0
   90.3568   44.7759   74.0336 C   0  0  0  0  0  0  0  0  0  0  0  0
   99.1568   47.8759   74.5336 P   0  0  0  0  0  4  0  0  0  0  0  0
   99.2568   49.2759   74.3336 O   0  0  0  0  0  1  0  0  0  0  0  0
  100.0568   46.9759   75.2336 O   0  0  0  0  0  0  0  0  0  0  0  0
   98.7568   47.5759   73.1336 O   0  0  0  0  0  0  0  0  0  0  0  0
   89.0568   45.1759   72.3336 O   0  0  0  0  0  0  0  0  0  0  0  0
   91.3568   44.2759   73.2336 O   0  0  0  0  0  0  0  0  0  0  0  0
   95.0568   51.4759   74.4336 O   0  0  0  0  0  0  0  0  0  0  0  0
   91.1568   45.6759   70.6336 O   0  0  0  0  0  0  0  0  0  0  0  0
   88.0568   45.0759   73.4336 C   0  0  0  0  0  0  0  0  0  0  0  0
  2  1  2  0
  3  1  1  0
  4  1  1  0
  5  4  1  0
  6  5  1  0
  7  5  1  0
  8  1  1  0
  9  7  1  0
 10  9  1  0
 11  9  1  0
 12 11  2  0
 13 11  1  0
 14 13  2  0
 15  6  1  0
 15 10  1  0
 16 15  1  0
 17 16  1  0
 18 17  1  0
 19 13  1  0
 20 18  1  0
 21  8  1  0
 22 21  2  0
 23 21  1  0
 24 21  1  0
 25 18  1  0
 26 18  1  0
 26 20  1  0
 27 12  1  0
 27 14  1  0
 28 17  1  0
 29 25  1  0
M  END
>  <ID>  (1) 
conformer_0

$$$$
