
     RDKit          3D

 16 17  0  0  0  0  0  0  0  0999 V2000
   96.7568   46.7759   75.3336 P   0  0  0  0  0  4  0  0  0  0  0  0
   95.6568   47.0759   76.2336 O   0  0  0  0  0  1  0  0  0  0  0  0
   97.2568   45.6759   76.1336 O   0  0  0  0  0  0  0  0  0  0  0  0
   96.5568   46.3759   73.9336 O   0  0  0  0  0  0  0  0  0  0  0  0
   96.1568   46.9759   72.7336 C   0  0  0  0  0  0  0  0  0  0  0  0
   95.7568   48.3759   72.7336 C   0  0  0  0  0  0  0  0  0  0  0  0
   95.0568   46.3759   71.9336 C   0  0  0  0  0  0  0  0  0  0  0  0
   94.3568   48.6759   72.3336 C   0  0  0  0  0  0  0  0  0  0  0  0
   94.0568   47.3759   71.4336 C   0  0  0  0  0  0  0  0  0  0  0  0
   94.1568   49.7759   71.3336 C   0  0  0  0  0  0  0  0  0  0  0  0
   94.6568   51.0759   71.7336 N   0  0  0  0  0  0  0  0  0  0  0  0
   95.0568   51.0759   73.1336 C   0  0  0  0  0  0  0  0  0  0  0  0
   97.8568   47.7759   75.5336 O   0  0  0  0  0  0  0  0  0  0  0  0
   96.3568   50.6759   73.4336 C   0  0  0  0  0  0  0  0  0  0  0  0
   97.4568   51.6759   73.2336 C   0  0  0  0  0  0  0  0  0  0  0  0
   97.2568   50.6759   72.1336 C   0  0  0  0  0  0  0  0  0  0  0  0
  2  1  2  0
  3  1  1  0
  4  1  1  0
  5  4  1  0
  6  5  1  0
  7  5  1  0
  8  6  1  0
  9  7  1  0
  9  8  1  0
 10  8  1  0
 11 10  1  0
 12 11  1  0
 13  1  1  0
 14 12  1  0
 15 14  1  0
 16 14  1  0
 16 15  1  0
M  END
>  <ID>  (1) 
conformer_0

$$$$
