
     RDKit          3D

 19 19  0  0  0  0  0  0  0  0999 V2000
   96.7568   46.7759   75.3336 P   0  0  0  0  0  4  0  0  0  0  0  0
   95.7568   47.2759   76.3336 O   0  0  0  0  0  1  0  0  0  0  0  0
   97.1568   45.5759   76.1336 O   0  0  0  0  0  0  0  0  0  0  0  0
   96.0568   46.2759   74.1336 O   0  0  0  0  0  0  0  0  0  0  0  0
   95.8568   46.7759   72.7336 C   0  0  0  0  0  0  0  0  0  0  0  0
   94.6568   46.4759   72.0336 C   0  0  0  0  0  0  0  0  0  0  0  0
   96.4568   48.0759   72.7336 C   0  0  0  0  0  0  0  0  0  0  0  0
   97.9568   47.5759   74.9336 O   0  0  0  0  0  0  0  0  0  0  0  0
   94.0568   47.6759   71.4336 C   0  0  0  0  0  0  0  0  0  0  0  0
   94.1568   48.9759   72.1336 C   0  0  0  0  0  0  0  0  0  0  0  0
   95.6568   49.1759   72.1336 C   0  0  0  0  0  0  0  0  0  0  0  0
   93.3568   49.9759   71.4336 C   0  0  0  0  0  0  0  0  0  0  0  0
   94.0568   51.1759   71.3336 O   0  0  0  0  0  0  0  0  0  0  0  0
   92.3568   49.3759   70.5336 C   0  0  0  0  0  0  0  0  0  0  0  0
   98.8568   48.4759   75.6336 P   0  0  0  0  0  4  0  0  0  0  0  0
   99.6568   47.7759   76.5336 O   0  0  0  0  0  1  0  0  0  0  0  0
   99.1568   49.5759   74.7336 O   0  0  0  0  0  0  0  0  0  0  0  0
   97.8568   49.1759   76.4336 O   0  0  0  0  0  0  0  0  0  0  0  0
   91.9568   50.2759   69.4336 N   0  0  0  0  0  0  0  0  0  0  0  0
  2  1  2  0
  3  1  1  0
  4  1  1  0
  5  4  1  0
  6  5  1  0
  7  5  1  0
  8  1  1  0
  9  6  1  0
 10  9  1  0
 11  7  1  0
 11 10  1  0
 12 10  1  0
 13 12  1  0
 14 12  1  0
 15  8  1  0
 16 15  2  0
 17 15  1  0
 18 15  1  0
 19 14  1  0
M  END
>  <ID>  (1) 
conformer_0

$$$$
