
     RDKit          3D

 30 32  0  0  0  0  0  0  0  0999 V2000
   96.7568   46.7759   75.3336 P   0  0  0  0  0  4  0  0  0  0  0  0
   95.7568   47.2759   76.3336 O   0  0  0  0  0  1  0  0  0  0  0  0
   97.1568   45.5759   76.0336 O   0  0  0  0  0  0  0  0  0  0  0  0
   96.2568   46.5759   73.9336 O   0  0  0  0  0  0  0  0  0  0  0  0
   95.8568   46.9759   72.7336 C   0  0  0  0  0  0  0  0  0  0  0  0
   94.7568   46.3759   71.9336 C   0  0  0  0  0  0  0  0  0  0  0  0
   96.0568   48.3759   72.6336 C   0  0  0  0  0  0  0  0  0  0  0  0
   97.8568   47.7759   75.2336 O   0  0  0  0  0  0  0  0  0  0  0  0
   94.9568   49.0759   71.9336 C   0  0  0  0  0  0  0  0  0  0  0  0
   93.6568   48.5759   72.2336 C   0  0  0  0  0  0  0  0  0  0  0  0
   94.9568   50.4759   72.4336 C   0  0  0  0  0  0  0  0  0  0  0  0
   93.5568   50.9759   72.2336 C   0  0  0  0  0  0  0  0  0  0  0  0
   96.1568   50.9759   73.0336 C   0  0  0  0  0  0  0  0  0  0  0  0
   97.1568   51.7759   72.7336 C   0  0  0  0  0  0  0  0  0  0  0  0
   93.5568   47.1759   71.7336 C   0  0  0  0  0  0  0  0  0  0  0  0
   97.3568   50.3759   72.3336 C   0  0  0  0  0  0  0  0  0  0  0  0
   97.5568   52.7759   72.3336 N   0  0  0  0  0  0  0  0  0  0  0  0
   92.9568   50.8759   71.1336 N   0  0  0  0  0  0  0  0  0  0  0  0
   91.7568   51.4759   70.7336 C   0  0  0  0  0  0  0  0  0  0  0  0
   90.7568   50.7759   70.2336 C   0  0  0  0  0  0  0  0  0  0  0  0
   90.8568   49.3759   70.1336 C   0  0  0  0  0  0  0  0  0  0  0  0
   90.0568   48.6759   69.4336 N   0  0  0  0  0  0  0  0  0  0  0  0
   96.4568   52.4759   71.6336 N   0  0  0  0  0  0  0  0  0  0  0  0
   99.1568   47.7759   74.5336 P   0  0  0  0  0  4  0  0  0  0  0  0
   98.9568   47.5759   73.1336 O   0  0  0  0  0  1  0  0  0  0  0  0
  100.1568   47.3759   75.5336 O   0  0  0  0  0  0  0  0  0  0  0  0
   93.8568   50.6759   73.5336 C   0  0  0  0  0  0  0  0  0  0  0  0
   99.2568   49.1759   74.0336 O   0  0  0  0  0  0  0  0  0  0  0  0
   92.0568   49.3759   69.5336 N   0  0  0  0  0  0  0  0  0  0  0  0
   92.4568   48.5759   68.4336 C   0  0  0  0  0  0  0  0  0  0  0  0
  2  1  2  0
  3  1  1  0
  4  1  1  0
  5  4  1  0
  6  5  1  0
  7  5  1  0
  8  1  1  0
  9  7  1  0
 10  9  1  0
 11  9  1  0
 12 11  1  0
 13 11  1  0
 14 13  1  0
 15  6  1  0
 15 10  1  0
 16 13  1  0
 16 14  1  0
 17 14  1  0
 18 12  1  0
 19 18  1  0
 20 19  2  3
 21 20  1  0
 22 21  2  0
 23 14  1  0
 24  8  1  0
 25 24  2  0
 26 24  1  0
 27 11  1  0
 27 12  1  0
 28 24  1  0
 29 21  1  0
 30 29  1  0
M  END
>  <ID>  (1) 
conformer_0

$$$$
