
     RDKit          3D

 18 20  0  0  0  0  0  0  0  0999 V2000
   96.7310   46.7805   75.3352 P   0  0  0  0  0  4  0  0  0  0  0  0
   95.7310   47.2805   76.3352 O   0  0  0  0  0  1  0  0  0  0  0  0
   97.2310   45.5805   76.0352 O   0  0  0  0  0  0  0  0  0  0  0  0
   96.3310   46.4805   73.9352 O   0  0  0  0  0  0  0  0  0  0  0  0
   96.1311   47.1805   72.7352 C   0  0  0  0  0  0  0  0  0  0  0  0
   95.7310   48.5805   73.0352 C   0  0  0  0  0  0  0  0  0  0  0  0
   95.1311   46.6805   71.7352 C   0  0  0  0  0  0  0  0  0  0  0  0
   94.7310   49.0805   72.1352 C   0  0  0  0  0  0  0  0  0  0  0  0
   94.3310   47.9805   71.2352 C   0  0  0  0  0  0  0  0  0  0  0  0
   93.9310   50.2805   72.5352 C   0  0  0  0  0  0  0  0  0  0  0  0
   94.9310   51.2805   73.0352 C   0  0  0  0  0  0  0  0  0  0  0  0
   96.3310   50.8805   72.9352 C   0  0  0  0  0  0  0  0  0  0  0  0
   97.3310   51.9805   73.1352 C   0  0  0  0  0  0  0  0  0  0  0  0
   97.8310   47.7805   75.4352 O   0  0  0  0  0  0  0  0  0  0  0  0
   97.4310   53.0805   72.1352 C   0  0  0  0  0  0  0  0  0  0  0  0
   96.6311   52.9805   73.2352 N   0  0  0  0  0  0  0  0  0  0  0  0
   95.6311   50.5805   74.1352 C   0  0  0  0  0  0  0  0  0  0  0  0
   97.1310   53.1805   70.9352 O   0  0  0  0  0  0  0  0  0  0  0  0
  2  1  2  0
  3  1  1  0
  4  1  1  0
  5  4  1  0
  6  5  1  0
  7  5  1  0
  8  6  1  0
  9  7  1  0
  9  8  1  0
 10  8  1  0
 11 10  1  0
 12 11  1  0
 13 12  1  0
 14  1  1  0
 15 13  1  0
 16 13  1  0
 16 15  1  0
 17 11  1  0
 17 12  1  0
 18 15  1  0
M  END
>  <ID>  (1) 
conformer_0

$$$$
