
     RDKit          3D

 26 30  0  0  0  0  0  0  0  0999 V2000
   96.7568   46.7759   75.3336 P   0  0  0  0  0  4  0  0  0  0  0  0
   95.7568   47.2759   76.3336 O   0  0  0  0  0  1  0  0  0  0  0  0
   97.1568   45.5759   76.0336 O   0  0  0  0  0  0  0  0  0  0  0  0
   96.2568   46.5759   73.9336 O   0  0  0  0  0  0  0  0  0  0  0  0
   95.8568   46.9759   72.7336 C   0  0  0  0  0  0  0  0  0  0  0  0
   94.7568   46.3759   71.9336 C   0  0  0  0  0  0  0  0  0  0  0  0
   96.0568   48.3759   72.6336 C   0  0  0  0  0  0  0  0  0  0  0  0
   97.8568   47.7759   75.2336 O   0  0  0  0  0  0  0  0  0  0  0  0
   94.9568   49.0759   71.9336 C   0  0  0  0  0  0  0  0  0  0  0  0
   93.6568   48.5759   72.2336 C   0  0  0  0  0  0  0  0  0  0  0  0
   94.8568   50.4759   72.4336 C   0  0  0  0  0  0  0  0  0  0  0  0
   93.6568   51.1759   72.0336 C   0  0  0  0  0  0  0  0  0  0  0  0
   95.9568   50.8759   73.3336 C   0  0  0  0  0  0  0  0  0  0  0  0
   92.8568   50.8759   71.1336 N   0  0  0  0  0  0  0  0  0  0  0  0
   97.2568   50.6759   72.9336 C   0  0  0  0  0  0  0  0  0  0  0  0
   93.4568   47.0759   71.7336 C   0  0  0  0  0  0  0  0  0  0  0  0
   98.2568   51.1759   73.8336 N   0  0  0  0  0  0  0  0  0  0  0  0
   98.7568   50.0759   74.6336 C   0  0  0  0  0  0  0  0  0  0  0  0
   99.4568   50.2759   75.6336 O   0  0  0  0  0  0  0  0  0  0  0  0
   97.6568   49.1759   74.9336 C   0  0  0  0  0  0  0  0  0  0  0  0
   99.1568   52.0759   73.5336 C   0  0  0  0  0  0  0  0  0  0  0  0
   95.6568   52.0759   73.9336 C   0  0  0  0  0  0  0  0  0  0  0  0
   93.5568   50.7759   73.3336 C   0  0  0  0  0  0  0  0  0  0  0  0
   97.7568   50.5759   71.6336 O   0  0  0  0  0  0  0  0  0  0  0  0
   95.8568   50.8759   74.7336 C   0  0  0  0  0  0  0  0  0  0  0  0
   96.5568   49.8759   75.5336 N   0  0  0  0  0  0  0  0  0  0  0  0
  2  1  2  0
  3  1  1  0
  4  1  1  0
  5  4  1  0
  6  5  1  0
  7  5  1  0
  8  1  1  0
  9  7  1  0
 10  9  1  0
 11  9  1  0
 12 11  1  0
 13 11  1  0
 14 12  2  0
 15 13  1  0
 16  6  1  0
 16 10  1  0
 17 15  1  0
 18 17  1  0
 19 18  2  0
 20  8  1  0
 20 18  1  0
 21 17  1  0
 22 13  1  0
 23 11  1  0
 23 12  1  0
 24 15  2  0
 25 13  1  0
 25 22  1  0
 26 20  2  0
 26 25  1  0
M  END
>  <ID>  (1) 
conformer_0

$$$$
