
     RDKit          3D

 20 23  0  0  0  0  0  0  0  0999 V2000
   96.7568   46.7759   75.3336 P   0  0  0  0  0  4  0  0  0  0  0  0
   95.7568   47.2759   76.3336 O   0  0  0  0  0  1  0  0  0  0  0  0
   97.1568   45.5759   76.1336 O   0  0  0  0  0  0  0  0  0  0  0  0
   96.0568   46.2759   74.1336 O   0  0  0  0  0  0  0  0  0  0  0  0
   95.8568   46.7759   72.7336 C   0  0  0  0  0  0  0  0  0  0  0  0
   94.8568   47.8759   72.6336 C   0  0  0  0  0  0  0  0  0  0  0  0
   93.7568   47.4759   71.7336 C   0  0  0  0  0  0  0  0  0  0  0  0
   95.2568   49.2759   72.4336 C   0  0  0  0  0  0  0  0  0  0  0  0
   94.4568   49.8759   71.3336 C   0  0  0  0  0  0  0  0  0  0  0  0
   96.4568   49.8759   72.7336 C   0  0  0  0  0  0  0  0  0  0  0  0
   94.7568   51.2759   71.4336 N   0  0  0  0  0  0  0  0  0  0  0  0
   95.2568   50.2759   73.4336 C   0  0  0  0  0  0  0  0  0  0  0  0
   97.9568   47.5759   75.0336 O   0  0  0  0  0  0  0  0  0  0  0  0
   95.1568   51.5759   72.7336 C   0  0  0  0  0  0  0  0  0  0  0  0
   93.8568   49.4759   70.1336 N   0  0  0  0  0  0  0  0  0  0  0  0
   98.3568   48.7759   74.3336 P   0  0  0  0  0  4  0  0  0  0  0  0
   99.7568   48.9759   73.9336 O   0  0  0  0  0  1  0  0  0  0  0  0
   97.4568   48.8759   72.9336 O   0  0  0  0  0  0  0  0  0  0  0  0
   97.9568   49.8759   75.2336 O   0  0  0  0  0  0  0  0  0  0  0  0
   93.3568   47.9759   70.4336 C   0  0  0  0  0  0  0  0  0  0  0  0
  2  1  2  0
  3  1  1  0
  4  1  1  0
  5  4  1  0
  6  5  1  0
  7  6  1  0
  8  6  1  0
  9  8  1  0
 10  8  1  0
 11  9  2  0
 12  8  1  0
 12 10  1  0
 13  1  1  0
 14 11  1  0
 14 12  1  0
 15  9  1  0
 16 13  1  0
 17 16  2  0
 18 10  1  0
 18 16  1  0
 19 16  1  0
 20  7  1  0
 20 15  1  0
M  END
>  <ID>  (1) 
conformer_0

$$$$
