
     RDKit          3D

 14 14  0  0  0  0  0  0  0  0999 V2000
   96.7568   46.7759   75.3336 P   0  0  0  0  0  4  0  0  0  0  0  0
   95.7568   47.2759   76.3336 O   0  0  0  0  0  1  0  0  0  0  0  0
   97.1568   45.5759   76.0336 O   0  0  0  0  0  0  0  0  0  0  0  0
   96.2568   46.5759   73.9336 O   0  0  0  0  0  0  0  0  0  0  0  0
   95.8568   46.9759   72.7336 C   0  0  0  0  0  0  0  0  0  0  0  0
   94.7568   46.3759   71.9336 C   0  0  0  0  0  0  0  0  0  0  0  0
   95.8568   48.4759   72.7336 C   0  0  0  0  0  0  0  0  0  0  0  0
   97.8568   47.7759   75.2336 O   0  0  0  0  0  0  0  0  0  0  0  0
   94.7568   48.9759   71.9336 C   0  0  0  0  0  0  0  0  0  0  0  0
   94.0568   47.8759   71.2336 C   0  0  0  0  0  0  0  0  0  0  0  0
   99.1568   47.7759   74.5336 P   0  0  0  0  0  4  0  0  0  0  0  0
   99.2568   49.0759   73.9336 O   0  0  0  0  0  1  0  0  0  0  0  0
  100.0568   46.7759   75.0336 O   0  0  0  0  0  0  0  0  0  0  0  0
   98.7568   47.1759   73.2336 O   0  0  0  0  0  0  0  0  0  0  0  0
  2  1  2  0
  3  1  1  0
  4  1  1  0
  5  4  1  0
  6  5  2  0
  7  5  1  0
  8  1  1  0
  9  7  1  0
 10  6  1  0
 10  9  2  0
 11  8  1  0
 12 11  2  0
 13 11  1  0
 14 11  1  0
M  END
>  <ID>  (1) 
conformer_0

$$$$
