
     RDKit          3D

 29 32  0  0  0  0  0  0  0  0999 V2000
   96.7568   46.7759   75.3336 P   0  0  0  0  0  4  0  0  0  0  0  0
   95.7568   47.2759   76.3336 O   0  0  0  0  0  1  0  0  0  0  0  0
   97.1568   45.5759   76.1336 O   0  0  0  0  0  0  0  0  0  0  0  0
   96.0568   46.2759   74.1336 O   0  0  0  0  0  0  0  0  0  0  0  0
   95.8568   46.7759   72.7336 C   0  0  0  0  0  0  0  0  0  0  0  0
   94.8568   47.8759   72.6336 C   0  0  0  0  0  0  0  0  0  0  0  0
   93.7568   47.4759   71.7336 C   0  0  0  0  0  0  0  0  0  0  0  0
   95.2568   49.2759   72.4336 C   0  0  0  0  0  0  0  0  0  0  0  0
   94.4568   49.8759   71.3336 C   0  0  0  0  0  0  0  0  0  0  0  0
   96.0568   49.9759   73.2336 C   0  0  0  0  0  0  0  0  0  0  0  0
   94.4568   51.2759   71.6336 N   0  0  0  0  0  0  0  0  0  0  0  0
   95.7568   51.3759   73.6336 C   0  0  0  0  0  0  0  0  0  0  0  0
   96.7568   49.2759   74.3336 C   0  0  0  0  0  0  0  0  0  0  0  0
   97.3568   48.1759   74.5336 O   0  0  0  0  0  0  0  0  0  0  0  0
   94.1568   49.4759   70.1336 N   0  0  0  0  0  0  0  0  0  0  0  0
   96.5568   52.4759   73.1336 C   0  0  0  0  0  0  0  0  0  0  0  0
   97.8568   51.9759   72.9336 C   0  0  0  0  0  0  0  0  0  0  0  0
   92.6568   46.6759   72.2336 C   0  0  0  0  0  0  0  0  0  0  0  0
   92.4568   45.2759   71.9336 C   0  0  0  0  0  0  0  0  0  0  0  0
   91.3568   44.6759   72.4336 C   0  0  0  0  0  0  0  0  0  0  0  0
   90.2569   45.6759   72.6336 C   0  0  0  0  0  0  0  0  0  0  0  0
   90.1569   46.5759   71.5336 C   0  0  0  0  0  0  0  0  0  0  0  0
   90.5569   46.0759   70.2336 C   0  0  0  0  0  0  0  0  0  0  0  0
   98.6569   52.5759   71.9336 C   0  0  0  0  0  0  0  0  0  0  0  0
   90.2569   46.7759   69.1336 C   0  0  0  0  0  0  0  0  0  0  0  0
   98.3568   50.9759   73.8336 N   0  0  0  0  0  0  0  0  0  0  0  0
   99.5568   51.0759   74.4336 C   0  0  0  0  0  0  0  0  0  0  0  0
   95.3568   51.8759   72.4336 N   0  0  0  0  0  0  0  0  0  0  0  0
   89.2569   45.8759   69.6336 O   0  0  0  0  0  0  0  0  0  0  0  0
  2  1  2  0
  3  1  1  0
  4  1  1  0
  5  4  1  0
  6  5  1  0
  7  6  1  0
  8  6  1  0
  9  8  2  0
 10  8  1  0
 11  9  1  0
 12 10  2  0
 13 10  1  0
 14  1  1  0
 14 13  1  0
 15  9  1  0
 16 12  1  0
 17 16  1  0
 18  7  1  0
 19 18  2  3
 20 19  1  0
 21 20  1  0
 22 21  1  0
 23 22  1  0
 24 17  1  0
 25 23  1  0
 26 17  1  0
 27 26  1  0
 28 11  1  0
 28 12  1  0
 28 16  1  0
 29 23  1  0
 29 25  1  0
M  END
>  <ID>  (1) 
conformer_0

$$$$
