
     RDKit          3D

 29 31  0  0  0  0  0  0  0  0999 V2000
   96.7568   46.7759   75.3336 P   0  0  0  0  0  4  0  0  0  0  0  0
   95.7568   47.2759   76.3336 O   0  0  0  0  0  1  0  0  0  0  0  0
   97.1568   45.5759   76.1336 O   0  0  0  0  0  0  0  0  0  0  0  0
   96.0568   46.2759   74.1336 O   0  0  0  0  0  0  0  0  0  0  0  0
   95.8568   46.7759   72.7336 C   0  0  0  0  0  0  0  0  0  0  0  0
   94.8568   47.8759   72.6336 C   0  0  0  0  0  0  0  0  0  0  0  0
   93.7568   47.4759   71.7336 C   0  0  0  0  0  0  0  0  0  0  0  0
   95.2568   49.2759   72.4336 C   0  0  0  0  0  0  0  0  0  0  0  0
   94.4568   49.8759   71.3336 C   0  0  0  0  0  3  0  0  0  0  0  0
   96.4568   49.8759   72.7336 C   0  0  0  0  0  0  0  0  0  0  0  0
   94.7568   51.2759   71.4336 N   0  0  0  0  0  0  0  0  0  0  0  0
   95.3568   50.2759   73.5336 C   0  0  0  0  0  0  0  0  0  0  0  0
   98.0568   47.3759   74.9336 O   0  0  0  0  0  0  0  0  0  0  0  0
   93.9568   49.4759   70.1336 N   0  0  0  0  0  0  0  0  0  0  0  0
   98.9568   48.4759   75.3336 P   0  0  0  0  0  4  0  0  0  0  0  0
   99.5568   49.4759   74.4336 O   0  0  0  0  0  1  0  0  0  0  0  0
   99.6568   47.7759   76.4336 O   0  0  0  0  0  0  0  0  0  0  0  0
   95.8568   50.4759   74.8336 C   0  0  0  0  0  0  0  0  0  0  0  0
   93.0568   46.2759   72.0336 C   0  0  0  0  0  0  0  0  0  0  0  0
   91.6568   46.1759   71.5336 C   0  0  0  0  0  0  0  0  0  0  0  0
   90.7568   45.2759   72.0336 C   0  0  0  0  0  0  0  0  0  0  0  0
   91.3568   47.0759   70.5336 C   0  0  0  0  0  0  0  0  0  0  0  0
   90.1568   46.7759   69.8336 C   0  0  0  0  0  0  0  0  0  0  0  0
   95.1568   51.5759   72.7336 C   0  0  0  0  0  0  0  0  0  0  0  0
   89.4568   45.6759   72.2336 C   0  0  0  0  0  0  0  0  0  0  0  0
   97.8568   49.2759   75.9336 O   0  0  0  0  0  0  0  0  0  0  0  0
   89.7568   47.5759   68.8336 N   0  0  0  0  0  0  0  0  0  0  0  0
   89.2568   46.4759   70.9336 C   0  0  0  0  0  0  0  0  0  0  0  0
   95.8568   51.9759   74.8336 O   0  0  0  0  0  0  0  0  0  0  0  0
  2  1  2  0
  3  1  1  0
  4  1  1  0
  5  4  1  0
  6  5  1  0
  7  6  1  0
  8  6  1  0
  9  8  1  0
 10  8  1  0
 11  9  1  0
 12  8  1  0
 12 10  1  0
 13  1  1  0
 14  9  1  0
 15 13  1  0
 16 15  2  0
 17 15  1  0
 18 12  1  0
 19  7  1  0
 20 19  1  0
 21 20  2  0
 22 20  1  0
 23 22  2  0
 24 11  2  0
 24 12  1  0
 25 21  1  0
 26 15  1  0
 27 23  1  0
 28 23  1  0
 28 25  2  0
 29 18  1  0
M  END
>  <ID>  (1) 
conformer_0

$$$$
