
     RDKit          3D

 14 15  0  0  0  0  0  0  0  0999 V2000
   96.7568   46.7759   75.3336 P   0  0  0  0  0  4  0  0  0  0  0  0
   95.6568   47.0759   76.2336 O   0  0  0  0  0  1  0  0  0  0  0  0
   97.2568   45.6759   76.1336 O   0  0  0  0  0  0  0  0  0  0  0  0
   96.5568   46.3759   73.9336 O   0  0  0  0  0  0  0  0  0  0  0  0
   96.4568   46.8759   72.6336 C   0  0  0  0  0  0  0  0  0  0  0  0
   95.1568   46.9759   71.9336 C   0  0  0  0  0  0  0  0  0  0  0  0
   96.9568   48.2759   72.7336 C   0  0  0  0  0  0  0  0  0  0  0  0
   97.7568   47.8759   75.4336 O   0  0  0  0  0  0  0  0  0  0  0  0
   94.6568   48.2759   71.5336 C   0  0  0  0  0  0  0  0  0  0  0  0
   94.7568   49.3759   72.4336 C   0  0  0  0  0  0  0  0  0  0  0  0
   95.9568   49.1759   73.3336 C   0  0  0  0  0  0  0  0  0  0  0  0
   94.7568   48.5759   73.8336 C   0  0  0  0  0  0  0  0  0  0  0  0
   93.7568   50.4759   72.5336 C   0  0  0  0  0  0  0  0  0  0  0  0
   93.1568   50.6759   71.2336 N   0  0  0  0  0  0  0  0  0  0  0  0
  2  1  2  0
  3  1  1  0
  4  1  1  0
  5  4  1  0
  6  5  1  0
  7  5  1  0
  8  1  1  0
  9  6  1  0
 10  9  1  0
 11  7  1  0
 11 10  1  0
 12 10  1  0
 12 11  1  0
 13 10  1  0
 14 13  1  0
M  END
>  <ID>  (1) 
conformer_0

$$$$
