
     RDKit          3D

  6  5  0  0  0  0  0  0  0  0999 V2000
   97.2313   45.8801   75.9114 O   0  0  0  0  0  0  0  0  0  0  0  0
   98.4313   45.2801   75.3114 P   0  0  0  0  0  5  0  0  0  0  0  0
   99.3313   44.5801   76.2114 O   0  0  0  0  0  0  0  0  0  0  0  0
   98.6313   45.1801   73.9114 O   0  0  0  0  0  0  0  0  0  0  0  0
   99.3313   46.3801   75.2114 O   0  0  0  0  0  0  0  0  0  0  0  0
  100.3313   45.4801   75.7114 C   0  0  0  0  0  0  0  0  0  0  0  0
  2  1  1  0
  4  2  1  0
  6  2  1  0
  6  3  1  0
  6  5  1  0
M  END
>  <ID>  (1) 
conformer_0

$$$$
