
     RDKit          3D

 22 24  0  0  0  0  0  0  0  0999 V2000
   96.7568   46.7759   75.3336 P   0  0  0  0  0  4  0  0  0  0  0  0
   95.7568   47.2759   76.3336 O   0  0  0  0  0  1  0  0  0  0  0  0
   97.1568   45.5759   76.1336 O   0  0  0  0  0  0  0  0  0  0  0  0
   96.0568   46.2759   74.1336 O   0  0  0  0  0  0  0  0  0  0  0  0
   95.8568   46.7759   72.7336 C   0  0  0  0  0  0  0  0  0  0  0  0
   94.6568   46.4759   72.0336 C   0  0  0  0  0  0  0  0  0  0  0  0
   96.1568   48.1759   72.7336 C   0  0  0  0  0  0  0  0  0  0  0  0
   97.8568   47.6759   74.9336 O   0  0  0  0  0  0  0  0  0  0  0  0
   95.1568   49.0759   72.1336 C   0  0  0  0  0  0  0  0  0  0  0  0
   93.7568   48.7759   72.2336 C   0  0  0  0  0  0  0  0  0  0  0  0
   95.5568   50.4759   72.4336 C   0  0  0  0  0  0  0  0  0  0  0  0
   95.0568   51.4759   71.5336 N   0  0  0  0  0  0  0  0  0  0  0  0
   96.6568   50.8759   73.3336 C   0  0  0  0  0  0  0  0  0  0  0  0
   97.1568   52.1759   72.9336 C   0  0  0  0  0  0  0  0  0  0  0  0
   97.1568   52.3759   71.6336 N   0  0  0  0  0  0  0  0  0  0  0  0
   93.4568   47.2759   72.3336 C   0  0  0  0  0  0  0  0  0  0  0  0
   96.0568   52.1759   73.6336 C   0  0  0  0  0  0  0  0  0  0  0  0
   95.9568   52.3759   71.2336 C   0  0  0  0  0  0  0  0  0  0  0  0
   98.8568   48.4759   75.4336 P   0  0  0  0  0  4  0  0  0  0  0  0
   99.5568   47.7759   76.5336 O   0  0  0  0  0  1  0  0  0  0  0  0
   99.4568   48.9759   74.2336 O   0  0  0  0  0  0  0  0  0  0  0  0
   98.1568   49.5759   76.1336 O   0  0  0  0  0  0  0  0  0  0  0  0
  2  1  2  0
  3  1  1  0
  4  1  1  0
  5  4  1  0
  6  5  1  0
  7  5  1  0
  8  1  1  0
  9  7  1  0
 10  9  1  0
 11  9  1  0
 12 11  2  0
 13 11  1  0
 14 13  2  0
 15 14  1  0
 16  6  1  0
 16 10  1  0
 17 13  1  0
 17 14  1  0
 18 12  1  0
 18 15  2  0
 19  8  1  0
 20 19  2  0
 21 19  1  0
 22 19  1  0
M  END
>  <ID>  (1) 
conformer_0

$$$$
