
     RDKit          3D

  9  8  0  0  0  0  0  0  0  0999 V2000
   96.7568   46.7759   75.3336 P   0  0  0  0  0  4  0  0  0  0  0  0
   95.7568   47.2759   76.3336 O   0  0  0  0  0  1  0  0  0  0  0  0
   97.3568   45.6759   76.1336 O   0  0  0  0  0  0  0  0  0  0  0  0
   96.1568   45.9759   74.2336 O   0  0  0  0  0  0  0  0  0  0  0  0
   97.7568   47.7759   74.8336 O   0  0  0  0  0  0  0  0  0  0  0  0
   98.0568   49.1759   75.0336 P   0  0  0  0  0  4  0  0  0  0  0  0
   99.2568   49.3759   74.2336 O   0  0  0  0  0  1  0  0  0  0  0  0
   97.1568   50.0759   75.7336 O   0  0  0  0  0  0  0  0  0  0  0  0
   99.0568   49.1759   76.1336 O   0  0  0  0  0  0  0  0  0  0  0  0
  2  1  2  0
  3  1  1  0
  4  1  1  0
  5  1  1  0
  6  5  1  0
  7  6  2  0
  8  6  1  0
  9  6  1  0
M  END
>  <ID>  (1) 
conformer_0

$$$$
