
     RDKit          3D

 27 31  0  0  0  0  0  0  0  0999 V2000
   96.7310   46.7805   75.3352 P   0  0  0  0  0  4  0  0  0  0  0  0
   95.7310   47.2805   76.3352 O   0  0  0  0  0  1  0  0  0  0  0  0
   97.1311   45.5805   76.1352 O   0  0  0  0  0  0  0  0  0  0  0  0
   96.3310   46.4805   74.0352 O   0  0  0  0  0  0  0  0  0  0  0  0
   95.6311   46.8805   72.8352 C   0  0  0  0  0  0  0  0  0  0  0  0
   94.4311   46.5805   72.2352 C   0  0  0  0  0  0  0  0  0  0  0  0
   96.0311   48.2805   72.6352 C   0  0  0  0  0  0  0  0  0  0  0  0
   97.8310   47.7805   75.2352 O   0  0  0  0  0  0  0  0  0  0  0  0
   95.0311   49.1805   72.0352 C   0  0  0  0  0  0  0  0  0  0  0  0
   94.1311   48.6805   71.0352 C   0  0  0  0  0  0  0  0  0  0  0  0
   94.6311   50.3806   72.7352 C   0  0  0  0  0  0  0  0  0  0  0  0
   95.3310   51.0806   73.6352 C   0  0  0  0  0  0  0  0  0  0  0  0
   93.3310   50.8806   72.2352 C   0  0  0  0  0  0  0  0  0  0  0  0
   96.4310   51.6805   73.9352 N   0  0  0  0  0  2  0  0  0  0  0  0
   93.6311   47.2805   71.2352 C   0  0  0  0  0  0  0  0  0  0  0  0
   92.9310   50.9805   71.0352 N   0  0  0  0  0  0  0  0  0  0  0  0
   97.4310   52.1805   73.2352 C   0  0  0  0  0  0  0  0  0  0  0  0
   98.8310   51.7805   73.5352 C   0  0  0  0  0  0  0  0  0  0  0  0
   97.3310   53.0806   72.2352 C   0  0  0  0  0  0  0  0  0  0  0  0
   99.0310   50.5805   74.3352 C   0  0  0  0  0  0  0  0  0  0  0  0
   99.0310   48.0805   74.4352 P   0  0  0  0  0  4  0  0  0  0  0  0
   98.8310   47.5805   73.0352 O   0  0  0  0  0  1  0  0  0  0  0  0
   99.7310   49.3805   74.3352 O   0  0  0  0  0  0  0  0  0  0  0  0
   99.9310   47.0805   75.0352 O   0  0  0  0  0  0  0  0  0  0  0  0
   96.8310   51.7806   71.9352 N   0  0  0  0  0  0  0  0  0  0  0  0
   95.4310   51.5806   72.2352 C   0  0  0  0  0  0  0  0  0  0  0  0
   92.3310   50.1805   71.8352 N   0  0  0  0  0  0  0  0  0  0  0  0
  2  1  2  0
  3  1  1  0
  4  1  1  0
  5  4  1  0
  6  5  2  0
  7  5  1  0
  8  1  1  0
  9  7  1  0
 10  9  1  0
 11  9  1  0
 12 11  1  0
 13 11  1  0
 14 12  1  0
 15  6  1  0
 15 10  1  0
 16 13  2  0
 17 14  1  0
 18 17  1  0
 19 17  1  0
 20 18  1  0
 21  8  1  0
 22 21  2  0
 23 20  1  0
 23 21  1  0
 24 21  1  0
 25 17  1  0
 25 19  1  0
 26 11  1  0
 26 12  2  0
 26 25  1  0
 27 13  1  0
M  END
>  <ID>  (1) 
conformer_0

$$$$
