
     RDKit          3D

 24 25  0  0  0  0  0  0  0  0999 V2000
   96.7310   46.7805   75.3352 P   0  0  0  0  0  4  0  0  0  0  0  0
   95.7310   47.2805   76.3352 O   0  0  0  0  0  1  0  0  0  0  0  0
   97.1311   45.5805   76.1352 O   0  0  0  0  0  0  0  0  0  0  0  0
   96.3310   46.4805   74.0352 O   0  0  0  0  0  0  0  0  0  0  0  0
   95.6311   46.8805   72.8352 C   0  0  0  0  0  0  0  0  0  0  0  0
   94.4311   46.5805   72.2352 C   0  0  0  0  0  0  0  0  0  0  0  0
   96.0311   48.2805   72.6352 C   0  0  0  0  0  0  0  0  0  0  0  0
   97.8310   47.7805   75.2352 O   0  0  0  0  0  0  0  0  0  0  0  0
   95.0311   49.1805   72.0352 C   0  0  0  0  0  0  0  0  0  0  0  0
   94.1311   48.6805   71.0352 C   0  0  0  0  0  0  0  0  0  0  0  0
   94.6311   50.3806   72.7352 C   0  0  0  0  0  0  0  0  0  0  0  0
   95.3310   51.0806   73.6352 C   0  0  0  0  0  0  0  0  0  0  0  0
   93.3310   50.8806   72.2352 C   0  0  0  0  0  0  0  0  0  0  0  0
   96.4310   51.7806   73.7352 N   0  0  0  0  0  0  0  0  0  0  0  0
   93.6311   47.2805   71.2352 C   0  0  0  0  0  0  0  0  0  0  0  0
   92.9310   50.8806   71.0352 N   0  0  0  0  0  0  0  0  0  0  0  0
   96.9310   52.8806   73.2352 C   0  0  0  0  0  0  0  0  0  0  0  0
   97.4310   53.5806   72.2352 C   0  0  0  0  0  0  0  0  0  0  0  0
   99.0310   47.9805   74.4352 P   0  0  0  0  0  4  0  0  0  0  0  0
   99.2310   49.3805   74.0352 O   0  0  0  0  0  1  0  0  0  0  0  0
  100.0310   46.8805   74.6352 O   0  0  0  0  0  0  0  0  0  0  0  0
   98.8310   47.4805   73.0352 O   0  0  0  0  0  0  0  0  0  0  0  0
   92.4310   51.1805   73.1352 O   0  0  0  0  0  0  0  0  0  0  0  0
   97.4310   53.9805   73.7352 N   0  0  0  0  0  0  0  0  0  0  0  0
  2  1  2  0
  3  1  1  0
  4  1  1  0
  5  4  1  0
  6  5  2  0
  7  5  1  0
  8  1  1  0
  9  7  1  0
 10  9  1  0
 11  9  1  0
 12 11  1  0
 13 11  1  0
 14 12  1  0
 15  6  1  0
 15 10  1  0
 16 13  1  0
 17 14  1  0
 18 17  1  0
 19  8  1  0
 20 19  2  0
 21 19  1  0
 22 19  1  0
 23 13  2  0
 24 17  2  0
 24 18  1  0
M  END
>  <ID>  (1) 
conformer_0

$$$$
