
     RDKit          3D

 13 13  0  0  0  0  0  0  0  0999 V2000
   95.8530   47.2159   76.3771 O   0  0  0  0  0  1  0  0  0  0  0  0
   96.8530   46.7159   75.3771 P   0  0  0  0  0  4  0  0  0  0  0  0
   97.1530   45.5159   76.1771 O   0  0  0  0  0  0  0  0  0  0  0  0
   96.4530   46.3159   74.0771 O   0  0  0  0  0  0  0  0  0  0  0  0
   95.9530   46.7159   72.7771 C   0  0  0  0  0  0  0  0  0  0  0  0
   94.6530   46.2159   72.4771 C   0  0  0  0  0  0  0  0  0  0  0  0
   95.9530   48.2159   72.7771 C   0  0  0  0  0  0  0  0  0  0  0  0
   94.8530   48.8159   72.0771 C   0  0  0  0  0  0  0  0  0  0  0  0
   94.0530   48.1159   71.0771 C   0  0  0  0  0  0  0  0  0  0  0  0
   94.0530   49.9159   72.6771 C   0  0  0  0  0  0  0  0  0  0  0  0
   94.6530   50.8159   73.6771 C   0  0  0  0  0  0  0  0  0  0  0  0
   97.9530   47.7159   75.2771 O   0  0  0  0  0  0  0  0  0  0  0  0
   93.7530   46.7159   71.4771 C   0  0  0  0  0  0  0  0  0  0  0  0
  2  1  2  0
  3  2  1  0
  4  2  1  0
  5  4  1  0
  6  5  1  0
  7  5  1  0
  8  7  1  0
  9  8  1  0
 10  8  1  0
 11 10  1  0
 12  2  1  0
 13  6  1  0
 13  9  1  0
M  END
>  <ID>  (1) 
conformer_0

$$$$
