
     RDKit          3D

 20 21  0  0  0  0  0  0  0  0999 V2000
   96.7568   46.7759   75.3336 P   0  0  0  0  0  4  0  0  0  0  0  0
   95.7568   47.2759   76.3336 O   0  0  0  0  0  1  0  0  0  0  0  0
   97.3568   45.6759   76.1336 O   0  0  0  0  0  0  0  0  0  0  0  0
   96.2568   46.3759   74.0336 O   0  0  0  0  0  0  0  0  0  0  0  0
   96.0568   46.9759   72.7336 C   0  0  0  0  0  0  0  0  0  0  0  0
   94.8568   46.7759   72.0336 C   0  0  0  0  0  0  0  0  0  0  0  0
   96.5568   48.3759   72.7336 C   0  0  0  0  0  0  0  0  0  0  0  0
   97.8568   47.7759   75.1336 O   0  0  0  0  0  0  0  0  0  0  0  0
   94.4568   47.9759   71.3336 C   0  0  0  0  0  0  0  0  0  0  0  0
   94.1568   49.1759   72.1336 C   0  0  0  0  0  0  0  0  0  0  0  0
   95.4568   49.3759   72.8336 C   0  0  0  0  0  0  0  0  0  0  0  0
   94.4568   48.6759   73.6336 C   0  0  0  0  0  0  0  0  0  0  0  0
   95.8568   50.6759   73.3336 C   0  0  0  0  0  0  0  0  0  0  0  0
   97.2568   50.9759   73.3336 C   0  0  0  0  0  0  0  0  0  0  0  0
   95.0568   51.2759   74.3336 C   0  0  0  0  0  0  0  0  0  0  0  0
   99.1568   47.5759   75.8336 C   0  0  0  0  0  0  0  0  0  0  0  0
   99.6568   46.1759   75.9336 P   0  0  0  0  0  4  0  0  0  0  0  0
   99.4568   45.6759   74.5336 O   0  0  0  0  0  1  0  0  0  0  0  0
  100.9568   46.2759   76.6336 O   0  0  0  0  0  0  0  0  0  0  0  0
   99.3568   44.8759   76.5336 O   0  0  0  0  0  0  0  0  0  0  0  0
  2  1  2  0
  3  1  1  0
  4  1  1  0
  5  4  1  0
  6  5  1  0
  7  5  1  0
  8  1  1  0
  9  6  1  0
 10  9  1  0
 11  7  1  0
 11 10  1  0
 12 10  1  0
 12 11  1  0
 13 11  1  0
 14 13  1  0
 15 13  1  0
 16  8  1  0
 17 16  1  0
 18 17  2  0
 19 17  1  0
 20 17  1  0
M  END
>  <ID>  (1) 
conformer_0

$$$$
