
     RDKit          3D

 23 26  0  0  0  0  0  0  0  0999 V2000
   96.7568   46.7759   75.3336 P   0  0  0  0  0  4  0  0  0  0  0  0
   95.7568   47.2759   76.3336 O   0  0  0  0  0  1  0  0  0  0  0  0
   97.1568   45.5759   76.1336 O   0  0  0  0  0  0  0  0  0  0  0  0
   96.0568   46.2759   74.1336 O   0  0  0  0  0  0  0  0  0  0  0  0
   95.8568   46.7759   72.7336 C   0  0  0  0  0  0  0  0  0  0  0  0
   94.6568   46.4759   72.0336 C   0  0  0  0  0  0  0  0  0  0  0  0
   96.1568   48.1759   72.7336 C   0  0  0  0  0  0  0  0  0  0  0  0
   97.8568   47.6759   74.9336 O   0  0  0  0  0  0  0  0  0  0  0  0
   95.1568   49.0759   72.1336 C   0  0  0  0  0  0  0  0  0  0  0  0
   93.7568   48.7759   72.2336 C   0  0  0  0  0  0  0  0  0  0  0  0
   95.4568   50.4759   72.5336 C   0  0  0  0  0  0  0  0  0  0  0  0
   94.4568   51.2759   72.0336 C   0  0  0  0  0  0  0  0  0  0  0  0
   96.5568   50.5759   73.5336 C   0  0  0  0  0  3  0  0  0  0  0  0
   97.7568   51.3759   73.4336 C   0  0  0  0  0  0  0  0  0  0  0  0
   93.4568   47.2759   72.2336 C   0  0  0  0  0  0  0  0  0  0  0  0
   96.3568   49.7759   74.7336 C   0  0  0  0  0  0  0  0  0  0  0  0
   97.6568   52.6759   72.9336 C   0  0  0  0  0  0  0  0  0  0  0  0
   96.5568   52.5759   72.0336 N   0  0  0  0  0  0  0  0  0  0  0  0
   97.5568   49.0759   75.2336 C   0  0  0  0  0  0  0  0  0  0  0  0
   93.4568   51.2759   71.1336 N   0  0  0  0  0  0  0  0  0  0  0  0
   95.7569   51.5759   71.7336 C   0  0  0  0  0  0  0  0  0  0  0  0
   92.0568   51.2759   71.4336 C   0  0  0  0  0  0  0  0  0  0  0  0
   91.0568   50.6759   70.5336 C   0  0  0  0  0  0  0  0  0  0  0  0
  2  1  2  0
  3  1  1  0
  4  1  1  0
  5  4  1  0
  6  5  1  0
  7  5  1  0
  8  1  1  0
  9  7  1  0
 10  9  1  0
 11  9  1  0
 12 11  1  0
 13 11  1  0
 14 13  1  0
 15  6  1  0
 15 10  1  0
 16 13  1  0
 17 14  2  0
 18 17  1  0
 19  8  1  0
 19 16  1  0
 20 12  1  0
 21 11  1  0
 21 12  1  0
 21 18  2  0
 22 20  1  0
 23 22  1  0
M  END
>  <ID>  (1) 
conformer_0

$$$$
