
     RDKit          3D

 14 14  0  0  0  0  0  0  0  0999 V2000
   96.7568   46.7759   75.3336 P   0  0  0  0  0  4  0  0  0  0  0  0
   95.6568   47.0759   76.2336 O   0  0  0  0  0  1  0  0  0  0  0  0
   97.2568   45.6759   76.1336 O   0  0  0  0  0  0  0  0  0  0  0  0
   96.5568   46.3759   73.9336 O   0  0  0  0  0  0  0  0  0  0  0  0
   96.1568   46.9759   72.7336 C   0  0  0  0  0  0  0  0  0  0  0  0
   95.7568   48.3759   72.7336 C   0  0  0  0  0  0  0  0  0  0  0  0
   95.0568   46.3759   71.9336 C   0  0  0  0  0  0  0  0  0  0  0  0
   94.4568   48.7759   72.1336 C   0  0  0  0  0  0  0  0  0  0  0  0
   94.1568   47.3759   71.3336 C   0  0  0  0  0  0  0  0  0  0  0  0
   94.3568   49.9759   71.3336 C   0  0  0  0  0  0  0  0  0  0  0  0
   95.0568   51.1759   71.5336 N   0  0  0  0  0  0  0  0  0  0  0  0
   97.8568   47.7759   75.2336 O   0  0  0  0  0  0  0  0  0  0  0  0
   95.9568   50.8759   72.6336 C   0  0  0  0  0  0  0  0  0  0  0  0
   96.2568   52.0759   73.4336 C   0  0  0  0  0  0  0  0  0  0  0  0
  2  1  2  0
  3  1  1  0
  4  1  1  0
  5  4  1  0
  6  5  1  0
  7  5  1  0
  8  6  1  0
  9  7  1  0
  9  8  1  0
 10  8  1  0
 11 10  1  0
 12  1  1  0
 13 11  1  0
 14 13  1  0
M  END
>  <ID>  (1) 
conformer_0

$$$$
