
     RDKit          3D

 15 16  0  0  0  0  0  0  0  0999 V2000
   96.7568   46.7759   75.3336 P   0  0  0  0  0  4  0  0  0  0  0  0
   95.6568   47.0759   76.2336 O   0  0  0  0  0  1  0  0  0  0  0  0
   97.2568   45.6759   76.1336 O   0  0  0  0  0  0  0  0  0  0  0  0
   96.5568   46.3759   73.9336 O   0  0  0  0  0  0  0  0  0  0  0  0
   96.4568   46.8759   72.6336 C   0  0  0  0  0  0  0  0  0  0  0  0
   95.1568   46.9759   71.9336 C   0  0  0  0  0  0  0  0  0  0  0  0
   96.8568   48.2759   72.9336 C   0  0  0  0  0  0  0  0  0  0  0  0
   95.9568   49.2759   72.5336 C   0  0  0  0  0  0  0  0  0  0  0  0
   94.5568   49.1759   73.0336 C   0  0  0  0  0  0  0  0  0  0  0  0
   96.3568   50.5759   72.0336 C   0  0  0  0  0  0  0  0  0  0  0  0
   96.1568   51.7759   72.6336 N   0  0  0  0  0  0  0  0  0  0  0  0
   97.7568   50.5759   71.7336 O   0  0  0  0  0  0  0  0  0  0  0  0
   94.7568   48.5759   71.7336 C   0  0  0  0  0  0  0  0  0  0  0  0
   97.0568   52.8759   72.9336 C   0  0  0  0  0  0  0  0  0  0  0  0
   97.7568   47.8759   75.5336 O   0  0  0  0  0  0  0  0  0  0  0  0
  2  1  2  0
  3  1  1  0
  4  1  1  0
  5  4  1  0
  6  5  1  0
  7  5  1  0
  8  7  1  0
  9  8  1  0
 10  8  1  0
 11 10  1  0
 12 10  1  0
 13  6  1  0
 13  8  1  0
 13  9  1  0
 14 11  1  0
 15  1  1  0
M  END
>  <ID>  (1) 
conformer_0

$$$$
