
     RDKit          3D

 19 21  0  0  0  0  0  0  0  0999 V2000
   96.7568   46.7759   75.3336 P   0  0  0  0  0  4  0  0  0  0  0  0
   95.7568   47.2759   76.3336 O   0  0  0  0  0  1  0  0  0  0  0  0
   97.3568   45.6759   76.1336 O   0  0  0  0  0  0  0  0  0  0  0  0
   96.2568   46.3759   74.0336 O   0  0  0  0  0  0  0  0  0  0  0  0
   96.0568   46.9759   72.7336 C   0  0  0  0  0  0  0  0  0  0  0  0
   94.8568   46.7759   72.0336 C   0  0  0  0  0  0  0  0  0  0  0  0
   96.5568   48.3759   72.7336 C   0  0  0  0  0  0  0  0  0  0  0  0
   97.8568   47.7759   75.1336 O   0  0  0  0  0  0  0  0  0  0  0  0
   95.4568   49.3759   72.5336 C   0  0  0  0  0  0  0  0  0  0  0  0
   94.0568   48.9759   72.7336 C   0  0  0  0  0  0  0  0  0  0  0  0
   95.8568   50.7759   72.6336 C   0  0  0  0  0  0  0  0  0  0  0  0
   96.7568   51.1759   73.7336 C   0  0  0  0  0  0  0  0  0  0  0  0
   93.8568   47.7759   71.6336 C   0  0  0  0  0  0  0  0  0  0  0  0
   95.9568   51.7759   71.6336 C   0  0  0  0  0  0  0  0  0  0  0  0
   97.1568   52.3759   71.6336 N   0  0  0  0  0  0  0  0  0  0  0  0
   96.6568   52.5759   73.9336 N   0  0  0  0  0  0  0  0  0  0  0  0
   97.1568   50.1759   74.5336 N   0  0  0  0  0  0  0  0  0  0  0  0
   96.9568   53.1759   72.7336 C   0  0  0  0  0  0  0  0  0  0  0  0
   97.5568   49.1759   75.4336 C   0  0  0  0  0  0  0  0  0  0  0  0
  2  1  2  0
  3  1  1  0
  4  1  1  0
  5  4  1  0
  6  5  1  0
  7  5  1  0
  8  1  1  0
  9  7  1  0
 10  9  1  0
 11  9  1  0
 12 11  1  0
 13  6  1  0
 13 10  1  0
 14 11  1  0
 15 14  1  0
 16 12  2  0
 17 12  1  0
 18 15  1  0
 18 16  1  0
 19  8  1  0
 19 17  1  0
M  END
>  <ID>  (1) 
conformer_0

$$$$
