
     RDKit          3D

 11 10  0  0  0  0  0  0  0  0999 V2000
  -24.2200   35.4906  -45.7027 C   0  0  0  0  0  0  0  0  0  0  0  0
  -27.3220   31.6410  -43.6294 C   0  0  0  0  0  0  0  0  0  0  0  0
  -22.4769   36.3470  -46.9176 C   0  0  0  0  0  0  0  0  0  0  0  0
  -22.9460   35.3721  -45.7563 C   0  0  0  0  0  0  0  0  0  0  0  0
  -27.0096   32.9100  -43.8877 C   0  0  0  0  0  0  0  0  0  0  0  0
  -26.0148   35.0278  -44.9985 C   0  0  0  0  0  0  0  0  0  0  0  0
  -26.2905   33.8341  -45.1973 N   0  0  0  0  0  0  0  0  0  0  0  0
  -26.7883   30.4845  -43.7051 O   0  0  0  0  0  0  0  0  0  0  0  0
  -22.4911   37.0071  -48.1774 C   0  0  0  0  0  0  0  0  0  0  0  0
  -26.6321   35.5415  -44.3558 O   0  0  0  0  0  0  0  0  0  0  0  0
  -22.7922   37.3532  -49.6365 C   0  0  0  0  0  0  0  0  0  0  0  0
  4  1  1  0
  4  3  1  0
  5  2  1  0
  6  1  1  0
  7  5  1  0
  7  6  1  0
  8  2  1  0
  9  3  3  0
 10  6  2  0
 11  9  1  0
M  END
>  <ID>  (1) 
conformer_0

$$$$
