
     RDKit          3D

 11 10  0  0  0  0  0  0  0  0999 V2000
  -27.3933   31.6797  -43.4700 C   0  0  0  0  0  0  0  0  0  0  0  0
  -22.7549   36.9553  -47.4434 C   0  0  0  0  0  0  0  0  0  0  0  0
  -22.2870   37.1631  -48.8938 C   0  0  0  0  0  0  0  0  0  0  0  0
  -22.7591   37.3630  -50.1140 C   0  0  0  0  0  0  0  0  0  0  0  0
  -23.6600   35.3272  -45.5744 C   0  0  0  0  0  0  0  0  0  0  0  0
  -26.9838   32.8363  -43.6466 C   0  0  0  0  0  0  0  0  0  0  0  0
  -26.6228   35.2915  -44.0548 O   0  0  0  0  0  0  0  0  0  0  0  0
  -27.1098   30.5004  -43.7170 O   0  0  0  0  0  0  0  0  0  0  0  0
  -26.3065   34.3843  -44.5793 C   0  0  0  0  0  0  0  0  0  0  0  0
  -24.9121   35.5722  -45.8399 C   0  0  0  0  0  0  0  0  0  0  0  0
  -22.3768   35.8677  -46.4535 C   0  0  0  0  0  0  0  0  0  0  0  0
  3  2  1  0
  4  3  2  3
  6  1  2  0
  8  1  1  0
  9  6  2  0
  9  7  1  0
 10  5  1  0
 10  9  1  0
 11  2  1  0
 11  5  1  0
M  END
>  <ID>  (1) 
conformer_0

$$$$
