
     RDKit          3D

 12 11  0  0  0  0  0  0  0  0999 V2000
  -22.5700   35.5849  -46.1090 C   0  0  0  0  0  0  0  0  0  0  0  0
  -27.5623   31.4152  -43.5691 C   0  0  0  0  0  0  0  0  0  0  0  0
  -23.3744   37.4642  -49.0348 C   0  0  0  0  0  0  0  0  0  0  0  0
  -22.0025   36.8316  -48.0995 C   0  0  0  0  0  0  0  0  0  0  0  0
  -27.2116   32.7006  -43.6362 C   0  0  0  0  0  0  0  0  0  0  0  0
  -26.9083   30.2712  -43.1020 O   0  0  0  0  0  0  0  0  0  0  0  0
  -22.4884   37.2797  -50.0661 C   0  0  0  0  0  0  0  0  0  0  0  0
  -26.7485   35.0276  -43.9961 O   0  0  0  0  0  0  0  0  0  0  0  0
  -26.2230   34.7010  -44.5496 C   0  0  0  0  0  0  0  0  0  0  0  0
  -23.2514   36.4268  -47.0672 C   0  0  0  0  0  0  0  0  0  0  0  0
  -24.0979   34.8195  -45.2139 C   0  0  0  0  0  0  0  0  0  0  0  0
  -24.9897   35.6976  -46.0648 C   0  0  0  0  0  0  0  0  0  0  0  0
  4  3  1  0
  5  2  2  0
  6  2  1  0
  7  3  1  0
  9  5  2  0
  9  8  1  0
 10  1  1  0
 10  4  1  0
 11  1  1  0
 12  9  1  0
 12 11  1  0
M  END
>  <ID>  (1) 
conformer_0

$$$$
