
     RDKit          3D

 12 11  0  0  0  0  0  0  0  0999 V2000
  -22.7538   36.8777  -47.6411 C   0  0  0  0  0  0  0  0  0  0  0  0
  -23.3396   37.4300  -50.1189 C   0  0  0  0  0  0  0  0  0  0  0  0
  -27.2712   31.4456  -43.2102 C   0  0  0  0  0  0  0  0  0  0  0  0
  -22.4106   37.2173  -49.0245 C   0  0  0  0  0  0  0  0  0  0  0  0
  -27.0606   33.2214  -43.6522 C   0  0  0  0  0  0  0  0  0  0  0  0
  -26.3191   35.5409  -44.5574 O   0  0  0  0  0  0  0  0  0  0  0  0
  -22.1849   35.8635  -46.6398 C   0  0  0  0  0  0  0  0  0  0  0  0
  -27.8799   31.0816  -44.3501 O   0  0  0  0  0  0  0  0  0  0  0  0
  -23.3456   35.3940  -45.7843 C   0  0  0  0  0  0  0  0  0  0  0  0
  -25.8448   34.8870  -44.8555 C   0  0  0  0  0  0  0  0  0  0  0  0
  -26.4388   33.6413  -43.4146 O   0  0  0  0  0  0  0  0  0  0  0  0
  -24.7668   35.2230  -46.0077 C   0  0  0  0  0  0  0  0  0  0  0  0
  4  1  1  0
  4  2  1  0
  5  3  1  0
  7  1  1  0
  8  3  1  0
  9  7  1  0
 10  6  2  0
 11  5  1  0
 11 10  1  0
 12  9  2  3
 12 10  1  0
M  END
>  <ID>  (1) 
conformer_0

$$$$
