
     RDKit          3D

 11 10  0  0  0  0  0  0  0  0999 V2000
  -24.1961   35.7688  -46.1739 C   0  0  0  0  0  0  0  0  0  0  0  0
  -22.8279   35.6151  -45.9584 C   0  0  0  0  0  0  0  0  0  0  0  0
  -27.0984   33.0993  -43.9176 C   0  0  0  0  0  0  0  0  0  0  0  0
  -25.8365   35.0700  -45.1155 C   0  0  0  0  0  0  0  0  0  0  0  0
  -22.4383   36.6380  -47.1445 C   0  0  0  0  0  0  0  0  0  0  0  0
  -26.4109   35.7928  -44.7409 O   0  0  0  0  0  0  0  0  0  0  0  0
  -22.6795   37.2158  -48.3226 C   0  0  0  0  0  0  0  0  0  0  0  0
  -27.4247   30.6323  -44.0575 O   0  0  0  0  0  0  0  0  0  0  0  0
  -27.4527   31.7363  -43.4293 C   0  0  0  0  0  0  0  0  0  0  0  0
  -26.1313   33.6317  -45.3245 N   0  0  0  0  0  0  0  0  0  0  0  0
  -22.5871   37.3324  -49.7661 C   0  0  0  0  0  0  0  0  0  0  0  0
  2  1  1  0
  4  1  1  0
  5  2  1  0
  6  4  2  0
  7  5  1  0
  9  3  1  0
  9  8  1  0
 10  3  1  0
 10  4  1  0
 11  7  1  0
M  END
>  <ID>  (1) 
conformer_0

$$$$
