
     RDKit          3D

 11 10  0  0  0  0  0  0  0  0999 V2000
  -22.8945   37.3514  -48.7062 C   0  0  0  0  0  0  0  0  0  0  0  0
  -22.7414   37.2537  -49.8090 C   0  0  0  0  0  0  0  0  0  0  0  0
  -26.9684   33.3887  -43.9468 C   0  0  0  0  0  0  0  0  0  0  0  0
  -26.3551   35.0692  -45.1707 C   0  0  1  0  0  0  0  0  0  0  0  0
  -22.0913   36.5256  -47.5234 C   0  0  0  0  0  0  0  0  0  0  0  0
  -22.6397   36.5839  -46.1682 C   0  0  0  0  0  0  0  0  0  0  0  0
  -27.1894   35.7533  -44.1953 O   0  0  0  0  0  0  0  0  0  0  0  0
  -26.4665   30.6807  -43.4311 O   0  0  0  0  0  0  0  0  0  0  0  0
  -27.4585   31.6700  -43.3057 C   0  0  0  0  0  0  0  0  0  0  0  0
  -23.0390   35.3077  -45.7642 C   0  0  0  0  0  0  0  0  0  0  0  0
  -24.6290   35.3334  -45.6300 C   0  0  0  0  0  0  0  0  0  0  0  0
  2  1  2  3
  4  3  1  0
  5  1  1  0
  6  5  1  0
  4  7  1  1
  9  3  1  0
  9  8  1  0
 10  6  1  0
 11  4  1  0
 11 10  1  0
M  END
>  <ID>  (1) 
conformer_0

$$$$
