
     RDKit          3D

 12 11  0  0  0  0  0  0  0  0999 V2000
  -23.2435   35.2630  -45.5408 C   0  0  0  0  0  0  0  0  0  0  0  0
  -22.5262   36.1860  -46.4351 C   0  0  0  0  0  0  0  0  0  0  0  0
  -27.4355   31.3685  -43.4360 C   0  0  0  0  0  0  0  0  0  0  0  0
  -22.5571   37.2404  -48.7495 C   0  0  0  0  0  0  0  0  0  0  0  0
  -26.8213   33.7960  -44.4940 C   0  0  0  0  0  0  0  0  0  0  0  0
  -26.1764   35.7602  -44.0798 O   0  0  0  0  0  0  0  0  0  0  0  0
  -24.7255   35.1965  -45.6076 C   0  0  0  0  0  0  0  0  0  0  0  0
  -27.4572   30.8683  -44.3628 O   0  0  0  0  0  0  0  0  0  0  0  0
  -26.9539   32.5094  -43.6201 C   0  0  0  0  0  0  0  0  0  0  0  0
  -22.8642   37.3535  -50.0173 C   0  0  0  0  0  0  0  0  0  0  0  0
  -22.7398   37.4934  -47.1730 C   0  0  0  0  0  0  0  0  0  0  0  0
  -25.9764   35.2184  -44.9803 C   0  0  0  0  0  0  0  0  0  0  0  0
  2  1  1  0
  7  1  1  0
  8  3  1  0
  9  3  1  0
  9  5  1  0
 10  4  1  0
 11  2  1  0
 11  4  1  0
 12  5  1  0
 12  6  1  0
 12  7  1  0
M  END
>  <ID>  (1) 
conformer_0

$$$$
