
     RDKit          3D

 13 12  0  0  0  0  0  0  0  0999 V2000
  -22.2899   36.4267  -46.4101 C   0  0  0  0  0  0  0  0  0  0  0  0
  -27.8081   31.4172  -43.5519 C   0  0  0  0  0  0  0  0  0  0  0  0
  -23.3701   37.4506  -50.0090 C   0  0  0  0  0  0  0  0  0  0  0  0
  -23.2588   36.9376  -47.8218 C   0  0  0  0  0  0  0  0  0  0  0  0
  -26.7204   32.3844  -43.3195 C   0  0  0  0  0  0  0  0  0  0  0  0
  -26.2088   36.2136  -44.8659 O   0  0  0  0  0  0  0  0  0  0  0  0
  -25.7216   35.0980  -45.2762 C   0  0  0  0  0  0  0  0  0  0  0  0
  -26.8891   30.4280  -43.1451 O   0  0  0  0  0  0  0  0  0  0  0  0
  -22.3765   37.2864  -49.2179 C   0  0  0  0  0  0  0  0  0  0  0  0
  -23.0079   35.4116  -45.8000 C   0  0  0  0  0  0  0  0  0  0  0  0
  -24.4167   35.3321  -46.0158 C   0  0  0  0  0  0  0  0  0  0  0  0
  -26.4657   34.2878  -44.6925 O   0  0  0  0  0  0  0  0  0  0  0  0
  -27.0490   33.6931  -43.9354 C   0  0  0  0  0  0  0  0  0  0  0  0
  4  1  1  0
  5  2  1  0
  7  6  2  0
  8  2  1  0
  9  3  1  0
  9  4  1  0
 10  1  1  0
 11  7  1  0
 11 10  1  0
 12  7  1  0
 13  5  1  0
 13 12  1  0
M  END
>  <ID>  (1) 
conformer_0

$$$$
