
     RDKit          3D

 12 11  0  0  0  0  0  0  0  0999 V2000
  -24.8694   35.2922  -45.6202 C   0  0  0  0  0  0  0  0  0  0  0  0
  -23.6600   35.0623  -45.4727 C   0  0  0  0  0  0  0  0  0  0  0  0
  -27.2244   31.5425  -43.4194 C   0  0  0  0  0  0  0  0  0  0  0  0
  -22.2846   35.9311  -46.3901 C   0  0  0  0  0  0  0  0  0  0  0  0
  -27.2020   32.9217  -43.9128 C   0  0  0  0  0  0  0  0  0  0  0  0
  -23.3993   36.6260  -47.0110 C   0  0  0  0  0  0  0  0  0  0  0  0
  -26.7007   34.6668  -43.8355 O   0  0  0  0  0  0  0  0  0  0  0  0
  -27.5576   30.8989  -44.0475 O   0  0  0  0  0  0  0  0  0  0  0  0
  -26.1554   34.6440  -44.6613 C   0  0  0  0  0  0  0  0  0  0  0  0
  -22.2175   37.1994  -48.2195 C   0  0  0  0  0  0  0  0  0  0  0  0
  -23.5753   37.5073  -49.0499 C   0  0  0  0  0  0  0  0  0  0  0  0
  -22.6512   37.2687  -50.3359 C   0  0  0  0  0  0  0  0  0  0  0  0
  2  1  2  3
  4  2  1  0
  5  3  1  0
  6  4  1  0
  7  5  1  0
  8  3  1  0
  9  1  1  0
  9  7  1  0
 10  6  1  0
 11 10  1  0
 12 11  1  0
M  END
>  <ID>  (1) 
conformer_0

$$$$
