
     RDKit          3D

 12 11  0  0  0  0  0  0  0  0999 V2000
  -22.1032   35.5259  -46.0254 C   0  0  0  0  0  0  0  0  0  0  0  0
  -22.7217   37.3177  -50.1551 C   0  0  0  0  0  0  0  0  0  0  0  0
  -27.7930   31.5131  -43.5151 C   0  0  0  0  0  0  0  0  0  0  0  0
  -23.1776   37.4305  -48.7939 C   0  0  0  0  0  0  0  0  0  0  0  0
  -22.0579   36.8146  -47.9064 C   0  0  0  0  0  0  0  0  0  0  0  0
  -26.9494   32.7591  -43.8018 C   0  0  0  0  0  0  0  0  0  0  0  0
  -27.1188   35.2003  -44.4638 O   0  0  0  0  0  0  0  0  0  0  0  0
  -23.1693   36.1950  -46.7168 C   0  0  0  0  0  0  0  0  0  0  0  0
  -26.0849   34.7104  -44.6950 C   0  0  0  0  0  0  0  0  0  0  0  0
  -26.7480   32.3087  -44.2094 N   0  0  0  0  0  0  0  0  0  0  0  0
  -23.9298   35.0791  -45.3316 C   0  0  0  0  0  0  0  0  0  0  0  0
  -25.1758   35.7246  -46.2620 C   0  0  0  0  0  0  0  0  0  0  0  0
  4  2  1  0
  5  4  1  0
  6  3  1  0
  8  1  1  0
  8  5  1  0
  9  6  1  0
  9  7  2  0
 10  6  1  0
 11  8  1  0
 12  9  1  0
 12 11  1  0
M  END
>  <ID>  (1) 
conformer_0

$$$$
