
     RDKit          3D

 13 12  0  0  0  0  0  0  0  0999 V2000
  -22.5026   37.2686  -49.5321 C   0  0  0  0  0  0  0  0  0  0  0  0
  -22.8484   37.2952  -48.1913 C   0  0  0  0  0  0  0  0  0  0  0  0
  -27.5151   32.5430  -43.8731 C   0  0  0  0  0  0  0  0  0  0  0  0
  -26.4435   33.8841  -44.4118 C   0  0  0  0  0  0  0  0  0  0  0  0
  -22.0222   36.3615  -47.4544 C   0  0  0  0  0  0  0  0  0  0  0  0
  -26.3074   36.3484  -44.8956 O   0  0  0  0  0  0  0  0  0  0  0  0
  -27.6556   30.9849  -44.6457 O   0  0  0  0  0  0  0  0  0  0  0  0
  -24.0005   35.8722  -46.2444 C   0  0  0  0  0  0  0  0  0  0  0  0
  -27.6119   31.2266  -43.4180 C   0  0  0  0  0  0  0  0  0  0  0  0
  -26.3661   34.0912  -43.8037 O   0  0  0  0  0  0  0  0  0  0  0  0
  -22.3366   35.6163  -46.0747 C   0  0  0  0  0  0  0  0  0  0  0  0
  -24.0482   34.7582  -45.2882 C   0  0  0  0  0  0  0  0  0  0  0  0
  -25.6391   35.4460  -45.1262 C   0  0  0  0  0  0  0  0  0  0  0  0
  2  1  1  0
  4  3  1  0
  5  2  1  0
  9  3  1  0
  9  7  1  0
 10  4  2  0
 11  5  1  0
 11  8  1  0
 12  8  1  0
 13  4  1  0
 13  6  2  0
 13 12  1  0
M  END
>  <ID>  (1) 
conformer_0

$$$$
