
     RDKit          3D

 16 15  0  0  0  0  0  0  0  0999 V2000
  -21.8843   36.4009  -47.8413 C   0  0  0  0  0  0  0  0  0  0  0  0
  -26.2796   33.3669  -43.7216 C   0  0  0  0  0  0  0  0  0  0  0  0
  -23.0013   37.5389  -48.4209 C   0  0  0  0  0  0  0  0  0  0  0  0
  -27.3626   34.8965  -44.7221 C   0  0  0  0  0  0  0  0  0  0  0  0
  -22.1422   35.3457  -46.1747 C   0  0  0  0  0  0  0  0  0  0  0  0
  -23.8209   35.2650  -45.4146 C   0  0  0  0  0  0  0  0  0  0  0  0
  -26.2148   34.2583  -43.8167 O   0  0  0  0  0  0  0  0  0  0  0  0
  -26.6093   30.2674  -43.0927 O   0  0  0  0  0  0  0  0  0  0  0  0
  -26.0672   35.5664  -45.5632 C   0  0  0  0  0  0  0  0  0  0  0  0
  -24.8244   35.7813  -46.1186 C   0  0  0  0  0  0  0  0  0  0  0  0
  -26.6202   31.6456  -44.9001 O   0  0  0  0  0  0  0  0  0  0  0  0
  -22.9218   36.7801  -46.4450 C   0  0  0  0  0  0  0  0  0  0  0  0
  -26.7715   35.9452  -44.7134 O   0  0  0  0  0  0  0  0  0  0  0  0
  -27.6803   32.5944  -43.7793 C   0  0  0  0  0  0  0  0  0  0  0  0
  -27.0887   31.1841  -43.4884 C   0  0  0  0  0  0  0  0  0  0  0  0
  -22.4379   37.1828  -49.7510 C   0  0  0  0  0  0  0  0  0  0  0  0
  3  1  1  0
  6  5  1  0
  7  2  1  0
  7  4  1  0
 10  6  1  0
 10  9  1  0
 12  1  1  0
 12  5  1  0
 13  4  1  0
 13  9  1  0
 14  2  1  0
 15  8  1  0
 15 11  1  0
 15 14  1  0
 16  3  1  0
M  END
>  <ID>  (1) 
conformer_0

$$$$
