
     RDKit          3D

 11 10  0  0  0  0  0  0  0  0999 V2000
  -22.5747   37.2914  -49.7246 C   0  0  0  0  0  0  0  0  0  0  0  0
  -23.2108   37.4146  -48.3388 C   0  0  0  0  0  0  0  0  0  0  0  0
  -27.4216   31.3915  -43.5995 C   0  0  0  0  0  0  0  0  0  0  0  0
  -22.4219   37.0314  -47.4288 C   0  0  0  0  0  0  0  0  0  0  0  0
  -26.2115   35.9156  -44.5080 O   0  0  0  0  0  0  0  0  0  0  0  0
  -27.2285   32.7014  -43.8504 C   0  0  0  0  0  0  0  0  0  0  0  0
  -22.5119   35.7817  -46.1936 C   0  0  0  0  0  0  0  0  0  0  0  0
  -27.0650   30.7541  -44.5437 O   0  0  0  0  0  0  0  0  0  0  0  0
  -26.1848   34.4799  -44.5256 C   0  0  0  0  0  0  0  0  0  0  0  0
  -24.1924   35.7663  -46.2364 C   0  0  0  0  0  0  0  0  0  0  0  0
  -23.9192   34.8715  -45.1809 C   0  0  0  0  0  0  0  0  0  0  0  0
  2  1  1  0
  4  2  1  0
  6  3  1  0
  7  4  1  0
  8  3  1  0
  9  5  1  0
  9  6  1  0
 10  7  1  0
 11  9  1  0
 11 10  1  0
M  END
>  <ID>  (1) 
conformer_0

$$$$
