
     RDKit          3D

 11 10  0  0  0  0  0  0  0  0999 V2000
  -23.4236   35.7819  -46.1406 C   0  0  0  0  0  0  0  0  0  0  0  0
  -24.3647   35.5680  -45.8928 C   0  0  0  0  0  3  0  0  0  0  0  0
  -27.6527   31.6246  -43.4947 C   0  0  0  0  0  0  0  0  0  0  0  0
  -22.6841   37.0248  -48.2881 C   0  0  0  0  0  0  0  0  0  0  0  0
  -27.0824   32.9944  -43.6787 C   0  0  0  0  0  0  0  0  0  0  0  0
  -22.3236   37.2621  -49.4131 C   0  0  0  0  0  0  0  0  0  0  0  0
  -26.1051   34.8521  -44.8185 C   0  0  0  0  0  0  0  0  0  0  0  0
  -26.9031   35.6638  -44.5595 O   0  0  0  0  0  0  0  0  0  0  0  0
  -27.2659   30.9307  -44.4348 O   0  0  0  0  0  0  0  0  0  0  0  0
  -25.8884   33.7194  -44.4357 N   0  0  0  0  0  0  0  0  0  0  0  0
  -22.3565   36.2962  -47.1054 C   0  0  0  0  0  0  0  0  0  0  0  0
  2  1  2  3
  5  3  1  0
  6  4  2  3
  7  2  1  0
  8  7  2  0
  9  3  1  0
 10  5  1  0
 10  7  1  0
 11  1  1  0
 11  4  1  0
M  RAD  1   2   2
M  END
>  <ID>  (1) 
conformer_0

$$$$
