
     RDKit          3D

 11 10  0  0  0  0  0  0  0  0999 V2000
  -24.2892   35.4580  -45.9379 C   0  0  0  0  0  0  0  0  0  0  0  0
  -27.5641   31.5685  -43.4900 C   0  0  0  0  0  0  0  0  0  0  0  0
  -23.0524   35.5624  -46.0587 C   0  0  0  0  0  0  0  0  0  0  0  0
  -22.1197   36.1282  -47.1699 C   0  0  0  0  0  0  0  0  0  0  0  0
  -26.6211   32.3635  -43.9450 C   0  0  0  0  0  0  0  0  0  0  0  0
  -26.2682   35.8053  -44.7885 O   0  0  0  0  0  0  0  0  0  0  0  0
  -27.1069   30.4960  -43.9530 O   0  0  0  0  0  0  0  0  0  0  0  0
  -25.7500   35.3918  -45.1865 C   0  0  0  0  0  0  0  0  0  0  0  0
  -22.6556   37.1616  -48.0677 C   0  0  0  0  0  0  0  0  0  0  0  0
  -22.5751   37.2649  -49.4431 C   0  0  0  0  0  0  0  0  0  0  0  0
  -27.2003   34.0114  -44.3579 C   0  0  0  0  0  0  0  0  0  0  0  0
  3  1  2  0
  4  3  1  0
  5  2  1  0
  7  2  1  0
  8  1  2  0
  8  6  1  0
  9  4  1  0
 10  9  1  0
 11  5  1  0
 11  8  1  0
M  END
>  <ID>  (1) 
conformer_0

$$$$
