
     RDKit          3D

 13 12  0  0  0  0  0  0  0  0999 V2000
  -27.3180   31.7360  -43.4739 C   0  0  0  0  0  0  0  0  0  0  0  0
  -24.5540   35.6675  -46.5944 C   0  0  0  0  0  0  0  0  0  0  0  0
  -22.8920   36.1135  -46.8565 C   0  0  0  0  0  0  0  0  0  0  0  0
  -23.3298   37.4053  -48.4596 C   0  0  0  0  0  0  0  0  0  0  0  0
  -27.2228   32.9897  -43.5538 C   0  0  0  0  0  0  0  0  0  0  0  0
  -22.7825   37.3938  -50.0029 C   0  0  0  0  0  0  0  0  0  0  0  0
  -26.1314   35.8389  -44.6316 O   0  0  0  0  0  0  0  0  0  0  0  0
  -27.6896   30.7875  -43.8509 O   0  0  0  0  0  0  0  0  0  0  0  0
  -27.0740   34.4298  -44.1423 C   0  0  0  0  0  0  0  0  0  0  0  0
  -22.0454   36.8386  -48.0074 C   0  0  0  0  0  0  0  0  0  0  0  0
  -22.2906   35.1440  -45.8765 C   0  0  0  0  0  0  0  0  0  0  0  0
  -23.5155   34.6000  -45.0821 C   0  0  0  0  0  0  0  0  0  0  0  0
  -26.1926   35.4740  -45.5449 C   0  0  0  0  0  0  0  0  0  0  0  0
  3  2  1  0
  5  1  2  0
  6  4  1  0
  8  1  1  0
  9  5  2  0
  9  7  1  0
 10  3  1  0
 10  4  1  0
 11  3  1  0
 12 11  1  0
 13  2  1  0
 13  7  1  0
M  END
>  <ID>  (1) 
conformer_0

$$$$
