
     RDKit          3D

 12 11  0  0  0  0  0  0  0  0999 V2000
  -22.7041   36.8787  -47.5412 C   0  0  0  0  0  0  0  0  0  0  0  0
  -24.2459   35.8787  -46.4465 C   0  0  0  0  0  0  0  0  0  0  0  0
  -27.3127   31.5931  -43.5303 C   0  0  0  0  0  0  0  0  0  0  0  0
  -22.1000   36.9839  -48.8403 C   0  0  0  0  0  0  0  0  0  0  0  0
  -27.0865   33.0887  -43.7901 C   0  0  0  0  0  0  0  0  0  0  0  0
  -27.4967   35.5853  -44.4763 O   0  0  0  0  0  0  0  0  0  0  0  0
  -25.5957   35.3434  -46.0344 C   0  0  0  0  0  0  0  0  0  0  0  0
  -22.7051   37.4162  -50.0534 C   0  0  0  0  0  0  0  0  0  0  0  0
  -26.6515   31.2559  -44.4509 O   0  0  0  0  0  0  0  0  0  0  0  0
  -26.7963   34.9297  -44.8760 C   0  0  0  0  0  0  0  0  0  0  0  0
  -23.1197   35.0360  -45.5787 C   0  0  0  0  0  0  0  0  0  0  0  0
  -21.9880   35.6934  -46.4909 C   0  0  0  0  0  0  0  0  0  0  0  0
  4  1  1  0
  5  3  1  0
  7  2  1  0
  8  4  1  0
  9  3  1  0
 10  5  1  0
 10  6  2  0
 10  7  1  0
 11  2  1  0
 12  1  1  0
 12 11  1  0
M  END
>  <ID>  (1) 
conformer_0

$$$$
