
     RDKit          3D

 12 12  0  0  0  0  0  0  0  0999 V2000
  -24.2916   35.9499  -46.3704 C   0  0  0  0  0  0  0  0  0  0  0  0
  -22.5985   35.4285  -46.0129 C   0  0  0  0  0  0  0  0  0  0  0  0
  -27.3135   31.6131  -43.6410 C   0  0  0  0  0  0  0  0  0  0  0  0
  -22.5996   37.1951  -48.0772 C   0  0  0  0  0  0  0  0  0  0  0  0
  -26.1886   35.2088  -45.0109 C   0  0  0  0  0  0  0  0  0  0  0  0
  -26.5491   35.7993  -44.4843 O   0  0  0  0  0  0  0  0  0  0  0  0
  -26.8089   30.8411  -44.3804 O   0  0  0  0  0  0  0  0  0  0  0  0
  -22.6657   37.3305  -49.5694 C   0  0  0  0  0  0  0  0  0  0  0  0
  -26.7520   33.0812  -43.8212 C   0  0  0  0  0  0  0  0  0  0  0  0
  -22.1362   36.2637  -47.2539 C   0  0  0  0  0  0  0  0  0  0  0  0
  -26.4479   33.9903  -45.3281 N   0  0  0  0  0  0  0  0  0  0  0  0
  -24.2011   34.8387  -45.2729 C   0  0  0  0  0  0  0  0  0  0  0  0
  2  1  1  0
  6  5  2  0
  7  3  1  0
  8  4  1  0
  9  3  1  0
 10  2  1  0
 10  4  1  0
 11  5  1  0
 11  9  1  0
 12  1  1  0
 12  2  1  0
 12  5  1  0
M  END
>  <ID>  (1) 
conformer_0

$$$$
