
     RDKit          3D

 12 11  0  0  0  0  0  0  0  0999 V2000
  -22.1288   35.9339  -46.6748 C   0  0  0  0  0  0  0  0  0  0  0  0
  -23.1801   35.1318  -45.6874 C   0  0  0  0  0  0  0  0  0  0  0  0
  -27.3416   31.3778  -43.2171 C   0  0  0  0  0  0  0  0  0  0  0  0
  -24.4364   35.4449  -45.5777 C   0  0  0  0  0  0  0  0  0  0  0  0
  -27.5661   32.6676  -43.9549 C   0  0  0  0  0  0  0  0  0  0  0  0
  -27.7575   30.9709  -44.3975 O   0  0  0  0  0  0  0  0  0  0  0  0
  -22.9672   37.1230  -47.1202 C   0  0  0  0  0  0  0  0  0  0  0  0
  -26.7269   35.2974  -44.2914 O   0  0  0  0  0  0  0  0  0  0  0  0
  -26.8054   33.7822  -44.0222 C   0  0  0  0  0  0  0  0  0  0  0  0
  -22.4866   37.2568  -48.5909 C   0  0  0  0  0  0  0  0  0  0  0  0
  -23.0998   37.4325  -49.5920 C   0  0  0  0  0  0  0  0  0  0  0  0
  -25.9338   35.3196  -45.0224 C   0  0  0  0  0  0  0  0  0  0  0  0
  2  1  1  0
  4  2  1  0
  5  3  1  0
  6  3  1  0
  7  1  1  0
  9  5  1  0
  9  8  1  0
 10  7  1  0
 11 10  2  3
 12  4  3  0
 12  8  1  0
M  END
>  <ID>  (1) 
conformer_0

$$$$
