
     RDKit          3D

 13 14  0  0  0  0  0  0  0  0999 V2000
  -22.4467   35.7570  -46.1676 C   0  0  2  0  0  0  0  0  0  0  0  0
  -23.0320   37.3479  -46.9636 C   0  0  1  0  0  0  0  0  0  0  0  0
  -27.7532   31.4820  -43.6477 C   0  0  0  0  0  0  0  0  0  0  0  0
  -22.9752   37.1115  -48.5478 C   0  0  0  0  0  0  0  0  0  0  0  0
  -26.8931   32.6326  -43.6100 C   0  0  0  0  0  0  0  0  0  0  0  0
  -26.1122   35.7523  -44.4534 O   0  0  0  0  0  0  0  0  0  0  0  0
  -26.8398   30.6652  -43.5069 O   0  0  0  0  0  0  0  0  0  0  0  0
  -22.5044   37.2988  -49.5949 C   0  0  0  0  0  0  0  0  0  0  0  0
  -25.7477   35.4586  -45.4856 C   0  0  2  0  0  0  0  0  0  0  0  0
  -25.9109   33.9744  -45.2278 N   0  0  0  0  0  0  0  0  0  0  0  0
  -24.3052   36.0450  -46.3647 C   0  0  1  0  0  0  0  0  0  0  0  0
  -23.3151   34.8345  -45.3971 C   0  0  0  0  0  0  0  0  0  0  0  0
  -26.8844   33.8183  -44.4587 C   0  0  0  0  0  0  0  0  0  0  0  0
  2  1  1  0
  2  4  1  6
  5  3  1  0
  7  3  1  0
  8  4  2  3
  9  6  1  1
 10  9  1  0
 11  1  1  0
 11  2  1  0
 11  9  1  0
  1 12  1  1
 11 12  1  6
 13  5  1  0
 13 10  1  0
M  END
>  <ID>  (1) 
conformer_0

$$$$
