
     RDKit          3D

 13 13  0  0  0  0  0  0  0  0999 V2000
  -22.4942   37.2591  -49.6548 C   0  0  0  0  0  0  0  0  0  0  0  0
  -22.2962   36.0470  -46.5991 C   0  0  0  0  0  0  0  0  0  0  0  0
  -27.3233   30.9983  -43.2012 C   0  0  0  0  0  0  0  0  0  0  0  0
  -21.9150   36.5891  -48.1503 C   0  0  0  0  0  0  0  0  0  0  0  0
  -27.7435   32.3504  -43.8422 C   0  0  0  0  0  0  0  0  0  0  0  0
  -26.3432   35.5906  -43.9434 O   0  0  0  0  0  0  0  0  0  0  0  0
  -23.7034   36.0644  -46.4083 C   0  0  0  0  0  0  0  0  0  0  0  0
  -27.1872   30.5258  -44.1897 O   0  0  0  0  0  0  0  0  0  0  0  0
  -23.9162   35.1174  -45.3934 C   0  0  0  0  0  0  0  0  0  0  0  0
  -26.1778   35.2671  -45.0014 C   0  0  0  0  0  0  0  0  0  0  0  0
  -25.8677   35.4825  -46.0829 C   0  0  0  0  0  0  0  0  0  0  0  0
  -23.3528   37.4859  -48.4125 C   0  0  0  0  0  0  0  0  0  0  0  0
  -26.9693   33.9156  -43.7890 C   0  0  0  0  0  0  0  0  0  0  0  0
  4  1  1  0
  4  2  1  0
  5  3  1  0
  7  2  1  0
  8  3  1  0
  9  7  1  0
 10  6  1  0
 11  9  1  0
 11 10  1  0
 12  1  1  0
 12  4  1  0
 13  5  1  0
 13  6  1  0
M  END
>  <ID>  (1) 
conformer_0

$$$$
