
     RDKit          3D

 14 15  0  0  0  0  0  0  0  0999 V2000
  -27.1198   32.4436  -43.5766 C   0  0  0  0  0  0  0  0  0  0  0  0
  -23.8126   35.0653  -45.3802 C   0  0  0  0  0  0  0  0  0  0  0  0
  -22.1971   35.4521  -45.9694 C   0  0  0  0  0  0  0  0  0  0  0  0
  -22.6223   36.5486  -47.0528 C   0  0  0  0  0  0  0  0  0  0  0  0
  -27.6315   31.4276  -43.5797 C   0  0  0  0  0  0  0  0  0  0  0  0
  -25.6315   35.1711  -45.2741 C   0  0  0  0  0  0  0  0  0  0  0  0
  -23.5609   37.4759  -48.3846 C   0  0  0  0  0  0  0  0  0  0  0  0
  -26.9146   30.3247  -42.9269 O   0  0  0  0  0  0  0  0  0  0  0  0
  -26.5079   31.6042  -45.1812 O   0  0  0  0  0  0  0  0  0  0  0  0
  -26.4429   35.0261  -44.5304 O   0  0  0  0  0  0  0  0  0  0  0  0
  -22.5385   37.3823  -50.1939 C   0  0  0  0  0  0  0  0  0  0  0  0
  -24.3746   36.0131  -46.5465 C   0  0  0  0  0  0  0  0  0  0  0  0
  -27.0633   33.6215  -44.2964 C   0  0  0  0  0  0  0  0  0  0  0  0
  -22.0322   37.0914  -48.7810 C   0  0  0  0  0  0  0  0  0  0  0  0
  3  2  1  0
  4  3  1  0
  5  1  1  0
  6  2  1  0
  7  4  1  0
  8  5  1  0
  9  1  1  0
 10  6  1  0
 12  2  1  0
 12  4  1  0
 13  1  1  0
 13 10  1  0
 14  4  1  0
 14  7  1  0
 14 11  1  0
M  END
>  <ID>  (1) 
conformer_0

$$$$
