
     RDKit          3D

 11 10  0  0  0  0  0  0  0  0999 V2000
  -22.5783   37.2834  -49.7911 C   0  0  0  0  0  0  0  0  0  0  0  0
  -23.4725   37.5270  -48.5464 C   0  0  0  0  0  0  0  0  0  0  0  0
  -27.4302   31.6232  -43.4980 C   0  0  0  0  0  0  0  0  0  0  0  0
  -22.2427   36.8854  -47.7642 C   0  0  0  0  0  0  0  0  0  0  0  0
  -26.8775   33.1261  -43.8690 C   0  0  0  0  0  0  0  0  0  0  0  0
  -26.5024   35.2704  -44.6721 O   0  0  0  0  0  0  0  0  0  0  0  0
  -27.1844   31.0286  -44.4106 O   0  0  0  0  0  0  0  0  0  0  0  0
  -22.2723   35.9292  -46.5731 C   0  0  0  0  0  0  0  0  0  0  0  0
  -25.9728   35.0219  -44.9403 C   0  0  0  0  0  0  0  0  0  0  0  0
  -23.5571   35.1662  -45.4732 C   0  0  0  0  0  0  0  0  0  0  0  0
  -24.3667   35.8624  -46.2037 C   0  0  0  0  0  0  0  0  0  0  0  0
  2  1  1  0
  4  2  1  0
  5  3  1  0
  7  3  1  0
  8  4  2  3
  9  5  1  0
  9  6  2  0
 10  8  1  0
 11  9  1  0
 11 10  1  0
M  END
>  <ID>  (1) 
conformer_0

$$$$
