
     RDKit          3D

 13 12  0  0  0  0  0  0  0  0999 V2000
  -22.0087   36.7017  -47.9096 C   0  0  0  0  0  0  0  0  0  0  0  0
  -22.8950   36.4728  -46.6339 C   0  0  0  0  0  0  0  0  0  0  0  0
  -23.0543   37.3543  -48.8825 C   0  0  0  0  0  0  0  0  0  0  0  0
  -26.2214   34.0700  -44.0865 C   0  0  0  0  0  0  0  0  0  0  0  0
  -27.3856   32.8691  -43.6949 C   0  0  0  0  0  0  0  0  0  0  0  0
  -27.0231   35.7270  -44.4310 O   0  0  0  0  0  0  0  0  0  0  0  0
  -22.4963   37.2599  -50.1154 C   0  0  0  0  0  0  0  0  0  0  0  0
  -26.9899   30.8874  -44.2155 O   0  0  0  0  0  0  0  0  0  0  0  0
  -27.5920   31.4811  -43.4653 C   0  0  0  0  0  0  0  0  0  0  0  0
  -24.4799   35.6580  -45.8319 C   0  0  0  0  0  0  0  0  0  0  0  0
  -22.3917   35.5461  -45.7669 C   0  0  0  0  0  0  0  0  0  0  0  0
  -23.9901   34.5432  -44.9401 C   0  0  0  0  0  0  0  0  0  0  0  0
  -26.5426   35.4345  -45.5145 C   0  0  0  0  0  0  0  0  0  0  0  0
  2  1  1  0
  3  1  1  0
  5  4  1  0
  6  4  1  0
  7  3  1  0
  9  5  1  0
  9  8  1  0
 10  2  1  0
 11  2  1  0
 12 10  1  0
 13  6  1  0
 13 10  1  0
M  END
>  <ID>  (1) 
conformer_0

$$$$
