
     RDKit          3D

 12 11  0  0  0  0  0  0  0  0999 V2000
  -22.2585   35.3305  -45.9926 C   0  0  0  0  0  0  0  0  0  0  0  0
  -23.8715   34.3737  -44.9449 C   0  0  0  0  0  0  0  0  0  0  0  0
  -27.5219   32.0135  -43.6280 C   0  0  0  0  0  0  0  0  0  0  0  0
  -22.4337   37.3255  -47.6565 C   0  0  0  0  0  0  0  0  0  0  0  0
  -27.0676   33.2847  -44.0851 C   0  0  0  0  0  0  0  0  0  0  0  0
  -23.2496   37.3537  -48.8817 C   0  0  0  0  0  0  0  0  0  0  0  0
  -27.3261   30.8005  -43.9636 O   0  0  0  0  0  0  0  0  0  0  0  0
  -26.8809   35.3864  -44.1982 O   0  0  0  0  0  0  0  0  0  0  0  0
  -25.9562   34.9834  -44.8417 C   0  0  0  0  0  0  0  0  0  0  0  0
  -23.0884   37.3753  -50.2207 C   0  0  0  0  0  0  0  0  0  0  0  0
  -22.6269   36.5685  -46.5642 C   0  0  1  0  0  0  0  0  0  0  0  0
  -24.2670   35.6791  -45.7130 C   0  0  1  0  0  0  0  0  0  0  0  0
  5  3  2  0
  6  4  1  0
  7  3  1  0
  9  5  2  0
  9  8  1  0
 10  6  2  3
 11  1  1  6
 11  4  1  0
 12  2  1  1
 12  9  1  0
 12 11  1  0
M  END
>  <ID>  (1) 
conformer_0

$$$$
