
     RDKit          3D

 12 11  0  0  0  0  0  0  0  0999 V2000
  -27.9917   31.4154  -43.5880 C   0  0  0  0  0  0  0  0  0  0  0  0
  -23.3251   37.5086  -48.6444 C   0  0  0  0  0  0  0  0  0  0  0  0
  -22.6668   37.3113  -49.7403 C   0  0  0  0  0  0  0  0  0  0  0  0
  -22.6788   37.5738  -47.2946 C   0  0  0  0  0  0  0  0  0  0  0  0
  -27.5190   32.7768  -43.6132 C   0  0  0  0  0  0  0  0  0  0  0  0
  -25.5772   35.2200  -45.2464 C   0  0  0  0  0  0  0  0  0  0  0  0
  -26.5244   35.6286  -44.9948 O   0  0  0  0  0  0  0  0  0  0  0  0
  -22.7080   35.2173  -45.7062 C   0  0  0  0  0  0  0  0  0  0  0  0
  -27.2746   30.8064  -43.2066 O   0  0  0  0  0  0  0  0  0  0  0  0
  -22.2977   36.2529  -46.6150 C   0  0  0  0  0  0  0  0  0  0  0  0
  -24.1611   35.3911  -45.9656 C   0  0  0  0  0  0  0  0  0  0  0  0
  -26.8875   33.7339  -44.2920 C   0  0  0  0  0  0  0  0  0  0  0  0
  3  2  2  3
  4  2  1  0
  5  1  1  0
  7  6  1  0
  9  1  1  0
 10  4  1  0
 10  8  1  0
 11  6  1  0
 11  8  1  0
 12  5  1  0
 12  7  1  0
M  END
>  <ID>  (1) 
conformer_0

$$$$
