
     RDKit          3D

 11 10  0  0  0  0  0  0  0  0999 V2000
  -22.1222   36.9491  -48.4650 C   0  0  0  0  0  0  0  0  0  0  0  0
  -22.7744   37.4355  -49.5652 C   0  0  0  0  0  0  0  0  0  0  0  0
  -27.0295   31.5782  -43.5335 C   0  0  0  0  0  0  0  0  0  0  0  0
  -23.7093   35.2254  -45.5384 C   0  0  0  0  0  0  0  0  0  0  0  0
  -27.1935   33.1486  -44.0036 C   0  0  0  0  0  0  0  0  0  0  0  0
  -26.8544   35.0705  -43.8687 O   0  0  0  0  0  0  0  0  0  0  0  0
  -24.8606   35.5373  -45.9290 C   0  0  0  0  0  0  0  0  0  0  0  0
  -27.0663   30.9995  -44.2349 O   0  0  0  0  0  0  0  0  0  0  0  0
  -23.1420   36.4441  -47.3541 C   0  0  0  0  0  0  0  0  0  0  0  0
  -26.2690   34.9031  -44.8087 C   0  0  0  0  0  0  0  0  0  0  0  0
  -22.1656   35.6340  -46.4399 C   0  0  0  0  0  0  0  0  0  0  0  0
  2  1  1  0
  5  3  1  0
  6  5  1  0
  7  4  1  0
  8  3  1  0
  9  1  1  0
 10  6  1  0
 10  7  1  0
 11  4  1  0
 11  9  1  0
M  END
>  <ID>  (1) 
conformer_0

$$$$
