
     RDKit          3D

 13 13  0  0  0  0  0  0  0  0999 V2000
  -24.1105   34.5534  -45.1369 C   0  0  0  0  0  0  0  0  0  0  0  0
  -22.0433   36.0634  -46.9032 C   0  0  0  0  0  0  0  0  0  0  0  0
  -26.9064   32.7306  -43.6928 C   0  0  0  0  0  0  0  0  0  0  0  0
  -27.7583   31.5940  -43.4434 C   0  0  0  0  0  0  0  0  0  0  0  0
  -23.3653   36.7710  -47.6626 C   0  0  0  0  0  0  0  0  0  0  0  0
  -22.4417   35.2150  -45.7201 C   0  0  0  0  0  0  0  0  0  0  0  0
  -26.7151   35.7389  -44.9624 O   0  0  0  0  0  0  0  0  0  0  0  0
  -27.0393   30.7393  -43.8097 O   0  0  0  0  0  0  0  0  0  0  0  0
  -24.4180   35.6432  -46.2018 C   0  0  0  0  0  0  0  0  0  0  0  0
  -25.8529   34.8858  -45.0897 C   0  0  0  0  0  0  0  0  0  0  0  0
  -22.0612   37.0871  -48.8754 C   0  0  0  0  0  0  0  0  0  0  0  0
  -23.2352   37.4591  -49.5960 C   0  0  0  0  0  0  0  0  0  0  0  0
  -27.2106   33.9847  -44.4818 C   0  0  0  0  0  0  0  0  0  0  0  0
  4  3  1  0
  5  2  1  0
  6  1  1  0
  6  2  1  0
  8  4  1  0
  9  1  1  0
 10  1  1  0
 10  7  1  0
 10  9  1  0
 11  5  1  0
 12 11  1  0
 13  3  1  0
 13 10  1  0
M  END
>  <ID>  (1) 
conformer_0

$$$$
