
     RDKit          3D

 11 10  0  0  0  0  0  0  0  0999 V2000
  -23.6589   35.1565  -45.5146 C   0  0  0  0  0  0  0  0  0  0  0  0
  -22.5931   36.5314  -47.5005 C   0  0  0  0  0  0  0  0  0  0  0  0
  -27.4082   31.7634  -43.4256 C   0  0  0  0  0  0  0  0  0  0  0  0
  -22.5247   35.7716  -46.4252 C   0  0  0  0  0  0  0  0  0  0  0  0
  -27.0924   33.2209  -43.7442 C   0  0  0  0  0  0  0  0  0  0  0  0
  -26.7566   35.7181  -44.6201 O   0  0  0  0  0  0  0  0  0  0  0  0
  -22.0372   36.9779  -48.8110 C   0  0  0  0  0  0  0  0  0  0  0  0
  -26.3636   34.8565  -44.8850 C   0  0  0  0  0  0  0  0  0  0  0  0
  -27.2551   31.1362  -44.1158 O   0  0  0  0  0  0  0  0  0  0  0  0
  -25.0748   35.4153  -46.2035 C   0  0  0  0  0  0  0  0  0  0  0  0
  -22.6140   37.3404  -50.0810 C   0  0  0  0  0  0  0  0  0  0  0  0
  4  1  1  0
  4  2  1  0
  5  3  2  0
  7  2  1  0
  8  5  2  0
  8  6  1  0
  9  3  1  0
 10  1  1  0
 10  8  1  0
 11  7  1  0
M  END
>  <ID>  (1) 
conformer_0

$$$$
