
     RDKit          3D

 13 14  0  0  0  0  0  0  0  0999 V2000
  -22.1960   36.3885  -47.4944 C   0  0  0  0  0  0  0  0  0  0  0  0
  -22.8434   37.6169  -47.6348 C   0  0  0  0  0  0  0  0  0  0  0  0
  -27.1828   31.4734  -43.5528 C   0  0  0  0  0  0  0  0  0  0  0  0
  -23.4219   37.4670  -49.3769 C   0  0  0  0  0  0  0  0  0  0  0  0
  -27.0109   33.1770  -44.0258 C   0  0  0  0  0  0  0  0  0  0  0  0
  -22.1287   37.1852  -49.8283 C   0  0  0  0  0  0  0  0  0  0  0  0
  -27.6602   30.7812  -42.8366 C   0  0  0  0  0  0  0  0  0  0  0  0
  -26.4534   35.7768  -44.6936 O   0  0  0  0  0  0  0  0  0  0  0  0
  -23.8289   36.1748  -46.3412 C   0  0  0  0  0  0  0  0  0  0  0  0
  -26.1807   34.7841  -45.0296 C   0  0  0  0  0  0  0  0  0  0  0  0
  -22.3785   35.5557  -45.8294 C   0  0  0  0  0  0  0  0  0  0  0  0
  -23.9424   34.7472  -45.1188 C   0  0  0  0  0  0  0  0  0  0  0  0
  -25.5330   35.2444  -46.1488 C   0  0  0  0  0  0  0  0  0  0  0  0
  2  1  1  0
  4  2  1  0
  5  3  2  0
  6  4  1  0
  7  3  1  0
 10  5  2  0
 10  8  1  0
 11  1  1  0
 11  9  1  0
 12  9  1  0
 12 11  1  0
 13  9  1  0
 13 10  1  0
 13 12  1  0
M  END
>  <ID>  (1) 
conformer_0

$$$$
