
     RDKit          3D

 11 10  0  0  0  0  0  0  0  0999 V2000
  -22.2437   35.6515  -46.3526 C   0  0  0  0  0  0  0  0  0  0  0  0
  -23.7848   35.5248  -45.7203 C   0  0  0  0  0  0  0  0  0  0  0  0
  -27.3940   31.4698  -43.4125 C   0  0  0  0  0  0  0  0  0  0  0  0
  -24.9788   35.2750  -45.5825 C   0  0  0  0  0  0  0  0  0  0  0  0
  -27.3494   32.8640  -43.9027 C   0  0  0  0  0  0  0  0  0  0  0  0
  -22.9265   36.9990  -46.8244 C   0  0  0  0  0  0  0  0  0  0  0  0
  -27.0189   35.2469  -44.3282 O   0  0  0  0  0  0  0  0  0  0  0  0
  -27.4741   30.5944  -44.0959 O   0  0  0  0  0  0  0  0  0  0  0  0
  -22.2790   37.0024  -48.1753 C   0  0  0  0  0  0  0  0  0  0  0  0
  -26.5053   34.8658  -44.9209 C   0  0  0  0  0  0  0  0  0  0  0  0
  -22.5380   37.3317  -49.4296 C   0  0  0  0  0  0  0  0  0  0  0  0
  2  1  1  0
  4  2  3  0
  5  3  2  0
  6  1  1  0
  8  3  1  0
  9  6  1  0
 10  4  1  0
 10  5  2  0
 10  7  1  0
 11  9  2  3
M  END
>  <ID>  (1) 
conformer_0

$$$$
