
     RDKit          3D

  9  8  0  0  0  0  0  0  0  0999 V2000
  -22.5386   35.5175  -45.8609 C   0  0  0  0  0  0  0  0  0  0  0  0
  -27.5930   31.6329  -43.6492 C   0  0  0  0  0  0  0  0  0  0  0  0
  -22.9772   36.3633  -46.5257 C   0  0  0  0  0  0  0  0  0  0  0  0
  -24.5511   35.8609  -46.1903 C   0  0  0  0  0  0  0  0  0  0  0  0
  -27.1854   33.1789  -43.7586 C   0  0  0  0  0  0  0  0  0  0  0  0
  -22.4152   37.2798  -49.9865 C   0  0  0  0  0  0  0  0  0  0  0  0
  -26.2278   35.1144  -44.8873 C   0  0  0  0  0  0  0  0  0  0  0  0
  -26.4998   35.6201  -44.2927 O   0  0  0  0  0  0  0  0  0  0  0  0
  -22.5631   37.1019  -48.6908 C   0  0  0  0  0  0  0  0  0  0  0  0
  3  1  1  0
  4  3  1  0
  5  2  1  0
  7  4  1  0
  7  5  1  0
  8  7  2  0
  9  3  1  0
  9  6  1  0
M  END
>  <ID>  (1) 
conformer_0

$$$$
