
     RDKit          3D

 10  9  0  0  0  0  0  0  0  0999 V2000
  -22.6528   36.4747  -47.0063 C   0  0  0  0  0  0  0  0  0  0  0  0
  -24.3361   35.5544  -46.0023 C   0  0  0  0  0  0  0  0  0  0  0  0
  -27.4269   31.4265  -43.3858 C   0  0  0  0  0  0  0  0  0  0  0  0
  -26.0495   34.9511  -44.9955 C   0  0  0  0  0  0  0  0  0  0  0  0
  -22.9444   37.2802  -48.2151 C   0  0  0  0  0  0  0  0  0  0  0  0
  -26.2552   35.9792  -44.4967 O   0  0  0  0  0  0  0  0  0  0  0  0
  -22.7419   37.3981  -49.6478 C   0  0  0  0  0  0  0  0  0  0  0  0
  -27.2245   33.0941  -44.0151 C   0  0  0  0  0  0  0  0  0  0  0  0
  -26.4858   31.0128  -44.1951 O   0  0  0  0  0  0  0  0  0  0  0  0
  -23.0338   35.2553  -45.7102 C   0  0  0  0  0  0  0  0  0  0  0  0
  4  2  1  0
  5  1  1  0
  6  4  2  0
  7  5  1  0
  8  3  1  0
  8  4  1  0
  9  3  1  0
 10  1  1  0
 10  2  1  0
M  END
>  <ID>  (1) 
conformer_0

$$$$
