
     RDKit          3D

 11 11  0  0  0  0  0  0  0  0999 V2000
  -22.8249   35.8165  -46.2127 C   0  0  0  0  0  0  0  0  0  0  0  0
  -24.0803   35.5282  -45.9101 C   0  0  0  0  0  0  0  0  0  0  0  0
  -27.2570   31.9960  -43.6924 C   0  0  0  0  0  0  0  0  0  0  0  0
  -26.9169   33.5458  -43.8768 C   0  0  0  0  0  0  0  0  0  0  0  0
  -22.4313   36.7958  -47.5310 C   0  0  0  0  0  0  0  0  0  0  0  0
  -26.9080   36.0582  -44.6643 O   0  0  0  0  0  0  0  0  0  0  0  0
  -22.6189   37.2859  -49.2193 C   0  0  0  0  0  0  0  0  0  0  0  0
  -26.5973   32.1976  -45.0647 N   0  0  0  0  0  0  0  0  0  0  0  0
  -26.1663   35.1567  -44.9385 C   0  0  0  0  0  0  0  0  0  0  0  0
  -25.7174   34.3029  -43.8085 O   0  0  0  0  0  0  0  0  0  0  0  0
  -28.1091   30.8474  -44.0347 O   0  0  0  0  0  0  0  0  0  0  0  0
  2  1  1  0
  4  3  1  0
  5  1  1  0
  7  5  1  0
  8  3  1  0
  8  4  1  0
  9  2  1  0
  9  6  1  0
 10  4  1  0
 10  9  1  0
 11  3  1  0
M  END
>  <ID>  (1) 
conformer_0

$$$$
