
     RDKit          3D

 13 12  0  0  0  0  0  0  0  0999 V2000
  -27.2834   31.4406  -43.1496 C   0  0  0  0  0  0  0  0  0  0  0  0
  -22.7030   35.6726  -46.2048 C   0  0  0  0  0  0  0  0  0  0  0  0
  -22.2264   36.2964  -47.4874 C   0  0  0  0  0  0  0  0  0  0  0  0
  -22.7976   37.1281  -48.4927 C   0  0  0  0  0  0  0  0  0  0  0  0
  -27.5389   32.4083  -43.9223 C   0  0  0  0  0  0  0  0  0  0  0  0
  -26.1819   35.9288  -44.3795 O   0  0  0  0  0  0  0  0  0  0  0  0
  -25.7055   35.3455  -45.0182 C   0  0  0  0  0  0  0  0  0  0  0  0
  -27.5309   30.7990  -44.3102 O   0  0  0  0  0  0  0  0  0  0  0  0
  -25.9013   33.8917  -44.5452 N   0  0  0  0  0  0  0  0  0  0  0  0
  -22.4249   37.2457  -49.8308 C   0  0  0  0  0  0  0  0  0  0  0  0
  -23.6872   34.9803  -45.2828 C   0  0  0  0  0  0  0  0  0  0  0  0
  -24.7828   35.8602  -46.5031 C   0  0  0  0  0  0  0  0  0  0  0  0
  -26.2697   33.5019  -43.6223 C   0  0  0  0  0  0  0  0  0  0  0  0
  3  2  1  0
  4  3  1  0
  5  1  1  0
  7  6  2  0
  8  1  1  0
  9  7  1  0
 10  4  1  0
 11  2  1  0
 12  7  1  0
 12 11  1  0
 13  5  1  0
 13  9  1  0
M  END
>  <ID>  (1) 
conformer_0

$$$$
