
     RDKit          3D

 10  9  0  0  0  0  0  0  0  0999 V2000
  -23.4212   35.7219  -46.3906 C   0  0  0  0  0  0  0  0  0  0  0  0
  -27.1884   31.6474  -43.4415 C   0  0  0  0  0  0  0  0  0  0  0  0
  -24.5522   35.2579  -45.8830 C   0  0  0  0  0  0  0  0  0  0  0  0
  -22.7527   37.1018  -48.1916 C   0  0  0  0  0  0  0  0  0  0  0  0
  -27.1056   32.9197  -43.9556 C   0  0  0  0  0  0  0  0  0  0  0  0
  -26.1856   34.9085  -44.9789 C   0  0  0  0  0  0  0  0  0  0  0  0
  -22.8823   37.3822  -49.3651 C   0  0  0  0  0  0  0  0  0  0  0  0
  -27.2142   30.7765  -44.1473 O   0  0  0  0  0  0  0  0  0  0  0  0
  -26.5713   35.4180  -44.6488 O   0  0  0  0  0  0  0  0  0  0  0  0
  -22.3887   36.7792  -46.7737 C   0  0  0  0  0  0  0  0  0  0  0  0
  3  1  3  0
  5  2  2  0
  6  3  1  0
  6  5  2  0
  7  4  3  0
  8  2  1  0
  9  6  1  0
 10  1  1  0
 10  4  1  0
M  END
>  <ID>  (1) 
conformer_0

$$$$
