
     RDKit          3D

 14 13  0  0  0  0  0  0  0  0999 V2000
  -27.6946   31.3373  -43.7116 C   0  0  0  0  0  0  0  0  0  0  0  0
  -22.6479   36.5510  -46.9233 C   0  0  0  0  0  0  0  0  0  0  0  0
  -22.8716   37.3267  -50.1498 C   0  0  0  0  0  0  0  0  0  0  0  0
  -22.1220   37.0312  -48.1416 C   0  0  0  0  0  0  0  0  0  0  0  0
  -26.6014   32.1819  -43.4444 C   0  0  0  0  0  0  0  0  0  0  0  0
  -26.5808   35.3638  -43.9221 O   0  0  0  0  0  0  0  0  0  0  0  0
  -22.3335   35.4808  -46.2115 C   0  0  0  0  0  0  0  0  0  0  0  0
  -26.8625   30.2950  -43.2436 O   0  0  0  0  0  0  0  0  0  0  0  0
  -26.1408   35.0237  -45.0057 C   0  0  0  0  0  0  0  0  0  0  0  0
  -24.5830   35.5699  -45.9355 C   0  0  0  0  0  0  0  0  0  0  0  0
  -23.7646   34.8519  -45.2132 C   0  0  0  0  0  0  0  0  0  0  0  0
  -26.6319   33.3011  -44.5084 O   0  0  0  0  0  0  0  0  0  0  0  0
  -23.6334   37.5148  -49.0099 C   0  0  0  0  0  0  0  0  0  0  0  0
  -27.1880   33.7032  -43.9320 C   0  0  0  0  0  0  0  0  0  0  0  0
  4  2  1  0
  5  1  1  0
  7  2  1  0
  8  1  1  0
  9  6  1  0
 10  9  1  0
 11  7  1  0
 11 10  1  0
 12  5  1  0
 13  3  1  0
 13  4  1  0
 14  6  1  0
 14 12  1  0
M  END
>  <ID>  (1) 
conformer_0

$$$$
