
     RDKit          3D

 13 12  0  0  0  0  0  0  0  0999 V2000
  -24.2948   35.9487  -46.3418 C   0  0  0  0  0  0  0  0  0  0  0  0
  -23.0481   37.1890  -47.9738 C   0  0  0  0  0  0  0  0  0  0  0  0
  -27.2542   31.4152  -43.6348 C   0  0  0  0  0  0  0  0  0  0  0  0
  -24.9177   35.1789  -45.4161 C   0  0  0  0  0  0  0  0  0  0  0  0
  -27.0693   32.9303  -43.8982 C   0  0  0  0  0  0  0  0  0  0  0  0
  -26.7499   35.3006  -43.4476 O   0  0  0  0  0  0  0  0  0  0  0  0
  -22.3383   37.2656  -49.2916 C   0  0  0  0  0  0  0  0  0  0  0  0
  -26.8620   30.5854  -43.7380 O   0  0  0  0  0  0  0  0  0  0  0  0
  -23.3782   37.4461  -50.2379 C   0  0  0  0  0  0  0  0  0  0  0  0
  -26.3589   33.1600  -44.6574 N   0  0  0  0  0  0  0  0  0  0  0  0
  -26.5084   34.8756  -44.7839 C   0  0  0  0  0  0  0  0  0  0  0  0
  -22.2209   36.5717  -46.8000 C   0  0  0  0  0  0  0  0  0  0  0  0
  -22.8234   35.4082  -45.7720 C   0  0  0  0  0  0  0  0  0  0  0  0
  4  1  1  0
  5  3  1  0
  7  2  1  0
  8  3  1  0
  9  7  1  0
 10  5  1  0
 11  4  1  0
 11  6  1  0
 11 10  1  0
 12  2  1  0
 13  1  1  0
 13 12  1  0
M  END
>  <ID>  (1) 
conformer_0

$$$$
