
     RDKit          3D

 10  9  0  0  0  0  0  0  0  0999 V2000
  -22.7746   36.5664  -46.9354 C   0  0  0  0  0  0  0  0  0  0  0  0
  -22.5592   37.2992  -48.3607 C   0  0  0  0  0  0  0  0  0  0  0  0
  -27.4841   31.4686  -43.5628 C   0  0  0  0  0  0  0  0  0  0  0  0
  -23.0510   35.4245  -45.8469 C   0  0  0  0  0  0  0  0  0  0  0  0
  -27.1834   32.9946  -43.9058 C   0  0  0  0  0  0  0  0  0  0  0  0
  -26.3929   35.2275  -44.1525 O   0  0  0  0  0  0  0  0  0  0  0  0
  -24.6549   35.4484  -46.0042 C   0  0  0  0  0  0  0  0  0  0  0  0
  -27.0262   30.2169  -43.2365 O   0  0  0  0  0  0  0  0  0  0  0  0
  -26.0621   35.0125  -44.7743 C   0  0  0  0  0  0  0  0  0  0  0  0
  -22.9138   37.3153  -49.7228 C   0  0  0  0  0  0  0  0  0  0  0  0
  2  1  1  0
  4  1  1  0
  5  3  2  0
  7  4  1  0
  8  3  1  0
  9  5  2  0
  9  6  1  0
  9  7  1  0
 10  2  1  0
M  END
>  <ID>  (1) 
conformer_0

$$$$
