
     RDKit          3D

 13 12  0  0  0  0  0  0  0  0999 V2000
  -23.2771   37.3186  -48.2949 C   0  0  0  0  0  0  0  0  0  0  0  0
  -24.5281   34.9660  -45.3856 C   0  0  0  0  0  0  0  0  0  0  0  0
  -27.0650   30.9235  -42.9694 C   0  0  0  0  0  0  0  0  0  0  0  0
  -24.1235   35.9810  -46.2740 C   0  0  0  0  0  0  0  0  0  0  0  0
  -27.3737   32.3085  -43.6198 C   0  0  0  0  0  0  0  0  0  0  0  0
  -26.9842   35.5345  -44.3636 O   0  0  0  0  0  0  0  0  0  0  0  0
  -26.5850   30.1128  -43.5111 O   0  0  0  0  0  0  0  0  0  0  0  0
  -22.8299   37.4094  -49.5572 C   0  0  0  0  0  0  0  0  0  0  0  0
  -25.9985   34.9437  -45.0389 C   0  0  0  0  0  0  0  0  0  0  0  0
  -26.9094   31.7428  -45.0402 O   0  0  0  0  0  0  0  0  0  0  0  0
  -22.7490   35.6724  -46.0286 C   0  0  0  0  0  0  0  0  0  0  0  0
  -22.2611   36.5790  -47.5995 C   0  0  0  0  0  0  0  0  0  0  0  0
  -26.9314   33.7063  -44.0988 C   0  0  0  0  0  0  0  0  0  0  0  0
  4  2  1  0
  5  3  1  0
  7  3  1  0
  8  1  1  0
  9  2  1  0
  9  6  1  0
 10  5  1  0
 11  4  1  0
 12  1  1  0
 12 11  1  0
 13  5  1  0
 13  9  1  0
M  END
>  <ID>  (1) 
conformer_0

$$$$
