
     RDKit          3D

 11 10  0  0  0  0  0  0  0  0999 V2000
  -22.6482   37.3095  -49.8507 C   0  0  0  0  0  0  0  0  0  0  0  0
  -22.6258   37.0791  -48.6471 C   0  0  0  0  0  0  0  0  0  0  0  0
  -26.8266   33.3131  -43.8556 C   0  0  0  0  0  0  0  0  0  0  0  0
  -22.4627   36.3723  -47.3133 C   0  0  0  0  0  0  0  0  0  0  0  0
  -26.3124   35.0277  -44.8747 C   0  0  0  0  0  0  0  0  0  0  0  0
  -26.2367   36.5877  -45.2158 O   0  0  0  0  0  0  0  0  0  0  0  0
  -23.0587   35.7869  -46.1799 C   0  0  0  0  0  0  0  0  0  0  0  0
  -27.0221   30.2863  -43.6553 O   0  0  0  0  0  0  0  0  0  0  0  0
  -27.2031   31.6802  -43.6462 C   0  0  0  0  0  0  0  0  0  0  0  0
  -27.7826   35.1009  -43.7662 O   0  0  0  0  0  0  0  0  0  0  0  0
  -24.0228   35.3477  -45.3372 C   0  0  0  0  0  0  0  0  0  0  0  0
  2  1  3  0
  4  2  1  0
  5  3  1  0
  6  5  1  0
  7  4  2  0
  9  3  3  0
  9  8  1  0
 10  5  1  0
 11  5  1  0
 11  7  2  0
M  END
>  <ID>  (1) 
conformer_0

$$$$
