
     RDKit          3D

 13 12  0  0  0  0  0  0  0  0999 V2000
  -23.3205   37.3406  -48.3773 C   0  0  0  0  0  0  0  0  0  0  0  0
  -22.3151   36.9145  -47.6101 C   0  0  0  0  0  0  0  0  0  0  0  0
  -27.3326   30.9941  -43.2162 C   0  0  0  0  0  0  0  0  0  0  0  0
  -22.7542   37.4436  -49.6921 C   0  0  0  0  0  0  0  0  0  0  0  0
  -27.6688   32.3160  -43.6873 C   0  0  0  0  0  0  0  0  0  0  0  0
  -26.5477   35.5942  -44.7077 O   0  0  0  0  0  0  0  0  0  0  0  0
  -25.5492   35.0493  -45.1822 C   0  0  0  0  0  0  0  0  0  0  0  0
  -22.3523   35.8353  -46.3784 C   0  0  0  0  0  0  0  0  0  0  0  0
  -26.2156   32.5293  -44.0982 N   0  0  0  0  0  0  0  0  0  0  0  0
  -24.5178   36.0167  -46.4761 C   0  0  0  0  0  0  0  0  0  0  0  0
  -25.8910   33.7015  -45.0870 N   0  0  0  0  0  0  0  0  0  0  0  0
  -23.5914   35.2897  -45.5830 C   0  0  0  0  0  0  0  0  0  0  0  0
  -26.7539   33.5420  -44.1221 C   0  0  0  0  0  0  0  0  0  0  0  0
  2  1  1  0
  4  1  1  0
  5  3  1  0
  7  6  2  0
  8  2  1  0
  9  5  1  0
 10  7  1  0
 11  7  1  0
 12  8  1  0
 12 10  1  0
 13  9  1  0
 13 11  1  0
M  END
>  <ID>  (1) 
conformer_0

$$$$
