
     RDKit          3D

 11 10  0  0  0  0  0  0  0  0999 V2000
  -23.2899   35.4572  -45.9634 C   0  0  0  0  0  0  0  0  0  0  0  0
  -22.5315   36.6448  -47.0874 C   0  0  0  0  0  0  0  0  0  0  0  0
  -27.4310   31.5034  -43.4963 C   0  0  0  0  0  0  0  0  0  0  0  0
  -22.9492   37.2114  -48.3266 C   0  0  0  0  0  0  0  0  0  0  0  0
  -25.9764   34.8420  -44.9233 C   0  0  1  0  0  0  0  0  0  0  0  0
  -26.4040   35.9933  -44.7919 O   0  0  0  0  0  0  0  0  0  0  0  0
  -27.7038   31.0925  -44.6527 O   0  0  0  0  0  0  0  0  0  0  0  0
  -22.4645   37.3043  -49.5383 C   0  0  0  0  0  0  0  0  0  0  0  0
  -27.1646   33.0732  -43.9728 C   0  0  0  0  0  0  0  0  0  0  0  0
  -24.4734   35.4568  -46.1804 C   0  0  0  0  0  0  0  0  0  0  0  0
  -26.0272   34.1294  -43.6891 O   0  0  0  0  0  0  0  0  0  0  0  0
  2  1  1  0
  4  2  1  0
  5  6  1  1
  7  3  1  0
  8  4  2  3
  9  3  1  0
 10  1  1  0
 10  5  1  0
 11  5  1  0
 11  9  1  0
M  END
>  <ID>  (1) 
conformer_0

$$$$
