
     RDKit          3D

 13 12  0  0  0  0  0  0  0  0999 V2000
  -27.1170   31.2218  -43.3528 C   0  0  0  0  0  0  0  0  0  0  0  0
  -25.1801   35.6757  -46.0160 C   0  0  0  0  0  0  0  0  0  0  0  0
  -22.6047   36.0005  -46.6600 C   0  0  0  0  0  0  0  0  0  0  0  0
  -23.9439   35.4947  -45.7454 C   0  0  0  0  0  0  0  0  0  0  0  0
  -27.6232   32.5012  -43.6731 C   0  0  0  0  0  0  0  0  0  0  0  0
  -27.2227   35.2642  -44.8549 O   0  0  0  0  0  0  0  0  0  0  0  0
  -22.2327   37.0608  -48.7761 C   0  0  0  0  0  0  0  0  0  0  0  0
  -26.8912   30.1387  -43.0325 O   0  0  0  0  0  0  0  0  0  0  0  0
  -26.4355   33.3797  -44.1889 C   0  0  0  0  0  0  0  0  0  0  0  0
  -26.7541   31.5664  -45.0122 O   0  0  0  0  0  0  0  0  0  0  0  0
  -22.9356   37.4476  -49.7960 C   0  0  0  0  0  0  0  0  0  0  0  0
  -22.6419   37.2644  -47.2186 C   0  0  0  0  0  0  0  0  0  0  0  0
  -26.3492   35.2725  -45.2606 C   0  0  0  0  0  0  0  0  0  0  0  0
  4  2  2  3
  4  3  1  0
  5  1  1  0
  8  1  1  0
  9  5  1  0
 10  1  1  0
 11  7  2  3
 12  3  1  0
 12  7  1  0
 13  2  1  0
 13  6  2  0
 13  9  1  0
M  END
>  <ID>  (1) 
conformer_0

$$$$
