
     RDKit          3D

 11 10  0  0  0  0  0  0  0  0999 V2000
  -22.3946   37.0053  -48.3725 C   0  0  0  0  0  0  0  0  0  0  0  0
  -23.8233   34.9367  -45.3667 C   0  0  0  0  0  0  0  0  0  0  0  0
  -27.1519   33.3850  -43.9770 C   0  0  0  0  0  0  0  0  0  0  0  0
  -24.9669   35.6944  -46.2195 C   0  0  0  0  0  0  0  0  0  0  0  0
  -26.6035   35.0653  -45.0935 C   0  0  0  0  0  0  0  0  0  0  0  0
  -22.6502   37.3241  -49.6121 C   0  0  0  0  0  0  0  0  0  0  0  0
  -26.5461   34.7816  -44.0019 O   0  0  0  0  0  0  0  0  0  0  0  0
  -26.7406   31.0235  -44.2899 O   0  0  0  0  0  0  0  0  0  0  0  0
  -22.5340   36.2267  -47.1119 C   0  0  0  0  0  0  0  0  0  0  0  0
  -22.2325   35.3706  -46.0105 C   0  0  0  0  0  0  0  0  0  0  0  0
  -27.4094   31.8113  -43.5658 C   0  0  0  0  0  0  0  0  0  0  0  0
  4  2  1  0
  5  4  1  0
  6  1  1  0
  7  3  1  0
  7  5  1  0
  9  1  3  0
 10  2  1  0
 10  9  1  0
 11  3  1  0
 11  8  1  0
M  END
>  <ID>  (1) 
conformer_0

$$$$
