
     RDKit          3D

 10 10  0  0  0  0  0  0  0  0999 V2000
  -23.1979   35.4850  -45.9015 C   0  0  0  0  0  0  0  0  0  0  0  0
  -22.4698   36.2491  -46.8789 C   0  0  0  0  0  0  0  0  0  0  0  0
  -27.2707   31.5212  -43.4084 C   0  0  0  0  0  0  0  0  0  0  0  0
  -24.8410   35.5378  -45.9771 C   0  0  0  0  0  0  0  0  0  0  0  0
  -27.0321   33.0208  -43.9649 C   0  0  1  0  0  0  0  0  0  0  0  0
  -26.8893   35.6715  -44.5297 O   0  0  0  0  0  0  0  0  0  0  0  0
  -22.3968   37.1072  -48.1834 C   0  0  0  0  0  0  0  0  0  0  0  0
  -26.3270   34.9660  -44.9765 C   0  0  0  0  0  0  0  0  0  0  0  0
  -22.3492   37.1984  -49.6597 C   0  0  0  0  0  0  0  0  0  0  0  0
  -26.9842   31.9930  -44.8758 N   0  0  0  0  0  0  0  0  0  0  0  0
  2  1  2  3
  4  1  1  0
  5  3  1  0
  7  2  1  0
  8  4  1  0
  5  8  1  1
  8  6  2  0
  9  7  1  0
 10  3  1  0
 10  5  1  0
M  END
>  <ID>  (1) 
conformer_0

$$$$
