
     RDKit          3D

 13 13  0  0  0  0  0  0  0  0999 V2000
  -27.2128   32.4953  -43.6149 C   0  0  0  0  0  0  0  0  0  0  0  0
  -23.1625   37.1874  -48.2548 C   0  0  0  0  0  0  0  0  0  0  0  0
  -22.1712   35.4336  -46.2461 C   0  0  0  0  0  0  0  0  0  0  0  0
  -22.1003   36.4242  -47.5922 C   0  0  0  0  0  0  0  0  0  0  0  0
  -26.5321   33.8789  -44.2768 C   0  0  0  0  0  0  0  0  0  0  0  0
  -26.3671   36.2231  -45.2885 O   0  0  0  0  0  0  0  0  0  0  0  0
  -22.8101   37.3504  -49.5877 C   0  0  0  0  0  0  0  0  0  0  0  0
  -27.2832   30.3569  -42.7517 O   0  0  0  0  0  0  0  0  0  0  0  0
  -27.5739   31.3142  -43.5058 C   0  0  0  0  0  0  0  0  0  0  0  0
  -23.8862   35.8382  -46.3017 C   0  0  0  0  0  0  0  0  0  0  0  0
  -23.6461   34.7697  -45.2718 C   0  0  0  0  0  0  0  0  0  0  0  0
  -26.0886   33.5951  -45.0336 N   0  0  0  0  0  0  0  0  0  0  0  0
  -25.8334   35.3255  -45.4114 C   0  0  0  0  0  0  0  0  0  0  0  0
  4  2  1  0
  4  3  1  0
  5  1  1  0
  7  2  1  0
  9  1  1  0
  9  8  1  0
 10  3  1  0
 11  3  1  0
 11 10  1  0
 12  5  1  0
 13  6  2  0
 13 10  1  0
 13 12  1  0
M  END
>  <ID>  (1) 
conformer_0

$$$$
