
     RDKit          3D

 12 11  0  0  0  0  0  0  0  0999 V2000
  -27.7628   31.1160  -43.6220 C   0  0  0  0  0  0  0  0  0  0  0  0
  -22.5964   37.1715  -47.1370 C   0  0  0  0  0  0  0  0  0  0  0  0
  -22.4422   37.1096  -48.6206 C   0  0  0  0  0  0  0  0  0  0  0  0
  -22.4655   35.7787  -46.3706 C   0  0  0  0  0  0  0  0  0  0  0  0
  -23.9028   35.4785  -45.9754 C   0  0  0  0  0  0  0  0  0  0  0  0
  -26.7517   32.3292  -43.2961 C   0  0  0  0  0  0  0  0  0  0  0  0
  -26.6253   34.9499  -44.2907 O   0  0  0  0  0  0  0  0  0  0  0  0
  -26.7715   30.1432  -43.0602 O   0  0  0  0  0  0  0  0  0  0  0  0
  -26.2484   35.1217  -45.2939 C   0  0  0  0  0  0  0  0  0  0  0  0
  -25.2853   35.5912  -46.3176 C   0  0  0  0  0  0  0  0  0  0  0  0
  -22.7982   37.4545  -49.7966 C   0  0  0  0  0  0  0  0  0  0  0  0
  -27.2915   33.4618  -43.9714 C   0  0  0  0  0  0  0  0  0  0  0  0
  3  2  1  0
  4  2  1  0
  5  4  1  0
  6  1  1  0
  8  1  1  0
  9  7  1  0
 10  5  2  3
 10  9  1  0
 11  3  2  3
 12  6  1  0
 12  7  1  0
M  END
>  <ID>  (1) 
conformer_0

$$$$
