
     RDKit          3D

 11 10  0  0  0  0  0  0  0  0999 V2000
  -22.8617   36.5406  -47.6564 C   0  0  0  0  0  0  0  0  0  0  0  0
  -27.0974   31.7025  -43.4940 C   0  0  0  0  0  0  0  0  0  0  0  0
  -22.0603   35.7935  -46.7475 C   0  0  0  0  0  0  0  0  0  0  0  0
  -22.0852   36.9650  -48.8975 C   0  0  0  0  0  0  0  0  0  0  0  0
  -26.4406   35.0058  -44.9071 C   0  0  0  0  0  0  0  0  0  0  0  0
  -27.1977   35.7742  -44.0319 O   0  0  0  0  0  0  0  0  0  0  0  0
  -22.9481   37.4558  -49.8542 C   0  0  0  0  0  0  0  0  0  0  0  0
  -28.0036   31.2819  -43.9582 O   0  0  0  0  0  0  0  0  0  0  0  0
  -27.0666   33.3372  -43.7512 C   0  0  0  0  0  0  0  0  0  0  0  0
  -23.3450   35.3459  -45.7518 C   0  0  0  0  0  0  0  0  0  0  0  0
  -24.5392   35.3672  -45.7149 C   0  0  0  0  0  0  0  0  0  0  0  0
  3  1  1  0
  4  1  1  0
  6  5  1  0
  7  4  1  0
  8  2  1  0
  9  2  1  0
  9  5  1  0
 10  3  1  0
 11  5  1  0
 11 10  1  0
M  END
>  <ID>  (1) 
conformer_0

$$$$
