
     RDKit          3D

 13 14  0  0  0  0  0  0  0  0999 V2000
  -23.3714   37.5926  -48.6327 C   0  0  0  0  0  0  0  0  0  0  0  0
  -22.1999   37.2133  -49.8082 C   0  0  0  0  0  0  0  0  0  0  0  0
  -27.4887   32.5650  -43.7385 C   0  0  0  0  0  0  0  0  0  0  0  0
  -27.2508   30.9987  -43.1698 C   0  0  0  0  0  0  0  0  0  0  0  0
  -23.4966   34.9969  -45.3836 C   0  0  0  0  0  0  0  0  0  0  0  0
  -24.9556   35.4232  -46.1572 C   0  0  2  0  0  0  0  0  0  0  0  0
  -26.6199   36.1212  -44.6853 O   0  0  0  0  0  0  0  0  0  0  0  0
  -26.9353   33.9483  -44.2437 C   0  0  0  0  0  0  0  0  0  0  0  0
  -27.0649   32.0289  -43.7968 N   0  0  0  0  0  0  0  0  0  0  0  0
  -23.4679   36.3600  -46.9639 C   0  0  1  0  0  0  0  0  0  0  0  0
  -22.1113   35.4757  -46.0786 C   0  0  0  0  0  0  0  0  0  0  0  0
  -25.8983   35.2061  -45.0844 C   0  0  0  0  0  0  0  0  0  0  0  0
  -22.1035   36.7644  -47.9104 C   0  0  0  0  0  0  0  0  0  0  0  0
  2  1  1  0
  6  5  1  0
  8  3  2  0
  9  3  1  0
  9  4  2  3
 10  6  1  0
 11  5  1  0
 11 10  1  0
  6 12  1  1
 12  7  1  0
 12  8  2  0
 13  1  1  0
 13  2  1  0
 10 13  1  6
M  END
>  <ID>  (1) 
conformer_0

$$$$
