
     RDKit          3D

 10  9  0  0  0  0  0  0  0  0999 V2000
  -22.3793   37.2021  -49.0769 C   0  0  0  0  0  0  0  0  0  0  0  0
  -22.1102   35.9377  -46.8916 C   0  0  0  0  0  0  0  0  0  0  0  0
  -27.4914   31.5502  -43.5120 C   0  0  0  0  0  0  0  0  0  0  0  0
  -22.7373   36.9796  -47.9885 C   0  0  0  0  0  0  0  0  0  0  0  0
  -27.2111   32.9859  -43.9139 C   0  0  0  0  0  0  0  0  0  0  0  0
  -27.1051   35.6113  -43.8334 O   0  0  0  0  0  0  0  0  0  0  0  0
  -23.2730   35.4501  -45.9569 C   0  0  0  0  0  0  0  0  0  0  0  0
  -24.5434   35.5481  -45.9429 C   0  0  0  0  0  0  0  0  0  0  0  0
  -26.4807   34.7144  -44.8388 C   0  0  1  0  0  0  0  0  0  0  0  0
  -26.9964   31.4262  -44.8216 O   0  0  0  0  0  0  0  0  0  0  0  0
  4  1  2  3
  4  2  1  0
  5  3  1  0
  7  2  1  0
  8  7  2  3
  9  5  1  0
  9  6  1  1
  9  8  1  0
 10  3  1  0
M  END
>  <ID>  (1) 
conformer_0

$$$$
