
     RDKit          3D

 13 13  0  0  0  0  0  0  0  0999 V2000
  -22.3106   35.8385  -46.6387 C   0  0  0  0  0  0  0  0  0  0  0  0
  -23.9929   36.1676  -46.0210 C   0  0  0  0  0  0  0  0  0  0  0  0
  -27.6459   31.3525  -43.4735 C   0  0  0  0  0  0  0  0  0  0  0  0
  -22.6702   37.0261  -47.5801 C   0  0  0  0  0  0  0  0  0  0  0  0
  -27.4437   32.6850  -44.0445 C   0  0  0  0  0  0  0  0  0  0  0  0
  -26.2336   35.9851  -44.7783 O   0  0  0  0  0  0  0  0  0  0  0  0
  -25.5722   35.4850  -45.2199 C   0  0  0  0  0  0  0  0  0  0  0  0
  -21.9378   36.7912  -48.7795 C   0  0  0  0  0  0  0  0  0  0  0  0
  -27.5983   30.9917  -44.4863 O   0  0  0  0  0  0  0  0  0  0  0  0
  -26.1073   33.8590  -45.2738 N   0  0  0  0  0  0  0  0  0  0  0  0
  -23.5245   34.9044  -45.6847 C   0  0  0  0  0  0  0  0  0  0  0  0
  -26.6988   33.8046  -44.0826 C   0  0  0  0  0  0  0  0  0  0  0  0
  -22.3594   37.4078  -49.7690 C   0  0  0  0  0  0  0  0  0  0  0  0
  2  1  1  0
  4  1  1  0
  5  3  1  0
  7  2  1  0
  7  6  2  0
  8  4  1  0
  9  3  1  0
 10  7  1  0
 11  1  1  0
 11  2  1  0
 12  5  1  0
 12 10  1  0
 13  8  1  0
M  END
>  <ID>  (1) 
conformer_0

$$$$
