
     RDKit          3D

 13 12  0  0  0  0  0  0  0  0999 V2000
  -23.1926   36.1282  -46.5406 C   0  0  0  0  0  0  0  0  0  0  0  0
  -26.0052   31.9305  -43.1208 C   0  0  0  0  0  0  0  0  0  0  0  0
  -21.9660   36.1163  -47.2797 C   0  0  0  0  0  0  0  0  0  0  0  0
  -27.0529   33.5846  -44.2262 C   0  0  0  0  0  0  0  0  0  0  0  0
  -22.5561   37.1994  -48.5511 C   0  0  0  0  0  0  0  0  0  0  0  0
  -26.2149   36.1569  -44.5623 O   0  0  0  0  0  0  0  0  0  0  0  0
  -27.3084   31.2849  -44.9349 O   0  0  0  0  0  0  0  0  0  0  0  0
  -22.4821   37.2059  -49.8065 C   0  0  0  0  0  0  0  0  0  0  0  0
  -26.0189   35.2386  -45.1244 C   0  0  0  0  0  0  0  0  0  0  0  0
  -23.3133   35.2109  -45.5787 C   0  0  0  0  0  0  0  0  0  0  0  0
  -26.2597   34.0033  -45.1056 N   0  0  0  0  0  0  0  0  0  0  0  0
  -25.4007   35.5227  -46.1532 C   0  0  0  0  0  0  0  0  0  0  0  0
  -27.6140   31.7872  -43.6888 C   0  0  1  0  0  0  0  0  0  0  0  0
  3  1  1  0
  5  3  1  0
  8  5  2  3
  9  6  2  0
 10  1  1  0
 11  4  1  0
 11  9  1  0
 12  9  1  0
 12 10  1  0
 13  2  1  1
 13  4  1  0
 13  7  1  0
M  END
>  <ID>  (1) 
conformer_0

$$$$
