
     RDKit          3D

 11 10  0  0  0  0  0  0  0  0999 V2000
  -22.6282   36.6315  -47.2304 C   0  0  0  0  0  0  0  0  0  0  0  0
  -23.0525   37.3820  -49.9234 C   0  0  0  0  0  0  0  0  0  0  0  0
  -27.1703   31.6169  -43.3999 C   0  0  0  0  0  0  0  0  0  0  0  0
  -22.3771   35.5828  -46.0578 C   0  0  0  0  0  0  0  0  0  0  0  0
  -22.6550   37.1826  -48.6204 C   0  0  0  0  0  0  0  0  0  0  0  0
  -27.1711   33.0527  -43.9100 C   0  0  0  0  0  0  0  0  0  0  0  0
  -26.7596   35.4377  -44.5067 O   0  0  0  0  0  0  0  0  0  0  0  0
  -26.5451   31.5741  -44.8259 O   0  0  0  0  0  0  0  0  0  0  0  0
  -23.8815   35.3927  -45.8475 C   0  0  0  0  0  0  0  0  0  0  0  0
  -26.4055   34.6544  -45.0852 C   0  0  0  0  0  0  0  0  0  0  0  0
  -25.3394   35.7845  -46.5160 C   0  0  0  0  0  0  0  0  0  0  0  0
  4  1  1  0
  5  1  3  0
  5  2  1  0
  6  3  1  0
  8  3  1  0
  9  4  1  0
 10  6  1  0
 10  7  2  0
 11  9  1  0
 11 10  1  0
M  END
>  <ID>  (1) 
conformer_0

$$$$
