
     RDKit          3D

 14 14  0  0  0  0  0  0  0  0999 V2000
  -22.9521   37.3553  -47.7133 C   0  0  0  0  0  0  0  0  0  0  0  0
  -22.1072   36.0447  -46.9783 C   0  0  0  0  0  0  0  0  0  0  0  0
  -27.0276   31.4209  -43.4279 C   0  0  0  0  0  0  0  0  0  0  0  0
  -24.7944   35.6394  -46.1314 C   0  0  0  0  0  0  0  0  0  0  0  0
  -26.6292   33.7887  -44.2297 C   0  0  0  0  0  0  0  0  0  0  0  0
  -26.1814   35.8452  -44.5902 O   0  0  0  0  0  0  0  0  0  0  0  0
  -27.8217   30.7833  -43.9221 O   0  0  0  0  0  0  0  0  0  0  0  0
  -21.9754   36.9127  -48.8969 C   0  0  0  0  0  0  0  0  0  0  0  0
  -27.5436   32.5213  -43.8057 C   0  0  0  0  0  0  0  0  0  0  0  0
  -22.8847   35.6491  -46.0169 C   0  0  0  0  0  0  0  0  0  0  0  0
  -23.6396   34.5429  -45.2239 C   0  0  0  0  0  0  0  0  0  0  0  0
  -26.2795   33.9466  -44.3626 O   0  0  0  0  0  0  0  0  0  0  0  0
  -25.8198   35.4524  -45.2726 C   0  0  0  0  0  0  0  0  0  0  0  0
  -23.0182   37.4683  -49.8385 C   0  0  0  0  0  0  0  0  0  0  0  0
  2  1  1  0
  7  3  1  0
  8  1  1  0
  9  3  1  0
  9  5  1  0
 10  2  1  0
 10  4  1  0
 11  4  1  0
 11 10  1  0
 12  5  1  0
 13  4  1  0
 13  6  2  0
 13 12  1  0
 14  8  1  0
M  END
>  <ID>  (1) 
conformer_0

$$$$
