
     RDKit          3D

 15 17  0  0  0  0  0  0  0  0999 V2000
  -23.6301   36.1946  -46.6723 C   0  0  0  0  0  0  0  0  0  0  0  0
  -23.5903   35.2157  -45.2925 C   0  0  0  0  0  0  0  0  0  0  0  0
  -27.5417   31.2023  -43.4330 C   0  0  0  0  0  0  0  0  0  0  0  0
  -27.2828   32.9419  -44.7009 C   0  0  0  0  0  0  0  0  0  0  0  0
  -22.1565   37.0563  -48.9910 C   0  0  0  0  0  0  0  0  0  0  0  0
  -25.9357   36.1370  -44.6975 O   0  0  0  0  0  0  0  0  0  0  0  0
  -26.3190   34.1373  -44.5756 C   0  0  0  0  0  0  0  0  0  0  0  0
  -27.8287   30.7048  -44.4475 O   0  0  0  0  0  0  0  0  0  0  0  0
  -23.7008   37.4782  -48.8325 C   0  0  0  0  0  0  0  0  0  0  0  0
  -25.0629   35.6660  -45.3982 C   0  0  0  0  0  0  0  0  0  0  0  0
  -22.9740   37.4683  -50.4371 C   0  0  0  0  0  0  0  0  0  0  0  0
  -26.2282   33.6505  -43.3939 N   0  0  0  0  0  0  0  0  0  0  0  0
  -22.3958   36.2203  -47.5029 C   0  0  0  0  0  0  0  0  0  0  0  0
  -21.9883   35.4798  -45.7398 C   0  0  0  0  0  0  0  0  0  0  0  0
  -26.3905   32.2416  -43.5185 C   0  0  0  0  0  0  0  0  0  0  0  0
  2  1  1  0
  7  4  1  0
  7  6  1  0
  8  3  1  0
  9  5  1  0
 10  2  1  0
 10  6  1  0
 11  5  1  0
 11  9  1  0
 12  7  1  0
 13  1  1  0
 13  5  1  0
 14  2  1  0
 14 13  1  0
 15  3  1  0
 15  4  1  0
 15 12  1  0
M  END
>  <ID>  (1) 
conformer_0

$$$$
