
     RDKit          3D

 12 11  0  0  0  0  0  0  0  0999 V2000
  -23.4640   35.6236  -45.7976 C   0  0  0  0  0  0  0  0  0  0  0  0
  -22.1509   35.8874  -46.5813 C   0  0  0  0  0  0  0  0  0  0  0  0
  -27.5932   31.2556  -43.4281 C   0  0  0  0  0  0  0  0  0  0  0  0
  -24.7126   35.7999  -46.1474 C   0  0  0  0  0  0  0  0  0  0  0  0
  -26.7260   32.3041  -43.6689 C   0  0  0  0  0  0  0  0  0  0  0  0
  -26.6928   35.5207  -44.7051 O   0  0  0  0  0  0  0  0  0  0  0  0
  -25.8704   35.2753  -45.3345 C   0  0  0  0  0  0  0  0  0  0  0  0
  -26.9868   30.1426  -43.6407 O   0  0  0  0  0  0  0  0  0  0  0  0
  -23.2948   37.0053  -47.5099 C   0  0  0  0  0  0  0  0  0  0  0  0
  -22.1723   36.9977  -48.4577 C   0  0  0  0  0  0  0  0  0  0  0  0
  -22.7788   37.5428  -49.6414 C   0  0  0  0  0  0  0  0  0  0  0  0
  -27.0837   33.6919  -44.2876 C   0  0  0  0  0  0  0  0  0  0  0  0
  2  1  1  0
  4  1  2  3
  5  3  1  0
  7  4  1  0
  7  6  1  0
  8  3  1  0
  9  2  1  0
 10  9  1  0
 11 10  1  0
 12  5  2  3
 12  6  1  0
M  END
>  <ID>  (1) 
conformer_0

$$$$
