
     RDKit          3D

 10  9  0  0  0  0  0  0  0  0999 V2000
  -23.0630   35.5888  -46.0881 C   0  0  0  0  0  0  0  0  0  0  0  0
  -27.2808   32.1627  -43.4190 C   0  0  0  0  0  0  0  0  0  0  0  0
  -24.4034   35.2852  -45.6720 C   0  0  0  0  0  0  0  0  0  0  0  0
  -22.3109   36.3071  -47.1238 C   0  0  0  0  0  0  0  0  0  0  0  0
  -26.7908   33.3269  -43.4867 C   0  0  0  0  0  0  0  0  0  0  0  0
  -26.9697   35.3941  -44.6192 O   0  0  0  0  0  0  0  0  0  0  0  0
  -27.4351   31.3588  -44.4850 O   0  0  0  0  0  0  0  0  0  0  0  0
  -22.5774   37.2025  -48.3869 C   0  0  0  0  0  0  0  0  0  0  0  0
  -25.9421   34.6946  -44.8066 C   0  0  0  0  0  0  0  0  0  0  0  0
  -22.6783   37.3511  -49.7566 C   0  0  0  0  0  0  0  0  0  0  0  0
  3  1  2  0
  4  1  1  0
  5  2  2  3
  7  2  1  0
  8  4  1  0
  9  3  2  0
  9  5  1  0
  9  6  1  0
 10  8  1  0
M  END
>  <ID>  (1) 
conformer_0

$$$$
