
     RDKit          3D

 13 12  0  0  0  0  0  0  0  0999 V2000
  -23.5363   35.5533  -45.7728 C   0  0  0  0  0  0  0  0  0  0  0  0
  -22.4061   35.7461  -46.6914 C   0  0  0  0  0  0  0  0  0  0  0  0
  -26.6962   32.3992  -43.7016 C   0  0  0  0  0  0  0  0  0  0  0  0
  -22.7279   37.1676  -47.2379 C   0  0  0  0  0  0  0  0  0  0  0  0
  -27.2499   34.0497  -44.1841 C   0  0  0  0  0  0  0  0  0  0  0  0
  -26.7158   35.8317  -44.0191 O   0  0  0  0  0  0  0  0  0  0  0  0
  -26.8870   30.1872  -43.3458 O   0  0  0  0  0  0  0  0  0  0  0  0
  -21.9889   36.7800  -48.5768 C   0  0  0  0  0  0  0  0  0  0  0  0
  -27.5760   31.3611  -43.4520 C   0  0  0  0  0  0  0  0  0  0  0  0
  -26.4400   33.8023  -45.2317 N   0  0  0  0  0  0  0  0  0  0  0  0
  -22.3511   37.3301  -49.7444 C   0  0  0  0  0  0  0  0  0  0  0  0
  -24.9967   35.7825  -46.1578 C   0  0  0  0  0  0  0  0  0  0  0  0
  -26.2932   35.3850  -45.2636 C   0  0  0  0  0  0  0  0  0  0  0  0
  2  1  1  0
  4  2  1  0
  5  3  1  0
  8  4  1  0
  9  3  1  0
  9  7  1  0
 10  5  1  0
 11  8  2  3
 12  1  2  3
 13  6  2  0
 13 10  1  0
 13 12  1  0
M  END
>  <ID>  (1) 
conformer_0

$$$$
