
     RDKit          3D

 12 11  0  0  0  0  0  0  0  0999 V2000
  -23.3289   35.6048  -45.7186 C   0  0  0  0  0  0  0  0  0  0  0  0
  -23.0473   36.5660  -47.5175 C   0  0  0  0  0  0  0  0  0  0  0  0
  -26.8973   33.2103  -44.2337 C   0  0  0  0  0  0  0  0  0  0  0  0
  -26.1254   35.2464  -45.1913 C   0  0  0  0  0  0  0  0  0  0  0  0
  -24.8593   35.9515  -46.3419 C   0  0  0  0  0  0  0  0  0  0  0  0
  -27.4639   35.7048  -44.5013 O   0  0  0  0  0  0  0  0  0  0  0  0
  -22.4080   37.0532  -48.7375 C   0  0  0  0  0  0  0  0  0  0  0  0
  -26.7265   30.0960  -43.5059 O   0  0  0  0  0  0  0  0  0  0  0  0
  -27.1413   31.4601  -43.5684 C   0  0  0  0  0  0  0  0  0  0  0  0
  -26.2215   33.2632  -43.5881 O   0  0  0  0  0  0  0  0  0  0  0  0
  -23.1482   37.4176  -49.8637 C   0  0  0  0  0  0  0  0  0  0  0  0
  -21.8679   35.6465  -46.3008 C   0  0  0  0  0  0  0  0  0  0  0  0
  4  3  1  0
  5  1  1  0
  5  4  1  0
  6  4  1  0
  7  2  1  0
  9  3  1  0
  9  8  1  0
 10  3  1  0
 11  7  1  0
 12  1  1  0
 12  2  1  0
M  END
>  <ID>  (1) 
conformer_0

$$$$
