
     RDKit          3D

 14 13  0  0  0  0  0  0  0  0999 V2000
  -22.1749   37.0922  -49.6652 C   0  0  0  0  0  0  0  0  0  0  0  0
  -22.8500   37.3462  -48.1696 C   0  0  0  0  0  0  0  0  0  0  0  0
  -27.2408   31.3952  -43.2046 C   0  0  0  0  0  0  0  0  0  0  0  0
  -22.0710   36.5785  -47.3574 C   0  0  0  0  0  0  0  0  0  0  0  0
  -27.4376   32.5604  -43.5728 C   0  0  0  0  0  0  0  0  0  0  0  0
  -23.4153   37.4476  -50.4260 C   0  0  0  0  0  0  0  0  0  0  0  0
  -26.7100   35.4418  -44.7315 O   0  0  0  0  0  0  0  0  0  0  0  0
  -26.5018   33.8056  -43.8173 C   0  0  0  0  0  0  0  0  0  0  0  0
  -27.4891   30.5390  -43.7408 O   0  0  0  0  0  0  0  0  0  0  0  0
  -25.8282   36.0192  -46.9823 C   0  0  0  0  0  0  0  0  0  0  0  0
  -23.8637   34.5606  -45.0544 C   0  0  0  0  0  0  0  0  0  0  0  0
  -22.2825   35.5265  -46.1205 C   0  0  0  0  0  0  0  0  0  0  0  0
  -25.8218   35.3190  -45.1688 C   0  0  2  0  0  0  0  0  0  0  0  0
  -23.6833   35.7948  -45.7524 C   0  0  0  0  0  0  0  0  0  0  0  0
  2  1  1  0
  4  2  1  0
  5  3  1  0
  6  1  1  0
  8  5  2  3
  8  7  1  0
  9  3  1  0
 12  4  1  0
 13  7  1  0
 13 10  1  6
 13 11  1  0
 14 11  1  0
 14 12  1  0
M  END
>  <ID>  (1) 
conformer_0

$$$$
