
     RDKit          3D

 13 12  0  0  0  0  0  0  0  0999 V2000
  -21.8716   36.9148  -48.0870 C   0  0  0  0  0  0  0  0  0  0  0  0
  -22.1559   35.6833  -46.1923 C   0  0  0  0  0  0  0  0  0  0  0  0
  -27.7717   31.5594  -43.3320 C   0  0  0  0  0  0  0  0  0  0  0  0
  -23.7275   34.9739  -45.3483 C   0  0  0  0  0  0  0  0  0  0  0  0
  -26.7632   33.8966  -44.1663 C   0  0  0  0  0  0  0  0  0  0  0  0
  -26.4613   35.0175  -43.7610 O   0  0  0  0  0  0  0  0  0  0  0  0
  -27.4738   30.4733  -43.7595 O   0  0  0  0  0  0  0  0  0  0  0  0
  -23.1366   37.5094  -48.8829 C   0  0  0  0  0  0  0  0  0  0  0  0
  -27.1360   32.2465  -44.0997 C   0  0  0  0  0  0  0  0  0  0  0  0
  -22.7377   37.2771  -50.2167 C   0  0  0  0  0  0  0  0  0  0  0  0
  -23.1036   36.3137  -47.0268 C   0  0  0  0  0  0  0  0  0  0  0  0
  -24.8488   35.6549  -46.0809 C   0  0  0  0  0  0  0  0  0  0  0  0
  -25.7887   35.2616  -45.0692 C   0  0  0  0  0  0  0  0  0  0  0  0
  4  2  1  0
  6  5  1  0
  7  3  1  0
  8  1  1  0
  9  3  1  0
  9  5  1  0
 10  8  1  0
 11  1  1  0
 11  2  1  0
 12  4  1  0
 13  6  1  0
 13 12  1  0
M  END
>  <ID>  (1) 
conformer_0

$$$$
