
     RDKit          3D

 11 10  0  0  0  0  0  0  0  0999 V2000
  -22.4229   37.2560  -48.6227 C   0  0  0  0  0  0  0  0  0  0  0  0
  -23.5697   35.2974  -45.7480 C   0  0  0  0  0  0  0  0  0  0  0  0
  -27.2927   31.4991  -43.6193 C   0  0  0  0  0  0  0  0  0  0  0  0
  -24.9854   35.2994  -46.0600 C   0  0  0  0  0  0  0  0  0  0  0  0
  -27.1049   33.1299  -44.0204 C   0  0  0  0  0  0  0  0  0  0  0  0
  -26.1214   35.8991  -44.5045 O   0  0  0  0  0  0  0  0  0  0  0  0
  -23.0276   37.3895  -49.8993 C   0  0  0  0  0  0  0  0  0  0  0  0
  -26.0728   34.8445  -44.7906 C   0  0  0  0  0  0  0  0  0  0  0  0
  -26.6968   30.6594  -44.3980 O   0  0  0  0  0  0  0  0  0  0  0  0
  -23.1863   36.6637  -47.4833 C   0  0  0  0  0  0  0  0  0  0  0  0
  -22.1922   35.8794  -46.4098 C   0  0  0  0  0  0  0  0  0  0  0  0
  4  2  2  3
  5  3  2  0
  7  1  1  0
  8  4  1  0
  8  5  2  0
  8  6  1  0
  9  3  1  0
 10  1  1  0
 11  2  1  0
 11 10  1  0
M  END
>  <ID>  (1) 
conformer_0

$$$$
