
     RDKit          3D

 13 13  0  0  0  0  0  0  0  0999 V2000
  -24.2725   35.5906  -45.7457 C   0  0  0  0  0  0  0  0  0  0  0  0
  -22.5083   37.0305  -48.8692 C   0  0  0  0  0  0  0  0  0  0  0  0
  -26.9772   31.2137  -43.2451 C   0  0  0  0  0  0  0  0  0  0  0  0
  -25.7222   35.3112  -45.1461 C   0  0  0  0  0  0  0  0  0  0  0  0
  -23.4876   37.4088  -49.6960 C   0  0  0  0  0  0  0  0  0  0  0  0
  -23.0302   35.4488  -45.9040 C   0  0  0  0  0  0  0  0  0  0  0  0
  -26.6715   34.0108  -44.5566 C   0  0  0  0  0  0  0  0  0  0  0  0
  -26.7501   33.7276  -43.4121 O   0  0  0  0  0  0  0  0  0  0  0  0
  -23.7763   36.8799  -47.4725 C   0  0  0  0  0  0  0  0  0  0  0  0
  -26.5847   36.0021  -44.7661 O   0  0  0  0  0  0  0  0  0  0  0  0
  -27.1751   30.3551  -42.9483 O   0  0  0  0  0  0  0  0  0  0  0  0
  -22.1325   36.1261  -47.2456 C   0  0  0  0  0  0  0  0  0  0  0  0
  -27.5622   32.5004  -43.8878 C   0  0  0  0  0  0  0  0  0  0  0  0
  4  1  2  0
  5  2  1  0
  6  1  2  0
  7  4  1  0
  8  7  1  0
  9  2  1  0
 10  4  1  0
 11  3  1  0
 12  2  1  0
 12  6  1  0
 12  9  1  0
 13  3  1  0
 13  8  1  0
M  END
>  <ID>  (1) 
conformer_0

$$$$
