
     RDKit          3D

 13 13  0  0  0  0  0  0  0  0999 V2000
  -24.6110   35.7679  -46.0718 C   0  0  0  0  0  0  0  0  0  0  0  0
  -22.4002   35.3693  -46.0855 C   0  0  0  0  0  0  0  0  0  0  0  0
  -27.2502   31.0385  -43.1107 C   0  0  0  0  0  0  0  0  0  0  0  0
  -22.5743   36.6130  -46.7007 C   0  0  0  0  0  0  0  0  0  0  0  0
  -27.5451   32.1835  -43.7058 C   0  0  0  0  0  0  0  0  0  0  0  0
  -27.3554   35.5409  -44.3644 O   0  0  0  0  0  0  0  0  0  0  0  0
  -23.9256   34.8659  -45.3019 C   0  0  0  0  0  0  0  0  0  0  0  0
  -26.0521   35.1782  -45.1714 C   0  0  0  0  0  0  0  0  0  0  0  0
  -26.8993   30.4851  -43.8586 O   0  0  0  0  0  0  0  0  0  0  0  0
  -23.2337   37.7426  -47.7045 C   0  0  0  0  0  0  0  0  0  0  0  0
  -22.1518   36.9030  -48.5945 C   0  0  0  0  0  0  0  0  0  0  0  0
  -27.0181   33.7408  -44.2070 C   0  0  0  0  0  0  0  0  0  0  0  0
  -22.8589   37.4244  -49.7645 C   0  0  0  0  0  0  0  0  0  0  0  0
  4  2  1  0
  5  3  1  0
  7  1  1  0
  7  2  1  0
  8  1  1  0
  8  6  1  0
  9  3  1  0
 10  4  1  0
 11  4  1  0
 11 10  1  0
 12  5  1  0
 12  6  1  0
 13 11  1  0
M  END
>  <ID>  (1) 
conformer_0

$$$$
