
     RDKit          3D

 12 11  0  0  0  0  0  0  0  0999 V2000
  -22.3454   35.8695  -46.9421 C   0  0  0  0  0  0  0  0  0  0  0  0
  -23.2050   36.3712  -46.2116 C   0  0  0  0  0  0  0  0  0  0  0  0
  -27.3413   31.7720  -43.6028 C   0  0  0  0  0  0  0  0  0  0  0  0
  -21.8622   36.7917  -48.4668 C   0  0  0  0  0  0  0  0  0  0  0  0
  -26.8403   34.7719  -43.3466 O   0  0  0  0  0  0  0  0  0  0  0  0
  -27.1060   32.9903  -43.7274 C   0  0  0  0  0  0  0  0  0  0  0  0
  -27.4842   30.6733  -44.0899 O   0  0  0  0  0  0  0  0  0  0  0  0
  -24.0729   35.1229  -45.3059 C   0  0  0  0  0  0  0  0  0  0  0  0
  -25.1632   35.7168  -45.9228 C   0  0  0  0  0  0  0  0  0  0  0  0
  -26.3940   34.6992  -44.7026 C   0  0  0  0  0  0  0  0  0  0  0  0
  -23.1848   37.2468  -48.8029 C   0  0  0  0  0  0  0  0  0  0  0  0
  -22.6207   37.3621  -50.2706 C   0  0  0  0  0  0  0  0  0  0  0  0
  2  1  1  0
  4  1  1  0
  6  3  1  0
  6  5  1  0
  7  3  1  0
  8  2  1  0
  9  8  1  0
 10  5  1  0
 10  9  1  0
 11  4  1  0
 12 11  1  0
M  END
>  <ID>  (1) 
conformer_0

$$$$
