
     RDKit          3D

 12 11  0  0  0  0  0  0  0  0999 V2000
  -22.4180   36.2456  -46.7992 C   0  0  0  0  0  0  0  0  0  0  0  0
  -23.1726   35.3885  -45.7743 C   0  0  0  0  0  0  0  0  0  0  0  0
  -26.8605   33.5178  -44.0642 C   0  0  0  0  0  0  0  0  0  0  0  0
  -26.0077   35.1631  -45.1804 C   0  0  0  0  0  0  0  0  0  0  0  0
  -24.4559   35.2606  -45.6389 C   0  0  0  0  0  3  0  0  0  0  0  0
  -26.8236   35.7895  -44.9176 O   0  0  0  0  0  0  0  0  0  0  0  0
  -27.1363   31.2211  -44.7833 O   0  0  0  0  0  0  0  0  0  0  0  0
  -22.6356   37.1925  -47.8783 C   0  0  0  0  0  0  0  0  0  0  0  0
  -26.7485   30.7231  -42.9247 C   0  0  0  0  0  0  0  0  0  0  0  0
  -26.5473   33.8635  -44.0018 O   0  0  0  0  0  0  0  0  0  0  0  0
  -27.3169   31.7515  -43.5989 C   0  0  1  0  0  0  0  0  0  0  0  0
  -22.7430   37.3179  -49.2522 C   0  0  0  0  0  0  0  0  0  0  0  0
  2  1  1  0
  5  2  2  3
  5  4  1  0
  6  4  2  0
  8  1  1  0
 10  3  1  0
 10  4  1  0
 11  3  1  0
 11  7  1  0
 11  9  1  1
 12  8  1  0
M  RAD  1   5   2
M  END
>  <ID>  (1) 
conformer_0

$$$$
