
     RDKit          3D

 12 11  0  0  0  0  0  0  0  0999 V2000
  -24.6814   36.0127  -46.6609 C   0  0  0  0  0  0  0  0  0  0  0  0
  -22.3088   36.1129  -47.1828 C   0  0  0  0  0  0  0  0  0  0  0  0
  -27.6992   31.1909  -43.4654 C   0  0  0  0  0  0  0  0  0  0  0  0
  -22.9913   37.1293  -48.3699 C   0  0  0  0  0  0  0  0  0  0  0  0
  -26.2231   32.8002  -43.6869 C   0  0  0  0  0  0  0  0  0  0  0  0
  -26.4076   35.8377  -44.6119 O   0  0  0  0  0  0  0  0  0  0  0  0
  -27.4708   32.8456  -44.0459 C   0  0  0  0  0  0  0  0  0  0  0  0
  -22.6027   37.3666  -49.5298 C   0  0  0  0  0  0  0  0  0  0  0  0
  -26.1641   33.6083  -45.3308 N   0  0  0  0  0  0  0  0  0  0  0  0
  -22.7049   35.8260  -45.9085 C   0  0  0  0  0  0  0  0  0  0  0  0
  -24.1891   35.2280  -45.4205 C   0  0  1  0  0  0  0  0  0  0  0  0
  -25.9140   35.0131  -45.0463 C   0  0  0  0  0  0  0  0  0  0  0  0
  4  2  1  0
  7  3  1  0
  7  5  1  0
  8  4  2  3
  9  5  1  0
 10  2  1  0
 11  1  1  6
 11 10  1  0
 12  6  2  0
 12  9  1  0
 12 11  1  0
M  END
>  <ID>  (1) 
conformer_0

$$$$
