
     RDKit          3D

 10  9  0  0  0  0  0  0  0  0999 V2000
  -23.0835   35.6701  -45.9797 C   0  0  0  0  0  0  0  0  0  0  0  0
  -24.3188   35.5090  -45.7819 C   0  0  0  0  0  0  0  0  0  0  0  0
  -27.0550   33.0173  -43.8193 C   0  0  0  0  0  0  0  0  0  0  0  0
  -22.4838   37.0302  -48.4823 C   0  0  0  0  0  0  0  0  0  0  0  0
  -27.2982   31.8086  -43.6012 C   0  0  0  0  0  0  0  0  0  0  0  0
  -26.6324   36.1405  -44.9042 O   0  0  0  0  0  0  0  0  0  0  0  0
  -26.2209   34.8598  -44.6894 C   0  0  0  0  0  0  0  0  0  0  0  0
  -22.6295   36.4926  -47.1360 C   0  0  0  0  0  0  0  0  0  0  0  0
  -27.0969   30.6150  -43.6468 O   0  0  0  0  0  0  0  0  0  0  0  0
  -22.5744   37.3030  -49.9344 C   0  0  0  0  0  0  0  0  0  0  0  0
  2  1  2  0
  5  3  3  0
  7  2  2  0
  7  3  1  0
  7  6  1  0
  8  1  1  0
  8  4  3  0
  9  5  1  0
 10  4  1  0
M  END
>  <ID>  (1) 
conformer_0

$$$$
