
     RDKit          3D

 13 12  0  0  0  0  0  0  0  0999 V2000
  -22.3377   36.8343  -46.6193 C   0  0  0  0  0  0  0  0  0  0  0  0
  -23.0517   37.5184  -47.7773 C   0  0  0  0  0  0  0  0  0  0  0  0
  -27.3915   31.5752  -43.5480 C   0  0  0  0  0  0  0  0  0  0  0  0
  -22.3053   37.0379  -49.0060 C   0  0  0  0  0  0  0  0  0  0  0  0
  -27.2529   32.7997  -44.0212 C   0  0  0  0  0  0  0  0  0  0  0  0
  -22.8738   37.4622  -50.0604 C   0  0  0  0  0  0  0  0  0  0  0  0
  -26.5144   35.7402  -44.4414 O   0  0  0  0  0  0  0  0  0  0  0  0
  -27.4439   30.5581  -43.5409 O   0  0  0  0  0  0  0  0  0  0  0  0
  -22.8229   35.2812  -45.7585 C   0  0  0  0  0  0  0  0  0  0  0  0
  -26.1618   34.5159  -44.6578 C   0  0  0  0  0  0  0  0  0  0  0  0
  -25.9209   34.1673  -43.1780 O   0  0  0  0  0  0  0  0  0  0  0  0
  -24.1048   35.9056  -46.1212 C   0  0  0  0  0  0  0  0  0  0  0  0
  -24.8893   34.7228  -45.4352 C   0  0  0  0  0  0  0  0  0  0  0  0
  2  1  1  0
  4  2  1  0
  5  3  3  0
  6  4  1  0
  8  3  1  0
  9  1  1  0
 10  5  1  0
 10  7  1  0
 11 10  1  0
 12  9  1  0
 13 10  1  0
 13 12  1  0
M  END
>  <ID>  (1) 
conformer_0

$$$$
