
     RDKit          3D

 12 11  0  0  0  0  0  0  0  0999 V2000
  -24.0032   34.7323  -45.2254 C   0  0  0  0  0  0  0  0  0  0  0  0
  -27.3039   31.6440  -43.5106 C   0  0  0  0  0  0  0  0  0  0  0  0
  -22.7077   37.3418  -49.4997 C   0  0  0  0  0  0  0  0  0  0  0  0
  -22.0395   36.7479  -47.5588 C   0  0  0  0  0  0  0  0  0  0  0  0
  -27.1188   33.0597  -43.7493 C   0  0  0  0  0  0  0  0  0  0  0  0
  -26.7022   35.5201  -44.5720 O   0  0  0  0  0  0  0  0  0  0  0  0
  -25.4272   35.6110  -46.1950 C   0  0  0  0  0  0  0  0  0  0  0  0
  -27.1931   31.5231  -44.7151 O   0  0  0  0  0  0  0  0  0  0  0  0
  -26.3620   34.8195  -44.8075 C   0  0  0  0  0  0  0  0  0  0  0  0
  -23.5128   36.0089  -46.4969 C   0  0  0  0  0  0  0  0  0  0  0  0
  -22.2448   35.2557  -46.0389 C   0  0  0  0  0  0  0  0  0  0  0  0
  -23.3758   37.5094  -48.1399 C   0  0  0  0  0  0  0  0  0  0  0  0
  5  2  1  0
  7  1  1  0
  8  2  1  0
  9  5  1  0
  9  6  2  0
  9  7  1  0
 10  1  1  0
 10  4  1  0
 11 10  1  0
 12  3  1  0
 12  4  1  0
M  END
>  <ID>  (1) 
conformer_0

$$$$
