
     RDKit          3D

 10  9  0  0  0  0  0  0  0  0999 V2000
  -23.5032   37.1484  -47.7819 C   0  0  0  0  0  0  0  0  0  0  0  0
  -22.7864   37.3828  -49.0044 C   0  0  0  0  0  0  0  0  0  0  0  0
  -27.4536   31.5705  -43.5668 C   0  0  0  0  0  0  0  0  0  0  0  0
  -26.8932   33.0465  -44.2525 C   0  0  0  0  0  3  0  0  0  0  0  0
  -22.3110   36.9756  -46.8194 C   0  0  0  0  0  0  0  0  0  0  0  0
  -22.7167   35.6630  -45.8618 C   0  0  0  0  0  0  0  0  0  0  0  0
  -26.0490   35.7087  -44.7245 O   0  0  0  0  0  0  0  0  0  0  0  0
  -25.7848   34.8229  -45.0717 C   0  0  0  0  0  0  0  0  0  0  0  0
  -27.1428   30.4959  -43.9409 O   0  0  0  0  0  0  0  0  0  0  0  0
  -23.9938   35.2465  -45.7538 C   0  0  0  0  0  0  0  0  0  0  0  0
  2  1  1  0
  4  3  2  3
  5  1  1  0
  6  5  1  0
  8  4  1  0
  8  7  1  0
  9  3  1  0
 10  6  2  0
 10  8  2  0
M  RAD  1   4   2
M  END
>  <ID>  (1) 
conformer_0

$$$$
