
     RDKit          3D

 13 13  0  0  0  0  0  0  0  0999 V2000
  -23.1719   36.3505  -47.2223 C   0  0  0  0  0  0  0  0  0  0  0  0
  -23.3616   37.6384  -48.9217 C   0  0  0  0  0  0  0  0  0  0  0  0
  -27.5515   31.1893  -43.4349 C   0  0  0  0  0  0  0  0  0  0  0  0
  -21.9741   36.8102  -48.3537 C   0  0  0  0  0  0  0  0  0  0  0  0
  -27.4750   32.6343  -43.6511 C   0  0  0  0  0  0  0  0  0  0  0  0
  -27.1807   35.5114  -43.8202 O   0  0  0  0  0  0  0  0  0  0  0  0
  -22.3665   37.2496  -50.1553 C   0  0  0  0  0  0  0  0  0  0  0  0
  -26.9700   34.0334  -44.0696 C   0  0  0  0  0  0  0  0  0  0  0  0
  -26.4482   30.7123  -43.5327 O   0  0  0  0  0  0  0  0  0  0  0  0
  -22.2154   35.5604  -46.3645 C   0  0  0  0  0  0  0  0  0  0  0  0
  -23.4719   34.9734  -45.2713 C   0  0  0  0  0  0  0  0  0  0  0  0
  -24.8061   35.5101  -46.1125 C   0  0  0  0  0  0  0  0  0  0  0  0
  -25.7871   35.1391  -45.2334 C   0  0  0  0  0  0  0  0  0  0  0  0
  4  1  1  0
  4  2  1  0
  5  3  1  0
  7  2  1  0
  7  4  1  0
  8  5  1  0
  8  6  1  0
  9  3  1  0
 10  1  1  0
 11 10  1  0
 12 11  1  0
 13  8  1  0
 13 12  1  0
M  END
>  <ID>  (1) 
conformer_0

$$$$
