
     RDKit          3D

 12 11  0  0  0  0  0  0  0  0999 V2000
  -22.3360   36.6423  -47.5271 C   0  0  0  0  0  0  0  0  0  0  0  0
  -24.0301   36.2628  -46.1746 C   0  0  0  0  0  0  0  0  0  0  0  0
  -27.6995   31.4995  -43.4168 C   0  0  0  0  0  0  0  0  0  0  0  0
  -26.5277   32.2949  -43.7130 C   0  0  0  0  0  0  0  0  0  0  0  0
  -23.1589   37.3048  -48.5933 C   0  0  0  0  0  0  0  0  0  0  0  0
  -26.6356   36.0905  -44.7173 O   0  0  0  0  0  0  0  0  0  0  0  0
  -22.6446   37.2762  -49.7721 C   0  0  0  0  0  0  0  0  0  0  0  0
  -27.2790   30.4894  -43.8155 O   0  0  0  0  0  0  0  0  0  0  0  0
  -26.4794   33.7933  -44.3410 C   0  0  0  0  0  0  0  0  0  0  0  0
  -24.2531   34.7796  -45.2053 C   0  0  0  0  0  0  0  0  0  0  0  0
  -22.5896   35.7183  -45.9820 C   0  0  0  0  0  0  0  0  0  0  0  0
  -25.9270   35.3037  -45.1952 C   0  0  0  0  0  0  0  0  0  0  0  0
  4  3  1  0
  5  1  1  0
  7  5  1  0
  8  3  1  0
  9  4  1  0
 10  2  1  0
 11  1  1  0
 11  2  1  0
 12  6  1  0
 12  9  1  0
 12 10  1  0
M  END
>  <ID>  (1) 
conformer_0

$$$$
