
     RDKit          3D

 12 12  0  0  0  0  0  0  0  0999 V2000
  -22.0526   36.6526  -48.0010 C   0  0  0  0  0  0  0  0  0  0  0  0
  -22.1442   35.7588  -46.4823 C   0  0  0  0  0  0  0  0  0  0  0  0
  -27.7204   31.3979  -43.4714 C   0  0  0  0  0  0  0  0  0  0  0  0
  -27.0481   32.7330  -43.6923 C   0  0  0  0  0  0  0  0  0  0  0  0
  -23.5794   35.3237  -45.4941 C   0  0  0  0  0  0  0  0  0  0  0  0
  -26.6868   33.8486  -44.1169 C   0  0  0  0  0  0  0  0  0  0  0  0
  -27.0700   31.5543  -44.9198 O   0  0  0  0  0  0  0  0  0  0  0  0
  -26.2135   35.5247  -45.0681 O   0  0  0  0  0  0  0  0  0  0  0  0
  -23.5035   37.3513  -48.7336 C   0  0  0  0  0  0  0  0  0  0  0  0
  -25.5432   35.3951  -45.3349 C   0  0  0  0  0  0  0  0  0  0  0  0
  -23.7786   36.1738  -46.7855 C   0  0  0  0  0  0  0  0  0  0  0  0
  -22.6167   37.4218  -49.6939 C   0  0  0  0  0  0  0  0  0  0  0  0
  2  1  1  0
  4  3  1  0
  5  2  1  0
  6  4  3  0
  7  3  1  0
  8  6  1  0
  9  1  1  0
 10  5  1  0
 10  8  1  0
 11  2  1  0
 11  5  1  0
 12  9  1  0
M  END
>  <ID>  (1) 
conformer_0

$$$$
