
     RDKit          3D

 14 15  0  0  0  0  0  0  0  0999 V2000
  -22.0976   36.9165  -47.9957 C   0  0  0  0  0  0  0  0  0  0  0  0
  -23.1881   37.4781  -48.6630 C   0  0  0  0  0  0  0  0  0  0  0  0
  -26.9159   32.6038  -43.6983 C   0  0  0  0  0  0  0  0  0  0  0  0
  -25.6837   35.0428  -45.0402 C   0  0  0  0  0  0  0  0  0  0  0  0
  -22.0751   35.8206  -46.3889 C   0  0  0  0  0  0  0  0  0  0  0  0
  -26.9076   35.3190  -43.8719 O   0  0  0  0  0  0  0  0  0  0  0  0
  -22.7457   37.3034  -50.0347 C   0  0  0  0  0  0  0  0  0  0  0  0
  -26.8407   30.5134  -43.3974 O   0  0  0  0  0  0  0  0  0  0  0  0
  -25.4866   35.2834  -45.9347 C   0  0  0  0  0  0  0  0  0  0  0  0
  -27.5622   31.4177  -43.5515 C   0  0  0  0  0  0  0  0  0  0  0  0
  -25.7322   33.6868  -43.9706 N   0  0  0  0  0  0  0  0  0  0  0  0
  -23.3480   36.1427  -46.4468 C   0  0  0  0  0  0  0  0  0  0  0  0
  -23.6589   34.9366  -45.2943 C   0  0  0  0  0  0  0  0  0  0  0  0
  -27.1472   34.3471  -44.5821 C   0  0  0  0  0  0  0  0  0  0  0  0
  2  1  1  0
  5  1  1  0
  7  2  1  0
  9  4  1  0
 10  3  1  0
 10  8  1  0
 11  3  1  0
 11  4  1  0
 12  5  1  0
 13  9  1  0
 13 12  1  0
 14  3  1  0
 14  4  1  0
 14  6  1  0
 14 11  1  0
M  END
>  <ID>  (1) 
conformer_0

$$$$
