
     RDKit          3D

 10  9  0  0  0  0  0  0  0  0999 V2000
  -23.7225   37.3379  -49.1129 C   0  0  0  0  0  0  0  0  0  0  0  0
  -22.6009   37.2578  -49.3418 C   0  0  0  0  0  0  0  0  0  0  0  0
  -27.1197   33.3882  -43.9393 C   0  0  0  0  0  0  0  0  0  0  0  0
  -22.4270   36.5399  -47.4523 C   0  0  0  0  0  0  0  0  0  0  0  0
  -25.6592   34.9069  -45.0703 C   0  0  0  0  0  0  0  0  0  0  0  0
  -26.1834   35.6451  -45.0125 O   0  0  0  0  0  0  0  0  0  0  0  0
  -27.5423   30.9758  -43.9714 O   0  0  0  0  0  0  0  0  0  0  0  0
  -23.3113   35.8421  -46.5440 C   0  0  0  0  0  0  0  0  0  0  0  0
  -23.9603   34.8955  -45.5557 C   0  0  0  0  0  0  0  0  0  0  0  0
  -27.7468   31.7517  -43.3055 C   0  0  0  0  0  0  0  0  0  0  0  0
  2  1  1  0
  4  2  1  0
  5  3  1  0
  6  5  2  0
  8  4  2  0
  9  5  1  0
  9  8  2  0
 10  3  1  0
 10  7  1  0
M  END
>  <ID>  (1) 
conformer_0

$$$$
