
     RDKit          3D

 12 11  0  0  0  0  0  0  0  0999 V2000
  -22.0472   36.8508  -48.0706 C   0  0  0  0  0  0  0  0  0  0  0  0
  -23.1980   37.3282  -48.7027 C   0  0  0  0  0  0  0  0  0  0  0  0
  -27.3228   31.4106  -43.3142 C   0  0  0  0  0  0  0  0  0  0  0  0
  -27.1036   33.0410  -43.9164 C   0  0  0  0  0  0  0  0  0  0  0  0
  -22.8313   37.4297  -50.0706 C   0  0  0  0  0  0  0  0  0  0  0  0
  -23.5920   36.2038  -46.8262 C   0  0  0  0  0  0  0  0  0  0  0  0
  -25.9482   35.5826  -44.0990 O   0  0  0  0  0  0  0  0  0  0  0  0
  -26.3609   34.8010  -44.9350 C   0  0  0  0  0  0  0  0  0  0  0  0
  -23.3579   34.7823  -45.4078 C   0  0  0  0  0  0  0  0  0  0  0  0
  -27.5534   30.5360  -43.9365 O   0  0  0  0  0  0  0  0  0  0  0  0
  -25.3408   35.4697  -46.2526 C   0  0  0  0  0  0  0  0  0  0  0  0
  -22.3236   35.5942  -46.4965 C   0  0  0  0  0  0  0  0  0  0  0  0
  2  1  1  0
  4  3  2  0
  5  2  1  0
  8  4  2  0
  8  7  1  0
 10  3  1  0
 11  6  1  0
 11  8  1  0
 12  1  1  0
 12  6  1  0
 12  9  1  0
M  END
>  <ID>  (1) 
conformer_0

$$$$
