
     RDKit          3D

 14 14  0  0  0  0  0  0  0  0999 V2000
  -23.8616   37.6036  -48.6530 C   0  0  0  0  0  0  0  0  0  0  0  0
  -22.9979   37.4287  -50.0668 C   0  0  0  0  0  0  0  0  0  0  0  0
  -24.3430   35.9546  -46.3367 C   0  0  0  0  0  0  0  0  0  0  0  0
  -26.6655   30.7420  -42.9853 C   0  0  0  0  0  0  0  0  0  0  0  0
  -26.7682   33.1799  -43.9844 C   0  0  0  0  0  0  0  0  0  0  0  0
  -22.4223   36.5014  -46.7909 C   0  0  1  0  0  0  0  0  0  0  0  0
  -26.6306   35.4066  -44.0780 O   0  0  0  0  0  0  0  0  0  0  0  0
  -26.7039   33.1232  -44.8963 N   0  0  0  0  0  0  0  0  0  0  0  0
  -25.9533   34.9622  -44.8957 C   0  0  0  0  0  0  0  0  0  0  0  0
  -24.5214   35.0297  -45.3948 C   0  0  0  0  0  0  0  0  0  0  0  0
  -22.3947   35.4794  -45.8714 C   0  0  0  0  0  0  0  0  0  0  0  0
  -27.1136   31.3947  -43.4920 N   0  0  0  0  0  0  0  0  0  0  0  0
  -27.8450   31.7247  -43.5492 C   0  0  0  0  0  0  0  0  0  0  0  0
  -22.3986   37.1640  -48.2503 C   0  0  0  0  0  0  0  0  0  0  0  0
  2  1  1  0
  6  3  1  0
  8  5  1  0
  9  7  2  0
  9  8  1  0
 10  3  1  0
 10  9  1  0
  6 11  1  6
 12  4  2  3
 13  5  1  0
 13 12  1  0
 14  1  1  0
 14  2  1  0
 14  6  1  0
M  END
>  <ID>  (1) 
conformer_0

$$$$
