
     RDKit          3D

  9  8  0  0  0  0  0  0  0  0999 V2000
  -27.5810   31.6532  -43.3642 C   0  0  0  0  0  0  0  0  0  0  0  0
  -22.7314   37.2873  -48.1066 C   0  0  0  0  0  0  0  0  0  0  0  0
  -22.2059   36.3194  -47.0719 C   0  0  0  0  0  0  0  0  0  0  0  0
  -26.2158   34.8429  -44.7710 C   0  0  0  0  0  0  0  0  0  0  0  0
  -23.2386   35.6696  -46.0941 C   0  0  0  0  0  0  0  0  0  0  0  0
  -27.3458   35.1355  -44.1779 O   0  0  0  0  0  0  0  0  0  0  0  0
  -22.7560   37.2979  -49.4700 C   0  0  0  0  0  0  0  0  0  0  0  0
  -27.0198   33.2425  -43.6337 C   0  0  0  0  0  0  0  0  0  0  0  0
  -24.4833   35.2759  -45.7279 C   0  0  0  0  0  0  0  0  0  0  0  0
  3  2  1  0
  5  3  1  0
  6  4  1  0
  7  2  2  3
  8  1  1  0
  8  6  1  0
  9  4  2  0
  9  5  2  0
M  END
>  <ID>  (1) 
conformer_0

$$$$
