
     RDKit          3D

 12 11  0  0  0  0  0  0  0  0999 V2000
  -23.4242   37.2709  -48.5096 C   0  0  0  0  0  0  0  0  0  0  0  0
  -22.5411   36.7475  -47.3994 C   0  0  0  0  0  0  0  0  0  0  0  0
  -27.2859   31.6052  -43.4989 C   0  0  0  0  0  0  0  0  0  0  0  0
  -22.3918   37.3513  -49.4500 C   0  0  0  0  0  0  0  0  0  0  0  0
  -27.3067   33.0021  -43.8205 C   0  0  0  0  0  0  0  0  0  0  0  0
  -26.3457   36.3368  -44.5885 O   0  0  0  0  0  0  0  0  0  0  0  0
  -24.7447   35.8697  -46.6193 C   0  0  0  0  0  0  0  0  0  0  0  0
  -27.1073   30.6403  -43.8601 O   0  0  0  0  0  0  0  0  0  0  0  0
  -26.2752   34.9704  -44.7770 C   0  0  0  0  0  0  0  0  0  0  0  0
  -22.6226   35.5924  -46.0821 C   0  0  0  0  0  0  0  0  0  0  0  0
  -23.9283   35.0053  -45.4604 C   0  0  0  0  0  0  0  0  0  0  0  0
  -26.4456   34.4201  -43.8732 O   0  0  0  0  0  0  0  0  0  0  0  0
  2  1  1  0
  4  1  1  0
  5  3  1  0
  8  3  1  0
  9  6  1  0
 10  2  1  0
 11  7  1  0
 11  9  1  0
 11 10  1  0
 12  5  1  0
 12  9  1  0
M  END
>  <ID>  (1) 
conformer_0

$$$$
