
     RDKit          3D

 13 13  0  0  0  0  0  0  0  0999 V2000
  -24.0204   34.5082  -45.0572 C   0  0  0  0  0  0  0  0  0  0  0  0
  -22.1634   36.8905  -48.2761 C   0  0  0  0  0  0  0  0  0  0  0  0
  -26.8866   32.9381  -43.8182 C   0  0  0  0  0  0  0  0  0  0  0  0
  -22.4383   35.4123  -45.8792 C   0  0  0  0  0  0  0  0  0  0  0  0
  -25.9952   35.0769  -45.0408 C   0  0  0  0  0  0  0  0  0  0  0  0
  -27.0236   33.7839  -43.6955 O   0  0  0  0  0  0  0  0  0  0  0  0
  -22.5222   37.3608  -50.1087 C   0  0  0  0  0  0  0  0  0  0  0  0
  -27.6072   30.8766  -43.9550 O   0  0  0  0  0  0  0  0  0  0  0  0
  -27.2412   31.4171  -43.2314 C   0  0  0  0  0  0  0  0  0  0  0  0
  -22.7671   36.3339  -46.9639 C   0  0  0  0  0  0  0  0  0  0  0  0
  -26.3970   35.6166  -44.4429 O   0  0  0  0  0  0  0  0  0  0  0  0
  -24.4805   35.7038  -46.0571 C   0  0  0  0  0  0  0  0  0  0  0  0
  -23.7506   37.4948  -48.9118 C   0  0  0  0  0  0  0  0  0  0  0  0
  4  1  1  0
  6  3  1  0
  6  5  1  0
  7  2  1  0
  9  3  1  0
  9  8  1  0
 10  2  1  0
 10  4  1  0
 11  5  2  0
 12  1  1  0
 12  5  1  0
 13  2  1  0
 13  7  1  0
M  END
>  <ID>  (1) 
conformer_0

$$$$
