
     RDKit          3D

 16 15  0  0  0  0  0  0  0  0999 V2000
  -22.9339   36.9908  -47.4595 C   0  0  0  0  0  0  0  0  0  0  0  0
  -22.3978   37.4198  -48.8225 C   0  0  0  0  0  0  0  0  0  0  0  0
  -26.8129   31.5262  -43.4311 C   0  0  0  0  0  0  0  0  0  0  0  0
  -23.2133   37.3213  -49.8302 C   0  0  0  0  0  0  0  0  0  0  0  0
  -22.3131   36.9065  -46.2901 C   0  0  0  0  0  0  0  0  0  0  0  0
  -27.6123   32.2892  -43.7930 C   0  0  0  0  0  0  0  0  0  0  0  0
  -26.2507   33.7985  -45.1067 N   0  0  0  0  0  0  0  0  0  0  0  0
  -25.9407   35.5247  -45.6307 C   0  0  0  0  0  0  0  0  0  0  0  0
  -27.0796   30.0873  -43.2243 O   0  0  0  0  0  0  0  0  0  0  0  0
  -26.3306   34.7930  -43.5543 O   0  0  0  0  0  0  0  0  0  0  0  0
  -22.3342   35.2444  -45.8654 C   0  0  0  0  0  0  0  0  0  0  0  0
  -27.0227   31.3486  -45.0964 O   0  0  0  0  0  0  0  0  0  0  0  0
  -23.7598   35.2955  -45.4370 C   0  0  0  0  0  0  0  0  0  0  0  0
  -26.6458   36.5484  -45.2499 O   0  0  0  0  0  0  0  0  0  0  0  0
  -26.4232   33.7461  -44.0345 C   0  0  0  0  0  0  0  0  0  0  0  0
  -25.2557   35.6046  -46.2957 C   0  0  0  0  0  0  0  0  0  0  0  0
  2  1  1  0
  4  2  2  3
  5  1  1  0
  6  3  1  0
  8  7  1  0
  9  3  1  0
 11  5  1  0
 12  3  1  0
 13 11  1  0
 14  8  2  0
 15  6  1  0
 15  7  1  0
 15 10  2  0
 16  8  1  0
 16 13  1  0
M  END
>  <ID>  (1) 
conformer_0

$$$$
