
     RDKit          3D

 11 10  0  0  0  0  0  0  0  0999 V2000
  -23.0601   35.7451  -46.1511 C   0  0  0  0  0  0  0  0  0  0  0  0
  -27.7220   31.4021  -43.5627 C   0  0  0  0  0  0  0  0  0  0  0  0
  -22.4387   36.4995  -47.2590 C   0  0  0  0  0  0  0  0  0  0  0  0
  -22.4944   37.1868  -48.5023 C   0  0  0  0  0  0  0  0  0  0  0  0
  -26.9435   32.5614  -43.4898 C   0  0  0  0  0  0  0  0  0  0  0  0
  -26.4029   36.0145  -45.0150 O   0  0  0  0  0  0  0  0  0  0  0  0
  -25.9809   35.5304  -45.3716 C   0  0  1  0  0  0  0  0  0  0  0  0
  -26.9618   30.4355  -43.1327 O   0  0  0  0  0  0  0  0  0  0  0  0
  -22.5893   37.2821  -49.9773 C   0  0  0  0  0  0  0  0  0  0  0  0
  -24.2467   35.5727  -45.8041 C   0  0  0  0  0  0  0  0  0  0  0  0
  -26.8331   34.0868  -43.6705 C   0  0  0  0  0  0  0  0  0  0  0  0
  3  1  2  3
  4  3  1  0
  5  2  1  0
  7  6  1  1
  8  2  1  0
  9  4  1  0
 10  1  1  0
 10  7  1  0
 11  5  1  0
 11  7  1  0
M  END
>  <ID>  (1) 
conformer_0

$$$$
