
     RDKit          3D

 12 11  0  0  0  0  0  0  0  0999 V2000
  -23.4667   35.3164  -45.6638 C   0  0  0  0  0  0  0  0  0  0  0  0
  -22.0677   36.9130  -48.6976 C   0  0  0  0  0  0  0  0  0  0  0  0
  -27.7309   31.2888  -43.4659 C   0  0  0  0  0  0  0  0  0  0  0  0
  -24.6763   35.7180  -46.1065 C   0  0  0  0  0  0  0  0  0  0  0  0
  -26.8784   32.4159  -43.4868 C   0  0  0  0  0  0  0  0  0  0  0  0
  -22.6302   37.4027  -49.7131 C   0  0  0  0  0  0  0  0  0  0  0  0
  -27.4130   30.3761  -42.6132 O   0  0  0  0  0  0  0  0  0  0  0  0
  -26.2016   35.2726  -45.2237 C   0  0  0  0  0  0  0  0  0  0  0  0
  -27.0781   35.6827  -45.0169 O   0  0  0  0  0  0  0  0  0  0  0  0
  -23.0897   36.6256  -47.5434 C   0  0  0  0  0  0  0  0  0  0  0  0
  -22.0751   35.8046  -46.4183 C   0  0  0  0  0  0  0  0  0  0  0  0
  -27.3920   33.6819  -44.3431 C   0  0  0  0  0  0  0  0  0  0  0  0
  4  1  2  3
  5  3  2  3
  6  2  1  0
  7  3  1  0
  8  4  1  0
  9  8  2  0
 10  2  1  0
 11  1  1  0
 11 10  1  0
 12  5  1  0
 12  8  1  0
M  END
>  <ID>  (1) 
conformer_0

$$$$
