
     RDKit          3D

 11 10  0  0  0  0  0  0  0  0999 V2000
  -22.3847   35.7171  -46.2850 C   0  0  0  0  0  0  0  0  0  0  0  0
  -22.6746   36.9826  -48.2255 C   0  0  0  0  0  0  0  0  0  0  0  0
  -27.5180   31.6016  -43.4871 C   0  0  0  0  0  0  0  0  0  0  0  0
  -23.8121   35.2763  -45.6962 C   0  0  0  0  0  0  0  0  0  0  0  0
  -27.1025   32.9479  -43.9375 C   0  0  0  0  0  0  0  0  0  0  0  0
  -26.5351   34.7878  -44.0750 O   0  0  0  0  0  0  0  0  0  0  0  0
  -22.7895   37.4464  -49.3321 C   0  0  0  0  0  0  0  0  0  0  0  0
  -27.1628   30.3588  -43.7118 O   0  0  0  0  0  0  0  0  0  0  0  0
  -24.9866   35.5702  -46.2775 C   0  0  0  0  0  0  0  0  0  0  0  0
  -26.2299   34.7163  -44.8629 C   0  0  0  0  0  0  0  0  0  0  0  0
  -22.2429   37.1662  -46.8906 C   0  0  0  0  0  0  0  0  0  0  0  0
  4  1  1  0
  5  3  1  0
  6  5  1  0
  7  2  2  3
  8  3  1  0
  9  4  1  0
 10  6  1  0
 10  9  1  0
 11  1  1  0
 11  2  1  0
M  END
>  <ID>  (1) 
conformer_0

$$$$
