
     RDKit          3D

 12 11  0  0  0  0  0  0  0  0999 V2000
  -24.7200   35.2595  -45.6070 C   0  0  0  0  0  0  0  0  0  0  0  0
  -23.1453   37.5175  -48.5797 C   0  0  0  0  0  0  0  0  0  0  0  0
  -27.3269   31.5215  -43.4309 C   0  0  0  0  0  0  0  0  0  0  0  0
  -27.2022   33.1771  -43.8684 C   0  0  0  0  0  0  0  0  0  0  0  0
  -23.4121   34.8128  -45.2277 C   0  0  0  0  0  0  0  0  0  0  0  0
  -26.5534   36.1918  -44.7876 O   0  0  0  0  0  0  0  0  0  0  0  0
  -22.4863   37.2266  -49.9971 C   0  0  0  0  0  0  0  0  0  0  0  0
  -26.9368   33.0630  -44.0791 N   0  0  0  0  0  0  0  0  0  0  0  0
  -26.3937   34.8910  -45.0844 C   0  0  0  0  0  0  0  0  0  0  0  0
  -23.5485   36.1240  -46.8391 C   0  0  0  0  0  0  0  0  0  0  0  0
  -21.8411   36.6646  -48.2117 C   0  0  0  0  0  0  0  0  0  0  0  0
  -22.2104   35.8769  -46.5352 C   0  0  0  0  0  0  0  0  0  0  0  0
  4  3  1  0
  5  1  1  0
  7  2  1  0
  8  4  1  0
  9  1  1  0
  9  6  2  0
  9  8  1  0
 10  1  1  0
 11  2  1  0
 12 10  1  0
 12 11  1  0
M  END
>  <ID>  (1) 
conformer_0

$$$$
