
     RDKit          3D

 10  9  0  0  0  0  0  0  0  0999 V2000
  -23.0464   35.2186  -45.6630 C   0  0  0  0  0  0  0  0  0  0  0  0
  -22.6670   37.3064  -49.7205 C   0  0  0  0  0  0  0  0  0  0  0  0
  -27.4732   31.7563  -43.2795 C   0  0  0  0  0  0  0  0  0  0  0  0
  -22.9047   37.2617  -48.5943 C   0  0  0  0  0  0  0  0  0  0  0  0
  -26.4995   35.3967  -45.2468 C   0  0  0  0  0  0  0  0  0  0  0  0
  -26.6137   35.0328  -43.8544 O   0  0  0  0  0  0  0  0  0  0  0  0
  -22.7596   36.4386  -47.0031 C   0  0  0  0  0  0  0  0  0  0  0  0
  -27.0196   30.6715  -43.5554 O   0  0  0  0  0  0  0  0  0  0  0  0
  -27.1881   33.2972  -43.5963 C   0  0  0  0  0  0  0  0  0  0  0  0
  -24.4439   35.3210  -45.7150 C   0  0  0  0  0  0  0  0  0  0  0  0
  4  2  2  3
  6  5  1  0
  7  1  1  0
  7  4  1  0
  8  3  1  0
  9  3  1  0
  9  6  1  0
 10  1  1  0
 10  5  1  0
M  END
>  <ID>  (1) 
conformer_0

$$$$
