
     RDKit          3D

 12 11  0  0  0  0  0  0  0  0999 V2000
  -24.4212   35.8458  -46.1174 C   0  0  0  0  0  0  0  0  0  0  0  0
  -25.2695   34.6525  -45.4114 C   0  0  0  0  0  0  0  0  0  0  0  0
  -22.6728   37.0691  -47.6282 C   0  0  0  0  0  0  0  0  0  0  0  0
  -27.6442   31.6916  -43.4700 C   0  0  0  0  0  0  0  0  0  0  0  0
  -27.0621   33.2760  -43.7258 C   0  0  0  0  0  0  0  0  0  0  0  0
  -26.3838   35.7025  -43.9876 O   0  0  0  0  0  0  0  0  0  0  0  0
  -21.9881   36.8726  -49.1365 C   0  0  0  0  0  0  0  0  0  0  0  0
  -27.4731   31.1854  -44.5311 O   0  0  0  0  0  0  0  0  0  0  0  0
  -23.0101   37.5688  -49.7318 C   0  0  0  0  0  0  0  0  0  0  0  0
  -26.3339   34.8063  -44.5633 C   0  0  0  0  0  0  0  0  0  0  0  0
  -22.0221   36.0059  -46.7817 C   0  0  0  0  0  0  0  0  0  0  0  0
  -22.9590   35.5567  -45.6862 C   0  0  0  0  0  0  0  0  0  0  0  0
  2  1  1  0
  5  4  1  0
  7  3  1  0
  8  4  1  0
  9  7  1  0
 10  2  1  0
 10  5  1  0
 10  6  2  0
 11  3  1  0
 12  1  1  0
 12 11  1  0
M  END
>  <ID>  (1) 
conformer_0

$$$$
