
     RDKit          3D

 13 13  0  0  0  0  0  0  0  0999 V2000
  -23.8263   34.8071  -45.0949 C   0  0  0  0  0  0  0  0  0  0  0  0
  -22.1973   36.2963  -47.3378 C   0  0  0  0  0  0  0  0  0  0  0  0
  -27.5670   31.6645  -43.5954 C   0  0  0  0  0  0  0  0  0  0  0  0
  -22.5011   35.4493  -46.0266 C   0  0  0  0  0  0  0  0  0  0  0  0
  -27.1647   33.1287  -43.8372 C   0  0  0  0  0  0  0  0  0  0  0  0
  -26.1928   35.6216  -43.8756 O   0  0  0  0  0  0  0  0  0  0  0  0
  -22.1925   37.1687  -49.2010 C   0  0  0  0  0  0  0  0  0  0  0  0
  -26.3027   33.6301  -44.9722 N   0  0  0  0  0  0  0  0  0  0  0  0
  -27.1816   30.5689  -43.2015 O   0  0  0  0  0  0  0  0  0  0  0  0
  -25.9231   34.9095  -44.6566 C   0  0  0  0  0  0  0  0  0  0  0  0
  -23.1987   37.4575  -50.1966 C   0  0  0  0  0  0  0  0  0  0  0  0
  -24.2496   35.8652  -46.1259 C   0  0  0  0  0  0  0  0  0  0  0  0
  -23.4015   37.0755  -48.0522 C   0  0  0  0  0  0  0  0  0  0  0  0
  4  1  1  0
  4  2  1  0
  5  3  1  0
  8  5  1  0
  9  3  1  0
 10  1  1  0
 10  6  2  0
 10  8  1  0
 11  7  1  0
 12  1  1  0
 12  4  1  0
 13  2  1  0
 13  7  1  0
M  END
>  <ID>  (1) 
conformer_0

$$$$
