
     RDKit          3D

 15 14  0  0  0  0  0  0  0  0999 V2000
  -22.7827   37.0875  -47.4918 C   0  0  0  0  0  0  0  0  0  0  0  0
  -22.1234   35.9563  -46.8229 C   0  0  0  0  0  0  0  0  0  0  0  0
  -26.7551   32.1419  -43.3619 C   0  0  0  0  0  0  0  0  0  0  0  0
  -24.4011   35.0972  -45.2411 C   0  0  0  0  0  0  0  0  0  0  0  0
  -27.7713   33.2908  -44.1867 C   0  0  0  0  0  0  0  0  0  0  0  0
  -22.1143   37.1016  -48.7827 C   0  0  0  0  0  0  0  0  0  0  0  0
  -28.0290   31.2435  -44.6313 O   0  0  0  0  0  0  0  0  0  0  0  0
  -27.5599   31.0466  -43.1789 C   0  0  0  0  0  0  0  0  0  0  0  0
  -24.7612   36.0232  -46.0566 C   0  0  0  0  0  0  0  0  0  0  0  0
  -26.7182   34.2453  -44.4028 N   0  0  0  0  0  0  0  0  0  0  0  0
  -26.9453   30.0130  -43.3606 O   0  0  0  0  0  0  0  0  0  0  0  0
  -22.7258   37.3572  -50.0004 C   0  0  0  0  0  0  0  0  0  0  0  0
  -26.7475   35.4622  -45.3671 C   0  0  0  0  0  0  0  0  0  0  0  0
  -22.8830   35.2325  -45.8316 C   0  0  0  0  0  0  0  0  0  0  0  0
  -26.5579   34.8058  -43.7026 C   0  0  0  0  0  0  0  0  0  0  0  0
  2  1  1  0
  5  3  1  0
  6  1  1  0
  8  3  1  0
  8  7  1  0
  9  4  1  0
 10  5  1  0
 11  8  1  0
 12  6  1  0
 13  9  1  0
 13 10  1  0
 14  2  2  3
 14  4  1  0
 15 10  1  0
M  END
>  <ID>  (1) 
conformer_0

$$$$
