
     RDKit          3D

 14 15  0  0  0  0  0  0  0  0999 V2000
  -23.2221   34.9722  -45.3286 C   0  0  0  0  0  0  0  0  0  0  0  0
  -24.7806   35.0699  -45.3853 C   0  0  0  0  0  0  0  0  0  0  0  0
  -27.7525   31.2628  -43.2805 C   0  0  0  0  0  0  0  0  0  0  0  0
  -22.3028   36.2899  -46.4415 C   0  0  0  0  0  0  0  0  0  0  0  0
  -26.3637   35.8855  -44.6002 O   0  0  0  0  0  0  0  0  0  0  0  0
  -26.9718   32.0270  -44.3103 C   0  0  0  0  0  0  0  0  0  0  0  0
  -26.5260   30.6387  -43.0882 O   0  0  0  0  0  0  0  0  0  0  0  0
  -25.8570   35.0907  -45.0039 C   0  0  0  0  0  0  0  0  0  0  0  0
  -22.3293   36.8424  -48.8190 C   0  0  0  0  0  0  0  0  0  0  0  0
  -22.9703   37.4978  -49.9845 C   0  0  0  0  0  0  0  0  0  0  0  0
  -26.4783   33.6234  -45.1702 N   0  0  0  0  0  0  0  0  0  0  0  0
  -23.9133   36.1176  -46.7121 C   0  0  0  0  0  0  0  0  0  0  0  0
  -27.2422   33.4667  -43.9113 C   0  0  0  0  0  0  0  0  0  0  0  0
  -22.6910   37.5907  -47.6947 C   0  0  0  0  0  0  0  0  0  0  0  0
  2  1  1  0
  4  1  1  0
  6  3  1  0
  7  3  1  0
  8  2  1  0
  8  5  2  0
 10  9  1  0
 11  8  1  0
 12  1  1  0
 12  2  1  0
 12  4  1  0
 13  6  1  0
 13 11  1  0
 14  4  1  0
 14  9  1  0
M  END
>  <ID>  (1) 
conformer_0

$$$$
