
     RDKit          3D

 10  9  0  0  0  0  0  0  0  0999 V2000
  -24.4159   35.4234  -45.7809 C   0  0  0  0  0  0  0  0  0  0  0  0
  -22.5938   36.5705  -47.2536 C   0  0  0  0  0  0  0  0  0  0  0  0
  -27.0013   33.5611  -44.1846 C   0  0  0  0  0  0  0  0  0  0  0  0
  -25.8461   35.4640  -44.8951 C   0  0  0  0  0  0  0  0  0  0  0  0
  -22.6557   37.1867  -48.5692 C   0  0  0  0  0  0  0  0  0  0  0  0
  -23.0862   35.6786  -46.1887 C   0  0  0  0  0  0  0  0  0  0  0  0
  -27.1251   30.2918  -43.0202 O   0  0  0  0  0  0  0  0  0  0  0  0
  -27.2987   31.7473  -43.6221 C   0  0  0  0  0  0  0  0  0  0  0  0
  -27.0236   31.5551  -45.0355 O   0  0  0  0  0  0  0  0  0  0  0  0
  -22.7077   37.3338  -49.9113 C   0  0  0  0  0  0  0  0  0  0  0  0
  4  1  2  0
  4  3  2  0
  5  2  1  0
  6  1  2  0
  6  2  1  0
  8  3  2  0
  8  7  1  0
  9  8  1  0
 10  5  1  0
M  END
>  <ID>  (1) 
conformer_0

$$$$
