
     RDKit          3D

 13 13  0  0  0  0  0  0  0  0999 V2000
  -23.3726   37.3809  -48.9198 C   0  0  0  0  0  0  0  0  0  0  0  0
  -22.8656   37.3551  -50.1472 C   0  0  0  0  0  0  0  0  0  0  0  0
  -27.7734   31.0297  -43.3047 C   0  0  0  0  0  0  0  0  0  0  0  0
  -22.2497   36.8265  -47.8346 C   0  0  0  0  0  0  0  0  0  0  0  0
  -27.2377   32.5084  -43.6331 C   0  0  0  0  0  0  0  0  0  0  0  0
  -26.9205   35.8240  -44.6458 O   0  0  0  0  0  0  0  0  0  0  0  0
  -21.8523   35.7321  -46.0669 C   0  0  0  0  0  0  0  0  0  0  0  0
  -27.0037   33.8279  -44.1346 C   0  0  0  0  0  0  0  0  0  0  0  0
  -27.4115   31.3734  -43.7909 N   0  0  0  0  0  0  0  0  0  0  0  0
  -23.4586   35.1701  -45.5250 C   0  0  1  0  0  0  0  0  0  0  0  0
  -23.3936   36.2778  -46.8041 C   0  0  2  0  0  0  0  0  0  0  0  0
  -24.9367   35.3392  -45.9003 C   0  0  0  0  0  0  0  0  0  0  0  0
  -25.8370   35.0707  -45.0180 C   0  0  1  0  0  0  0  0  0  0  0  0
  2  1  1  0
  4  1  1  0
  8  5  1  0
  9  3  2  3
  9  5  1  0
 10  7  1  0
 11  4  1  6
 11  7  1  0
 11 10  1  0
 10 12  1  6
 13  6  1  6
 13  8  1  0
 13 12  1  0
M  END
>  <ID>  (1) 
conformer_0

$$$$
