
     RDKit          3D

 12 11  0  0  0  0  0  0  0  0999 V2000
  -22.4208   37.2633  -49.6943 C   0  0  0  0  0  0  0  0  0  0  0  0
  -23.8433   35.7984  -45.9680 C   0  0  0  0  0  0  0  0  0  0  0  0
  -27.4869   31.2662  -43.1991 C   0  0  0  0  0  0  0  0  0  0  0  0
  -23.4030   37.4668  -48.5970 C   0  0  0  0  0  0  0  0  0  0  0  0
  -27.5536   32.5678  -43.9560 C   0  0  0  0  0  0  0  0  0  0  0  0
  -26.3725   35.7723  -44.7078 O   0  0  0  0  0  0  0  0  0  0  0  0
  -27.3382   30.7314  -44.1296 O   0  0  0  0  0  0  0  0  0  0  0  0
  -24.0648   34.7047  -45.1826 C   0  0  0  0  0  0  0  0  0  0  0  0
  -26.7461   33.9143  -43.9049 C   0  0  0  0  0  0  0  0  0  0  0  0
  -22.4825   35.9225  -46.5176 C   0  0  0  0  0  0  0  0  0  0  0  0
  -22.1113   36.7368  -47.7647 C   0  0  0  0  0  0  0  0  0  0  0  0
  -25.6329   35.2456  -44.9526 C   0  0  0  0  0  0  0  0  0  0  0  0
  4  1  1  0
  5  3  1  0
  7  3  1  0
  8  2  1  0
  9  5  1  0
 10  2  1  0
 11  4  1  0
 11 10  2  3
 12  6  2  0
 12  8  1  0
 12  9  1  0
M  END
>  <ID>  (1) 
conformer_0

$$$$
