
     RDKit          3D

 11 10  0  0  0  0  0  0  0  0999 V2000
  -27.7412   31.2332  -43.4896 C   0  0  0  0  0  0  0  0  0  0  0  0
  -22.5269   37.2283  -48.3113 C   0  0  0  0  0  0  0  0  0  0  0  0
  -22.6469   37.3361  -49.6648 C   0  0  0  0  0  0  0  0  0  0  0  0
  -22.2714   36.5025  -47.1438 C   0  0  0  0  0  0  0  0  0  0  0  0
  -27.2899   32.5273  -43.8047 C   0  0  0  0  0  0  0  0  0  0  0  0
  -26.1879   35.6378  -44.1387 O   0  0  0  0  0  0  0  0  0  0  0  0
  -25.8261   35.1378  -45.0363 C   0  0  0  0  0  0  0  0  0  0  0  0
  -26.6182   30.7483  -44.0895 O   0  0  0  0  0  0  0  0  0  0  0  0
  -23.1583   35.6940  -46.1968 C   0  0  0  0  0  0  0  0  0  0  0  0
  -24.3642   35.6640  -45.9822 C   0  0  0  0  0  0  0  0  0  0  0  0
  -27.2526   33.9497  -44.2924 C   0  0  0  0  0  0  0  0  0  0  0  0
  3  2  2  3
  4  2  1  0
  5  1  1  0
  7  6  2  0
  8  1  1  0
  9  4  1  0
 10  7  1  0
 10  9  2  3
 11  5  1  0
 11  7  1  0
M  END
>  <ID>  (1) 
conformer_0

$$$$
