
     RDKit          3D

 12 11  0  0  0  0  0  0  0  0999 V2000
  -24.5987   35.1384  -45.4723 C   0  0  2  0  0  0  0  0  0  0  0  0
  -27.4140   31.7811  -43.7514 C   0  0  0  0  0  0  0  0  0  0  0  0
  -21.7964   35.6398  -46.2226 C   0  0  0  0  0  0  0  0  0  0  0  0
  -22.9512   35.7467  -45.9089 C   0  0  0  0  0  0  0  0  0  0  0  0
  -27.3324   33.0990  -43.9845 C   0  0  0  0  0  0  0  0  0  0  0  0
  -27.1212   35.2569  -44.5548 O   0  0  0  0  0  0  0  0  0  0  0  0
  -27.8868   30.7458  -44.1510 O   0  0  0  0  0  0  0  0  0  0  0  0
  -23.0291   36.9476  -47.3281 C   0  0  0  0  0  0  0  0  0  0  0  0
  -25.2090   35.8901  -46.2821 C   0  0  0  0  0  0  0  0  0  0  0  0
  -26.4400   34.8248  -44.8527 C   0  0  0  0  0  0  0  0  0  0  0  0
  -22.0015   36.8667  -48.3637 C   0  0  0  0  0  0  0  0  0  0  0  0
  -22.7146   37.4355  -49.5339 C   0  0  0  0  0  0  0  0  0  0  0  0
  4  1  1  0
  4  3  2  3
  5  2  1  0
  7  2  1  0
  8  4  1  0
  1  9  1  6
 10  1  1  0
 10  5  1  0
 10  6  2  0
 11  8  1  0
 12 11  1  0
M  END
>  <ID>  (1) 
conformer_0

$$$$
