
     RDKit          3D

 11 10  0  0  0  0  0  0  0  0999 V2000
  -22.9862   35.4704  -45.8173 C   0  0  0  0  0  0  0  0  0  0  0  0
  -22.5149   36.3239  -46.9715 C   0  0  0  0  0  0  0  0  0  0  0  0
  -27.3674   31.6215  -43.5445 C   0  0  0  0  0  0  0  0  0  0  0  0
  -26.0710   35.1761  -44.9186 C   0  0  0  0  0  0  0  0  0  0  0  0
  -24.3715   35.5527  -45.8749 C   0  0  0  0  0  0  0  0  0  0  0  0
  -26.9149   36.2762  -44.8726 O   0  0  0  0  0  0  0  0  0  0  0  0
  -22.5452   37.1611  -48.2982 C   0  0  0  0  0  0  0  0  0  0  0  0
  -26.8416   30.2106  -43.6570 O   0  0  0  0  0  0  0  0  0  0  0  0
  -26.9121   33.2476  -43.9859 C   0  0  0  0  0  0  0  0  0  0  0  0
  -26.6481   32.8968  -44.2312 N   0  0  0  0  0  0  0  0  0  0  0  0
  -22.5962   37.3834  -49.6618 C   0  0  0  0  0  0  0  0  0  0  0  0
  2  1  1  0
  5  1  1  0
  5  4  1  0
  6  4  1  0
  7  2  3  0
  8  3  1  0
  9  4  1  0
 10  3  1  0
 10  9  1  0
 11  7  1  0
M  END
>  <ID>  (1) 
conformer_0

$$$$
