
     RDKit          3D

 12 11  0  0  0  0  0  0  0  0999 V2000
  -24.2868   34.9031  -45.2597 C   0  0  0  0  0  0  0  0  0  0  0  0
  -22.3093   36.5302  -47.7785 C   0  0  0  0  0  0  0  0  0  0  0  0
  -27.6852   30.9819  -43.2601 C   0  0  0  0  0  0  0  0  0  0  0  0
  -22.4221   35.7173  -46.1616 C   0  0  0  0  0  0  0  0  0  0  0  0
  -26.8617   32.3079  -43.4352 C   0  0  0  0  0  0  0  0  0  0  0  0
  -27.8848   31.5344  -44.5298 O   0  0  0  0  0  0  0  0  0  0  0  0
  -26.6107   35.5867  -44.4098 O   0  0  0  0  0  0  0  0  0  0  0  0
  -22.6544   37.1301  -48.9197 C   0  0  0  0  0  0  0  0  0  0  0  0
  -27.2323   33.6289  -43.9851 C   0  0  0  0  0  0  0  0  0  0  0  0
  -22.7596   37.3473  -50.1811 C   0  0  0  0  0  0  0  0  0  0  0  0
  -23.9543   35.8698  -46.3678 C   0  0  0  0  0  0  0  0  0  0  0  0
  -25.7829   35.0113  -44.9003 C   0  0  0  0  0  0  0  0  0  0  0  0
  4  2  1  0
  5  3  1  0
  6  3  1  0
  8  2  1  0
  9  5  2  3
  9  7  1  0
 10  8  3  0
 11  1  1  0
 11  4  1  0
 12  1  1  0
 12  7  1  0
M  END
>  <ID>  (1) 
conformer_0

$$$$
