
     RDKit          3D

 11 10  0  0  0  0  0  0  0  0999 V2000
  -23.3603   35.8368  -46.0913 C   0  0  0  0  0  0  0  0  0  0  0  0
  -23.0330   37.2489  -48.5283 C   0  0  0  0  0  0  0  0  0  0  0  0
  -27.5347   31.4469  -43.4712 C   0  0  0  0  0  0  0  0  0  0  0  0
  -24.5276   35.2525  -45.7290 C   0  0  0  0  0  0  0  0  0  0  0  0
  -27.1825   32.9440  -43.6450 C   0  0  1  0  0  0  0  0  0  0  0  0
  -26.9643   35.7249  -44.4696 O   0  0  0  0  0  0  0  0  0  0  0  0
  -26.5023   31.3185  -44.5228 O   0  0  0  0  0  0  0  0  0  0  0  0
  -22.6787   37.3175  -49.7537 C   0  0  0  0  0  0  0  0  0  0  0  0
  -25.6616   32.9419  -43.0099 O   0  0  0  0  0  0  0  0  0  0  0  0
  -26.4368   34.5895  -44.5195 C   0  0  0  0  0  0  0  0  0  0  0  0
  -22.4894   36.6915  -47.1353 C   0  0  0  0  0  0  0  0  0  0  0  0
  4  1  2  0
  5  3  1  0
  7  3  1  0
  8  2  2  3
  5  9  1  1
 10  4  2  0
 10  5  1  0
 10  6  1  0
 11  1  1  0
 11  2  1  0
M  END
>  <ID>  (1) 
conformer_0

$$$$
