
     RDKit          3D

  8  7  0  0  0  0  0  0  0  0999 V2000
   -4.3841   73.4607    5.2577 C   0  0  0  0  0  0  0  0  0  0  0  0
   -4.6841   74.8607    5.4577 N   0  0  0  0  0  0  0  0  0  0  0  0
   -3.9841   75.8607    5.0577 C   0  0  0  0  0  0  0  0  0  0  0  0
   -4.1841   77.1607    5.7577 C   0  0  0  0  0  0  0  0  0  0  0  0
   -4.5841   77.1607    7.1577 C   0  0  0  0  0  0  0  0  0  0  0  0
   -2.8841   75.5607    4.3577 O   0  0  0  0  0  0  0  0  0  0  0  0
   -5.3841   77.5607    4.9577 O   0  0  0  0  0  0  0  0  0  0  0  0
   -3.1841   78.1607    5.5577 C   0  0  0  0  0  0  0  0  0  0  0  0
  2  1  1  0
  3  2  1  0
  4  3  1  0
  5  4  1  0
  6  3  2  0
  7  4  1  0
  8  4  1  0
M  END
>  <ID>  (1) 
conformer_0

$$$$
