
     RDKit          3D

 11 12  0  0  0  0  0  0  0  0999 V2000
   -2.8807   76.2499    5.3832 C   0  0  0  0  0  0  0  0  0  0  0  0
   -4.1807   75.7499    5.6832 N   0  0  0  0  0  0  0  0  0  0  0  0
   -4.3807   74.4499    5.0832 C   0  0  0  0  0  0  0  0  0  0  0  0
   -3.0807   73.8499    5.0832 C   0  0  0  0  0  0  0  0  0  0  0  0
   -1.6807   75.6499    5.9832 C   0  0  0  0  0  0  0  0  0  0  0  0
   -5.1807   74.4499    3.8832 C   0  0  0  0  0  0  0  0  0  0  0  0
   -5.7807   75.7499    3.5832 N   0  0  0  0  0  0  0  0  0  0  0  0
   -0.6807   76.7499    6.0832 C   0  0  0  0  0  0  0  0  0  0  0  0
   -1.4807   77.9499    6.3832 C   0  0  0  0  0  0  0  0  0  0  0  0
   -2.8807   77.7499    5.9832 C   0  0  0  0  0  0  0  0  0  0  0  0
   -1.9807   74.2499    5.7832 O   0  0  0  0  0  0  0  0  0  0  0  0
  2  1  1  0
  3  2  1  0
  4  3  1  0
  5  1  1  0
  6  3  1  0
  7  6  1  0
  8  5  1  0
  9  8  1  0
 10  1  1  0
 10  9  1  0
 11  4  1  0
 11  5  1  0
M  END
>  <ID>  (1) 
conformer_0

$$$$
