
     RDKit          3D

 10 10  0  0  0  0  0  0  0  0999 V2000
   -4.6355   75.6767    6.1398 N   0  0  0  0  0  0  0  0  0  0  0  0
   -4.0355   75.3767    4.8398 C   0  0  0  0  0  0  0  0  0  0  0  0
   -4.6355   74.1767    4.3398 C   0  0  0  0  0  0  0  0  0  0  0  0
   -5.9355   74.2767    3.6398 N   0  0  0  0  0  0  0  0  0  0  0  0
   -2.6355   75.5767    4.9398 C   0  0  0  0  0  0  0  0  0  0  0  0
   -2.1355   76.2766    6.1398 C   0  0  0  0  0  0  0  0  0  0  0  0
   -2.8355   77.2766    6.8398 C   0  0  0  0  0  0  0  0  0  0  0  0
   -4.2355   76.8767    6.7398 C   0  0  0  0  0  0  0  0  0  0  0  0
   -2.2355   78.4766    7.3398 C   0  0  0  0  0  0  0  0  0  0  0  0
   -0.8355   78.3766    7.3398 C   0  0  0  0  0  0  0  0  0  0  0  0
  2  1  1  0
  3  2  1  0
  4  3  1  0
  5  2  1  0
  6  5  1  0
  7  6  1  0
  8  1  1  0
  8  7  2  0
  9  7  1  0
 10  9  1  0
M  END
>  <ID>  (1) 
conformer_0

$$$$
