
     RDKit          3D

  8  7  0  0  0  0  0  0  0  0999 V2000
   -2.8807   76.2499    5.3832 C   0  0  0  0  0  0  0  0  0  0  0  0
   -3.9807   75.3499    5.4832 N   0  0  0  0  0  0  0  0  0  0  0  0
   -3.9807   74.0499    4.9832 C   0  0  0  0  0  0  0  0  0  0  0  0
   -3.1807   77.6499    5.7832 C   0  0  0  0  0  0  0  0  0  0  0  0
   -3.7807   77.8499    7.0832 C   0  0  0  0  0  0  0  0  0  0  0  0
   -5.0807   73.9499    4.0832 C   0  0  0  0  0  0  0  0  0  0  0  0
   -5.9807   75.0499    3.6832 N   0  0  0  0  0  0  0  0  0  0  0  0
   -3.0807   73.3499    5.1832 O   0  0  0  0  0  0  0  0  0  0  0  0
  2  1  1  0
  3  2  1  0
  4  1  1  0
  5  4  1  0
  6  3  1  0
  7  6  1  0
  8  3  2  0
M  END
>  <ID>  (1) 
conformer_0

$$$$
