
     RDKit          3D

 11 10  0  0  0  0  0  0  0  0999 V2000
   -6.0767   74.7778    3.8462 N   0  0  0  0  0  0  0  0  0  0  0  0
   -4.9767   74.1778    4.4462 C   0  0  0  0  0  0  0  0  0  0  0  0
   -5.1767   73.6778    5.7462 N   0  0  0  0  0  0  0  0  0  0  0  0
   -3.6767   74.8778    4.2462 C   0  0  0  0  0  0  0  0  0  0  0  0
   -2.8767   74.9778    5.4462 C   0  0  0  0  0  0  0  0  0  0  0  0
   -2.7767   76.2778    6.1462 C   0  0  0  0  0  0  0  0  0  0  0  0
   -1.3767   76.5778    6.5462 C   0  0  0  0  0  0  0  0  0  0  0  0
   -1.0767   77.6778    7.4462 C   0  0  0  0  0  0  0  0  0  0  0  0
    0.0233   77.6778    8.4462 C   0  0  0  0  0  0  0  0  0  0  0  0
    0.7233   78.8778    8.6462 C   0  0  0  0  0  0  0  0  0  0  0  0
    2.1233   78.9778    9.1462 C   0  0  0  0  0  0  0  0  0  0  0  0
  2  1  2  0
  3  2  1  0
  4  2  1  0
  5  4  1  0
  6  5  1  0
  7  6  1  0
  8  7  1  0
  9  8  1  0
 10  9  1  0
 11 10  1  0
M  END
>  <ID>  (1) 
conformer_0

$$$$
