
     RDKit          3D

 10  9  0  0  0  0  0  0  0  0999 V2000
   -5.9285   74.3331    3.9143 N   0  0  0  0  0  0  0  0  0  0  0  0
   -4.7285   74.2331    4.5143 C   0  0  0  0  0  0  0  0  0  0  0  0
   -4.0285   75.5331    4.7143 C   0  0  0  0  0  0  0  0  0  0  0  0
   -4.8285   73.5331    5.8143 N   0  0  0  0  0  0  0  0  0  0  0  0
   -2.9285   75.4331    5.6143 C   0  0  0  0  0  0  0  0  0  0  0  0
   -2.5285   76.6331    6.4143 C   0  0  0  0  0  0  0  0  0  0  0  0
   -1.1285   76.8331    6.6143 C   0  0  0  0  0  0  0  0  0  0  0  0
   -0.6285   77.5331    7.8143 C   0  0  0  0  0  0  0  0  0  0  0  0
    0.6715   78.0331    8.0143 C   0  0  0  0  0  0  0  0  0  0  0  0
    1.3715   78.0331    9.3143 C   0  0  0  0  0  0  0  0  0  0  0  0
  2  1  1  0
  3  2  1  0
  4  2  1  0
  5  3  1  0
  6  5  1  0
  7  6  1  0
  8  7  2  3
  9  8  1  0
 10  9  1  0
M  END
>  <ID>  (1) 
conformer_0

$$$$
