
     RDKit          3D

 10 10  0  0  0  0  0  0  0  0999 V2000
   -2.8807   76.2499    5.3832 C   0  0  0  0  0  0  0  0  0  0  0  0
   -4.1807   75.7499    5.6832 N   0  0  0  0  0  0  0  0  0  0  0  0
   -4.3807   74.4499    5.0832 C   0  0  0  0  0  0  0  0  0  0  0  0
   -3.0807   73.7499    4.8832 C   0  0  0  0  0  0  0  0  0  0  0  0
   -1.6807   75.5499    5.8832 C   0  0  0  0  0  0  0  0  0  0  0  0
   -0.5807   76.3499    6.0832 C   0  0  0  0  0  0  0  0  0  0  0  0
   -2.7807   77.6499    5.7832 C   0  0  0  0  0  0  0  0  0  0  0  0
   -1.6807   78.4499    6.2832 C   0  0  0  0  0  0  0  0  0  0  0  0
   -0.3807   77.7499    6.2832 C   0  0  0  0  0  0  0  0  0  0  0  0
   -5.5807   73.9499    4.5832 N   0  0  0  0  0  0  0  0  0  0  0  0
  2  1  1  0
  3  2  1  0
  4  3  1  0
  5  1  1  0
  6  5  1  0
  7  1  1  0
  8  7  1  0
  9  6  1  0
  9  8  1  0
 10  3  2  0
M  END
>  <ID>  (1) 
conformer_0

$$$$
