
     RDKit          3D

  8  8  0  0  0  0  0  0  0  0999 V2000
   -4.4676   75.4661    5.7462 N   0  0  0  0  0  0  0  0  0  0  0  0
   -4.2676   74.2661    5.0462 C   0  0  0  0  0  0  0  0  0  0  0  0
   -3.1676   76.0661    5.9462 C   0  0  0  0  0  0  0  0  0  0  0  0
   -2.0676   75.0661    5.8462 C   0  0  0  0  0  0  0  0  0  0  0  0
   -2.8676   73.8661    5.0462 C   0  0  0  0  0  0  0  0  0  0  0  0
   -2.8676   77.2661    6.5462 C   0  0  0  0  0  0  0  0  0  0  0  0
   -3.8676   78.2661    7.0462 C   0  0  0  0  0  0  0  0  0  0  0  0
   -5.1676   73.9661    4.0462 C   0  0  0  0  0  0  0  0  0  0  0  0
  2  1  1  0
  3  1  1  0
  4  3  1  0
  5  2  1  0
  5  4  1  0
  6  3  2  3
  7  6  1  0
  8  2  1  0
M  END
>  <ID>  (1) 
conformer_0

$$$$
