
     RDKit          3D

  6  6  0  0  0  0  0  0  0  0999 V2000
   -2.8088   75.4967    5.1785 C   0  0  0  0  0  0  0  0  0  0  0  0
   -4.0088   75.6967    5.9785 N   0  0  0  0  0  0  0  0  0  0  0  0
   -4.0088   76.8967    6.6785 C   0  0  0  0  0  0  0  0  0  0  0  0
   -3.1088   77.8967    6.1785 C   0  0  0  0  0  0  0  0  0  0  0  0
   -1.7088   75.8967    6.0785 C   0  0  0  0  0  0  0  0  0  0  0  0
   -1.7088   77.3967    6.2785 C   0  0  0  0  0  0  0  0  0  0  0  0
  2  1  1  0
  3  2  1  0
  4  3  1  0
  5  1  1  0
  6  4  1  0
  6  5  1  0
M  END
>  <ID>  (1) 
conformer_0

$$$$
