
     RDKit          3D

 10 11  0  0  0  0  0  0  0  0999 V2000
   -4.7147   75.0634    4.3031 C   0  0  0  0  0  0  0  0  0  0  0  0
   -4.4147   75.4634    5.7031 N   0  0  0  0  0  0  0  0  0  0  0  0
   -3.9147   76.6634    6.1031 C   0  0  0  0  0  0  0  0  0  0  0  0
   -4.5147   77.2634    7.3031 C   0  0  0  0  0  0  0  0  0  0  0  0
   -5.5147   76.1634    3.9031 N   0  0  0  0  0  0  0  0  0  0  0  0
   -3.5147   77.6634    5.1031 C   0  0  0  0  0  0  0  0  0  0  0  0
   -4.6147   73.6634    4.2031 C   0  0  0  0  0  0  0  0  0  0  0  0
   -3.1147   78.8634    5.9031 C   0  0  0  0  0  0  0  0  0  0  0  0
   -4.0147   78.8634    7.1031 C   0  0  0  0  0  0  0  0  0  0  0  0
   -4.4147   75.9634    3.4031 C   0  0  0  0  0  0  0  0  0  0  0  0
  2  1  1  0
  3  2  1  0
  4  3  1  0
  5  1  1  0
  6  3  1  0
  7  1  1  0
  8  6  1  0
  9  4  1  0
  9  8  1  0
 10  1  1  0
 10  5  1  0
M  END
>  <ID>  (1) 
conformer_0

$$$$
