
     RDKit          3D

  8  7  0  0  0  0  0  0  0  0999 V2000
   -4.7147   75.0634    4.3031 C   0  0  0  0  0  0  0  0  0  0  0  0
   -4.3147   75.2634    5.6031 N   0  0  0  0  0  0  0  0  0  0  0  0
   -4.3147   76.4634    6.4031 C   0  0  0  0  0  0  0  0  0  0  0  0
   -5.8147   74.1634    4.0031 N   0  0  0  0  0  0  0  0  0  0  0  0
   -3.1147   77.0634    7.0031 C   0  0  0  0  0  0  0  0  0  0  0  0
   -3.0147   78.4634    7.3031 C   0  0  0  0  0  0  0  0  0  0  0  0
   -3.8147   75.3634    3.4031 O   0  0  0  0  0  0  0  0  0  0  0  0
   -3.5147   79.2634    6.2031 C   0  0  0  0  0  0  0  0  0  0  0  0
  2  1  1  0
  3  2  1  0
  4  1  1  0
  5  3  1  0
  6  5  1  0
  7  1  2  0
  8  6  1  0
M  END
>  <ID>  (1) 
conformer_0

$$$$
