
     RDKit          3D

 11 12  0  0  0  0  0  0  0  0999 V2000
   -4.5775   74.1215    4.9040 C   0  0  0  0  0  0  0  0  0  0  0  0
   -4.6775   75.2215    5.9040 N   0  0  0  0  0  0  0  0  0  0  0  0
   -4.8775   74.7215    3.6040 C   0  0  0  0  0  0  0  0  0  0  0  0
   -3.9775   76.4215    5.4040 C   0  0  0  0  0  0  0  0  0  0  0  0
   -5.4775   76.0215    3.7040 N   0  0  0  0  0  0  0  0  0  0  0  0
   -4.6775   76.8215    4.3040 C   0  0  0  0  0  0  0  0  0  0  0  0
   -3.0775   77.1215    6.2040 C   0  0  0  0  0  0  0  0  0  0  0  0
   -2.8775   77.6215    7.5040 C   0  0  0  0  0  0  0  0  0  0  0  0
   -1.4775   77.8215    7.8040 C   0  0  0  0  0  0  0  0  0  0  0  0
   -0.6775   76.9215    7.0040 C   0  0  0  0  0  0  0  0  0  0  0  0
   -0.9775   78.2215    6.5040 O   0  0  0  0  0  0  0  0  0  0  0  0
  2  1  1  0
  3  1  1  0
  4  2  1  0
  5  3  1  0
  6  4  1  0
  6  5  1  0
  7  4  1  0
  8  7  1  0
  9  8  1  0
 10  9  1  0
 11  9  1  0
 11 10  1  0
M  END
>  <ID>  (1) 
conformer_0

$$$$
