
     RDKit          3D

  8  7  0  0  0  0  0  0  0  0999 V2000
   -6.0767   74.7778    3.8462 N   0  0  0  0  0  0  0  0  0  0  0  0
   -4.9767   74.1778    4.4462 C   0  0  0  0  0  0  0  0  0  0  0  0
   -5.1767   73.6778    5.7462 N   0  0  0  0  0  0  0  0  0  0  0  0
   -3.6767   74.8778    4.2462 C   0  0  0  0  0  0  0  0  0  0  0  0
   -2.8767   74.9778    5.4462 C   0  0  0  0  0  0  0  0  0  0  0  0
   -2.3767   76.1778    6.0462 C   0  0  0  0  0  0  0  0  0  0  0  0
   -2.8767   76.9778    7.0462 C   0  0  0  0  0  0  0  0  0  0  0  0
   -3.5767   78.1778    7.1462 C   0  0  0  0  0  0  0  0  0  0  0  0
  2  1  2  0
  3  2  1  0
  4  2  1  0
  5  4  1  0
  6  5  1  0
  7  6  1  0
  8  7  1  0
M  END
>  <ID>  (1) 
conformer_0

$$$$
