
     RDKit          3D

  7  8  0  0  0  0  0  0  0  0999 V2000
   -3.6628   76.5407    5.0815 C   0  0  0  0  0  0  0  0  0  0  0  0
   -4.7628   75.7407    5.6815 N   0  0  0  0  0  0  0  0  0  0  0  0
   -4.5628   74.3407    5.1815 C   0  0  0  0  0  0  0  0  0  0  0  0
   -3.3628   74.2407    4.3815 C   0  0  0  0  0  0  0  0  0  0  0  0
   -2.5628   75.5407    4.8815 C   0  0  0  0  0  0  0  0  0  0  0  0
   -4.6628   76.2407    4.2815 C   0  0  0  0  0  0  0  0  0  0  0  0
   -5.9628   76.7407    3.9815 O   0  0  0  0  0  0  0  0  0  0  0  0
  2  1  1  0
  3  2  1  0
  4  3  1  0
  5  1  1  0
  5  4  1  0
  6  1  1  0
  6  2  1  0
  7  6  1  0
M  END
>  <ID>  (1) 
conformer_0

$$$$
