
     RDKit          3D

 10 10  0  0  0  0  0  0  0  0999 V2000
   -5.1045   74.8609    3.8193 C   0  0  0  0  0  0  0  0  0  0  0  0
   -6.3045   74.3609    3.8193 N   0  0  0  0  0  0  0  0  0  0  0  0
   -4.4045   75.4609    4.9193 C   0  0  0  0  0  0  0  0  0  0  0  0
   -3.0045   75.6609    5.0193 C   0  0  0  0  0  0  0  0  0  0  0  0
   -2.6045   76.6609    6.0193 C   0  0  0  0  0  0  0  0  0  0  0  0
   -4.9045   75.7609    6.2193 N   0  0  0  0  0  0  0  0  0  0  0  0
   -4.8045   76.8609    7.0193 C   0  0  0  0  0  0  0  0  0  0  0  0
   -3.4045   77.3608    6.9193 C   0  0  0  0  0  0  0  0  0  0  0  0
   -4.7045   75.4609    2.8193 O   0  0  0  0  0  0  0  0  0  0  0  0
   -5.5045   77.2609    8.1193 C   0  0  0  0  0  0  0  0  0  0  0  0
  2  1  1  0
  3  1  1  0
  4  3  1  0
  5  4  1  0
  6  3  1  0
  7  6  1  0
  8  5  1  0
  8  7  1  0
  9  1  2  0
 10  7  2  0
M  END
>  <ID>  (1) 
conformer_0

$$$$
