
     RDKit          3D

 10 10  0  0  0  0  0  0  0  0999 V2000
   -4.9350   75.1640    4.4593 C   0  0  0  0  0  0  0  0  0  0  0  0
   -4.4350   75.5640    5.7593 N   0  0  0  0  0  0  0  0  0  0  0  0
   -5.6350   76.3640    3.9593 N   0  0  0  0  0  0  0  0  0  0  0  0
   -5.9350   74.0640    4.3593 N   0  0  0  0  0  0  0  0  0  0  0  0
   -4.6350   76.8640    6.2593 C   0  0  0  0  0  0  0  0  0  0  0  0
   -4.2350   77.9640    5.3593 C   0  0  0  0  0  0  0  0  0  0  0  0
   -4.6350   77.1640    7.6593 C   0  0  0  0  0  0  0  0  0  0  0  0
   -3.6350   79.0640    6.0593 C   0  0  0  0  0  0  0  0  0  0  0  0
   -3.4350   77.8640    8.1593 C   0  0  0  0  0  0  0  0  0  0  0  0
   -2.7350   78.4640    7.0593 C   0  0  0  0  0  0  0  0  0  0  0  0
  2  1  1  0
  3  1  1  0
  4  1  1  0
  5  2  1  0
  6  5  1  0
  7  5  1  0
  8  6  1  0
  9  7  1  0
 10  8  1  0
 10  9  1  0
M  END
>  <ID>  (1) 
conformer_0

$$$$
