
     RDKit          3D

  6  5  0  0  0  0  0  0  0  0999 V2000
   -4.2804   75.8426    6.3261 N   0  0  0  0  0  0  0  0  0  0  0  0
   -3.8804   75.2426    5.0261 C   0  0  0  0  0  0  0  0  0  0  0  0
   -4.6804   74.1426    4.6261 C   0  0  0  0  0  0  0  0  0  0  0  0
   -3.9804   77.1426    6.7261 C   0  0  0  0  0  0  0  0  0  0  0  0
   -3.3804   77.7426    5.5261 C   0  0  0  0  0  0  0  0  0  0  0  0
   -5.8804   74.4426    3.8261 N   0  0  0  0  0  0  0  0  0  0  0  0
  2  1  1  0
  3  2  1  0
  4  1  1  0
  5  4  1  0
  6  3  1  0
M  END
>  <ID>  (1) 
conformer_0

$$$$
