
     RDKit          3D

  7  6  0  0  0  0  0  0  0  0999 V2000
   -2.8807   76.2499    5.3832 C   0  0  0  0  0  0  0  0  0  0  0  0
   -3.9807   75.3499    5.4832 N   0  0  0  0  0  0  0  0  0  0  0  0
   -4.1807   74.1499    4.8832 C   0  0  0  0  0  0  0  0  0  0  0  0
   -3.0807   77.6499    5.7832 C   0  0  0  0  0  0  0  0  0  0  0  0
   -3.5807   77.7499    7.1832 C   0  0  0  0  0  0  0  0  0  0  0  0
   -5.5807   73.8499    4.5832 N   0  0  0  0  0  0  0  0  0  0  0  0
   -3.2807   73.3499    4.6832 O   0  0  0  0  0  0  0  0  0  0  0  0
  2  1  2  3
  3  2  1  0
  4  1  1  0
  5  4  1  0
  6  3  1  0
  7  3  2  0
M  END
>  <ID>  (1) 
conformer_0

$$$$
