
     RDKit          3D

  8  7  0  0  0  0  0  0  0  0999 V2000
   -5.1045   74.8609    3.8193 C   0  0  0  0  0  0  0  0  0  0  0  0
   -6.3045   74.3609    3.8193 N   0  0  0  0  0  0  0  0  0  0  0  0
   -4.2045   75.2609    4.7193 C   0  0  0  0  0  0  0  0  0  0  0  0
   -2.8045   75.1609    4.8193 C   0  0  0  0  0  0  0  0  0  0  0  0
   -2.2045   75.9609    5.9193 C   0  0  0  0  0  0  0  0  0  0  0  0
   -3.2045   76.7609    6.6193 C   0  0  0  0  0  0  0  0  0  0  0  0
   -2.9045   77.7609    7.6193 C   0  0  0  0  0  0  0  0  0  0  0  0
   -4.9045   75.6609    2.6193 O   0  0  0  0  0  0  0  0  0  0  0  0
  2  1  1  0
  3  1  1  0
  4  3  1  0
  5  4  1  0
  6  5  1  0
  7  6  1  0
  8  1  2  0
M  END
>  <ID>  (1) 
conformer_0

$$$$
