
     RDKit          3D

  9  8  0  0  0  0  0  0  0  0999 V2000
   -4.3634   76.0663    5.9556 N   0  0  0  0  0  0  0  0  0  0  0  0
   -4.0634   75.7663    4.7556 C   0  0  0  0  0  0  0  0  0  0  0  0
   -4.3634   74.4663    4.1556 C   0  0  0  0  0  0  0  0  0  0  0  0
   -5.7634   74.2663    3.8556 N   0  0  0  0  0  0  0  0  0  0  0  0
   -4.2634   76.8663    3.8556 O   0  0  0  0  0  0  0  0  0  0  0  0
   -3.6634   77.1663    6.6556 C   0  0  0  0  0  0  0  0  0  0  0  0
   -3.4634   78.3663    5.9556 C   0  0  0  0  0  0  0  0  0  0  0  0
   -4.3634   77.3663    7.9556 C   0  0  0  0  0  0  0  0  0  0  0  0
   -3.9634   79.4663    6.7556 O   0  0  0  0  0  0  0  0  0  0  0  0
  2  1  1  0
  3  2  1  0
  4  3  1  0
  5  2  2  0
  6  1  1  0
  7  6  1  0
  8  6  1  0
  9  7  1  0
M  END
>  <ID>  (1) 
conformer_0

$$$$
