
     RDKit          3D

 10 10  0  0  0  0  0  0  0  0999 V2000
   -5.1045   74.8609    3.8193 C   0  0  0  0  0  0  0  0  0  0  0  0
   -6.3045   74.3609    3.8193 N   0  0  0  0  0  0  0  0  0  0  0  0
   -4.5045   75.4609    5.0193 C   0  0  0  0  0  0  0  0  0  0  0  0
   -3.0045   75.4609    5.0193 C   0  0  0  0  0  0  0  0  0  0  0  0
   -2.6045   76.3609    6.1193 C   0  0  0  0  0  0  0  0  0  0  0  0
   -5.0045   76.7609    5.3193 N   0  0  0  0  0  0  0  0  0  0  0  0
   -4.0045   77.2609    6.3193 C   0  0  0  0  0  0  0  0  0  0  0  0
   -4.8045   75.5609    2.7193 O   0  0  0  0  0  0  0  0  0  0  0  0
   -3.6045   78.6609    6.0193 C   0  0  0  0  0  0  0  0  0  0  0  0
   -4.5045   77.1609    7.6193 C   0  0  0  0  0  0  0  0  0  0  0  0
  2  1  1  0
  3  1  1  0
  4  3  1  0
  5  4  1  0
  6  3  1  0
  7  5  1  0
  7  6  1  0
  8  1  2  0
  9  7  1  0
 10  7  1  0
M  END
>  <ID>  (1) 
conformer_0

$$$$
