
     RDKit          3D

  6  5  0  0  0  0  0  0  0  0999 V2000
   -4.5046   75.8264    6.1295 N   0  0  0  0  0  0  0  0  0  0  0  0
   -4.5046   76.9264    7.0295 C   0  0  0  0  0  0  0  0  0  0  0  0
   -3.8046   75.9264    4.8295 C   0  0  0  0  0  0  0  0  0  0  0  0
   -3.9046   78.0264    6.3295 C   0  0  0  0  0  0  0  0  0  0  0  0
   -4.1046   74.7264    4.0295 C   0  0  0  0  0  0  0  0  0  0  0  0
   -4.7046   73.6264    4.8295 C   0  0  0  0  0  0  0  0  0  0  0  0
  2  1  1  0
  3  1  1  0
  4  2  1  0
  5  3  1  0
  6  5  1  0
M  END
>  <ID>  (1) 
conformer_0

$$$$
