
     RDKit          3D

 10 10  0  0  0  0  0  0  0  0999 V2000
   -4.5775   74.1215    4.9040 C   0  0  0  0  0  0  0  0  0  0  0  0
   -4.4775   75.3215    5.6040 N   0  0  0  0  0  0  0  0  0  0  0  0
   -5.7775   74.1215    4.0040 N   0  0  0  0  0  0  0  0  0  0  0  0
   -3.3775   76.0215    5.9040 C   0  0  0  0  0  0  0  0  0  0  0  0
   -3.2775   77.1215    6.8040 C   0  0  0  0  0  0  0  0  0  0  0  0
   -1.8775   77.5215    7.1040 C   0  0  0  0  0  0  0  0  0  0  0  0
   -2.0775   75.4215    5.6040 C   0  0  0  0  0  0  0  0  0  0  0  0
   -1.0775   76.3215    6.2040 C   0  0  0  0  0  0  0  0  0  0  0  0
   -3.5775   73.6215    4.4040 O   0  0  0  0  0  0  0  0  0  0  0  0
   -1.0775   77.9215    8.1040 O   0  0  0  0  0  0  0  0  0  0  0  0
  2  1  1  0
  3  1  1  0
  4  2  1  0
  5  4  2  0
  6  5  1  0
  7  4  1  0
  8  6  2  0
  8  7  1  0
  9  1  2  0
 10  6  1  0
M  END
>  <ID>  (1) 
conformer_0

$$$$
