
     RDKit          3D

  6  5  0  0  0  0  0  0  0  0999 V2000
   -4.6355   75.6767    6.1398 N   0  0  0  0  0  0  0  0  0  0  0  0
   -4.0355   75.3767    4.8398 C   0  0  0  0  0  0  0  0  0  0  0  0
   -4.6355   74.1767    4.3398 C   0  0  0  0  0  0  0  0  0  0  0  0
   -6.0355   74.2767    4.1398 N   0  0  0  0  0  0  0  0  0  0  0  0
   -2.5355   75.3767    4.8398 C   0  0  0  0  0  0  0  0  0  0  0  0
   -4.1355   73.0767    4.4398 O   0  0  0  0  0  0  0  0  0  0  0  0
  2  1  1  0
  3  2  1  0
  4  3  1  0
  5  2  1  0
  6  3  2  0
M  END
>  <ID>  (1) 
conformer_0

$$$$
