
     RDKit          3D

 10 10  0  0  0  0  0  0  0  0999 V2000
   -4.5046   75.8264    6.1295 N   0  0  0  0  0  0  0  0  0  0  0  0
   -4.4046   74.6264    5.3295 C   0  0  0  0  0  0  0  0  0  0  0  0
   -3.5046   76.8264    6.0295 C   0  0  0  0  0  0  0  0  0  0  0  0
   -3.0046   74.4264    5.0294 C   0  0  0  0  0  0  0  0  0  0  0  0
   -2.1046   76.3264    6.0295 C   0  0  0  0  0  0  0  0  0  0  0  0
   -2.0046   74.9264    5.8295 O   0  0  0  0  0  0  0  0  0  0  0  0
   -5.1046   74.7264    4.0295 C   0  0  0  0  0  0  0  0  0  0  0  0
   -6.2046   75.3264    3.7295 O   0  0  0  0  0  0  0  0  0  0  0  0
   -1.0046   77.1264    6.4295 C   0  0  0  0  0  0  0  0  0  0  0  0
   -1.2046   77.9264    7.6295 C   0  0  0  0  0  0  0  0  0  0  0  0
  2  1  1  0
  3  1  1  0
  4  2  1  0
  5  3  1  0
  6  4  1  0
  6  5  1  0
  7  2  1  0
  8  7  1  0
  9  5  1  0
 10  9  1  0
M  END
>  <ID>  (1) 
conformer_0

$$$$
