
     RDKit          3D

  7  6  0  0  0  0  0  0  0  0999 V2000
   -4.3634   76.0663    5.9556 N   0  0  0  0  0  0  0  0  0  0  0  0
   -4.0634   75.7663    4.7556 C   0  0  0  0  0  0  0  0  0  0  0  0
   -4.3634   74.4663    4.1556 C   0  0  0  0  0  0  0  0  0  0  0  0
   -5.7634   74.2663    3.8556 N   0  0  0  0  0  0  0  0  0  0  0  0
   -4.0634   76.7663    3.7556 O   0  0  0  0  0  0  0  0  0  0  0  0
   -4.0634   77.0663    6.9556 C   0  0  0  0  0  0  0  0  0  0  0  0
   -3.5634   78.2663    6.2556 C   0  0  0  0  0  0  0  0  0  0  0  0
  2  1  1  0
  3  2  1  0
  4  3  1  0
  5  2  2  0
  6  1  1  0
  7  6  1  0
M  END
>  <ID>  (1) 
conformer_0

$$$$
