
     RDKit          3D

 12 14  0  0  0  0  0  0  0  0999 V2000
   -3.1776   74.9443    5.3367 C   0  0  0  0  0  0  0  0  0  0  0  0
   -4.3776   75.4443    6.0367 N   0  0  0  0  0  0  0  0  0  0  0  0
   -4.2776   76.7443    6.7367 C   0  0  0  0  0  0  0  0  0  0  0  0
   -2.9776   77.3443    6.3367 C   0  0  0  0  0  0  0  0  0  0  0  0
   -2.2776   76.2443    5.6367 C   0  0  0  0  0  0  0  0  0  0  0  0
   -2.2776   77.8443    7.5367 C   0  0  0  0  0  0  0  0  0  0  0  0
   -4.1776   75.6442    4.6367 C   0  0  0  0  0  0  0  0  0  0  0  0
   -0.9776   75.9443    6.2367 C   0  0  0  0  0  0  0  0  0  0  0  0
   -0.8776   77.8443    7.7367 C   0  0  0  0  0  0  0  0  0  0  0  0
   -0.1776   76.7443    7.1367 C   0  0  0  0  0  0  0  0  0  0  0  0
   -5.0776   74.9443    3.7367 C   0  0  0  0  0  0  0  0  0  0  0  0
   -6.3776   75.2443    3.7367 O   0  0  0  0  0  0  0  0  0  0  0  0
  2  1  1  0
  3  2  1  0
  4  3  1  0
  5  1  1  0
  5  4  1  0
  6  4  1  0
  7  1  1  0
  7  2  1  0
  8  5  1  0
  9  6  1  0
 10  8  1  0
 10  9  1  0
 11  7  1  0
 12 11  1  0
M  END
>  <ID>  (1) 
conformer_0

$$$$
