
     RDKit          3D

 10 10  0  0  0  0  0  0  0  0999 V2000
   -4.1649   73.9891    4.2341 C   0  0  0  0  0  0  0  0  0  0  0  0
   -3.1649   74.8891    4.8341 C   0  0  0  0  0  0  0  0  0  0  0  0
   -3.7649   75.7891    5.8341 N   0  0  0  0  0  0  0  0  0  0  0  0
   -2.9649   76.8891    6.2341 C   0  0  0  0  0  0  0  0  0  0  0  0
   -3.2649   78.2891    5.8341 C   0  0  0  0  0  0  0  0  0  0  0  0
   -1.5649   76.5891    5.8341 C   0  0  0  0  0  0  0  0  0  0  0  0
   -5.4649   73.8891    4.5341 N   0  0  0  0  0  0  0  0  0  0  0  0
   -0.4649   77.1891    6.6341 C   0  0  0  0  0  0  0  0  0  0  0  0
   -1.1649   78.1891    7.4341 C   0  0  0  0  0  0  0  0  0  0  0  0
   -2.1649   78.9891    6.5341 C   0  0  0  0  0  0  0  0  0  0  0  0
  2  1  1  0
  3  2  1  0
  4  3  1  0
  5  4  1  0
  6  4  1  0
  7  1  1  0
  8  6  1  0
  9  8  1  0
 10  5  1  0
 10  9  1  0
M  END
>  <ID>  (1) 
conformer_0

$$$$
