
     RDKit          3D

 10  9  0  0  0  0  0  0  0  0999 V2000
   -4.5775   74.1215    4.9040 C   0  0  0  0  0  0  0  0  0  0  0  0
   -4.4775   75.3215    5.6040 N   0  0  0  0  0  0  0  0  0  0  0  0
   -5.7775   74.1215    4.0040 N   0  0  0  0  0  0  0  0  0  0  0  0
   -3.3775   76.0215    5.9040 C   0  0  0  0  0  0  0  0  0  0  0  0
   -3.2775   77.1215    6.9040 C   0  0  0  0  0  0  0  0  0  0  0  0
   -1.9775   77.4215    7.3040 C   0  0  0  0  0  0  0  0  0  0  0  0
   -0.9775   76.9215    6.3040 C   0  0  0  0  0  0  0  0  0  0  0  0
   -3.4775   73.7215    4.4040 O   0  0  0  0  0  0  0  0  0  0  0  0
    0.2225   77.7215    6.1040 C   0  0  0  0  0  0  0  0  0  0  0  0
    0.2225   78.8215    7.1040 C   0  0  0  0  0  0  0  0  0  0  0  0
  2  1  1  0
  3  1  1  0
  4  2  2  3
  5  4  1  0
  6  5  1  0
  7  6  1  0
  8  1  1  0
  9  7  1  0
 10  9  1  0
M  END
>  <ID>  (1) 
conformer_0

$$$$
