
     RDKit          3D

  8  8  0  0  0  0  0  0  0  0999 V2000
   -5.1045   74.8609    3.8193 C   0  0  0  0  0  0  0  0  0  0  0  0
   -4.6045   73.8609    4.7193 C   0  0  0  0  0  0  0  0  0  0  0  0
   -5.3045   76.2609    4.1193 N   0  0  0  0  0  0  0  0  0  0  0  0
   -4.3045   76.2609    5.2193 C   0  0  0  0  0  0  0  0  0  0  0  0
   -3.0045   75.5609    5.1193 C   0  0  0  0  0  0  0  0  0  0  0  0
   -3.2045   74.1609    5.1193 C   0  0  0  0  0  0  0  0  0  0  0  0
   -4.9045   75.9609    6.3193 N   0  0  0  0  0  0  0  0  0  0  0  0
   -5.3045   76.9609    7.3193 O   0  0  0  0  0  0  0  0  0  0  0  0
  2  1  1  0
  3  1  1  0
  4  3  1  0
  5  4  1  0
  6  2  1  0
  6  5  1  0
  7  4  1  0
  8  7  1  0
M  END
>  <ID>  (1) 
conformer_0

$$$$
