
     RDKit          3D

 10 12  0  0  0  0  0  0  0  0999 V2000
   -3.1998   75.4549    4.9633 C   0  0  0  0  0  0  0  0  0  0  0  0
   -4.3998   75.6549    5.6633 N   0  0  0  0  0  0  0  0  0  0  0  0
   -4.4998   76.9549    6.3633 C   0  0  0  0  0  0  0  0  0  0  0  0
   -3.2998   77.7550    5.9633 C   0  0  0  0  0  0  0  0  0  0  0  0
   -1.9998   77.1550    6.3633 C   0  0  0  0  0  0  0  0  0  0  0  0
   -1.9998   75.7550    5.7633 C   0  0  0  0  0  0  0  0  0  0  0  0
   -3.2998   74.0549    4.5633 C   0  0  0  0  0  0  0  0  0  0  0  0
   -4.6998   73.5549    4.4633 C   0  0  0  0  0  0  0  0  0  0  0  0
   -5.3998   73.5549    5.7633 N   0  0  0  0  0  0  0  0  0  0  0  0
   -5.3998   74.7549    5.1633 C   0  0  0  0  0  0  0  0  0  0  0  0
  2  1  1  0
  3  2  1  0
  4  3  1  0
  5  4  1  0
  6  1  1  0
  6  5  1  0
  7  1  1  0
  8  7  1  0
  9  8  1  0
 10  2  1  0
 10  8  1  0
 10  9  1  0
M  END
>  <ID>  (1) 
conformer_0

$$$$
