
     RDKit          3D

  9  9  0  0  0  0  0  0  0  0999 V2000
   -4.4676   75.4661    5.7462 N   0  0  0  0  0  0  0  0  0  0  0  0
   -4.1676   74.3661    4.9462 C   0  0  0  0  0  0  0  0  0  0  0  0
   -3.8676   76.5661    6.2462 C   0  0  0  0  0  0  0  0  0  0  0  0
   -4.5676   77.6661    6.8462 C   0  0  0  0  0  0  0  0  0  0  0  0
   -2.4676   76.8661    5.8462 C   0  0  0  0  0  0  0  0  0  0  0  0
   -5.2676   73.5661    4.7462 N   0  0  0  0  0  0  0  0  0  0  0  0
   -3.0676   73.8661    5.3462 O   0  0  0  0  0  0  0  0  0  0  0  0
   -3.5676   78.7661    7.0462 C   0  0  0  0  0  0  0  0  0  0  0  0
   -2.2676   78.3661    6.4462 C   0  0  0  0  0  0  0  0  0  0  0  0
  2  1  1  0
  3  1  1  0
  4  3  2  0
  5  3  1  0
  6  2  1  0
  7  2  1  0
  8  4  1  0
  9  5  1  0
  9  8  2  0
M  END
>  <ID>  (1) 
conformer_0

$$$$
