
     RDKit          3D

  9  9  0  0  0  0  0  0  0  0999 V2000
   -5.1045   74.8609    3.8193 C   0  0  0  0  0  0  0  0  0  0  0  0
   -6.3045   74.3609    3.8193 N   0  0  0  0  0  0  0  0  0  0  0  0
   -4.5045   75.4609    5.0193 C   0  0  0  0  0  0  0  0  0  0  0  0
   -3.0045   75.4609    5.0193 C   0  0  0  0  0  0  0  0  0  0  0  0
   -2.6045   76.3609    6.1193 C   0  0  0  0  0  0  0  0  0  0  0  0
   -3.7045   76.7609    7.0193 N   0  0  0  0  0  0  0  0  0  0  0  0
   -5.0045   76.8609    5.1193 N   0  0  0  0  0  0  0  0  0  0  0  0
   -4.7045   75.8609    2.9193 O   0  0  0  0  0  0  0  0  0  0  0  0
   -4.7045   77.4609    6.4193 C   0  0  0  0  0  0  0  0  0  0  0  0
  2  1  1  0
  3  1  1  0
  4  3  1  0
  5  4  1  0
  6  5  1  0
  7  3  1  0
  8  1  1  0
  9  6  1  0
  9  7  1  0
M  END
>  <ID>  (1) 
conformer_0

$$$$
