
     RDKit          3D

  9  9  0  0  0  0  0  0  0  0999 V2000
   -4.5046   75.8264    6.1295 N   0  0  0  0  0  0  0  0  0  0  0  0
   -4.5046   76.9264    7.0295 C   0  0  0  0  0  0  0  0  0  0  0  0
   -3.8046   75.9264    4.9295 C   0  0  0  0  0  0  0  0  0  0  0  0
   -3.5046   77.8264    6.5295 C   0  0  0  0  0  0  0  0  0  0  0  0
   -2.2046   77.1264    6.3295 C   0  0  0  0  0  0  0  0  0  0  0  0
   -2.3046   76.0264    5.4295 C   0  0  0  0  0  0  0  0  0  0  0  0
   -3.8046   74.6264    4.2295 C   0  0  0  0  0  0  0  0  0  0  0  0
   -1.3046   77.0264    7.4295 C   0  0  0  0  0  0  0  0  0  0  0  0
   -4.3046   77.1264    4.2295 C   0  0  0  0  0  0  0  0  0  0  0  0
  2  1  1  0
  3  1  1  0
  4  2  1  0
  5  4  1  0
  6  3  1  0
  6  5  1  0
  7  3  1  0
  8  5  1  0
  9  3  1  0
M  END
>  <ID>  (1) 
conformer_0

$$$$
