
     RDKit          3D

 11 11  0  0  0  0  0  0  0  0999 V2000
   -4.4676   75.4661    5.7462 N   0  0  0  0  0  0  0  0  0  0  0  0
   -4.2676   74.2661    5.0462 C   0  0  0  0  0  0  0  0  0  0  0  0
   -3.1676   76.0661    5.9462 C   0  0  0  0  0  0  0  0  0  0  0  0
   -2.0676   75.0661    5.8462 C   0  0  0  0  0  0  0  0  0  0  0  0
   -2.8676   73.7661    5.1462 C   0  0  0  0  0  0  0  0  0  0  0  0
   -2.9676   77.0661    7.0462 C   0  0  0  0  0  0  0  0  0  0  0  0
   -2.9676   78.4661    6.5462 C   0  0  0  0  0  0  0  0  0  0  0  0
   -5.0676   73.9661    3.9462 C   0  0  0  0  0  0  0  0  0  0  0  0
   -1.6676   79.0661    6.2462 C   0  0  0  0  0  0  0  0  0  0  0  0
   -6.3676   74.4661    3.8462 N   0  0  0  0  0  0  0  0  0  0  0  0
   -5.5676   75.3661    3.6462 N   0  0  0  0  0  0  0  0  0  0  0  0
  2  1  1  0
  3  1  1  0
  4  3  1  0
  5  2  1  0
  5  4  1  0
  6  3  1  0
  7  6  1  0
  8  2  1  0
  9  7  1  0
 10  8  1  0
 11  8  1  0
M  END
>  <ID>  (1) 
conformer_0

$$$$
