
     RDKit          3D

  9  9  0  0  0  0  0  0  0  0999 V2000
   -4.5775   74.1215    4.9040 C   0  0  0  0  0  0  0  0  0  0  0  0
   -4.3775   75.3215    5.6040 N   0  0  0  0  0  0  0  0  0  0  0  0
   -5.7775   74.1215    4.0040 N   0  0  0  0  0  0  0  0  0  0  0  0
   -3.0775   75.8215    5.8040 C   0  0  0  0  0  0  0  0  0  0  0  0
   -3.0775   77.2215    6.3040 C   0  0  0  0  0  0  0  0  0  0  0  0
   -2.1775   77.5215    7.4040 C   0  0  0  0  0  0  0  0  0  0  0  0
   -1.1775   76.4215    7.3040 C   0  0  0  0  0  0  0  0  0  0  0  0
   -1.6775   75.4215    6.1040 C   0  0  0  0  0  0  0  0  0  0  0  0
   -3.5775   73.4215    4.5040 O   0  0  0  0  0  0  0  0  0  0  0  0
  2  1  1  0
  3  1  1  0
  4  2  1  0
  5  4  1  0
  6  5  1  0
  7  6  1  0
  8  4  1  0
  8  7  1  0
  9  1  2  0
M  END
>  <ID>  (1) 
conformer_0

$$$$
