
     RDKit          3D

  9 10  0  0  0  0  0  0  0  0999 V2000
   -3.1776   74.9443    5.3367 C   0  0  0  0  0  0  0  0  0  0  0  0
   -4.2776   75.6442    5.8367 N   0  0  0  0  0  0  0  0  0  0  0  0
   -4.1776   76.7442    6.7367 C   0  0  0  0  0  0  0  0  0  0  0  0
   -1.9776   75.7443    5.7367 C   0  0  0  0  0  0  0  0  0  0  0  0
   -3.1776   77.7442    6.2367 C   0  0  0  0  0  0  0  0  0  0  0  0
   -1.8776   77.0443    6.0367 C   0  0  0  0  0  0  0  0  0  0  0  0
   -3.8776   76.0443    4.6367 C   0  0  0  0  0  0  0  0  0  0  0  0
   -3.0776   78.9442    6.9367 O   0  0  0  0  0  0  0  0  0  0  0  0
   -4.0776   77.0443    3.9367 O   0  0  0  0  0  0  0  0  0  0  0  0
  2  1  1  0
  3  2  1  0
  4  1  1  0
  5  3  1  0
  6  4  1  0
  6  5  1  0
  7  1  1  0
  7  2  1  0
  8  5  1  0
  9  7  2  0
M  END
>  <ID>  (1) 
conformer_0

$$$$
