
     RDKit          3D

 11 11  0  0  0  0  0  0  0  0999 V2000
   -4.5775   74.1215    4.9040 C   0  0  0  0  0  0  0  0  0  0  0  0
   -4.6775   75.2215    5.9040 N   0  0  0  0  0  0  0  0  0  0  0  0
   -4.8775   74.7215    3.6040 C   0  0  0  0  0  0  0  0  0  0  0  0
   -4.2775   76.4215    5.3040 C   0  0  0  0  0  0  0  0  0  0  0  0
   -5.6775   75.9215    3.7040 N   0  0  0  0  0  0  0  0  0  0  0  0
   -2.9775   76.9215    5.7040 C   0  0  0  0  0  0  0  0  0  0  0  0
   -2.8775   77.6215    7.0040 C   0  0  0  0  0  0  0  0  0  0  0  0
   -1.4775   77.9215    7.4040 C   0  0  0  0  0  0  0  0  0  0  0  0
   -5.2775   76.9215    4.6040 N   0  0  0  0  0  0  0  0  0  0  0  0
   -0.5775   77.5215    6.3040 C   0  0  0  0  0  0  0  0  0  0  0  0
   -0.5775   76.1215    5.8040 C   0  0  0  0  0  0  0  0  0  0  0  0
  2  1  1  0
  3  1  1  0
  4  2  2  0
  5  3  1  0
  6  4  1  0
  7  6  1  0
  8  7  1  0
  9  4  1  0
  9  5  1  0
 10  8  1  0
 11 10  1  0
M  END
>  <ID>  (1) 
conformer_0

$$$$
