
     RDKit          3D

 10 11  0  0  0  0  0  0  0  0999 V2000
   -3.1776   74.9443    5.3367 C   0  0  0  0  0  0  0  0  0  0  0  0
   -4.3776   75.4443    6.0367 N   0  0  0  0  0  0  0  0  0  0  0  0
   -4.2776   76.7443    6.7367 C   0  0  0  0  0  0  0  0  0  0  0  0
   -2.8776   77.1443    6.5367 C   0  0  0  0  0  0  0  0  0  0  0  0
   -2.0776   76.0443    5.9367 C   0  0  0  0  0  0  0  0  0  0  0  0
   -3.9776   75.8443    4.6367 C   0  0  0  0  0  0  0  0  0  0  0  0
   -2.3776   78.1443    7.4367 C   0  0  0  0  0  0  0  0  0  0  0  0
   -4.9776   75.2443    3.7367 C   0  0  0  0  0  0  0  0  0  0  0  0
   -5.4776   73.9443    3.8367 O   0  0  0  0  0  0  0  0  0  0  0  0
   -0.9776   75.3443    6.6367 C   0  0  0  0  0  0  0  0  0  0  0  0
  2  1  1  0
  3  2  1  0
  4  3  1  0
  5  1  1  0
  5  4  1  0
  6  1  1  0
  6  2  1  0
  7  4  1  0
  8  6  1  0
  9  8  1  0
 10  5  1  0
M  END
>  <ID>  (1) 
conformer_0

$$$$
