
     RDKit          3D

 11 12  0  0  0  0  0  0  0  0999 V2000
   -4.5046   75.8264    6.1295 N   0  0  0  0  0  0  0  0  0  0  0  0
   -4.5046   76.9264    7.0295 C   0  0  0  0  0  0  0  0  0  0  0  0
   -3.3046   75.3264    5.5295 C   0  0  0  0  0  0  0  0  0  0  0  0
   -2.2046   76.0264    6.0295 C   0  0  0  0  0  0  0  0  0  0  0  0
   -3.4046   77.8264    7.3295 C   0  0  0  0  0  0  0  0  0  0  0  0
   -2.3046   77.4264    6.3295 C   0  0  0  0  0  0  0  0  0  0  0  0
   -3.2046   73.9264    5.1295 C   0  0  0  0  0  0  0  0  0  0  0  0
   -1.0046   78.1264    6.5295 C   0  0  0  0  0  0  0  0  0  0  0  0
   -1.0046   75.3264    6.5295 C   0  0  0  0  0  0  0  0  0  0  0  0
    0.2954   77.4264    6.3295 C   0  0  0  0  0  0  0  0  0  0  0  0
    0.3954   76.0264    6.2295 C   0  0  0  0  0  0  0  0  0  0  0  0
  2  1  2  0
  3  1  1  0
  4  3  1  0
  5  2  1  0
  6  4  1  0
  6  5  1  0
  7  3  1  0
  8  6  1  0
  9  4  1  0
 10  8  2  0
 11  9  1  0
 11 10  1  0
M  END
>  <ID>  (1) 
conformer_0

$$$$
