
     RDKit          3D

 10 11  0  0  0  0  0  0  0  0999 V2000
   -4.5046   75.8264    6.1295 N   0  0  0  0  0  0  0  0  0  0  0  0
   -4.4046   74.6264    5.3295 C   0  0  0  0  0  0  0  0  0  0  0  0
   -3.5046   76.8264    5.9295 C   0  0  0  0  0  0  0  0  0  0  0  0
   -3.1046   74.5264    4.7295 C   0  0  0  0  0  0  0  0  0  0  0  0
   -2.2046   76.4264    6.0295 C   0  0  0  0  0  0  0  0  0  0  0  0
   -2.1046   75.0264    5.5295 O   0  0  0  0  0  0  0  0  0  0  0  0
   -3.9046   78.2264    6.2295 C   0  0  0  0  0  0  0  0  0  0  0  0
   -3.3046   78.6264    7.4295 O   0  0  0  0  0  0  0  0  0  0  0  0
   -3.9046   75.2264    3.9295 C   0  0  0  0  0  0  0  0  0  0  0  0
   -4.8046   75.1264    3.0295 O   0  0  0  0  0  0  0  0  0  0  0  0
  2  1  1  0
  3  1  1  0
  4  2  1  0
  5  3  1  0
  6  4  1  0
  6  5  1  0
  7  3  1  0
  8  7  1  0
  9  2  1  0
  9  4  1  0
 10  9  1  0
M  END
>  <ID>  (1) 
conformer_0

$$$$
