
     RDKit          3D

 10  9  0  0  0  0  0  0  0  0999 V2000
   -4.3275   75.0397    5.7099 N   0  0  0  0  0  0  0  0  0  0  0  0
   -4.6275   74.0397    4.7099 C   0  0  0  0  0  0  0  0  0  0  0  0
   -5.8275   74.1397    4.0099 N   0  0  0  0  0  0  0  0  0  0  0  0
   -3.2275   75.9397    5.4099 C   0  0  0  0  0  0  0  0  0  0  0  0
   -3.2275   77.0397    6.4099 C   0  0  0  0  0  0  0  0  0  0  0  0
   -4.6275   77.2397    6.9099 C   0  0  0  0  0  0  0  0  0  0  0  0
   -5.5275   77.4397    5.8099 O   0  0  0  0  0  0  0  0  0  0  0  0
   -3.7275   73.4397    4.3099 O   0  0  0  0  0  0  0  0  0  0  0  0
   -2.8275   78.2397    5.6099 O   0  0  0  0  0  0  0  0  0  0  0  0
   -4.7275   78.0397    8.1099 C   0  0  0  0  0  0  0  0  0  0  0  0
  2  1  1  0
  3  2  1  0
  4  1  1  0
  5  4  1  0
  6  5  1  0
  7  6  1  0
  8  2  2  0
  9  5  1  0
 10  6  1  0
M  END
>  <ID>  (1) 
conformer_0

$$$$
