
     RDKit          3D

 11 12  0  0  0  0  0  0  0  0999 V2000
   -4.5775   74.1215    4.9040 C   0  0  0  0  0  0  0  0  0  0  0  0
   -4.6775   75.2215    5.9040 N   0  0  0  0  0  0  0  0  0  0  0  0
   -4.8775   74.7215    3.6040 C   0  0  0  0  0  0  0  0  0  0  0  0
   -3.9775   76.4215    5.4040 C   0  0  0  0  0  0  0  0  0  0  0  0
   -5.4775   76.0215    3.7040 N   0  0  0  0  0  0  0  0  0  0  0  0
   -4.6775   76.8215    4.3040 C   0  0  0  0  0  0  0  0  0  0  0  0
   -3.3775   77.1215    6.4040 C   0  0  0  0  0  0  0  0  0  0  0  0
   -2.9775   78.5215    6.5040 C   0  0  0  0  0  0  0  0  0  0  0  0
   -1.5775   78.6215    6.9040 C   0  0  0  0  0  0  0  0  0  0  0  0
   -1.1775   77.3215    7.5040 C   0  0  0  0  0  0  0  0  0  0  0  0
   -2.1775   76.3215    7.0040 N   0  0  0  0  0  0  0  0  0  0  0  0
  2  1  1  0
  3  1  1  0
  4  2  1  0
  5  3  1  0
  6  4  1  0
  6  5  1  0
  7  4  1  0
  8  7  1  0
  9  8  1  0
 10  9  1  0
 11  7  1  0
 11 10  1  0
M  END
>  <ID>  (1) 
conformer_0

$$$$
