
     RDKit          3D

  9  9  0  0  0  0  0  0  0  0999 V2000
   -4.6355   75.6767    6.1398 N   0  0  0  0  0  0  0  0  0  0  0  0
   -4.0355   75.3767    4.8398 C   0  0  0  0  0  0  0  0  0  0  0  0
   -4.6355   74.1767    4.3398 C   0  0  0  0  0  0  0  0  0  0  0  0
   -5.9355   74.2767    3.6398 N   0  0  0  0  0  0  0  0  0  0  0  0
   -2.6355   75.4767    4.8398 C   0  0  0  0  0  0  0  0  0  0  0  0
   -2.2355   76.4767    5.8398 C   0  0  0  0  0  0  0  0  0  0  0  0
   -4.5355   76.9767    6.7398 C   0  0  0  0  0  0  0  0  0  0  0  0
   -3.1355   77.5767    6.2398 C   0  0  0  0  0  0  0  0  0  0  0  0
   -2.6355   78.1767    7.4398 O   0  0  0  0  0  0  0  0  0  0  0  0
  2  1  1  0
  3  2  1  0
  4  3  1  0
  5  2  1  0
  6  5  1  0
  7  1  1  0
  8  6  1  0
  8  7  1  0
  9  8  1  0
M  END
>  <ID>  (1) 
conformer_0

$$$$
