
     RDKit          3D

 11 12  0  0  0  0  0  0  0  0999 V2000
   -4.7147   75.0634    4.3031 C   0  0  0  0  0  0  0  0  0  0  0  0
   -4.4147   75.4634    5.7031 N   0  0  0  0  0  0  0  0  0  0  0  0
   -5.6147   73.9634    4.4031 N   0  0  0  0  0  0  0  0  0  0  0  0
   -5.4147   76.1634    3.8031 N   0  0  0  0  0  0  0  0  0  0  0  0
   -3.8147   76.7634    5.9031 C   0  0  0  0  0  0  0  0  0  0  0  0
   -4.3147   77.2634    7.2031 C   0  0  0  0  0  0  0  0  0  0  0  0
   -4.2147   75.7634    3.6031 C   0  0  0  0  0  0  0  0  0  0  0  0
   -2.3147   76.7634    5.9031 C   0  0  0  0  0  0  0  0  0  0  0  0
   -1.7147   77.0634    7.2031 C   0  0  0  0  0  0  0  0  0  0  0  0
   -3.5147   78.4634    7.5031 C   0  0  0  0  0  0  0  0  0  0  0  0
   -2.0147   78.4634    7.4031 C   0  0  0  0  0  0  0  0  0  0  0  0
  2  1  1  0
  3  1  1  0
  4  1  1  0
  5  2  1  0
  6  5  1  0
  7  1  1  0
  7  4  1  0
  8  5  1  0
  9  8  1  0
 10  6  1  0
 11  9  1  0
 11 10  1  0
M  END
>  <ID>  (1) 
conformer_0

$$$$
