
     RDKit          3D

 11 10  0  0  0  0  0  0  0  0999 V2000
   -4.5775   74.1215    4.9040 C   0  0  0  0  0  0  0  0  0  0  0  0
   -4.4775   75.3215    5.6040 N   0  0  0  0  0  0  0  0  0  0  0  0
   -5.7775   74.1215    4.0040 N   0  0  0  0  0  0  0  0  0  0  0  0
   -3.3775   76.0215    5.9040 C   0  0  0  0  0  0  0  0  0  0  0  0
   -3.2775   77.1215    6.9040 C   0  0  0  0  0  0  0  0  0  0  0  0
   -1.9775   77.4215    7.3040 C   0  0  0  0  0  0  0  0  0  0  0  0
   -0.9775   76.5215    6.7040 C   0  0  0  0  0  0  0  0  0  0  0  0
   -3.3775   73.8215    4.1040 C   0  0  0  0  0  0  0  0  0  0  0  0
    0.3225   77.1215    6.4040 C   0  0  0  0  0  0  0  0  0  0  0  0
    1.5225   76.4215    6.9040 C   0  0  0  0  0  0  0  0  0  0  0  0
   -2.7775   76.3215    4.6040 O   0  0  0  0  0  0  0  0  0  0  0  0
  2  1  1  0
  3  1  1  0
  4  2  1  0
  5  4  1  0
  6  5  1  0
  7  6  1  0
  8  1  1  0
  9  7  1  0
 10  9  1  0
 11  4  2  0
M  END
>  <ID>  (1) 
conformer_0

$$$$
