
     RDKit          3D

 11 11  0  0  0  0  0  0  0  0999 V2000
   -6.2525   74.4731    3.6044 N   0  0  0  0  0  0  0  0  0  0  0  0
   -5.0525   74.4731    3.9044 C   0  0  0  0  0  0  0  0  0  0  0  0
   -4.2525   75.4731    4.6044 C   0  0  0  0  0  0  0  0  0  0  0  0
   -2.9525   75.3731    5.1044 C   0  0  0  0  0  0  0  0  0  0  0  0
   -5.1525   76.5731    4.8044 N   0  0  0  0  0  0  0  0  0  0  0  0
   -2.3525   76.4731    5.9044 C   0  0  0  0  0  0  0  0  0  0  0  0
   -3.3525   77.4731    6.4044 C   0  0  0  0  0  0  0  0  0  0  0  0
   -4.5525   77.5731    5.7044 C   0  0  0  0  0  0  0  0  0  0  0  0
   -2.9525   78.6731    6.9044 O   0  0  0  0  0  0  0  0  0  0  0  0
   -1.0525   76.8731    6.1044 O   0  0  0  0  0  0  0  0  0  0  0  0
   -4.3525   73.2731    4.1044 O   0  0  0  0  0  0  0  0  0  0  0  0
  2  1  1  0
  3  2  1  0
  4  3  2  0
  5  3  1  0
  6  4  1  0
  7  6  2  0
  8  5  2  0
  8  7  1  0
  9  7  1  0
 10  6  1  0
 11  2  2  0
M  END
>  <ID>  (1) 
conformer_0

$$$$
