
     RDKit          3D

 11 11  0  0  0  0  0  0  0  0999 V2000
   -5.1249   74.4017    4.1922 C   0  0  0  0  0  0  0  0  0  0  0  0
   -6.3249   74.4017    3.6922 N   0  0  0  0  0  0  0  0  0  0  0  0
   -4.9249   73.6017    5.3922 N   0  0  0  0  0  0  0  0  0  0  0  0
   -4.3249   75.6017    4.2922 C   0  0  0  0  0  0  0  0  0  0  0  0
   -3.2249   75.5017    5.1922 C   0  0  0  0  0  0  0  0  0  0  0  0
   -5.3249   76.7017    4.4922 N   0  0  0  0  0  0  0  0  0  0  0  0
   -2.8249   76.7017    5.8922 C   0  0  0  0  0  0  0  0  0  0  0  0
   -3.7249   77.9017    5.8922 C   0  0  0  0  0  0  0  0  0  0  0  0
   -5.1249   77.4017    5.7922 C   0  0  0  0  0  0  0  0  0  0  0  0
   -3.5249   78.8017    6.8922 O   0  0  0  0  0  0  0  0  0  0  0  0
   -1.4249   77.1017    5.9922 O   0  0  0  0  0  0  0  0  0  0  0  0
  2  1  2  0
  3  1  1  0
  4  1  1  0
  5  4  1  0
  6  4  1  0
  7  5  1  0
  8  7  1  0
  9  6  1  0
  9  8  1  0
 10  8  1  0
 11  7  1  0
M  END
>  <ID>  (1) 
conformer_0

$$$$
