
     RDKit          3D

 10  9  0  0  0  0  0  0  0  0999 V2000
   -5.9285   74.3331    3.9143 N   0  0  0  0  0  0  0  0  0  0  0  0
   -4.7285   74.2331    4.5143 C   0  0  0  0  0  0  0  0  0  0  0  0
   -4.0285   75.5331    4.7143 C   0  0  0  0  0  0  0  0  0  0  0  0
   -4.8285   73.5331    5.8143 N   0  0  0  0  0  0  0  0  0  0  0  0
   -2.9285   75.4331    5.6143 C   0  0  0  0  0  0  0  0  0  0  0  0
   -2.5285   76.6331    6.4143 C   0  0  0  0  0  0  0  0  0  0  0  0
   -1.2285   76.4331    7.1143 C   0  0  0  0  0  0  0  0  0  0  0  0
   -0.8285   77.5331    7.9143 C   0  0  0  0  0  0  0  0  0  0  0  0
    0.3715   77.7331    8.5143 C   0  0  0  0  0  0  0  0  0  0  0  0
    1.0715   78.9331    8.9143 C   0  0  0  0  0  0  0  0  0  0  0  0
  2  1  1  0
  3  2  1  0
  4  2  1  0
  5  3  1  0
  6  5  1  0
  7  6  1  0
  8  7  1  0
  9  8  1  0
 10  9  1  0
M  END
>  <ID>  (1) 
conformer_0

$$$$
