
     RDKit          3D

 12 13  0  0  0  0  0  0  0  0999 V2000
   -4.5553   73.8398    4.2752 C   0  0  0  0  0  0  0  0  0  0  0  0
   -5.8553   74.2398    3.8752 N   0  0  0  0  0  0  0  0  0  0  0  0
   -3.7553   75.0398    4.6752 C   0  0  0  0  0  0  0  0  0  0  0  0
   -4.5553   76.2398    4.3752 C   0  0  0  0  0  0  0  0  0  0  0  0
   -5.2553   76.4398    3.2752 N   0  0  0  0  0  0  0  0  0  0  0  0
   -2.7553   74.9398    5.5752 C   0  0  0  0  0  0  0  0  0  0  0  0
   -3.8553   77.3398    5.0752 C   0  0  0  0  0  0  0  0  0  0  0  0
   -3.0553   77.2398    6.1752 C   0  0  0  0  0  0  0  0  0  0  0  0
   -1.9553   76.1398    5.9752 C   0  0  0  0  0  0  0  0  0  0  0  0
   -5.5553   73.8398    5.0752 N   0  0  0  0  0  0  0  0  0  0  0  0
   -4.2553   76.8398    6.4752 N   0  0  0  0  0  0  0  0  0  0  0  0
   -5.1553   77.2398    7.3752 C   0  0  0  0  0  0  0  0  0  0  0  0
  2  1  1  0
  3  1  1  0
  4  3  1  0
  5  4  2  0
  6  3  1  0
  7  4  1  0
  8  7  1  0
  9  6  1  0
  9  8  1  0
 10  1  1  0
 11  7  1  0
 11  8  1  0
 12 11  1  0
M  END
>  <ID>  (1) 
conformer_0

$$$$
