
     RDKit          3D

  7  8  0  0  0  0  0  0  0  0999 V2000
   -4.5775   74.1215    4.9040 C   0  0  0  0  0  0  0  0  0  0  0  0
   -4.6775   75.2215    5.9040 N   0  0  0  0  0  0  0  0  0  0  0  0
   -4.8775   74.7215    3.6040 C   0  0  0  0  0  0  0  0  0  0  0  0
   -4.2775   76.4215    5.3040 C   0  0  0  0  0  0  0  0  0  0  0  0
   -5.6775   75.9215    3.7040 N   0  0  0  0  0  0  0  0  0  0  0  0
   -4.8775   76.7215    4.1040 C   0  0  0  0  0  0  0  0  0  0  0  0
   -3.3775   76.3215    4.4040 N   0  0  0  0  0  0  0  0  0  0  0  0
  2  1  1  0
  3  1  1  0
  4  2  1  0
  5  3  1  0
  6  4  1  0
  6  5  1  0
  7  4  1  0
  7  6  1  0
M  END
>  <ID>  (1) 
conformer_0

$$$$
