
     RDKit          3D

  8  8  0  0  0  0  0  0  0  0999 V2000
   -4.5775   74.1215    4.9040 C   0  0  0  0  0  0  0  0  0  0  0  0
   -4.6775   75.2215    5.9040 N   0  0  0  0  0  0  0  0  0  0  0  0
   -4.8775   74.7215    3.6040 C   0  0  0  0  0  0  0  0  0  0  0  0
   -3.9775   76.4215    5.4040 C   0  0  0  0  0  0  0  0  0  0  0  0
   -5.4775   76.0215    3.7040 N   0  0  0  0  0  0  0  0  0  0  0  0
   -4.6775   76.8215    4.3040 C   0  0  0  0  0  0  0  0  0  0  0  0
   -3.3775   77.1215    6.4040 C   0  0  0  0  0  0  0  0  0  0  0  0
   -3.6775   77.2215    7.7040 O   0  0  0  0  0  0  0  0  0  0  0  0
  2  1  1  0
  3  1  1  0
  4  2  1  0
  5  3  1  0
  6  4  1  0
  6  5  1  0
  7  4  1  0
  8  7  1  0
M  END
>  <ID>  (1) 
conformer_0

$$$$
