
     RDKit          3D

  8  7  0  0  0  0  0  0  0  0999 V2000
   -4.5546   74.1671    4.8506 C   0  0  0  0  0  0  0  0  0  0  0  0
   -4.4546   75.3671    5.6506 N   0  0  0  0  0  0  0  0  0  0  0  0
   -5.7546   74.1671    4.0506 N   0  0  0  0  0  0  0  0  0  0  0  0
   -3.1546   76.0671    5.5506 C   0  0  0  0  0  0  0  0  0  0  0  0
   -3.3546   74.1671    3.9506 C   0  0  0  0  0  0  0  0  0  0  0  0
   -3.0546   77.2671    6.3506 C   0  0  0  0  0  0  0  0  0  0  0  0
   -2.2546   77.4671    7.5506 C   0  0  0  0  0  0  0  0  0  0  0  0
   -3.9546   78.2671    5.9506 O   0  0  0  0  0  0  0  0  0  0  0  0
  2  1  1  0
  3  1  1  0
  4  2  1  0
  5  1  1  0
  6  4  1  0
  7  6  1  0
  8  6  1  0
M  END
>  <ID>  (1) 
conformer_0

$$$$
