
     RDKit          3D

 10 11  0  0  0  0  0  0  0  0999 V2000
   -3.1776   74.9443    5.3367 C   0  0  0  0  0  0  0  0  0  0  0  0
   -4.2776   75.6442    5.8367 N   0  0  0  0  0  0  0  0  0  0  0  0
   -4.1776   76.7442    6.7367 C   0  0  0  0  0  0  0  0  0  0  0  0
   -1.9776   75.7443    5.7367 C   0  0  0  0  0  0  0  0  0  0  0  0
   -3.1776   77.7442    6.2367 C   0  0  0  0  0  0  0  0  0  0  0  0
   -1.8776   77.0443    6.1367 C   0  0  0  0  0  0  0  0  0  0  0  0
   -3.8776   75.9443    4.5367 C   0  0  0  0  0  0  0  0  0  0  0  0
   -4.9776   75.6442    3.6367 C   0  0  0  0  0  0  0  0  0  0  0  0
   -6.0776   76.5443    3.7367 O   0  0  0  0  0  0  0  0  0  0  0  0
   -3.0776   79.0443    6.8367 O   0  0  0  0  0  0  0  0  0  0  0  0
  2  1  1  0
  3  2  1  0
  4  1  1  0
  5  3  1  0
  6  4  1  0
  6  5  1  0
  7  1  1  0
  7  2  1  0
  8  7  1  0
  9  8  1  0
 10  5  1  0
M  END
>  <ID>  (1) 
conformer_0

$$$$
