
     RDKit          3D

  8  7  0  0  0  0  0  0  0  0999 V2000
   -4.5725   75.8638    4.2678 C   0  0  0  0  0  0  0  0  0  0  0  0
   -4.3725   75.5638    5.6678 N   0  0  0  0  0  0  0  0  0  0  0  0
   -4.0725   76.6638    6.4678 C   0  0  0  0  0  0  0  0  0  0  0  0
   -4.1725   77.9638    5.7678 C   0  0  0  0  0  0  0  0  0  0  0  0
   -5.6725   76.7638    4.0678 N   0  0  0  0  0  0  0  0  0  0  0  0
   -2.9725   78.7638    5.8678 C   0  0  0  0  0  0  0  0  0  0  0  0
   -4.4725   75.0638    3.3678 O   0  0  0  0  0  0  0  0  0  0  0  0
   -5.4725   78.2638    5.8678 O   0  0  0  0  0  0  0  0  0  0  0  0
  2  1  1  0
  3  2  1  0
  4  3  1  0
  5  1  1  0
  6  4  1  0
  7  1  2  0
  8  4  1  0
M  END
>  <ID>  (1) 
conformer_0

$$$$
