
     RDKit          3D

  6  5  0  0  0  0  0  0  0  0999 V2000
   -4.6950   73.8668    4.6157 C   0  0  0  0  0  0  0  0  0  0  0  0
   -4.3950   75.0668    5.3157 N   0  0  0  0  0  0  0  0  0  0  0  0
   -5.7950   74.0668    3.9157 N   0  0  0  0  0  0  0  0  0  0  0  0
   -4.3950   76.0668    4.2157 C   0  0  0  0  0  0  0  0  0  0  0  0
   -5.6950   76.4668    4.0157 N   0  0  0  0  0  0  0  0  0  0  0  0
   -4.7950   75.8668    3.0157 O   0  0  0  0  0  0  0  0  0  0  0  0
  2  1  1  0
  3  1  1  0
  4  2  1  0
  5  4  1  0
  6  4  1  0
M  END
>  <ID>  (1) 
conformer_0

$$$$
