
     RDKit          3D

  9  9  0  0  0  0  0  0  0  0999 V2000
   -5.1045   74.8609    3.8193 C   0  0  0  0  0  0  0  0  0  0  0  0
   -6.3045   74.3609    3.8193 N   0  0  0  0  0  0  0  0  0  0  0  0
   -4.5045   75.4609    5.0193 C   0  0  0  0  0  0  0  0  0  0  0  0
   -3.0045   75.4609    5.0193 C   0  0  0  0  0  0  0  0  0  0  0  0
   -2.6045   76.3609    6.1193 C   0  0  0  0  0  0  0  0  0  0  0  0
   -5.0045   76.7609    5.3193 N   0  0  0  0  0  0  0  0  0  0  0  0
   -2.8045   77.7609    5.9193 C   0  0  0  0  0  0  0  0  0  0  0  0
   -4.3045   77.8609    5.6193 C   0  0  0  0  0  0  0  0  0  0  0  0
   -4.8045   75.6609    2.7193 O   0  0  0  0  0  0  0  0  0  0  0  0
  2  1  1  0
  3  1  1  0
  4  3  1  0
  5  4  1  0
  6  3  1  0
  7  5  1  0
  8  6  2  0
  8  7  1  0
  9  1  2  0
M  END
>  <ID>  (1) 
conformer_0

$$$$
