
     RDKit          3D

 10 10  0  0  0  0  0  0  0  0999 V2000
   -3.8150   75.7666    4.3460 C   0  0  0  0  0  0  0  0  0  0  0  0
   -4.4150   75.3666    5.6460 N   0  0  0  0  0  0  0  0  0  0  0  0
   -4.7150   73.9666    5.2460 C   0  0  0  0  0  0  0  0  0  0  0  0
   -5.6150   73.9666    4.1460 N   0  0  0  0  0  0  0  0  0  0  0  0
   -3.4150   73.3666    4.9460 C   0  0  0  0  0  0  0  0  0  0  0  0
   -3.1150   75.8666    5.5460 C   0  0  0  0  0  0  0  0  0  0  0  0
   -2.8150   77.0666    6.2460 C   0  0  0  0  0  0  0  0  0  0  0  0
   -3.3150   77.4666    7.5460 C   0  0  0  0  0  0  0  0  0  0  0  0
   -1.7150   77.9666    5.9460 O   0  0  0  0  0  0  0  0  0  0  0  0
   -6.0150   75.1666    3.4460 O   0  0  0  0  0  0  0  0  0  0  0  0
  2  1  1  0
  3  2  1  0
  4  3  1  0
  5  3  1  0
  6  1  1  0
  6  2  1  0
  7  6  1  0
  8  7  1  0
  9  7  1  0
 10  4  1  0
M  END
>  <ID>  (1) 
conformer_0

$$$$
