
     RDKit          3D

  8  9  0  0  0  0  0  0  0  0999 V2000
   -5.1045   74.8609    3.8193 C   0  0  0  0  0  0  0  0  0  0  0  0
   -4.6045   73.8609    4.7193 C   0  0  0  0  0  0  0  0  0  0  0  0
   -5.3045   76.2609    4.1193 N   0  0  0  0  0  0  0  0  0  0  0  0
   -4.3045   76.2609    5.2193 C   0  0  0  0  0  0  0  0  0  0  0  0
   -2.9045   75.7609    5.1193 C   0  0  0  0  0  0  0  0  0  0  0  0
   -4.9045   75.6609    6.2193 N   0  0  0  0  0  0  0  0  0  0  0  0
   -3.2045   74.2609    5.0193 C   0  0  0  0  0  0  0  0  0  0  0  0
   -5.4045   74.3609    5.9193 N   0  0  0  0  0  0  0  0  0  0  0  0
  2  1  1  0
  3  1  1  0
  4  3  1  0
  5  4  1  0
  6  4  1  0
  7  2  1  0
  7  5  1  0
  8  2  1  0
  8  6  1  0
M  END
>  <ID>  (1) 
conformer_0

$$$$
