
     RDKit          3D

 19 19  0  0  0  0  0  0  0  0999 V2000
   18.5258   53.6969   21.7791 C   0  0  0  0  0  0  0  0  0  0  0  0
   18.6081   55.1083   22.5869 C   0  0  0  0  0  0  0  0  0  0  0  0
   22.5350   49.8302   20.0603 C   0  0  1  0  0  0  0  0  0  0  0  0
   21.6499   48.9622   18.6875 C   0  0  0  0  0  0  0  0  0  0  0  0
   21.1054   49.9236   20.2968 C   0  0  2  0  0  0  0  0  0  0  0  0
   19.8530   53.4915   21.9762 C   0  0  0  0  0  0  0  0  0  0  0  0
   19.7673   50.2055   19.8979 C   0  0  0  0  0  0  0  0  0  0  0  0
   19.2159   52.0943   20.7666 C   0  0  0  0  0  0  0  0  0  0  0  0
   15.5926   56.7273   26.4467 O   0  0  0  0  0  0  0  0  0  0  0  0
   23.6834   48.8493   19.1531 C   0  0  0  0  0  0  0  0  0  0  0  0
   16.5360   57.1291   25.7363 C   0  0  0  0  0  0  0  0  0  0  0  0
   16.7701   58.1609   25.7548 O   0  0  0  0  0  0  0  0  0  0  0  0
   23.2422   47.7828   17.9832 C   0  0  0  0  0  0  0  0  0  0  0  0
   17.8372   55.3691   23.2097 C   0  0  0  0  0  0  0  0  0  0  0  0
   24.6922   47.2781   18.3503 C   0  0  0  0  0  0  0  0  0  0  0  0
   17.6497   55.7306   25.3074 C   0  0  0  0  0  0  0  0  0  0  0  0
   24.6809   45.8916   18.8930 C   0  0  0  0  0  0  0  0  0  0  0  0
   16.9937   56.4350   24.1026 C   0  0  0  0  0  0  0  0  0  0  0  0
   20.4995   51.6300   21.0284 C   0  0  0  0  0  0  0  0  0  0  0  0
  2  1  1  0
  3  4  1  6
  5  3  1  0
  6  1  1  0
  5  7  1  6
  8  6  1  0
 10  3  1  0
 11  9  1  0
 12 11  1  0
 13 10  1  0
 14  2  2  3
 15 13  1  0
 16 11  1  0
 17 15  1  0
 18 11  1  0
 18 14  1  0
 18 16  1  0
 19  5  1  0
 19  8  1  0
M  END
>  <ID>  (1) 
conformer_0

$$$$
