
     RDKit          3D

 19 20  0  0  0  0  0  0  0  0999 V2000
   19.3063   50.9581   20.0649 C   0  0  0  0  0  0  0  0  0  0  0  0
   22.3894   48.6275   18.4055 C   0  0  0  0  0  0  0  0  0  0  0  0
   21.7937   50.0496   20.2761 C   0  0  0  0  0  0  0  0  0  0  0  0
   20.7751   49.6695   19.8312 C   0  0  0  0  0  0  0  0  0  0  0  0
   17.8877   54.8983   22.3672 C   0  0  0  0  0  0  0  0  0  0  0  0
   16.9434   55.9330   24.4198 C   0  0  0  0  0  0  0  0  0  0  0  0
   23.6105   47.2350   17.8046 C   0  0  0  0  0  0  0  0  0  0  0  0
   17.9898   55.3512   23.8421 C   0  0  0  0  0  0  0  0  0  0  0  0
   16.6377   57.4436   26.1331 C   0  0  0  0  0  0  0  0  0  0  0  0
   16.4001   58.4215   25.2671 O   0  0  0  0  0  0  0  0  0  0  0  0
   17.4239   56.2566   25.9967 C   0  0  0  0  0  0  0  0  0  0  0  0
   15.9857   57.5900   27.3732 O   0  0  0  0  0  0  0  0  0  0  0  0
   24.8385   46.1504   18.5914 C   0  0  0  0  0  0  0  0  0  0  0  0
   18.8073   53.9390   22.1842 C   0  0  0  0  0  0  0  0  0  0  0  0
   18.2725   52.5655   20.4726 C   0  0  0  0  0  0  0  0  0  0  0  0
   24.7217   48.0656   18.6282 C   0  0  0  0  0  0  0  0  0  0  0  0
   23.2189   49.1765   19.4291 C   0  0  0  0  0  0  0  0  0  0  0  0
   19.6214   53.1736   21.5158 C   0  0  0  0  0  0  0  0  0  0  0  0
   20.2406   51.4281   20.9236 C   0  0  0  0  0  0  0  0  0  0  0  0
  4  1  1  0
  4  3  1  0
  7  2  1  0
  8  5  1  0
  8  6  1  0
 10  9  2  0
 11  6  1  0
 11  9  1  0
 12  9  1  0
 13  7  1  0
 14  5  1  0
 15  1  1  0
 16  7  1  0
 16 13  1  0
 17  2  1  0
 17  3  1  0
 18 14  1  0
 18 15  1  0
 19  1  1  0
 19 18  1  0
M  END
>  <ID>  (1) 
conformer_0

$$$$
