
     RDKit          3D

 18 18  0  0  0  0  0  0  0  0999 V2000
   18.4994   53.5197   21.8377 C   0  0  0  0  0  0  0  0  0  0  0  0
   22.3174   49.4798   19.9872 C   0  0  0  0  0  0  0  0  0  0  0  0
   19.4430   50.5731   20.0534 C   0  0  0  0  0  0  0  0  0  0  0  0
   20.9407   49.1118   20.1208 C   0  0  0  0  0  0  0  0  0  0  0  0
   19.7971   52.7661   21.1721 C   0  0  0  0  0  0  0  0  0  0  0  0
   20.8521   50.6553   20.6896 C   0  0  0  0  0  0  0  0  0  0  0  0
   22.6755   47.9520   19.3721 C   0  0  0  0  0  0  0  0  0  0  0  0
   16.4591   56.2218   24.0830 C   0  0  0  0  0  0  0  0  0  0  0  0
   23.4993   48.2060   18.1823 C   0  0  0  0  0  0  0  0  0  0  0  0
   16.6968   57.6923   26.5571 O   0  0  0  0  0  0  0  0  0  0  0  0
   16.9548   57.1828   25.8478 C   0  0  0  0  0  0  0  0  0  0  0  0
   24.4299   47.0204   18.0592 C   0  0  0  0  0  0  0  0  0  0  0  0
   17.5983   55.9167   25.2923 C   0  0  0  0  0  0  0  0  0  0  0  0
   24.7379   46.0559   19.0490 C   0  0  0  0  0  0  0  0  0  0  0  0
   17.1814   54.7961   23.1815 C   0  0  0  0  0  0  0  0  0  0  0  0
   18.8804   54.6525   22.2567 C   0  0  0  0  0  0  0  0  0  0  0  0
   18.3008   55.9645   23.1148 C   0  0  0  0  0  0  0  0  0  0  0  0
   18.7476   52.1056   20.2945 C   0  0  0  0  0  0  0  0  0  0  0  0
  4  2  1  0
  5  1  1  0
  6  3  1  0
  6  4  1  0
  7  2  1  0
  9  7  1  0
 11 10  1  0
 12  9  1  0
 13  8  1  0
 13 11  1  0
 14 12  1  0
 15  8  1  0
 16  1  1  0
 16 15  1  0
 17 15  1  0
 17 16  1  0
 18  3  1  0
 18  5  1  0
M  END
>  <ID>  (1) 
conformer_0

$$$$
