
     RDKit          3D

 18 19  0  0  0  0  0  0  0  0999 V2000
   18.4619   53.8243   22.0169 C   0  0  0  0  0  0  0  0  0  0  0  0
   23.4962   47.6974   17.8266 C   0  0  0  0  0  0  0  0  0  0  0  0
   19.7541   53.1909   21.5579 C   0  0  0  0  0  0  0  0  0  0  0  0
   22.5606   48.6624   18.6504 C   0  0  0  0  0  0  0  0  0  0  0  0
   19.0665   52.2418   20.6016 C   0  0  0  0  0  0  0  0  0  0  0  0
   21.1198   50.9222   20.7598 C   0  0  0  0  0  0  0  0  0  0  0  0
   22.7461   49.4452   19.8714 C   0  0  0  0  0  0  0  0  0  0  0  0
   18.7060   54.9830   22.6941 C   0  0  0  0  0  0  0  0  0  0  0  0
   16.7759   57.1441   25.9545 C   0  0  0  0  0  0  0  0  0  0  0  0
   16.2514   58.3022   25.5598 O   0  0  0  0  0  0  0  0  0  0  0  0
   16.8567   57.2140   27.0641 O   0  0  0  0  0  0  0  0  0  0  0  0
   24.8237   48.0769   18.6115 C   0  0  0  0  0  0  0  0  0  0  0  0
   17.4180   55.4485   23.1301 C   0  0  0  0  0  0  0  0  0  0  0  0
   16.3756   56.5142   24.3642 C   0  0  0  0  0  0  0  0  0  0  0  0
   24.9202   46.5103   18.4639 C   0  0  0  0  0  0  0  0  0  0  0  0
   17.6266   55.7352   24.7210 C   0  0  0  0  0  0  0  0  0  0  0  0
   21.2299   49.5686   20.1129 C   0  0  0  0  0  0  0  0  0  0  0  0
   19.5859   50.8221   20.2747 C   0  0  0  0  0  0  0  0  0  0  0  0
  3  1  1  0
  4  2  1  0
  5  3  1  0
  7  4  1  0
  8  1  1  0
 10  9  2  0
 11  9  1  0
 12  2  1  0
 13  8  1  0
 14  9  1  0
 14 13  1  0
 15  2  1  0
 15 12  1  0
 16 13  1  0
 16 14  1  0
 17  6  1  0
 17  7  1  0
 18  5  1  0
 18  6  1  0
M  END
>  <ID>  (1) 
conformer_0

$$$$
