
     RDKit          3D

 19 19  0  0  0  0  0  0  0  0999 V2000
   18.3824   54.3455   22.0260 C   0  0  0  0  0  0  0  0  0  0  0  0
   20.5023   51.5544   20.8185 C   0  0  0  0  0  0  0  0  0  0  0  0
   22.0909   49.8741   20.0496 C   0  0  0  0  0  0  0  0  0  0  0  0
   20.9795   49.6179   20.3707 C   0  0  0  0  0  0  0  0  0  0  0  0
   17.4149   54.4723   22.9062 C   0  0  0  0  0  0  0  0  0  0  0  0
   24.7910   46.1950   18.5342 C   0  0  0  0  0  0  0  0  0  0  0  0
   17.6489   55.8600   23.4948 C   0  0  0  0  0  0  0  0  0  0  0  0
   24.9476   47.8081   18.3821 C   0  0  0  0  0  0  0  0  0  0  0  0
   17.0224   55.7292   24.7476 C   0  0  0  0  0  0  0  0  0  0  0  0
   16.5680   58.4847   25.3602 O   0  0  0  0  0  0  0  0  0  0  0  0
   16.6877   57.4810   26.1697 C   0  0  0  0  0  0  0  0  0  0  0  0
   16.1194   57.5537   27.2321 O   0  0  0  0  0  0  0  0  0  0  0  0
   17.6960   56.5797   25.8407 C   0  0  0  0  0  0  0  0  0  0  0  0
   23.2032   48.5464   18.7877 C   0  0  0  0  0  0  0  0  0  0  0  0
   23.3889   47.3977   17.6565 C   0  0  0  0  0  0  0  0  0  0  0  0
   19.6855   50.6825   19.8940 C   0  0  0  0  0  0  0  0  0  0  0  0
   18.9100   52.3739   20.6603 C   0  0  0  0  0  0  0  0  0  0  0  0
   19.2636   53.2810   21.7433 C   0  0  0  0  0  0  0  0  0  0  0  0
   21.8888   48.7860   18.4360 C   0  0  0  0  0  0  0  0  0  0  0  0
  4  3  1  0
  5  1  1  0
  7  5  1  0
  8  6  1  0
  9  7  1  0
 11 10  2  0
 12 11  1  0
 13  9  1  0
 13 11  1  0
 14  8  1  0
 15  8  1  0
 15 14  1  0
 16  2  1  0
 16  4  1  0
 17  2  1  0
 18  1  1  0
 18 17  1  0
 19  3  1  0
 19 14  1  0
M  END
>  <ID>  (1) 
conformer_0

$$$$
