
     RDKit          3D

 18 17  0  0  0  0  0  0  0  0999 V2000
   18.6498   53.3651   21.2997 C   0  0  0  0  0  0  0  0  0  0  0  0
   20.8492   50.7059   20.4436 C   0  0  0  0  0  0  0  0  0  0  0  0
   20.4464   49.4797   20.1169 C   0  0  0  0  0  0  0  0  0  0  0  0
   19.3199   51.4153   20.2989 C   0  0  0  0  0  0  0  0  0  0  0  0
   22.3121   49.4661   20.0255 C   0  0  0  0  0  0  0  0  0  0  0  0
   19.0049   54.1606   22.3073 C   0  0  0  0  0  0  0  0  0  0  0  0
   22.0784   48.6415   18.7919 C   0  0  0  0  0  0  0  0  0  0  0  0
   17.7118   55.7922   23.0861 C   0  0  0  0  0  0  0  0  0  0  0  0
   16.4584   57.1992   25.9419 C   0  0  0  0  0  0  0  0  0  0  0  0
   16.0428   58.0993   25.3806 O   0  0  0  0  0  0  0  0  0  0  0  0
   16.8084   57.5594   26.7403 O   0  0  0  0  0  0  0  0  0  0  0  0
   23.8576   48.5542   18.9053 C   0  0  0  0  0  0  0  0  0  0  0  0
   16.3986   55.5223   24.3511 C   0  0  0  0  0  0  0  0  0  0  0  0
   23.6887   47.3990   18.0424 C   0  0  0  0  0  0  0  0  0  0  0  0
   17.3702   55.9230   25.3501 C   0  0  0  0  0  0  0  0  0  0  0  0
   24.8291   46.2497   18.7674 C   0  0  0  0  0  0  0  0  0  0  0  0
   17.4904   54.4153   22.9173 C   0  0  0  0  0  0  0  0  0  0  0  0
   19.9550   52.5023   21.1845 C   0  0  0  0  0  0  0  0  0  0  0  0
  3  2  1  0
  4  2  1  0
  5  3  1  0
  6  1  1  0
  7  5  1  0
 10  9  2  0
 11  9  1  0
 12  7  1  0
 13  8  1  0
 14 12  1  0
 15  9  1  0
 15 13  1  0
 16 14  1  0
 17  6  1  0
 17  8  1  0
 18  1  1  0
 18  4  1  0
M  END
>  <ID>  (1) 
conformer_0

$$$$
