
     RDKit          3D

 18 17  0  0  0  0  0  0  0  0999 V2000
   19.0100   53.7877   21.8047 C   0  0  0  0  0  0  0  0  0  0  0  0
   17.5750   54.5997   22.0863 C   0  0  0  0  0  0  0  0  0  0  0  0
   21.7949   50.3146   20.6365 C   0  0  0  0  0  0  0  0  0  0  0  0
   24.9862   47.6937   18.4887 C   0  0  0  0  0  0  0  0  0  0  0  0
   18.6240   52.9275   20.9035 C   0  0  0  0  0  0  0  0  0  0  0  0
   16.7479   56.2500   23.9207 C   0  0  0  0  0  0  0  0  0  0  0  0
   17.8980   55.2807   23.1708 C   0  0  0  0  0  0  0  0  0  0  0  0
   25.0965   46.1107   18.7009 C   0  0  0  0  0  0  0  0  0  0  0  0
   17.3590   56.3598   25.1345 C   0  0  0  0  0  0  0  0  0  0  0  0
   15.7841   58.2574   25.1748 O   0  0  0  0  0  0  0  0  0  0  0  0
   16.0653   57.4521   25.6991 C   0  0  0  0  0  0  0  0  0  0  0  0
   16.0131   57.3698   26.8531 O   0  0  0  0  0  0  0  0  0  0  0  0
   22.7376   49.1838   19.3358 C   0  0  0  0  0  0  0  0  0  0  0  0
   23.7846   47.4456   17.8228 C   0  0  0  0  0  0  0  0  0  0  0  0
   22.5358   48.5532   18.0735 C   0  0  0  0  0  0  0  0  0  0  0  0
   20.9562   49.8814   19.7860 C   0  0  0  0  0  0  0  0  0  0  0  0
   19.4056   51.0422   20.1190 C   0  0  0  0  0  0  0  0  0  0  0  0
   20.2059   51.8102   20.9691 C   0  0  0  0  0  0  0  0  0  0  0  0
  2  1  1  0
  5  1  1  0
  7  2  1  0
  7  6  1  0
  8  4  1  0
  9  6  1  0
 11  9  1  0
 11 10  2  0
 12 11  1  0
 13  3  1  0
 14  4  1  0
 15 13  1  0
 15 14  1  0
 16  3  1  0
 17 16  1  0
 18  5  1  0
 18 17  1  0
M  END
>  <ID>  (1) 
conformer_0

$$$$
