
     RDKit          3D

 19 18  0  0  0  0  0  0  0  0999 V2000
   18.9929   54.8702   22.0743 C   0  0  0  0  0  0  0  0  0  0  0  0
   19.4341   51.7490   20.4396 C   0  0  0  0  0  0  0  0  0  0  0  0
   18.6670   53.7054   21.3149 C   0  0  0  0  0  0  0  0  0  0  0  0
   21.9695   49.5305   20.2474 C   0  0  0  0  0  0  0  0  0  0  0  0
   19.9212   52.9436   21.5049 C   0  0  0  0  0  0  0  0  0  0  0  0
   23.4968   48.6132   18.9182 C   0  0  0  0  0  0  0  0  0  0  0  0
   17.1864   55.1938   22.1440 C   0  0  0  0  0  0  0  0  0  0  0  0
   23.5483   47.3866   18.0350 C   0  0  0  0  0  0  0  0  0  0  0  0
   16.8511   54.8341   23.4882 C   0  0  0  0  0  0  0  0  0  0  0  0
   16.6216   57.3469   25.9894 C   0  0  0  0  0  0  0  0  0  0  0  0
   16.3246   57.6536   27.0741 O   0  0  0  0  0  0  0  0  0  0  0  0
   17.0097   58.2221   25.6756 O   0  0  0  0  0  0  0  0  0  0  0  0
   24.9382   46.9071   18.5931 C   0  0  0  0  0  0  0  0  0  0  0  0
   16.3158   56.0938   24.1302 C   0  0  0  0  0  0  0  0  0  0  0  0
   24.9981   45.5607   19.0425 C   0  0  0  0  0  0  0  0  0  0  0  0
   17.2694   55.7566   25.4527 C   0  0  0  0  0  0  0  0  0  0  0  0
   21.9534   48.7819   18.9928 C   0  0  0  0  0  0  0  0  0  0  0  0
   20.1673   49.6479   19.9636 C   0  0  0  0  0  0  0  0  0  0  0  0
   20.5791   50.8484   20.5793 C   0  0  0  0  0  0  0  0  0  0  0  0
  3  1  1  0
  5  2  1  0
  5  3  1  0
  7  1  1  0
  8  6  1  0
  9  7  1  0
 11 10  1  0
 12 10  2  0
 13  8  1  0
 14  9  1  0
 15 13  1  0
 16 10  1  0
 16 14  1  0
 17  4  1  0
 17  6  1  0
 18  4  1  0
 19  2  1  0
 19 18  1  0
M  END
>  <ID>  (1) 
conformer_0

$$$$
