
     RDKit          3D

 18 17  0  0  0  0  0  0  0  0999 V2000
   21.3348   49.7798   20.0978 C   0  0  0  0  0  0  0  0  0  0  0  0
   21.5547   48.8324   18.9580 C   0  0  0  0  0  0  0  0  0  0  0  0
   18.6415   53.6398   21.8073 C   0  0  0  0  0  0  0  0  0  0  0  0
   18.5158   55.6325   22.6147 C   0  0  0  0  0  0  0  0  0  0  0  0
   19.7915   53.7563   21.6121 C   0  0  0  0  0  0  0  0  0  0  0  0
   19.8830   50.0409   19.7936 C   0  0  0  0  0  0  0  0  0  0  0  0
   20.3830   51.5203   20.6456 C   0  0  0  0  0  0  0  0  0  0  0  0
   19.4609   52.1362   20.6780 C   0  0  0  0  0  0  0  0  0  0  0  0
   16.3229   58.1013   25.6668 O   0  0  0  0  0  0  0  0  0  0  0  0
   16.0811   56.4916   27.0268 O   0  0  0  0  0  0  0  0  0  0  0  0
   23.2465   47.5930   17.9816 C   0  0  0  0  0  0  0  0  0  0  0  0
   16.9852   56.2132   23.9985 C   0  0  0  0  0  0  0  0  0  0  0  0
   16.5116   56.9053   25.9632 C   0  0  0  0  0  0  0  0  0  0  0  0
   17.2173   55.6980   25.2492 C   0  0  0  0  0  0  0  0  0  0  0  0
   24.7391   46.0597   18.7193 C   0  0  0  0  0  0  0  0  0  0  0  0
   23.0736   48.8850   19.0191 C   0  0  0  0  0  0  0  0  0  0  0  0
   24.6726   47.6369   18.3900 C   0  0  0  0  0  0  0  0  0  0  0  0
   17.6235   54.7194   22.9411 C   0  0  0  0  0  0  0  0  0  0  0  0
  2  1  1  0
  5  3  1  0
  6  1  1  0
  7  6  1  0
  8  5  1  0
  8  7  1  0
 13  9  2  0
 13 10  1  0
 14 12  1  0
 14 13  1  0
 16  2  1  0
 16 11  1  0
 17 11  1  0
 17 15  1  0
 18  3  1  0
 18  4  1  0
 18 12  1  0
M  END
>  <ID>  (1) 
conformer_0

$$$$
