
     RDKit          3D

 14 13  0  0  0  0  0  0  0  0999 V2000
   20.1743   50.4961   20.1814 C   0  0  0  0  0  0  0  0  0  0  0  0
   19.3625   52.9388   21.2813 C   0  0  0  0  0  0  0  0  0  0  0  0
   21.3673   49.8171   20.0289 C   0  0  0  0  0  0  0  0  0  0  0  0
   19.3838   51.6408   20.4977 C   0  0  0  0  0  0  0  0  0  0  0  0
   18.0133   54.8002   22.9089 C   0  0  0  0  0  0  0  0  0  0  0  0
   18.7784   53.9509   22.0534 C   0  0  0  0  0  0  0  0  0  0  0  0
   22.2318   49.0756   19.1081 C   0  0  0  0  0  0  0  0  0  0  0  0
   17.1845   55.5360   23.8621 C   0  0  0  0  0  0  0  0  0  0  0  0
   23.1223   48.2789   18.3287 C   0  0  0  0  0  0  0  0  0  0  0  0
   16.3117   57.1482   27.0636 O   0  0  0  0  0  0  0  0  0  0  0  0
   16.2516   57.0650   26.1777 C   0  0  0  0  0  0  0  0  0  0  0  0
   24.4455   47.5799   18.4045 C   0  0  0  0  0  0  0  0  0  0  0  0
   16.7381   56.2432   24.9814 C   0  0  0  0  0  0  0  0  0  0  0  0
   24.9833   46.2174   18.7121 C   0  0  0  0  0  0  0  0  0  0  0  0
  3  1  1  0
  4  1  1  0
  4  2  1  0
  6  2  3  0
  6  5  1  0
  7  3  2  0
  8  5  1  0
  9  7  2  0
 11 10  1  0
 12  9  1  0
 13  8  3  0
 13 11  1  0
 14 12  1  0
M  END
>  <ID>  (1) 
conformer_0

$$$$
