
     RDKit          3D

 18 17  0  0  0  0  0  0  0  0999 V2000
   22.4599   48.9783   19.4719 C   0  0  0  0  0  0  0  0  0  0  0  0
   18.3868   53.4851   21.5484 C   0  0  0  0  0  0  0  0  0  0  0  0
   18.3636   54.7768   22.9281 C   0  0  0  0  0  0  0  0  0  0  0  0
   19.1071   51.5593   20.3564 C   0  0  0  0  0  0  0  0  0  0  0  0
   20.3808   49.9175   19.7975 C   0  0  0  0  0  0  0  0  0  0  0  0
   21.5213   49.8461   20.3737 C   0  0  0  0  0  0  0  0  0  0  0  0
   19.5021   53.2441   21.6822 C   0  0  0  0  0  0  0  0  0  0  0  0
   22.4413   48.4461   18.2425 C   0  0  0  0  0  0  0  0  0  0  0  0
   16.6516   57.3425   25.7046 C   0  0  0  0  0  0  0  0  0  0  0  0
   16.6044   57.6301   26.9093 O   0  0  0  0  0  0  0  0  0  0  0  0
   16.3764   58.4388   25.0519 O   0  0  0  0  0  0  0  0  0  0  0  0
   24.0902   47.8204   18.2434 C   0  0  0  0  0  0  0  0  0  0  0  0
   17.1854   55.0311   22.6575 C   0  0  0  0  0  0  0  0  0  0  0  0
   24.1075   46.5891   18.4429 C   0  0  0  0  0  0  0  0  0  0  0  0
   17.3820   56.1167   25.1698 C   0  0  0  0  0  0  0  0  0  0  0  0
   25.1005   45.7464   19.1191 C   0  0  0  0  0  0  0  0  0  0  0  0
   16.5531   55.8954   23.8313 C   0  0  0  0  0  0  0  0  0  0  0  0
   20.2455   51.4378   20.8310 C   0  0  0  0  0  0  0  0  0  0  0  0
  3  2  1  0
  6  1  1  0
  6  5  1  0
  7  2  1  0
  8  1  1  0
 10  9  1  0
 11  9  2  0
 12  8  1  0
 13  3  1  0
 14 12  1  0
 15  9  1  0
 16 14  1  0
 17 13  1  0
 17 15  1  0
 18  4  1  0
 18  5  1  0
 18  7  1  0
M  END
>  <ID>  (1) 
conformer_0

$$$$
