
     RDKit          3D

 16 15  0  0  0  0  0  0  0  0999 V2000
   18.0963   54.3251   22.6677 C   0  0  0  0  0  0  0  0  0  0  0  0
   20.8475   49.9995   19.8635 C   0  0  0  0  0  0  0  0  0  0  0  0
   20.5432   51.1711   20.6896 C   0  0  0  0  0  0  0  0  0  0  0  0
   19.6820   53.1890   21.8790 C   0  0  0  0  0  0  0  0  0  0  0  0
   23.6036   47.6759   18.1414 C   0  0  0  0  0  0  0  0  0  0  0  0
   18.2353   55.4775   22.7729 C   0  0  0  0  0  0  0  0  0  0  0  0
   22.8578   48.7270   18.8376 C   0  0  0  0  0  0  0  0  0  0  0  0
   22.1979   49.4494   19.8073 C   0  0  0  0  0  0  0  0  0  0  0  0
   16.1677   56.7860   25.8488 C   0  0  0  0  0  0  0  0  0  0  0  0
   16.0320   57.8851   25.4149 O   0  0  0  0  0  0  0  0  0  0  0  0
   24.9717   47.4553   18.4286 C   0  0  0  0  0  0  0  0  0  0  0  0
   17.3692   56.0796   23.9518 C   0  0  0  0  0  0  0  0  0  0  0  0
   24.9871   45.9493   18.7370 C   0  0  0  0  0  0  0  0  0  0  0  0
   17.0432   55.4222   24.9566 C   0  0  0  0  0  0  0  0  0  0  0  0
   18.5305   53.3625   21.2157 C   0  0  0  0  0  0  0  0  0  0  0  0
   19.2937   51.7076   20.3629 C   0  0  0  0  0  0  0  0  0  0  0  0
  3  2  1  0
  6  1  1  0
  7  5  2  0
  8  2  1  0
  8  7  2  0
 10  9  2  0
 11  5  1  0
 12  6  1  0
 13 11  1  0
 14  9  1  0
 14 12  1  0
 15  1  1  0
 15  4  1  0
 16  3  1  0
 16 15  1  0
M  END
>  <ID>  (1) 
conformer_0

$$$$
