
     RDKit          3D

 17 16  0  0  0  0  0  0  0  0999 V2000
   18.2951   55.1539   23.0991 C   0  0  0  0  0  0  0  0  0  0  0  0
   19.2724   52.5150   20.8710 C   0  0  0  0  0  0  0  0  0  0  0  0
   22.9692   49.0262   19.4574 C   0  0  0  0  0  0  0  0  0  0  0  0
   20.2361   51.4356   20.6459 C   0  0  0  0  0  0  0  0  0  0  0  0
   22.9903   48.0147   18.0277 C   0  0  0  0  0  0  0  0  0  0  0  0
   18.3302   54.2045   22.2817 C   0  0  0  0  0  0  0  0  0  0  0  0
   19.6658   53.5344   21.8487 C   0  0  0  0  0  0  0  0  0  0  0  0
   16.2844   58.4865   25.0264 O   0  0  0  0  0  0  0  0  0  0  0  0
   16.1282   57.3256   26.7320 O   0  0  0  0  0  0  0  0  0  0  0  0
   16.3914   57.3723   25.5310 C   0  0  0  0  0  0  0  0  0  0  0  0
   16.9680   56.0510   23.7299 C   0  0  0  0  0  0  0  0  0  0  0  0
   24.5321   47.9367   18.5849 C   0  0  0  0  0  0  0  0  0  0  0  0
   17.3427   56.0772   24.9566 C   0  0  0  0  0  0  0  0  0  0  0  0
   24.6140   46.3960   18.5003 C   0  0  0  0  0  0  0  0  0  0  0  0
   21.3796   49.2019   19.0826 C   0  0  0  0  0  0  0  0  0  0  0  0
   19.8130   50.3726   19.7931 C   0  0  0  0  0  0  0  0  0  0  0  0
   21.4183   49.7974   20.4965 C   0  0  0  0  0  0  0  0  0  0  0  0
  4  2  2  3
  5  3  1  0
  6  1  2  3
  7  2  1  0
  7  6  1  0
 10  8  2  0
 10  9  1  0
 11  1  1  0
 12  5  1  0
 13 10  1  0
 13 11  1  0
 14 12  1  0
 15  3  1  0
 16  4  1  0
 17 15  1  0
 17 16  1  0
M  END
>  <ID>  (1) 
conformer_0

$$$$
