
     RDKit          3D

 19 18  0  0  0  0  0  0  0  0999 V2000
   17.6070   55.8908   23.2872 C   0  0  0  0  0  0  0  0  0  0  0  0
   20.1423   49.7793   19.8972 C   0  0  0  0  0  0  0  0  0  0  0  0
   19.1980   51.7077   20.4767 C   0  0  0  0  0  0  0  0  0  0  0  0
   16.3657   55.6988   24.6386 C   0  0  0  0  0  0  0  0  0  0  0  0
   18.6297   53.5815   21.6833 C   0  0  0  0  0  0  0  0  0  0  0  0
   20.4140   50.9690   20.4747 C   0  0  0  0  0  0  0  0  0  0  0  0
   18.9594   54.8494   22.2396 C   0  0  0  0  0  0  0  0  0  0  0  0
   22.2508   49.0239   18.9985 C   0  0  0  0  0  0  0  0  0  0  0  0
   16.0537   58.1897   25.0238 O   0  0  0  0  0  0  0  0  0  0  0  0
   16.0301   57.5394   26.8966 O   0  0  0  0  0  0  0  0  0  0  0  0
   23.7735   47.3697   18.0103 C   0  0  0  0  0  0  0  0  0  0  0  0
   16.2765   57.3154   25.8321 C   0  0  0  0  0  0  0  0  0  0  0  0
   25.1708   46.9723   18.6182 C   0  0  0  0  0  0  0  0  0  0  0  0
   17.3801   56.1299   25.4790 C   0  0  0  0  0  0  0  0  0  0  0  0
   25.0427   45.5452   19.0701 C   0  0  0  0  0  0  0  0  0  0  0  0
   17.5400   54.5634   23.2690 C   0  0  0  0  0  0  0  0  0  0  0  0
   19.8937   52.9930   21.5708 C   0  0  0  0  0  0  0  0  0  0  0  0
   21.9390   49.5320   20.1066 C   0  0  0  0  0  0  0  0  0  0  0  0
   23.8120   48.6135   18.8643 C   0  0  0  0  0  0  0  0  0  0  0  0
  4  1  1  0
  6  2  1  0
  6  3  1  0
  7  5  1  0
 12  9  2  0
 12 10  1  0
 13 11  1  0
 14  4  1  0
 14 12  1  0
 15 13  1  0
 16  1  1  0
 16  7  1  0
 17  3  1  0
 17  5  1  0
 18  2  1  0
 18  8  1  0
 19  8  1  0
 19 11  1  0
M  END
>  <ID>  (1) 
conformer_0

$$$$
