
     RDKit          3D

 18 17  0  0  0  0  0  0  0  0999 V2000
   21.7495   50.0699   20.3590 C   0  0  0  0  0  0  0  0  0  0  0  0
   19.4634   53.4305   21.8896 C   0  0  0  0  0  0  0  0  0  0  0  0
   19.6124   50.5233   20.2919 C   0  0  0  0  0  0  0  0  0  0  0  0
   20.2915   51.6325   20.9965 C   0  0  0  0  0  0  0  0  0  0  0  0
   18.8506   52.5229   20.7652 C   0  0  0  0  0  0  0  0  0  0  0  0
   22.9267   49.1817   19.4616 C   0  0  0  0  0  0  0  0  0  0  0  0
   17.9001   54.1514   21.7391 C   0  0  0  0  0  0  0  0  0  0  0  0
   22.6629   48.4814   18.2459 C   0  0  0  0  0  0  0  0  0  0  0  0
   16.6538   57.0979   25.6497 C   0  0  0  0  0  0  0  0  0  0  0  0
   17.2701   58.1345   25.5597 O   0  0  0  0  0  0  0  0  0  0  0  0
   16.0302   57.1770   26.7983 O   0  0  0  0  0  0  0  0  0  0  0  0
   24.4613   48.0210   18.5224 C   0  0  0  0  0  0  0  0  0  0  0  0
   18.1358   54.7829   22.8707 C   0  0  0  0  0  0  0  0  0  0  0  0
   24.1690   46.8229   18.1364 C   0  0  0  0  0  0  0  0  0  0  0  0
   16.8875   55.6405   23.1616 C   0  0  0  0  0  0  0  0  0  0  0  0
   25.1539   45.8174   19.0519 C   0  0  0  0  0  0  0  0  0  0  0  0
   17.2364   55.8638   24.7459 C   0  0  0  0  0  0  0  0  0  0  0  0
   20.8350   49.3071   19.8454 C   0  0  0  0  0  0  0  0  0  0  0  0
  4  3  1  0
  5  2  1  0
  5  4  1  0
  6  1  1  0
  7  2  1  0
  8  6  1  0
 10  9  2  0
 11  9  1  0
 12  8  1  0
 13  7  1  0
 14 12  1  0
 15 13  1  0
 16 14  1  0
 17  9  1  0
 17 15  1  0
 18  1  1  0
 18  3  1  0
M  END
>  <ID>  (1) 
conformer_0

$$$$
