
     RDKit          3D

 18 18  0  0  0  0  0  0  0  0999 V2000
   18.3870   54.5999   23.0385 C   0  0  0  0  0  0  0  0  0  0  0  0
   19.8433   53.3402   21.6818 C   0  0  0  0  0  0  0  0  0  0  0  0
   19.2882   52.0618   20.7442 C   0  0  0  0  0  0  0  0  0  0  0  0
   20.3299   51.2514   20.5587 C   0  0  0  0  0  0  0  0  0  0  0  0
   21.6855   49.8056   20.2750 C   0  0  0  0  0  0  0  0  0  0  0  0
   19.8860   49.7330   20.0770 C   0  0  0  0  0  0  0  0  0  0  0  0
   16.4829   56.6387   24.2014 C   0  0  0  0  0  0  0  0  0  0  0  0
   21.6064   48.8534   19.2801 C   0  0  0  0  0  0  0  0  0  0  0  0
   16.2545   57.2982   25.6527 C   0  0  0  0  0  0  0  0  0  0  0  0
   16.0812   58.2723   25.3394 O   0  0  0  0  0  0  0  0  0  0  0  0
   16.1365   57.1178   26.8804 O   0  0  0  0  0  0  0  0  0  0  0  0
   23.2725   48.8898   18.9840 C   0  0  0  0  0  0  0  0  0  0  0  0
   17.1539   55.2240   23.0789 C   0  0  0  0  0  0  0  0  0  0  0  0
   23.5542   47.5694   18.0109 C   0  0  0  0  0  0  0  0  0  0  0  0
   17.5168   55.5772   24.9024 C   0  0  0  0  0  0  0  0  0  0  0  0
   24.9560   45.7838   18.8508 C   0  0  0  0  0  0  0  0  0  0  0  0
   24.9010   47.4061   18.3968 C   0  0  0  0  0  0  0  0  0  0  0  0
   18.5197   53.8985   21.7248 C   0  0  0  0  0  0  0  0  0  0  0  0
  3  2  1  0
  4  3  1  0
  6  4  1  0
  6  5  1  0
  8  5  1  0
  9  7  1  0
 10  9  2  0
 11  9  1  0
 12  8  1  0
 13  1  1  0
 13  7  1  0
 14 12  1  0
 15  7  1  0
 15 13  1  0
 17 14  1  0
 17 16  1  0
 18  1  1  0
 18  2  1  0
M  END
>  <ID>  (1) 
conformer_0

$$$$
