
     RDKit          3D

 19 18  0  0  0  0  0  0  0  0999 V2000
   21.3986   49.7088   20.5852 C   0  0  0  0  0  0  0  0  0  0  0  0
   20.1414   51.5111   20.4465 C   0  0  0  0  0  0  0  0  0  0  0  0
   19.6948   50.4571   20.0574 C   0  0  0  0  0  0  0  0  0  0  0  0
   19.4176   53.2091   21.7199 C   0  0  0  0  0  0  0  0  0  0  0  0
   18.7180   52.4584   20.6470 C   0  0  0  0  0  0  0  0  0  0  0  0
   22.7253   48.4099   19.3582 C   0  0  0  0  0  0  0  0  0  0  0  0
   17.7734   54.2847   22.7304 C   0  0  0  0  0  0  0  0  0  0  0  0
   23.1270   48.1829   17.9797 C   0  0  0  0  0  0  0  0  0  0  0  0
   17.9272   55.6099   23.3485 C   0  0  0  0  0  0  0  0  0  0  0  0
   16.2999   58.2356   25.2326 O   0  0  0  0  0  0  0  0  0  0  0  0
   16.2692   57.1678   25.7498 C   0  0  0  0  0  0  0  0  0  0  0  0
   16.1548   57.1426   26.8811 O   0  0  0  0  0  0  0  0  0  0  0  0
   17.0627   55.9601   25.3648 C   0  0  0  0  0  0  0  0  0  0  0  0
   24.9517   47.6108   18.4037 C   0  0  0  0  0  0  0  0  0  0  0  0
   24.2526   46.4771   18.5343 C   0  0  0  0  0  0  0  0  0  0  0  0
   16.5204   55.3216   24.2427 C   0  0  0  0  0  0  0  0  0  0  0  0
   25.4233   45.6434   19.1650 C   0  0  0  0  0  0  0  0  0  0  0  0
   21.4823   49.4407   19.2755 C   0  0  0  0  0  0  0  0  0  0  0  0
   18.7266   54.5624   21.7043 C   0  0  0  0  0  0  0  0  0  0  0  0
  3  1  1  0
  3  2  1  0
  5  2  1  0
  5  4  1  0
  8  6  1  0
  9  7  1  0
 11 10  2  0
 12 11  1  0
 13 11  1  0
 14  8  1  0
 15 14  1  0
 16  9  1  0
 16 13  1  0
 17 15  1  0
 18  1  1  0
 18  6  1  0
 19  4  1  0
 19  7  1  0
M  END
>  <ID>  (1) 
conformer_0

$$$$
