
     RDKit          3D

 18 17  0  0  0  0  0  0  0  0999 V2000
   19.2560   51.2962   20.4168 C   0  0  0  0  0  0  0  0  0  0  0  0
   18.4349   53.7051   21.9942 C   0  0  0  0  0  0  0  0  0  0  0  0
   19.4995   53.7564   21.5912 C   0  0  0  0  0  0  0  0  0  0  0  0
   19.8590   52.3306   20.8168 C   0  0  0  0  0  0  0  0  0  0  0  0
   20.1807   49.4451   20.2926 C   0  0  0  0  0  0  0  0  0  0  0  0
   21.0252   50.4066   20.5627 C   0  0  0  0  0  0  0  0  0  0  0  0
   18.3887   55.5376   22.7247 C   0  0  0  0  0  0  0  0  0  0  0  0
   22.3555   49.3372   19.9583 C   0  0  0  0  0  0  0  0  0  0  0  0
   17.0657   57.3634   26.1643 C   0  0  0  0  0  0  0  0  0  0  0  0
   16.5915   57.5673   27.0990 O   0  0  0  0  0  0  0  0  0  0  0  0
   16.8079   58.4316   25.7357 O   0  0  0  0  0  0  0  0  0  0  0  0
   24.2784   47.9716   18.6024 C   0  0  0  0  0  0  0  0  0  0  0  0
   16.7002   56.5796   23.9452 C   0  0  0  0  0  0  0  0  0  0  0  0
   24.5596   46.2757   18.7122 C   0  0  0  0  0  0  0  0  0  0  0  0
   17.4860   56.2003   25.3764 C   0  0  0  0  0  0  0  0  0  0  0  0
   22.8777   47.5605   18.0298 C   0  0  0  0  0  0  0  0  0  0  0  0
   22.0341   48.6474   18.7936 C   0  0  0  0  0  0  0  0  0  0  0  0
   17.3808   54.8986   23.3530 C   0  0  0  0  0  0  0  0  0  0  0  0
  3  2  1  0
  4  1  1  0
  4  3  1  0
  6  1  1  0
  6  5  1  0
  7  2  1  0
  8  6  1  0
 10  9  1  0
 11  9  2  0
 14 12  1  0
 15  9  1  0
 15 13  1  0
 16 12  1  0
 17  8  1  0
 17 16  1  0
 18  7  1  0
 18 13  1  0
M  END
>  <ID>  (1) 
conformer_0

$$$$
