
     RDKit          3D

 19 19  0  0  0  0  0  0  0  0999 V2000
   19.8602   52.4604   20.9004 C   0  0  0  0  0  0  0  0  0  0  0  0
   18.3310   53.8987   21.4020 C   0  0  0  0  0  0  0  0  0  0  0  0
   19.3023   51.5063   20.4615 C   0  0  0  0  0  0  0  0  0  0  0  0
   20.0665   49.8716   19.9555 C   0  0  0  0  0  0  0  0  0  0  0  0
   19.4092   54.0648   21.7275 C   0  0  0  0  0  0  0  0  0  0  0  0
   17.4726   55.0287   23.2831 C   0  0  0  0  0  0  0  0  0  0  0  0
   21.2232   50.4816   20.6080 C   0  0  0  0  0  0  0  0  0  0  0  0
   16.7153   56.1043   24.8299 C   0  0  2  0  0  0  0  0  0  0  0  0
   16.3216   57.3804   25.8354 C   0  0  0  0  0  0  0  0  0  0  0  0
   21.7685   48.7758   18.2299 C   0  0  0  0  0  0  0  0  0  0  0  0
   15.8583   57.8622   26.7217 O   0  0  0  0  0  0  0  0  0  0  0  0
   16.1725   58.2954   24.9409 O   0  0  0  0  0  0  0  0  0  0  0  0
   24.8570   46.0310   18.7628 C   0  0  0  0  0  0  0  0  0  0  0  0
   17.7360   56.1245   25.4899 C   0  0  0  0  0  0  0  0  0  0  0  0
   25.1134   47.8508   18.6014 C   0  0  0  0  0  0  0  0  0  0  0  0
   23.2378   48.7203   18.8001 C   0  0  1  0  0  0  0  0  0  0  0  0
   22.0274   49.4831   20.0031 C   0  0  1  0  0  0  0  0  0  0  0  0
   23.6082   47.3672   17.9198 C   0  0  0  0  0  0  0  0  0  0  0  0
   18.2030   55.6101   22.8343 C   0  0  0  0  0  0  0  0  0  0  0  0
  3  1  2  3
  4  3  1  0
  5  1  1  0
  5  2  1  0
  7  4  1  0
  8  6  1  0
  9  8  1  0
 11  9  1  0
 12  9  2  0
  8 14  1  1
 15 13  1  0
 16 10  1  0
 17  7  1  6
 17 10  1  0
 17 16  1  0
 18 15  1  0
 16 18  1  1
 19  2  1  0
 19  6  1  0
M  END
>  <ID>  (1) 
conformer_0

$$$$
