
     RDKit          3D

 18 18  0  0  0  0  0  0  0  0999 V2000
   18.7603   53.3997   21.3624 C   0  0  0  0  0  0  0  0  0  0  0  0
   20.1431   50.3971   19.9964 C   0  0  0  0  0  0  0  0  0  0  0  0
   21.2811   49.9400   20.4211 C   0  0  0  0  0  0  0  0  0  0  0  0
   21.4800   49.2271   18.8157 C   0  0  0  0  0  0  0  0  0  0  0  0
   19.2610   51.6980   20.1057 C   0  0  0  0  0  0  0  0  0  0  0  0
   20.0740   52.3584   21.1859 C   0  0  0  0  0  0  0  0  0  0  0  0
   23.0943   48.1030   17.7902 C   0  0  0  0  0  0  0  0  0  0  0  0
   18.8083   54.0128   22.4051 C   0  0  0  0  0  0  0  0  0  0  0  0
   16.0063   57.5300   26.8474 O   0  0  0  0  0  0  0  0  0  0  0  0
   16.2783   58.4828   25.0705 O   0  0  0  0  0  0  0  0  0  0  0  0
   16.2273   57.4041   25.5807 C   0  0  0  0  0  0  0  0  0  0  0  0
   17.4196   54.9667   22.6614 C   0  0  0  0  0  0  0  0  0  0  0  0
   24.6061   47.5899   18.2334 C   0  0  0  0  0  0  0  0  0  0  0  0
   16.2682   56.4375   23.8922 C   0  0  0  0  0  0  0  0  0  0  0  0
   24.5764   46.2742   18.6861 C   0  0  0  0  0  0  0  0  0  0  0  0
   17.5427   55.2563   23.9372 C   0  0  0  0  0  0  0  0  0  0  0  0
   17.2923   55.9909   25.5599 C   0  0  0  0  0  0  0  0  0  0  0  0
   22.7345   48.5579   19.2947 C   0  0  0  0  0  0  0  0  0  0  0  0
  3  2  1  0
  4  3  1  0
  5  2  1  0
  6  1  1  0
  6  5  1  0
  8  1  1  0
 11  9  1  0
 11 10  1  0
 12  8  1  0
 13  7  1  0
 14 11  1  0
 15 13  1  0
 16 12  1  0
 16 14  1  0
 17 11  1  0
 17 16  1  0
 18  4  1  0
 18  7  1  0
M  END
>  <ID>  (1) 
conformer_0

$$$$
