
     RDKit          3D

 18 17  0  0  0  0  0  0  0  0999 V2000
   17.5594   55.1892   23.1938 C   0  0  0  0  0  0  0  0  0  0  0  0
   19.0533   52.9689   21.2086 C   0  0  0  0  0  0  0  0  0  0  0  0
   19.2192   53.9128   22.0181 C   0  0  0  0  0  0  0  0  0  0  0  0
   21.0868   50.0830   20.3853 C   0  0  0  0  0  0  0  0  0  0  0  0
   22.5186   49.0052   19.0560 C   0  0  0  0  0  0  0  0  0  0  0  0
   17.7333   54.6780   22.1449 C   0  0  0  0  0  0  0  0  0  0  0  0
   22.4248   48.5472   17.9225 C   0  0  0  0  0  0  0  0  0  0  0  0
   16.6570   56.0875   24.0503 C   0  0  0  0  0  0  0  0  0  0  0  0
   23.9497   47.2737   17.9780 C   0  0  0  0  0  0  0  0  0  0  0  0
   16.2437   57.6120   26.9610 O   0  0  0  0  0  0  0  0  0  0  0  0
   16.5234   58.3413   25.2820 O   0  0  0  0  0  0  0  0  0  0  0  0
   16.5057   57.3382   25.8562 C   0  0  0  0  0  0  0  0  0  0  0  0
   24.8256   47.9246   18.4565 C   0  0  0  0  0  0  0  0  0  0  0  0
   17.1597   55.6935   25.3114 C   0  0  0  0  0  0  0  0  0  0  0  0
   25.2039   46.0084   18.8014 C   0  0  0  0  0  0  0  0  0  0  0  0
   20.6534   49.5720   19.0209 C   0  0  0  0  0  0  0  0  0  0  0  0
   19.5950   50.9313   20.0630 C   0  0  0  0  0  0  0  0  0  0  0  0
   20.2997   52.0366   21.0581 C   0  0  0  0  0  0  0  0  0  0  0  0
  3  2  1  0
  6  1  1  0
  6  3  1  0
  7  5  1  0
  8  1  1  0
  9  7  1  0
 12 10  1  0
 12 11  2  0
 13  9  1  0
 14  8  1  0
 14 12  1  0
 15  9  1  0
 16  4  1  0
 16  5  1  0
 17  4  1  0
 18  2  1  0
 18 17  1  0
M  END
>  <ID>  (1) 
conformer_0

$$$$
