
     RDKit          3D

 18 18  0  0  0  0  0  0  0  0999 V2000
   20.4424   49.3790   19.6573 C   0  0  0  0  0  0  0  0  0  0  0  0
   16.8737   55.9463   24.8992 C   0  0  0  0  0  0  0  0  0  0  0  0
   23.8495   47.7011   18.1291 C   0  0  0  0  0  0  0  0  0  0  0  0
   17.6408   55.9249   23.6971 C   0  0  0  0  0  0  0  0  0  0  0  0
   18.4178   53.5595   21.4710 C   0  0  0  0  0  0  0  0  0  0  0  0
   18.8600   54.6041   22.4352 C   0  0  0  0  0  0  0  0  0  0  0  0
   17.1886   54.7646   22.9921 C   0  0  0  0  0  0  0  0  0  0  0  0
   24.8903   47.5724   18.5895 C   0  0  0  0  0  0  0  0  0  0  0  0
   16.3972   57.1087   25.8379 C   0  0  0  0  0  0  0  0  0  0  0  0
   16.1090   58.0981   25.1904 O   0  0  0  0  0  0  0  0  0  0  0  0
   25.0871   45.9519   18.8524 C   0  0  0  0  0  0  0  0  0  0  0  0
   15.9188   57.0107   26.8969 O   0  0  0  0  0  0  0  0  0  0  0  0
   22.6681   49.1358   19.5072 C   0  0  0  0  0  0  0  0  0  0  0  0
   22.2639   48.5091   18.3137 C   0  0  0  0  0  0  0  0  0  0  0  0
   19.3071   51.8394   20.3600 C   0  0  0  0  0  0  0  0  0  0  0  0
   21.6569   50.1556   20.5630 C   0  0  0  0  0  0  0  0  0  0  0  0
   19.7416   52.9948   21.3398 C   0  0  0  0  0  0  0  0  0  0  0  0
   20.2536   50.8307   20.6790 C   0  0  0  0  0  0  0  0  0  0  0  0
  4  2  1  0
  6  5  1  0
  7  4  1  0
  7  6  1  0
  8  3  1  0
  9  2  1  0
 10  9  2  0
 11  8  1  0
 12  9  1  0
 14  3  1  0
 14 13  1  0
 16  1  1  0
 16 13  1  0
 17  5  1  0
 17 15  1  0
 18  1  1  0
 18 15  1  0
 18 16  1  0
M  END
>  <ID>  (1) 
conformer_0

$$$$
