
     RDKit          3D

 17 16  0  0  0  0  0  0  0  0999 V2000
   19.6031   50.3541   20.1014 C   0  0  0  0  0  0  0  0  0  0  0  0
   18.9812   52.5286   20.9237 C   0  0  0  0  0  0  0  0  0  0  0  0
   20.9214   49.4809   19.9291 C   0  0  0  0  0  0  0  0  0  0  0  0
   20.2111   51.5368   20.7914 C   0  0  0  0  0  0  0  0  0  0  0  0
   22.0274   49.9528   20.2007 C   0  0  0  0  0  0  0  0  0  0  0  0
   19.0101   53.5963   21.7437 C   0  0  0  0  0  0  0  0  0  0  0  0
   22.8920   49.0696   19.1404 C   0  0  0  0  0  0  0  0  0  0  0  0
   17.7998   54.2479   22.4171 C   0  0  0  0  0  0  0  0  0  0  0  0
   15.7809   57.5688   26.3307 O   0  0  0  0  0  0  0  0  0  0  0  0
   17.5384   58.1411   25.7935 O   0  0  0  0  0  0  0  0  0  0  0  0
   16.6487   57.3272   25.6980 C   0  0  0  0  0  0  0  0  0  0  0  0
   23.3966   48.0752   18.4739 C   0  0  0  0  0  0  0  0  0  0  0  0
   17.8705   55.3198   22.9104 C   0  0  0  0  0  0  0  0  0  0  0  0
   24.3179   47.1148   18.3292 C   0  0  0  0  0  0  0  0  0  0  0  0
   17.2055   55.7617   25.2712 C   0  0  0  0  0  0  0  0  0  0  0  0
   24.8004   46.0091   19.0874 C   0  0  0  0  0  0  0  0  0  0  0  0
   16.9620   56.1998   23.8266 C   0  0  0  0  0  0  0  0  0  0  0  0
  3  1  1  0
  4  1  1  0
  4  2  1  0
  5  3  1  0
  6  2  1  0
  7  5  1  0
  8  6  1  0
 11  9  1  0
 11 10  2  0
 12  7  1  0
 13  8  2  3
 14 12  1  0
 15 11  1  0
 16 14  1  0
 17 13  1  0
 17 15  1  0
M  END
>  <ID>  (1) 
conformer_0

$$$$
