
     RDKit          3D

 18 17  0  0  0  0  0  0  0  0999 V2000
   20.0375   51.7632   20.7903 C   0  0  0  0  0  0  0  0  0  0  0  0
   16.9769   55.5752   23.4848 C   0  0  0  0  0  0  0  0  0  0  0  0
   18.4818   55.6214   22.7890 C   0  0  0  0  0  0  0  0  0  0  0  0
   23.5529   47.4999   17.9111 C   0  0  0  0  0  0  0  0  0  0  0  0
   19.0272   52.8377   20.8112 C   0  0  0  0  0  0  0  0  0  0  0  0
   19.4306   53.8745   21.7936 C   0  0  0  0  0  0  0  0  0  0  0  0
   18.0499   54.2017   22.2021 C   0  0  0  0  0  0  0  0  0  0  0  0
   24.8551   47.8737   18.5794 C   0  0  0  0  0  0  0  0  0  0  0  0
   16.3069   58.2163   25.4584 O   0  0  0  0  0  0  0  0  0  0  0  0
   16.6346   57.2091   25.8493 C   0  0  0  0  0  0  0  0  0  0  0  0
   19.5589   50.5263   20.2280 C   0  0  0  0  0  0  0  0  0  0  0  0
   17.3933   56.2088   24.8083 C   0  0  0  0  0  0  0  0  0  0  0  0
   24.8391   46.0980   18.7037 C   0  0  0  0  0  0  0  0  0  0  0  0
   16.6639   57.0951   27.3376 C   0  0  0  0  0  0  0  0  0  0  0  0
   21.5129   49.9606   20.3951 C   0  0  0  0  0  0  0  0  0  0  0  0
   22.8303   48.8421   18.8943 C   0  0  0  0  0  0  0  0  0  0  0  0
   21.7132   48.6936   18.0080 C   0  0  0  0  0  0  0  0  0  0  0  0
   20.5103   49.4341   19.3938 C   0  0  0  0  0  0  0  0  0  0  0  0
  3  2  1  0
  5  1  1  0
  6  5  1  0
  7  3  1  0
  7  6  1  0
  8  4  1  0
 10  9  2  0
 11  1  1  0
 12  2  1  0
 12 10  1  0
 13  8  1  0
 14 10  1  0
 16  4  1  0
 17 16  1  0
 18 11  1  0
 18 15  1  0
 18 17  1  0
M  END
>  <ID>  (1) 
conformer_0

$$$$
