
     RDKit          3D

 19 19  0  0  0  0  0  0  0  0999 V2000
   20.8163   49.4520   19.2466 C   0  0  0  0  0  0  0  0  0  0  0  0
   19.2548   52.3829   20.8039 C   0  0  0  0  0  0  0  0  0  0  0  0
   18.3586   55.4035   22.8324 C   0  0  0  0  0  0  0  0  0  0  0  0
   19.4891   50.5829   19.9394 C   0  0  0  0  0  0  0  0  0  0  0  0
   22.7560   48.9149   19.5159 C   0  0  0  0  0  0  0  0  0  0  0  0
   22.7422   48.5660   18.3053 C   0  0  0  0  0  0  0  0  0  0  0  0
   19.6711   53.4655   22.0801 C   0  0  0  0  0  0  0  0  0  0  0  0
   24.7290   47.8844   18.3068 C   0  0  0  0  0  0  0  0  0  0  0  0
   17.1323   55.1336   22.9438 C   0  0  0  0  0  0  0  0  0  0  0  0
   16.5456   58.1271   25.6110 O   0  0  0  0  0  0  0  0  0  0  0  0
   16.3903   57.1555   25.7196 C   0  0  0  0  0  0  0  0  0  0  0  0
   16.2822   57.3129   26.7910 O   0  0  0  0  0  0  0  0  0  0  0  0
   24.0117   46.8165   18.5489 C   0  0  0  0  0  0  0  0  0  0  0  0
   16.4274   56.5129   23.9397 C   0  0  0  0  0  0  0  0  0  0  0  0
   25.1546   45.8553   18.9962 C   0  0  0  0  0  0  0  0  0  0  0  0
   17.2799   55.6892   25.0477 C   0  0  0  0  0  0  0  0  0  0  0  0
   21.2915   49.8941   20.4377 C   0  0  0  0  0  0  0  0  0  0  0  0
   20.4342   51.5770   21.0054 C   0  0  0  0  0  0  0  0  0  0  0  0
   18.4388   53.8675   21.9758 C   0  0  0  0  0  0  0  0  0  0  0  0
  4  1  1  0
  6  5  1  0
  7  2  1  0
  8  6  1  0
  9  3  1  0
 11 10  1  0
 12 11  1  0
 13  8  1  0
 14  9  1  0
 14 11  1  0
 15 13  1  0
 16 11  1  0
 16 14  1  0
 17  1  1  0
 17  5  1  0
 18  2  1  0
 18  4  1  0
 19  3  1  0
 19  7  1  0
M  END
>  <ID>  (1) 
conformer_0

$$$$
