
     RDKit          3D

 19 22  0  0  0  0  0  0  0  0999 V2000
   21.7600   50.0609   20.4810 C   0  0  0  0  0  0  0  0  0  0  0  0
   18.3413   55.4769   23.2012 C   0  0  0  0  0  0  0  0  0  0  0  0
   24.8981   47.9222   18.4715 C   0  0  0  0  0  0  0  0  0  0  0  0
   16.5848   56.3432   24.3078 C   0  0  0  0  0  0  0  0  0  0  0  0
   20.4332   51.7068   21.0641 C   0  0  0  0  0  0  0  0  0  0  0  0
   18.1593   54.0993   22.0639 C   0  0  0  0  0  0  0  0  0  0  0  0
   19.1568   52.5778   20.9752 C   0  0  0  0  0  0  0  0  0  0  0  0
   19.4678   53.7176   22.0599 C   0  0  0  0  0  0  0  0  0  0  0  0
   24.6928   46.3377   18.6073 C   0  0  0  0  0  0  0  0  0  0  0  0
   16.1580   58.2198   25.5234 O   0  0  0  0  0  0  0  0  0  0  0  0
   16.7459   57.4189   25.7108 C   0  0  0  0  0  0  0  0  0  0  0  0
   23.2423   47.6221   17.9540 C   0  0  0  0  0  0  0  0  0  0  0  0
   17.6729   55.9866   25.3252 C   0  0  0  0  0  0  0  0  0  0  0  0
   17.2609   57.7839   26.6219 O   0  0  0  0  0  0  0  0  0  0  0  0
   19.9403   50.6406   20.1981 C   0  0  0  0  0  0  0  0  0  0  0  0
   23.1270   48.8755   19.1283 C   0  0  0  0  0  0  0  0  0  0  0  0
   21.2986   49.5221   19.3484 C   0  0  0  0  0  0  0  0  0  0  0  0
   21.6323   48.6327   17.9121 C   0  0  0  0  0  0  0  0  0  0  0  0
   16.8974   55.2452   23.0311 C   0  0  0  0  0  0  0  0  0  0  0  0
  6  2  1  0
  7  5  1  0
  8  6  1  0
  8  7  1  0
  9  3  1  0
 11  4  1  0
 11 10  1  0
 12  3  1  0
 13  4  1  0
 13 11  1  0
 14 11  1  0
 15  1  1  0
 15  5  1  0
 16 12  1  0
 17  1  1  0
 17 16  1  0
 18 12  1  0
 18 16  1  0
 18 17  1  0
 19  2  1  0
 19  4  1  0
 19  6  1  0
M  END
>  <ID>  (1) 
conformer_0

$$$$
