
     RDKit          3D

 18 18  0  0  0  0  0  0  0  0999 V2000
   18.3986   55.0477   22.7208 C   0  0  0  0  0  0  0  0  0  0  0  0
   24.7384   48.0729   18.6968 C   0  0  0  0  0  0  0  0  0  0  0  0
   16.2487   55.4574   24.8272 C   0  0  0  0  0  0  0  0  0  0  0  0
   19.5285   51.0872   19.9386 C   0  0  0  0  0  0  0  0  0  0  0  0
   18.3112   54.0000   21.6746 C   0  0  0  0  0  0  0  0  0  0  0  0
   17.0296   55.2105   23.1307 C   0  0  0  0  0  0  0  0  0  0  0  0
   24.8022   46.5326   18.4949 C   0  0  0  0  0  0  0  0  0  0  0  0
   17.3664   56.1114   24.7007 C   0  0  0  0  0  0  0  0  0  0  0  0
   16.4397   58.3080   25.4053 O   0  0  0  0  0  0  0  0  0  0  0  0
   16.3411   57.2418   25.8070 C   0  0  0  0  0  0  0  0  0  0  0  0
   16.2962   57.4353   26.8889 O   0  0  0  0  0  0  0  0  0  0  0  0
   23.3941   47.8936   18.0165 C   0  0  0  0  0  0  0  0  0  0  0  0
   22.3905   49.5957   20.0977 C   0  0  0  0  0  0  0  0  0  0  0  0
   22.5233   48.8951   18.8193 C   0  0  0  0  0  0  0  0  0  0  0  0
   19.3142   52.4272   20.8242 C   0  0  0  0  0  0  0  0  0  0  0  0
   20.9750   51.1012   20.9782 C   0  0  0  0  0  0  0  0  0  0  0  0
   20.8903   49.8578   19.8564 C   0  0  0  0  0  0  0  0  0  0  0  0
   19.7722   53.3453   21.7806 C   0  0  0  0  0  0  0  0  0  0  0  0
  5  1  1  0
  6  1  1  0
  7  2  1  0
  8  3  1  0
  8  6  1  0
 10  8  1  0
 10  9  1  0
 11 10  1  0
 12  2  1  0
 14 12  1  0
 14 13  1  0
 15  4  1  0
 16  4  1  0
 17  4  1  0
 17 13  1  0
 17 16  1  0
 18  5  1  0
 18 15  1  0
M  END
>  <ID>  (1) 
conformer_0

$$$$
