
     RDKit          3D

 19 20  0  0  0  0  0  0  0  0999 V2000
   19.1194   52.3789   20.8553 C   0  0  0  0  0  0  0  0  0  0  0  0
   18.5427   55.4834   22.6664 C   0  0  0  0  0  0  0  0  0  0  0  0
   19.7645   53.5764   21.8760 C   0  0  0  0  0  0  0  0  0  0  0  0
   18.5327   54.0315   21.7832 C   0  0  1  0  0  0  0  0  0  0  0  0
   23.0443   48.7315   18.9231 C   0  0  0  0  0  0  0  0  0  0  0  0
   19.5603   50.6735   20.1240 C   0  0  2  0  0  0  0  0  0  0  0  0
   17.1496   54.6507   22.9684 C   0  0  2  0  0  0  0  0  0  0  0  0
   21.8067   48.4994   18.2394 C   0  0  0  0  0  0  0  0  0  0  0  0
   16.6017   58.1567   25.5020 O   0  0  0  0  0  0  0  0  0  0  0  0
   23.5604   47.3059   17.9549 C   0  0  0  0  0  0  0  0  0  0  0  0
   16.4521   57.1079   26.1166 C   0  0  0  0  0  0  0  0  0  0  0  0
   16.0286   57.2292   27.2764 O   0  0  0  0  0  0  0  0  0  0  0  0
   24.8825   47.4464   18.4158 C   0  0  0  0  0  0  0  0  0  0  0  0
   16.8415   55.9140   23.8319 C   0  0  0  0  0  0  0  0  0  0  0  0
   25.0072   45.7802   18.8319 C   0  0  0  0  0  0  0  0  0  0  0  0
   16.8099   55.8291   25.2004 C   0  0  0  0  0  0  0  0  0  0  0  0
   20.5187   51.4621   21.0311 C   0  0  0  0  0  0  0  0  0  0  0  0
   20.8434   49.5537   19.5887 C   0  0  0  0  0  0  0  0  0  0  0  0
   21.8088   49.9465   20.3005 C   0  0  0  0  0  0  0  0  0  0  0  0
  3  1  1  0
  4  2  1  0
  4  3  1  1
  6  1  1  0
  7  2  1  1
  7  4  1  0
  8  5  1  0
 10  5  1  0
 11  9  2  0
 12 11  1  0
 13 10  1  0
 14  7  1  0
 15 13  1  0
 16 11  1  0
 16 14  2  3
 17  1  1  0
  6 17  1  1
 18  6  1  0
 18  8  1  0
 19 18  2  3
M  END
>  <ID>  (1) 
conformer_0

$$$$
