
     RDKit          3D

 18 17  0  0  0  0  0  0  0  0999 V2000
   18.9441   53.0228   21.1478 C   0  0  0  0  0  0  0  0  0  0  0  0
   19.3735   51.1099   20.0895 C   0  0  0  0  0  0  0  0  0  0  0  0
   20.6090   49.8839   19.8167 C   0  0  0  0  0  0  0  0  0  0  0  0
   20.3557   51.6520   20.8357 C   0  0  0  0  0  0  0  0  0  0  0  0
   19.5199   53.5388   21.9873 C   0  0  0  0  0  0  0  0  0  0  0  0
   21.8361   49.7585   20.3016 C   0  0  0  0  0  0  0  0  0  0  0  0
   17.5350   54.3447   22.5644 C   0  0  0  0  0  0  0  0  0  0  0  0
   22.0583   48.9443   18.7357 C   0  0  0  0  0  0  0  0  0  0  0  0
   16.1498   57.1465   25.6854 C   0  0  0  0  0  0  0  0  0  0  0  0
   16.1526   58.1531   25.3036 O   0  0  0  0  0  0  0  0  0  0  0  0
   23.3278   48.5379   18.7268 C   0  0  0  0  0  0  0  0  0  0  0  0
   16.0570   57.0476   26.8085 O   0  0  0  0  0  0  0  0  0  0  0  0
   25.0460   47.2005   18.4464 C   0  0  0  0  0  0  0  0  0  0  0  0
   16.5243   56.1336   23.5128 C   0  0  0  0  0  0  0  0  0  0  0  0
   25.0495   45.6946   18.9527 C   0  0  0  0  0  0  0  0  0  0  0  0
   18.4563   55.0566   22.8006 C   0  0  0  0  0  0  0  0  0  0  0  0
   17.3249   55.7970   24.6093 C   0  0  0  0  0  0  0  0  0  0  0  0
   23.5897   47.2992   17.8866 C   0  0  0  0  0  0  0  0  0  0  0  0
  3  2  1  0
  4  1  1  0
  4  2  1  0
  5  1  1  0
  6  3  1  0
  8  6  1  0
 10  9  2  0
 11  8  1  0
 12  9  1  0
 15 13  1  0
 16  5  1  0
 16  7  1  0
 17  9  1  0
 17 14  1  0
 17 16  1  0
 18 11  1  0
 18 13  1  0
M  END
>  <ID>  (1) 
conformer_0

$$$$
