
     RDKit          3D

 17 16  0  0  0  0  0  0  0  0999 V2000
   19.7144   53.2819   21.8277 C   0  0  0  0  0  0  0  0  0  0  0  0
   20.6090   49.1931   19.8294 C   0  0  0  0  0  0  0  0  0  0  0  0
   19.5675   50.8933   20.3613 C   0  0  0  0  0  0  0  0  0  0  0  0
   19.4469   52.4802   20.9266 C   0  0  0  0  0  0  0  0  0  0  0  0
   18.2039   53.9791   22.1889 C   0  0  0  0  0  0  0  0  0  0  0  0
   22.1500   48.9426   19.8222 C   0  0  0  0  0  0  0  0  0  0  0  0
   18.6490   55.1950   22.6453 C   0  0  0  0  0  0  0  0  0  0  0  0
   22.2917   48.4002   18.3073 C   0  0  0  0  0  0  0  0  0  0  0  0
   16.4755   57.2381   25.5793 C   0  0  0  0  0  0  0  0  0  0  0  0
   16.1826   58.3408   25.2618 O   0  0  0  0  0  0  0  0  0  0  0  0
   16.0628   56.9540   26.5959 O   0  0  0  0  0  0  0  0  0  0  0  0
   23.8352   48.0984   18.6500 C   0  0  0  0  0  0  0  0  0  0  0  0
   17.9339   56.0366   23.5469 C   0  0  0  0  0  0  0  0  0  0  0  0
   24.2460   47.0595   18.0659 C   0  0  0  0  0  0  0  0  0  0  0  0
   16.9617   56.3664   24.3550 C   0  0  0  0  0  0  0  0  0  0  0  0
   24.9072   46.0416   19.0370 C   0  0  0  0  0  0  0  0  0  0  0  0
   20.8837   50.6435   20.5538 C   0  0  0  0  0  0  0  0  0  0  0  0
  4  1  1  0
  4  3  1  0
  5  1  1  0
  6  2  1  0
  7  5  1  0
  8  6  1  0
 10  9  2  0
 11  9  1  0
 12  8  1  0
 13  7  2  0
 14 12  1  0
 15  9  1  0
 15 13  2  0
 16 14  1  0
 17  2  1  0
 17  3  1  0
M  END
>  <ID>  (1) 
conformer_0

$$$$
