
     RDKit          3D

 17 16  0  0  0  0  0  0  0  0999 V2000
   19.5915   51.5265   20.5247 C   0  0  0  0  0  0  0  0  0  0  0  0
   19.8434   52.5497   21.1332 C   0  0  0  0  0  0  0  0  0  0  0  0
   19.4334   53.8399   21.6976 C   0  0  0  0  0  0  0  0  0  0  0  0
   23.3420   47.8137   17.9327 C   0  0  0  0  0  0  0  0  0  0  0  0
   20.2436   49.6931   19.9967 C   0  0  0  0  0  0  0  0  0  0  0  0
   22.1983   48.7638   18.6809 C   0  0  0  0  0  0  0  0  0  0  0  0
   18.3216   54.2143   22.2196 C   0  0  0  0  0  0  0  0  0  0  0  0
   16.4813   57.0057   25.9960 C   0  0  0  0  0  0  0  0  0  0  0  0
   16.2426   58.0896   25.4540 O   0  0  0  0  0  0  0  0  0  0  0  0
   15.3730   56.6925   27.1390 O   0  0  0  0  0  0  0  0  0  0  0  0
   18.1880   55.4542   22.9897 C   0  0  0  0  0  0  0  0  0  0  0  0
   24.6277   47.8537   18.3814 C   0  0  0  0  0  0  0  0  0  0  0  0
   16.8753   55.6986   23.5494 C   0  0  0  0  0  0  0  0  0  0  0  0
   24.8481   46.3554   18.4715 C   0  0  0  0  0  0  0  0  0  0  0  0
   17.4712   55.9881   25.1749 C   0  0  0  0  0  0  0  0  0  0  0  0
   21.1543   50.4264   20.5440 C   0  0  1  0  0  0  0  0  0  0  0  0
   22.4544   49.3195   19.7944 C   0  0  0  0  0  0  0  0  0  0  0  0
  2  1  1  0
  3  2  1  0
  6  4  1  0
  7  3  2  3
  9  8  2  0
 10  8  1  0
 11  7  1  0
 12  4  1  0
 13 11  1  0
 14 12  1  0
 15  8  1  0
 15 13  1  0
 16  1  1  0
 16  5  1  1
 17  6  2  3
 17 16  1  0
M  END
>  <ID>  (1) 
conformer_0

$$$$
