
     RDKit          3D

 18 18  0  0  0  0  0  0  0  0999 V2000
   19.3671   51.4266   20.4024 C   0  0  0  0  0  0  0  0  0  0  0  0
   19.5322   53.8501   21.8100 C   0  0  0  0  0  0  0  0  0  0  0  0
   20.6782   49.8082   19.7566 C   0  0  0  0  0  0  0  0  0  0  0  0
   18.2731   53.5212   21.5761 C   0  0  0  0  0  0  0  0  0  0  0  0
   22.3242   49.3596   19.6851 C   0  0  0  0  0  0  0  0  0  0  0  0
   18.3016   55.0696   22.7510 C   0  0  0  0  0  0  0  0  0  0  0  0
   22.0245   48.5984   18.2144 C   0  0  0  0  0  0  0  0  0  0  0  0
   17.1664   55.2026   22.9184 C   0  0  0  0  0  0  0  0  0  0  0  0
   23.4693   48.0745   18.3993 C   0  0  0  0  0  0  0  0  0  0  0  0
   17.3287   58.1292   25.6550 O   0  0  0  0  0  0  0  0  0  0  0  0
   16.7380   57.2326   25.8000 C   0  0  0  0  0  0  0  0  0  0  0  0
   16.0976   57.2031   26.7322 O   0  0  0  0  0  0  0  0  0  0  0  0
   24.2243   46.9873   18.1784 C   0  0  0  0  0  0  0  0  0  0  0  0
   16.5886   56.1644   24.2250 C   0  0  0  0  0  0  0  0  0  0  0  0
   25.0049   45.9766   18.9123 C   0  0  0  0  0  0  0  0  0  0  0  0
   17.4633   55.7800   25.3420 C   0  0  0  0  0  0  0  0  0  0  0  0
   20.0453   52.3549   21.1979 C   0  0  0  0  0  0  0  0  0  0  0  0
   21.0536   50.6463   20.6382 C   0  0  0  0  0  0  0  0  0  0  0  0
  4  2  1  0
  5  3  1  0
  6  4  1  0
  7  5  1  0
  8  6  1  0
  9  7  1  0
 11 10  1  0
 12 11  1  0
 13  9  1  0
 14  8  1  0
 14 11  1  0
 15 13  1  0
 16 11  1  0
 16 14  1  0
 17  1  1  0
 17  2  1  0
 18  1  1  0
 18  3  1  0
M  END
>  <ID>  (1) 
conformer_0

$$$$
