
     RDKit          3D

 19 20  0  0  0  0  0  0  0  0999 V2000
   22.4751   49.0221   19.5352 C   0  0  1  0  0  0  0  0  0  0  0  0
   19.9914   51.9944   20.9250 C   0  0  0  0  0  0  0  0  0  0  0  0
   21.0949   50.1231   20.3708 C   0  0  1  0  0  0  0  0  0  0  0  0
   19.8184   50.8353   20.0409 C   0  0  0  0  0  0  0  0  0  0  0  0
   22.2615   48.2233   18.1688 C   0  0  2  0  0  0  0  0  0  0  0  0
   18.9696   52.8575   21.1763 C   0  0  0  0  0  0  0  0  0  0  0  0
   24.2510   48.1098   18.7105 C   0  0  0  0  0  0  0  0  0  0  0  0
   18.9403   53.9906   21.9835 C   0  0  0  0  0  0  0  0  0  0  0  0
   24.1969   46.9007   18.2242 C   0  0  0  0  0  0  0  0  0  0  0  0
   16.7235   57.4271   26.4309 C   0  0  0  0  0  0  0  0  0  0  0  0
   16.3422   58.3152   25.1625 O   0  0  0  0  0  0  0  0  0  0  0  0
   17.6550   54.4298   22.2237 C   0  0  0  0  0  0  0  0  0  0  0  0
   25.1757   45.9163   18.9179 C   0  0  0  0  0  0  0  0  0  0  0  0
   17.5755   55.6429   23.1108 C   0  0  0  0  0  0  0  0  0  0  0  0
   15.8665   57.5355   27.2422 O   0  0  0  0  0  0  0  0  0  0  0  0
   20.7981   49.3061   18.8400 C   0  0  2  0  0  0  0  0  0  0  0  0
   17.3527   56.5047   25.7641 C   0  0  0  0  0  0  0  0  0  0  0  0
   17.8566   56.1862   24.1651 C   0  0  0  0  0  0  0  0  0  0  0  0
   17.1759   58.2820   26.9688 O   0  0  0  0  0  0  0  0  0  0  0  0
  1  3  1  1
  4  2  1  0
  3  4  1  6
  5  1  1  0
  6  2  2  3
  5  7  1  6
  8  6  1  0
  9  7  1  0
 11 10  1  0
 12  8  1  0
 13  9  1  0
 14 12  1  0
 15 10  1  0
 16  1  1  0
 16  3  1  1
 16  5  1  0
 17 10  1  0
 18 14  1  0
 18 17  1  0
 19 10  1  0
M  END
>  <ID>  (1) 
conformer_0

$$$$
