
     RDKit          3D

 18 19  0  0  0  0  0  0  0  0999 V2000
   19.7869   52.8055   21.3740 C   0  0  0  0  0  0  0  0  0  0  0  0
   20.6635   50.8293   20.6254 C   0  0  0  0  0  0  0  0  0  0  0  0
   19.3185   51.9402   20.3608 C   0  0  0  0  0  0  0  0  0  0  0  0
   19.9272   49.9927   19.6779 C   0  0  0  0  0  0  0  0  0  0  0  0
   21.3657   48.9321   19.0714 C   0  0  0  0  0  0  0  0  0  0  0  0
   19.1642   53.7634   22.0191 C   0  0  0  0  0  0  0  0  0  0  0  0
   23.0164   47.9173   17.8406 C   0  0  0  0  0  0  0  0  0  0  0  0
   17.9655   54.5289   21.8589 C   0  0  0  0  0  0  0  0  0  0  0  0
   16.5518   57.2451   26.1832 C   0  0  0  0  0  0  0  0  0  0  0  0
   16.1763   58.1041   25.5548 O   0  0  0  0  0  0  0  0  0  0  0  0
   16.9068   57.7485   27.1531 O   0  0  0  0  0  0  0  0  0  0  0  0
   17.9058   55.3530   23.0767 C   0  0  0  0  0  0  0  0  0  0  0  0
   24.5886   47.8140   18.3905 C   0  0  0  0  0  0  0  0  0  0  0  0
   17.1833   56.0049   25.2442 C   0  0  0  0  0  0  0  0  0  0  0  0
   21.9889   49.8093   20.4788 C   0  0  0  0  0  0  0  0  0  0  0  0
   24.6144   46.4882   18.2988 C   0  0  0  0  0  0  0  0  0  0  0  0
   16.8861   56.1273   23.6652 C   0  0  0  0  0  0  0  0  0  0  0  0
   23.0421   48.9421   19.3122 C   0  0  0  0  0  0  0  0  0  0  0  0
  3  1  1  0
  3  2  1  0
  4  2  1  0
  5  4  1  0
  6  1  1  0
  8  6  1  0
 10  9  2  0
 11  9  1  0
 12  8  1  0
 13  7  1  0
 14  9  1  0
 15  2  1  0
 15  5  1  0
 16 13  1  0
 17 12  1  0
 17 14  1  0
 18  5  1  0
 18  7  1  0
 18 15  1  0
M  END
>  <ID>  (1) 
conformer_0

$$$$
