
     RDKit          3D

 16 15  0  0  0  0  0  0  0  0999 V2000
   20.8549   49.7929   19.8687 C   0  0  0  0  0  0  0  0  0  0  0  0
   20.0048   50.6955   20.2463 C   0  0  0  0  0  0  0  0  0  0  0  0
   19.7498   51.8756   20.7299 C   0  0  0  0  0  0  0  0  0  0  0  0
   18.8211   54.0058   22.1507 C   0  0  0  0  0  0  0  0  0  0  0  0
   22.2782   49.4851   19.6882 C   0  0  0  0  0  0  0  0  0  0  0  0
   19.5344   53.1095   21.5055 C   0  0  0  0  0  0  0  0  0  0  0  0
   22.5447   48.5559   18.5161 C   0  0  0  0  0  0  0  0  0  0  0  0
   17.9751   54.7430   22.9047 C   0  0  0  0  0  0  0  0  0  0  0  0
   16.2802   57.3331   25.7541 C   0  0  0  0  0  0  0  0  0  0  0  0
   16.0932   57.5472   26.8964 O   0  0  0  0  0  0  0  0  0  0  0  0
   16.1139   58.2220   25.2140 O   0  0  0  0  0  0  0  0  0  0  0  0
   17.0181   55.4375   23.6675 C   0  0  0  0  0  0  0  0  0  0  0  0
   24.1215   47.0700   18.0577 C   0  0  0  0  0  0  0  0  0  0  0  0
   16.8383   56.0609   24.7515 C   0  0  0  0  0  3  0  0  0  0  0  0
   25.0110   46.0994   18.8884 C   0  0  0  0  0  0  0  0  0  0  0  0
   24.1324   48.3122   18.8376 C   0  0  0  0  0  0  0  0  0  0  0  0
  2  1  2  3
  3  2  1  0
  5  1  1  0
  6  3  3  0
  6  4  1  0
  7  5  1  0
  8  4  3  0
 10  9  1  0
 11  9  2  0
 12  8  1  0
 14  9  1  0
 14 12  2  3
 15 13  1  0
 16  7  1  0
 16 13  1  0
M  RAD  1  14   2
M  END
>  <ID>  (1) 
conformer_0

$$$$
