
     RDKit          3D

 19 19  0  0  0  0  0  0  0  0999 V2000
   18.8304   54.2338   21.9311 C   0  0  0  0  0  0  0  0  0  0  0  0
   18.4862   53.5384   20.9608 C   0  0  0  0  0  0  0  0  0  0  0  0
   19.9070   52.5848   21.1712 C   0  0  0  0  0  0  0  0  0  0  0  0
   19.3237   51.5719   20.2187 C   0  0  0  0  0  0  0  0  0  0  0  0
   21.3846   49.2470   18.7934 C   0  0  0  0  0  0  0  0  0  0  0  0
   17.2888   55.0188   22.1831 C   0  0  0  0  0  0  0  0  0  0  0  0
   22.8761   48.1041   18.1914 C   0  0  0  0  0  0  0  0  0  0  0  0
   17.6004   54.9659   23.4951 C   0  0  0  0  0  0  0  0  0  0  0  0
   24.8812   47.0756   18.3345 C   0  0  0  0  0  0  0  0  0  0  0  0
   16.1217   57.5931   26.9699 O   0  0  0  0  0  0  0  0  0  0  0  0
   16.5336   57.4378   25.8976 C   0  0  0  0  0  0  0  0  0  0  0  0
   16.8277   58.4299   25.3336 O   0  0  0  0  0  0  0  0  0  0  0  0
   16.6205   56.1357   24.0634 C   0  0  0  0  0  0  0  0  0  0  0  0
   24.6620   45.9429   19.1053 C   0  0  0  0  0  0  0  0  0  0  0  0
   17.2589   56.0064   25.4839 C   0  0  0  0  0  0  0  0  0  0  0  0
   23.9368   48.3214   18.9967 C   0  0  0  0  0  0  0  0  0  0  0  0
   19.9096   49.8611   19.6635 C   0  0  0  0  0  0  0  0  0  0  0  0
   22.2001   49.3274   19.9240 C   0  0  0  0  0  0  0  0  0  0  0  0
   20.7891   50.5883   20.6030 C   0  0  0  0  0  0  0  0  0  0  0  0
  2  1  1  0
  3  2  1  0
  4  3  1  0
  6  1  1  0
  7  5  1  0
  8  6  1  0
 11 10  1  0
 12 11  2  0
 13  8  1  0
 14  9  1  0
 15 11  1  0
 15 13  1  0
 16  7  1  0
 16  9  1  0
 17  4  1  0
 17  5  1  0
 18  5  1  0
 19  4  1  0
 19 17  1  0
M  END
>  <ID>  (1) 
conformer_0

$$$$
