
     RDKit          3D

 14 13  0  0  0  0  0  0  0  0999 V2000
   19.6901   51.8758   20.6831 C   0  0  0  0  0  0  0  0  0  0  0  0
   22.3981   49.2428   19.5962 C   0  0  0  0  0  0  0  0  0  0  0  0
   18.9490   54.1431   21.9159 C   0  0  0  0  0  0  0  0  0  0  0  0
   19.4940   53.1500   21.3417 C   0  0  0  0  0  0  0  0  0  0  0  0
   20.2493   50.5954   20.3535 C   0  0  0  0  0  0  0  0  0  0  0  0
   21.3373   49.8244   20.1928 C   0  0  0  0  0  0  0  0  0  0  0  0
   18.4849   55.4034   22.6118 C   0  0  0  0  0  0  0  0  0  0  0  0
   23.2848   48.4407   18.5688 C   0  0  0  0  0  0  0  0  0  0  0  0
   17.3271   55.3683   23.5160 C   0  0  0  0  0  0  0  0  0  0  0  0
   24.1489   47.5312   18.0990 C   0  0  0  0  0  0  0  0  0  0  0  0
   16.2469   58.1094   25.9471 O   0  0  0  0  0  0  0  0  0  0  0  0
   16.2821   57.1323   26.1037 C   0  0  0  0  0  0  0  0  0  0  0  0
   16.5384   55.8843   24.9863 C   0  0  0  0  0  0  0  0  0  0  0  0
   24.8512   46.3931   18.6991 C   0  0  0  0  0  0  0  0  0  0  0  0
  4  1  1  0
  4  3  3  0
  5  1  1  0
  6  2  1  0
  6  5  1  0
  7  3  1  0
  8  2  3  0
  9  7  1  0
 10  8  1  0
 12 11  2  0
 13  9  1  0
 13 12  1  0
 14 10  1  0
M  END
>  <ID>  (1) 
conformer_0

$$$$
