
     RDKit          3D

 18 17  0  0  0  0  0  0  0  0999 V2000
   18.9608   53.2057   21.5036 C   0  0  0  0  0  0  0  0  0  0  0  0
   20.1259   51.9731   20.9335 C   0  0  0  0  0  0  0  0  0  0  0  0
   21.3228   49.9207   20.2452 C   0  0  0  0  0  0  0  0  0  0  0  0
   19.3232   51.2258   20.2655 C   0  0  0  0  0  0  0  0  0  0  0  0
   20.4122   50.0301   19.4992 C   0  0  0  0  0  0  0  0  0  0  0  0
   18.3675   55.4988   22.8718 C   0  0  0  0  0  0  0  0  0  0  0  0
   22.3918   48.5416   18.2783 C   0  0  0  0  0  0  0  0  0  0  0  0
   19.5588   53.8494   22.1166 C   0  0  0  0  0  0  0  0  0  0  0  0
   16.1989   57.9559   25.4860 O   0  0  0  0  0  0  0  0  0  0  0  0
   16.3436   56.7118   27.0984 O   0  0  0  0  0  0  0  0  0  0  0  0
   16.3652   56.8142   25.9196 C   0  0  0  0  0  0  0  0  0  0  0  0
   24.1891   48.0048   18.4643 C   0  0  0  0  0  0  0  0  0  0  0  0
   17.5473   54.4326   22.8271 C   0  0  0  0  0  0  0  0  0  0  0  0
   24.2718   46.7652   18.1769 C   0  0  0  0  0  0  0  0  0  0  0  0
   16.4032   55.4463   23.8189 C   0  0  0  0  0  0  0  0  0  0  0  0
   25.2466   45.8332   18.9639 C   0  0  0  0  0  0  0  0  0  0  0  0
   17.2558   55.8020   25.0826 C   0  0  0  0  0  0  0  0  0  0  0  0
   22.5860   49.0878   19.4563 C   0  0  0  0  0  0  0  0  0  0  0  0
  2  1  1  0
  4  2  1  0
  5  3  1  0
  5  4  1  0
  8  1  1  0
  8  6  1  0
 11  9  2  0
 11 10  1  0
 12  7  1  0
 13  6  1  0
 14 12  1  0
 15 13  1  0
 16 14  1  0
 17 11  1  0
 17 15  1  0
 18  3  1  0
 18  7  1  0
M  END
>  <ID>  (1) 
conformer_0

$$$$
