
     RDKit          3D

 19 18  0  0  0  0  0  0  0  0999 V2000
   19.1461   51.4868   19.9979 C   0  0  0  0  0  0  0  0  0  0  0  0
   18.4814   53.2789   21.3776 C   0  0  0  0  0  0  0  0  0  0  0  0
   24.4899   47.6237   18.1266 C   0  0  0  0  0  0  0  0  0  0  0  0
   19.0619   54.4726   22.1484 C   0  0  0  0  0  0  0  0  0  0  0  0
   20.1045   50.9497   20.5490 C   0  0  0  0  0  0  0  0  0  0  0  0
   22.7228   48.8785   19.3398 C   0  0  0  0  0  0  0  0  0  0  0  0
   17.3577   54.9509   22.3425 C   0  0  0  0  0  0  0  0  0  0  0  0
   24.1105   46.6820   18.8361 C   0  0  0  0  0  0  0  0  0  0  0  0
   17.6572   55.5470   23.3750 C   0  0  0  0  0  0  0  0  0  0  0  0
   16.4842   57.3374   25.4346 C   0  0  0  0  0  0  0  0  0  0  0  0
   16.1242   57.2019   26.6958 O   0  0  0  0  0  0  0  0  0  0  0  0
   16.5212   58.4447   25.2283 O   0  0  0  0  0  0  0  0  0  0  0  0
   16.3364   56.6045   23.6824 C   0  0  0  0  0  0  0  0  0  0  0  0
   25.3211   45.6981   19.0713 C   0  0  0  0  0  0  0  0  0  0  0  0
   17.4462   56.0414   25.4206 C   0  0  0  0  0  0  0  0  0  0  0  0
   20.5390   49.6669   19.1507 C   0  0  0  0  0  0  0  0  0  0  0  0
   22.4638   48.2667   18.0684 C   0  0  0  0  0  0  0  0  0  0  0  0
   21.5498   49.9377   20.0903 C   0  0  0  0  0  0  0  0  0  0  0  0
   19.8502   52.8819   21.2341 C   0  0  0  0  0  0  0  0  0  0  0  0
  4  2  1  0
  5  1  1  0
  7  4  1  0
  8  3  1  0
  9  7  1  0
 11 10  1  0
 12 10  1  0
 13  9  1  0
 13 10  1  0
 14  8  1  0
 15 10  1  0
 17  3  1  0
 17  6  1  0
 18  5  1  0
 18  6  1  0
 18 16  1  0
 19  1  1  0
 19  2  1  0
M  END
>  <ID>  (1) 
conformer_0

$$$$
