
     RDKit          3D

 18 18  0  0  0  0  0  0  0  0999 V2000
   23.2873   48.6628   18.9343 C   0  0  0  0  0  0  0  0  0  0  0  0
   17.6590   54.4165   22.2161 C   0  0  0  0  0  0  0  0  0  0  0  0
   19.1828   53.4016   21.7881 C   0  0  0  0  0  0  0  0  0  0  0  0
   18.2012   55.2989   22.6699 C   0  0  0  0  0  0  0  0  0  0  0  0
   20.5549   50.0727   20.0590 C   0  0  0  0  0  0  0  0  0  0  0  0
   21.9776   48.9970   18.9904 C   0  0  0  0  0  0  0  0  0  0  0  0
   16.7119   56.3785   23.5792 C   0  0  0  0  0  0  0  0  0  0  0  0
   23.3647   47.4321   17.8779 C   0  0  0  0  0  0  0  0  0  0  0  0
   16.5476   56.7879   25.9697 C   0  0  0  0  0  0  0  0  0  0  0  0
   16.3921   58.2105   25.4002 O   0  0  0  0  0  0  0  0  0  0  0  0
   24.9005   47.2016   18.4388 C   0  0  0  0  0  0  0  0  0  0  0  0
   17.5049   55.5871   24.6346 C   0  0  0  0  0  0  0  0  0  0  0  0
   24.9464   45.8247   18.8731 C   0  0  0  0  0  0  0  0  0  0  0  0
   16.4222   57.1837   27.2184 O   0  0  0  0  0  0  0  0  0  0  0  0
   20.3604   51.7209   20.8826 C   0  0  0  0  0  0  0  0  0  0  0  0
   19.2462   51.2905   20.1478 C   0  0  0  0  0  0  0  0  0  0  0  0
   18.4284   52.9810   20.8237 C   0  0  0  0  0  0  0  0  0  0  0  0
   21.9852   50.0408   20.3178 C   0  0  0  0  0  0  0  0  0  0  0  0
  3  2  1  0
  4  2  1  0
  6  1  1  0
  7  4  1  0
  8  1  1  0
 10  9  2  0
 11  8  1  0
 12  7  1  0
 12  9  1  0
 13 11  1  0
 14  9  1  0
 15  5  1  0
 16  5  1  0
 16 15  1  0
 17  3  1  0
 17 16  1  0
 18  5  1  0
 18  6  1  0
M  END
>  <ID>  (1) 
conformer_0

$$$$
