
     RDKit          3D

 19 21  0  0  0  0  0  0  0  0999 V2000
   21.6694   48.8102   18.7699 C   0  0  0  0  0  0  0  0  0  0  0  0
   19.1964   51.3309   20.5630 C   0  0  0  0  0  0  0  0  0  0  0  0
   21.8377   49.4620   20.2416 C   0  0  0  0  0  0  0  0  0  0  0  0
   19.9614   49.5529   20.2726 C   0  0  0  0  0  0  0  0  0  0  0  0
   17.8078   54.7868   23.1767 C   0  0  0  0  0  0  0  0  0  0  0  0
   17.8358   55.0750   22.0644 C   0  0  0  0  0  0  0  0  0  0  0  0
   23.2228   48.6616   18.9681 C   0  0  0  0  0  0  0  0  0  0  0  0
   16.7350   56.2516   23.6336 C   0  0  0  0  0  0  0  0  0  0  0  0
   16.4314   57.1219   25.6606 C   0  0  0  0  0  0  0  0  0  0  0  0
   16.2221   58.1634   25.1825 O   0  0  0  0  0  0  0  0  0  0  0  0
   16.1341   57.0651   26.7867 O   0  0  0  0  0  0  0  0  0  0  0  0
   23.3658   47.5805   17.9686 C   0  0  0  0  0  0  0  0  0  0  0  0
   17.3127   55.8118   24.9748 C   0  0  0  0  0  0  0  0  0  0  0  0
   24.9828   47.6813   18.4394 C   0  0  0  0  0  0  0  0  0  0  0  0
   24.7962   46.1254   18.8018 C   0  0  0  0  0  0  0  0  0  0  0  0
   20.9757   50.6818   20.7242 C   0  0  0  0  0  0  0  0  0  0  0  0
   20.0648   52.3977   21.3275 C   0  0  0  0  0  0  0  0  0  0  0  0
   19.5076   53.9351   21.8540 C   0  0  0  0  0  0  0  0  0  0  0  0
   18.3343   53.2428   21.2057 C   0  0  0  0  0  0  0  0  0  0  0  0
  3  1  1  0
  4  2  1  0
  4  3  1  0
  6  5  1  0
  7  1  1  0
  8  5  1  0
 10  9  2  0
 11  9  1  0
 12  7  1  0
 13  8  1  0
 13  9  1  0
 14 12  1  0
 15 14  1  0
 16  2  1  0
 16  3  1  0
 16  4  1  0
 17  2  1  0
 18  6  1  0
 18 17  1  0
 19 17  1  0
 19 18  1  0
M  END
>  <ID>  (1) 
conformer_0

$$$$
