
     RDKit          3D

 18 17  0  0  0  0  0  0  0  0999 V2000
   20.6517   49.9382   20.1016 C   0  0  0  0  0  0  0  0  0  0  0  0
   21.9679   48.9485   18.8102 C   0  0  0  0  0  0  0  0  0  0  0  0
   18.6562   52.5535   20.5676 C   0  0  0  0  0  0  0  0  0  0  0  0
   18.3346   54.1537   22.0970 C   0  0  0  0  0  0  0  0  0  0  0  0
   19.4228   50.8244   19.6682 C   0  0  0  0  0  0  0  0  0  0  0  0
   21.8844   49.9480   20.3150 C   0  0  0  0  0  0  0  0  0  0  0  0
   17.1204   55.8634   23.8069 C   0  0  0  0  0  0  0  0  0  0  0  0
   23.4231   48.9510   19.1770 C   0  0  0  0  0  0  0  0  0  0  0  0
   17.9820   54.9566   23.0500 C   0  0  0  0  0  0  0  0  0  0  0  0
   17.4211   57.9961   25.9032 O   0  0  0  0  0  0  0  0  0  0  0  0
   16.5908   56.8335   26.0233 C   0  0  0  0  0  0  0  0  0  0  0  0
   16.1281   57.0429   26.9263 O   0  0  0  0  0  0  0  0  0  0  0  0
   23.5081   47.5808   17.9953 C   0  0  0  0  0  0  0  0  0  0  0  0
   17.0333   55.6386   25.2258 C   0  0  0  0  0  0  0  0  0  0  0  0
   24.9209   46.1349   18.6760 C   0  0  0  0  0  0  0  0  0  0  0  0
   25.0429   47.8045   18.5648 C   0  0  0  0  0  0  0  0  0  0  0  0
   20.0180   51.7690   20.7601 C   0  0  0  0  0  0  0  0  0  0  0  0
   19.5370   53.5430   21.7758 C   0  0  0  0  0  0  0  0  0  0  0  0
  5  1  1  0
  6  1  1  0
  6  2  1  0
  8  2  1  0
  9  4  2  0
  9  7  2  0
 11 10  2  0
 12 11  1  0
 13  8  1  0
 14  7  1  0
 14 11  1  0
 16 13  1  0
 16 15  1  0
 17  3  1  0
 17  5  1  0
 18  3  1  0
 18  4  1  0
M  END
>  <ID>  (1) 
conformer_0

$$$$
