
     RDKit          3D

 19 18  0  0  0  0  0  0  0  0999 V2000
   18.4868   53.7108   21.7833 C   0  0  0  0  0  0  0  0  0  0  0  0
   19.6294   53.6432   21.9430 C   0  0  0  0  0  0  0  0  0  0  0  0
   22.0343   49.6316   20.0533 C   0  0  0  0  0  0  0  0  0  0  0  0
   18.6792   52.2547   20.4749 C   0  0  0  0  0  0  0  0  0  0  0  0
   20.7063   49.5632   20.1710 C   0  0  0  0  0  0  0  0  0  0  0  0
   20.1912   51.7515   21.0066 C   0  0  0  0  0  0  0  0  0  0  0  0
   17.7922   54.9129   22.9801 C   0  0  1  0  0  0  0  0  0  0  0  0
   22.1124   48.5344   18.8122 C   0  0  0  0  0  0  0  0  0  0  0  0
   16.2135   57.2902   25.6685 C   0  0  0  0  0  0  0  0  0  0  0  0
   16.0680   58.3637   25.2205 O   0  0  0  0  0  0  0  0  0  0  0  0
   15.7889   57.1737   26.8503 O   0  0  0  0  0  0  0  0  0  0  0  0
   23.8047   47.3389   17.9030 C   0  0  0  0  0  0  0  0  0  0  0  0
   18.6738   55.8437   22.8246 C   0  0  0  0  0  0  0  0  0  0  0  0
   25.0235   46.7153   18.6067 C   0  0  0  0  0  0  0  0  0  0  0  0
   16.6409   56.4862   23.7185 C   0  0  0  0  0  0  0  0  0  0  0  0
   25.0804   45.4635   19.0944 C   0  0  0  0  0  0  0  0  0  0  0  0
   17.2807   56.0569   24.9722 C   0  0  0  0  0  0  0  0  0  0  0  0
   23.6489   48.4693   18.8646 C   0  0  0  0  0  0  0  0  0  0  0  0
   19.7050   50.5817   20.0922 C   0  0  0  0  0  0  0  0  0  0  0  0
  2  1  2  3
  4  1  1  0
  5  3  1  0
  6  4  1  0
  7  1  1  0
  8  3  1  0
 10  9  2  0
 11  9  1  0
  7 13  1  6
 14 12  1  0
 15  7  1  0
 16 14  2  3
 17  9  1  0
 17 15  1  0
 18  8  1  0
 18 12  1  0
 19  5  1  0
 19  6  1  0
M  END
>  <ID>  (1) 
conformer_0

$$$$
