
     RDKit          3D

 19 18  0  0  0  0  0  0  0  0999 V2000
   21.3337   49.6905   20.6196 C   0  0  0  0  0  0  0  0  0  0  0  0
   19.5976   53.0882   21.6694 C   0  0  0  0  0  0  0  0  0  0  0  0
   18.7815   52.5445   20.7035 C   0  0  0  0  0  0  0  0  0  0  0  0
   20.2634   51.4310   20.6126 C   0  0  0  0  0  0  0  0  0  0  0  0
   17.8112   54.1628   22.3089 C   0  0  0  0  0  0  0  0  0  0  0  0
   22.9289   48.8333   19.4332 C   0  0  0  0  0  0  0  0  0  0  0  0
   18.8097   54.7207   21.8312 C   0  0  0  0  0  0  0  0  0  0  0  0
   23.0201   48.2563   18.1858 C   0  0  0  0  0  0  0  0  0  0  0  0
   16.0325   57.9754   24.8493 O   0  0  0  0  0  0  0  0  0  0  0  0
   16.2699   57.7085   26.7416 O   0  0  0  0  0  0  0  0  0  0  0  0
   16.3626   57.2887   25.5818 C   0  0  0  0  0  0  0  0  0  0  0  0
   24.1152   46.5453   18.3858 C   0  0  0  0  0  0  0  0  0  0  0  0
   17.7677   55.8597   23.1401 C   0  0  0  0  0  0  0  0  0  0  0  0
   24.8718   47.7036   18.4078 C   0  0  0  0  0  0  0  0  0  0  0  0
   16.9712   55.2203   24.2041 C   0  0  0  0  0  0  0  0  0  0  0  0
   25.3297   45.6550   19.0973 C   0  0  0  0  0  0  0  0  0  0  0  0
   17.2282   56.0019   25.4378 C   0  0  0  0  0  0  0  0  0  0  0  0
   21.3270   49.2037   19.4267 C   0  0  0  0  0  0  0  0  0  0  0  0
   19.5439   50.2723   20.2240 C   0  0  0  0  0  0  0  0  0  0  0  0
  3  2  1  0
  4  3  1  0
  7  2  1  0
  7  5  1  0
  8  6  1  0
 11  9  2  0
 11 10  1  0
 13  5  1  0
 14  8  1  0
 14 12  1  0
 15 13  1  0
 16 12  1  0
 17 11  1  0
 17 15  1  0
 18  1  1  0
 18  6  1  0
 19  1  1  0
 19  4  1  0
M  END
>  <ID>  (1) 
conformer_0

$$$$
