
     RDKit          3D

 19 18  0  0  0  0  0  0  0  0999 V2000
   18.9562   52.1717   20.5474 C   0  0  0  0  0  0  0  0  0  0  0  0
   19.5679   50.6674   20.0923 C   0  0  0  0  0  0  0  0  0  0  0  0
   20.9094   50.5444   20.4676 C   0  0  0  0  0  0  0  0  0  0  0  0
   22.5367   49.1320   19.6405 C   0  0  0  0  0  0  0  0  0  0  0  0
   18.1699   53.7578   21.8591 C   0  0  0  0  0  0  0  0  0  0  0  0
   19.9438   52.7266   21.3823 C   0  0  0  0  0  0  0  0  0  0  0  0
   22.7030   48.3818   18.2589 C   0  0  0  0  0  0  0  0  0  0  0  0
   19.2405   54.3562   22.1704 C   0  0  0  0  0  0  0  0  0  0  0  0
   24.0385   47.7525   18.3390 C   0  0  0  0  0  0  0  0  0  0  0  0
   17.5591   55.5957   22.4211 C   0  0  0  0  0  0  0  0  0  0  0  0
   16.5742   57.2823   27.0956 O   0  0  0  0  0  0  0  0  0  0  0  0
   16.7785   57.2316   25.9274 C   0  0  0  0  0  0  0  0  0  0  0  0
   16.6748   58.3172   25.5307 O   0  0  0  0  0  0  0  0  0  0  0  0
   16.4464   56.6253   23.7968 C   0  0  0  0  0  0  0  0  0  0  0  0
   25.2018   45.7103   19.0978 C   0  0  0  0  0  0  0  0  0  0  0  0
   17.9668   55.7104   23.7883 C   0  0  0  0  0  0  0  0  0  0  0  0
   24.3246   46.5388   18.1498 C   0  0  0  0  0  0  0  0  0  0  0  0
   17.6425   56.1287   25.5419 C   0  0  0  0  0  0  0  0  0  0  0  0
   21.0991   49.3843   19.5544 C   0  0  0  0  0  0  0  0  0  0  0  0
  2  1  1  0
  3  2  1  0
  6  1  1  0
  7  4  1  0
  8  5  1  0
  8  6  1  0
  9  7  1  0
 10  5  1  0
 12 11  1  0
 13 12  2  0
 16 10  1  0
 16 14  1  0
 17  9  1  0
 17 15  1  0
 18 12  1  0
 18 16  1  0
 19  3  1  0
 19  4  1  0
M  END
>  <ID>  (1) 
conformer_0

$$$$
