
     RDKit          3D

 18 20  0  0  0  0  0  0  0  0999 V2000
   19.6937   52.6895   21.3555 C   0  0  0  0  0  0  0  0  0  0  0  0
   19.8930   49.9508   19.9046 C   0  0  2  0  0  0  0  0  0  0  0  0
   19.1828   53.9605   21.7922 C   0  0  0  0  0  0  0  0  0  0  0  0
   19.2112   51.6688   20.4910 C   0  0  2  0  0  0  0  0  0  0  0  0
   20.8757   50.8130   20.6792 C   0  0  2  0  0  0  0  0  0  0  0  0
   17.9605   54.1105   22.2310 C   0  0  0  0  0  0  0  0  0  0  0  0
   21.6088   49.4908   19.8799 C   0  0  1  0  0  0  0  0  0  0  0  0
   16.6178   57.1433   25.6920 C   0  0  0  0  0  0  0  0  0  0  0  0
   16.2865   58.1803   25.0048 O   0  0  0  0  0  0  0  0  0  0  0  0
   16.4820   57.4998   26.8471 O   0  0  0  0  0  0  0  0  0  0  0  0
   22.3961   48.6119   18.4428 C   0  0  2  0  0  0  0  0  0  0  0  0
   17.7014   55.2581   23.0713 C   0  0  0  0  0  0  0  0  0  0  0  0
   23.8590   47.4063   17.9457 C   0  0  2  0  0  0  0  0  0  0  0  0
   16.4332   55.2938   23.6626 C   0  0  0  0  0  0  0  0  0  0  0  0
   24.7708   46.4962   18.7463 C   0  0  0  0  0  0  0  0  0  0  0  0
   17.0401   55.7689   25.1631 C   0  0  0  0  0  0  0  0  0  0  0  0
   24.1600   48.5469   18.9758 C   0  0  0  0  0  0  0  0  0  0  0  0
   22.9149   49.8976   20.0643 C   0  0  0  0  0  0  0  0  0  0  0  0
  3  1  1  0
  4  1  1  1
  2  4  1  6
  5  2  1  0
  5  4  1  6
  6  3  1  0
  7  2  1  0
  7  5  1  0
  9  8  2  0
 10  8  1  0
 11  7  1  0
 12  6  2  3
 13 11  1  0
 14 12  1  0
 13 15  1  1
 16  8  1  0
 16 14  1  0
 11 17  1  6
 17 13  1  0
  7 18  1  1
M  END
>  <ID>  (1) 
conformer_0

$$$$
