
     RDKit          3D

 19 19  0  0  0  0  0  0  0  0999 V2000
   17.9433   53.9815   22.3432 C   0  0  0  0  0  0  0  0  0  0  0  0
   21.9952   49.6573   20.0516 C   0  0  0  0  0  0  0  0  0  0  0  0
   19.4650   53.3047   21.5929 C   0  0  0  0  0  0  0  0  0  0  0  0
   20.9277   49.5518   19.5048 C   0  0  0  0  0  0  0  0  0  0  0  0
   19.3756   51.0204   19.9244 C   0  0  0  0  0  0  0  0  0  0  0  0
   18.8876   52.5923   20.7719 C   0  0  0  0  0  0  0  0  0  0  0  0
   22.7102   48.4133   18.0250 C   0  0  0  0  0  0  0  0  0  0  0  0
   18.4829   54.8377   22.7034 C   0  0  0  0  0  0  0  0  0  0  0  0
   16.6894   58.1714   25.8151 O   0  0  0  0  0  0  0  0  0  0  0  0
   16.2694   57.1720   26.3699 C   0  0  0  0  0  0  0  0  0  0  0  0
   16.6045   57.1999   27.4097 O   0  0  0  0  0  0  0  0  0  0  0  0
   23.2062   48.8194   19.2038 C   0  0  0  0  0  0  0  0  0  0  0  0
   17.1704   55.2534   24.3475 C   0  0  0  0  0  0  0  0  0  0  0  0
   23.9913   46.8580   17.9489 C   0  0  0  0  0  0  0  0  0  0  0  0
   16.0421   56.6295   24.7527 C   0  0  0  0  0  0  0  0  0  0  0  0
   24.9152   47.7742   18.4881 C   0  0  0  0  0  0  0  0  0  0  0  0
   25.1559   45.8109   18.9027 C   0  0  0  0  0  0  0  0  0  0  0  0
   16.6578   55.9080   23.1955 C   0  0  0  0  0  0  0  0  0  0  0  0
   20.3895   50.9481   20.5175 C   0  0  0  0  0  0  0  0  0  0  0  0
  3  1  1  0
  4  2  1  0
  6  3  1  0
  6  5  1  0
  8  1  1  0
 10  9  2  0
 11 10  1  0
 12  2  1  0
 12  7  1  0
 13  8  1  0
 14  7  1  0
 15 10  1  0
 15 13  1  0
 16 14  1  0
 17 14  1  0
 18 13  1  0
 18 15  1  0
 19  4  1  0
 19  5  1  0
M  END
>  <ID>  (1) 
conformer_0

$$$$
