
     RDKit          3D

 18 17  0  0  0  0  0  0  0  0999 V2000
   18.6291   54.7527   22.6771 C   0  0  0  0  0  0  0  0  0  0  0  0
   20.5725   49.8995   19.6346 C   0  0  0  0  0  0  0  0  0  0  0  0
   19.7285   53.2817   21.8266 C   0  0  0  0  0  0  0  0  0  0  0  0
   20.2555   51.5924   20.8224 C   0  0  0  0  0  0  0  0  0  0  0  0
   22.5283   48.4938   18.1650 C   0  0  0  0  0  0  0  0  0  0  0  0
   17.4736   54.9458   22.8120 C   0  0  0  0  0  0  0  0  0  0  0  0
   22.7127   48.9219   19.1816 C   0  0  0  0  0  0  0  0  0  0  0  0
   21.5852   50.0203   20.1241 C   0  0  0  0  0  0  0  0  0  0  0  0
   16.4388   57.0326   26.1567 C   0  0  0  0  0  0  0  0  0  0  0  0
   16.4653   58.0390   25.8998 O   0  0  0  0  0  0  0  0  0  0  0  0
   15.5476   56.8263   26.9611 O   0  0  0  0  0  0  0  0  0  0  0  0
   24.6392   47.8905   18.2993 C   0  0  0  0  0  0  0  0  0  0  0  0
   17.1168   56.1572   23.9682 C   0  0  0  0  0  0  0  0  0  0  0  0
   23.9038   46.8609   17.9719 C   0  0  0  0  0  0  0  0  0  0  0  0
   17.3370   55.7216   25.2674 C   0  0  0  0  0  0  0  0  0  0  0  0
   25.0712   45.8633   18.8713 C   0  0  0  0  0  0  0  0  0  0  0  0
   18.5448   53.4191   21.3266 C   0  0  0  0  0  0  0  0  0  0  0  0
   19.2175   51.3713   20.3126 C   0  0  0  0  0  0  0  0  0  0  0  0
  4  2  1  0
  4  3  1  0
  6  1  1  0
  7  5  1  0
  8  2  1  0
  8  7  1  0
 10  9  2  0
 11  9  1  0
 13  6  1  0
 14  5  1  0
 14 12  1  0
 15  9  1  0
 15 13  1  0
 16 14  1  0
 17  1  1  0
 17  3  1  0
 18  4  2  3
M  END
>  <ID>  (1) 
conformer_0

$$$$
