
     RDKit          3D

 16 15  0  0  0  0  0  0  0  0999 V2000
   20.1693   49.3953   19.7429 C   0  0  0  0  0  0  0  0  0  0  0  0
   19.6299   51.7651   20.5170 C   0  0  0  0  0  0  0  0  0  0  0  0
   19.8452   53.1238   21.2896 C   0  0  0  0  0  0  0  0  0  0  0  0
   23.3075   47.9722   18.1153 C   0  0  0  0  0  0  0  0  0  0  0  0
   20.5357   50.7673   20.3988 C   0  0  0  0  0  0  0  0  0  0  0  0
   18.8665   53.9162   21.7742 C   0  0  0  0  0  0  0  0  0  0  0  0
   21.8537   48.5908   18.5880 C   0  0  0  0  0  0  0  0  0  0  0  0
   18.3020   54.9011   22.4680 C   0  0  0  0  0  0  0  0  0  0  0  0
   24.5344   47.6766   18.4981 C   0  0  0  0  0  0  0  0  0  0  0  0
   17.3316   55.2423   23.6219 C   0  0  0  0  0  0  0  0  0  0  0  0
   16.5006   58.4012   25.5702 O   0  0  0  0  0  0  0  0  0  0  0  0
   16.6758   57.6094   26.1954 C   0  0  0  0  0  0  0  0  0  0  0  0
   17.4725   55.9594   24.7867 C   0  0  0  0  0  0  0  0  0  0  0  0
   24.7470   46.1721   18.5967 C   0  0  0  0  0  0  0  0  0  0  0  0
   16.8766   56.6536   26.4355 C   0  0  0  0  0  0  0  0  0  0  0  0
   22.0773   49.3191   19.7355 C   0  0  0  0  0  0  0  0  0  0  0  0
  3  2  1  0
  5  1  1  0
  5  2  2  3
  6  3  2  0
  7  4  1  0
  8  6  2  0
  9  4  1  0
 10  8  1  0
 12 11  1  0
 13 10  2  3
 14  9  1  0
 15 12  1  0
 15 13  1  0
 16  1  1  0
 16  7  1  0
M  END
>  <ID>  (1) 
conformer_0

$$$$
