
     RDKit          3D

 16 15  0  0  0  0  0  0  0  0999 V2000
   19.2048   51.5247   20.4223 C   0  0  0  0  0  0  0  0  0  0  0  0
   20.4335   50.8703   20.4064 C   0  0  0  0  0  0  0  0  0  0  0  0
   20.5800   49.8363   19.6577 C   0  0  0  0  0  0  0  0  0  0  0  0
   19.5977   52.8736   21.3725 C   0  0  0  0  0  0  0  0  0  0  0  0
   22.1846   49.4202   19.7879 C   0  0  0  0  0  0  0  0  0  0  0  0
   18.4692   53.6790   21.6299 C   0  0  0  0  0  0  0  0  0  0  0  0
   22.4208   48.6573   18.6116 C   0  0  0  0  0  0  0  0  0  0  0  0
   16.4902   57.0599   25.7766 C   0  0  0  0  0  0  0  0  0  0  0  0
   16.2661   58.0822   25.0403 O   0  0  0  0  0  0  0  0  0  0  0  0
   16.1509   57.2264   27.3242 O   0  0  0  0  0  0  0  0  0  0  0  0
   18.1919   54.6401   22.4733 C   0  0  0  0  0  0  0  0  0  0  0  0
   24.8930   47.4892   18.6056 C   0  0  0  0  0  0  0  0  0  0  0  0
   17.3069   55.4808   23.1031 C   0  0  0  0  0  0  0  0  0  0  0  0
   23.5962   47.8643   18.3556 C   0  0  0  0  0  0  0  0  0  0  0  0
   17.2308   55.8281   24.6258 C   0  0  0  0  0  0  0  0  0  0  0  0
   24.8942   46.0297   18.8993 C   0  0  0  0  0  0  0  0  0  0  0  0
  2  1  1  0
  3  2  1  0
  4  1  1  0
  5  3  1  0
  6  4  1  0
  7  5  1  0
  9  8  2  0
 10  8  1  0
 11  6  2  3
 13 11  1  0
 14  7  1  0
 14 12  1  0
 15  8  1  0
 15 13  2  3
 16 12  1  0
M  END
>  <ID>  (1) 
conformer_0

$$$$
