
     RDKit          3D

 18 18  0  0  0  0  0  0  0  0999 V2000
   21.1397   49.6872   19.7116 C   0  0  0  0  0  0  0  0  0  0  0  0
   21.5405   50.2297   20.6604 C   0  0  0  0  0  0  0  0  0  0  0  0
   19.5811   50.8444   20.2803 C   0  0  0  0  0  0  0  0  0  0  0  0
   18.0215   54.9988   23.3402 C   0  0  0  0  0  0  0  0  0  0  0  0
   17.8234   54.5312   22.1455 C   0  0  0  0  0  0  0  0  0  0  0  0
   19.2927   53.7538   21.9266 C   0  0  0  0  0  0  0  0  0  0  0  0
   20.1212   51.8785   20.9750 C   0  0  0  0  0  0  0  0  0  0  0  0
   16.1639   57.1735   25.6769 C   0  0  0  0  0  0  0  0  0  0  0  0
   15.8487   58.1615   25.2045 O   0  0  0  0  0  0  0  0  0  0  0  0
   16.1578   56.9273   26.8175 O   0  0  0  0  0  0  0  0  0  0  0  0
   16.8867   56.1253   23.7073 C   0  0  0  0  0  0  0  0  0  0  0  0
   23.0519   49.1596   19.5865 C   0  0  0  0  0  0  0  0  0  0  0  0
   17.3357   56.2353   24.9875 C   0  0  0  0  0  0  0  0  0  0  0  0
   24.9457   48.0111   18.5523 C   0  0  0  0  0  0  0  0  0  0  0  0
   24.9858   46.2135   18.7116 C   0  0  0  0  0  0  0  0  0  0  0  0
   23.7174   47.4461   18.0301 C   0  0  0  0  0  0  0  0  0  0  0  0
   22.5066   48.6794   18.3731 C   0  0  0  0  0  0  0  0  0  0  0  0
   18.7096   52.8602   21.0656 C   0  0  0  0  0  0  0  0  0  0  0  0
  2  1  1  0
  3  1  1  0
  5  4  1  0
  6  5  1  0
  7  3  1  0
  9  8  2  0
 10  8  1  0
 11  4  1  0
 12  1  1  0
 13  8  1  0
 13 11  1  0
 15 14  1  0
 16 14  1  0
 16 15  1  0
 17 12  1  0
 17 16  1  0
 18  6  1  0
 18  7  1  0
M  END
>  <ID>  (1) 
conformer_0

$$$$
