
     RDKit          3D

 19 20  0  0  0  0  0  0  0  0999 V2000
   19.1701   51.6517   20.3678 C   0  0  0  0  0  0  0  0  0  0  0  0
   19.6857   54.0640   22.1883 C   0  0  0  0  0  0  0  0  0  0  0  0
   19.7779   50.2022   20.2265 C   0  0  0  0  0  0  0  0  0  0  0  0
   20.0232   52.3166   21.2413 C   0  0  0  0  0  0  0  0  0  0  0  0
   21.2174   50.2339   20.4301 C   0  0  0  0  0  0  0  0  0  0  0  0
   18.6063   55.6034   23.1879 C   0  0  0  0  0  0  0  0  0  0  0  0
   21.2413   49.2835   19.2989 C   0  0  0  0  0  0  0  0  0  0  0  0
   17.0400   55.7949   24.0179 C   0  0  0  0  0  0  0  0  0  0  0  0
   22.7842   48.9420   19.3303 C   0  0  0  0  0  0  0  0  0  0  0  0
   16.4846   57.2202   25.7293 C   0  0  0  0  0  0  0  0  0  0  0  0
   16.0665   58.0993   25.2755 O   0  0  0  0  0  0  0  0  0  0  0  0
   16.3859   57.1621   26.9787 O   0  0  0  0  0  0  0  0  0  0  0  0
   24.0310   46.8959   18.0390 C   0  0  0  0  0  0  0  0  0  0  0  0
   17.7510   56.2715   25.2234 C   0  0  0  0  0  0  0  0  0  0  0  0
   24.6775   47.8321   18.4722 C   0  0  0  0  0  0  0  0  0  0  0  0
   25.1593   45.8128   18.9447 C   0  0  0  0  0  0  0  0  0  0  0  0
   18.6621   53.5008   21.5273 C   0  0  0  0  0  0  0  0  0  0  0  0
   17.8029   54.3921   22.9714 C   0  0  0  0  0  0  0  0  0  0  0  0
   22.7180   48.3960   18.0135 C   0  0  0  0  0  0  0  0  0  0  0  0
  3  1  1  0
  4  1  1  0
  5  3  1  0
  7  3  1  0
  7  5  1  0
  8  6  1  0
  9  7  1  0
 11 10  2  0
 12 10  1  0
 14  8  1  0
 14 10  1  0
 15 13  1  0
 16 13  1  0
 17  2  1  0
 17  4  1  0
 18  6  1  0
 18  8  1  0
 18 17  1  0
 19  9  1  0
 19 13  1  0
M  END
>  <ID>  (1) 
conformer_0

$$$$
