
     RDKit          3D

 19 19  0  0  0  0  0  0  0  0999 V2000
   17.1875   54.9704   23.0013 C   0  0  0  0  0  0  0  0  0  0  0  0
   21.1287   49.3052   20.1837 C   0  0  0  0  0  0  0  0  0  0  0  0
   18.9673   52.2209   20.4153 C   0  0  0  0  0  0  0  0  0  0  0  0
   19.6446   50.4370   20.0662 C   0  0  0  0  0  0  0  0  0  0  0  0
   18.3529   53.6255   21.7681 C   0  0  0  0  0  0  0  0  0  0  0  0
   22.1665   49.7786   19.9717 C   0  0  0  0  0  0  0  0  0  0  0  0
   18.4112   54.7877   22.8854 C   0  0  0  0  0  0  0  0  0  0  0  0
   22.2318   48.6934   18.2766 C   0  0  0  0  0  0  0  0  0  0  0  0
   16.4223   57.2790   25.6476 C   0  0  0  0  0  0  0  0  0  0  0  0
   16.1799   58.4268   25.2620 O   0  0  0  0  0  0  0  0  0  0  0  0
   23.7551   47.5085   17.7390 C   0  0  0  0  0  0  0  0  0  0  0  0
   16.4023   57.3628   26.7939 O   0  0  0  0  0  0  0  0  0  0  0  0
   25.1515   47.1549   18.5023 C   0  0  0  0  0  0  0  0  0  0  0  0
   16.4066   56.5942   23.9179 C   0  0  0  0  0  0  0  0  0  0  0  0
   24.9319   45.7136   18.9958 C   0  0  0  0  0  0  0  0  0  0  0  0
   17.3944   55.7520   24.7658 C   0  0  0  0  0  0  0  0  0  0  0  0
   20.5071   51.3333   20.8320 C   0  0  0  0  0  0  0  0  0  0  0  0
   19.6444   53.2243   21.6808 C   0  0  0  0  0  0  0  0  0  0  0  0
   23.4886   48.3657   19.0817 C   0  0  0  0  0  0  0  0  0  0  0  0
  4  2  1  0
  4  3  1  0
  6  2  1  0
  7  1  1  0
  7  5  1  0
  8  6  1  0
 10  9  2  0
 12  9  1  0
 13 11  1  0
 14  9  1  0
 15 13  1  0
 16  1  1  0
 16 14  1  0
 17  3  1  0
 17  4  1  0
 18  3  1  0
 18  5  1  0
 19  8  1  0
 19 11  1  0
M  END
>  <ID>  (1) 
conformer_0

$$$$
