
     RDKit          3D

 19 20  0  0  0  0  0  0  0  0999 V2000
   22.1688   49.7395   20.1544 C   0  0  0  0  0  0  0  0  0  0  0  0
   18.3591   53.5114   21.4382 C   0  0  0  0  0  0  0  0  0  0  0  0
   20.3899   49.6483   19.8284 C   0  0  0  0  0  0  0  0  0  0  0  0
   19.2541   51.4389   20.3898 C   0  0  0  0  0  0  0  0  0  0  0  0
   19.2786   53.9805   22.0301 C   0  0  0  0  0  0  0  0  0  0  0  0
   21.7406   48.6312   18.5962 C   0  0  0  0  0  0  0  0  0  0  0  0
   18.0041   55.5135   22.4234 C   0  0  0  0  0  0  0  0  0  0  0  0
   23.2967   48.8510   19.0184 C   0  0  0  0  0  0  0  0  0  0  0  0
   17.3867   54.7043   23.4780 C   0  0  0  0  0  0  0  0  0  0  0  0
   16.2057   57.3698   25.5847 C   0  0  0  0  0  0  0  0  0  0  0  0
   15.9303   58.1573   24.7963 O   0  0  0  0  0  0  0  0  0  0  0  0
   15.9948   57.6272   26.5553 O   0  0  0  0  0  0  0  0  0  0  0  0
   23.3772   47.4360   18.0773 C   0  0  0  0  0  0  0  0  0  0  0  0
   16.8486   55.7941   25.6995 C   0  0  0  0  0  0  0  0  0  0  0  0
   24.7957   47.2461   18.5320 C   0  0  0  0  0  0  0  0  0  0  0  0
   24.8738   45.7268   18.9536 C   0  0  0  0  0  0  0  0  0  0  0  0
   20.0261   52.4839   21.2057 C   0  0  0  0  0  0  0  0  0  0  0  0
   20.8074   50.7210   20.6419 C   0  0  0  0  0  0  0  0  0  0  0  0
   16.9539   56.1316   24.1085 C   0  0  0  0  0  0  0  0  0  0  0  0
  3  1  1  0
  5  2  1  0
  6  1  1  0
  7  5  1  0
  8  1  1  0
  8  6  1  0
  9  7  1  0
 11 10  2  0
 12 10  1  0
 13  8  1  0
 14 10  1  0
 15 13  1  0
 16 15  1  0
 17  4  1  0
 17  5  1  0
 18  1  1  0
 18  3  1  0
 18  4  1  0
 19  9  1  0
 19 14  1  0
M  END
>  <ID>  (1) 
conformer_0

$$$$
