
     RDKit          3D

 18 17  0  0  0  0  0  0  0  0999 V2000
   20.0500   50.7174   20.4414 C   0  0  0  0  0  0  0  0  0  0  0  0
   17.1500   56.1351   23.7668 C   0  0  0  0  0  0  0  0  0  0  0  0
   19.7087   53.0224   21.6148 C   0  0  0  0  0  0  0  0  0  0  0  0
   19.7451   52.0185   20.5376 C   0  0  0  0  0  0  0  0  0  0  0  0
   21.5255   50.3109   20.5745 C   0  0  0  0  0  0  0  0  0  0  0  0
   17.1885   54.6666   23.2243 C   0  0  0  0  0  0  0  0  0  0  0  0
   18.4767   54.6872   22.5277 C   0  0  0  0  0  0  0  0  0  0  0  0
   23.1293   49.0503   19.4457 C   0  0  0  0  0  0  0  0  0  0  0  0
   16.1937   58.2626   25.0986 O   0  0  0  0  0  0  0  0  0  0  0  0
   16.7475   57.2445   25.6894 C   0  0  0  0  0  0  0  0  0  0  0  0
   16.5689   57.4542   26.7469 O   0  0  0  0  0  0  0  0  0  0  0  0
   24.9152   47.6843   18.5996 C   0  0  0  0  0  0  0  0  0  0  0  0
   17.1970   55.7467   25.1449 C   0  0  0  0  0  0  0  0  0  0  0  0
   25.0074   45.9185   18.8266 C   0  0  0  0  0  0  0  0  0  0  0  0
   23.6804   47.4820   18.0837 C   0  0  0  0  0  0  0  0  0  0  0  0
   21.3961   49.3550   19.7190 C   0  0  0  0  0  0  0  0  0  0  0  0
   22.2460   48.6178   18.0928 C   0  0  0  0  0  0  0  0  0  0  0  0
   18.3629   53.5887   21.5021 C   0  0  0  0  0  0  0  0  0  0  0  0
  4  1  1  0
  4  3  1  0
  5  1  1  0
  6  2  1  0
  7  6  1  0
 10  9  2  0
 11 10  1  0
 13  2  1  0
 13 10  1  0
 14 12  1  0
 15 12  1  0
 16  5  1  0
 16  8  1  0
 17  8  1  0
 17 15  1  0
 18  3  1  0
 18  7  1  0
M  END
>  <ID>  (1) 
conformer_0

$$$$
