
     RDKit          3D

 19 19  0  0  0  0  0  0  0  0999 V2000
   20.3594   49.8593   20.7470 C   0  0  0  0  0  0  0  0  0  0  0  0
   18.7890   52.4940   20.6332 C   0  0  0  0  0  0  0  0  0  0  0  0
   19.5995   50.6625   19.5571 C   0  0  0  0  0  0  0  0  0  0  0  0
   19.5191   53.3318   21.8278 C   0  0  0  0  0  0  0  0  0  0  0  0
   19.0949   54.4964   21.8793 C   0  0  0  0  0  0  0  0  0  0  0  0
   21.9310   49.9309   20.3182 C   0  0  0  0  0  0  0  0  0  0  0  0
   16.7082   55.8396   24.0018 C   0  0  0  0  0  0  0  0  0  0  0  0
   21.5509   49.3007   19.0151 C   0  0  0  0  0  0  0  0  0  0  0  0
   16.1226   58.2554   24.9907 O   0  0  0  0  0  0  0  0  0  0  0  0
   16.9788   57.7183   26.8986 O   0  0  0  0  0  0  0  0  0  0  0  0
   23.2272   48.8428   19.0322 C   0  0  0  0  0  0  0  0  0  0  0  0
   16.7920   57.4398   25.7319 C   0  0  0  0  0  0  0  0  0  0  0  0
   23.3477   47.7130   18.1789 C   0  0  0  0  0  0  0  0  0  0  0  0
   17.7605   56.5489   25.1523 C   0  0  0  0  0  0  0  0  0  0  0  0
   24.5488   46.9455   18.3743 C   0  0  0  0  0  0  0  0  0  0  0  0
   18.3765   55.9472   23.2465 C   0  0  0  0  0  0  0  0  0  0  0  0
   24.9193   45.7457   19.0692 C   0  0  0  0  0  0  0  0  0  0  0  0
   17.7569   54.5342   22.7839 C   0  0  0  0  0  0  0  0  0  0  0  0
   20.0806   51.7681   20.6506 C   0  0  0  0  0  0  0  0  0  0  0  0
  3  1  1  0
  4  2  1  0
  5  4  1  0
  6  1  1  0
  8  6  1  0
 11  8  1  0
 12  9  2  0
 12 10  1  0
 13 11  1  0
 14  7  1  0
 14 12  1  0
 15 13  1  0
 16  7  1  0
 17 15  1  0
 18  5  1  0
 18 16  1  0
 19  1  1  0
 19  2  1  0
 19  3  1  0
M  END
>  <ID>  (1) 
conformer_0

$$$$
