
     RDKit          3D

 18 18  0  0  0  0  0  0  0  0999 V2000
   19.9554   50.0751   19.6227 C   0  0  0  0  0  0  0  0  0  0  0  0
   21.8303   49.0915   18.7079 C   0  0  0  0  0  0  0  0  0  0  0  0
   19.6724   53.0172   21.5778 C   0  0  0  0  0  0  0  0  0  0  0  0
   19.0894   54.2352   21.9025 C   0  0  0  0  0  0  0  0  0  0  0  0
   19.2366   52.1441   20.5334 C   0  0  0  0  0  0  0  0  0  0  0  0
   20.2613   50.9386   20.4631 C   0  0  0  0  0  0  0  0  0  0  0  0
   21.6861   49.5039   20.0715 C   0  0  0  0  0  0  0  0  0  0  0  0
   16.3651   56.9348   25.5195 C   0  0  0  0  0  0  0  0  0  0  0  0
   16.0415   58.1051   25.0440 O   0  0  0  0  0  0  0  0  0  0  0  0
   23.4937   47.5488   17.9543 C   0  0  0  0  0  0  0  0  0  0  0  0
   15.7218   56.6284   26.7534 O   0  0  0  0  0  0  0  0  0  0  0  0
   17.7419   54.2219   22.2989 C   0  0  0  0  0  0  0  0  0  0  0  0
   24.9729   47.2412   18.3985 C   0  0  0  0  0  0  0  0  0  0  0  0
   16.4953   54.9870   23.5739 C   0  0  0  0  0  0  0  0  0  0  0  0
   24.8631   45.8620   18.9705 C   0  0  0  0  0  0  0  0  0  0  0  0
   18.2616   55.6718   23.1282 C   0  0  0  0  0  0  0  0  0  0  0  0
   17.1565   55.8041   24.7662 C   0  0  0  0  0  0  0  0  0  0  0  0
   23.3599   48.5710   18.9600 C   0  0  0  0  0  0  0  0  0  0  0  0
  4  3  1  0
  5  3  1  0
  6  1  1  0
  6  5  1  0
  7  1  1  0
  7  2  1  0
  9  8  2  0
 11  8  1  0
 12  4  1  0
 13 10  1  0
 14 12  1  0
 15 13  1  0
 16 12  1  0
 16 14  1  0
 17  8  1  0
 17 14  1  0
 18  2  1  0
 18 10  1  0
M  END
>  <ID>  (1) 
conformer_0

$$$$
