
     RDKit          3D

 14 13  0  0  0  0  0  0  0  0999 V2000
   20.1007   50.6089   20.1900 C   0  0  0  0  0  0  0  0  0  0  0  0
   16.8320   55.0975   23.9974 C   0  0  0  0  0  0  0  0  0  0  0  0
   21.2952   49.9098   19.9021 C   0  0  0  0  0  0  0  0  0  0  0  0
   19.4386   51.8191   20.6988 C   0  0  0  0  0  0  0  0  0  0  0  0
   17.9290   55.0618   23.1167 C   0  0  0  0  0  0  0  0  0  0  0  0
   22.0250   49.1157   18.9130 C   0  0  0  0  0  0  0  0  0  0  0  0
   18.9383   53.0871   21.4285 C   0  0  0  0  0  0  0  0  0  0  0  0
   18.2290   53.9455   22.2606 C   0  0  0  0  0  0  0  0  0  0  0  0
   23.0046   48.2584   18.2756 C   0  0  0  0  0  0  0  0  0  0  0  0
   16.5987   57.3491   25.5656 C   0  0  0  0  0  0  0  0  0  0  0  0
   16.4782   58.5035   25.4308 O   0  0  0  0  0  0  0  0  0  0  0  0
   24.4503   47.7347   18.4910 C   0  0  0  0  0  0  0  0  0  0  0  0
   16.8007   56.3244   24.5060 C   0  0  0  0  0  0  0  0  0  0  0  0
   24.8011   46.2948   18.6083 C   0  0  0  0  0  0  0  0  0  0  0  0
  3  1  1  0
  4  1  1  0
  5  2  1  0
  6  3  2  0
  7  4  1  0
  8  5  1  0
  8  7  3  0
  9  6  2  0
 11 10  2  0
 12  9  1  0
 13  2  1  0
 13 10  1  0
 14 12  1  0
M  END
>  <ID>  (1) 
conformer_0

$$$$
