
     RDKit          3D

 19 19  0  0  0  0  0  0  0  0999 V2000
   17.5611   54.2869   22.4660 C   0  0  0  0  0  0  0  0  0  0  0  0
   18.7589   54.6395   21.9716 C   0  0  0  0  0  0  0  0  0  0  0  0
   21.4892   49.9207   20.5212 C   0  0  0  0  0  0  0  0  0  0  0  0
   19.6104   53.2854   21.8003 C   0  0  0  0  0  0  0  0  0  0  0  0
   20.4442   51.5115   20.8672 C   0  0  0  0  0  0  0  0  0  0  0  0
   19.5183   50.8299   19.9984 C   0  0  0  0  0  0  0  0  0  0  0  0
   17.4184   55.5334   23.4514 C   0  0  0  0  0  0  0  0  0  0  0  0
   22.5308   49.0448   19.6036 C   0  0  0  0  0  0  0  0  0  0  0  0
   16.2037   58.2385   25.3153 O   0  0  0  0  0  0  0  0  0  0  0  0
   16.6248   57.3233   26.1637 C   0  0  0  0  0  0  0  0  0  0  0  0
   24.2456   48.0785   18.4114 C   0  0  0  0  0  0  0  0  0  0  0  0
   16.4573   57.6828   27.3491 O   0  0  0  0  0  0  0  0  0  0  0  0
   24.2659   46.9196   18.0339 C   0  0  0  0  0  0  0  0  0  0  0  0
   16.2818   55.6567   23.7841 C   0  0  0  0  0  0  0  0  0  0  0  0
   25.0633   45.9135   19.0344 C   0  0  0  0  0  0  0  0  0  0  0  0
   17.2185   56.3621   25.7084 C   0  0  0  0  0  0  0  0  0  0  0  0
   20.5064   49.4340   19.4920 C   0  0  0  0  0  0  0  0  0  0  0  0
   22.4943   48.4616   18.2574 C   0  0  0  0  0  0  0  0  0  0  0  0
   19.1017   52.7164   20.7979 C   0  0  0  0  0  0  0  0  0  0  0  0
  2  1  1  0
  4  2  1  0
  5  3  1  0
  6  5  1  0
  7  1  1  0
  8  3  1  0
 10  9  2  0
 12 10  1  0
 13 11  1  0
 14  7  1  0
 15 13  1  0
 16 10  1  0
 16 14  1  0
 17  3  1  0
 17  6  1  0
 18  8  1  0
 18 11  1  0
 19  4  1  0
 19  5  1  0
M  END
>  <ID>  (1) 
conformer_0

$$$$
