
     RDKit          3D

 17 16  0  0  0  0  0  0  0  0999 V2000
   22.3069   49.3459   19.6222 C   0  0  0  0  0  0  0  0  0  0  0  0
   19.9858   50.3500   19.6495 C   0  0  0  0  0  0  0  0  0  0  0  0
   19.4328   53.7349   21.7365 C   0  0  0  0  0  0  0  0  0  0  0  0
   18.0754   55.2755   22.9919 C   0  0  0  0  0  0  0  0  0  0  0  0
   19.2894   52.4112   20.7987 C   0  0  0  0  0  0  0  0  0  0  0  0
   22.4753   48.6127   18.4684 C   0  0  0  0  0  0  0  0  0  0  0  0
   18.2539   54.1040   22.1531 C   0  0  0  0  0  0  0  0  0  0  0  0
   24.1836   48.2680   18.7863 C   0  0  0  0  0  0  0  0  0  0  0  0
   16.8194   57.2935   25.6200 C   0  0  0  0  0  0  0  0  0  0  0  0
   16.6498   58.1734   25.5012 O   0  0  0  0  0  0  0  0  0  0  0  0
   24.1246   47.0771   18.1822 C   0  0  0  0  0  0  0  0  0  0  0  0
   16.8968   55.0352   23.9203 C   0  0  0  0  0  0  0  0  0  0  0  0
   17.0301   57.3924   26.6955 O   0  0  0  0  0  0  0  0  0  0  0  0
   24.9808   45.9632   18.9812 C   0  0  0  0  0  0  0  0  0  0  0  0
   17.1033   56.0120   24.9419 C   0  0  0  0  0  0  0  0  0  0  0  0
   20.2135   51.5468   20.8884 C   0  0  0  0  0  0  0  0  0  0  0  0
   21.2538   49.9069   20.3006 C   0  0  0  0  0  0  0  0  0  0  0  0
  5  3  1  0
  6  1  1  0
  7  3  1  0
  7  4  1  0
  8  6  1  0
 10  9  2  0
 11  8  1  0
 12  4  1  0
 13  9  1  0
 14 11  1  0
 15  9  1  0
 15 12  1  0
 16  2  1  0
 16  5  1  0
 17  1  1  0
 17  2  1  0
M  END
>  <ID>  (1) 
conformer_0

$$$$
