
     RDKit          3D

 15 14  0  0  0  0  0  0  0  0999 V2000
   19.4954   51.0694   20.2406 C   0  0  0  0  0  0  0  0  0  0  0  0
   18.8128   54.1626   22.2953 C   0  0  0  0  0  0  0  0  0  0  0  0
   20.0862   52.2869   21.2425 C   0  0  0  0  0  0  0  0  0  0  0  0
   21.0561   50.3571   20.5297 C   0  0  0  0  0  0  0  0  0  0  0  0
   20.5891   49.5717   19.2706 C   0  0  0  0  0  0  0  0  0  0  0  0
   18.9496   53.1470   21.3990 C   0  0  0  0  0  0  0  0  0  0  0  0
   22.2256   49.0995   19.1672 C   0  0  0  0  0  0  0  0  0  0  0  0
   17.8970   54.9605   22.9584 C   0  0  0  0  0  0  0  0  0  0  0  0
   16.6523   57.3367   25.5001 C   0  0  0  0  0  0  0  0  0  0  0  0
   16.4685   58.1840   25.4191 O   0  0  0  0  0  0  0  0  0  0  0  0
   17.5080   55.8962   23.9939 C   0  0  0  0  0  0  0  0  0  0  0  0
   22.4840   48.3308   18.0865 C   0  0  0  0  0  0  0  0  0  0  0  0
   17.4480   55.7758   25.2580 C   0  0  0  0  0  0  0  0  0  0  0  0
   24.2112   47.7880   18.3796 C   0  0  0  0  0  0  0  0  0  0  0  0
   24.5432   46.5448   18.4923 C   0  0  0  0  0  0  0  0  0  0  0  0
  3  1  1  0
  4  1  1  0
  5  4  1  0
  6  2  1  0
  6  3  1  0
  7  5  1  0
  8  2  2  3
 10  9  1  0
 11  8  1  0
 12  7  1  0
 13  9  1  0
 13 11  1  0
 14 12  1  0
 15 14  2  3
M  END
>  <ID>  (1) 
conformer_0

$$$$
