
     RDKit          3D

 18 17  0  0  0  0  0  0  0  0999 V2000
   19.5841   53.8463   21.9408 C   0  0  0  0  0  0  0  0  0  0  0  0
   20.4321   49.9600   20.2228 C   0  0  0  0  0  0  0  0  0  0  0  0
   18.7684   53.1879   21.2011 C   0  0  0  0  0  0  0  0  0  0  0  0
   21.3960   48.8516   18.9341 C   0  0  0  0  0  0  0  0  0  0  0  0
   17.9496   54.5303   22.5805 C   0  0  0  0  0  0  0  0  0  0  0  0
   22.7955   48.6552   19.1985 C   0  0  0  0  0  0  0  0  0  0  0  0
   18.1785   55.6012   22.7728 C   0  0  0  0  0  0  0  0  0  0  0  0
   24.6419   47.7083   18.4657 C   0  0  0  0  0  0  0  0  0  0  0  0
   16.5150   57.3593   25.6505 C   0  0  0  0  0  0  0  0  0  0  0  0
   15.9556   57.2730   26.5386 O   0  0  0  0  0  0  0  0  0  0  0  0
   16.9130   58.3767   25.5671 O   0  0  0  0  0  0  0  0  0  0  0  0
   16.8734   56.5589   24.1111 C   0  0  0  0  0  0  0  0  0  0  0  0
   24.5213   46.3332   18.5264 C   0  0  0  0  0  0  0  0  0  0  0  0
   17.5557   55.7443   24.8983 C   0  0  0  0  0  0  0  0  0  0  0  0
   22.8516   47.7036   17.8796 C   0  0  0  0  0  0  0  0  0  0  0  0
   19.4183   51.2493   20.2649 C   0  0  0  0  0  0  0  0  0  0  0  0
   21.6202   50.0530   20.4106 C   0  0  0  0  0  0  0  0  0  0  0  0
   20.2451   51.9933   21.1141 C   0  0  0  0  0  0  0  0  0  0  0  0
  3  1  1  0
  5  1  1  0
  6  4  1  0
  7  5  1  0
 10  9  1  0
 11  9  2  0
 12  7  1  0
 12  9  1  0
 13  8  1  0
 14 12  1  0
 15  6  1  0
 15  8  1  0
 16  2  1  0
 17  2  1  0
 17  4  1  0
 18  3  1  0
 18 16  1  0
M  END
>  <ID>  (1) 
conformer_0

$$$$
