
     RDKit          3D

 18 18  0  0  0  0  0  0  0  0999 V2000
   19.6245   54.2836   21.9429 C   0  0  0  0  0  0  0  0  0  0  0  0
   19.9775   52.2951   21.0969 C   0  0  0  0  0  0  0  0  0  0  0  0
   18.6393   53.0956   20.9890 C   0  0  1  0  0  0  0  0  0  0  0  0
   22.7915   49.5558   19.8537 C   0  0  0  0  0  0  0  0  0  0  0  0
   18.1089   54.3835   22.3207 C   0  0  2  0  0  0  0  0  0  0  0  0
   21.3542   50.5413   20.5803 C   0  0  0  0  0  0  0  0  0  0  0  0
   18.4759   55.8148   22.8635 C   0  0  0  0  0  0  0  0  0  0  0  0
   22.5934   48.8278   18.9013 C   0  0  0  0  0  0  0  0  0  0  0  0
   16.1895   57.0291   25.9302 C   0  0  0  0  0  0  0  0  0  0  0  0
   24.8081   47.6822   18.6624 C   0  0  0  0  0  0  0  0  0  0  0  0
   17.3078   55.6306   23.9227 C   0  0  0  0  0  0  0  0  0  0  0  0
   16.8719   57.2559   26.9132 O   0  0  0  0  0  0  0  0  0  0  0  0
   15.7599   57.4887   26.2023 O   0  0  0  0  0  0  0  0  0  0  0  0
   24.9687   46.0256   18.7902 C   0  0  0  0  0  0  0  0  0  0  0  0
   16.5684   56.5503   24.4879 C   0  0  0  0  0  0  0  0  0  0  0  0
   23.5839   47.6684   18.1478 C   0  0  0  0  0  0  0  0  0  0  0  0
   20.5879   49.9609   20.0176 C   0  0  0  0  0  0  0  0  0  0  0  0
   19.2337   51.3440   20.0966 C   0  0  0  0  0  0  0  0  0  0  0  0
  3  1  1  0
  3  2  1  1
  5  1  1  0
  5  3  1  0
  6  4  1  0
  5  7  1  6
  8  4  2  3
 11  7  1  0
 12  9  1  0
 13  9  2  0
 14 10  1  0
 15  9  1  0
 15 11  1  0
 16  8  1  0
 16 10  1  0
 17  6  1  0
 18  2  1  0
 18 17  1  0
M  END
>  <ID>  (1) 
conformer_0

$$$$
