
     RDKit          3D

 18 17  0  0  0  0  0  0  0  0999 V2000
   19.0826   51.9289   20.4212 C   0  0  0  0  0  0  0  0  0  0  0  0
   20.9512   50.6574   20.5431 C   0  0  0  0  0  0  0  0  0  0  0  0
   18.3824   53.6390   21.6434 C   0  0  0  0  0  0  0  0  0  0  0  0
   19.9709   50.5108   19.9546 C   0  0  0  0  0  0  0  0  0  0  0  0
   18.9723   54.3021   22.4419 C   0  0  0  0  0  0  0  0  0  0  0  0
   22.1649   49.7345   20.1392 C   0  0  0  0  0  0  0  0  0  0  0  0
   17.5417   55.3835   24.0709 C   0  0  0  0  0  0  0  0  0  0  0  0
   21.8162   49.0948   18.8362 C   0  0  0  0  0  0  0  0  0  0  0  0
   16.3069   57.0435   25.5519 C   0  0  0  0  0  0  0  0  0  0  0  0
   16.2264   58.3168   25.2700 O   0  0  0  0  0  0  0  0  0  0  0  0
   16.4517   57.0059   26.6873 O   0  0  0  0  0  0  0  0  0  0  0  0
   23.2934   47.8203   17.8490 C   0  0  0  0  0  0  0  0  0  0  0  0
   16.3273   56.4198   24.3836 C   0  0  0  0  0  0  0  0  0  0  0  0
   24.9767   47.4718   18.4239 C   0  0  0  0  0  0  0  0  0  0  0  0
   24.7668   46.1570   18.9031 C   0  0  0  0  0  0  0  0  0  0  0  0
   19.8621   52.6200   21.3940 C   0  0  0  0  0  0  0  0  0  0  0  0
   23.5203   48.6890   19.1206 C   0  0  0  0  0  0  0  0  0  0  0  0
   17.4795   55.3847   22.7142 C   0  0  0  0  0  0  0  0  0  0  0  0
  4  1  1  0
  4  2  1  0
  5  3  1  0
  6  2  1  0
  8  6  1  0
 10  9  2  0
 11  9  1  0
 13  7  1  0
 13  9  1  0
 14 12  1  0
 15 14  1  0
 16  1  1  0
 16  3  1  0
 17  8  1  0
 17 12  1  0
 18  5  1  0
 18  7  1  0
M  END
>  <ID>  (1) 
conformer_0

$$$$
