
     RDKit          3D

 19 18  0  0  0  0  0  0  0  0999 V2000
   19.5789   50.4925   19.8669 C   0  0  0  0  0  0  0  0  0  0  0  0
   19.0030   52.2904   20.5628 C   0  0  0  0  0  0  0  0  0  0  0  0
   17.3248   54.5272   22.6701 C   0  0  0  0  0  0  0  0  0  0  0  0
   20.6649   49.3932   20.2553 C   0  0  0  0  0  0  0  0  0  0  0  0
   21.8425   49.7508   20.2515 C   0  0  0  0  0  0  0  0  0  0  0  0
   18.6452   53.8397   21.6979 C   0  0  0  0  0  0  0  0  0  0  0  0
   21.8235   48.8954   18.5046 C   0  0  0  0  0  0  0  0  0  0  0  0
   18.1174   55.3511   23.1244 C   0  0  0  0  0  0  0  0  0  0  0  0
   23.3298   47.7146   17.7205 C   0  0  0  0  0  0  0  0  0  0  0  0
   16.7643   57.3290   25.9832 C   0  0  0  0  0  0  0  0  0  0  0  0
   16.4983   58.2751   25.7110 O   0  0  0  0  0  0  0  0  0  0  0  0
   16.4744   57.3532   27.0122 O   0  0  0  0  0  0  0  0  0  0  0  0
   24.7602   47.3311   18.3631 C   0  0  0  0  0  0  0  0  0  0  0  0
   17.2590   56.0240   25.2825 C   0  0  0  0  0  0  0  0  0  0  0  0
   24.6015   46.0222   18.9536 C   0  0  0  0  0  0  0  0  0  0  0  0
   19.7072   53.4384   21.9592 C   0  0  0  0  0  0  0  0  0  0  0  0
   20.3760   51.5999   20.8791 C   0  0  0  0  0  0  0  0  0  0  0  0
   16.5977   56.2137   23.9902 C   0  0  0  0  0  0  0  0  0  0  0  0
   23.2263   48.6084   18.9434 C   0  0  0  0  0  0  0  0  0  0  0  0
  4  1  1  0
  5  4  1  0
  6  3  1  0
  7  5  1  0
  8  3  1  0
 11 10  2  0
 12 10  1  0
 13  9  1  0
 14 10  1  0
 15 13  1  0
 16  2  1  0
 16  6  1  0
 17  1  1  0
 17  2  1  0
 18  8  1  0
 18 14  1  0
 19  7  1  0
 19  9  1  0
M  END
>  <ID>  (1) 
conformer_0

$$$$
