
     RDKit          3D

 19 19  0  0  0  0  0  0  0  0999 V2000
   19.5254   53.7023   22.1037 C   0  0  0  0  0  0  0  0  0  0  0  0
   19.9296   50.0569   19.9601 C   0  0  0  0  0  0  0  0  0  0  0  0
   21.2650   50.3696   20.4713 C   0  0  0  0  0  0  0  0  0  0  0  0
   21.5410   49.1149   19.6058 C   0  0  0  0  0  0  0  0  0  0  0  0
   23.0366   49.1279   19.5369 C   0  0  0  0  0  0  0  0  0  0  0  0
   20.0960   52.3290   21.1324 C   0  0  0  0  0  0  0  0  0  0  0  0
   22.8422   48.3973   18.1418 C   0  0  0  0  0  0  0  0  0  0  0  0
   18.3832   55.7915   22.7020 C   0  0  0  0  0  0  0  0  0  0  0  0
   15.9906   58.1633   24.9764 O   0  0  0  0  0  0  0  0  0  0  0  0
   16.2204   57.2193   25.6470 C   0  0  0  0  0  0  0  0  0  0  0  0
   16.1545   57.4385   26.7635 O   0  0  0  0  0  0  0  0  0  0  0  0
   24.7682   47.7905   18.4434 C   0  0  0  0  0  0  0  0  0  0  0  0
   16.7850   56.1386   24.0778 C   0  0  0  0  0  0  0  0  0  0  0  0
   23.9286   46.7334   18.1980 C   0  0  0  0  0  0  0  0  0  0  0  0
   16.9191   55.6119   25.4273 C   0  0  0  0  0  0  0  0  0  0  0  0
   25.1341   45.7925   19.0810 C   0  0  0  0  0  0  0  0  0  0  0  0
   17.3463   54.8242   23.3371 C   0  0  0  0  0  0  0  0  0  0  0  0
   18.6354   54.0868   21.7226 C   0  0  0  0  0  0  0  0  0  0  0  0
   19.3971   51.7444   20.4337 C   0  0  0  0  0  0  0  0  0  0  0  0
  3  2  1  0
  4  2  1  0
  4  3  1  0
  5  4  1  0
  6  1  1  0
  7  5  1  0
 10  9  2  0
 11 10  1  0
 14  7  1  0
 14 12  1  0
 15 10  1  0
 15 13  1  0
 16 14  1  0
 17  8  1  0
 17 13  1  0
 18  1  1  0
 18  8  1  0
 19  2  1  0
 19  6  1  0
M  END
>  <ID>  (1) 
conformer_0

$$$$
