
     RDKit          3D

 15 14  0  0  0  0  0  0  0  0999 V2000
   16.6373   56.1350   23.8611 C   0  0  0  0  0  0  0  0  0  0  0  0
   20.4860   50.2968   20.3872 C   0  0  0  0  0  0  0  0  0  0  0  0
   17.2247   55.6311   24.6192 C   0  0  0  0  0  0  0  0  0  0  0  0
   21.5545   49.5999   20.2206 C   0  0  0  0  0  0  0  0  0  0  0  0
   19.1693   52.8080   20.9941 C   0  0  0  0  0  0  0  0  0  0  0  0
   19.8912   51.5901   20.6307 C   0  0  0  0  0  0  0  0  0  0  0  0
   18.8411   53.8635   21.6984 C   0  0  0  0  0  0  0  0  0  0  0  0
   22.2890   48.9182   19.2254 C   0  0  0  0  0  0  0  0  0  0  0  0
   16.3348   56.7229   25.7592 C   0  0  0  0  0  0  0  0  0  0  0  0
   23.2065   48.1340   18.4651 C   0  0  0  0  0  0  0  0  0  0  0  0
   16.4112   57.0933   26.6733 O   0  0  0  0  0  0  0  0  0  0  0  0
   24.2218   47.2211   18.4091 C   0  0  0  0  0  0  0  0  0  0  0  0
   17.6781   54.4752   22.5680 C   0  0  0  0  0  0  0  0  0  0  0  0
   18.5634   55.7612   22.9499 C   0  0  0  0  0  0  0  0  0  0  0  0
   24.8846   46.0725   18.9021 C   0  0  0  0  0  0  0  0  0  0  0  0
  3  1  1  0
  4  2  1  0
  6  2  1  0
  6  5  3  0
  7  5  1  0
  8  4  2  0
  9  3  1  0
 10  8  2  0
 11  9  1  0
 12 10  1  0
 13  7  1  0
 14  3  1  0
 14 13  1  0
 15 12  1  0
M  END
>  <ID>  (1) 
conformer_0

$$$$
