
     RDKit          3D

 18 17  0  0  0  0  0  0  0  0999 V2000
   20.1251   52.5233   21.1887 C   0  0  0  0  0  0  0  0  0  0  0  0
   22.8816   47.9322   17.9739 C   0  0  0  0  0  0  0  0  0  0  0  0
   19.6514   51.3896   20.2990 C   0  0  0  0  0  0  0  0  0  0  0  0
   18.9603   54.2275   22.2068 C   0  0  0  0  0  0  0  0  0  0  0  0
   17.4279   54.8064   22.2791 C   0  0  0  0  0  0  0  0  0  0  0  0
   17.6901   55.3196   23.6712 C   0  0  0  0  0  0  0  0  0  0  0  0
   22.4371   49.1558   19.5707 C   0  0  0  0  0  0  0  0  0  0  0  0
   16.8940   56.1407   24.3951 C   0  0  0  0  0  0  0  0  0  0  0  0
   24.1963   47.8856   18.4741 C   0  0  0  0  0  0  0  0  0  0  0  0
   16.9564   58.3160   26.1594 O   0  0  0  0  0  0  0  0  0  0  0  0
   16.7166   57.3700   26.3267 C   0  0  0  0  0  0  0  0  0  0  0  0
   24.5715   46.5445   18.4350 C   0  0  0  0  0  0  0  0  0  0  0  0
   17.0085   56.3787   25.9626 C   0  0  0  0  0  0  0  0  0  0  0  0
   16.4895   57.1918   27.3613 O   0  0  0  0  0  0  0  0  0  0  0  0
   20.4078   49.7395   19.5110 C   0  0  0  0  0  0  0  0  0  0  0  0
   21.5469   48.9416   18.1980 C   0  0  2  0  0  0  0  0  0  0  0  0
   21.0541   50.5185   20.4210 C   0  0  0  0  0  0  0  0  0  0  0  0
   18.8184   53.3608   21.2884 C   0  0  0  0  0  0  0  0  0  0  0  0
  3  1  1  0
  5  4  1  0
  6  5  1  0
  8  6  2  3
  9  2  1  0
 11 10  2  0
 12  9  1  0
 13  8  1  0
 13 11  1  0
 14 11  1  0
 16  2  1  0
 16  7  1  1
 16 15  1  0
 17  3  1  0
 17 15  1  0
 18  1  1  0
 18  4  1  0
M  END
>  <ID>  (1) 
conformer_0

$$$$
