
     RDKit          3D

 18 17  0  0  0  0  0  0  0  0999 V2000
   19.5905   53.6606   21.9302 C   0  0  0  0  0  0  0  0  0  0  0  0
   20.5184   50.0512   19.7102 C   0  0  0  0  0  0  0  0  0  0  0  0
   21.6033   50.0856   20.2957 C   0  0  0  0  0  0  0  0  0  0  0  0
   20.2933   51.7067   20.9686 C   0  0  0  0  0  0  0  0  0  0  0  0
   22.5857   49.2108   19.4075 C   0  0  0  0  0  0  0  0  0  0  0  0
   17.8318   54.2895   22.3392 C   0  0  0  0  0  0  0  0  0  0  0  0
   22.3876   48.5037   18.1594 C   0  0  0  0  0  0  0  0  0  0  0  0
   18.0240   55.2731   22.8931 C   0  0  0  0  0  0  0  0  0  0  0  0
   24.0761   48.0693   18.4145 C   0  0  0  0  0  0  0  0  0  0  0  0
   16.6225   58.1414   25.5131 O   0  0  0  0  0  0  0  0  0  0  0  0
   16.7559   57.1946   25.9688 C   0  0  0  0  0  0  0  0  0  0  0  0
   16.5684   57.3427   27.1462 O   0  0  0  0  0  0  0  0  0  0  0  0
   24.2258   46.7845   18.3339 C   0  0  0  0  0  0  0  0  0  0  0  0
   16.6995   55.8434   23.7708 C   0  0  0  0  0  0  0  0  0  0  0  0
   25.0967   45.8029   19.1220 C   0  0  0  0  0  0  0  0  0  0  0  0
   17.3124   55.9903   25.1018 C   0  0  0  0  0  0  0  0  0  0  0  0
   18.8205   53.1331   21.0439 C   0  0  0  0  0  0  0  0  0  0  0  0
   19.2015   51.4203   20.1278 C   0  0  0  0  0  0  0  0  0  0  0  0
  3  2  1  0
  5  3  1  0
  6  1  1  0
  7  5  1  0
  8  6  1  0
  9  7  1  0
 11 10  2  0
 12 11  1  0
 13  9  1  0
 14  8  1  0
 15 13  1  0
 16 11  1  0
 16 14  1  0
 17  1  1  0
 18  2  1  0
 18  4  1  0
 18 17  1  0
M  END
>  <ID>  (1) 
conformer_0

$$$$
