
     RDKit          3D

 16 15  0  0  0  0  0  0  0  0999 V2000
   19.5511   52.8319   21.3273 C   0  0  0  0  0  0  0  0  0  0  0  0
   18.1128   54.8355   22.5809 C   0  0  0  0  0  0  0  0  0  0  0  0
   16.9666   55.7043   23.2177 C   0  0  0  0  0  0  0  0  0  0  0  0
   19.7914   51.7682   20.7007 C   0  0  0  0  0  0  0  0  0  0  0  0
   23.5950   48.1048   18.4464 C   0  0  0  0  0  0  0  0  0  0  0  0
   18.8759   53.9811   21.9959 C   0  0  0  0  0  0  0  0  0  0  0  0
   24.7458   46.6532   18.5862 C   0  0  0  0  0  0  0  0  0  0  0  0
   17.3007   56.0059   24.5792 C   0  0  0  0  0  0  0  0  0  0  0  0
   16.5025   57.2742   25.4444 C   0  0  0  0  0  0  0  0  0  0  0  0
   22.8885   46.5636   20.1989 O   0  0  0  0  0  0  0  0  0  0  0  0
   15.8207   58.2241   24.7341 O   0  0  0  0  0  0  0  0  0  0  0  0
   16.7894   57.9459   26.4743 O   0  0  0  0  0  0  0  0  0  0  0  0
   20.0888   50.4438   19.6262 C   0  0  0  0  0  0  0  0  0  0  0  0
   21.3350   50.4110   20.3642 C   0  0  0  0  0  0  0  0  0  0  0  0
   22.3569   49.2276   19.5249 C   0  0  0  0  0  0  0  0  0  0  0  0
   21.2257   49.0105   18.3854 C   0  0  0  0  0  0  0  0  0  0  0  0
  3  2  1  0
  4  1  3  0
  6  1  1  0
  6  2  3  0
  7  5  1  0
  8  3  1  0
  9  8  1  0
 10  5  1  0
 11  9  2  0
 12  9  1  0
 13  4  1  0
 14 13  1  0
 15  5  1  0
 15 14  1  0
 16 15  1  0
M  END
>  <ID>  (1) 
conformer_0

$$$$
