
     RDKit          3D

 18 18  0  0  0  0  0  0  0  0999 V2000
   20.3812   49.3297   19.9962 C   0  0  0  0  0  0  0  0  0  0  0  0
   19.5698   50.9616   20.3648 C   0  0  1  0  0  0  0  0  0  0  0  0
   23.5458   47.4154   17.9863 C   0  0  0  0  0  0  0  0  0  0  0  0
   20.1586   52.2643   21.1380 C   0  0  0  0  0  0  0  0  0  0  0  0
   19.4158   54.0512   22.0721 C   0  0  0  0  0  0  0  0  0  0  0  0
   22.5163   49.1497   19.7626 C   0  0  0  0  0  0  0  0  0  0  0  0
   22.3574   48.7428   18.6738 C   0  0  0  0  0  0  0  0  0  0  0  0
   17.8239   54.2769   22.4159 C   0  0  0  0  0  0  0  0  0  0  0  0
   17.0831   57.4142   26.1731 C   0  0  0  0  0  0  0  0  0  0  0  0
   16.7684   58.1691   25.6260 O   0  0  0  0  0  0  0  0  0  0  0  0
   18.0049   55.4973   23.2382 C   0  0  0  0  0  0  0  0  0  0  0  0
   24.4766   47.9128   18.5659 C   0  0  0  0  0  0  0  0  0  0  0  0
   16.9305   57.7283   27.1680 O   0  0  0  0  0  0  0  0  0  0  0  0
   17.0702   55.4571   24.3821 C   0  0  0  0  0  0  0  0  0  0  0  0
   24.9569   46.0739   18.6928 C   0  0  0  0  0  0  0  0  0  0  0  0
   17.6908   56.2437   25.5734 C   0  0  0  0  0  0  0  0  0  0  0  0
   18.8730   53.1437   20.9575 C   0  0  0  0  0  0  0  0  0  0  0  0
   21.2815   50.3272   20.5301 C   0  0  2  0  0  0  0  0  0  0  0  0
  2  1  1  0
  2  4  1  1
  7  3  1  0
  7  6  2  3
  8  5  1  0
 10  9  2  0
 11  8  1  0
 12  3  1  0
 13  9  1  0
 14 11  1  0
 15 12  1  0
 16  9  1  0
 16 14  1  0
 17  4  1  0
 17  5  1  0
 18  1  1  1
 18  2  1  0
 18  6  1  0
M  END
>  <ID>  (1) 
conformer_0

$$$$
