
     RDKit          3D

 18 17  0  0  0  0  0  0  0  0999 V2000
   16.7974   56.1719   24.1838 C   0  0  0  0  0  0  0  0  0  0  0  0
   18.3152   55.4386   22.5726 C   0  0  0  0  0  0  0  0  0  0  0  0
   17.5149   54.7481   23.2873 C   0  0  0  0  0  0  0  0  0  0  0  0
   20.3436   49.9357   20.0448 C   0  0  0  0  0  0  0  0  0  0  0  0
   21.3408   50.4200   20.4563 C   0  0  0  0  0  0  0  0  0  0  0  0
   19.3610   51.4762   20.4767 C   0  0  0  0  0  0  0  0  0  0  0  0
   20.0630   52.2231   21.2046 C   0  0  0  0  0  0  0  0  0  0  0  0
   19.6153   53.9673   21.9452 C   0  0  0  0  0  0  0  0  0  0  0  0
   15.8081   57.4077   26.8353 O   0  0  0  0  0  0  0  0  0  0  0  0
   16.6177   58.3994   25.3181 O   0  0  0  0  0  0  0  0  0  0  0  0
   16.3631   57.3254   25.7708 C   0  0  0  0  0  0  0  0  0  0  0  0
   23.2619   47.9063   18.1103 C   0  0  0  0  0  0  0  0  0  0  0  0
   17.1946   55.7557   25.3109 C   0  0  0  0  0  0  0  0  0  0  0  0
   24.6059   47.5430   18.3710 C   0  0  0  0  0  0  0  0  0  0  0  0
   24.7110   46.1364   18.6327 C   0  0  0  0  0  0  0  0  0  0  0  0
   22.5525   49.1298   19.7740 C   0  0  0  0  0  0  0  0  0  0  0  0
   21.8035   48.8793   18.5775 C   0  0  0  0  0  0  0  0  0  0  0  0
   18.5570   53.4912   21.6409 C   0  0  0  0  0  0  0  0  0  0  0  0
  3  1  1  0
  3  2  1  0
  5  4  1  0
  6  4  1  0
  7  6  1  0
  8  2  1  0
  8  7  1  0
 11  9  1  0
 11 10  2  0
 13  1  1  0
 13 11  1  0
 14 12  1  0
 15 14  1  0
 16  5  1  0
 17 12  1  0
 17 16  1  0
 18  8  1  0
M  END
>  <ID>  (1) 
conformer_0

$$$$
