
     RDKit          3D

 18 17  0  0  0  0  0  0  0  0999 V2000
   20.3197   51.2260   20.7871 C   0  0  0  0  0  0  0  0  0  0  0  0
   21.7101   49.7915   20.2649 C   0  0  0  0  0  0  0  0  0  0  0  0
   20.3680   49.9917   19.8835 C   0  0  0  0  0  0  0  0  0  0  0  0
   19.1722   51.8738   20.4937 C   0  0  0  0  0  0  0  0  0  0  0  0
   18.3493   53.6222   21.7453 C   0  0  0  0  0  0  0  0  0  0  0  0
   22.5782   49.1780   19.3359 C   0  0  0  0  0  0  0  0  0  0  0  0
   17.5076   55.9447   23.4882 C   0  0  0  0  0  0  0  0  0  0  0  0
   22.3954   48.5054   18.1486 C   0  0  0  0  0  0  0  0  0  0  0  0
   16.1660   58.3184   25.0189 O   0  0  0  0  0  0  0  0  0  0  0  0
   16.5048   57.3616   26.7915 O   0  0  0  0  0  0  0  0  0  0  0  0
   16.4353   57.3316   25.5560 C   0  0  0  0  0  0  0  0  0  0  0  0
   24.2235   48.0311   18.5126 C   0  0  0  0  0  0  0  0  0  0  0  0
   16.8987   54.8120   23.3627 C   0  0  0  0  0  0  0  0  0  0  0  0
   23.9433   47.0107   17.8663 C   0  0  0  0  0  0  0  0  0  0  0  0
   16.9284   56.1168   25.2385 C   0  0  0  0  0  0  0  0  0  0  0  0
   25.0335   46.0662   18.7677 C   0  0  0  0  0  0  0  0  0  0  0  0
   18.6070   54.6536   22.4799 C   0  0  0  0  0  0  0  0  0  0  0  0
   19.8649   53.1271   21.7530 C   0  0  0  0  0  0  0  0  0  0  0  0
  3  1  1  0
  3  2  1  0
  4  1  1  0
  6  2  2  3
  8  6  1  0
 11  9  2  0
 11 10  1  0
 12  8  1  0
 13  7  1  0
 14 12  1  0
 15  7  1  0
 15 11  1  0
 16 14  1  0
 17  5  1  0
 17 13  1  0
 18  4  1  0
 18  5  1  0
M  END
>  <ID>  (1) 
conformer_0

$$$$
