
     RDKit          3D

 19 20  0  0  0  0  0  0  0  0999 V2000
   17.5757   54.7292   23.5860 C   0  0  0  0  0  0  0  0  0  0  0  0
   16.6460   56.0681   24.2278 C   0  0  0  0  0  0  0  0  0  0  0  0
   19.7346   52.2909   21.1788 C   0  0  0  0  0  0  0  0  0  0  0  0
   20.1580   50.1574   19.5568 C   0  0  0  0  0  0  0  0  0  0  0  0
   18.3650   53.5393   21.6609 C   0  0  0  0  0  0  0  0  0  0  0  0
   19.5443   53.9503   22.0682 C   0  0  0  0  0  0  0  0  0  0  0  0
   17.9734   55.2740   22.5853 C   0  0  0  0  0  0  0  0  0  0  0  0
   23.4921   47.4637   18.0398 C   0  0  0  0  0  0  0  0  0  0  0  0
   15.9513   58.3070   25.0177 O   0  0  0  0  0  0  0  0  0  0  0  0
   16.4187   57.2780   25.6069 C   0  0  0  0  0  0  0  0  0  0  0  0
   16.6178   57.6056   26.6113 O   0  0  0  0  0  0  0  0  0  0  0  0
   17.3608   55.8608   25.5204 C   0  0  0  0  0  0  0  0  0  0  0  0
   24.9740   47.5959   18.4873 C   0  0  0  0  0  0  0  0  0  0  0  0
   24.8569   45.9140   18.7958 C   0  0  0  0  0  0  0  0  0  0  0  0
   20.9471   50.5473   20.6378 C   0  0  0  0  0  0  0  0  0  0  0  0
   23.5475   48.9109   19.0641 C   0  0  0  0  0  0  0  0  0  0  0  0
   21.8364   48.9063   18.5829 C   0  0  0  0  0  0  0  0  0  0  0  0
   22.3026   49.7906   20.0268 C   0  0  0  0  0  0  0  0  0  0  0  0
   19.0232   51.3549   20.4504 C   0  0  0  0  0  0  0  0  0  0  0  0
  2  1  1  0
  6  3  1  0
  6  5  1  0
  7  1  1  0
  7  5  1  0
 10  2  1  0
 10  9  1  0
 11 10  1  0
 12  2  1  0
 12 10  1  0
 13  8  1  0
 14 13  1  0
 15  4  1  0
 16  8  1  0
 17 16  1  0
 18 15  1  0
 18 16  1  0
 18 17  1  0
 19  3  1  0
 19  4  1  0
M  END
>  <ID>  (1) 
conformer_0

$$$$
