
     RDKit          3D

 14 13  0  0  0  0  0  0  0  0999 V2000
   18.9589   53.6481   21.7742 C   0  0  0  0  0  0  0  0  0  0  0  0
   18.3941   54.7821   22.4288 C   0  0  0  0  0  0  0  0  0  0  0  0
   20.0156   51.0820   20.5967 C   0  0  0  0  0  0  0  0  0  0  0  0
   19.6162   52.4813   21.1460 C   0  0  0  0  0  0  0  0  0  0  0  0
   22.6746   48.5846   18.6005 C   0  0  0  0  0  0  0  0  0  0  0  0
   17.6794   55.6012   23.2473 C   0  0  0  0  0  0  0  0  0  0  0  0
   20.7384   49.9663   20.2093 C   0  0  0  0  0  0  0  0  0  0  0  0
   21.9149   49.4668   19.8253 C   0  0  0  0  0  0  0  0  0  0  0  0
   16.4672   57.1204   25.7013 C   0  0  0  0  0  0  0  0  0  0  0  0
   16.0817   58.2011   24.9277 O   0  0  0  0  0  0  0  0  0  0  0  0
   15.6639   56.9992   26.8460 O   0  0  0  0  0  0  0  0  0  0  0  0
   23.9332   47.6833   18.1180 C   0  0  0  0  0  0  0  0  0  0  0  0
   17.1029   55.8664   24.4254 C   0  0  0  0  0  0  0  0  0  0  0  0
   24.8708   46.5227   18.5003 C   0  0  0  0  0  0  0  0  0  0  0  0
  2  1  3  0
  4  1  1  0
  4  3  3  0
  6  2  1  0
  7  3  1  0
  8  5  2  3
  8  7  1  0
 10  9  2  0
 11  9  1  0
 12  5  1  0
 13  6  1  0
 13  9  1  0
 14 12  1  0
M  END
>  <ID>  (1) 
conformer_0

$$$$
