
     RDKit          3D

 18 17  0  0  0  0  0  0  0  0999 V2000
   20.5674   51.7374   20.8915 C   0  0  0  0  0  0  0  0  0  0  0  0
   19.6886   53.6444   21.8969 C   0  0  0  0  0  0  0  0  0  0  0  0
   20.7600   49.3810   19.7153 C   0  0  0  0  0  0  0  0  0  0  0  0
   19.7887   50.7469   20.2138 C   0  0  0  0  0  0  0  0  0  0  0  0
   18.1022   54.3606   22.0145 C   0  0  0  0  0  0  0  0  0  0  0  0
   21.8171   49.9277   20.2099 C   0  0  0  0  0  0  0  0  0  0  0  0
   18.0406   54.9513   23.0869 C   0  0  0  0  0  0  0  0  0  0  0  0
   21.9240   48.5891   18.2025 C   0  0  0  0  0  0  0  0  0  0  0  0
   16.2677   57.3271   25.7745 C   0  0  0  0  0  0  0  0  0  0  0  0
   16.7356   58.3734   25.4265 O   0  0  0  0  0  0  0  0  0  0  0  0
   23.1376   48.6889   18.9759 C   0  0  0  0  0  0  0  0  0  0  0  0
   15.9488   57.7377   27.1085 O   0  0  0  0  0  0  0  0  0  0  0  0
   23.6132   47.4359   17.8675 C   0  0  0  0  0  0  0  0  0  0  0  0
   17.3032   55.8878   25.1038 C   0  0  0  0  0  0  0  0  0  0  0  0
   24.7950   47.1319   18.5621 C   0  0  0  0  0  0  0  0  0  0  0  0
   24.9135   45.7221   18.9466 C   0  0  0  0  0  0  0  0  0  0  0  0
   16.9547   55.9596   23.6335 C   0  0  0  0  0  0  0  0  0  0  0  0
   19.1874   52.7055   21.0185 C   0  0  0  0  0  0  0  0  0  0  0  0
  4  1  1  0
  4  3  1  0
  5  2  1  0
  6  3  1  0
  7  5  1  0
  8  3  1  0
 10  9  1  0
 11  8  1  0
 12  9  1  0
 13 11  1  0
 14  9  1  0
 15 13  1  0
 16 15  1  0
 17  7  1  0
 17 14  1  0
 18  1  1  0
 18  2  1  0
M  END
>  <ID>  (1) 
conformer_0

$$$$
