
     RDKit          3D

 19 18  0  0  0  0  0  0  0  0999 V2000
   18.4547   54.7063   21.7914 C   0  0  0  0  0  0  0  0  0  0  0  0
   21.1813   49.7901   20.2218 C   0  0  0  0  0  0  0  0  0  0  0  0
   19.6208   50.4697   20.0219 C   0  0  0  0  0  0  0  0  0  0  0  0
   20.2422   51.5808   20.5057 C   0  0  0  0  0  0  0  0  0  0  0  0
   18.8070   52.5982   20.7572 C   0  0  0  0  0  0  0  0  0  0  0  0
   21.2753   49.1178   19.0620 C   0  0  0  0  0  0  0  0  0  0  0  0
   18.2228   56.1791   23.0258 C   0  0  0  0  0  0  0  0  0  0  0  0
   22.8879   48.0168   18.2104 C   0  0  0  0  0  0  0  0  0  0  0  0
   16.9628   56.9972   25.9863 C   0  0  0  0  0  0  0  0  0  0  0  0
   16.6007   58.0368   25.6150 O   0  0  0  0  0  0  0  0  0  0  0  0
   24.7740   47.9432   18.4570 C   0  0  0  0  0  0  0  0  0  0  0  0
   16.8731   57.2820   27.3168 O   0  0  0  0  0  0  0  0  0  0  0  0
   24.3388   46.5796   18.2420 C   0  0  0  0  0  0  0  0  0  0  0  0
   17.5611   55.8238   24.9722 C   0  0  0  0  0  0  0  0  0  0  0  0
   25.2453   45.6825   19.1102 C   0  0  0  0  0  0  0  0  0  0  0  0
   23.0644   49.0170   19.2947 C   0  0  0  0  0  0  0  0  0  0  0  0
   17.8292   54.2321   22.8365 C   0  0  0  0  0  0  0  0  0  0  0  0
   16.5855   55.6971   23.7186 C   0  0  0  0  0  0  0  0  0  0  0  0
   19.4682   53.2173   21.7650 C   0  0  0  0  0  0  0  0  0  0  0  0
  3  2  1  0
  4  3  1  0
  5  4  1  0
  6  2  1  0
  7  1  1  0
 10  9  2  0
 11  8  1  0
 12  9  1  0
 13 11  1  0
 14  9  1  0
 15 13  1  0
 16  6  1  0
 16  8  1  0
 17  1  1  0
 18  7  1  0
 18 14  1  0
 19  1  1  0
 19  5  1  0
M  END
>  <ID>  (1) 
conformer_0

$$$$
