
     RDKit          3D

 18 17  0  0  0  0  0  0  0  0999 V2000
   20.0313   50.2571   19.7581 C   0  0  0  0  0  0  0  0  0  0  0  0
   19.0552   52.0698   20.3998 C   0  0  0  0  0  0  0  0  0  0  0  0
   21.8440   49.8894   20.2359 C   0  0  0  0  0  0  0  0  0  0  0  0
   18.0052   55.7145   23.2675 C   0  0  0  0  0  0  0  0  0  0  0  0
   17.7753   54.4521   22.9166 C   0  0  0  0  0  0  0  0  0  0  0  0
   19.5976   53.0115   21.5946 C   0  0  0  0  0  0  0  0  0  0  0  0
   18.6726   54.0566   21.7610 C   0  0  0  0  0  0  0  0  0  0  0  0
   21.8559   49.2521   18.8661 C   0  0  0  0  0  0  0  0  0  0  0  0
   15.9515   58.3941   25.3446 O   0  0  0  0  0  0  0  0  0  0  0  0
   15.8029   57.2529   27.1027 O   0  0  0  0  0  0  0  0  0  0  0  0
   23.3745   48.8648   18.9499 C   0  0  0  0  0  0  0  0  0  0  0  0
   16.1170   57.4941   26.0409 C   0  0  0  0  0  0  0  0  0  0  0  0
   24.7973   47.3956   18.3352 C   0  0  0  0  0  0  0  0  0  0  0  0
   16.7351   55.9070   24.3070 C   0  0  0  0  0  0  0  0  0  0  0  0
   24.9649   46.0182   18.7885 C   0  0  0  0  0  0  0  0  0  0  0  0
   17.0707   56.2319   25.6299 C   0  0  0  0  0  0  0  0  0  0  0  0
   20.4982   51.1393   20.7558 C   0  0  0  0  0  0  0  0  0  0  0  0
   23.3595   47.6579   17.8870 C   0  0  0  0  0  0  0  0  0  0  0  0
  5  4  1  0
  6  2  1  0
  7  5  1  0
  7  6  1  0
  8  3  1  0
 11  8  1  0
 12  9  2  0
 12 10  1  0
 14  4  1  0
 15 13  1  0
 16 12  1  0
 16 14  1  0
 17  1  1  0
 17  2  1  0
 17  3  1  0
 18 11  1  0
 18 13  1  0
M  END
>  <ID>  (1) 
conformer_0

$$$$
