
     RDKit          3D

 18 17  0  0  0  0  0  0  0  0999 V2000
   20.4738   50.0225   19.7649 C   0  0  0  0  0  0  0  0  0  0  0  0
   17.7308   54.5027   22.6527 C   0  0  0  0  0  0  0  0  0  0  0  0
   17.9517   55.8167   22.9607 C   0  0  0  0  0  0  0  0  0  0  0  0
   21.3816   50.2073   20.5848 C   0  0  0  0  0  0  0  0  0  0  0  0
   19.2463   51.1399   20.2330 C   0  0  0  0  0  0  0  0  0  0  0  0
   18.6261   53.1419   21.2842 C   0  0  0  0  0  0  0  0  0  0  0  0
   19.8525   52.1492   21.0914 C   0  0  0  0  0  0  0  0  0  0  0  0
   15.9614   58.1174   25.1299 O   0  0  0  0  0  0  0  0  0  0  0  0
   22.4429   48.8623   18.6817 C   0  0  0  0  0  0  0  0  0  0  0  0
   16.2764   57.0499   25.6943 C   0  0  0  0  0  0  0  0  0  0  0  0
   16.8254   57.5198   26.7169 O   0  0  0  0  0  0  0  0  0  0  0  0
   24.3583   48.2646   18.6894 C   0  0  0  0  0  0  0  0  0  0  0  0
   16.4002   55.7357   24.0318 C   0  0  0  0  0  0  0  0  0  0  0  0
   23.8378   47.2914   17.8676 C   0  0  0  0  0  0  0  0  0  0  0  0
   17.1664   55.6561   25.2435 C   0  0  0  0  0  0  0  0  0  0  0  0
   25.1049   46.2984   18.6006 C   0  0  0  0  0  0  0  0  0  0  0  0
   22.7221   49.4438   19.9086 C   0  0  0  0  0  0  0  0  0  0  0  0
   19.2690   54.2686   21.9711 C   0  0  0  0  0  0  0  0  0  0  0  0
  3  2  1  0
  4  1  1  0
  5  1  1  0
  7  5  1  0
  7  6  1  0
 10  8  1  0
 11 10  1  0
 12  9  1  0
 13  3  1  0
 14 12  1  0
 15 10  1  0
 15 13  1  0
 16 14  1  0
 17  4  1  0
 17  9  1  0
 18  2  1  0
 18  6  1  0
M  END
>  <ID>  (1) 
conformer_0

$$$$
