
     RDKit          3D

 19 20  0  0  0  0  0  0  0  0999 V2000
   21.0284   49.8100   20.4214 C   0  0  0  0  0  0  0  0  0  0  0  0
   18.5009   53.8744   21.9951 C   0  0  0  0  0  0  0  0  0  0  0  0
   21.6455   48.6361   18.5551 C   0  0  0  0  0  0  0  0  0  0  0  0
   23.4849   47.5162   17.6969 C   0  0  0  0  0  0  0  0  0  0  0  0
   20.0323   50.3751   19.8134 C   0  0  0  0  0  0  0  0  0  0  0  0
   19.6026   53.6810   22.0645 C   0  0  0  0  0  0  0  0  0  0  0  0
   19.3012   52.3203   20.8608 C   0  0  0  0  0  0  0  0  0  0  0  0
   16.2279   58.1289   25.0302 O   0  0  0  0  0  0  0  0  0  0  0  0
   18.2836   55.2551   23.2856 C   0  0  0  0  0  0  0  0  0  0  0  0
   15.9763   57.5634   27.2490 O   0  0  0  0  0  0  0  0  0  0  0  0
   16.3747   57.1493   25.9893 C   0  0  0  0  0  0  0  0  0  0  0  0
   17.0501   54.9626   22.7133 C   0  0  0  0  0  0  0  0  0  0  0  0
   25.1340   47.5899   18.4061 C   0  0  0  0  0  0  0  0  0  0  0  0
   16.6079   55.9783   23.9127 C   0  0  0  0  0  0  0  0  0  0  0  0
   24.8250   46.0363   18.7338 C   0  0  0  0  0  0  0  0  0  0  0  0
   17.2278   55.9481   25.4886 C   0  0  0  0  0  0  0  0  0  0  0  0
   23.6500   48.5519   18.8587 C   0  0  0  0  0  0  0  0  0  0  0  0
   22.3384   49.4486   19.6968 C   0  0  0  0  0  0  0  0  0  0  0  0
   20.4353   51.7559   20.9992 C   0  0  0  0  0  0  0  0  0  0  0  0
  5  1  1  0
  6  2  1  0
  7  6  1  0
  9  2  1  0
 11  8  2  0
 11 10  1  0
 12  9  1  0
 13  4  1  0
 14  9  1  0
 14 12  1  0
 15 13  1  0
 16 11  1  0
 16 14  1  0
 17  4  1  0
 17 13  1  0
 18  1  1  0
 18  3  1  0
 18 17  1  0
 19  5  1  0
 19  7  1  0
M  END
>  <ID>  (1) 
conformer_0

$$$$
