
     RDKit          3D

 19 19  0  0  0  0  0  0  0  0999 V2000
   18.9013   52.4692   20.5008 C   0  0  0  0  0  0  0  0  0  0  0  0
   19.6408   50.7287   19.9691 C   0  0  0  0  0  0  0  0  0  0  0  0
   20.4306   51.8167   20.7002 C   0  0  0  0  0  0  0  0  0  0  0  0
   16.7603   54.7004   23.4054 C   0  0  0  0  0  0  0  0  0  0  0  0
   21.8485   50.2087   20.2579 C   0  0  0  0  0  0  0  0  0  0  0  0
   17.9959   55.0426   22.8969 C   0  0  0  0  0  0  0  0  0  0  0  0
   17.8952   53.8198   21.7950 C   0  0  0  0  0  0  0  0  0  0  0  0
   22.2043   48.7673   18.3816 C   0  0  0  0  0  0  0  0  0  0  0  0
   17.2950   57.2502   25.8250 C   0  0  0  0  0  0  0  0  0  0  0  0
   16.9512   57.4807   26.7786 O   0  0  0  0  0  0  0  0  0  0  0  0
   23.4260   47.5975   17.9383 C   0  0  0  0  0  0  0  0  0  0  0  0
   16.6950   56.2358   24.1469 C   0  0  0  0  0  0  0  0  0  0  0  0
   24.6874   47.5887   18.4150 C   0  0  0  0  0  0  0  0  0  0  0  0
   17.1543   58.3248   25.5524 O   0  0  0  0  0  0  0  0  0  0  0  0
   24.7406   46.0457   18.8986 C   0  0  0  0  0  0  0  0  0  0  0  0
   17.4845   55.7423   25.3415 C   0  0  0  0  0  0  0  0  0  0  0  0
   20.7539   49.5642   19.7509 C   0  0  0  0  0  0  0  0  0  0  0  0
   23.0858   49.1206   19.4665 C   0  0  0  0  0  0  0  0  0  0  0  0
   19.2944   53.3959   21.7246 C   0  0  0  0  0  0  0  0  0  0  0  0
  2  1  1  0
  3  1  1  0
  3  2  1  0
  6  4  1  0
  7  6  1  0
 10  9  1  0
 11  8  1  0
 12  4  1  0
 13 11  1  0
 14  9  2  0
 15 13  1  0
 16  9  1  0
 16 12  1  0
 17  2  1  0
 17  5  1  0
 18  5  1  0
 18  8  1  0
 19  1  1  0
 19  7  1  0
M  END
>  <ID>  (1) 
conformer_0

$$$$
