
     RDKit          3D

 17 16  0  0  0  0  0  0  0  0999 V2000
   21.2065   50.0641   20.5393 C   0  0  0  0  0  0  0  0  0  0  0  0
   19.7170   52.3448   21.1504 C   0  0  0  0  0  0  0  0  0  0  0  0
   19.4393   51.2818   20.3687 C   0  0  0  0  0  0  0  0  0  0  0  0
   18.4723   53.3464   21.3519 C   0  0  0  0  0  0  0  0  0  0  0  0
   22.6829   48.9591   19.5762 C   0  0  0  0  0  0  0  0  0  0  0  0
   18.6254   54.3431   22.2580 C   0  0  0  0  0  0  0  0  0  0  0  0
   23.3504   47.6111   18.0707 C   0  0  0  0  0  0  0  0  0  0  0  0
   17.2797   54.8245   22.7848 C   0  0  0  0  0  0  0  0  0  0  0  0
   16.5501   57.3408   25.6704 C   0  0  0  0  0  0  0  0  0  0  0  0
   16.0308   57.5866   26.6049 O   0  0  0  0  0  0  0  0  0  0  0  0
   16.9163   58.2282   25.3789 O   0  0  0  0  0  0  0  0  0  0  0  0
   24.5717   47.5251   18.4978 C   0  0  0  0  0  0  0  0  0  0  0  0
   17.5625   55.9914   23.6006 C   0  0  0  0  0  0  0  0  0  0  0  0
   24.7260   46.0008   18.7881 C   0  0  0  0  0  0  0  0  0  0  0  0
   17.0639   56.0372   24.8788 C   0  0  0  0  0  0  0  0  0  0  0  0
   20.3165   49.7936   19.7892 C   0  0  0  0  0  0  0  0  0  0  0  0
   21.8944   48.7789   18.6000 C   0  0  0  0  0  0  0  0  0  0  0  0
  3  2  1  0
  4  2  1  0
  5  1  1  0
  6  4  1  0
  8  6  1  0
 10  9  1  0
 11  9  2  0
 12  7  1  0
 13  8  1  0
 14 12  1  0
 15  9  1  0
 15 13  1  0
 16  1  1  0
 16  3  1  0
 17  5  1  0
 17  7  1  0
M  END
>  <ID>  (1) 
conformer_0

$$$$
