
     RDKit          3D

 18 17  0  0  0  0  0  0  0  0999 V2000
   20.2361   52.7223   21.7884 C   0  0  0  0  0  0  0  0  0  0  0  0
   17.9269   54.1289   21.8978 C   0  0  0  0  0  0  0  0  0  0  0  0
   21.3116   49.5584   19.2965 C   0  0  0  0  0  0  0  0  0  0  0  0
   21.0486   50.5816   20.6421 C   0  0  0  0  0  0  0  0  0  0  0  0
   19.3529   53.8932   22.3027 C   0  0  0  0  0  0  0  0  0  0  0  0
   22.9106   48.3293   18.3318 C   0  0  0  0  0  0  0  0  0  0  0  0
   17.6719   54.9282   23.0468 C   0  0  0  0  0  0  0  0  0  0  0  0
   24.3206   47.8013   18.5653 C   0  0  0  0  0  0  0  0  0  0  0  0
   16.2891   57.3148   25.5440 C   0  0  0  0  0  0  0  0  0  0  0  0
   15.7235   58.1649   24.6756 O   0  0  0  0  0  0  0  0  0  0  0  0
   16.2074   57.6944   26.6460 O   0  0  0  0  0  0  0  0  0  0  0  0
   24.4917   46.4234   18.5124 C   0  0  0  0  0  0  0  0  0  0  0  0
   16.7458   55.7252   23.4383 C   0  0  0  0  0  0  0  0  0  0  0  0
   25.3804   45.6029   19.1724 C   0  0  0  0  0  0  0  0  0  0  0  0
   16.9569   56.0085   24.9817 C   0  0  0  0  0  0  0  0  0  0  0  0
   22.7018   49.2622   19.7285 C   0  0  0  0  0  0  0  0  0  0  0  0
   19.3761   52.2406   20.9009 C   0  0  0  0  0  0  0  0  0  0  0  0
   19.9307   50.8636   19.9975 C   0  0  0  0  0  0  0  0  0  0  0  0
  4  3  1  0
  5  1  1  0
  5  2  1  0
  7  2  1  0
  8  6  1  0
 10  9  2  0
 11  9  1  0
 12  8  1  0
 13  7  1  0
 14 12  2  3
 15  9  1  0
 15 13  1  0
 16  3  1  0
 16  6  1  0
 17  1  1  0
 18  4  1  0
 18 17  1  0
M  END
>  <ID>  (1) 
conformer_0

$$$$
