
     RDKit          3D

 14 13  0  0  0  0  0  0  0  0999 V2000
   20.3366   50.3760   20.0862 C   0  0  0  0  0  0  0  0  0  0  0  0
   19.9572   51.7359   20.5960 C   0  0  0  0  0  0  0  0  0  0  0  0
   19.4905   53.0297   21.1095 C   0  0  0  0  0  0  0  0  0  0  0  0
   17.2262   55.4298   23.7434 C   0  0  0  0  0  0  0  0  0  0  0  0
   18.9560   54.0791   21.7782 C   0  0  0  0  0  0  0  0  0  0  0  0
   21.2433   49.4840   19.8943 C   0  0  0  0  0  0  0  0  0  0  0  0
   18.0860   54.8197   22.6402 C   0  0  0  0  0  0  0  0  0  0  0  0
   21.7533   48.8605   18.5411 C   0  0  0  0  0  0  0  0  0  0  0  0
   16.2478   57.0537   25.9994 C   0  0  0  0  0  0  0  0  0  0  0  0
   16.2765   58.1591   25.8373 O   0  0  0  0  0  0  0  0  0  0  0  0
   23.1189   48.2169   18.3271 C   0  0  0  0  0  0  0  0  0  0  0  0
   16.5185   55.5784   24.6513 C   0  0  0  0  0  0  0  0  0  0  0  0
   24.2683   47.4247   18.3532 C   0  0  0  0  0  0  0  0  0  0  0  0
   24.8328   46.1493   18.8144 C   0  0  0  0  0  0  0  0  0  0  0  0
  2  1  1  0
  3  2  1  0
  5  3  3  0
  6  1  1  0
  7  4  3  0
  7  5  1  0
  8  6  1  0
 10  9  2  0
 11  8  2  0
 12  4  1  0
 12  9  1  0
 13 11  2  0
 14 13  1  0
M  END
>  <ID>  (1) 
conformer_0

$$$$
