
     RDKit          3D

 14 13  0  0  0  0  0  0  0  0999 V2000
   17.7293   55.7260   23.4552 C   0  0  0  0  0  0  0  0  0  0  0  0
   16.9633   56.0311   24.3971 C   0  0  0  0  0  0  0  0  0  0  0  0
   21.1821   49.3873   19.7945 C   0  0  0  0  0  0  0  0  0  0  0  0
   20.2161   50.0021   20.1674 C   0  0  0  0  0  0  0  0  0  0  0  0
   24.6612   47.9496   18.6140 C   0  0  0  0  0  0  0  0  0  0  0  0
   19.5895   51.2732   20.4130 C   0  0  0  0  0  0  0  0  0  0  0  0
   18.4258   54.7509   22.5718 C   0  0  0  0  0  0  0  0  0  0  0  0
   24.4815   46.9340   18.1716 C   0  0  0  0  0  0  0  0  0  0  0  0
   16.2650   58.2612   25.4596 O   0  0  0  0  0  0  0  0  0  0  0  0
   16.2857   57.2265   25.6952 C   0  0  0  0  0  0  0  0  0  0  0  0
   19.3948   52.6068   21.0360 C   0  0  0  0  0  0  0  0  0  0  0  0
   19.0369   53.7256   21.8815 C   0  0  0  0  0  0  0  0  0  0  0  0
   22.5845   49.0408   19.3807 C   0  0  0  0  0  0  0  0  0  0  0  0
   22.6935   48.1563   18.1894 C   0  0  0  0  0  0  0  0  0  0  0  0
  2  1  2  3
  4  3  2  0
  6  4  1  0
  7  1  1  0
  8  5  1  0
 10  2  1  0
 10  9  2  0
 11  6  3  0
 12  7  3  0
 12 11  1  0
 13  3  2  0
 14  5  1  0
 14 13  1  0
M  END
>  <ID>  (1) 
conformer_0

$$$$
