
     RDKit          3D

 19 20  0  0  0  0  0  0  0  0999 V2000
   20.9043   50.6471   20.4246 C   0  0  0  0  0  0  0  0  0  0  0  0
   18.1800   55.0448   23.1328 C   0  0  0  0  0  0  0  0  0  0  0  0
   16.7156   55.2106   23.2195 C   0  0  0  0  0  0  0  0  0  0  0  0
   19.4459   51.7665   20.0044 C   0  0  0  0  0  0  0  0  0  0  0  0
   20.2941   49.8553   19.7766 C   0  0  0  0  0  0  0  0  0  0  0  0
   18.1709   53.8119   22.1687 C   0  0  0  0  0  0  0  0  0  0  0  0
   19.7652   52.5516   20.9618 C   0  0  0  0  0  0  0  0  0  0  0  0
   19.3843   53.8126   21.6687 C   0  0  0  0  0  0  0  0  0  0  0  0
   16.7304   57.3513   25.5462 C   0  0  0  0  0  0  0  0  0  0  0  0
   16.8971   58.4145   25.5774 O   0  0  0  0  0  0  0  0  0  0  0  0
   16.0147   57.1460   26.7206 O   0  0  0  0  0  0  0  0  0  0  0  0
   24.1212   46.6856   17.9806 C   0  0  0  0  0  0  0  0  0  0  0  0
   17.3859   55.8945   24.7851 C   0  0  0  0  0  0  0  0  0  0  0  0
   25.1216   45.8696   18.9999 C   0  0  0  0  0  0  0  0  0  0  0  0
   16.0545   56.8743   24.0642 C   0  0  0  0  0  0  0  0  0  0  0  0
   24.5979   48.0190   18.6867 C   0  0  0  0  0  0  0  0  0  0  0  0
   23.0186   48.0349   18.0580 C   0  0  0  0  0  0  0  0  0  0  0  0
   22.5006   49.3324   19.7658 C   0  0  0  0  0  0  0  0  0  0  0  0
   21.7502   48.5093   19.1050 C   0  0  0  0  0  0  0  0  0  0  0  0
  3  2  1  0
  4  1  1  0
  5  1  1  0
  6  2  1  0
  7  4  1  0
  8  6  1  0
  8  7  1  0
 10  9  1  0
 11  9  1  0
 13  3  1  0
 13  9  1  0
 14 12  1  0
 15  9  1  0
 15 13  1  0
 16 12  1  0
 17 12  1  0
 17 16  1  0
 19  5  1  0
 19 17  1  0
 19 18  1  0
M  END
>  <ID>  (1) 
conformer_0

$$$$
