
     RDKit          3D

 19 20  0  0  0  0  0  0  0  0999 V2000
   18.5447   53.6524   21.6257 C   0  0  0  0  0  0  0  0  0  0  0  0
   21.2860   49.5756   20.2464 C   0  0  0  0  0  0  0  0  0  0  0  0
   19.1366   55.2032   22.2338 C   0  0  0  0  0  0  0  0  0  0  0  0
   20.0587   49.7007   19.8519 C   0  0  0  0  0  0  0  0  0  0  0  0
   22.4936   48.4792   18.6539 C   0  0  0  0  0  0  0  0  0  0  0  0
   22.7448   49.1323   19.5228 C   0  0  0  0  0  0  0  0  0  0  0  0
   17.3802   54.7344   22.6915 C   0  0  0  0  0  0  0  0  0  0  0  0
   24.0804   47.6407   18.0722 C   0  0  0  0  0  0  0  0  0  0  0  0
   16.9670   55.9128   24.2025 C   0  0  0  0  0  0  0  0  0  0  0  0
   16.6046   57.4470   26.0336 C   0  0  0  0  0  0  0  0  0  0  0  0
   16.5195   58.4174   25.5761 O   0  0  0  0  0  0  0  0  0  0  0  0
   15.9209   57.1331   26.8175 O   0  0  0  0  0  0  0  0  0  0  0  0
   24.1840   46.6818   18.9660 C   0  0  0  0  0  0  0  0  0  0  0  0
   17.5588   56.5968   25.7776 C   0  0  0  0  0  0  0  0  0  0  0  0
   25.1826   45.6220   19.0046 C   0  0  0  0  0  0  0  0  0  0  0  0
   18.2810   56.1393   23.5745 C   0  0  0  0  0  0  0  0  0  0  0  0
   20.2942   51.2242   20.7451 C   0  0  0  0  0  0  0  0  0  0  0  0
   19.7718   53.3235   21.5906 C   0  0  0  0  0  0  0  0  0  0  0  0
   19.1890   51.8493   20.5830 C   0  0  0  0  0  0  0  0  0  0  0  0
  3  1  1  0
  4  2  1  0
  6  2  1  0
  6  5  1  0
  7  1  1  0
  7  3  1  0
  8  5  1  0
 11 10  2  0
 12 10  1  0
 13  8  1  0
 14  9  1  0
 14 10  1  0
 15 13  1  0
 16  3  1  0
 16  7  1  0
 16  9  1  0
 17  4  1  0
 18  1  1  0
 19 17  1  0
 19 18  1  0
M  END
>  <ID>  (1) 
conformer_0

$$$$
