
     RDKit          3D

 18 17  0  0  0  0  0  0  0  0999 V2000
   21.5165   49.8318   20.3733 C   0  0  0  0  0  0  0  0  0  0  0  0
   18.5204   55.4164   22.3520 C   0  0  0  0  0  0  0  0  0  0  0  0
   18.4788   53.9808   21.6466 C   0  0  0  0  0  0  0  0  0  0  0  0
   19.2516   52.0910   20.5754 C   0  0  0  0  0  0  0  0  0  0  0  0
   19.9239   49.5671   20.0627 C   0  0  0  0  0  0  0  0  0  0  0  0
   20.0591   51.1559   20.5302 C   0  0  0  0  0  0  0  0  0  0  0  0
   19.6071   53.5066   21.3792 C   0  0  0  0  0  0  0  0  0  0  0  0
   21.8387   48.8566   19.3614 C   0  0  0  0  0  0  0  0  0  0  0  0
   16.3568   57.0891   25.6785 C   0  0  0  0  0  0  0  0  0  0  0  0
   16.0867   58.2397   25.1377 O   0  0  0  0  0  0  0  0  0  0  0  0
   23.3240   48.9959   19.1298 C   0  0  0  0  0  0  0  0  0  0  0  0
   16.0879   57.2610   26.6793 O   0  0  0  0  0  0  0  0  0  0  0  0
   24.9147   47.5512   18.3972 C   0  0  0  0  0  0  0  0  0  0  0  0
   17.5455   54.9443   23.4856 C   0  0  0  0  0  0  0  0  0  0  0  0
   24.8679   45.9641   18.8209 C   0  0  0  0  0  0  0  0  0  0  0  0
   17.3199   55.6874   25.3683 C   0  0  0  0  0  0  0  0  0  0  0  0
   16.7575   56.2543   23.7137 C   0  0  0  0  0  0  0  0  0  0  0  0
   23.5980   47.7173   18.1290 C   0  0  0  0  0  0  0  0  0  0  0  0
  3  2  1  0
  5  1  1  0
  6  4  2  3
  6  5  1  0
  7  3  1  0
  7  4  1  0
  8  1  1  0
 10  9  2  0
 11  8  1  0
 12  9  1  0
 14  2  1  0
 15 13  1  0
 16  9  1  0
 17 14  1  0
 17 16  1  0
 18 11  1  0
 18 13  1  0
M  END
>  <ID>  (1) 
conformer_0

$$$$
