
     RDKit          3D

 18 18  0  0  0  0  0  0  0  0999 V2000
   20.6583   50.9496   20.6128 C   0  0  0  0  0  0  0  0  0  0  0  0
   19.4855   51.7260   20.5625 C   0  0  0  0  0  0  0  0  0  0  0  0
   19.8927   52.8862   21.4731 C   0  0  0  0  0  0  0  0  0  0  0  0
   18.6742   53.9485   21.4166 C   0  0  0  0  0  0  0  0  0  0  0  0
   21.4451   48.5795   18.2151 C   0  0  0  0  0  0  0  0  0  0  0  0
   18.5096   54.1640   22.6507 C   0  0  0  0  0  0  0  0  0  0  0  0
   23.1344   47.5719   18.0385 C   0  0  0  0  0  0  0  0  0  0  0  0
   17.9366   55.6413   22.6923 C   0  0  0  0  0  0  0  0  0  0  0  0
   15.9394   58.0266   24.5634 O   0  0  0  0  0  0  0  0  0  0  0  0
   16.5010   57.2624   25.3284 C   0  0  0  0  0  0  0  0  0  0  0  0
   16.7819   57.8501   26.3354 O   0  0  0  0  0  0  0  0  0  0  0  0
   24.5021   47.2186   18.6304 C   0  0  0  0  0  0  0  0  0  0  0  0
   17.5133   55.5449   24.0933 C   0  0  0  0  0  0  0  0  0  0  0  0
   24.8088   45.8765   18.8777 C   0  0  0  0  0  0  0  0  0  0  0  0
   17.2665   55.9934   25.3696 C   0  0  0  0  0  0  0  0  0  0  0  0
   22.9216   48.8304   19.1279 C   0  0  0  0  0  0  0  0  0  0  0  0
   21.8172   49.6534   20.1000 C   0  0  0  0  0  0  0  0  0  0  0  0
   20.3054   49.6266   19.6990 C   0  0  0  0  0  0  0  0  0  0  0  0
  2  1  1  0
  3  2  1  0
  4  3  1  0
  6  4  1  0
  8  6  1  0
 10  9  2  0
 11 10  1  0
 12  7  1  0
 13  8  1  0
 14 12  1  0
 15 10  1  0
 15 13  1  0
 16  5  1  0
 16  7  1  0
 17  1  1  0
 17 16  1  0
 18  1  1  0
 18 17  1  0
M  END
>  <ID>  (1) 
conformer_0

$$$$
