
     RDKit          3D

 19 20  0  0  0  0  0  0  0  0999 V2000
   18.2939   53.1636   20.6435 C   0  0  0  0  0  0  0  0  0  0  0  0
   17.6003   54.3469   22.4355 C   0  0  0  0  0  0  0  0  0  0  0  0
   19.8934   49.7830   20.0221 C   0  0  0  0  0  0  0  0  0  0  0  0
   23.1121   48.7304   18.7375 C   0  0  0  0  0  0  0  0  0  0  0  0
   17.8407   55.3995   23.2792 C   0  0  0  0  0  0  0  0  0  0  0  0
   21.7315   48.9687   19.1625 C   0  0  0  0  0  0  0  0  0  0  0  0
   21.6568   49.6658   20.5222 C   0  0  0  0  0  0  0  0  0  0  0  0
   16.6365   55.6100   24.2111 C   0  0  0  0  0  0  0  0  0  0  0  0
   23.3861   47.4633   17.9739 C   0  0  0  0  0  0  0  0  0  0  0  0
   17.0231   57.7156   26.8899 O   0  0  0  0  0  0  0  0  0  0  0  0
   16.7102   57.3104   25.9250 C   0  0  0  0  0  0  0  0  0  0  0  0
   16.1694   58.2135   25.3066 O   0  0  0  0  0  0  0  0  0  0  0  0
   24.8179   47.3875   18.3015 C   0  0  0  0  0  0  0  0  0  0  0  0
   17.3371   55.8606   25.5140 C   0  0  0  0  0  0  0  0  0  0  0  0
   24.8110   45.8915   18.9691 C   0  0  0  0  0  0  0  0  0  0  0  0
   20.4903   51.1446   20.5802 C   0  0  0  0  0  0  0  0  0  0  0  0
   19.0661   54.2117   22.0615 C   0  0  0  0  0  0  0  0  0  0  0  0
   19.7957   52.8971   21.4025 C   0  0  0  0  0  0  0  0  0  0  0  0
   18.9227   51.6581   19.9736 C   0  0  0  0  0  0  0  0  0  0  0  0
  5  2  1  0
  6  4  1  0
  7  3  1  0
  7  6  1  0
  8  5  1  0
  9  4  1  0
 11 10  1  0
 12 11  2  0
 13  9  1  0
 14  8  1  0
 14 11  1  0
 15 13  1  0
 16  3  1  0
 16  7  1  0
 17  1  1  0
 17  2  1  0
 18  1  1  0
 18 17  1  0
 19  1  1  0
 19 16  1  0
M  END
>  <ID>  (1) 
conformer_0

$$$$
