
     RDKit          3D

 19 19  0  0  0  0  0  0  0  0999 V2000
   22.7238   48.4107   18.3837 C   0  0  0  0  0  0  0  0  0  0  0  0
   19.4272   50.6486   19.9021 C   0  0  0  0  0  0  0  0  0  0  0  0
   19.6649   51.7720   20.7298 C   0  0  0  0  0  0  0  0  0  0  0  0
   18.1228   56.0365   23.3625 C   0  0  0  0  0  0  0  0  0  0  0  0
   18.1279   54.2452   22.0997 C   0  0  0  0  0  0  0  0  0  0  0  0
   20.9739   49.2504   19.8146 C   0  0  0  0  0  0  0  0  0  0  0  0
   22.5983   48.9473   19.6213 C   0  0  0  0  0  0  0  0  0  0  0  0
   17.3374   55.3912   24.3620 C   0  0  0  0  0  0  0  0  0  0  0  0
   23.8343   47.3176   18.1573 C   0  0  0  0  0  0  0  0  0  0  0  0
   16.3012   57.4241   26.9856 O   0  0  0  0  0  0  0  0  0  0  0  0
   16.3156   58.4519   25.4042 O   0  0  0  0  0  0  0  0  0  0  0  0
   16.4394   57.4834   25.9651 C   0  0  0  0  0  0  0  0  0  0  0  0
   25.0634   47.8667   18.5866 C   0  0  0  0  0  0  0  0  0  0  0  0
   16.8500   56.1710   25.3717 C   0  0  0  0  0  0  0  0  0  0  0  0
   25.0129   45.9725   18.8701 C   0  0  0  0  0  0  0  0  0  0  0  0
   19.5858   53.5839   21.5561 C   0  0  0  0  0  0  0  0  0  0  0  0
   19.3513   55.3040   22.2039 C   0  0  0  0  0  0  0  0  0  0  0  0
   18.3623   52.6654   20.5688 C   0  0  0  0  0  0  0  0  0  0  0  0
   21.1045   50.1838   20.5709 C   0  0  0  0  0  0  0  0  0  0  0  0
  3  2  1  0
  7  1  1  0
  7  6  1  0
  8  4  1  0
  9  1  1  0
 12 10  1  0
 12 11  2  0
 13  9  1  0
 14  8  1  0
 14 12  1  0
 15 13  1  0
 16  5  1  0
 17  4  1  0
 17  5  1  0
 17 16  1  0
 18  3  1  0
 18 16  1  0
 19  2  1  0
 19  6  1  0
M  END
>  <ID>  (1) 
conformer_0

$$$$
