
     RDKit          3D

 20 21  0  0  0  0  0  0  0  0999 V2000
   17.3415   54.6543   22.2461 C   0  0  0  0  0  0  0  0  0  0  0  0
   23.6152   47.2597   18.0208 C   0  0  0  0  0  0  0  0  0  0  0  0
   20.3959   49.8337   20.3877 C   0  0  0  0  0  0  0  0  0  0  0  0
   18.5203   54.5727   22.5799 C   0  0  0  0  0  0  0  0  0  0  0  0
   18.4784   53.1073   20.7836 C   0  0  0  0  0  0  0  0  0  0  0  0
   19.4851   50.8614   20.0088 C   0  0  0  0  0  0  0  0  0  0  0  0
   16.6792   55.9250   23.3872 C   0  0  0  0  0  0  0  0  0  0  0  0
   24.9584   45.9239   18.7266 C   0  0  0  0  0  0  0  0  0  0  0  0
   17.3270   55.3150   24.5265 C   0  0  0  0  0  0  0  0  0  0  0  0
   16.1564   58.1160   25.1448 O   0  0  0  0  0  0  0  0  0  0  0  0
   16.4425   57.2171   25.9904 C   0  0  0  0  0  0  0  0  0  0  0  0
   16.0279   57.5027   27.1161 O   0  0  0  0  0  0  0  0  0  0  0  0
   21.5148   49.0628   18.9568 C   0  0  0  0  0  0  0  0  0  0  0  0
   17.4917   56.3453   25.7429 C   0  0  0  0  0  0  0  0  0  0  0  0
   22.4729   48.3593   17.9417 C   0  0  0  0  0  0  0  0  0  0  0  0
   22.0162   49.8257   20.1504 C   0  0  0  0  0  0  0  0  0  0  0  0
   23.6089   49.0443   19.3782 C   0  0  0  0  0  0  0  0  0  0  0  0
   24.9487   47.5734   18.4384 C   0  0  0  0  0  0  0  0  0  0  0  0
   19.7585   51.8522   20.8155 C   0  0  0  0  0  0  0  0  0  0  0  0
   19.5490   53.5040   21.7399 C   0  0  0  0  0  0  0  0  0  0  0  0
  4  1  1  0
  6  3  1  0
  7  1  1  0
  9  7  1  0
 11 10  2  0
 12 11  1  0
 14  9  1  0
 14 11  1  0
 15  2  1  0
 15 13  1  0
 16  3  1  0
 16 13  1  0
 17 15  1  0
 17 16  1  0
 18  2  1  0
 18  8  1  0
 19  5  1  0
 19  6  1  0
 20  4  1  0
 20  5  1  0
 20 19  1  0
M  END
>  <ID>  (1) 
conformer_0

$$$$
