
     RDKit          3D

 18 17  0  0  0  0  0  0  0  0999 V2000
   18.0435   54.5414   22.7827 C   0  0  0  0  0  0  0  0  0  0  0  0
   21.2671   50.0684   20.5402 C   0  0  0  0  0  0  0  0  0  0  0  0
   18.7028   53.1553   21.1428 C   0  0  0  0  0  0  0  0  0  0  0  0
   19.5805   53.8887   21.8648 C   0  0  0  0  0  0  0  0  0  0  0  0
   22.4018   48.6778   19.7490 C   0  0  0  0  0  0  0  0  0  0  0  0
   18.5848   55.6990   22.7278 C   0  0  0  0  0  0  0  0  0  0  0  0
   22.4547   48.8533   18.5346 C   0  0  0  0  0  0  0  0  0  0  0  0
   17.1804   56.4165   23.9267 C   0  0  0  0  0  0  0  0  0  0  0  0
   23.6750   47.2785   18.3558 C   0  0  0  0  0  0  0  0  0  0  0  0
   16.7970   57.3002   25.7009 C   0  0  0  0  0  0  0  0  0  0  0  0
   16.5434   57.4880   26.7422 O   0  0  0  0  0  0  0  0  0  0  0  0
   16.3435   58.3685   25.2085 O   0  0  0  0  0  0  0  0  0  0  0  0
   24.6438   47.8480   18.4349 C   0  0  0  0  0  0  0  0  0  0  0  0
   17.4797   55.7455   24.9909 C   0  0  0  0  0  0  0  0  0  0  0  0
   24.9508   45.9332   18.9237 C   0  0  0  0  0  0  0  0  0  0  0  0
   20.4814   49.5569   19.8803 C   0  0  0  0  0  0  0  0  0  0  0  0
   19.3161   51.1419   20.1563 C   0  0  0  0  0  0  0  0  0  0  0  0
   20.0124   52.0624   20.9566 C   0  0  0  0  0  0  0  0  0  0  0  0
  4  1  1  0
  4  3  1  0
  5  2  1  0
  6  1  1  0
  7  5  1  0
  8  6  1  0
  9  7  1  0
 11 10  1  0
 12 10  2  0
 13  9  1  0
 14  8  1  0
 14 10  1  0
 15  9  1  0
 16  2  1  0
 17 16  1  0
 18  3  1  0
 18 17  1  0
M  END
>  <ID>  (1) 
conformer_0

$$$$
