
     RDKit          3D

 19 18  0  0  0  0  0  0  0  0999 V2000
   18.3097   54.1144   21.8619 C   0  0  0  0  0  0  0  0  0  0  0  0
   21.2477   50.8925   20.7834 C   0  0  0  0  0  0  0  0  0  0  0  0
   18.1107   55.8216   22.9368 C   0  0  0  0  0  0  0  0  0  0  0  0
   19.4078   53.8010   22.1513 C   0  0  0  0  0  0  0  0  0  0  0  0
   17.2483   54.6817   23.2770 C   0  0  0  0  0  0  0  0  0  0  0  0
   22.8218   49.4148   19.7223 C   0  0  0  0  0  0  0  0  0  0  0  0
   16.4677   56.0562   24.2488 C   0  0  0  0  0  0  0  0  0  0  0  0
   24.3550   48.0240   18.6919 C   0  0  0  0  0  0  0  0  0  0  0  0
   15.8458   57.6389   26.6286 O   0  0  0  0  0  0  0  0  0  0  0  0
   22.7186   48.2270   18.3661 C   0  0  0  0  0  0  0  0  0  0  0  0
   16.4054   57.3197   25.8766 C   0  0  0  0  0  0  0  0  0  0  0  0
   17.4133   56.2350   25.2313 C   0  0  0  0  0  0  0  0  0  0  0  0
   24.1645   46.7099   18.1501 C   0  0  0  0  0  0  0  0  0  0  0  0
   16.5405   58.4096   25.3305 O   0  0  0  0  0  0  0  0  0  0  0  0
   25.1131   45.7991   19.1219 C   0  0  0  0  0  0  0  0  0  0  0  0
   21.5413   49.6185   19.9550 C   0  0  0  0  0  0  0  0  0  0  0  0
   19.0135   52.0062   20.6342 C   0  0  0  0  0  0  0  0  0  0  0  0
   19.7267   50.5502   20.0464 C   0  0  0  0  0  0  0  0  0  0  0  0
   20.1941   52.4138   21.5673 C   0  0  0  0  0  0  0  0  0  0  0  0
  4  1  1  0
  5  1  1  0
  5  3  1  0
  7  5  1  0
 10  6  1  0
 10  8  1  0
 11  9  1  0
 12  7  1  0
 12 11  1  0
 13  8  1  0
 14 11  2  0
 15 13  1  0
 16  2  1  0
 16  6  1  0
 18  2  1  0
 18 17  1  0
 19  4  1  0
 19 17  1  0
M  END
>  <ID>  (1) 
conformer_0

$$$$
