
     RDKit          3D

 19 18  0  0  0  0  0  0  0  0999 V2000
   19.9870   52.4149   20.7738 C   0  0  0  0  0  0  0  0  0  0  0  0
   19.2977   51.4580   20.3441 C   0  0  0  0  0  0  0  0  0  0  0  0
   18.4614   53.4287   21.1962 C   0  0  0  0  0  0  0  0  0  0  0  0
   19.4978   54.2192   21.3701 C   0  0  0  0  0  0  0  0  0  0  0  0
   16.3735   56.5996   24.0489 C   0  0  0  0  0  0  0  0  0  0  0  0
   18.2766   54.6053   22.7610 C   0  0  0  0  0  0  0  0  0  0  0  0
   23.5800   49.0536   19.3583 C   0  0  0  0  0  0  0  0  0  0  0  0
   17.5556   55.3837   22.9095 C   0  0  0  0  0  0  0  0  0  0  0  0
   24.9369   45.8290   18.8957 C   0  0  0  0  0  0  0  0  0  0  0  0
   16.5683   58.5216   25.2312 O   0  0  0  0  0  0  0  0  0  0  0  0
   16.4933   57.4233   25.4819 C   0  0  0  0  0  0  0  0  0  0  0  0
   16.1287   57.2010   26.7505 O   0  0  0  0  0  0  0  0  0  0  0  0
   23.5106   47.2606   18.1104 C   0  0  0  0  0  0  0  0  0  0  0  0
   21.2484   50.2811   20.5788 C   0  0  0  0  0  0  0  0  0  0  0  0
   20.1171   49.9466   20.0707 C   0  0  0  0  0  0  0  0  0  0  0  0
   17.5511   55.7351   24.9031 C   0  0  0  0  0  0  0  0  0  0  0  0
   22.1808   48.3731   18.0949 C   0  0  0  0  0  0  0  0  0  0  0  0
   21.4948   48.9908   19.3621 C   0  0  0  0  0  0  0  0  0  0  0  0
   24.7894   47.5844   18.6899 C   0  0  0  0  0  0  0  0  0  0  0  0
  2  1  1  0
  3  1  1  0
  4  3  1  0
  6  4  1  0
  8  6  1  0
 11  5  1  0
 11 10  2  0
 12 11  1  0
 15  2  1  0
 15 14  1  0
 16  5  1  0
 16  8  1  0
 17  7  1  0
 17 13  1  0
 18 14  1  0
 18 17  1  0
 19  9  1  0
 19 13  1  0
M  END
>  <ID>  (1) 
conformer_0

$$$$
