
     RDKit          3D

 19 18  0  0  0  0  0  0  0  0999 V2000
   20.4508   51.4695   20.7489 C   0  0  0  0  0  0  0  0  0  0  0  0
   19.4915   53.3006   21.8178 C   0  0  0  0  0  0  0  0  0  0  0  0
   18.4392   54.0456   21.5064 C   0  0  0  0  0  0  0  0  0  0  0  0
   19.1469   52.0896   20.6401 C   0  0  0  0  0  0  0  0  0  0  0  0
   17.3615   54.7410   22.4865 C   0  0  0  0  0  0  0  0  0  0  0  0
   21.5023   49.7301   20.4094 C   0  0  0  0  0  0  0  0  0  0  0  0
   18.1946   55.6413   23.0767 C   0  0  0  0  0  0  0  0  0  0  0  0
   23.1958   48.8297   19.2827 C   0  0  0  0  0  0  0  0  0  0  0  0
   16.6878   56.2276   23.8643 C   0  0  0  0  0  0  0  0  0  0  0  0
   16.1281   57.2001   25.8981 C   0  0  0  0  0  0  0  0  0  0  0  0
   16.3841   58.1074   25.4785 O   0  0  0  0  0  0  0  0  0  0  0  0
   15.4412   57.4282   26.7389 O   0  0  0  0  0  0  0  0  0  0  0  0
   24.2066   46.7250   18.3184 C   0  0  0  0  0  0  0  0  0  0  0  0
   16.9095   55.9626   25.2202 C   0  0  0  0  0  0  0  0  0  0  0  0
   25.1412   45.7187   19.0605 C   0  0  0  0  0  0  0  0  0  0  0  0
   24.9911   47.9542   18.6980 C   0  0  0  0  0  0  0  0  0  0  0  0
   22.7919   48.1551   18.1174 C   0  0  0  0  0  0  0  0  0  0  0  0
   21.4147   49.1966   19.0987 C   0  0  0  0  0  0  0  0  0  0  0  0
   19.8707   50.0344   20.1858 C   0  0  0  0  0  0  0  0  0  0  0  0
  3  2  1  0
  4  1  1  0
  4  2  1  0
  5  3  1  0
  7  5  1  0
  9  7  1  0
 11 10  2  0
 12 10  1  0
 14  9  1  0
 14 10  1  0
 15 13  1  0
 16 13  1  0
 17  8  1  0
 17 13  1  0
 18  6  1  0
 18  8  1  0
 19  1  1  0
 19  6  1  0
M  END
>  <ID>  (1) 
conformer_0

$$$$
