
     RDKit          3D

 17 16  0  0  0  0  0  0  0  0999 V2000
   20.4220   51.2050   20.7779 C   0  0  0  0  0  0  0  0  0  0  0  0
   19.9939   49.8725   20.2508 C   0  0  0  0  0  0  0  0  0  0  0  0
   19.1434   52.1011   20.8778 C   0  0  0  0  0  0  0  0  0  0  0  0
   21.5492   49.0395   19.1485 C   0  0  0  0  0  0  0  0  0  0  0  0
   21.8638   49.8757   20.4522 C   0  0  0  0  0  0  0  0  0  0  0  0
   19.5200   53.2753   21.8198 C   0  0  0  0  0  0  0  0  0  0  0  0
   23.0124   48.6505   18.9544 C   0  0  0  0  0  0  0  0  0  0  0  0
   16.3962   56.9289   25.6614 C   0  0  0  0  0  0  0  0  0  0  0  0
   16.7806   58.1806   25.4187 O   0  0  0  0  0  0  0  0  0  0  0  0
   15.4939   56.7635   26.6759 O   0  0  0  0  0  0  0  0  0  0  0  0
   17.9858   53.9247   21.7133 C   0  0  0  0  0  0  0  0  0  0  0  0
   24.9116   47.5771   18.3595 C   0  0  0  0  0  0  0  0  0  0  0  0
   18.4465   54.8784   22.7708 C   0  0  0  0  0  0  0  0  0  0  0  0
   24.7161   46.2798   18.7692 C   0  0  0  0  0  0  0  0  0  0  0  0
   17.2355   55.8043   22.9392 C   0  0  0  0  0  0  0  0  0  0  0  0
   17.2104   56.2513   24.2749 C   0  0  0  0  0  0  0  0  0  0  0  0
   23.2206   47.7575   17.8404 C   0  0  0  0  0  0  0  0  0  0  0  0
  2  1  1  0
  3  1  1  0
  5  2  1  0
  5  4  1  0
  6  3  1  0
  7  4  1  0
  9  8  2  0
 10  8  1  0
 11  6  1  0
 13 11  1  0
 14 12  1  0
 15 13  1  0
 16  8  1  0
 16 15  1  0
 17  7  1  0
 17 12  1  0
M  END
>  <ID>  (1) 
conformer_0

$$$$
