
     RDKit          3D

 18 18  0  0  0  0  0  0  0  0999 V2000
   18.9802   52.8307   20.9878 C   0  0  0  0  0  0  0  0  0  0  0  0
   19.4731   53.6068   22.0373 C   0  0  0  0  0  0  0  0  0  0  0  0
   18.1871   55.3875   22.9563 C   0  0  0  0  0  0  0  0  0  0  0  0
   19.4704   50.8491   20.1866 C   0  0  0  0  0  0  0  0  0  0  0  0
   24.6424   47.9861   18.6917 C   0  0  0  0  0  0  0  0  0  0  0  0
   17.9934   54.0951   22.4712 C   0  0  0  0  0  0  0  0  0  0  0  0
   24.7834   46.5581   18.5561 C   0  0  0  0  0  0  0  0  0  0  0  0
   16.8022   55.5876   23.7513 C   0  0  0  0  0  0  0  0  0  0  0  0
   16.3911   57.9200   25.3431 O   0  0  0  0  0  0  0  0  0  0  0  0
   16.2671   56.5049   26.9025 O   0  0  0  0  0  0  0  0  0  0  0  0
   16.5623   56.7906   25.7547 C   0  0  0  0  0  0  0  0  0  0  0  0
   20.9270   49.8557   20.4591 C   0  0  0  0  0  0  0  0  0  0  0  0
   17.3661   55.6946   25.1048 C   0  0  0  0  0  0  0  0  0  0  0  0
   23.1573   47.9846   17.9047 C   0  0  0  0  0  0  0  0  0  0  0  0
   20.5863   49.5190   19.2103 C   0  0  0  0  0  0  0  0  0  0  0  0
   21.5905   48.9259   17.8459 C   0  0  0  0  0  0  0  0  0  0  0  0
   22.6299   48.8770   19.3131 C   0  0  0  0  0  0  0  0  0  0  0  0
   20.3203   51.8300   21.0446 C   0  0  0  0  0  0  0  0  0  0  0  0
  2  1  1  0
  6  2  1  0
  6  3  1  0
  7  5  1  0
  8  3  1  0
 11  9  2  0
 11 10  1  0
 12  4  1  0
 13  8  1  0
 13 11  1  0
 14  5  1  0
 15 12  1  0
 16 14  1  0
 16 15  1  0
 17 14  1  0
 17 16  1  0
 18  1  1  0
 18  4  1  0
M  END
>  <ID>  (1) 
conformer_0

$$$$
