
     RDKit          3D

 17 16  0  0  0  0  0  0  0  0999 V2000
   21.1060   49.3582   19.2096 C   0  0  0  0  0  0  0  0  0  0  0  0
   21.6017   49.8407   20.3226 C   0  0  0  0  0  0  0  0  0  0  0  0
   19.9591   50.4666   20.1902 C   0  0  0  0  0  0  0  0  0  0  0  0
   20.4354   51.6907   20.8740 C   0  0  0  0  0  0  0  0  0  0  0  0
   19.4066   52.5762   21.0524 C   0  0  0  0  0  0  0  0  0  0  0  0
   23.0666   48.5546   19.0999 C   0  0  0  0  0  0  0  0  0  0  0  0
   19.4039   53.8983   21.6113 C   0  0  0  0  0  0  0  0  0  0  0  0
   16.7490   57.2059   25.7059 C   0  0  0  0  0  0  0  0  0  0  0  0
   16.0015   58.0167   24.9347 O   0  0  0  0  0  0  0  0  0  0  0  0
   18.1676   54.0842   22.3348 C   0  0  0  0  0  0  0  0  0  0  0  0
   16.6779   57.7489   26.7605 O   0  0  0  0  0  0  0  0  0  0  0  0
   18.1029   55.5287   22.7084 C   0  0  0  0  0  0  0  0  0  0  0  0
   24.1331   47.5125   17.8332 C   0  0  0  0  0  0  0  0  0  0  0  0
   17.1705   55.5894   23.8250 C   0  0  0  0  0  0  0  0  0  0  0  0
   24.3355   46.5839   18.6953 C   0  0  0  0  0  0  0  0  0  0  0  0
   17.6466   56.0878   25.2114 C   0  0  0  0  0  0  0  0  0  0  0  0
   22.4189   48.4725   18.0142 C   0  0  0  0  0  0  0  0  0  0  0  0
  2  1  1  0
  3  2  1  0
  4  3  1  0
  5  4  1  0
  7  5  1  0
  9  8  2  0
 10  7  1  0
 11  8  1  0
 12 10  1  0
 13  6  1  0
 14 12  1  0
 15 13  1  0
 16  8  1  0
 16 14  1  0
 17  1  1  0
 17  6  1  0
M  END
>  <ID>  (1) 
conformer_0

$$$$
