
     RDKit          3D

 18 17  0  0  0  0  0  0  0  0999 V2000
   21.4157   49.1330   19.5771 C   0  0  0  0  0  0  0  0  0  0  0  0
   20.5228   51.0501   20.6743 C   0  0  0  0  0  0  0  0  0  0  0  0
   18.9136   52.1858   20.5303 C   0  0  0  0  0  0  0  0  0  0  0  0
   22.1958   49.8882   20.1909 C   0  0  0  0  0  0  0  0  0  0  0  0
   17.9144   54.0145   21.6427 C   0  0  0  0  0  0  0  0  0  0  0  0
   23.3996   48.9212   19.2538 C   0  0  0  0  0  0  0  0  0  0  0  0
   17.4445   55.5737   22.8473 C   0  0  0  0  0  0  0  0  0  0  0  0
   23.3603   47.8611   18.2791 C   0  0  0  0  0  0  0  0  0  0  0  0
   16.0441   57.8975   25.3609 O   0  0  0  0  0  0  0  0  0  0  0  0
   16.3554   56.9466   26.1044 C   0  0  0  0  0  0  0  0  0  0  0  0
   16.3978   57.3188   27.2182 O   0  0  0  0  0  0  0  0  0  0  0  0
   17.2563   55.1577   24.1295 C   0  0  0  0  0  0  0  0  0  0  0  0
   24.7964   47.4897   18.3032 C   0  0  0  0  0  0  0  0  0  0  0  0
   17.0403   55.7790   25.3008 C   0  0  0  0  0  0  0  0  0  0  0  0
   24.9151   46.0892   18.7658 C   0  0  0  0  0  0  0  0  0  0  0  0
   18.9045   54.2268   22.3531 C   0  0  0  0  0  0  0  0  0  0  0  0
   19.8416   50.2792   19.9436 C   0  0  0  0  0  0  0  0  0  0  0  0
   19.7340   52.8624   21.4584 C   0  0  0  0  0  0  0  0  0  0  0  0
  3  2  1  0
  4  1  1  0
  6  4  1  0
  7  5  1  0
  8  6  1  0
 10  9  2  0
 11 10  1  0
 12  7  1  0
 13  8  1  0
 14 10  1  0
 14 12  1  0
 15 13  1  0
 16  5  1  0
 17  1  1  0
 17  2  1  0
 18  3  1  0
 18 16  1  0
M  END
>  <ID>  (1) 
conformer_0

$$$$
