
     RDKit          3D

 35 40  0  0  0  0  0  0  0  0999 V2000
    7.0666  -35.9755    2.2456 C   0  0  0  0  0  0  0  0  0  0  0  0
    7.2632  -36.3492    1.0565 C   0  0  0  0  0  0  0  0  0  0  0  0
    5.8536  -36.0489    2.8188 C   0  0  0  0  0  0  0  0  0  0  0  0
    4.8596  -36.6767    2.1575 C   0  0  0  0  0  0  0  0  0  0  0  0
    3.5582  -36.7906    2.7919 C   0  0  0  0  0  0  0  0  0  0  0  0
    3.5181  -36.9187    4.0079 O   0  0  0  0  0  0  0  0  0  0  0  0
    6.2995  -36.9762    0.3149 C   0  0  0  0  0  0  0  0  0  0  0  0
    3.7424  -38.0869    4.5576 C   0  0  0  0  0  0  0  0  0  0  0  0
    3.9944  -38.3127    5.9049 C   0  0  0  0  0  0  0  0  0  0  0  0
    4.1613  -37.0825    6.6563 N   0  0  0  0  0  0  0  0  0  0  0  0
    5.0710  -37.0804    0.8695 C   0  0  0  0  0  0  0  0  0  0  0  0
    2.9459  -39.0116    3.8153 C   0  0  0  0  0  0  0  0  0  0  0  0
    2.5659  -38.8751    2.4722 C   0  0  0  0  0  0  0  0  0  0  0  0
    8.7132  -36.2808    0.3284 C   0  0  0  0  0  0  0  0  0  0  0  0
    2.9349  -37.7908    1.9953 C   0  0  0  0  0  0  0  0  0  0  0  0
    5.0763  -36.2212    6.5180 C   0  0  0  0  0  0  0  0  0  0  0  0
    4.9232  -39.3072    6.1404 C   0  0  0  0  0  0  0  0  0  0  0  0
    9.0620  -37.4775   -0.2786 C   0  0  0  0  0  0  0  0  0  0  0  0
    4.8294  -40.5106    5.6252 C   0  0  0  0  0  0  0  0  0  0  0  0
    5.9782  -36.1210    5.6489 O   0  0  0  0  0  0  0  0  0  0  0  0
    5.2609  -35.3391    7.6568 C   0  0  0  0  0  0  0  0  0  0  0  0
    3.3516  -40.6032    4.0673 C   0  0  0  0  0  0  0  0  0  0  0  0
    6.0085  -35.7285    8.7262 C   0  0  0  0  0  0  0  0  0  0  0  0
    6.4215  -34.8684    9.6658 C   0  0  0  0  0  0  0  0  0  0  0  0
    7.9524  -38.4414   -0.3797 C   0  0  0  0  0  0  0  0  0  0  0  0
    7.2136  -35.3235   10.8160 C   0  0  0  0  0  0  0  0  0  0  0  0
    6.7203  -37.5376   -0.9281 C   0  0  0  0  0  0  0  0  0  0  0  0
    6.4119  -33.5838    9.0923 C   0  0  0  0  0  0  0  0  0  0  0  0
    5.7544  -41.4308    6.4453 O   0  0  0  0  0  0  0  0  0  0  0  0
    5.5727  -33.9032    7.3052 C   0  0  0  0  0  0  0  0  0  0  0  0
    5.9754  -33.0798    8.0659 C   0  0  0  0  0  0  0  0  0  0  0  0
    4.1751  -41.2219    4.8513 C   0  0  0  0  0  0  0  0  0  0  0  0
    6.7602  -41.8802    5.3631 C   0  0  0  0  0  0  0  0  0  0  0  0
    2.6457  -41.0239    2.8664 N   0  0  0  0  0  0  0  0  0  0  0  0
    2.1435  -40.1118    2.0659 C   0  0  0  0  0  0  0  0  0  0  0  0
  1  2  1  0
  1  3  2  0
  3  4  1  0
  4  5  1  0
  5  6  1  0
  2  7  2  0
  6  8  1  0
  8  9  1  0
  9 10  1  0
  4 11  2  0
  7 11  1  0
  8 12  2  0
 12 13  1  0
  2 14  1  0
  5 15  1  0
 13 15  1  0
 10 16  1  0
  9 17  2  0
 14 18  1  0
 17 19  1  0
 16 20  2  0
 16 21  1  0
 12 22  1  0
 21 23  1  0
 23 24  2  0
 18 25  1  0
 24 26  1  0
  7 27  1  0
 25 27  1  0
 24 28  1  0
 19 29  1  0
 21 30  2  0
 28 31  2  0
 30 31  1  0
 19 32  2  0
 22 32  1  0
 29 33  1  0
 22 34  2  0
 13 35  2  0
 34 35  1  0
M  END
>  <ID>  (1) 
conformer_0

$$$$
