
     RDKit          3D

 26 29  0  0  0  0  0  0  0  0999 V2000
    8.5235  -43.1131    3.0737 C   0  0  0  0  0  0  0  0  0  0  0  0
    7.9136  -42.4244    2.1516 C   0  0  0  0  0  0  0  0  0  0  0  0
    8.1873  -42.6118    0.8655 O   0  0  0  0  0  0  0  0  0  0  0  0
    7.8981  -40.9317    2.5187 C   0  0  0  0  0  0  0  0  0  0  0  0
    8.9320  -40.4995    1.8840 O   0  0  0  0  0  0  0  0  0  0  0  0
    6.9262  -40.3393    3.0987 C   0  0  0  0  0  0  0  0  0  0  0  0
    8.1063  -42.8471    4.5677 C   0  0  0  0  0  0  0  0  0  0  0  0
    8.7196  -39.4492    0.9951 C   0  0  0  0  0  0  0  0  0  0  0  0
    6.0142  -39.5381    2.5626 C   0  0  0  0  0  0  0  0  0  0  0  0
    7.2766  -41.7472    4.7514 C   0  0  0  0  0  0  0  0  0  0  0  0
    8.7319  -38.1533    1.3492 C   0  0  0  0  0  0  0  0  0  0  0  0
    6.9373  -41.9325    6.1701 O   0  0  0  0  0  0  0  0  0  0  0  0
    8.3794  -39.7265   -0.3435 C   0  0  0  0  0  0  0  0  0  0  0  0
    5.6311  -38.4463    3.2633 N   0  0  0  0  0  0  0  0  0  0  0  0
    8.1914  -38.7789   -1.2362 C   0  0  0  0  0  0  0  0  0  0  0  0
    5.0525  -37.3414    2.9880 C   0  0  0  0  0  0  0  0  0  0  0  0
    5.1770  -39.8462    1.6451 O   0  0  0  0  0  0  0  0  0  0  0  0
    5.2144  -36.2774    3.8031 C   0  0  0  0  0  0  0  0  0  0  0  0
    6.8479  -40.6261    4.2998 C   0  0  0  0  0  0  0  0  0  0  0  0
    8.2057  -37.4306   -0.8202 C   0  0  0  0  0  0  0  0  0  0  0  0
    5.3731  -36.7607    1.7639 C   0  0  0  0  0  0  0  0  0  0  0  0
    6.5273  -35.9851    1.8408 C   0  0  0  0  0  0  0  0  0  0  0  0
    6.3214  -35.5352    3.4420 O   0  0  0  0  0  0  0  0  0  0  0  0
    8.6246  -37.0568    0.5577 C   0  0  0  0  0  0  0  0  0  0  0  0
    8.5969  -35.6554    1.0666 C   0  0  0  0  0  0  0  0  0  0  0  0
    7.6202  -35.2095    1.6211 N   0  0  0  0  0  0  0  0  0  0  0  0
  1  2  1  0
  2  3  1  0
  2  4  1  0
  4  5  1  0
  4  6  2  0
  1  7  1  0
  5  8  1  0
  6  9  1  0
  7 10  1  0
  8 11  1  0
 10 12  1  0
  8 13  2  0
  9 14  1  0
 13 15  1  0
 14 16  1  0
  9 17  2  0
 16 18  1  0
  6 19  1  0
 10 19  2  0
 15 20  2  0
 16 21  1  0
 21 22  1  0
 18 23  1  0
 22 23  1  0
 11 24  2  0
 20 24  1  0
 24 25  1  0
 22 26  1  0
 25 26  1  0
M  END
>  <ID>  (1) 
conformer_0

$$$$
