
     RDKit          3D

 13 14  0  0  0  0  0  0  0  0999 V2000
    7.0666  -35.9755    2.2456 C   0  0  0  0  0  0  0  0  0  0  0  0
    8.0507  -35.7168    1.5125 C   0  0  0  0  0  0  0  0  0  0  0  0
    8.5194  -36.7446    0.5817 C   0  0  0  0  0  0  0  0  0  0  0  0
    6.5691  -35.0644    3.2415 N   0  0  0  0  0  0  0  0  0  0  0  0
    5.5864  -35.5689    4.1411 C   0  0  0  0  0  0  0  0  0  0  0  0
    5.1253  -36.6623    4.0112 N   0  0  0  0  0  0  0  0  0  0  0  0
    5.4849  -37.6179    3.0699 C   0  0  0  0  0  0  0  0  0  0  0  0
    7.8858  -37.9224    0.4618 C   0  0  0  0  0  0  0  0  0  0  0  0
    6.4971  -37.2442    2.1325 C   0  0  0  0  0  0  0  0  0  0  0  0
    6.8501  -38.1527    1.2580 C   0  0  0  0  0  0  0  0  0  0  0  0
    4.5120  -38.5721    2.9837 O   0  0  0  0  0  0  0  0  0  0  0  0
    5.3166  -34.7874    5.2449 N   0  0  0  0  0  0  0  0  0  0  0  0
    8.5810  -39.0059   -0.7078 Cl  0  0  0  0  0  0  0  0  0  0  0  0
  1  2  1  0
  2  3  2  0
  1  4  1  0
  4  5  1  0
  5  6  2  0
  6  7  1  0
  3  8  1  0
  1  9  2  0
  7  9  1  0
  8 10  2  0
  9 10  1  0
  7 11  2  0
  5 12  1  0
  8 13  1  0
M  END
>  <ID>  (1) 
conformer_0

$$$$
