
     RDKit          3D

 27 31  0  0  0  0  0  0  0  0999 V2000
    8.5728  -38.3963   -0.5614 C   0  0  0  0  0  0  0  0  0  0  0  0
    7.4283  -37.6989   -0.5076 C   0  0  0  0  0  0  0  0  0  0  0  0
    7.4074  -36.6602    0.4394 N   0  0  0  0  0  0  0  0  0  0  0  0
    6.6757  -36.5980    1.4867 C   0  0  0  0  0  0  0  0  0  0  0  0
    7.7399  -35.3377   -0.0828 C   0  0  0  0  0  0  0  0  0  0  0  0
    6.4834  -38.2073   -1.2849 C   0  0  0  0  0  0  0  0  0  0  0  0
    5.9530  -37.6086    2.0881 C   0  0  0  0  0  0  0  0  0  0  0  0
    8.6741  -39.7085   -0.8695 C   0  0  0  0  0  0  0  0  0  0  0  0
    6.8234  -35.5222    2.2682 N   0  0  0  0  0  0  0  0  0  0  0  0
    5.6060  -38.8720    1.2694 C   0  0  0  0  0  0  0  0  0  0  0  0
    5.3433  -37.5623    3.3201 C   0  0  0  0  0  0  0  0  0  0  0  0
    5.7211  -36.2021    3.9780 C   0  0  0  0  0  0  0  0  0  0  0  0
    6.2733  -39.6069   -1.2333 C   0  0  0  0  0  0  0  0  0  0  0  0
    5.1049  -36.0561    5.3641 C   0  0  0  0  0  0  0  0  0  0  0  0
    5.5506  -35.1231    6.1823 C   0  0  0  0  0  0  0  0  0  0  0  0
    4.3312  -37.1753    5.9919 C   0  0  0  0  0  0  0  0  0  0  0  0
    7.4592  -40.2687   -1.2632 C   0  0  0  0  0  0  0  0  0  0  0  0
    4.7797  -40.0519   -1.4484 C   0  0  0  0  0  0  0  0  0  0  0  0
    6.2256  -39.8377    1.8098 O   0  0  0  0  0  0  0  0  0  0  0  0
    4.2999  -39.1604    0.9221 N   0  0  0  0  0  0  0  0  0  0  0  0
    3.7885  -38.2237    5.2567 C   0  0  0  0  0  0  0  0  0  0  0  0
    6.4307  -35.3802    3.4396 C   0  0  0  0  0  0  0  0  0  0  0  0
    3.9867  -37.0220    7.2674 C   0  0  0  0  0  0  0  0  0  0  0  0
    4.6814  -35.9391    8.0523 C   0  0  0  0  0  0  0  0  0  0  0  0
    4.2685  -38.2554    3.9572 C   0  0  0  0  0  0  0  0  0  0  0  0
    4.0971  -40.1408   -0.1929 C   0  0  0  0  0  0  0  0  0  0  0  0
    5.3295  -35.0052    7.4747 C   0  0  0  0  0  0  0  0  0  0  0  0
  1  2  1  0
  2  3  1  0
  3  4  1  0
  3  5  1  0
  2  6  2  0
  4  7  1  0
  1  8  2  0
  4  9  2  0
  7 10  1  0
  7 11  2  0
 11 12  1  0
  6 13  1  0
 12 14  1  0
 14 15  2  0
 14 16  1  0
  8 17  1  0
 13 17  2  0
 13 18  1  0
 10 19  2  0
 10 20  1  0
 16 21  1  0
  9 22  1  0
 12 22  2  0
 16 23  2  0
 23 24  1  0
 11 25  1  0
 21 25  2  0
 18 26  1  0
 20 26  1  0
 15 27  1  0
 24 27  2  0
M  END
>  <ID>  (1) 
conformer_0

$$$$
