
     RDKit          3D

 34 40  0  0  0  0  0  0  0  0999 V2000
    7.0666  -35.9755    2.2456 C   0  0  0  0  0  0  0  0  0  0  0  0
    7.2632  -36.3492    1.0565 C   0  0  0  0  0  0  0  0  0  0  0  0
    5.8536  -36.0489    2.8188 C   0  0  0  0  0  0  0  0  0  0  0  0
    4.8596  -36.6767    2.1575 C   0  0  0  0  0  0  0  0  0  0  0  0
    3.5582  -36.7906    2.7919 C   0  0  0  0  0  0  0  0  0  0  0  0
    3.5181  -36.9187    4.0079 O   0  0  0  0  0  0  0  0  0  0  0  0
    6.2995  -36.9762    0.3149 C   0  0  0  0  0  0  0  0  0  0  0  0
    3.7424  -38.0869    4.5576 C   0  0  0  0  0  0  0  0  0  0  0  0
    3.9944  -38.3127    5.9049 C   0  0  0  0  0  0  0  0  0  0  0  0
    4.1613  -37.0825    6.6563 N   0  0  0  0  0  0  0  0  0  0  0  0
    5.0710  -37.0804    0.8695 C   0  0  0  0  0  0  0  0  0  0  0  0
    2.9459  -39.0116    3.8153 C   0  0  0  0  0  0  0  0  0  0  0  0
    4.5523  -37.1460    7.9261 C   0  0  0  0  0  0  0  0  0  0  0  0
    4.8860  -35.9196    6.0672 C   0  0  0  0  0  0  0  0  0  0  0  0
    8.8012  -36.2345    0.3679 C   0  0  0  0  0  0  0  0  0  0  0  0
    3.9792  -38.2453    8.7498 C   0  0  0  0  0  0  0  0  0  0  0  0
    4.0382  -39.5265    6.5246 C   0  0  0  0  0  0  0  0  0  0  0  0
    4.0560  -40.7421    5.8184 C   0  0  0  0  0  0  0  0  0  0  0  0
    2.5736  -38.7052    2.5043 C   0  0  0  0  0  0  0  0  0  0  0  0
    4.0669  -39.5056    8.0369 C   0  0  0  0  0  0  0  0  0  0  0  0
    5.4568  -35.0534    7.0449 C   0  0  0  0  0  0  0  0  0  0  0  0
    6.1012  -33.8569    7.0159 C   0  0  0  0  0  0  0  0  0  0  0  0
    9.3356  -37.5166    0.0494 C   0  0  0  0  0  0  0  0  0  0  0  0
    5.0710  -35.7594    8.2699 C   0  0  0  0  0  0  0  0  0  0  0  0
    5.4788  -35.3175    9.4758 C   0  0  0  0  0  0  0  0  0  0  0  0
    6.5592  -37.4950   -1.0809 C   0  0  0  0  0  0  0  0  0  0  0  0
    4.8123  -41.7437    5.9392 O   0  0  0  0  0  0  0  0  0  0  0  0
    6.6247  -33.3574    8.3349 C   0  0  0  0  0  0  0  0  0  0  0  0
    6.4230  -34.0664    9.4851 C   0  0  0  0  0  0  0  0  0  0  0  0
    8.8159  -38.1268   -1.2840 C   0  0  0  0  0  0  0  0  0  0  0  0
    1.9326  -39.6518    1.8456 O   0  0  0  0  0  0  0  0  0  0  0  0
    7.5342  -38.5471   -1.1038 N   0  0  0  0  0  0  0  0  0  0  0  0
    2.9955  -37.6195    1.9617 N   0  0  0  0  0  0  0  0  0  0  0  0
    3.1655  -40.5278    4.6533 C   0  0  0  0  0  0  0  0  0  0  0  0
  1  2  1  0
  1  3  2  0
  3  4  1  0
  4  5  1  0
  5  6  1  0
  2  7  2  0
  6  8  1  0
  8  9  1  0
  9 10  1  0
  4 11  2  0
  7 11  1  0
  8 12  2  0
 10 13  1  0
 10 14  1  0
  2 15  1  0
 13 16  2  0
  9 17  2  0
 17 18  1  0
 12 19  1  0
 16 20  1  0
 17 20  1  0
 14 21  1  0
 21 22  2  0
 15 23  1  0
 13 24  1  0
 21 24  1  0
 24 25  2  0
  7 26  1  0
 18 27  2  0
 22 28  1  0
 25 29  1  0
 28 29  2  0
 23 30  1  0
 19 31  2  0
 26 32  1  0
 30 32  1  0
  5 33  1  0
 19 33  1  0
 12 34  1  0
 18 34  1  0
M  END
>  <ID>  (1) 
conformer_0

$$$$
