
     RDKit          3D

 22 24  0  0  0  0  0  0  0  0999 V2000
    7.0666  -35.9755    2.2456 C   0  0  0  0  0  0  0  0  0  0  0  0
    7.2632  -36.3492    1.0565 C   0  0  0  0  0  0  0  0  0  0  0  0
    5.8536  -36.0489    2.8188 C   0  0  0  0  0  0  0  0  0  0  0  0
    4.8596  -36.6767    2.1575 C   0  0  0  0  0  0  0  0  0  0  0  0
    3.5582  -36.7906    2.7919 C   0  0  0  0  0  0  0  0  0  0  0  0
    3.5181  -36.9187    4.0079 O   0  0  0  0  0  0  0  0  0  0  0  0
    6.2995  -36.9762    0.3149 C   0  0  0  0  0  0  0  0  0  0  0  0
    3.7424  -38.0869    4.5576 C   0  0  0  0  0  0  0  0  0  0  0  0
    3.9944  -38.3127    5.9049 C   0  0  0  0  0  0  0  0  0  0  0  0
    4.1613  -37.0825    6.6563 N   0  0  0  0  0  0  0  0  0  0  0  0
    5.0710  -37.0804    0.8695 C   0  0  0  0  0  0  0  0  0  0  0  0
    2.9459  -39.0116    3.8153 C   0  0  0  0  0  0  0  0  0  0  0  0
    4.5523  -37.1460    7.9261 C   0  0  0  0  0  0  0  0  0  0  0  0
    4.8860  -35.9196    6.0672 C   0  0  0  0  0  0  0  0  0  0  0  0
    5.3468  -36.2408    8.5281 C   0  0  0  0  0  0  0  0  0  0  0  0
    4.1626  -39.5380    6.3611 C   0  0  0  0  0  0  0  0  0  0  0  0
    3.1288  -40.4764    4.5008 C   0  0  0  0  0  0  0  0  0  0  0  0
    3.7210  -40.5958    5.6913 C   0  0  0  0  0  0  0  0  0  0  0  0
    5.5962  -35.3195    7.2955 C   0  0  0  0  0  0  0  0  0  0  0  0
    8.8144  -36.2094    0.3091 Cl  0  0  0  0  0  0  0  0  0  0  0  0
    6.5910  -37.5865   -1.2656 Cl  0  0  0  0  0  0  0  0  0  0  0  0
    6.3625  -34.1299    7.2874 C   0  0  0  0  0  0  0  0  0  0  0  0
  1  2  1  0
  1  3  2  0
  3  4  1  0
  4  5  1  0
  5  6  1  0
  2  7  2  0
  6  8  1  0
  8  9  1  0
  9 10  1  0
  4 11  2  0
  7 11  1  0
  8 12  2  0
 10 13  1  0
 10 14  1  0
 13 15  2  0
  9 16  2  0
 12 17  1  0
 16 18  1  0
 17 18  2  0
 14 19  2  0
 15 19  1  0
  2 20  1  0
  7 21  1  0
 19 22  1  0
M  END
>  <ID>  (1) 
conformer_0

$$$$
