
     RDKit          3D

 28 31  0  0  0  0  0  0  0  0999 V2000
    8.5235  -43.1131    3.0737 C   0  0  0  0  0  0  0  0  0  0  0  0
    7.9136  -42.4244    2.1516 C   0  0  0  0  0  0  0  0  0  0  0  0
    7.1343  -41.4006    2.2709 C   0  0  0  0  0  0  0  0  0  0  0  0
    6.7610  -40.9759    3.5342 C   0  0  0  0  0  0  0  0  0  0  0  0
    6.6292  -40.6777    1.0855 C   0  0  0  0  0  0  0  0  0  0  0  0
    5.9109  -39.8818    3.6646 O   0  0  0  0  0  0  0  0  0  0  0  0
    7.2995  -41.6299    4.6651 C   0  0  0  0  0  0  0  0  0  0  0  0
    8.1702  -42.7157    4.4968 C   0  0  0  0  0  0  0  0  0  0  0  0
    4.8150  -39.7939    4.4871 C   0  0  0  0  0  0  0  0  0  0  0  0
    7.1012  -39.6345    0.5586 C   0  0  0  0  0  0  0  0  0  0  0  0
    4.8243  -40.3133    5.6042 C   0  0  0  0  0  0  0  0  0  0  0  0
    5.9110  -41.4688    0.1645 N   0  0  0  0  0  0  0  0  0  0  0  0
    4.0144  -38.6003    4.2030 C   0  0  0  0  0  0  0  0  0  0  0  0
    6.2891  -38.7964   -0.2631 N   0  0  0  0  0  0  0  0  0  0  0  0
    4.1320  -37.8591    2.9461 C   0  0  0  0  0  0  0  0  0  0  0  0
    2.9417  -38.3800    4.8925 C   0  0  0  0  0  0  0  0  0  0  0  0
    8.2106  -38.9197    0.9601 C   0  0  0  0  0  0  0  0  0  0  0  0
    3.7557  -40.1332    6.5467 C   0  0  0  0  0  0  0  0  0  0  0  0
    5.0396  -39.2621   -0.7531 C   0  0  0  0  0  0  0  0  0  0  0  0
    1.9383  -37.3970    4.6935 C   0  0  0  0  0  0  0  0  0  0  0  0
    6.4934  -37.5524   -0.6415 C   0  0  0  0  0  0  0  0  0  0  0  0
    2.8150  -39.1476    6.2231 C   0  0  0  0  0  0  0  0  0  0  0  0
    8.6342  -37.6458    0.5037 C   0  0  0  0  0  0  0  0  0  0  0  0
    7.7690  -36.9304   -0.3315 C   0  0  0  0  0  0  0  0  0  0  0  0
    9.6781  -37.0198    1.0526 C   0  0  0  0  0  0  0  0  0  0  0  0
    5.2853  -37.4374    2.5439 N   0  0  0  0  0  0  0  0  0  0  0  0
    5.7350  -36.0877    2.7607 C   0  0  0  0  0  0  0  0  0  0  0  0
    5.0071  -40.8183   -0.8504 C   0  0  0  0  0  0  0  0  0  0  0  0
  1  2  2  0
  2  3  1  0
  3  4  2  0
  3  5  1  0
  4  6  1  0
  4  7  1  0
  1  8  1  0
  7  8  2  0
  6  9  1  0
  5 10  1  0
  9 11  2  0
  5 12  1  0
  9 13  1  0
 10 14  1  0
 13 15  1  0
 13 16  2  0
 10 17  2  0
 11 18  1  0
 14 19  1  0
 16 20  1  0
 14 21  1  0
 16 22  1  0
 18 22  2  0
 17 23  1  0
 21 24  1  0
 23 24  1  0
 23 25  2  0
 15 26  1  0
 26 27  1  0
 12 28  1  0
 19 28  1  0
M  END
>  <ID>  (1) 
conformer_0

$$$$
