
     RDKit          3D

 34 41  0  0  0  0  0  0  0  0999 V2000
    7.0666  -35.9755    2.2456 C   0  0  0  0  0  0  0  0  0  0  0  0
    7.2632  -36.3492    1.0565 C   0  0  0  0  0  0  0  0  0  0  0  0
    5.8536  -36.0489    2.8188 C   0  0  0  0  0  0  0  0  0  0  0  0
    4.8596  -36.6767    2.1575 C   0  0  0  0  0  0  0  0  0  0  0  0
    3.5582  -36.7906    2.7919 C   0  0  0  0  0  0  0  0  0  0  0  0
    3.5181  -36.9187    4.0079 O   0  0  0  0  0  0  0  0  0  0  0  0
    6.2995  -36.9762    0.3149 C   0  0  0  0  0  0  0  0  0  0  0  0
    3.7424  -38.0869    4.5576 C   0  0  0  0  0  0  0  0  0  0  0  0
    3.9944  -38.3127    5.9049 C   0  0  0  0  0  0  0  0  0  0  0  0
    4.1613  -37.0825    6.6563 N   0  0  0  0  0  0  0  0  0  0  0  0
    5.0710  -37.0804    0.8695 C   0  0  0  0  0  0  0  0  0  0  0  0
    2.9459  -39.0116    3.8153 C   0  0  0  0  0  0  0  0  0  0  0  0
    4.5523  -37.1460    7.9261 C   0  0  0  0  0  0  0  0  0  0  0  0
    4.8860  -35.9196    6.0672 C   0  0  0  0  0  0  0  0  0  0  0  0
    5.3468  -36.2408    8.5281 C   0  0  0  0  0  0  0  0  0  0  0  0
    4.1626  -39.5380    6.3611 C   0  0  0  0  0  0  0  0  0  0  0  0
    2.4645  -38.8820    2.4891 C   0  0  0  0  0  0  0  0  0  0  0  0
    8.7977  -36.2098    0.3446 C   0  0  0  0  0  0  0  0  0  0  0  0
    6.5285  -37.4631   -1.0783 C   0  0  0  0  0  0  0  0  0  0  0  0
    4.8706  -39.7569    7.6495 C   0  0  0  0  0  0  0  0  0  0  0  0
    4.7513  -38.5413    8.5203 C   0  0  0  0  0  0  0  0  0  0  0  0
    1.8907  -39.7306    1.8413 O   0  0  0  0  0  0  0  0  0  0  0  0
    5.3320  -38.5827    9.7728 C   0  0  0  0  0  0  0  0  0  0  0  0
    2.9750  -37.6821    1.8929 N   0  0  0  0  0  0  0  0  0  0  0  0
    5.0744  -34.8332    7.9591 O   0  0  0  0  0  0  0  0  0  0  0  0
    5.6608  -36.3304    9.9584 C   0  0  0  0  0  0  0  0  0  0  0  0
    3.8200  -40.6997    5.7217 C   0  0  0  0  0  0  0  0  0  0  0  0
    4.6784  -34.7680    6.7788 C   0  0  0  0  0  0  0  0  0  0  0  0
    9.1670  -37.5714    0.0350 C   0  0  0  0  0  0  0  0  0  0  0  0
    8.0508  -38.1489   -1.0207 C   0  0  0  0  0  0  0  0  0  0  0  0
    3.1961  -40.4712    4.3793 C   0  0  0  0  0  0  0  0  0  0  0  0
    5.8347  -37.4452   10.3937 C   0  0  0  0  0  0  0  0  0  0  0  0
    2.6004  -37.4770    0.5344 C   0  0  0  0  0  0  0  0  0  0  0  0
    3.9947  -37.6044   -0.0784 C   0  0  0  0  0  0  0  0  0  0  0  0
  1  2  1  0
  1  3  2  0
  3  4  1  0
  4  5  1  0
  5  6  1  0
  2  7  2  0
  6  8  1  0
  8  9  1  0
  9 10  1  0
  4 11  2  0
  7 11  1  0
  8 12  2  0
 10 13  1  0
 10 14  1  0
 13 15  2  0
  9 16  2  0
 12 17  1  0
  2 18  1  0
  7 19  1  0
 16 20  1  0
 13 21  1  0
 20 21  1  0
 17 22  2  0
 21 23  2  0
  5 24  1  0
 17 24  1  0
 15 25  1  0
 15 26  1  0
 16 27  1  0
 14 28  1  0
 25 28  1  0
 18 29  1  0
 19 30  1  0
 29 30  1  0
 12 31  1  0
 27 31  2  0
 23 32  1  0
 26 32  2  0
 24 33  1  0
 11 34  1  0
 33 34  1  0
M  END
>  <ID>  (1) 
conformer_0

$$$$
