
     RDKit          3D

 34 38  0  0  0  0  0  0  0  0999 V2000
    8.5728  -38.3963   -0.5614 C   0  0  0  0  0  0  0  0  0  0  0  0
    7.4283  -37.6989   -0.5076 C   0  0  0  0  0  0  0  0  0  0  0  0
    7.4074  -36.6602    0.4394 N   0  0  0  0  0  0  0  0  0  0  0  0
    6.6757  -36.5980    1.4867 C   0  0  0  0  0  0  0  0  0  0  0  0
    8.8876  -36.0905    0.6081 C   0  0  0  0  0  0  0  0  0  0  0  0
    5.5416  -37.3678    1.5057 C   0  0  0  0  0  0  0  0  0  0  0  0
    6.2183  -38.4592   -0.2730 C   0  0  0  0  0  0  0  0  0  0  0  0
    8.7924  -39.3398    0.6854 C   0  0  0  0  0  0  0  0  0  0  0  0
    7.0301  -36.0639    2.6855 O   0  0  0  0  0  0  0  0  0  0  0  0
    4.5912  -37.2532    2.6032 C   0  0  0  0  0  0  0  0  0  0  0  0
    9.5833  -39.0874    1.4994 O   0  0  0  0  0  0  0  0  0  0  0  0
    5.2500  -38.2205    0.5171 C   0  0  0  0  0  0  0  0  0  0  0  0
    4.8208  -36.3178    3.6928 O   0  0  0  0  0  0  0  0  0  0  0  0
    3.8794  -36.1750    4.6348 C   0  0  0  0  0  0  0  0  0  0  0  0
    5.7471  -38.7053   -1.7863 C   0  0  0  0  0  0  0  0  0  0  0  0
    4.0833  -38.9867    0.5946 C   0  0  0  0  0  0  0  0  0  0  0  0
    3.8320  -39.9297   -0.5692 C   0  0  0  0  0  0  0  0  0  0  0  0
    8.2684  -40.6536    0.5307 N   0  0  0  0  0  0  0  0  0  0  0  0
    3.3936  -38.0131    2.7998 C   0  0  0  0  0  0  0  0  0  0  0  0
    3.1429  -38.8670    1.6588 C   0  0  0  0  0  0  0  0  0  0  0  0
    7.9466  -41.2647    1.5599 C   0  0  0  0  0  0  0  0  0  0  0  0
    4.2760  -36.8682    5.7772 C   0  0  0  0  0  0  0  0  0  0  0  0
    4.7571  -36.2833    6.8367 C   0  0  0  0  0  0  0  0  0  0  0  0
    5.1444  -34.8334    6.7008 C   0  0  0  0  0  0  0  0  0  0  0  0
    5.0570  -36.9284    8.0097 C   0  0  0  0  0  0  0  0  0  0  0  0
    5.7241  -36.2920    9.0393 C   0  0  0  0  0  0  0  0  0  0  0  0
    4.6690  -39.7517   -1.7998 C   0  0  0  0  0  0  0  0  0  0  0  0
    5.9808  -34.3544    7.6255 C   0  0  0  0  0  0  0  0  0  0  0  0
    7.8058  -42.7101    1.4806 C   0  0  0  0  0  0  0  0  0  0  0  0
    7.8085  -43.5242    2.7256 C   0  0  0  0  0  0  0  0  0  0  0  0
    6.2569  -34.9536    8.9220 C   0  0  0  0  0  0  0  0  0  0  0  0
    7.9304  -42.7663    3.8594 C   0  0  0  0  0  0  0  0  0  0  0  0
    8.1493  -40.6745    2.8642 C   0  0  0  0  0  0  0  0  0  0  0  0
    8.0469  -41.5070    4.1078 C   0  0  0  0  0  0  0  0  0  0  0  0
  1  2  1  0
  2  3  1  0
  3  4  1  0
  3  5  1  0
  4  6  1  0
  2  7  1  0
  1  8  1  0
  4  9  2  0
  6 10  2  0
  8 11  2  0
  6 12  1  0
  7 12  1  0
 10 13  1  0
 13 14  1  0
  7 15  1  0
 12 16  2  0
 16 17  1  0
  8 18  1  0
 10 19  1  0
 16 20  1  0
 19 20  2  0
 18 21  1  0
 14 22  1  0
 22 23  2  3
 23 24  1  0
 23 25  1  0
 25 26  2  0
 15 27  1  0
 17 27  1  0
 24 28  2  0
 21 29  1  0
 29 30  2  0
 26 31  1  0
 28 31  1  0
 30 32  1  0
 21 33  2  0
 32 34  2  0
 33 34  1  0
M  END
>  <ID>  (1) 
conformer_0

$$$$
