
     RDKit          3D

  9  9  0  0  0  0  0  0  0  0999 V2000
    8.6497  -37.7609   -0.5277 C   0  0  0  0  0  0  0  0  0  0  0  0
    8.9645  -37.8910    0.6898 C   0  0  0  0  0  0  0  0  0  0  0  0
    9.3800  -38.9934    1.1816 C   0  0  0  0  0  0  0  0  0  0  0  0
    9.0835  -36.6894    1.4898 C   0  0  0  0  0  0  0  0  0  0  0  0
    7.7479  -36.2199    1.9988 C   0  0  0  0  0  0  0  0  0  0  0  0
    8.4181  -39.0093   -1.2382 C   0  0  0  0  0  0  0  0  0  0  0  0
    8.8825  -40.0994    0.3949 C   0  0  0  0  0  0  0  0  0  0  0  0
    8.3018  -39.9816   -0.5296 N   0  0  0  0  0  0  0  0  0  0  0  0
    6.8464  -36.9559    1.9336 O   0  0  0  0  0  0  0  0  0  0  0  0
  1  2  1  0
  2  3  2  0
  2  4  1  0
  4  5  1  0
  1  6  1  0
  3  7  1  0
  6  8  1  0
  7  8  1  0
  5  9  1  0
M  END
>  <ID>  (1) 
conformer_0

$$$$
