
     RDKit          3D

 13 14  0  0  0  0  0  0  0  0999 V2000
    6.7579  -37.5735   -1.4976 C   0  0  0  0  0  0  0  0  0  0  0  0
    7.6237  -37.3138   -0.5444 C   0  0  0  0  0  0  0  0  0  0  0  0
    8.5609  -38.1568   -0.2299 C   0  0  0  0  0  0  0  0  0  0  0  0
    6.2376  -38.8639   -1.6395 C   0  0  0  0  0  0  0  0  0  0  0  0
    5.0499  -39.2271   -2.3092 C   0  0  0  0  0  0  0  0  0  0  0  0
    4.0234  -39.4718   -1.5624 O   0  0  0  0  0  0  0  0  0  0  0  0
    7.9302  -35.7918   -0.1878 C   0  0  0  0  0  0  0  0  0  0  0  0
    7.8179  -35.7458    1.3838 C   0  0  0  0  0  0  0  0  0  0  0  0
    9.6638  -37.8670    0.6811 O   0  0  0  0  0  0  0  0  0  0  0  0
    6.9602  -39.6400   -0.7897 N   0  0  0  0  0  0  0  0  0  0  0  0
    9.3040  -37.3092    1.9112 C   0  0  0  0  0  0  0  0  0  0  0  0
    7.9084  -39.4059    0.1293 C   0  0  0  0  0  0  0  0  0  0  0  0
    9.0763  -35.9550    1.8986 C   0  0  0  0  0  0  0  0  0  0  0  0
  1  2  2  0
  2  3  1  0
  1  4  1  0
  4  5  1  0
  5  6  1  0
  2  7  1  0
  7  8  1  0
  3  9  1  0
  4 10  2  0
  9 11  1  0
  3 12  1  0
 10 12  1  0
  8 13  1  0
 11 13  1  0
M  END
>  <ID>  (1) 
conformer_0

$$$$
