
     RDKit          3D

 25 28  0  0  0  0  0  0  0  0999 V2000
    7.0666  -35.9755    2.2456 C   0  0  0  0  0  0  0  0  0  0  0  0
    7.2632  -36.3492    1.0565 C   0  0  0  0  0  0  0  0  0  0  0  0
    5.8536  -36.0489    2.8188 C   0  0  0  0  0  0  0  0  0  0  0  0
    4.8596  -36.6767    2.1575 C   0  0  0  0  0  0  0  0  0  0  0  0
    3.5582  -36.7906    2.7919 C   0  0  0  0  0  0  0  0  0  0  0  0
    3.5181  -36.9187    4.0079 O   0  0  0  0  0  0  0  0  0  0  0  0
    6.2995  -36.9762    0.3149 C   0  0  0  0  0  0  0  0  0  0  0  0
    3.7424  -38.0869    4.5576 C   0  0  0  0  0  0  0  0  0  0  0  0
    3.9944  -38.3127    5.9049 C   0  0  0  0  0  0  0  0  0  0  0  0
    4.1613  -37.0825    6.6563 N   0  0  0  0  0  0  0  0  0  0  0  0
    5.0710  -37.0804    0.8695 C   0  0  0  0  0  0  0  0  0  0  0  0
    2.9459  -39.0116    3.8153 C   0  0  0  0  0  0  0  0  0  0  0  0
    4.0972  -39.5785    6.4558 C   0  0  0  0  0  0  0  0  0  0  0  0
    6.6320  -37.5093   -1.1589 C   0  0  0  0  0  0  0  0  0  0  0  0
    2.5307  -38.9291    2.4712 C   0  0  0  0  0  0  0  0  0  0  0  0
    3.3214  -40.3778    4.3692 C   0  0  0  0  0  0  0  0  0  0  0  0
    2.8466  -41.5755    3.5524 O   0  0  0  0  0  0  0  0  0  0  0  0
    3.7386  -40.6442    5.6410 C   0  0  0  0  0  0  0  0  0  0  0  0
    4.6131  -39.7107    7.7470 C   0  0  0  0  0  0  0  0  0  0  0  0
    4.6973  -37.3597    8.0093 C   0  0  0  0  0  0  0  0  0  0  0  0
    4.8606  -38.5968    8.5165 C   0  0  0  0  0  0  0  0  0  0  0  0
    8.7957  -36.1639    0.3418 C   0  0  0  0  0  0  0  0  0  0  0  0
    9.6988  -36.8408    1.0619 C   0  0  0  0  0  0  0  0  0  0  0  0
    3.7648  -41.9274    2.6390 C   0  0  0  0  0  0  0  0  0  0  0  0
    2.6373  -37.5877    2.0790 C   0  0  0  0  0  0  0  0  0  0  0  0
  1  2  1  0
  1  3  2  0
  3  4  1  0
  4  5  1  0
  5  6  1  0
  2  7  2  0
  6  8  1  0
  8  9  1  0
  9 10  1  0
  4 11  2  0
  7 11  1  0
  8 12  2  0
  9 13  2  0
  7 14  1  0
 12 15  1  0
 12 16  1  0
 16 17  1  0
 13 18  1  0
 16 18  2  0
 13 19  1  0
 10 20  2  0
 19 21  2  0
 20 21  1  0
  2 22  1  0
 22 23  1  0
 17 24  1  0
  5 25  1  0
 15 25  1  0
M  END
>  <ID>  (1) 
conformer_0

$$$$
