
     RDKit          3D

 15 16  0  0  0  0  0  0  0  0999 V2000
    7.1124  -37.8189   -1.2160 C   0  0  0  0  0  0  0  0  0  0  0  0
    5.9305  -38.4103   -1.0423 C   0  0  0  0  0  0  0  0  0  0  0  0
    8.1775  -38.3775   -0.3571 C   0  0  0  0  0  0  0  0  0  0  0  0
    5.4149  -38.7385    0.0416 O   0  0  0  0  0  0  0  0  0  0  0  0
    8.8783  -37.6122    0.5334 C   0  0  0  0  0  0  0  0  0  0  0  0
    8.4683  -39.7170   -0.2749 C   0  0  0  0  0  0  0  0  0  0  0  0
    4.1456  -39.3867    0.1453 C   0  0  0  0  0  0  0  0  0  0  0  0
    3.5213  -39.6084   -1.0002 C   0  0  0  0  0  0  0  0  0  0  0  0
    5.0703  -38.7390   -2.0718 C   0  0  0  0  0  0  0  0  0  0  0  0
    8.6067  -36.1047    0.5105 C   0  0  0  0  0  0  0  0  0  0  0  0
    9.3683  -40.2184    0.5404 C   0  0  0  0  0  0  0  0  0  0  0  0
    9.6907  -38.0600    1.4789 C   0  0  0  0  0  0  0  0  0  0  0  0
    9.9561  -39.4070    1.4872 C   0  0  0  0  0  0  0  0  0  0  0  0
    4.1992  -39.2433   -2.1104 C   0  0  0  0  0  0  0  0  0  0  0  0
    3.4703  -39.7564   -3.2863 O   0  0  0  0  0  0  0  0  0  0  0  0
  1  2  1  0
  1  3  1  0
  2  4  1  0
  3  5  1  0
  3  6  2  0
  4  7  1  0
  7  8  2  0
  2  9  2  0
  5 10  1  0
  6 11  1  0
  5 12  2  0
 11 13  2  0
 12 13  1  0
  8 14  1  0
  9 14  1  0
 14 15  2  0
M  END
>  <ID>  (1) 
conformer_0

$$$$
