
     RDKit          3D

 33 36  0  0  0  0  0  0  0  0999 V2000
    8.5235  -43.1131    3.0737 C   0  0  0  0  0  0  0  0  0  0  0  0
    7.9136  -42.4244    2.1516 C   0  0  0  0  0  0  0  0  0  0  0  0
    7.1343  -41.4006    2.2709 C   0  0  0  0  0  0  0  0  0  0  0  0
    6.7610  -40.9759    3.5342 C   0  0  0  0  0  0  0  0  0  0  0  0
    6.6292  -40.6777    1.0855 C   0  0  0  0  0  0  0  0  0  0  0  0
    5.9109  -39.8818    3.6646 O   0  0  0  0  0  0  0  0  0  0  0  0
    7.2995  -41.6299    4.6651 C   0  0  0  0  0  0  0  0  0  0  0  0
    8.1702  -42.7157    4.4968 C   0  0  0  0  0  0  0  0  0  0  0  0
    4.8150  -39.7939    4.4871 C   0  0  0  0  0  0  0  0  0  0  0  0
    7.1012  -39.6345    0.5586 C   0  0  0  0  0  0  0  0  0  0  0  0
    4.8243  -40.3133    5.6042 C   0  0  0  0  0  0  0  0  0  0  0  0
    5.9110  -41.4688    0.1645 N   0  0  0  0  0  0  0  0  0  0  0  0
    4.0144  -38.6003    4.2030 C   0  0  0  0  0  0  0  0  0  0  0  0
    6.2891  -38.7964   -0.2631 N   0  0  0  0  0  0  0  0  0  0  0  0
    4.1320  -37.8591    2.9461 C   0  0  0  0  0  0  0  0  0  0  0  0
    2.9417  -38.3800    4.8925 C   0  0  0  0  0  0  0  0  0  0  0  0
    8.2106  -38.9197    0.9601 C   0  0  0  0  0  0  0  0  0  0  0  0
    3.7557  -40.1332    6.5467 C   0  0  0  0  0  0  0  0  0  0  0  0
    5.0396  -39.2621   -0.7531 C   0  0  0  0  0  0  0  0  0  0  0  0
    6.6854  -37.5309   -0.7641 C   0  0  0  0  0  0  0  0  0  0  0  0
    4.9661  -36.7086    3.0880 N   0  0  0  0  0  0  0  0  0  0  0  0
    9.1662  -39.6548    1.8763 F   0  0  0  0  0  0  0  0  0  0  0  0
    5.3423  -36.2610    4.3378 C   0  0  0  0  0  0  0  0  0  0  0  0
    4.7090  -40.8048   -0.3805 C   0  0  0  0  0  0  0  0  0  0  0  0
    2.8091  -39.1374    6.2372 C   0  0  0  0  0  0  0  0  0  0  0  0
    4.7659  -39.2100   -2.2181 O   0  0  0  0  0  0  0  0  0  0  0  0
    5.9649  -35.1649    4.2399 O   0  0  0  0  0  0  0  0  0  0  0  0
    8.7610  -37.6658    0.4380 C   0  0  0  0  0  0  0  0  0  0  0  0
    9.8572  -37.1413    1.0130 O   0  0  0  0  0  0  0  0  0  0  0  0
    7.9052  -36.9834   -0.4155 C   0  0  0  0  0  0  0  0  0  0  0  0
    5.3014  -36.9801    5.4947 O   0  0  0  0  0  0  0  0  0  0  0  0
    5.5516  -36.1296    6.6387 C   0  0  0  0  0  0  0  0  0  0  0  0
    5.6725  -36.2382    2.0137 C   0  0  0  0  0  0  0  0  0  0  0  0
  1  2  2  0
  2  3  1  0
  3  4  2  0
  3  5  1  0
  4  6  1  0
  4  7  1  0
  1  8  1  0
  7  8  2  0
  6  9  1  0
  5 10  1  0
  9 11  2  0
  5 12  1  0
  9 13  1  0
 10 14  1  0
 13 15  1  0
 13 16  2  0
 10 17  2  0
 11 18  1  0
 14 19  1  0
 14 20  1  0
 15 21  1  0
 17 22  1  0
 21 23  1  0
 12 24  1  0
 19 24  1  0
 16 25  1  0
 18 25  2  0
 19 26  1  0
 23 27  2  0
 17 28  1  0
 28 29  1  0
 20 30  1  0
 28 30  2  0
 23 31  1  0
 31 32  1  0
 21 33  1  0
M  END
>  <ID>  (1) 
conformer_0

$$$$
