
     RDKit          3D

 12 12  0  0  0  0  0  0  0  0999 V2000
    8.5728  -38.3963   -0.5614 C   0  0  0  0  0  0  0  0  0  0  0  0
    7.4283  -37.6989   -0.5076 C   0  0  0  0  0  0  0  0  0  0  0  0
    7.4074  -36.6602    0.4394 N   0  0  0  0  0  0  0  0  0  0  0  0
    8.5823  -35.9086    0.5652 C   0  0  0  0  0  0  0  0  0  0  0  0
    6.2344  -36.2815    1.1957 C   0  0  0  0  0  0  0  0  0  0  0  0
    9.2390  -38.5815    0.7742 O   0  0  0  0  0  0  0  0  0  0  0  0
    5.0566  -36.7428    0.6499 C   0  0  0  0  0  0  0  0  0  0  0  0
    9.3063  -36.1697    1.8742 C   0  0  0  0  0  0  0  0  0  0  0  0
    4.0002  -37.0009    1.6145 C   0  0  0  0  0  0  0  0  0  0  0  0
    9.8595  -37.6993    1.6156 C   0  0  0  0  0  0  0  0  0  0  0  0
    6.2574  -35.4218    2.1369 O   0  0  0  0  0  0  0  0  0  0  0  0
    4.2845  -37.8589    2.5210 O   0  0  0  0  0  0  0  0  0  0  0  0
  1  2  1  0
  2  3  1  0
  3  4  1  0
  3  5  1  0
  1  6  1  0
  5  7  1  0
  4  8  1  0
  7  9  1  0
  6 10  1  0
  8 10  1  0
  5 11  2  0
  9 12  1  0
M  END
>  <ID>  (1) 
conformer_0

$$$$
