
     RDKit          3D

 15 16  0  0  0  0  0  0  0  0999 V2000
    7.3410  -37.3443   -1.3154 C   0  0  0  0  0  0  0  0  0  0  0  0
    8.1216  -37.4734   -0.2524 C   0  0  0  0  0  0  0  0  0  0  0  0
    8.4472  -38.7070    0.2262 C   0  0  0  0  0  0  0  0  0  0  0  0
    9.6580  -39.1691    0.5123 C   0  0  0  0  0  0  0  0  0  0  0  0
    7.3617  -39.6281    0.1593 C   0  0  0  0  0  0  0  0  0  0  0  0
    7.6698  -36.5367    0.7768 C   0  0  0  0  0  0  0  0  0  0  0  0
    7.2025  -35.4713    0.3635 O   0  0  0  0  0  0  0  0  0  0  0  0
    6.2533  -38.3319   -1.4177 C   0  0  0  0  0  0  0  0  0  0  0  0
    6.2671  -39.4201   -0.6783 N   0  0  0  0  0  0  0  0  0  0  0  0
    7.7750  -36.7290    2.0896 N   0  0  0  0  0  0  0  0  0  0  0  0
    7.9169  -40.8500    0.5806 N   0  0  0  0  0  0  0  0  0  0  0  0
    5.2405  -40.3506   -0.5390 C   0  0  0  0  0  0  0  0  0  0  0  0
    9.1966  -40.8295    1.0573 C   0  0  0  0  0  0  0  0  0  0  0  0
    4.1914  -40.1310   -1.5609 C   0  0  0  0  0  0  0  0  0  0  0  0
    2.9974  -40.0275   -1.1179 O   0  0  0  0  0  0  0  0  0  0  0  0
  1  2  1  0
  2  3  1  0
  3  4  2  0
  3  5  1  0
  2  6  1  0
  6  7  2  0
  1  8  1  0
  5  9  1  0
  8  9  1  0
  6 10  1  0
  5 11  2  0
  9 12  1  0
  4 13  1  0
 11 13  1  0
 12 14  1  0
 14 15  1  0
M  END
>  <ID>  (1) 
conformer_0

$$$$
