
     RDKit          3D

 11 11  0  0  0  0  0  0  0  0999 V2000
    6.7579  -37.5735   -1.4976 C   0  0  0  0  0  0  0  0  0  0  0  0
    7.6237  -37.3138   -0.5444 C   0  0  0  0  0  0  0  0  0  0  0  0
    8.5609  -38.1568   -0.2299 C   0  0  0  0  0  0  0  0  0  0  0  0
    6.2376  -38.8639   -1.6395 C   0  0  0  0  0  0  0  0  0  0  0  0
    9.6029  -37.8856    0.6557 O   0  0  0  0  0  0  0  0  0  0  0  0
    7.9472  -35.8902   -0.1697 O   0  0  0  0  0  0  0  0  0  0  0  0
    8.2174  -39.5360   -0.3475 C   0  0  0  0  0  0  0  0  0  0  0  0
    7.8554  -35.6803    1.2689 C   0  0  0  0  0  0  0  0  0  0  0  0
    5.1693  -39.1786   -2.3965 C   0  0  0  0  0  0  0  0  0  0  0  0
    7.0882  -39.7994   -1.0562 C   0  0  0  0  0  0  0  0  0  0  0  0
   10.1267  -38.9232    1.3935 C   0  0  0  0  0  0  0  0  0  0  0  0
  1  2  2  0
  2  3  1  0
  1  4  1  0
  3  5  1  0
  2  6  1  0
  3  7  2  0
  6  8  1  0
  4  9  1  0
  4 10  2  0
  7 10  1  0
  5 11  1  0
M  END
>  <ID>  (1) 
conformer_0

$$$$
