
     RDKit          3D

 15 17  0  0  0  0  0  0  0  0999 V2000
    7.0842  -35.7647    1.1073 C   0  0  0  0  0  0  0  0  0  0  0  0
    6.8712  -36.4904    0.0376 C   0  0  0  0  0  0  0  0  0  0  0  0
    5.7287  -37.1020   -0.1449 C   0  0  0  0  0  0  0  0  0  0  0  0
    8.0161  -37.4616   -0.1669 C   0  0  0  0  0  0  0  0  0  0  0  0
    5.7554  -38.4267   -0.4284 C   0  0  0  0  0  0  0  0  0  0  0  0
    4.6437  -39.1986   -0.5489 C   0  0  0  0  0  0  0  0  0  0  0  0
    8.8014  -37.9237    0.9094 C   0  0  0  0  0  0  0  0  0  0  0  0
    7.0352  -38.8466   -0.6699 N   0  0  0  0  0  0  0  0  0  0  0  0
    4.2394  -39.5797   -1.7876 O   0  0  0  0  0  0  0  0  0  0  0  0
    7.5863  -36.3098    2.2381 C   0  0  0  0  0  0  0  0  0  0  0  0
    7.1484  -35.8744    3.2707 O   0  0  0  0  0  0  0  0  0  0  0  0
    8.5005  -37.2832    2.0630 C   0  0  0  0  0  0  0  0  0  0  0  0
    3.8182  -39.3109    0.3456 O   0  0  0  0  0  0  0  0  0  0  0  0
    8.7625  -39.3614    0.8729 C   0  0  0  0  0  0  0  0  0  0  0  0
    7.6912  -39.8503    0.1041 C   0  0  0  0  0  0  0  0  0  0  0  0
  1  2  1  0
  2  3  1  0
  2  4  1  0
  3  5  1  0
  5  6  1  0
  4  7  1  0
  4  8  1  0
  5  8  1  0
  6  9  2  0
  1 10  1  0
 10 11  2  0
  7 12  1  0
 10 12  1  0
  6 13  1  0
  7 14  1  0
  8 15  1  0
 14 15  2  0
M  END
>  <ID>  (1) 
conformer_0

$$$$
