
     RDKit          3D

 31 34  0  0  0  0  0  0  0  0999 V2000
    8.5235  -43.1131    3.0737 C   0  0  0  0  0  0  0  0  0  0  0  0
    7.9136  -42.4244    2.1516 C   0  0  0  0  0  0  0  0  0  0  0  0
    7.1343  -41.4006    2.2709 C   0  0  0  0  0  0  0  0  0  0  0  0
    6.7610  -40.9759    3.5342 C   0  0  0  0  0  0  0  0  0  0  0  0
    6.6292  -40.6777    1.0855 C   0  0  0  0  0  0  0  0  0  0  0  0
    5.9109  -39.8818    3.6646 O   0  0  0  0  0  0  0  0  0  0  0  0
    7.2995  -41.6299    4.6651 C   0  0  0  0  0  0  0  0  0  0  0  0
    8.1702  -42.7157    4.4968 C   0  0  0  0  0  0  0  0  0  0  0  0
    4.8150  -39.7939    4.4871 C   0  0  0  0  0  0  0  0  0  0  0  0
    7.1012  -39.6345    0.5586 C   0  0  0  0  0  0  0  0  0  0  0  0
    4.8243  -40.3133    5.6042 C   0  0  0  0  0  0  0  0  0  0  0  0
    5.9110  -41.4688    0.1645 N   0  0  0  0  0  0  0  0  0  0  0  0
    4.0144  -38.6003    4.2030 C   0  0  0  0  0  0  0  0  0  0  0  0
    3.7849  -40.0672    6.6030 C   0  0  0  0  0  0  0  0  0  0  0  0
    4.0890  -37.8822    2.9173 C   0  0  0  0  0  0  0  0  0  0  0  0
    8.4016  -39.0456    0.7207 C   0  0  0  0  0  0  0  0  0  0  0  0
    2.9546  -38.3299    5.1322 C   0  0  0  0  0  0  0  0  0  0  0  0
    1.9525  -37.2991    4.8813 O   0  0  0  0  0  0  0  0  0  0  0  0
    4.9412  -42.4779    0.4761 C   0  0  0  0  0  0  0  0  0  0  0  0
    2.4838  -36.2089    4.2123 C   0  0  0  0  0  0  0  0  0  0  0  0
    2.9645  -36.7750    2.8072 C   0  0  0  0  0  0  0  0  0  0  0  0
    5.3163  -37.0809    2.8613 C   0  0  0  0  0  0  0  0  0  0  0  0
    5.6526  -36.5204    1.7070 N   0  0  0  0  0  0  0  0  0  0  0  0
    6.1794  -38.7024   -0.1169 C   0  0  0  0  0  0  0  0  0  0  0  0
    6.6315  -37.5352   -0.6217 C   0  0  0  0  0  0  0  0  0  0  0  0
    3.7047  -40.8422    7.8255 O   0  0  0  0  0  0  0  0  0  0  0  0
    8.7097  -37.6688    0.1416 C   0  0  0  0  0  0  0  0  0  0  0  0
    6.0474  -36.8467    3.9219 O   0  0  0  0  0  0  0  0  0  0  0  0
    2.9445  -39.0236    6.2861 C   0  0  0  0  0  0  0  0  0  0  0  0
    6.9147  -35.8561    1.5914 C   0  0  0  0  0  0  0  0  0  0  0  0
    7.9271  -37.0924   -0.4780 C   0  0  0  0  0  0  0  0  0  0  0  0
  1  2  2  0
  2  3  1  0
  3  4  2  0
  3  5  1  0
  4  6  1  0
  4  7  1  0
  1  8  1  0
  7  8  2  0
  6  9  1  0
  5 10  1  0
  9 11  2  0
  5 12  1  0
  9 13  1  0
 11 14  1  0
 13 15  1  0
 10 16  2  0
 13 17  2  0
 17 18  1  0
 12 19  1  0
 18 20  1  0
 15 21  1  0
 20 21  1  0
 15 22  1  0
 22 23  1  0
 10 24  1  0
 24 25  2  0
 14 26  1  0
 16 27  1  0
 22 28  2  0
 14 29  2  0
 17 29  1  0
 23 30  1  0
 25 31  1  0
 27 31  2  0
M  END
>  <ID>  (1) 
conformer_0

$$$$
