
     RDKit          3D

 21 23  0  0  0  0  0  0  0  0999 V2000
    7.5139  -36.9208   -0.9011 C   0  0  0  0  0  0  0  0  0  0  0  0
    6.5059  -37.7452   -1.3250 C   0  0  0  0  0  0  0  0  0  0  0  0
    7.1938  -36.0703    0.3491 C   0  0  0  0  0  0  0  0  0  0  0  0
    7.0581  -36.9775    1.5767 C   0  0  0  0  0  0  0  0  0  0  0  0
    6.1398  -38.7301   -0.1582 C   0  0  0  0  0  0  0  0  0  0  0  0
    6.5495  -36.2031    2.7433 C   0  0  0  0  0  0  0  0  0  0  0  0
    5.8704  -37.9375    1.1513 N   0  0  0  0  0  0  0  0  0  0  0  0
    5.0689  -39.6523   -0.4141 C   0  0  0  0  0  0  0  0  0  0  0  0
    8.7635  -37.5924   -0.5231 O   0  0  0  0  0  0  0  0  0  0  0  0
    5.3775  -36.2419    3.2308 C   0  0  0  0  0  0  0  0  0  0  0  0
    4.9691  -38.3784    2.0956 C   0  0  0  0  0  0  0  0  0  0  0  0
    4.4060  -39.4967    1.8922 C   0  0  0  0  0  0  0  0  0  0  0  0
    4.7956  -37.5167    3.1531 C   0  0  0  0  0  0  0  0  0  0  0  0
    5.1084  -40.3381   -1.5855 O   0  0  0  0  0  0  0  0  0  0  0  0
    4.5272  -40.3525    0.7584 C   0  0  0  0  0  0  0  0  0  0  0  0
    3.6208  -40.0108    3.0279 C   0  0  0  0  0  0  0  0  0  0  0  0
    5.3628  -35.7670    4.6655 C   0  0  0  0  0  0  0  0  0  0  0  0
    2.9910  -41.2814    2.9788 O   0  0  0  0  0  0  0  0  0  0  0  0
    5.4788  -36.6303    5.5847 O   0  0  0  0  0  0  0  0  0  0  0  0
    4.8650  -34.6689    4.9776 O   0  0  0  0  0  0  0  0  0  0  0  0
    3.4683  -39.3189    4.0877 O   0  0  0  0  0  0  0  0  0  0  0  0
  1  2  1  0
  1  3  1  0
  3  4  1  0
  2  5  1  0
  4  6  1  0
  4  7  1  0
  5  7  1  0
  5  8  1  0
  1  9  1  0
  6 10  1  0
  7 11  1  0
 11 12  2  0
 10 13  1  0
 11 13  1  0
  8 14  1  0
  8 15  1  0
 12 15  1  0
 12 16  1  0
 10 17  1  0
 16 18  2  0
 17 19  1  0
 17 20  2  0
 16 21  1  0
M  END
>  <ID>  (1) 
conformer_0

$$$$
