
     RDKit          3D

 12 13  0  0  0  0  0  0  0  0999 V2000
    8.5728  -38.3963   -0.5614 C   0  0  0  0  0  0  0  0  0  0  0  0
    7.4283  -37.6989   -0.5076 C   0  0  0  0  0  0  0  0  0  0  0  0
    7.4074  -36.6602    0.4394 N   0  0  0  0  0  0  0  0  0  0  0  0
    8.5823  -35.9086    0.5652 C   0  0  0  0  0  0  0  0  0  0  0  0
    6.2344  -36.2815    1.1957 C   0  0  0  0  0  0  0  0  0  0  0  0
    6.2652  -38.6336   -0.1987 C   0  0  0  0  0  0  0  0  0  0  0  0
    8.7365  -39.6729    0.1648 C   0  0  0  0  0  0  0  0  0  0  0  0
    7.5999  -40.2045    0.4890 N   0  0  0  0  0  0  0  0  0  0  0  0
    5.1310  -36.6157    0.6509 C   0  0  0  0  0  0  0  0  0  0  0  0
    6.5843  -39.7588    0.5679 C   0  0  0  0  0  0  0  0  0  0  0  0
    5.0132  -37.9264    0.2930 C   0  0  0  0  0  0  0  0  0  0  0  0
    5.5577  -40.3259    1.1519 O   0  0  0  0  0  0  0  0  0  0  0  0
  1  2  1  0
  2  3  1  0
  3  4  1  0
  3  5  1  0
  2  6  1  0
  1  7  1  0
  7  8  1  0
  5  9  1  0
  6 10  1  0
  8 10  1  0
  6 11  1  0
  9 11  1  0
 10 12  2  0
M  END
>  <ID>  (1) 
conformer_0

$$$$
