
     RDKit          3D

 12 14  0  0  0  0  0  0  0  0999 V2000
    6.7579  -37.5735   -1.4976 C   0  0  0  0  0  0  0  0  0  0  0  0
    7.6237  -37.3138   -0.5444 C   0  0  0  0  0  0  0  0  0  0  0  0
    7.5189  -36.3485    0.3859 C   0  0  0  0  0  0  0  0  0  0  0  0
    7.9426  -38.6262    0.2286 C   0  0  0  0  0  0  0  0  0  0  0  0
    7.4559  -36.8022    1.7841 C   0  0  0  0  0  0  0  0  0  0  0  0
    7.5989  -38.2622    1.5584 N   0  0  0  0  0  0  0  0  0  0  0  0
    6.6191  -39.2026    1.9709 C   0  0  0  0  0  0  0  0  0  0  0  0
    7.1244  -39.6629   -0.1828 C   0  0  0  0  0  0  0  0  0  0  0  0
    6.3884  -40.0760    0.9630 C   0  0  0  0  0  0  0  0  0  0  0  0
    8.0249  -40.6202   -0.6426 O   0  0  0  0  0  0  0  0  0  0  0  0
    6.1792  -38.9964   -1.3216 C   0  0  0  0  0  0  0  0  0  0  0  0
    7.3442  -36.2361    2.8009 O   0  0  0  0  0  0  0  0  0  0  0  0
  1  2  1  0
  2  3  1  0
  2  4  1  0
  3  5  1  0
  4  6  1  0
  5  6  1  0
  6  7  1  0
  4  8  1  0
  7  9  1  0
  8  9  1  0
  8 10  1  0
  1 11  1  0
  8 11  1  0
  5 12  2  0
M  END
>  <ID>  (1) 
conformer_0

$$$$
