
     RDKit          3D

 14 14  0  0  0  0  0  0  0  0999 V2000
    8.6497  -37.7609   -0.5277 C   0  0  0  0  0  0  0  0  0  0  0  0
    7.3710  -37.6440   -0.8066 C   0  0  0  0  0  0  0  0  0  0  0  0
    6.6687  -36.6297   -0.1288 C   0  0  0  0  0  0  0  0  0  0  0  0
    6.7144  -38.7077   -1.2522 N   0  0  0  0  0  0  0  0  0  0  0  0
    9.1547  -38.8543    0.2134 C   0  0  0  0  0  0  0  0  0  0  0  0
    9.0482  -38.9422    1.4399 O   0  0  0  0  0  0  0  0  0  0  0  0
    5.3201  -38.7171   -1.2859 C   0  0  0  0  0  0  0  0  0  0  0  0
    7.3850  -35.6710    0.7391 C   0  0  0  0  0  0  0  0  0  0  0  0
    5.4026  -37.0301    0.3528 C   0  0  0  0  0  0  0  0  0  0  0  0
    9.7321  -39.8193   -0.4221 O   0  0  0  0  0  0  0  0  0  0  0  0
    4.7666  -36.2034    1.3157 C   0  0  0  0  0  0  0  0  0  0  0  0
    3.4664  -36.6161    1.8228 C   0  0  0  0  0  0  0  0  0  0  0  0
    4.6725  -37.9154   -0.4062 C   0  0  0  0  0  0  0  0  0  0  0  0
    2.9703  -36.0329    2.9099 O   0  0  0  0  0  0  0  0  0  0  0  0
  1  2  1  0
  2  3  1  0
  2  4  2  0
  1  5  1  0
  5  6  2  0
  4  7  1  0
  3  8  1  0
  3  9  1  0
  5 10  1  0
  9 11  2  3
 11 12  1  0
  7 13  2  0
  9 13  1  0
 12 14  1  0
M  END
>  <ID>  (1) 
conformer_0

$$$$
