
     RDKit          3D

  7  7  0  0  0  0  0  0  0  0999 V2000
    8.5235  -43.1131    3.0737 C   0  0  0  0  0  0  0  0  0  0  0  0
    8.0220  -43.0449    2.0852 C   0  0  0  0  0  0  0  0  0  0  0  0
    8.1201  -42.3279    4.2186 C   0  0  0  0  0  0  0  0  0  0  0  0
    6.8699  -42.2118    1.7503 C   0  0  0  0  0  0  0  0  0  0  0  0
    8.7232  -42.3924    5.5305 F   0  0  0  0  0  0  0  0  0  0  0  0
    7.0462  -41.4376    4.0764 C   0  0  0  0  0  0  0  0  0  0  0  0
    6.4761  -41.3877    2.8016 C   0  0  0  0  0  0  0  0  0  0  0  0
  1  2  1  0
  1  3  2  0
  2  4  2  0
  3  5  1  0
  3  6  1  0
  4  7  1  0
  6  7  2  0
M  END
>  <ID>  (1) 
conformer_0

$$$$
