
     RDKit          3D

  6  6  0  0  0  0  0  0  0  0999 V2000
    8.6995  -42.3398    4.0058 C   0  0  0  0  0  0  0  0  0  0  0  0
    8.1260  -41.9785    4.9607 C   0  0  0  0  0  0  0  0  0  0  0  0
    8.0524  -42.9623    2.9727 C   0  0  0  0  0  0  0  0  0  0  0  0
    6.8248  -41.9136    5.1013 C   0  0  0  0  0  0  0  0  0  0  0  0
    6.0960  -42.5182    3.9199 C   0  0  0  0  0  0  0  0  0  0  0  0
    6.7337  -43.0311    2.9585 C   0  0  0  0  0  0  0  0  0  0  0  0
  1  2  1  0
  1  3  2  0
  2  4  2  0
  4  5  1  0
  3  6  1  0
  5  6  2  0
M  END
>  <ID>  (1) 
conformer_0

$$$$
