
     RDKit          3D

 10 10  0  0  0  0  0  0  0  0999 V2000
    6.7579  -37.5735   -1.4976 C   0  0  0  0  0  0  0  0  0  0  0  0
    6.0271  -38.5063   -0.9418 C   0  0  0  0  0  0  0  0  0  0  0  0
    7.8073  -36.9432   -0.6377 C   0  0  0  0  0  0  0  0  0  0  0  0
    4.8972  -39.0275   -1.7263 C   0  0  0  0  0  0  0  0  0  0  0  0
    8.0663  -37.4238    0.5635 C   0  0  0  0  0  0  0  0  0  0  0  0
    7.3215  -38.5064    1.0183 C   0  0  0  0  0  0  0  0  0  0  0  0
    6.3262  -39.0782    0.2977 C   0  0  0  0  0  0  0  0  0  0  0  0
    9.1457  -36.7554    1.4384 C   0  0  0  0  0  0  0  0  0  0  0  0
    4.4353  -40.2146   -1.4155 N   0  0  0  0  0  0  0  0  0  0  0  0
    3.4602  -40.8214   -2.2607 C   0  0  0  0  0  0  0  0  0  0  0  0
  1  2  1  0
  1  3  2  0
  2  4  1  0
  3  5  1  0
  5  6  2  0
  2  7  2  0
  6  7  1  0
  5  8  1  0
  4  9  1  0
  9 10  1  0
M  END
>  <ID>  (1) 
conformer_0

$$$$
