
     RDKit          3D

 28 32  0  0  0  0  0  0  0  0999 V2000
    7.0666  -35.9755    2.2456 C   0  0  0  0  0  0  0  0  0  0  0  0
    8.0507  -35.7168    1.5125 C   0  0  0  0  0  0  0  0  0  0  0  0
    6.0570  -36.6898    1.8255 C   0  0  0  0  0  0  0  0  0  0  0  0
    8.4054  -36.3471    0.3072 C   0  0  0  0  0  0  0  0  0  0  0  0
    7.3463  -37.2154   -0.1486 C   0  0  0  0  0  0  0  0  0  0  0  0
    4.8569  -37.0172    2.5687 C   0  0  0  0  0  0  0  0  0  0  0  0
    4.8478  -36.8643    3.7745 N   0  0  0  0  0  0  0  0  0  0  0  0
    4.6375  -37.8636    4.6110 C   0  0  0  0  0  0  0  0  0  0  0  0
    4.3631  -37.6433    5.9299 C   0  0  0  0  0  0  0  0  0  0  0  0
    4.9488  -39.1234    4.1761 C   0  0  0  0  0  0  0  0  0  0  0  0
    5.2383  -39.4736    2.8203 C   0  0  0  0  0  0  0  0  0  0  0  0
    6.2899  -37.4376    0.5739 C   0  0  0  0  0  0  0  0  0  0  0  0
    5.0231  -38.3606    1.9600 C   0  0  0  0  0  0  0  0  0  0  0  0
    4.7589  -40.7180    2.3358 N   0  0  0  0  0  0  0  0  0  0  0  0
    7.6351  -37.8842   -1.4106 O   0  0  0  0  0  0  0  0  0  0  0  0
    5.5617  -38.0981    0.7982 C   0  0  0  0  0  0  0  0  0  0  0  0
    5.0896  -40.1626    5.2603 C   0  0  0  0  0  0  0  0  0  0  0  0
    5.4583  -41.5765    4.8629 C   0  0  0  0  0  0  0  0  0  0  0  0
    4.7934  -39.9616    6.5727 C   0  0  0  0  0  0  0  0  0  0  0  0
    4.7670  -42.4352    4.6633 O   0  0  0  0  0  0  0  0  0  0  0  0
    5.0027  -38.9850   -0.3333 C   0  0  0  0  0  0  0  0  0  0  0  0
    4.4943  -38.6675    6.9922 C   0  0  0  0  0  0  0  0  0  0  0  0
    5.7461  -39.4306   -1.3114 N   0  0  0  0  0  0  0  0  0  0  0  0
    6.9417  -41.7588    4.8577 C   0  0  0  0  0  0  0  0  0  0  0  0
    7.5813  -41.8054    3.5663 C   0  0  0  0  0  0  0  0  0  0  0  0
    6.4428  -38.3489   -1.7536 C   0  0  0  0  0  0  0  0  0  0  0  0
    7.9048  -43.1431    3.0887 C   0  0  0  0  0  0  0  0  0  0  0  0
    8.8867  -41.0401    3.5071 C   0  0  0  0  0  0  0  0  0  0  0  0
  1  2  2  0
  1  3  1  0
  2  4  1  0
  4  5  2  0
  3  6  1  0
  6  7  1  0
  7  8  1  0
  8  9  1  0
  8 10  2  0
 10 11  1  0
  3 12  2  0
  5 12  1  0
  6 13  1  0
 11 13  1  0
 11 14  1  0
  5 15  1  0
 12 16  1  0
 13 16  1  0
 10 17  1  0
 17 18  1  0
 17 19  2  0
 18 20  2  0
 16 21  1  0
  9 22  2  0
 19 22  1  0
 21 23  1  0
 18 24  1  0
 24 25  1  0
 15 26  1  0
 23 26  1  0
 25 27  1  0
 25 28  1  0
M  END
>  <ID>  (1) 
conformer_0

$$$$
