
     RDKit          3D

 32 37  0  0  0  0  0  0  0  0999 V2000
    7.0666  -35.9755    2.2456 C   0  0  0  0  0  0  0  0  0  0  0  0
    7.2632  -36.3492    1.0565 C   0  0  0  0  0  0  0  0  0  0  0  0
    5.8536  -36.0489    2.8188 C   0  0  0  0  0  0  0  0  0  0  0  0
    4.8596  -36.6767    2.1575 C   0  0  0  0  0  0  0  0  0  0  0  0
    3.5582  -36.7906    2.7919 C   0  0  0  0  0  0  0  0  0  0  0  0
    3.5181  -36.9187    4.0079 O   0  0  0  0  0  0  0  0  0  0  0  0
    6.2995  -36.9762    0.3149 C   0  0  0  0  0  0  0  0  0  0  0  0
    3.7424  -38.0869    4.5576 C   0  0  0  0  0  0  0  0  0  0  0  0
    3.9944  -38.3127    5.9049 C   0  0  0  0  0  0  0  0  0  0  0  0
    4.1613  -37.0825    6.6563 N   0  0  0  0  0  0  0  0  0  0  0  0
    5.0710  -37.0804    0.8695 C   0  0  0  0  0  0  0  0  0  0  0  0
    2.9459  -39.0116    3.8153 C   0  0  0  0  0  0  0  0  0  0  0  0
    4.5523  -37.1460    7.9261 C   0  0  0  0  0  0  0  0  0  0  0  0
    4.8860  -35.9196    6.0672 C   0  0  0  0  0  0  0  0  0  0  0  0
    8.8012  -36.2345    0.3679 C   0  0  0  0  0  0  0  0  0  0  0  0
    3.9792  -38.2453    8.7498 C   0  0  0  0  0  0  0  0  0  0  0  0
    4.0382  -39.5265    6.5246 C   0  0  0  0  0  0  0  0  0  0  0  0
    4.0560  -40.7421    5.8184 C   0  0  0  0  0  0  0  0  0  0  0  0
    2.5736  -38.7052    2.5043 C   0  0  0  0  0  0  0  0  0  0  0  0
    6.4849  -37.5437   -1.1439 C   0  0  0  0  0  0  0  0  0  0  0  0
    9.7149  -36.7768    1.1028 C   0  0  0  0  0  0  0  0  0  0  0  0
    1.8981  -39.6049    1.7964 O   0  0  0  0  0  0  0  0  0  0  0  0
    4.2372  -38.2863   10.1654 O   0  0  0  0  0  0  0  0  0  0  0  0
    5.3268  -34.9165    6.8090 C   0  0  0  0  0  0  0  0  0  0  0  0
    2.8011  -37.6702    2.2005 N   0  0  0  0  0  0  0  0  0  0  0  0
    5.1144  -37.5295   10.6496 C   0  0  0  0  0  0  0  0  0  0  0  0
    5.1672  -35.0295    8.2134 C   0  0  0  0  0  0  0  0  0  0  0  0
    4.8166  -36.1149    8.8014 C   0  0  0  0  0  0  0  0  0  0  0  0
    3.3561  -40.8974    4.6618 C   0  0  0  0  0  0  0  0  0  0  0  0
    4.8544  -36.2239   10.2243 C   0  0  0  0  0  0  0  0  0  0  0  0
    4.1835  -39.6031    7.9963 C   0  0  0  0  0  0  0  0  0  0  0  0
    3.0476  -40.3067    3.6904 C   0  0  0  0  0  0  0  0  0  0  0  0
  1  2  1  0
  1  3  2  0
  3  4  1  0
  4  5  1  0
  5  6  1  0
  2  7  2  0
  6  8  1  0
  8  9  1  0
  9 10  1  0
  4 11  2  0
  7 11  1  0
  8 12  2  0
 10 13  1  0
 10 14  1  0
  2 15  1  0
 13 16  2  0
  9 17  2  0
 17 18  1  0
 12 19  1  0
  7 20  1  0
 15 21  1  0
 19 22  2  0
 16 23  1  0
 14 24  2  0
  5 25  1  0
 19 25  1  0
 23 26  1  0
 24 27  1  0
 13 28  1  0
 27 28  2  0
 18 29  2  0
 26 30  1  0
 28 30  1  0
 16 31  1  0
 17 31  1  0
 12 32  1  0
 29 32  1  0
M  END
>  <ID>  (1) 
conformer_0

$$$$
