
     RDKit          3D

 20 22  0  0  0  0  0  0  0  0999 V2000
    8.5235  -43.1131    3.0737 C   0  0  0  0  0  0  0  0  0  0  0  0
    7.9136  -42.4244    2.1516 C   0  0  0  0  0  0  0  0  0  0  0  0
    8.1873  -42.6118    0.8655 O   0  0  0  0  0  0  0  0  0  0  0  0
    7.8981  -40.9317    2.5187 C   0  0  0  0  0  0  0  0  0  0  0  0
    8.9320  -40.4995    1.8840 O   0  0  0  0  0  0  0  0  0  0  0  0
    6.9262  -40.3393    3.0987 C   0  0  0  0  0  0  0  0  0  0  0  0
    8.1063  -42.8471    4.5677 C   0  0  0  0  0  0  0  0  0  0  0  0
    8.7196  -39.4492    0.9951 C   0  0  0  0  0  0  0  0  0  0  0  0
    6.0142  -39.5381    2.5626 C   0  0  0  0  0  0  0  0  0  0  0  0
    7.6375  -38.6338    1.1405 C   0  0  0  0  0  0  0  0  0  0  0  0
    6.3541  -38.7404    1.4825 C   0  0  0  0  0  0  0  0  0  0  0  0
    5.5759  -39.2979    0.3784 C   0  0  0  0  0  0  0  0  0  0  0  0
    7.9029  -37.2039    0.7128 C   0  0  0  0  0  0  0  0  0  0  0  0
    4.4617  -39.9174    0.5365 O   0  0  0  0  0  0  0  0  0  0  0  0
    5.3784  -38.2713   -0.7838 C   0  0  0  0  0  0  0  0  0  0  0  0
    6.6043  -37.6360   -1.3333 C   0  0  0  0  0  0  0  0  0  0  0  0
    7.2022  -41.6824    4.7169 C   0  0  0  0  0  0  0  0  0  0  0  0
    6.9187  -40.5327    4.4109 O   0  0  0  0  0  0  0  0  0  0  0  0
    8.3071  -36.3398    1.7590 C   0  0  0  0  0  0  0  0  0  0  0  0
    7.2711  -36.5608   -0.4771 C   0  0  0  0  0  0  0  0  0  0  0  0
  1  2  1  0
  2  3  1  0
  2  4  1  0
  4  5  1  0
  4  6  2  0
  1  7  1  0
  5  8  1  0
  6  9  1  0
  8 10  1  0
  9 11  1  0
 10 11  1  0
 11 12  1  0
 10 13  2  0
 12 14  1  0
 12 15  1  0
 15 16  1  0
  7 17  1  0
  6 18  1  0
 17 18  1  0
 13 19  1  0
 13 20  1  0
 16 20  1  0
M  END
>  <ID>  (1) 
conformer_0

$$$$
