
     RDKit          3D

 30 34  0  0  0  0  0  0  0  0999 V2000
    7.0666  -35.9755    2.2456 C   0  0  0  0  0  0  0  0  0  0  0  0
    8.0507  -35.7168    1.5125 C   0  0  0  0  0  0  0  0  0  0  0  0
    6.0570  -36.6898    1.8255 C   0  0  0  0  0  0  0  0  0  0  0  0
    8.4054  -36.3471    0.3072 C   0  0  0  0  0  0  0  0  0  0  0  0
    7.3463  -37.2154   -0.1486 C   0  0  0  0  0  0  0  0  0  0  0  0
    4.8569  -37.0172    2.5687 C   0  0  0  0  0  0  0  0  0  0  0  0
    4.8478  -36.8643    3.7745 N   0  0  0  0  0  0  0  0  0  0  0  0
    4.6375  -37.8636    4.6110 C   0  0  0  0  0  0  0  0  0  0  0  0
    4.3631  -37.6433    5.9299 C   0  0  0  0  0  0  0  0  0  0  0  0
    4.9488  -39.1234    4.1761 C   0  0  0  0  0  0  0  0  0  0  0  0
    5.2383  -39.4736    2.8203 C   0  0  0  0  0  0  0  0  0  0  0  0
    6.2899  -37.4376    0.5739 C   0  0  0  0  0  0  0  0  0  0  0  0
    5.0231  -38.3606    1.9600 C   0  0  0  0  0  0  0  0  0  0  0  0
    4.7589  -40.7180    2.3358 N   0  0  0  0  0  0  0  0  0  0  0  0
    7.6351  -37.8842   -1.4106 O   0  0  0  0  0  0  0  0  0  0  0  0
    5.5617  -38.0981    0.7982 C   0  0  0  0  0  0  0  0  0  0  0  0
    5.0896  -40.1626    5.2603 C   0  0  0  0  0  0  0  0  0  0  0  0
    5.4583  -41.5765    4.8629 C   0  0  0  0  0  0  0  0  0  0  0  0
    4.7934  -39.9616    6.5727 C   0  0  0  0  0  0  0  0  0  0  0  0
    5.0259  -39.0091   -0.3348 C   0  0  0  0  0  0  0  0  0  0  0  0
    5.7278  -39.7664   -1.0310 O   0  0  0  0  0  0  0  0  0  0  0  0
    3.8823  -38.8140   -0.8953 O   0  0  0  0  0  0  0  0  0  0  0  0
    5.3158  -41.3651    1.4667 C   0  0  0  0  0  0  0  0  0  0  0  0
    4.7673  -42.5402    4.8324 O   0  0  0  0  0  0  0  0  0  0  0  0
    6.9371  -41.7971    4.7868 C   0  0  0  0  0  0  0  0  0  0  0  0
    7.4695  -42.0605    3.4665 C   0  0  0  0  0  0  0  0  0  0  0  0
    4.6847  -42.5150    0.8968 O   0  0  0  0  0  0  0  0  0  0  0  0
    7.4329  -41.2986    2.3275 C   0  0  0  0  0  0  0  0  0  0  0  0
    6.7682  -41.3829    1.1588 C   0  0  0  0  0  0  0  0  0  0  0  0
    4.4347  -38.6533    6.9261 C   0  0  0  0  0  0  0  0  0  0  0  0
  1  2  2  0
  1  3  1  0
  2  4  1  0
  4  5  2  0
  3  6  1  0
  6  7  1  0
  7  8  1  0
  8  9  1  0
  8 10  2  0
 10 11  1  0
  3 12  2  0
  5 12  1  0
  6 13  1  0
 11 13  1  0
 11 14  1  0
  5 15  1  0
 12 16  1  0
 13 16  1  0
 10 17  1  0
 17 18  1  0
 17 19  2  0
 16 20  1  0
 20 21  2  0
 20 22  1  0
 14 23  1  0
 18 24  2  0
 18 25  1  0
 25 26  1  0
 23 27  2  0
 26 28  1  0
 23 29  1  0
 28 29  1  0
  9 30  2  0
 19 30  1  0
M  END
>  <ID>  (1) 
conformer_0

$$$$
