
     RDKit          3D

 32 34  0  0  0  0  0  0  0  0999 V2000
    7.0666  -35.9755    2.2456 C   0  0  0  0  0  0  0  0  0  0  0  0
    7.2632  -36.3492    1.0565 C   0  0  0  0  0  0  0  0  0  0  0  0
    5.8536  -36.0489    2.8188 C   0  0  0  0  0  0  0  0  0  0  0  0
    4.8596  -36.6767    2.1575 C   0  0  0  0  0  0  0  0  0  0  0  0
    3.5582  -36.7906    2.7919 C   0  0  0  0  0  0  0  0  0  0  0  0
    3.5181  -36.9187    4.0079 O   0  0  0  0  0  0  0  0  0  0  0  0
    6.2995  -36.9762    0.3149 C   0  0  0  0  0  0  0  0  0  0  0  0
    3.7424  -38.0869    4.5576 C   0  0  0  0  0  0  0  0  0  0  0  0
    3.9944  -38.3127    5.9049 C   0  0  0  0  0  0  0  0  0  0  0  0
    4.1613  -37.0825    6.6563 N   0  0  0  0  0  0  0  0  0  0  0  0
    5.0710  -37.0804    0.8695 C   0  0  0  0  0  0  0  0  0  0  0  0
    2.9459  -39.0116    3.8153 C   0  0  0  0  0  0  0  0  0  0  0  0
    5.0856  -36.1992    6.4776 C   0  0  0  0  0  0  0  0  0  0  0  0
    5.1759  -35.0755    7.4023 C   0  0  0  0  0  0  0  0  0  0  0  0
    4.1341  -39.5687    6.4744 C   0  0  0  0  0  0  0  0  0  0  0  0
    6.5174  -37.4350   -1.0510 C   0  0  0  0  0  0  0  0  0  0  0  0
    3.0994  -40.4982    4.4173 C   0  0  0  0  0  0  0  0  0  0  0  0
    5.8297  -36.0758    5.3421 O   0  0  0  0  0  0  0  0  0  0  0  0
    6.1003  -35.2200    8.3981 C   0  0  0  0  0  0  0  0  0  0  0  0
    4.6838  -39.7315    7.7754 C   0  0  0  0  0  0  0  0  0  0  0  0
    8.7688  -36.1914    0.3586 C   0  0  0  0  0  0  0  0  0  0  0  0
    9.6777  -36.9019    1.0438 C   0  0  0  0  0  0  0  0  0  0  0  0
    4.6962  -33.8655    7.2281 C   0  0  0  0  0  0  0  0  0  0  0  0
    6.3466  -34.2454    9.2753 C   0  0  0  0  0  0  0  0  0  0  0  0
    3.7627  -33.7136    5.9784 C   0  0  0  0  0  0  0  0  0  0  0  0
    7.2653  -34.3760   10.3682 C   0  0  0  0  0  0  0  0  0  0  0  0
    4.9521  -32.8244    7.9801 C   0  0  0  0  0  0  0  0  0  0  0  0
    5.8373  -32.9390    8.9729 C   0  0  0  0  0  0  0  0  0  0  0  0
    6.0435  -39.8711    7.9352 O   0  0  0  0  0  0  0  0  0  0  0  0
    5.5173  -38.2944   -1.5830 C   0  0  0  0  0  0  0  0  0  0  0  0
    3.6963  -40.6496    5.6764 C   0  0  0  0  0  0  0  0  0  0  0  0
    3.9874  -39.5660    8.7917 O   0  0  0  0  0  0  0  0  0  0  0  0
  1  2  1  0
  1  3  2  0
  3  4  1  0
  4  5  1  0
  5  6  1  0
  2  7  2  0
  6  8  1  0
  8  9  1  0
  9 10  1  0
  4 11  2  0
  7 11  1  0
  8 12  2  0
 10 13  1  0
 13 14  1  0
  9 15  2  0
  7 16  1  0
 12 17  1  0
 13 18  2  0
 14 19  1  0
 15 20  1  0
  2 21  1  0
 21 22  1  0
 14 23  2  0
 19 24  2  0
 23 25  1  0
 24 26  1  0
 23 27  1  0
 24 28  1  0
 27 28  2  0
 20 29  2  0
 16 30  1  0
 15 31  1  0
 17 31  2  0
 20 32  1  0
M  END
>  <ID>  (1) 
conformer_0

$$$$
