
     RDKit          3D

 26 29  0  0  0  0  0  0  0  0999 V2000
    7.0666  -35.9755    2.2456 C   0  0  0  0  0  0  0  0  0  0  0  0
    7.2632  -36.3492    1.0565 C   0  0  0  0  0  0  0  0  0  0  0  0
    5.8536  -36.0489    2.8188 C   0  0  0  0  0  0  0  0  0  0  0  0
    4.8596  -36.6767    2.1575 C   0  0  0  0  0  0  0  0  0  0  0  0
    3.5582  -36.7906    2.7919 C   0  0  0  0  0  0  0  0  0  0  0  0
    3.5181  -36.9187    4.0079 O   0  0  0  0  0  0  0  0  0  0  0  0
    6.2995  -36.9762    0.3149 C   0  0  0  0  0  0  0  0  0  0  0  0
    3.7424  -38.0869    4.5576 C   0  0  0  0  0  0  0  0  0  0  0  0
    3.9944  -38.3127    5.9049 C   0  0  0  0  0  0  0  0  0  0  0  0
    4.1613  -37.0825    6.6563 N   0  0  0  0  0  0  0  0  0  0  0  0
    5.0710  -37.0804    0.8695 C   0  0  0  0  0  0  0  0  0  0  0  0
    2.9459  -39.0116    3.8153 C   0  0  0  0  0  0  0  0  0  0  0  0
    4.5523  -37.1460    7.9261 C   0  0  0  0  0  0  0  0  0  0  0  0
    4.8860  -35.9196    6.0672 C   0  0  0  0  0  0  0  0  0  0  0  0
    5.3468  -36.2408    8.5281 C   0  0  0  0  0  0  0  0  0  0  0  0
    8.8092  -36.2242    0.3663 C   0  0  0  0  0  0  0  0  0  0  0  0
    4.1873  -39.5347    6.3507 C   0  0  0  0  0  0  0  0  0  0  0  0
    5.5697  -35.3531    7.3134 C   0  0  0  0  0  0  0  0  0  0  0  0
    9.6749  -36.2948    1.2747 F   0  0  0  0  0  0  0  0  0  0  0  0
    4.8787  -39.7509    7.6490 O   0  0  0  0  0  0  0  0  0  0  0  0
    3.1659  -40.4808    4.5181 C   0  0  0  0  0  0  0  0  0  0  0  0
    6.5292  -37.4732   -1.0566 C   0  0  0  0  0  0  0  0  0  0  0  0
    8.7833  -37.4255   -0.5360 C   0  0  0  0  0  0  0  0  0  0  0  0
    3.8097  -40.5586    5.6512 C   0  0  0  0  0  0  0  0  0  0  0  0
    7.8778  -37.5019   -1.4268 O   0  0  0  0  0  0  0  0  0  0  0  0
    6.4793  -34.2208    7.2658 C   0  0  0  0  0  0  0  0  0  0  0  0
  1  2  1  0
  1  3  2  0
  3  4  1  0
  4  5  1  0
  5  6  1  0
  2  7  2  0
  6  8  1  0
  8  9  1  0
  9 10  1  0
  4 11  2  0
  7 11  1  0
  8 12  2  0
 10 13  1  0
 10 14  1  0
 13 15  2  0
  2 16  1  0
  9 17  2  0
 14 18  2  0
 15 18  1  0
 16 19  1  0
 17 20  1  0
 12 21  1  0
  7 22  1  0
 16 23  1  0
 17 24  1  0
 21 24  2  0
 22 25  1  0
 23 25  1  0
 18 26  1  0
M  END
>  <ID>  (1) 
conformer_0

$$$$
