
     RDKit          3D

 29 33  0  0  0  0  0  0  0  0999 V2000
    7.0666  -35.9755    2.2456 C   0  0  0  0  0  0  0  0  0  0  0  0
    7.2632  -36.3492    1.0565 C   0  0  0  0  0  0  0  0  0  0  0  0
    5.8536  -36.0489    2.8188 C   0  0  0  0  0  0  0  0  0  0  0  0
    4.8596  -36.6767    2.1575 C   0  0  0  0  0  0  0  0  0  0  0  0
    3.5582  -36.7906    2.7919 C   0  0  0  0  0  0  0  0  0  0  0  0
    3.5181  -36.9187    4.0079 O   0  0  0  0  0  0  0  0  0  0  0  0
    6.2995  -36.9762    0.3149 C   0  0  0  0  0  0  0  0  0  0  0  0
    3.7424  -38.0869    4.5576 C   0  0  0  0  0  0  0  0  0  0  0  0
    3.9944  -38.3127    5.9049 C   0  0  0  0  0  0  0  0  0  0  0  0
    4.1613  -37.0825    6.6563 N   0  0  0  0  0  0  0  0  0  0  0  0
    5.0710  -37.0804    0.8695 C   0  0  0  0  0  0  0  0  0  0  0  0
    2.9459  -39.0116    3.8153 C   0  0  0  0  0  0  0  0  0  0  0  0
    4.5523  -37.1460    7.9261 C   0  0  0  0  0  0  0  0  0  0  0  0
    4.8860  -35.9196    6.0672 C   0  0  0  0  0  0  0  0  0  0  0  0
    8.8012  -36.2345    0.3679 C   0  0  0  0  0  0  0  0  0  0  0  0
    3.9792  -38.2453    8.7498 C   0  0  0  0  0  0  0  0  0  0  0  0
    4.0382  -39.5265    6.5246 C   0  0  0  0  0  0  0  0  0  0  0  0
    3.8538  -39.5182    8.0712 C   0  0  0  0  0  0  0  0  0  0  0  0
    2.9988  -40.4497    4.4611 C   0  0  0  0  0  0  0  0  0  0  0  0
    6.5202  -37.5629   -1.1322 C   0  0  0  0  0  0  0  0  0  0  0  0
    9.3033  -37.6220    0.1010 C   0  0  0  0  0  0  0  0  0  0  0  0
    4.9277  -40.2983    8.6880 O   0  0  0  0  0  0  0  0  0  0  0  0
    5.4584  -34.9983    6.9726 C   0  0  0  0  0  0  0  0  0  0  0  0
    3.5131  -40.6012    5.6619 C   0  0  0  0  0  0  0  0  0  0  0  0
    8.4185  -38.7106    0.3843 C   0  0  0  0  0  0  0  0  0  0  0  0
    5.3497  -36.0434    8.5747 C   0  0  0  0  0  0  0  0  0  0  0  0
    9.0859  -39.9252    0.6069 C   0  0  0  0  0  0  0  0  0  0  0  0
    7.3910  -38.8612   -0.7986 C   0  0  0  0  0  0  0  0  0  0  0  0
    6.9946  -34.7916    6.7238 C   0  0  0  0  0  0  0  0  0  0  0  0
  1  2  1  0
  1  3  2  0
  3  4  1  0
  4  5  1  0
  5  6  1  0
  2  7  2  0
  6  8  1  0
  8  9  1  0
  9 10  1  0
  4 11  2  0
  7 11  1  0
  8 12  2  0
 10 13  1  0
 10 14  1  0
  2 15  1  0
 13 16  2  0
  9 17  2  0
 16 18  1  0
 17 18  1  0
 12 19  1  0
  7 20  1  0
 15 21  1  0
 18 22  1  0
 14 23  1  0
 17 24  1  0
 19 24  2  0
 21 25  1  0
 13 26  1  0
 23 26  1  0
 25 27  1  0
 20 28  1  0
 25 28  1  0
 23 29  1  0
M  END
>  <ID>  (1) 
conformer_0

$$$$
