
     RDKit          3D

 28 31  0  0  0  0  0  0  0  0999 V2000
    7.0666  -35.9755    2.2456 C   0  0  0  0  0  0  0  0  0  0  0  0
    7.2632  -36.3492    1.0565 C   0  0  0  0  0  0  0  0  0  0  0  0
    6.4211  -37.2453    0.4862 C   0  0  0  0  0  0  0  0  0  0  0  0
    5.9606  -36.2213    2.9818 C   0  0  0  0  0  0  0  0  0  0  0  0
    5.0297  -37.0851    2.4145 C   0  0  0  0  0  0  0  0  0  0  0  0
    5.2660  -37.5906    1.1504 C   0  0  0  0  0  0  0  0  0  0  0  0
    4.2442  -38.6212    0.5238 C   0  0  0  0  0  0  0  0  0  0  0  0
    5.6179  -35.7777    4.2940 C   0  0  0  0  0  0  0  0  0  0  0  0
    8.7350  -35.9347    0.3424 C   0  0  0  0  0  0  0  0  0  0  0  0
    9.6473  -36.1721    1.1827 F   0  0  0  0  0  0  0  0  0  0  0  0
    5.2550  -36.5784    5.1980 N   0  0  0  0  0  0  0  0  0  0  0  0
    8.7412  -36.9253   -0.7252 C   0  0  0  0  0  0  0  0  0  0  0  0
    7.4703  -37.3504   -1.2772 C   0  0  0  0  0  0  0  0  0  0  0  0
    4.9957  -36.1473    6.4910 C   0  0  0  0  0  0  0  0  0  0  0  0
    4.6203  -37.1043    7.3408 C   0  0  0  0  0  0  0  0  0  0  0  0
    6.6086  -37.8264   -0.7466 N   0  0  0  0  0  0  0  0  0  0  0  0
    5.7583  -38.7121   -1.3575 C   0  0  0  0  0  0  0  0  0  0  0  0
    4.2540  -38.3003    7.1244 C   0  0  0  0  0  0  0  0  0  0  0  0
    5.9727  -35.2382    7.0353 C   0  0  0  0  0  0  0  0  0  0  0  0
    3.9862  -38.7147    5.7185 O   0  0  0  0  0  0  0  0  0  0  0  0
    4.1044  -39.3909    7.8687 C   0  0  0  0  0  0  0  0  0  0  0  0
    2.9568  -39.4490    5.4704 C   0  0  0  0  0  0  0  0  0  0  0  0
    5.9140  -39.0892   -2.4740 O   0  0  0  0  0  0  0  0  0  0  0  0
    4.9216  -37.0686    8.7784 C   0  0  0  0  0  0  0  0  0  0  0  0
    4.5594  -39.0556   -0.6630 C   0  0  0  0  0  0  0  0  0  0  0  0
    4.2589  -39.2156    9.2805 C   0  0  0  0  0  0  0  0  0  0  0  0
    4.0855  -40.2313   10.2988 C   0  0  0  0  0  0  0  0  0  0  0  0
    4.6511  -37.9205    9.6916 C   0  0  0  0  0  0  0  0  0  0  0  0
  1  2  2  0
  2  3  1  0
  1  4  1  0
  4  5  2  0
  3  6  2  0
  5  6  1  0
  6  7  1  0
  4  8  1  0
  2  9  1  0
  9 10  1  0
  8 11  2  3
  9 12  1  0
 12 13  1  0
 11 14  1  0
 14 15  1  0
  3 16  1  0
 13 16  1  0
 16 17  1  0
 15 18  1  0
 14 19  1  0
 18 20  1  0
 18 21  2  0
 20 22  1  0
 17 23  2  0
 15 24  2  0
  7 25  2  0
 17 25  1  0
 21 26  1  0
 26 27  1  0
 24 28  1  0
 26 28  2  0
M  END
>  <ID>  (1) 
conformer_0

$$$$
