
     RDKit          3D

 16 17  0  0  0  0  0  0  0  0999 V2000
    8.5728  -38.3963   -0.5614 C   0  0  0  0  0  0  0  0  0  0  0  0
    7.4283  -37.6989   -0.5076 C   0  0  0  0  0  0  0  0  0  0  0  0
    7.4074  -36.6602    0.4394 N   0  0  0  0  0  0  0  0  0  0  0  0
    8.5823  -35.9086    0.5652 C   0  0  0  0  0  0  0  0  0  0  0  0
    6.2354  -38.4137   -0.7132 C   0  0  0  0  0  0  0  0  0  0  0  0
    6.2862  -36.3631    1.2947 C   0  0  0  0  0  0  0  0  0  0  0  0
    4.9983  -37.9662    0.0054 C   0  0  0  0  0  0  0  0  0  0  0  0
    8.7686  -39.3851    0.4564 C   0  0  0  0  0  0  0  0  0  0  0  0
    9.4371  -39.2519    1.4238 O   0  0  0  0  0  0  0  0  0  0  0  0
    3.9027  -38.7959   -0.0962 C   0  0  0  0  0  0  0  0  0  0  0  0
    3.6884  -39.6942   -1.1113 C   0  0  0  0  0  0  0  0  0  0  0  0
    5.1002  -36.9206    0.9270 C   0  0  0  0  0  0  0  0  0  0  0  0
    6.5285  -35.6577    2.2839 O   0  0  0  0  0  0  0  0  0  0  0  0
    8.1512  -40.6237    0.2789 O   0  0  0  0  0  0  0  0  0  0  0  0
    6.0681  -39.3500   -1.6779 C   0  0  0  0  0  0  0  0  0  0  0  0
    4.7149  -39.9481   -1.9135 C   0  0  0  0  0  0  0  0  0  0  0  0
  1  2  1  0
  2  3  1  0
  3  4  1  0
  2  5  1  0
  3  6  1  0
  5  7  1  0
  1  8  1  0
  8  9  2  0
  7 10  2  0
 10 11  1  0
  6 12  1  0
  7 12  1  0
  6 13  2  0
  8 14  1  0
  5 15  2  0
 11 16  2  0
 15 16  1  0
M  END
>  <ID>  (1) 
conformer_0

$$$$
