
     RDKit          3D

 31 35  0  0  0  0  0  0  0  0999 V2000
    7.5152  -37.8431   -1.2783 C   0  0  0  0  0  0  0  0  0  0  0  0
    6.1634  -38.2325   -1.1454 C   0  0  0  0  0  0  0  0  0  0  0  0
    5.3289  -37.7965   -0.1606 C   0  0  0  0  0  0  0  0  0  0  0  0
    6.0617  -39.6368   -1.3122 N   0  0  0  0  0  0  0  0  0  0  0  0
    7.7750  -36.6616   -0.4467 C   0  0  0  0  0  0  0  0  0  0  0  0
    8.4366  -38.8855   -0.6018 C   0  0  0  0  0  0  0  0  0  0  0  0
    6.0331  -40.4335   -0.3701 C   0  0  0  0  0  0  0  0  0  0  0  0
    7.9446  -39.5004    0.6823 C   0  0  0  0  0  0  0  0  0  0  0  0
    5.8972  -36.7451    0.6782 C   0  0  0  0  0  0  0  0  0  0  0  0
    4.7034  -39.7668   -2.2513 C   0  0  0  0  0  0  0  0  0  0  0  0
    8.8993  -39.4389    1.6645 O   0  0  0  0  0  0  0  0  0  0  0  0
    5.2056  -41.4384   -0.2248 O   0  0  0  0  0  0  0  0  0  0  0  0
    6.9129  -40.2564    0.7660 C   0  0  0  0  0  0  0  0  0  0  0  0
    6.8926  -36.2439    0.5309 C   0  0  0  0  0  0  0  0  0  0  0  0
    6.7743  -40.9887    1.9302 C   0  0  0  0  0  0  0  0  0  0  0  0
    5.7065  -40.7337    2.9068 C   0  0  0  0  0  0  0  0  0  0  0  0
    7.7967  -41.8134    2.5985 C   0  0  0  0  0  0  0  0  0  0  0  0
    7.8495  -42.1872    3.9265 C   0  0  0  0  0  0  0  0  0  0  0  0
    6.6842  -41.9915    4.6240 C   0  0  0  0  0  0  0  0  0  0  0  0
    8.1983  -43.6157    4.2606 F   0  0  0  0  0  0  0  0  0  0  0  0
    7.3718  -35.2671    1.5433 O   0  0  0  0  0  0  0  0  0  0  0  0
    4.6614  -40.1175    2.4848 O   0  0  0  0  0  0  0  0  0  0  0  0
    5.6300  -41.2154    4.1443 N   0  0  0  0  0  0  0  0  0  0  0  0
    6.9321  -41.3156    5.9924 C   0  0  0  0  0  0  0  0  0  0  0  0
    4.3416  -41.2714    4.8274 C   0  0  0  0  0  0  0  0  0  0  0  0
    6.8588  -35.5267    2.6982 C   0  0  0  0  0  0  0  0  0  0  0  0
    6.0256  -40.2168    6.2285 C   0  0  0  0  0  0  0  0  0  0  0  0
    4.5656  -40.4246    6.0548 C   0  0  0  0  0  0  0  0  0  0  0  0
    5.9992  -36.6977    2.7820 C   0  0  0  0  0  0  0  0  0  0  0  0
    5.0812  -36.7467    1.7818 C   0  0  0  0  0  0  0  0  0  0  0  0
    8.9469  -41.5071    4.4161 F   0  0  0  0  0  0  0  0  0  0  0  0
  1  2  1  0
  2  3  1  0
  2  4  1  0
  1  5  1  0
  1  6  1  0
  4  7  1  0
  6  8  1  0
  3  9  1  0
  4 10  1  0
  8 11  2  0
  7 12  2  0
  7 13  1  0
  8 13  1  0
  5 14  1  0
  9 14  2  0
 13 15  2  3
 15 16  1  0
 15 17  1  0
 17 18  1  0
 18 19  1  0
 18 20  1  0
 14 21  1  0
 16 22  2  0
 16 23  1  0
 19 23  1  0
 19 24  1  0
 23 25  1  0
 21 26  1  0
 24 27  1  0
 25 28  1  0
 27 28  1  0
 26 29  1  0
  9 30  1  0
 29 30  1  0
 18 31  1  0
M  END
>  <ID>  (1) 
conformer_0

$$$$
