
     RDKit          3D

 14 15  0  0  0  0  0  0  0  0999 V2000
    8.5728  -38.3963   -0.5614 C   0  0  0  0  0  0  0  0  0  0  0  0
    7.4283  -37.6989   -0.5076 C   0  0  0  0  0  0  0  0  0  0  0  0
    6.3356  -38.4155   -0.7080 C   0  0  0  0  0  0  0  0  0  0  0  0
    9.4339  -38.5212    0.6140 C   0  0  0  0  0  0  0  0  0  0  0  0
    7.4939  -37.0219    0.8896 C   0  0  0  0  0  0  0  0  0  0  0  0
    7.3333  -35.5824    1.0107 C   0  0  0  0  0  0  0  0  0  0  0  0
    6.3994  -37.6186    1.8063 C   0  0  0  0  0  0  0  0  0  0  0  0
    5.3528  -38.2802    1.2129 C   0  0  0  0  0  0  0  0  0  0  0  0
    6.0707  -38.7291   -2.1261 O   0  0  0  0  0  0  0  0  0  0  0  0
    8.9280  -37.3780    1.1564 C   0  0  0  0  0  0  0  0  0  0  0  0
    5.2782  -38.8031    0.0750 C   0  0  0  0  0  0  0  0  0  0  0  0
    4.4201  -39.8572   -0.2516 C   0  0  0  0  0  0  0  0  0  0  0  0
    4.9040  -39.1275    2.3295 O   0  0  0  0  0  0  0  0  0  0  0  0
    4.0039  -39.8974   -1.4769 O   0  0  0  0  0  0  0  0  0  0  0  0
  1  2  1  0
  2  3  1  0
  1  4  1  0
  2  5  1  0
  5  6  1  0
  5  7  1  0
  7  8  1  0
  3  9  1  0
  4 10  1  0
  5 10  1  0
  3 11  2  0
  8 11  1  0
 11 12  1  0
  8 13  2  0
 12 14  1  0
M  END
>  <ID>  (1) 
conformer_0

$$$$
