
     RDKit          3D

 11 12  0  0  0  0  0  0  0  0999 V2000
    7.9010  -36.4137   -0.3027 C   0  0  0  0  0  0  0  0  0  0  0  0
    7.4587  -37.4231   -0.9607 C   0  0  0  0  0  0  0  0  0  0  0  0
    6.0649  -37.3899   -1.1470 C   0  0  0  0  0  0  0  0  0  0  0  0
    8.0228  -36.5466    1.2349 C   0  0  0  0  0  0  0  0  0  0  0  0
    8.0135  -38.7637   -0.4942 C   0  0  0  0  0  0  0  0  0  0  0  0
    5.4820  -38.7212   -1.3070 N   0  0  0  0  0  0  0  0  0  0  0  0
    9.3164  -38.7178    0.2027 C   0  0  0  0  0  0  0  0  0  0  0  0
    5.7849  -39.6911   -0.4469 C   0  0  0  0  0  0  0  0  0  0  0  0
    5.0533  -40.6510   -0.0513 O   0  0  0  0  0  0  0  0  0  0  0  0
    9.2729  -37.8154    1.3381 C   0  0  0  0  0  0  0  0  0  0  0  0
    7.1946  -39.6569    0.1370 C   0  0  0  0  0  0  0  0  0  0  0  0
  1  2  1  0
  2  3  1  0
  1  4  1  0
  2  5  1  0
  3  6  1  0
  5  7  1  0
  6  8  1  0
  8  9  2  0
  4 10  1  0
  7 10  1  0
  5 11  1  0
  8 11  1  0
M  END
>  <ID>  (1) 
conformer_0

$$$$
