
     RDKit          3D

 10 11  0  0  0  0  0  0  0  0999 V2000
    7.5152  -37.8431   -1.2783 C   0  0  0  0  0  0  0  0  0  0  0  0
    8.2533  -37.8903   -0.1810 C   0  0  0  0  0  0  0  0  0  0  0  0
    6.3780  -38.6218   -1.1250 C   0  0  0  0  0  0  0  0  0  0  0  0
    5.4048  -38.6126   -2.3010 C   0  0  0  0  0  0  0  0  0  0  0  0
    4.3093  -39.2867   -1.9931 C   0  0  0  0  0  0  0  0  0  0  0  0
    4.0292  -40.0372   -0.8686 C   0  0  0  0  0  0  0  0  0  0  0  0
    8.2117  -38.7274    0.8444 C   0  0  0  0  0  0  0  0  0  0  0  0
    4.9466  -40.0272    0.1815 C   0  0  0  0  0  0  0  0  0  0  0  0
    6.1295  -39.3622   -0.0135 C   0  0  0  0  0  0  0  0  0  0  0  0
    7.0568  -39.4351    1.0191 C   0  0  0  0  0  0  0  0  0  0  0  0
  1  2  1  0
  1  3  2  0
  3  4  1  0
  4  5  2  0
  5  6  1  0
  2  7  2  0
  6  8  2  0
  3  9  1  0
  8  9  1  0
  7 10  1  0
  9 10  2  0
M  END
>  <ID>  (1) 
conformer_0

$$$$
