
     RDKit          3D

 26 29  0  0  0  0  0  0  0  0999 V2000
    7.0666  -35.9755    2.2456 C   0  0  0  0  0  0  0  0  0  0  0  0
    7.2632  -36.3492    1.0565 C   0  0  0  0  0  0  0  0  0  0  0  0
    5.8536  -36.0489    2.8188 C   0  0  0  0  0  0  0  0  0  0  0  0
    4.8596  -36.6767    2.1575 C   0  0  0  0  0  0  0  0  0  0  0  0
    3.5582  -36.7906    2.7919 C   0  0  0  0  0  0  0  0  0  0  0  0
    3.5181  -36.9187    4.0079 O   0  0  0  0  0  0  0  0  0  0  0  0
    6.2995  -36.9762    0.3149 C   0  0  0  0  0  0  0  0  0  0  0  0
    3.7424  -38.0869    4.5576 C   0  0  0  0  0  0  0  0  0  0  0  0
    3.9944  -38.3127    5.9049 C   0  0  0  0  0  0  0  0  0  0  0  0
    4.1613  -37.0825    6.6563 N   0  0  0  0  0  0  0  0  0  0  0  0
    5.0710  -37.0804    0.8695 C   0  0  0  0  0  0  0  0  0  0  0  0
    2.9459  -39.0116    3.8153 C   0  0  0  0  0  0  0  0  0  0  0  0
    4.0972  -39.5785    6.4558 C   0  0  0  0  0  0  0  0  0  0  0  0
    6.6320  -37.5093   -1.1589 C   0  0  0  0  0  0  0  0  0  0  0  0
    2.5307  -38.9291    2.4712 C   0  0  0  0  0  0  0  0  0  0  0  0
    3.3214  -40.3778    4.3692 C   0  0  0  0  0  0  0  0  0  0  0  0
    1.9595  -39.8155    1.9641 O   0  0  0  0  0  0  0  0  0  0  0  0
    8.6279  -36.1775    0.4292 O   0  0  0  0  0  0  0  0  0  0  0  0
    4.6150  -39.7459    7.7483 C   0  0  0  0  0  0  0  0  0  0  0  0
    9.7223  -36.4849    1.1208 C   0  0  0  0  0  0  0  0  0  0  0  0
    4.7092  -37.2896    7.9466 C   0  0  0  0  0  0  0  0  0  0  0  0
    2.9654  -41.5626    3.5428 O   0  0  0  0  0  0  0  0  0  0  0  0
    3.7696  -40.6685    5.6475 C   0  0  0  0  0  0  0  0  0  0  0  0
    4.8860  -38.5424    8.5160 C   0  0  0  0  0  0  0  0  0  0  0  0
    2.7136  -37.6211    2.0408 C   0  0  0  0  0  0  0  0  0  0  0  0
    4.0935  -42.1848    3.0343 C   0  0  0  0  0  0  0  0  0  0  0  0
  1  2  1  0
  1  3  2  0
  3  4  1  0
  4  5  1  0
  5  6  1  0
  2  7  2  0
  6  8  1  0
  8  9  1  0
  9 10  1  0
  4 11  2  0
  7 11  1  0
  8 12  2  0
  9 13  2  0
  7 14  1  0
 12 15  1  0
 12 16  1  0
 15 17  2  0
  2 18  1  0
 13 19  1  0
 18 20  1  0
 10 21  2  0
 16 22  1  0
 13 23  1  0
 16 23  2  0
 19 24  2  0
 21 24  1  0
  5 25  1  0
 15 25  1  0
 22 26  1  0
M  END
>  <ID>  (1) 
conformer_0

$$$$
