
     RDKit          3D

 23 24  0  0  0  0  0  0  0  0999 V2000
    7.0666  -35.9755    2.2456 C   0  0  0  0  0  0  0  0  0  0  0  0
    7.2632  -36.3492    1.0565 C   0  0  0  0  0  0  0  0  0  0  0  0
    6.2434  -36.5961    3.0257 C   0  0  0  0  0  0  0  0  0  0  0  0
    5.8111  -36.0990    4.3593 C   0  0  0  0  0  0  0  0  0  0  0  0
    8.5754  -36.3661    0.3897 C   0  0  0  0  0  0  0  0  0  0  0  0
    8.9270  -37.6137   -0.2065 C   0  0  0  0  0  0  0  0  0  0  0  0
    8.9679  -38.6858    0.5912 C   0  0  0  0  0  0  0  0  0  0  0  0
    6.2192  -36.9078    0.3441 C   0  0  0  0  0  0  0  0  0  0  0  0
    5.3092  -36.8823    5.2012 C   0  0  0  0  0  0  0  0  0  0  0  0
    4.8448  -38.1310    4.9355 C   0  0  0  0  0  0  0  0  0  0  0  0
    8.8004  -40.0192   -0.0318 C   0  0  0  0  0  0  0  0  0  0  0  0
    4.4739  -38.8335    5.9336 C   0  0  0  0  0  0  0  0  0  0  0  0
    4.3134  -38.3614    7.2585 C   0  0  0  0  0  0  0  0  0  0  0  0
    5.0743  -37.0974    2.3592 C   0  0  0  0  0  0  0  0  0  0  0  0
    4.6310  -36.9864    7.4920 C   0  0  0  0  0  0  0  0  0  0  0  0
    8.2290  -40.9288    0.9415 C   0  0  0  0  0  0  0  0  0  0  0  0
    4.4849  -36.4862    8.8404 O   0  0  0  0  0  0  0  0  0  0  0  0
    6.2871  -37.2011   -1.1325 C   0  0  0  0  0  0  0  0  0  0  0  0
    8.6641  -42.0797    1.1411 O   0  0  0  0  0  0  0  0  0  0  0  0
    7.2280  -40.4949    1.7108 O   0  0  0  0  0  0  0  0  0  0  0  0
    5.0865  -37.3219    1.0204 C   0  0  0  0  0  0  0  0  0  0  0  0
    5.1712  -36.2769    6.5166 C   0  0  0  0  0  0  0  0  0  0  0  0
    5.1337  -35.4585    9.2528 C   0  0  0  0  0  0  0  0  0  0  0  0
  1  2  1  0
  1  3  2  0
  3  4  1  0
  2  5  1  0
  5  6  1  0
  6  7  1  0
  2  8  2  0
  4  9  1  0
  9 10  1  0
  7 11  1  0
 10 12  2  0
 12 13  1  0
  3 14  1  0
 13 15  2  0
 11 16  1  0
 15 17  1  0
  8 18  1  0
 16 19  2  0
 16 20  1  0
  8 21  1  0
 14 21  2  0
  9 22  2  0
 15 22  1  0
 17 23  1  0
M  END
>  <ID>  (1) 
conformer_0

$$$$
