
     RDKit          3D

 34 39  0  0  0  0  0  0  0  0999 V2000
    7.0666  -35.9755    2.2456 C   0  0  0  0  0  0  0  0  0  0  0  0
    7.2632  -36.3492    1.0565 C   0  0  0  0  0  0  0  0  0  0  0  0
    5.8536  -36.0489    2.8188 C   0  0  0  0  0  0  0  0  0  0  0  0
    4.8596  -36.6767    2.1575 C   0  0  0  0  0  0  0  0  0  0  0  0
    3.5582  -36.7906    2.7919 C   0  0  0  0  0  0  0  0  0  0  0  0
    3.5181  -36.9187    4.0079 O   0  0  0  0  0  0  0  0  0  0  0  0
    6.2995  -36.9762    0.3149 C   0  0  0  0  0  0  0  0  0  0  0  0
    3.7424  -38.0869    4.5576 C   0  0  0  0  0  0  0  0  0  0  0  0
    3.9944  -38.3127    5.9049 C   0  0  0  0  0  0  0  0  0  0  0  0
    4.1613  -37.0825    6.6563 N   0  0  0  0  0  0  0  0  0  0  0  0
    5.0710  -37.0804    0.8695 C   0  0  0  0  0  0  0  0  0  0  0  0
    2.9459  -39.0116    3.8153 C   0  0  0  0  0  0  0  0  0  0  0  0
    2.5659  -38.8751    2.4722 C   0  0  0  0  0  0  0  0  0  0  0  0
    8.7132  -36.2808    0.3284 C   0  0  0  0  0  0  0  0  0  0  0  0
    2.9349  -37.7908    1.9953 C   0  0  0  0  0  0  0  0  0  0  0  0
    5.0763  -36.2212    6.5180 C   0  0  0  0  0  0  0  0  0  0  0  0
    9.0749  -37.4782   -0.2362 C   0  0  0  0  0  0  0  0  0  0  0  0
    7.9486  -38.3755   -0.5167 C   0  0  0  0  0  0  0  0  0  0  0  0
    5.7440  -36.0164    5.4441 O   0  0  0  0  0  0  0  0  0  0  0  0
    5.1264  -34.9506    7.3261 C   0  0  0  0  0  0  0  0  0  0  0  0
    5.8489  -35.1871    8.5017 C   0  0  0  0  0  0  0  0  0  0  0  0
    2.7015  -37.4873    0.6186 C   0  0  0  0  0  0  0  0  0  0  0  0
    3.9792  -37.3521    0.0409 C   0  0  0  0  0  0  0  0  0  0  0  0
    4.3925  -39.5024    6.4060 C   0  0  0  0  0  0  0  0  0  0  0  0
    5.1152  -39.6308    7.6570 O   0  0  0  0  0  0  0  0  0  0  0  0
    3.1909  -40.4424    4.4316 C   0  0  0  0  0  0  0  0  0  0  0  0
    2.7755  -41.5430    3.6546 C   0  0  0  0  0  0  0  0  0  0  0  0
    3.9502  -40.6273    5.6366 C   0  0  0  0  0  0  0  0  0  0  0  0
    6.5274  -34.0693    8.9714 C   0  0  0  0  0  0  0  0  0  0  0  0
    6.5533  -32.8313    8.4137 C   0  0  0  0  0  0  0  0  0  0  0  0
    7.4028  -31.8590    8.9959 O   0  0  0  0  0  0  0  0  0  0  0  0
    5.3659  -33.6119    6.7496 C   0  0  0  0  0  0  0  0  0  0  0  0
    6.8016  -37.7621   -0.8042 C   0  0  0  0  0  0  0  0  0  0  0  0
    6.0210  -32.6562    7.2062 C   0  0  0  0  0  0  0  0  0  0  0  0
  1  2  1  0
  1  3  2  0
  3  4  1  0
  4  5  1  0
  5  6  1  0
  2  7  2  0
  6  8  1  0
  8  9  1  0
  9 10  1  0
  4 11  2  0
  7 11  1  0
  8 12  2  0
 12 13  1  0
  2 14  1  0
  5 15  1  0
 13 15  1  0
 10 16  1  0
 14 17  1  0
 17 18  1  0
 16 19  2  0
 16 20  1  0
 20 21  1  0
 15 22  2  0
 11 23  1  0
 22 23  1  0
  9 24  2  0
 24 25  1  0
 12 26  1  0
 26 27  1  0
 24 28  1  0
 26 28  2  0
 21 29  2  0
 29 30  1  0
 30 31  1  0
 20 32  2  0
  7 33  1  0
 18 33  1  0
 30 34  2  0
 32 34  1  0
M  END
>  <ID>  (1) 
conformer_0

$$$$
