
     RDKit          3D

 24 27  0  0  0  0  0  0  0  0999 V2000
    8.5235  -43.1131    3.0737 C   0  0  0  0  0  0  0  0  0  0  0  0
    7.9136  -42.4244    2.1516 C   0  0  0  0  0  0  0  0  0  0  0  0
    7.1343  -41.4006    2.2709 C   0  0  0  0  0  0  0  0  0  0  0  0
    6.7610  -40.9759    3.5342 C   0  0  0  0  0  0  0  0  0  0  0  0
    6.6292  -40.6777    1.0855 C   0  0  0  0  0  0  0  0  0  0  0  0
    5.9109  -39.8818    3.6646 O   0  0  0  0  0  0  0  0  0  0  0  0
    7.2995  -41.6299    4.6651 C   0  0  0  0  0  0  0  0  0  0  0  0
    8.1702  -42.7157    4.4968 C   0  0  0  0  0  0  0  0  0  0  0  0
    4.8150  -39.7939    4.4871 C   0  0  0  0  0  0  0  0  0  0  0  0
    7.1012  -39.6345    0.5586 C   0  0  0  0  0  0  0  0  0  0  0  0
    5.3086  -40.8550    0.8819 C   0  0  0  0  0  0  0  0  0  0  0  0
    8.5573  -39.1896    0.6892 C   0  0  0  0  0  0  0  0  0  0  0  0
    4.5061  -38.5046    4.8972 C   0  0  0  0  0  0  0  0  0  0  0  0
    4.7613  -37.3691    4.0909 C   0  0  0  0  0  0  0  0  0  0  0  0
    5.0493  -39.9705   -0.2984 N   0  0  0  0  0  0  0  0  0  0  0  0
    6.2123  -39.2499   -0.4235 C   0  0  0  0  0  0  0  0  0  0  0  0
    6.3720  -38.1352   -1.4116 C   0  0  0  0  0  0  0  0  0  0  0  0
    5.9164  -36.8598    3.6539 N   0  0  0  0  0  0  0  0  0  0  0  0
    4.1042  -35.9864    4.6367 C   0  0  0  0  0  0  0  0  0  0  0  0
    3.9154  -39.9922   -1.2157 C   0  0  0  0  0  0  0  0  0  0  0  0
    5.1787  -35.3920    5.2434 C   0  0  0  0  0  0  0  0  0  0  0  0
    8.6969  -37.9322   -0.2354 C   0  0  0  0  0  0  0  0  0  0  0  0
    7.4947  -37.1440   -0.8498 C   0  0  0  0  0  0  0  0  0  0  0  0
    6.1831  -35.6332    4.1661 N   0  0  0  0  0  0  0  0  0  0  0  0
  1  2  2  0
  2  3  1  0
  3  4  2  0
  3  5  1  0
  4  6  1  0
  4  7  1  0
  1  8  1  0
  7  8  2  0
  6  9  1  0
  5 10  1  0
  5 11  2  0
 10 12  1  0
  9 13  1  0
 13 14  1  0
 11 15  1  0
 10 16  2  0
 15 16  1  0
 16 17  1  0
 14 18  1  0
 14 19  1  0
 15 20  1  0
 19 21  1  0
 12 22  1  0
 17 23  1  0
 22 23  1  0
 18 24  1  0
 21 24  1  0
M  END
>  <ID>  (1) 
conformer_0

$$$$
