
     RDKit          3D

 30 34  0  0  0  0  0  0  0  0999 V2000
    8.5235  -43.1131    3.0737 C   0  0  0  0  0  0  0  0  0  0  0  0
    7.9136  -42.4244    2.1516 C   0  0  0  0  0  0  0  0  0  0  0  0
    7.1343  -41.4006    2.2709 C   0  0  0  0  0  0  0  0  0  0  0  0
    6.7610  -40.9759    3.5342 C   0  0  0  0  0  0  0  0  0  0  0  0
    6.6292  -40.6777    1.0855 C   0  0  0  0  0  0  0  0  0  0  0  0
    5.9109  -39.8818    3.6646 O   0  0  0  0  0  0  0  0  0  0  0  0
    7.2995  -41.6299    4.6651 C   0  0  0  0  0  0  0  0  0  0  0  0
    8.1702  -42.7157    4.4968 C   0  0  0  0  0  0  0  0  0  0  0  0
    4.8150  -39.7939    4.4871 C   0  0  0  0  0  0  0  0  0  0  0  0
    7.1012  -39.6345    0.5586 C   0  0  0  0  0  0  0  0  0  0  0  0
    4.8243  -40.3133    5.6042 C   0  0  0  0  0  0  0  0  0  0  0  0
    5.9110  -41.4688    0.1645 N   0  0  0  0  0  0  0  0  0  0  0  0
    4.0144  -38.6003    4.2030 C   0  0  0  0  0  0  0  0  0  0  0  0
    6.2891  -38.7964   -0.2631 N   0  0  0  0  0  0  0  0  0  0  0  0
    4.1320  -37.8591    2.9461 C   0  0  0  0  0  0  0  0  0  0  0  0
    2.9417  -38.3800    4.8925 C   0  0  0  0  0  0  0  0  0  0  0  0
    5.0175  -38.6187   -0.0826 C   0  0  0  0  0  0  0  0  0  0  0  0
    2.7920  -39.1295    6.1981 C   0  0  0  0  0  0  0  0  0  0  0  0
    5.1385  -36.9962    2.8454 N   0  0  0  0  0  0  0  0  0  0  0  0
    5.7125  -41.4250    6.0450 F   0  0  0  0  0  0  0  0  0  0  0  0
    3.7602  -38.0982    1.7675 C   0  0  0  0  0  0  0  0  0  0  0  0
    8.5384  -39.5417    0.3147 C   0  0  0  0  0  0  0  0  0  0  0  0
    5.7662  -36.2806    4.1002 C   0  0  0  0  0  0  0  0  0  0  0  0
    4.4176  -37.9650    0.8240 C   0  0  0  0  0  0  0  0  0  0  0  0
    5.5432  -37.0350    1.5553 C   0  0  0  0  0  0  0  0  0  0  0  0
    3.6820  -40.0625    6.5443 C   0  0  0  0  0  0  0  0  0  0  0  0
    9.5492  -40.0953    1.0564 F   0  0  0  0  0  0  0  0  0  0  0  0
    7.2329  -38.2412   -1.3276 C   0  0  0  0  0  0  0  0  0  0  0  0
    8.6218  -38.4860   -0.7473 C   0  0  0  0  0  0  0  0  0  0  0  0
    4.3421  -39.3779   -0.9630 O   0  0  0  0  0  0  0  0  0  0  0  0
  1  2  2  0
  2  3  1  0
  3  4  2  0
  3  5  1  0
  4  6  1  0
  4  7  1  0
  1  8  1  0
  7  8  2  0
  6  9  1  0
  5 10  1  0
  9 11  2  0
  5 12  1  0
  9 13  1  0
 10 14  1  0
 13 15  1  0
 13 16  2  0
 14 17  1  0
 16 18  1  0
 15 19  1  0
 11 20  1  0
 15 21  2  0
 10 22  2  0
 19 23  1  0
 17 24  1  0
 21 24  1  0
 19 25  1  0
 24 25  2  0
 11 26  1  0
 18 26  2  0
 22 27  1  0
 14 28  1  0
 22 29  1  0
 28 29  1  0
 17 30  2  0
M  END
>  <ID>  (1) 
conformer_0

$$$$
