
     RDKit          3D

 27 31  0  0  0  0  0  0  0  0999 V2000
    7.0666  -35.9755    2.2456 C   0  0  0  0  0  0  0  0  0  0  0  0
    7.2632  -36.3492    1.0565 C   0  0  0  0  0  0  0  0  0  0  0  0
    5.8536  -36.0489    2.8188 C   0  0  0  0  0  0  0  0  0  0  0  0
    4.8596  -36.6767    2.1575 C   0  0  0  0  0  0  0  0  0  0  0  0
    3.5582  -36.7906    2.7919 C   0  0  0  0  0  0  0  0  0  0  0  0
    3.5181  -36.9187    4.0079 O   0  0  0  0  0  0  0  0  0  0  0  0
    6.2995  -36.9762    0.3149 C   0  0  0  0  0  0  0  0  0  0  0  0
    3.7424  -38.0869    4.5576 C   0  0  0  0  0  0  0  0  0  0  0  0
    3.9944  -38.3127    5.9049 C   0  0  0  0  0  0  0  0  0  0  0  0
    4.1613  -37.0825    6.6563 N   0  0  0  0  0  0  0  0  0  0  0  0
    5.0710  -37.0804    0.8695 C   0  0  0  0  0  0  0  0  0  0  0  0
    2.9459  -39.0116    3.8153 C   0  0  0  0  0  0  0  0  0  0  0  0
    4.5523  -37.1460    7.9261 C   0  0  0  0  0  0  0  0  0  0  0  0
    4.8860  -35.9196    6.0672 C   0  0  0  0  0  0  0  0  0  0  0  0
    8.8012  -36.2345    0.3679 C   0  0  0  0  0  0  0  0  0  0  0  0
    3.9792  -38.2453    8.7498 C   0  0  0  0  0  0  0  0  0  0  0  0
    4.0382  -39.5265    6.5246 C   0  0  0  0  0  0  0  0  0  0  0  0
    4.0560  -40.7421    5.8184 C   0  0  0  0  0  0  0  0  0  0  0  0
    2.5736  -38.7052    2.5043 C   0  0  0  0  0  0  0  0  0  0  0  0
    6.4849  -37.5437   -1.1439 C   0  0  0  0  0  0  0  0  0  0  0  0
    7.5144  -38.3273   -1.2292 O   0  0  0  0  0  0  0  0  0  0  0  0
    5.4240  -34.9871    6.9163 C   0  0  0  0  0  0  0  0  0  0  0  0
    4.0219  -39.6256    8.0767 C   0  0  0  0  0  0  0  0  0  0  0  0
    2.7363  -37.4814    1.9846 C   0  0  0  0  0  0  0  0  0  0  0  0
    5.1558  -40.2386    8.4816 O   0  0  0  0  0  0  0  0  0  0  0  0
    3.1982  -40.5034    4.0671 C   0  0  0  0  0  0  0  0  0  0  0  0
    5.0802  -35.7139    8.2270 C   0  0  0  0  0  0  0  0  0  0  0  0
  1  2  1  0
  1  3  2  0
  3  4  1  0
  4  5  1  0
  5  6  1  0
  2  7  2  0
  6  8  1  0
  8  9  1  0
  9 10  1  0
  4 11  2  0
  7 11  1  0
  8 12  2  0
 10 13  1  0
 10 14  1  0
  2 15  1  0
 13 16  2  0
  9 17  2  0
 17 18  1  0
 12 19  1  0
  7 20  1  0
 20 21  1  0
 14 22  1  0
 16 23  1  0
 17 23  1  0
  5 24  1  0
 19 24  1  0
 23 25  1  0
 12 26  1  0
 18 26  2  0
 13 27  1  0
 22 27  2  0
M  END
>  <ID>  (1) 
conformer_0

$$$$
