
     RDKit          3D

 10 11  0  0  0  0  0  0  0  0999 V2000
    8.6497  -37.7609   -0.5277 C   0  0  0  0  0  0  0  0  0  0  0  0
    8.9645  -37.8910    0.6898 C   0  0  0  0  0  0  0  0  0  0  0  0
    9.3800  -38.9934    1.1816 C   0  0  0  0  0  0  0  0  0  0  0  0
    8.5708  -36.8607    1.7000 C   0  0  0  0  0  0  0  0  0  0  0  0
    9.3023  -40.1306    0.3561 C   0  0  0  0  0  0  0  0  0  0  0  0
    8.6828  -35.6367    1.2197 C   0  0  0  0  0  0  0  0  0  0  0  0
    7.6088  -36.9123   -0.8992 C   0  0  0  0  0  0  0  0  0  0  0  0
    8.7664  -39.9454   -0.8497 C   0  0  0  0  0  0  0  0  0  0  0  0
    7.7306  -35.5312   -0.0601 C   0  0  0  0  0  0  0  0  0  0  0  0
    8.3707  -38.8496   -1.3091 N   0  0  0  0  0  0  0  0  0  0  0  0
  1  2  1  0
  2  3  2  0
  2  4  1  0
  3  5  1  0
  4  6  2  0
  1  7  1  0
  5  8  2  0
  6  9  1  0
  7  9  1  0
  1 10  1  0
  8 10  1  0
M  END
>  <ID>  (1) 
conformer_0

$$$$
