
     RDKit          3D

 20 22  0  0  0  0  0  0  0  0999 V2000
    7.0666  -35.9755    2.2456 C   0  0  0  0  0  0  0  0  0  0  0  0
    7.2632  -36.3492    1.0565 C   0  0  0  0  0  0  0  0  0  0  0  0
    5.8536  -36.0489    2.8188 C   0  0  0  0  0  0  0  0  0  0  0  0
    4.8596  -36.6767    2.1575 C   0  0  0  0  0  0  0  0  0  0  0  0
    3.5582  -36.7906    2.7919 C   0  0  0  0  0  0  0  0  0  0  0  0
    3.5181  -36.9187    4.0079 O   0  0  0  0  0  0  0  0  0  0  0  0
    6.2995  -36.9762    0.3149 C   0  0  0  0  0  0  0  0  0  0  0  0
    3.7424  -38.0869    4.5576 C   0  0  0  0  0  0  0  0  0  0  0  0
    3.9944  -38.3127    5.9049 C   0  0  0  0  0  0  0  0  0  0  0  0
    4.1613  -37.0825    6.6563 N   0  0  0  0  0  0  0  0  0  0  0  0
    5.0710  -37.0804    0.8695 C   0  0  0  0  0  0  0  0  0  0  0  0
    2.9459  -39.0116    3.8153 C   0  0  0  0  0  0  0  0  0  0  0  0
    4.5523  -37.1460    7.9261 C   0  0  0  0  0  0  0  0  0  0  0  0
    8.8163  -36.2387    0.3435 Cl  0  0  0  0  0  0  0  0  0  0  0  0
    2.5036  -38.8760    2.4994 C   0  0  0  0  0  0  0  0  0  0  0  0
    3.5716  -39.3560    6.6844 O   0  0  0  0  0  0  0  0  0  0  0  0
    2.9262  -37.7508    1.9694 C   0  0  0  0  0  0  0  0  0  0  0  0
    4.5742  -38.4333    8.5502 C   0  0  0  0  0  0  0  0  0  0  0  0
    5.3755  -38.5188    9.7311 O   0  0  0  0  0  0  0  0  0  0  0  0
    4.7793  -39.6016    7.5968 C   0  0  0  0  0  0  0  0  0  0  0  0
  1  2  1  0
  1  3  2  0
  3  4  1  0
  4  5  1  0
  5  6  1  0
  2  7  2  0
  6  8  1  0
  8  9  1  0
  9 10  1  0
  4 11  2  0
  7 11  1  0
  8 12  2  0
 10 13  1  0
  2 14  1  0
 12 15  1  0
  9 16  1  0
  5 17  1  0
 15 17  2  0
 13 18  1  0
 18 19  1  0
 16 20  1  0
 18 20  1  0
M  END
>  <ID>  (1) 
conformer_0

$$$$
