
     RDKit          3D

 16 18  0  0  0  0  0  0  0  0999 V2000
    8.6497  -37.7609   -0.5277 C   0  0  0  0  0  0  0  0  0  0  0  0
    7.3710  -37.6440   -0.8066 C   0  0  0  0  0  0  0  0  0  0  0  0
    6.6534  -38.6979   -1.0019 N   0  0  0  0  0  0  0  0  0  0  0  0
    6.7294  -36.7867    0.2835 C   0  0  0  0  0  0  0  0  0  0  0  0
    5.3508  -38.6396   -0.9309 C   0  0  0  0  0  0  0  0  0  0  0  0
    4.8156  -37.7950    0.0976 C   0  0  0  0  0  0  0  0  0  0  0  0
    3.4559  -37.9194    0.3982 O   0  0  0  0  0  0  0  0  0  0  0  0
    9.0911  -37.3203    0.7935 C   0  0  0  0  0  0  0  0  0  0  0  0
    5.5267  -36.8289    0.5586 N   0  0  0  0  0  0  0  0  0  0  0  0
    4.9550  -35.8661    1.5642 C   0  0  0  0  0  0  0  0  0  0  0  0
    5.7405  -36.0251    2.8891 C   0  0  0  0  0  0  0  0  0  0  0  0
    4.4983  -39.0560   -1.8207 O   0  0  0  0  0  0  0  0  0  0  0  0
    9.0388  -39.2068   -0.5225 C   0  0  0  0  0  0  0  0  0  0  0  0
    7.8824  -36.7966    1.3565 C   0  0  0  0  0  0  0  0  0  0  0  0
    8.4425  -39.8538    0.3732 O   0  0  0  0  0  0  0  0  0  0  0  0
    7.0639  -36.1587    2.6434 C   0  0  0  0  0  0  0  0  0  0  0  0
  1  2  1  0
  2  3  1  0
  2  4  1  0
  3  5  1  0
  5  6  1  0
  6  7  2  0
  1  8  1  0
  4  9  1  0
  6  9  1  0
  9 10  1  0
 10 11  1  0
  5 12  2  0
  1 13  1  0
  4 14  1  0
  8 14  1  0
 13 15  1  0
 11 16  1  0
 14 16  1  0
M  END
>  <ID>  (1) 
conformer_0

$$$$
