
     RDKit          3D

 33 38  0  0  0  0  0  0  0  0999 V2000
    7.0666  -35.9755    2.2456 C   0  0  0  0  0  0  0  0  0  0  0  0
    7.2632  -36.3492    1.0565 C   0  0  0  0  0  0  0  0  0  0  0  0
    5.8536  -36.0489    2.8188 C   0  0  0  0  0  0  0  0  0  0  0  0
    4.8596  -36.6767    2.1575 C   0  0  0  0  0  0  0  0  0  0  0  0
    3.5582  -36.7906    2.7919 C   0  0  0  0  0  0  0  0  0  0  0  0
    3.5181  -36.9187    4.0079 O   0  0  0  0  0  0  0  0  0  0  0  0
    6.2995  -36.9762    0.3149 C   0  0  0  0  0  0  0  0  0  0  0  0
    3.7424  -38.0869    4.5576 C   0  0  0  0  0  0  0  0  0  0  0  0
    3.9944  -38.3127    5.9049 C   0  0  0  0  0  0  0  0  0  0  0  0
    4.1613  -37.0825    6.6563 N   0  0  0  0  0  0  0  0  0  0  0  0
    5.0710  -37.0804    0.8695 C   0  0  0  0  0  0  0  0  0  0  0  0
    2.9459  -39.0116    3.8153 C   0  0  0  0  0  0  0  0  0  0  0  0
    2.5659  -38.8751    2.4722 C   0  0  0  0  0  0  0  0  0  0  0  0
    8.7132  -36.2808    0.3284 C   0  0  0  0  0  0  0  0  0  0  0  0
    2.9349  -37.7908    1.9953 C   0  0  0  0  0  0  0  0  0  0  0  0
    5.0763  -36.2212    6.5180 C   0  0  0  0  0  0  0  0  0  0  0  0
    4.9232  -39.3072    6.1404 C   0  0  0  0  0  0  0  0  0  0  0  0
    9.0620  -37.4775   -0.2786 C   0  0  0  0  0  0  0  0  0  0  0  0
    4.8294  -40.5106    5.6252 C   0  0  0  0  0  0  0  0  0  0  0  0
    5.9782  -36.1210    5.6489 O   0  0  0  0  0  0  0  0  0  0  0  0
    5.2609  -35.3391    7.6568 C   0  0  0  0  0  0  0  0  0  0  0  0
    3.3516  -40.6032    4.0673 C   0  0  0  0  0  0  0  0  0  0  0  0
    6.0085  -35.7285    8.7262 C   0  0  0  0  0  0  0  0  0  0  0  0
    6.4215  -34.8684    9.6658 C   0  0  0  0  0  0  0  0  0  0  0  0
    7.9524  -38.4414   -0.3797 C   0  0  0  0  0  0  0  0  0  0  0  0
    3.9759  -40.9937    4.6559 C   0  0  0  0  0  0  0  0  0  0  0  0
    6.2401  -33.5284    9.5561 C   0  0  0  0  0  0  0  0  0  0  0  0
    5.2309  -33.8509    7.4859 C   0  0  0  0  0  0  0  0  0  0  0  0
    2.4916  -41.1874    3.1422 N   0  0  0  0  0  0  0  0  0  0  0  0
    5.6252  -33.0319    8.4131 C   0  0  0  0  0  0  0  0  0  0  0  0
    6.7956  -37.6386   -0.8490 C   0  0  0  0  0  0  0  0  0  0  0  0
    2.2224  -40.1248    2.0015 C   0  0  0  0  0  0  0  0  0  0  0  0
    5.6458  -41.4308    6.3979 O   0  0  0  0  0  0  0  0  0  0  0  0
  1  2  1  0
  1  3  2  0
  3  4  1  0
  4  5  1  0
  5  6  1  0
  2  7  2  0
  6  8  1  0
  8  9  1  0
  9 10  1  0
  4 11  2  0
  7 11  1  0
  8 12  2  0
 12 13  1  0
  2 14  1  0
  5 15  1  0
 13 15  1  0
 10 16  1  0
  9 17  2  0
 14 18  1  0
 17 19  1  0
 16 20  2  0
 16 21  1  0
 12 22  1  0
 21 23  1  0
 23 24  2  0
 18 25  1  0
 19 26  1  0
 22 26  1  0
 24 27  1  0
 21 28  2  0
 22 29  2  0
 27 30  2  0
 28 30  1  0
  7 31  1  0
 25 31  1  0
 13 32  1  0
 29 32  1  0
 19 33  2  0
M  END
>  <ID>  (1) 
conformer_0

$$$$
