
     RDKit          3D

 10 10  0  0  0  0  0  0  0  0999 V2000
    6.4928  -37.6691   -1.5929 C   0  0  0  0  0  0  0  0  0  0  0  0
    7.3719  -37.2897   -0.8745 C   0  0  0  0  0  0  0  0  0  0  0  0
    5.3258  -38.2702   -0.9789 C   0  0  0  0  0  0  0  0  0  0  0  0
    7.3445  -37.3779    0.5590 C   0  0  0  0  0  0  0  0  0  0  0  0
    4.1989  -38.7596   -1.8050 F   0  0  0  0  0  0  0  0  0  0  0  0
    8.5502  -36.8966    1.3897 C   0  0  0  0  0  0  0  0  0  0  0  0
    9.3817  -37.7369    1.7175 O   0  0  0  0  0  0  0  0  0  0  0  0
    6.1763  -37.7436    1.2884 C   0  0  0  0  0  0  0  0  0  0  0  0
    8.7190  -35.6648    1.5667 O   0  0  0  0  0  0  0  0  0  0  0  0
    5.0706  -38.2646    0.4643 C   0  0  0  0  0  0  0  0  0  0  0  0
  1  2  1  0
  1  3  2  0
  2  4  2  0
  3  5  1  0
  4  6  1  0
  6  7  2  0
  4  8  1  0
  6  9  1  0
  3 10  1  0
  8 10  2  0
M  END
>  <ID>  (1) 
conformer_0

$$$$
