
     RDKit          3D

 13 13  0  0  0  0  0  0  0  0999 V2000
    6.7579  -37.5735   -1.4976 C   0  0  0  0  0  0  0  0  0  0  0  0
    7.6237  -37.3138   -0.5444 C   0  0  0  0  0  0  0  0  0  0  0  0
    8.5609  -38.1568   -0.2299 C   0  0  0  0  0  0  0  0  0  0  0  0
    6.2376  -38.8639   -1.6395 C   0  0  0  0  0  0  0  0  0  0  0  0
    5.0499  -39.2271   -2.3092 C   0  0  0  0  0  0  0  0  0  0  0  0
    4.0234  -39.4718   -1.5624 O   0  0  0  0  0  0  0  0  0  0  0  0
    7.9302  -35.7918   -0.1878 C   0  0  0  0  0  0  0  0  0  0  0  0
    7.8179  -35.7458    1.3838 C   0  0  0  0  0  0  0  0  0  0  0  0
    9.6638  -37.8670    0.6811 O   0  0  0  0  0  0  0  0  0  0  0  0
    7.0580  -39.8096   -0.9616 C   0  0  0  0  0  0  0  0  0  0  0  0
    8.1438  -39.5036   -0.2647 C   0  0  0  0  0  0  0  0  0  0  0  0
    5.0581  -39.5509   -3.4579 O   0  0  0  0  0  0  0  0  0  0  0  0
    9.8719  -38.7362    1.6568 C   0  0  0  0  0  0  0  0  0  0  0  0
  1  2  2  0
  2  3  1  0
  1  4  1  0
  4  5  1  0
  5  6  1  0
  2  7  1  0
  7  8  1  0
  3  9  1  0
  4 10  2  0
  3 11  2  0
 10 11  1  0
  5 12  2  0
  9 13  1  0
M  END
>  <ID>  (1) 
conformer_0

$$$$
