
     RDKit          3D

 28 30  0  0  0  0  0  0  0  0999 V2000
    7.0666  -35.9755    2.2456 C   0  0  0  0  0  0  0  0  0  0  0  0
    7.2632  -36.3492    1.0565 C   0  0  0  0  0  0  0  0  0  0  0  0
    5.8536  -36.0489    2.8188 C   0  0  0  0  0  0  0  0  0  0  0  0
    4.8596  -36.6767    2.1575 C   0  0  0  0  0  0  0  0  0  0  0  0
    3.5582  -36.7906    2.7919 C   0  0  0  0  0  0  0  0  0  0  0  0
    3.5181  -36.9187    4.0079 O   0  0  0  0  0  0  0  0  0  0  0  0
    6.2995  -36.9762    0.3149 C   0  0  0  0  0  0  0  0  0  0  0  0
    3.7424  -38.0869    4.5576 C   0  0  0  0  0  0  0  0  0  0  0  0
    3.9944  -38.3127    5.9049 C   0  0  0  0  0  0  0  0  0  0  0  0
    4.1613  -37.0825    6.6563 N   0  0  0  0  0  0  0  0  0  0  0  0
    5.0710  -37.0804    0.8695 C   0  0  0  0  0  0  0  0  0  0  0  0
    2.9459  -39.0116    3.8153 C   0  0  0  0  0  0  0  0  0  0  0  0
    5.0856  -36.1992    6.4776 C   0  0  0  0  0  0  0  0  0  0  0  0
    5.1759  -35.0755    7.4023 C   0  0  0  0  0  0  0  0  0  0  0  0
    4.1341  -39.5687    6.4744 C   0  0  0  0  0  0  0  0  0  0  0  0
    6.5174  -37.4350   -1.0510 C   0  0  0  0  0  0  0  0  0  0  0  0
    3.0994  -40.4982    4.4173 C   0  0  0  0  0  0  0  0  0  0  0  0
    5.8297  -36.0758    5.3421 O   0  0  0  0  0  0  0  0  0  0  0  0
    6.1003  -35.2200    8.3981 C   0  0  0  0  0  0  0  0  0  0  0  0
    6.4745  -34.1537    9.1865 C   0  0  0  0  0  0  0  0  0  0  0  0
    4.9527  -33.7256    7.0571 C   0  0  0  0  0  0  0  0  0  0  0  0
    8.7656  -36.2047    0.3414 C   0  0  0  0  0  0  0  0  0  0  0  0
    3.7020  -40.6584    5.5729 C   0  0  0  0  0  0  0  0  0  0  0  0
    5.4574  -32.6812    7.8575 C   0  0  0  0  0  0  0  0  0  0  0  0
    6.1795  -38.8034   -1.2648 N   0  0  0  0  0  0  0  0  0  0  0  0
    5.0005  -39.0327   -1.8794 C   0  0  0  0  0  0  0  0  0  0  0  0
    7.2943  -34.4666   10.3820 C   0  0  0  0  0  0  0  0  0  0  0  0
    6.2251  -32.9313    8.8762 C   0  0  0  0  0  0  0  0  0  0  0  0
  1  2  1  0
  1  3  2  0
  3  4  1  0
  4  5  1  0
  5  6  1  0
  2  7  2  0
  6  8  1  0
  8  9  1  0
  9 10  1  0
  4 11  2  0
  7 11  1  0
  8 12  2  0
 10 13  1  0
 13 14  1  0
  9 15  2  0
  7 16  1  0
 12 17  1  0
 13 18  2  0
 14 19  1  0
 19 20  2  0
 14 21  2  0
  2 22  1  0
 15 23  1  0
 17 23  2  0
 21 24  1  0
 16 25  1  0
 25 26  1  0
 20 27  1  0
 20 28  1  0
 24 28  2  0
M  END
>  <ID>  (1) 
conformer_0

$$$$
