
     RDKit          3D

 25 30  0  0  0  0  0  0  0  0999 V2000
    7.0666  -35.9755    2.2456 C   0  0  0  0  0  0  0  0  0  0  0  0
    8.0507  -35.7168    1.5125 C   0  0  0  0  0  0  0  0  0  0  0  0
    6.0570  -36.6898    1.8255 C   0  0  0  0  0  0  0  0  0  0  0  0
    8.4054  -36.3471    0.3072 C   0  0  0  0  0  0  0  0  0  0  0  0
    7.3463  -37.2154   -0.1486 C   0  0  0  0  0  0  0  0  0  0  0  0
    4.8569  -37.0172    2.5687 C   0  0  0  0  0  0  0  0  0  0  0  0
    4.8478  -36.8643    3.7745 N   0  0  0  0  0  0  0  0  0  0  0  0
    4.6375  -37.8636    4.6110 C   0  0  0  0  0  0  0  0  0  0  0  0
    4.3631  -37.6433    5.9299 C   0  0  0  0  0  0  0  0  0  0  0  0
    4.9488  -39.1234    4.1761 C   0  0  0  0  0  0  0  0  0  0  0  0
    5.2383  -39.4736    2.8203 C   0  0  0  0  0  0  0  0  0  0  0  0
    6.2899  -37.4376    0.5739 C   0  0  0  0  0  0  0  0  0  0  0  0
    5.0231  -38.3606    1.9600 C   0  0  0  0  0  0  0  0  0  0  0  0
    4.7589  -40.7180    2.3358 N   0  0  0  0  0  0  0  0  0  0  0  0
    7.6351  -37.8842   -1.4106 O   0  0  0  0  0  0  0  0  0  0  0  0
    6.4285  -38.0166   -2.0121 C   0  0  0  0  0  0  0  0  0  0  0  0
    5.4220  -39.0570   -1.3551 C   0  0  0  0  0  0  0  0  0  0  0  0
    4.8981  -40.1444    5.3104 C   0  0  0  0  0  0  0  0  0  0  0  0
    5.2557  -41.6100    4.8482 C   0  0  0  0  0  0  0  0  0  0  0  0
    5.3986  -41.6034    3.2764 C   0  0  0  0  0  0  0  0  0  0  0  0
    6.1464  -42.2507    5.5133 O   0  0  0  0  0  0  0  0  0  0  0  0
    5.2179  -38.3002    0.1808 C   0  0  0  0  0  0  0  0  0  0  0  0
    4.6737  -40.0042    6.5329 C   0  0  0  0  0  0  0  0  0  0  0  0
    7.4072  -42.5252    4.7812 C   0  0  0  0  0  0  0  0  0  0  0  0
    4.3622  -38.6914    6.9129 C   0  0  0  0  0  0  0  0  0  0  0  0
  1  2  2  0
  1  3  1  0
  2  4  1  0
  4  5  2  0
  3  6  1  0
  6  7  1  0
  7  8  1  0
  8  9  1  0
  8 10  2  0
 10 11  1  0
  3 12  2  0
  5 12  1  0
  6 13  1  0
 11 13  1  0
 11 14  1  0
  5 15  1  0
 15 16  1  0
 16 17  1  0
 10 18  1  0
 18 19  1  0
 14 20  1  0
 19 20  1  0
 19 21  1  0
 12 22  1  0
 13 22  1  0
 17 22  1  0
 18 23  2  0
 21 24  1  0
  9 25  2  0
 23 25  1  0
M  END
>  <ID>  (1) 
conformer_0

$$$$
