
     RDKit          3D

 13 14  0  0  0  0  0  0  0  0999 V2000
    8.5728  -38.3963   -0.5614 C   0  0  0  0  0  0  0  0  0  0  0  0
    7.4283  -37.6989   -0.5076 C   0  0  0  0  0  0  0  0  0  0  0  0
    6.3356  -38.4155   -0.7080 C   0  0  0  0  0  0  0  0  0  0  0  0
    5.9328  -39.3789    0.1861 C   0  0  0  0  0  0  0  0  0  0  0  0
    8.6390  -39.6170    0.4155 C   0  0  0  0  0  0  0  0  0  0  0  0
    4.9590  -37.6416   -0.7540 C   0  0  0  0  0  0  0  0  0  0  0  0
    4.8096  -40.1521   -0.1760 N   0  0  0  0  0  0  0  0  0  0  0  0
    5.8642  -38.8146    1.5943 C   0  0  0  0  0  0  0  0  0  0  0  0
    4.5880  -40.3843   -1.4412 C   0  0  0  0  0  0  0  0  0  0  0  0
    3.6486  -39.4926    0.5004 C   0  0  0  0  0  0  0  0  0  0  0  0
    3.6225  -38.1392   -0.2732 C   0  0  0  0  0  0  0  0  0  0  0  0
    7.3691  -40.3993    0.2708 C   0  0  0  0  0  0  0  0  0  0  0  0
    7.5642  -36.3680   -1.1504 C   0  0  0  0  0  0  0  0  0  0  0  0
  1  2  1  0
  2  3  1  0
  3  4  1  0
  1  5  1  0
  3  6  1  0
  4  7  1  0
  4  8  1  0
  7  9  1  0
  7 10  1  0
  6 11  1  0
 10 11  1  0
  4 12  1  0
  5 12  1  0
  2 13  1  0
M  END
>  <ID>  (1) 
conformer_0

$$$$
