
     RDKit          3D

 10 10  0  0  0  0  0  0  0  0999 V2000
    6.7579  -37.5735   -1.4976 C   0  0  0  0  0  0  0  0  0  0  0  0
    6.0271  -38.5063   -0.9418 C   0  0  0  0  0  0  0  0  0  0  0  0
    7.8073  -36.9432   -0.6377 C   0  0  0  0  0  0  0  0  0  0  0  0
    4.8972  -39.0275   -1.7263 C   0  0  0  0  0  0  0  0  0  0  0  0
    6.2102  -39.0552    0.3346 C   0  0  0  0  0  0  0  0  0  0  0  0
    3.8378  -39.1210   -1.4704 O   0  0  0  0  0  0  0  0  0  0  0  0
    7.2689  -38.5666    1.0913 C   0  0  0  0  0  0  0  0  0  0  0  0
    8.0046  -37.4971    0.6466 C   0  0  0  0  0  0  0  0  0  0  0  0
    5.2095  -39.8135   -2.7827 O   0  0  0  0  0  0  0  0  0  0  0  0
    9.1795  -36.8341    1.3366 C   0  0  0  0  0  0  0  0  0  0  0  0
  1  2  1  0
  1  3  2  0
  2  4  1  0
  2  5  2  0
  4  6  1  0
  5  7  1  0
  3  8  1  0
  7  8  2  0
  4  9  2  0
  8 10  1  0
M  END
>  <ID>  (1) 
conformer_0

$$$$
