
     RDKit          3D

 34 38  0  0  0  0  0  0  0  0999 V2000
    7.0666  -35.9755    2.2456 C   0  0  0  0  0  0  0  0  0  0  0  0
    7.2632  -36.3492    1.0565 C   0  0  0  0  0  0  0  0  0  0  0  0
    5.8536  -36.0489    2.8188 C   0  0  0  0  0  0  0  0  0  0  0  0
    4.8596  -36.6767    2.1575 C   0  0  0  0  0  0  0  0  0  0  0  0
    3.5582  -36.7906    2.7919 C   0  0  0  0  0  0  0  0  0  0  0  0
    3.5181  -36.9187    4.0079 O   0  0  0  0  0  0  0  0  0  0  0  0
    6.2995  -36.9762    0.3149 C   0  0  0  0  0  0  0  0  0  0  0  0
    3.7424  -38.0869    4.5576 C   0  0  0  0  0  0  0  0  0  0  0  0
    3.9944  -38.3127    5.9049 C   0  0  0  0  0  0  0  0  0  0  0  0
    4.1613  -37.0825    6.6563 N   0  0  0  0  0  0  0  0  0  0  0  0
    5.0710  -37.0804    0.8695 C   0  0  0  0  0  0  0  0  0  0  0  0
    4.9637  -36.0762    6.3520 C   0  0  0  0  0  0  0  0  0  0  0  0
    4.1291  -39.4477    6.6252 C   0  0  0  0  0  0  0  0  0  0  0  0
    4.0358  -40.6913    5.9583 C   0  0  0  0  0  0  0  0  0  0  0  0
    3.8119  -40.6574    4.5441 C   0  0  0  0  0  0  0  0  0  0  0  0
    6.6160  -37.4975   -1.2089 C   0  0  0  0  0  0  0  0  0  0  0  0
    3.7225  -41.9659    3.8184 C   0  0  0  0  0  0  0  0  0  0  0  0
    6.0841  -38.8555   -1.3055 N   0  0  0  0  0  0  0  0  0  0  0  0
    6.5234  -39.7577   -0.4620 C   0  0  0  0  0  0  0  0  0  0  0  0
    4.8311  -42.2896    3.0152 N   0  0  0  0  0  0  0  0  0  0  0  0
    7.8633  -39.7877    0.0639 C   0  0  0  0  0  0  0  0  0  0  0  0
    8.3382  -40.8535    0.8531 C   0  0  0  0  0  0  0  0  0  0  0  0
    5.0478  -39.0477   -2.1803 C   0  0  0  0  0  0  0  0  0  0  0  0
    3.6365  -39.4349    3.8694 C   0  0  0  0  0  0  0  0  0  0  0  0
    4.8687  -42.2749    1.7953 C   0  0  0  0  0  0  0  0  0  0  0  0
    5.7636  -40.8895   -0.1979 C   0  0  0  0  0  0  0  0  0  0  0  0
    9.6064  -40.7133    1.4363 F   0  0  0  0  0  0  0  0  0  0  0  0
    4.5821  -41.1603   -0.8289 O   0  0  0  0  0  0  0  0  0  0  0  0
    5.1695  -35.1207    7.2073 C   0  0  0  0  0  0  0  0  0  0  0  0
    7.4317  -41.6342    1.1809 C   0  0  0  0  0  0  0  0  0  0  0  0
    4.3399  -40.5579   -2.1396 C   0  0  0  0  0  0  0  0  0  0  0  0
    6.4629  -35.0391    7.8228 C   0  0  0  0  0  0  0  0  0  0  0  0
    6.0711  -41.6027    0.9471 C   0  0  0  0  0  0  0  0  0  0  0  0
    6.9444  -33.7798    8.2659 C   0  0  0  0  0  0  0  0  0  0  0  0
  1  2  1  0
  1  3  2  0
  3  4  1  0
  4  5  1  0
  5  6  1  0
  2  7  2  0
  6  8  1  0
  8  9  1  0
  9 10  1  0
  4 11  2  0
  7 11  1  0
 10 12  1  0
  9 13  2  0
 13 14  1  0
 14 15  2  0
  7 16  1  0
 15 17  1  0
 16 18  1  0
 18 19  1  0
 17 20  1  0
 19 21  2  0
 21 22  1  0
 18 23  1  0
  8 24  2  0
 15 24  1  0
 20 25  1  0
 19 26  1  0
 22 27  1  0
 26 28  1  0
 12 29  1  0
 22 30  2  0
 23 31  1  0
 28 31  1  0
 29 32  1  0
 25 33  1  0
 26 33  2  0
 30 33  1  0
 32 34  1  0
M  END
>  <ID>  (1) 
conformer_0

$$$$
