
     RDKit          3D

 33 37  0  0  0  0  0  0  0  0999 V2000
    7.0666  -35.9755    2.2456 C   0  0  0  0  0  0  0  0  0  0  0  0
    7.2632  -36.3492    1.0565 C   0  0  0  0  0  0  0  0  0  0  0  0
    5.8536  -36.0489    2.8188 C   0  0  0  0  0  0  0  0  0  0  0  0
    4.8596  -36.6767    2.1575 C   0  0  0  0  0  0  0  0  0  0  0  0
    3.5582  -36.7906    2.7919 C   0  0  0  0  0  0  0  0  0  0  0  0
    3.5181  -36.9187    4.0079 O   0  0  0  0  0  0  0  0  0  0  0  0
    6.2995  -36.9762    0.3149 C   0  0  0  0  0  0  0  0  0  0  0  0
    3.7424  -38.0869    4.5576 C   0  0  0  0  0  0  0  0  0  0  0  0
    3.9944  -38.3127    5.9049 C   0  0  0  0  0  0  0  0  0  0  0  0
    4.1613  -37.0825    6.6563 N   0  0  0  0  0  0  0  0  0  0  0  0
    5.0710  -37.0804    0.8695 C   0  0  0  0  0  0  0  0  0  0  0  0
    4.9637  -36.0762    6.3520 C   0  0  0  0  0  0  0  0  0  0  0  0
    4.1291  -39.4477    6.6252 C   0  0  0  0  0  0  0  0  0  0  0  0
    4.0358  -40.6913    5.9583 C   0  0  0  0  0  0  0  0  0  0  0  0
    3.8119  -40.6574    4.5441 C   0  0  0  0  0  0  0  0  0  0  0  0
    6.6160  -37.4975   -1.2089 C   0  0  0  0  0  0  0  0  0  0  0  0
    3.7225  -41.9659    3.8184 C   0  0  0  0  0  0  0  0  0  0  0  0
    6.0841  -38.8555   -1.3055 N   0  0  0  0  0  0  0  0  0  0  0  0
    6.5234  -39.7577   -0.4620 C   0  0  0  0  0  0  0  0  0  0  0  0
    3.2546  -36.8055    7.7765 C   0  0  0  0  0  0  0  0  0  0  0  0
    4.8593  -42.7744    3.9300 C   0  0  0  0  0  0  0  0  0  0  0  0
    7.8643  -39.7854    0.0582 C   0  0  0  0  0  0  0  0  0  0  0  0
    5.6737  -40.7312    0.0741 C   0  0  0  0  0  0  0  0  0  0  0  0
    6.1455  -42.1157    4.0129 N   0  0  0  0  0  0  0  0  0  0  0  0
    5.6412  -35.5598    4.1424 N   0  0  0  0  0  0  0  0  0  0  0  0
    3.4735  -39.3491    3.7991 C   0  0  0  0  0  0  0  0  0  0  0  0
    7.0862  -42.4156    4.9755 C   0  0  0  0  0  0  0  0  0  0  0  0
    6.6879  -41.4753    2.7861 C   0  0  0  0  0  0  0  0  0  0  0  0
    8.2188  -40.6277    1.1294 C   0  0  0  0  0  0  0  0  0  0  0  0
    7.2369  -41.4038    1.7477 C   0  0  0  0  0  0  0  0  0  0  0  0
    5.7738  -36.2301    5.2618 C   0  0  0  0  0  0  0  0  0  0  0  0
    5.1283  -39.1000   -2.2714 C   0  0  0  0  0  0  0  0  0  0  0  0
    5.8912  -41.5749    1.0617 C   0  0  0  0  0  0  0  0  0  0  0  0
  1  2  1  0
  1  3  2  0
  3  4  1  0
  4  5  1  0
  5  6  1  0
  2  7  2  0
  6  8  1  0
  8  9  1  0
  9 10  1  0
  4 11  2  0
  7 11  1  0
 10 12  1  0
  9 13  2  0
 13 14  1  0
 14 15  2  0
  7 16  1  0
 15 17  1  0
 16 18  1  0
 18 19  1  0
 10 20  1  0
 17 21  1  0
 19 22  2  0
 19 23  1  0
 21 24  1  0
  3 25  1  0
  8 26  2  0
 15 26  1  0
 24 27  1  0
 24 28  1  0
 22 29  1  0
 28 30  1  0
 29 30  2  0
 12 31  1  0
 25 31  1  0
 18 32  1  0
 23 33  1  0
 30 33  1  0
M  END
>  <ID>  (1) 
conformer_0

$$$$
