
     RDKit          3D

  8  8  0  0  0  0  0  0  0  0999 V2000
    8.4246  -42.8280    4.2939 C   0  0  0  0  0  0  0  0  0  0  0  0
    7.7799  -42.4424    3.1948 C   0  0  0  0  0  0  0  0  0  0  0  0
    6.8458  -41.6566    3.1209 C   0  0  0  0  0  0  0  0  0  0  0  0
    6.4168  -41.1799    4.3305 C   0  0  0  0  0  0  0  0  0  0  0  0
    6.9709  -41.4701    5.5388 C   0  0  0  0  0  0  0  0  0  0  0  0
    6.4708  -40.9917    6.7951 O   0  0  0  0  0  0  0  0  0  0  0  0
    8.2948  -42.9827    1.8645 C   0  0  0  0  0  0  0  0  0  0  0  0
    8.0358  -42.3845    5.5317 C   0  0  0  0  0  0  0  0  0  0  0  0
  1  2  1  0
  2  3  2  0
  3  4  1  0
  4  5  2  0
  5  6  1  0
  2  7  1  0
  1  8  2  0
  5  8  1  0
M  END
>  <ID>  (1) 
conformer_0

$$$$
