
     RDKit          3D

 13 14  0  0  0  0  0  0  0  0999 V2000
    8.5728  -38.3963   -0.5614 C   0  0  0  0  0  0  0  0  0  0  0  0
    7.4283  -37.6989   -0.5076 C   0  0  0  0  0  0  0  0  0  0  0  0
    7.4074  -36.6602    0.4394 N   0  0  0  0  0  0  0  0  0  0  0  0
    8.5823  -35.9086    0.5652 C   0  0  0  0  0  0  0  0  0  0  0  0
    6.2344  -36.2815    1.1957 C   0  0  0  0  0  0  0  0  0  0  0  0
    5.0508  -36.7455    0.7503 C   0  0  0  0  0  0  0  0  0  0  0  0
    6.4996  -35.8676    2.5342 C   0  0  0  0  0  0  0  0  0  0  0  0
    9.3093  -38.5643    0.8055 O   0  0  0  0  0  0  0  0  0  0  0  0
    9.5429  -36.5598    1.4887 C   0  0  0  0  0  0  0  0  0  0  0  0
    5.4189  -35.6788    3.3329 C   0  0  0  0  0  0  0  0  0  0  0  0
    9.7191  -37.7097    1.5917 C   0  0  0  0  0  0  0  0  0  0  0  0
    3.9708  -36.5554    1.6549 C   0  0  0  0  0  0  0  0  0  0  0  0
    4.1334  -36.0981    2.9758 C   0  0  0  0  0  0  0  0  0  0  0  0
  1  2  1  0
  2  3  1  0
  3  4  1  0
  3  5  1  0
  5  6  2  0
  5  7  1  0
  1  8  1  0
  4  9  1  0
  7 10  2  0
  8 11  1  0
  9 11  1  0
  6 12  1  0
 10 13  1  0
 12 13  2  0
M  END
>  <ID>  (1) 
conformer_0

$$$$
