
     RDKit          3D

 10 10  0  0  0  0  0  0  0  0999 V2000
    6.4928  -37.6691   -1.5929 C   0  0  0  0  0  0  0  0  0  0  0  0
    7.3719  -37.2897   -0.8745 C   0  0  0  0  0  0  0  0  0  0  0  0
    6.0800  -39.0655   -1.4209 N   0  0  0  0  0  0  0  0  0  0  0  0
    7.1502  -36.3544    0.1946 C   0  0  0  0  0  0  0  0  0  0  0  0
    6.1950  -36.4324    0.8560 N   0  0  0  0  0  0  0  0  0  0  0  0
    5.0285  -37.0359    0.6128 C   0  0  0  0  0  0  0  0  0  0  0  0
    4.7742  -38.4304    0.9452 C   0  0  0  0  0  0  0  0  0  0  0  0
    8.5650  -35.9891    0.9734 C   0  0  0  0  0  0  0  0  0  0  0  0
    8.8550  -36.8930    1.8471 O   0  0  0  0  0  0  0  0  0  0  0  0
    4.8211  -39.3362   -0.4404 C   0  0  0  0  0  0  0  0  0  0  0  0
  1  2  1  0
  1  3  1  0
  2  4  1  0
  4  5  1  0
  5  6  1  0
  6  7  1  0
  4  8  1  0
  8  9  1  0
  3 10  1  0
  7 10  1  0
M  END
>  <ID>  (1) 
conformer_0

$$$$
