
     RDKit          3D

 10 10  0  0  0  0  0  0  0  0999 V2000
    8.2814  -35.8889    0.6181 C   0  0  0  0  0  0  0  0  0  0  0  0
    8.0089  -36.9143   -0.1077 C   0  0  0  0  0  0  0  0  0  0  0  0
    8.7929  -38.0655    0.0825 C   0  0  0  0  0  0  0  0  0  0  0  0
    7.0649  -36.9838   -1.0985 C   0  0  0  0  0  0  0  0  0  0  0  0
    9.1783  -38.5280    1.3119 C   0  0  0  0  0  0  0  0  0  0  0  0
    6.3534  -38.2212   -1.3057 N   0  0  0  0  0  0  0  0  0  0  0  0
    6.7674  -39.2248   -0.5596 C   0  0  0  0  0  0  0  0  0  0  0  0
    5.3718  -38.2462   -2.1866 C   0  0  0  0  0  0  0  0  0  0  0  0
    7.6777  -35.5271    1.7336 O   0  0  0  0  0  0  0  0  0  0  0  0
    8.3894  -39.1580   -0.7312 C   0  0  0  0  0  0  0  0  0  0  0  0
  1  2  1  0
  2  3  2  0
  2  4  1  0
  3  5  1  0
  4  6  1  0
  6  7  1  0
  6  8  1  0
  1  9  2  0
  3 10  1  0
  7 10  1  0
M  END
>  <ID>  (1) 
conformer_0

$$$$
