
     RDKit          3D

  7  7  0  0  0  0  0  0  0  0999 V2000
    8.1017  -36.3967    0.0245 C   0  0  0  0  0  0  0  0  0  0  0  0
    7.7504  -37.3376   -0.7181 C   0  0  0  0  0  0  0  0  0  0  0  0
    8.9020  -36.4645    1.1283 C   0  0  0  0  0  0  0  0  0  0  0  0
    8.1364  -38.6731   -0.3298 C   0  0  0  0  0  0  0  0  0  0  0  0
    9.0713  -38.6504    0.8845 C   0  0  0  0  0  0  0  0  0  0  0  0
    9.1613  -35.2576    1.8891 O   0  0  0  0  0  0  0  0  0  0  0  0
    9.2872  -37.4600    1.5398 C   0  0  0  0  0  0  0  0  0  0  0  0
  1  2  1  0
  1  3  2  0
  2  4  2  0
  4  5  1  0
  3  6  1  0
  3  7  1  0
  5  7  2  0
M  END
>  <ID>  (1) 
conformer_0

$$$$
