
     RDKit          3D

 13 15  0  0  0  0  0  0  0  0999 V2000
    7.5152  -37.8431   -1.2783 C   0  0  0  0  0  0  0  0  0  0  0  0
    8.2533  -37.8903   -0.1810 C   0  0  0  0  0  0  0  0  0  0  0  0
    8.3833  -36.8176    0.7248 C   0  0  0  0  0  0  0  0  0  0  0  0
    6.3808  -36.9420   -1.0981 C   0  0  0  0  0  0  0  0  0  0  0  0
    9.6069  -38.5197   -0.3967 C   0  0  0  0  0  0  0  0  0  0  0  0
    7.4924  -39.0410    0.8067 C   0  0  0  0  0  0  0  0  0  0  0  0
    6.0351  -38.6630    0.8278 C   0  0  0  0  0  0  0  0  0  0  0  0
    7.9172  -40.0856    1.3013 C   0  0  0  0  0  0  0  0  0  0  0  0
   10.0055  -39.6381    0.6130 C   0  0  0  0  0  0  0  0  0  0  0  0
    5.3879  -37.9571   -0.3520 C   0  0  0  0  0  0  0  0  0  0  0  0
    6.8645  -35.9486    0.0231 C   0  0  0  0  0  0  0  0  0  0  0  0
    7.3778  -36.1702    1.2597 C   0  0  0  0  0  0  0  0  0  0  0  0
    9.2143  -40.4735    1.1440 C   0  0  0  0  0  0  0  0  0  0  0  0
  1  2  1  0
  2  3  1  0
  1  4  1  0
  2  5  1  0
  2  6  1  0
  6  7  1  0
  6  8  2  0
  5  9  1  0
  4 10  1  0
  7 10  1  0
  4 11  1  0
  3 12  1  0
 11 12  1  0
  8 13  1  0
  9 13  2  0
M  END
>  <ID>  (1) 
conformer_0

$$$$
