
     RDKit          3D

 13 15  0  0  0  0  0  0  0  0999 V2000
    7.0666  -35.9755    2.2456 C   0  0  0  0  0  0  0  0  0  0  0  0
    7.2632  -36.3492    1.0565 C   0  0  0  0  0  0  0  0  0  0  0  0
    8.4989  -36.5453    0.4464 C   0  0  0  0  0  0  0  0  0  0  0  0
    8.7506  -37.9458   -0.0028 C   0  0  0  0  0  0  0  0  0  0  0  0
    6.0601  -36.9357    0.4153 C   0  0  0  0  0  0  0  0  0  0  0  0
    4.9247  -36.9757    1.1509 C   0  0  0  0  0  0  0  0  0  0  0  0
    9.2130  -38.8765    0.8967 C   0  0  0  0  0  0  0  0  0  0  0  0
    5.9209  -35.8957    3.0293 C   0  0  0  0  0  0  0  0  0  0  0  0
    4.8061  -36.4015    2.4144 C   0  0  0  0  0  0  0  0  0  0  0  0
    6.2267  -37.6985   -0.9410 C   0  0  0  0  0  0  0  0  0  0  0  0
    7.4353  -38.3940   -0.6494 C   0  0  0  0  0  0  0  0  0  0  0  0
    8.8738  -40.1635    0.5792 C   0  0  0  0  0  0  0  0  0  0  0  0
    7.4983  -39.9288   -0.1344 C   0  0  0  0  0  0  0  0  0  0  0  0
  1  2  2  0
  2  3  1  0
  3  4  1  0
  2  5  1  0
  5  6  2  0
  4  7  1  0
  1  8  1  0
  6  9  1  0
  8  9  2  0
  5 10  1  0
  4 11  1  0
 10 11  1  0
  7 12  1  0
 11 13  1  0
 12 13  1  0
M  END
>  <ID>  (1) 
conformer_0

$$$$
