
     RDKit          3D

 32 36  0  0  0  0  0  0  0  0999 V2000
    8.5728  -38.3963   -0.5614 C   0  0  0  0  0  0  0  0  0  0  0  0
    7.4283  -37.6989   -0.5076 C   0  0  0  0  0  0  0  0  0  0  0  0
    7.4074  -36.6602    0.4394 N   0  0  0  0  0  0  0  0  0  0  0  0
    6.6757  -36.5980    1.4867 C   0  0  0  0  0  0  0  0  0  0  0  0
    7.7399  -35.3377   -0.0828 C   0  0  0  0  0  0  0  0  0  0  0  0
    6.4834  -38.2073   -1.2849 C   0  0  0  0  0  0  0  0  0  0  0  0
    5.9530  -37.6086    2.0881 C   0  0  0  0  0  0  0  0  0  0  0  0
    8.6741  -39.7085   -0.8695 C   0  0  0  0  0  0  0  0  0  0  0  0
    6.8234  -35.5222    2.2682 N   0  0  0  0  0  0  0  0  0  0  0  0
    5.6060  -38.8720    1.2694 C   0  0  0  0  0  0  0  0  0  0  0  0
    5.3433  -37.5623    3.3201 C   0  0  0  0  0  0  0  0  0  0  0  0
    5.7211  -36.2021    3.9780 C   0  0  0  0  0  0  0  0  0  0  0  0
    6.2733  -39.6069   -1.2333 C   0  0  0  0  0  0  0  0  0  0  0  0
    5.1049  -36.0561    5.3641 C   0  0  0  0  0  0  0  0  0  0  0  0
    5.5506  -35.1231    6.1823 C   0  0  0  0  0  0  0  0  0  0  0  0
    4.3312  -37.1753    5.9919 C   0  0  0  0  0  0  0  0  0  0  0  0
    7.4592  -40.2687   -1.2632 C   0  0  0  0  0  0  0  0  0  0  0  0
    4.7797  -40.0519   -1.4484 C   0  0  0  0  0  0  0  0  0  0  0  0
    6.2256  -39.8377    1.8098 O   0  0  0  0  0  0  0  0  0  0  0  0
    4.2999  -39.1604    0.9221 N   0  0  0  0  0  0  0  0  0  0  0  0
    3.7885  -38.2237    5.2567 C   0  0  0  0  0  0  0  0  0  0  0  0
    6.3243  -35.5146    3.5920 N   0  0  0  0  0  0  0  0  0  0  0  0
    3.2407  -39.3367    5.8044 C   0  0  0  0  0  0  0  0  0  0  0  0
    4.0201  -39.4977   -0.3207 C   0  0  0  0  0  0  0  0  0  0  0  0
    4.0588  -36.9979    7.3033 C   0  0  0  0  0  0  0  0  0  0  0  0
    4.7535  -35.9473    8.0960 C   0  0  0  0  0  0  0  0  0  0  0  0
    4.3750  -35.9434    9.5194 O   0  0  0  0  0  0  0  0  0  0  0  0
    4.1603  -40.0897    6.4445 C   0  0  0  0  0  0  0  0  0  0  0  0
    5.2878  -36.4041   10.3749 C   0  0  0  0  0  0  0  0  0  0  0  0
    4.7199  -38.4653    4.1779 N   0  0  0  0  0  0  0  0  0  0  0  0
    4.9382  -39.6689    7.3625 O   0  0  0  0  0  0  0  0  0  0  0  0
    5.3809  -34.9846    7.5147 C   0  0  0  0  0  0  0  0  0  0  0  0
  1  2  1  0
  2  3  1  0
  3  4  1  0
  3  5  1  0
  2  6  2  0
  4  7  1  0
  1  8  2  0
  4  9  2  0
  7 10  1  0
  7 11  2  0
 11 12  1  0
  6 13  1  0
 12 14  1  0
 14 15  2  0
 14 16  1  0
  8 17  1  0
 13 17  2  0
 13 18  1  0
 10 19  2  0
 10 20  1  0
 16 21  1  0
  9 22  1  0
 12 22  2  0
 21 23  1  0
 18 24  1  0
 20 24  1  0
 16 25  2  0
 25 26  1  0
 26 27  1  0
 23 28  1  0
 27 29  1  0
 11 30  1  0
 21 30  1  0
 28 31  1  0
 15 32  1  0
 26 32  2  0
M  END
>  <ID>  (1) 
conformer_0

$$$$
