
     RDKit          3D

  7  7  0  0  0  0  0  0  0  0999 V2000
    8.4723  -43.3982    2.5704 C   0  0  0  0  0  0  0  0  0  0  0  0
    8.2337  -42.9401    3.7215 C   0  0  0  0  0  0  0  0  0  0  0  0
    7.2625  -42.2156    4.0669 C   0  0  0  0  0  0  0  0  0  0  0  0
    7.0847  -41.7357    5.4733 C   0  0  0  0  0  0  0  0  0  0  0  0
    7.6306  -43.1110    1.4727 C   0  0  0  0  0  0  0  0  0  0  0  0
    6.4667  -41.9029    3.2225 C   0  0  0  0  0  0  0  0  0  0  0  0
    6.6472  -42.3804    1.9110 C   0  0  0  0  0  0  0  0  0  0  0  0
  1  2  2  0
  2  3  1  0
  3  4  1  0
  1  5  1  0
  3  6  2  0
  5  7  2  0
  6  7  1  0
M  END
>  <ID>  (1) 
conformer_0

$$$$
