
     RDKit          3D

  9  9  0  0  0  0  0  0  0  0999 V2000
    8.6995  -42.3398    4.0058 C   0  0  0  0  0  0  0  0  0  0  0  0
    7.8476  -42.1728    2.9908 C   0  0  0  0  0  0  0  0  0  0  0  0
    8.0969  -42.8636    5.0178 C   0  0  0  0  0  0  0  0  0  0  0  0
    6.7565  -43.0838    5.1147 C   0  0  0  0  0  0  0  0  0  0  0  0
    6.0189  -42.8525    3.9741 C   0  0  0  0  0  0  0  0  0  0  0  0
    4.5688  -43.1600    3.8938 C   0  0  0  0  0  0  0  0  0  0  0  0
    6.6686  -42.4026    2.8200 C   0  0  0  0  0  0  0  0  0  0  0  0
    3.8613  -42.7096    4.8632 O   0  0  0  0  0  0  0  0  0  0  0  0
    4.0745  -43.8426    2.9722 O   0  0  0  0  0  0  0  0  0  0  0  0
  1  2  1  0
  1  3  2  0
  3  4  1  0
  4  5  2  0
  5  6  1  0
  2  7  2  0
  5  7  1  0
  6  8  1  0
  6  9  2  0
M  END
>  <ID>  (1) 
conformer_0

$$$$
