
     RDKit          3D

 10 11  0  0  0  0  0  0  0  0999 V2000
    1.0439   14.1606   -0.0058 C   0  0  0  0  0  0  0  0  0  0  0  0
    0.6719   13.5814    1.1941 C   0  0  0  0  0  0  0  0  0  0  0  0
    0.3079   12.5250    1.4410 C   0  0  0  0  0  0  0  0  0  0  0  0
   -0.2004   11.6923    0.2772 C   0  0  0  0  0  0  0  0  0  0  0  0
   -0.8520   10.4498    0.4559 C   0  0  0  0  0  0  0  0  0  0  0  0
   -1.1982   10.0820    1.6873 C   0  0  0  0  0  0  0  0  0  0  0  0
   -0.6629   10.9369    2.8606 C   0  0  0  0  0  0  0  0  0  0  0  0
   -0.0003   11.9614    2.8891 C   0  0  0  0  0  0  0  0  0  0  0  0
   -0.0287   12.2654   -0.9614 C   0  0  0  0  0  0  0  0  0  0  0  0
    0.5529   13.4594   -1.1376 C   0  0  0  0  0  0  0  0  0  0  0  0
  1  2  1  0
  2  3  2  0
  3  4  1  0
  4  5  1  0
  5  6  2  0
  6  7  1  0
  3  8  1  0
  7  8  2  0
  4  9  2  0
  1 10  2  0
  9 10  1  0
M  END
>  <ID>  (1) 
conformer_0

$$$$
