
     RDKit          3D

 11 11  0  0  0  0  0  0  0  0999 V2000
   -0.4230   11.6748    3.4060 C   0  0  0  0  0  0  0  0  0  0  0  0
   -0.2980   11.6364    2.1794 C   0  0  0  0  0  0  0  0  0  0  0  0
   -0.9939   10.6913    1.4580 C   0  0  0  0  0  0  0  0  0  0  0  0
   -1.0670   10.6925    0.1130 C   0  0  0  0  0  0  0  0  0  0  0  0
    0.2022   12.7553    1.4001 C   0  0  0  0  0  0  0  0  0  0  0  0
   -0.4713   11.7751   -0.6273 C   0  0  0  0  0  0  0  0  0  0  0  0
    0.1893   12.7604    0.0587 C   0  0  0  0  0  0  0  0  0  0  0  0
    0.8845   13.9710   -0.6099 C   0  0  0  0  0  0  0  0  0  0  0  0
   -0.2378   10.5336    4.1563 N   0  0  0  0  0  0  0  0  0  0  0  0
    1.4687   14.7494    0.0621 N   0  0  0  0  0  0  0  0  0  0  0  0
    0.8187   13.9558   -1.9225 O   0  0  0  0  0  0  0  0  0  0  0  0
  1  2  1  0
  2  3  1  0
  3  4  2  0
  2  5  2  0
  4  6  1  0
  5  7  1  0
  6  7  2  0
  7  8  1  0
  1  9  1  0
  8 10  1  0
  8 11  2  0
M  END
>  <ID>  (1) 
conformer_0

$$$$
