
     RDKit          3D

 11 11  0  0  0  0  0  0  0  0999 V2000
   -0.1816   10.9729    3.5303 C   0  0  0  0  0  0  0  0  0  0  0  0
    0.3642   12.1977    3.4433 C   0  0  0  0  0  0  0  0  0  0  0  0
    0.4039   12.8765    2.1982 C   0  0  0  0  0  0  0  0  0  0  0  0
   -0.6216   10.3208    2.3841 C   0  0  0  0  0  0  0  0  0  0  0  0
   -1.1851    8.9601    2.4652 C   0  0  0  0  0  0  0  0  0  0  0  0
   -0.6822   10.9017    1.1047 C   0  0  0  0  0  0  0  0  0  0  0  0
   -0.1164   12.2346    1.0818 C   0  0  0  0  0  0  0  0  0  0  0  0
    0.1173   12.9168   -0.1413 N   0  0  0  0  0  0  0  0  0  0  0  0
   -1.2065    8.3796    3.6581 O   0  0  0  0  0  0  0  0  0  0  0  0
    0.9509   14.1887    1.9939 N   0  0  0  0  0  0  0  0  0  0  0  0
   -2.1493    8.7286    1.7275 O   0  0  0  0  0  0  0  0  0  0  0  0
  1  2  1  0
  2  3  2  0
  1  4  2  0
  4  5  1  0
  4  6  1  0
  3  7  1  0
  6  7  2  0
  7  8  1  0
  5  9  1  0
  3 10  1  0
  5 11  2  0
M  END
>  <ID>  (1) 
conformer_0

$$$$
