
     RDKit          3D

  7  7  0  0  0  0  0  0  0  0999 V2000
    0.6166   12.0534    2.9269 C   0  0  0  0  0  0  0  0  0  0  0  0
    0.3051   12.0313    1.7039 C   0  0  0  0  0  0  0  0  0  0  0  0
    0.5140   13.1830    0.7960 C   0  0  0  0  0  0  0  0  0  0  0  0
    0.9523   13.3661    3.3882 C   0  0  0  0  0  0  0  0  0  0  0  0
    0.8492   14.3287    1.3160 N   0  0  0  0  0  0  0  0  0  0  0  0
    1.1875   14.3214    2.6790 C   0  0  0  0  0  0  0  0  0  0  0  0
    0.2604   10.9908    3.8137 N   0  0  0  0  0  0  0  0  0  0  0  0
  1  2  2  0
  2  3  1  0
  1  4  1  0
  3  5  2  0
  4  6  2  0
  5  6  1  0
  1  7  1  0
M  END
>  <ID>  (1) 
conformer_0

$$$$
