
     RDKit          3D

 11 12  0  0  0  0  0  0  0  0999 V2000
    0.8844   14.4633    1.0657 N   0  0  0  0  0  0  0  0  0  0  0  0
    0.4736   13.7079    0.2731 C   0  0  0  0  0  0  0  0  0  0  0  0
    1.0531   14.0742    2.4587 C   0  0  0  0  0  0  0  0  0  0  0  0
    0.5825   12.8150    2.8353 C   0  0  0  0  0  0  0  0  0  0  0  0
    0.0639   12.4684    0.4295 C   0  0  0  0  0  0  0  0  0  0  0  0
    0.5284   12.3017    4.0947 C   0  0  0  0  0  0  0  0  0  0  0  0
    0.0326   11.9883    1.8622 C   0  0  0  0  0  0  0  0  0  0  0  0
   -0.5170   10.7294    2.1315 C   0  0  0  0  0  0  0  0  0  0  0  0
   -0.0232   11.1120    4.4207 C   0  0  0  0  0  0  0  0  0  0  0  0
   -1.0677    9.8849    1.1327 N   0  0  0  0  0  0  0  0  0  0  0  0
   -0.5047   10.3260    3.2605 N   0  0  0  0  0  0  0  0  0  0  0  0
  1  2  1  0
  1  3  2  0
  3  4  1  0
  2  5  2  0
  4  6  1  0
  4  7  2  0
  5  7  1  0
  7  8  1  0
  6  9  2  0
  8 10  1  0
  8 11  2  0
  9 11  1  0
M  END
>  <ID>  (1) 
conformer_0

$$$$
