
     RDKit          3D

 10 10  0  0  0  0  0  0  0  0999 V2000
    0.4545   12.5641    2.9756 C   0  0  0  0  0  0  0  0  0  0  0  0
   -0.0776   11.8986    2.0120 C   0  0  0  0  0  0  0  0  0  0  0  0
   -0.0641   12.5263    0.6937 C   0  0  0  0  0  0  0  0  0  0  0  0
   -0.7719   10.6863    2.3398 C   0  0  0  0  0  0  0  0  0  0  0  0
   -1.4069   10.0202    1.5405 O   0  0  0  0  0  0  0  0  0  0  0  0
   -0.7036   10.2925    3.5963 N   0  0  0  0  0  0  0  0  0  0  0  0
    0.5997   13.6868    0.5361 C   0  0  0  0  0  0  0  0  0  0  0  0
    0.6796   14.2912   -0.7654 C   0  0  0  0  0  0  0  0  0  0  0  0
    1.1215   13.8027    2.8029 C   0  0  0  0  0  0  0  0  0  0  0  0
    1.1847   14.3728    1.6193 N   0  0  0  0  0  0  0  0  0  0  0  0
  1  2  2  0
  2  3  1  0
  2  4  1  0
  4  5  2  0
  4  6  1  0
  3  7  2  0
  7  8  1  0
  1  9  1  0
  7 10  1  0
  9 10  2  0
M  END
>  <ID>  (1) 
conformer_0

$$$$
