
     RDKit          3D

  9  9  0  0  0  0  0  0  0  0999 V2000
    0.6166   12.0534    2.9269 C   0  0  0  0  0  0  0  0  0  0  0  0
    0.3051   12.0313    1.7039 N   0  0  0  0  0  0  0  0  0  0  0  0
   -0.6104   11.2522    1.2249 C   0  0  0  0  0  0  0  0  0  0  0  0
    0.5533   13.3550    1.0565 C   0  0  0  0  0  0  0  0  0  0  0  0
   -0.2141   11.0637    3.7832 C   0  0  0  0  0  0  0  0  0  0  0  0
   -1.0140   10.1353    3.2757 C   0  0  0  0  0  0  0  0  0  0  0  0
   -1.5651    9.1512    3.9707 N   0  0  0  0  0  0  0  0  0  0  0  0
   -1.2109   10.3207    1.7663 C   0  0  0  0  0  0  0  0  0  0  0  0
   -0.9817   11.4459   -0.1373 O   0  0  0  0  0  0  0  0  0  0  0  0
  1  2  1  0
  2  3  1  0
  2  4  1  0
  1  5  2  0
  5  6  1  0
  6  7  1  0
  3  8  1  0
  6  8  1  0
  3  9  2  0
M  END
>  <ID>  (1) 
conformer_0

$$$$
