
     RDKit          3D

 10 10  0  0  0  0  0  0  0  0999 V2000
    0.4545   12.5641    2.9756 C   0  0  0  0  0  0  0  0  0  0  0  0
   -0.0776   11.8986    2.0120 C   0  0  0  0  0  0  0  0  0  0  0  0
   -0.0124   12.4821    0.6995 C   0  0  0  0  0  0  0  0  0  0  0  0
    1.0132   13.7564    2.8764 C   0  0  0  0  0  0  0  0  0  0  0  0
   -0.6869   10.5871    2.1904 C   0  0  0  0  0  0  0  0  0  0  0  0
   -1.0322   10.1763    3.4811 N   0  0  0  0  0  0  0  0  0  0  0  0
    0.6499   13.8461    0.7811 C   0  0  0  0  0  0  0  0  0  0  0  0
   -1.4658    9.9843    1.2644 O   0  0  0  0  0  0  0  0  0  0  0  0
    0.8334   14.3315   -0.6256 C   0  0  0  0  0  0  0  0  0  0  0  0
    1.1947   14.3684    1.7617 C   0  0  0  0  0  0  0  0  0  0  0  0
  1  2  1  0
  2  3  2  0
  1  4  2  0
  2  5  1  0
  5  6  1  0
  3  7  1  0
  5  8  2  0
  7  9  1  0
  4 10  1  0
  7 10  2  0
M  END
>  <ID>  (1) 
conformer_0

$$$$
