
     RDKit          3D

  9  9  0  0  0  0  0  0  0  0999 V2000
   -0.2991   11.9241    3.7838 C   0  0  0  0  0  0  0  0  0  0  0  0
   -0.8495   10.9931    3.2040 C   0  0  0  0  0  0  0  0  0  0  0  0
    0.5046   12.8760    2.9352 C   0  0  0  0  0  0  0  0  0  0  0  0
    0.4450   12.8478    1.6164 C   0  0  0  0  0  0  0  0  0  0  0  0
   -1.5519    9.9940    3.9186 N   0  0  0  0  0  0  0  0  0  0  0  0
   -0.3101   11.8079    0.9974 C   0  0  0  0  0  0  0  0  0  0  0  0
   -0.3899   11.7528   -0.4342 N   0  0  0  0  0  0  0  0  0  0  0  0
    1.0835   13.8384    0.6807 C   0  0  0  0  0  0  0  0  0  0  0  0
   -1.0558   10.8017    1.7640 C   0  0  0  0  0  0  0  0  0  0  0  0
  1  2  1  0
  1  3  2  0
  3  4  1  0
  2  5  1  0
  4  6  2  0
  6  7  1  0
  4  8  1  0
  2  9  2  0
  6  9  1  0
M  END
>  <ID>  (1) 
conformer_0

$$$$
