
     RDKit          3D

  7  6  0  0  0  0  0  0  0  0999 V2000
   -0.0212    9.8528    3.7910 C   0  0  0  0  0  0  0  0  0  0  0  0
   -0.2316   10.8854    3.0303 C   0  0  0  0  0  0  0  0  0  0  0  0
    0.6743   11.8091    2.6706 N   0  0  0  0  0  0  0  0  0  0  0  0
   -1.2886   10.8465    2.2128 O   0  0  0  0  0  0  0  0  0  0  0  0
    0.4812   13.1513    2.1721 C   0  0  0  0  0  0  0  0  0  0  0  0
    1.1785   13.4925    1.1160 C   0  0  0  0  0  0  0  0  0  0  0  0
    0.5060   14.1238    3.2533 O   0  0  0  0  0  0  0  0  0  0  0  0
  1  2  1  0
  2  3  1  0
  2  4  2  0
  3  5  1  0
  5  6  1  0
  5  7  1  0
M  END
>  <ID>  (1) 
conformer_0

$$$$
