
     RDKit          3D

  9  9  0  0  0  0  0  0  0  0999 V2000
    0.4475   12.7122    3.1244 C   0  0  0  0  0  0  0  0  0  0  0  0
    0.0049   11.5963    3.0917 C   0  0  0  0  0  0  0  0  0  0  0  0
   -0.1328   10.7861    4.2440 N   0  0  0  0  0  0  0  0  0  0  0  0
   -0.3948   11.0927    1.8706 C   0  0  0  0  0  0  0  0  0  0  0  0
    0.7756   13.6028    2.1214 C   0  0  0  0  0  0  0  0  0  0  0  0
   -0.2027   11.9648    0.7404 C   0  0  0  0  0  0  0  0  0  0  0  0
   -0.6251   11.5436   -0.5299 C   0  0  0  0  0  0  0  0  0  0  0  0
    1.2712   14.8075    2.2741 N   0  0  0  0  0  0  0  0  0  0  0  0
    0.3256   13.2206    0.8873 N   0  0  0  0  0  0  0  0  0  0  0  0
  1  2  1  0
  2  3  1  0
  2  4  2  0
  1  5  2  0
  4  6  1  0
  6  7  1  0
  5  8  1  0
  5  9  1  0
  6  9  2  0
M  END
>  <ID>  (1) 
conformer_0

$$$$
