
     RDKit          3D

  9  9  0  0  0  0  0  0  0  0999 V2000
    0.6166   12.0534    2.9269 C   0  0  0  0  0  0  0  0  0  0  0  0
    0.3051   12.0313    1.7039 C   0  0  0  0  0  0  0  0  0  0  0  0
    0.0351   11.4169    3.9006 C   0  0  0  0  0  0  0  0  0  0  0  0
   -0.8326   11.1544    1.4768 C   0  0  0  0  0  0  0  0  0  0  0  0
   -1.2601   10.3600    2.4146 C   0  0  0  0  0  0  0  0  0  0  0  0
    0.6976   12.8821    0.7011 N   0  0  0  0  0  0  0  0  0  0  0  0
   -0.8138   10.4193    3.7003 C   0  0  0  0  0  0  0  0  0  0  0  0
    0.3241   12.8707   -0.5329 C   0  0  0  0  0  0  0  0  0  0  0  0
    1.3995   14.1375    1.0969 C   0  0  0  0  0  0  0  0  0  0  0  0
  1  2  2  0
  1  3  1  0
  2  4  1  0
  4  5  2  0
  2  6  1  0
  3  7  2  0
  5  7  1  0
  6  8  1  0
  6  9  1  0
M  END
>  <ID>  (1) 
conformer_0

$$$$
