
     RDKit          3D

 11 12  0  0  0  0  0  0  0  0999 V2000
    0.6166   12.0534    2.9269 C   0  0  0  0  0  0  0  0  0  0  0  0
    0.3051   12.0313    1.7039 C   0  0  0  0  0  0  0  0  0  0  0  0
    0.2622   10.9749    3.6517 C   0  0  0  0  0  0  0  0  0  0  0  0
    1.2827   13.2670    3.2650 C   0  0  0  0  0  0  0  0  0  0  0  0
   -0.4711   10.9578    1.0859 C   0  0  0  0  0  0  0  0  0  0  0  0
   -0.3923    9.8808    3.2593 C   0  0  0  0  0  0  0  0  0  0  0  0
   -0.9287   10.8950   -0.2459 N   0  0  0  0  0  0  0  0  0  0  0  0
    1.0454   14.1978    2.2032 N   0  0  0  0  0  0  0  0  0  0  0  0
    0.5452   13.3437    1.1473 N   0  0  0  0  0  0  0  0  0  0  0  0
   -0.8447    9.9140    1.9290 C   0  0  0  0  0  0  0  0  0  0  0  0
    0.6191   13.7444   -0.1943 C   0  0  0  0  0  0  0  0  0  0  0  0
  1  2  1  0
  1  3  2  0
  1  4  1  0
  2  5  2  0
  3  6  1  0
  5  7  1  0
  4  8  2  0
  2  9  1  0
  8  9  1  0
  5 10  1  0
  6 10  2  0
  9 11  1  0
M  END
>  <ID>  (1) 
conformer_0

$$$$
