
     RDKit          3D

  9  9  0  0  0  0  0  0  0  0999 V2000
    0.0040   12.4787    3.8802 C   0  0  0  0  0  0  0  0  0  0  0  0
    0.7512   13.2998    3.1422 C   0  0  0  0  0  0  0  0  0  0  0  0
   -0.4539   11.3002    3.2931 C   0  0  0  0  0  0  0  0  0  0  0  0
    0.7778   13.3647    1.7853 C   0  0  0  0  0  0  0  0  0  0  0  0
    0.1631   12.2449    1.1175 C   0  0  0  0  0  0  0  0  0  0  0  0
   -1.2240   10.3303    3.9161 N   0  0  0  0  0  0  0  0  0  0  0  0
    0.1590   12.1882   -0.2969 N   0  0  0  0  0  0  0  0  0  0  0  0
   -0.5448   11.2513    1.8074 C   0  0  0  0  0  0  0  0  0  0  0  0
    1.4314   14.3327    1.0572 N   0  0  0  0  0  0  0  0  0  0  0  0
  1  2  2  0
  1  3  1  0
  2  4  1  0
  4  5  2  0
  3  6  1  0
  5  7  1  0
  3  8  2  0
  5  8  1  0
  4  9  1  0
M  END
>  <ID>  (1) 
conformer_0

$$$$
