
     RDKit          3D

  8  8  0  0  0  0  0  0  0  0999 V2000
    1.1083   13.9237    2.5127 C   0  0  0  0  0  0  0  0  0  0  0  0
    0.5068   12.7237    2.1997 C   0  0  0  0  0  0  0  0  0  0  0  0
    0.2119   12.4355    1.0405 C   0  0  0  0  0  0  0  0  0  0  0  0
    1.4582   14.7656    1.5660 N   0  0  0  0  0  0  0  0  0  0  0  0
   -0.4848   11.1792    0.7541 N   0  0  0  0  0  0  0  0  0  0  0  0
    0.1192   11.6856    3.2819 C   0  0  0  0  0  0  0  0  0  0  0  0
   -0.5003   10.7775    2.8915 C   0  0  0  0  0  0  0  0  0  0  0  0
   -0.8810   10.4139    1.6861 C   0  0  0  0  0  0  0  0  0  0  0  0
  1  2  1  0
  2  3  2  0
  1  4  2  0
  3  5  1  0
  2  6  1  0
  6  7  2  0
  5  8  2  0
  7  8  1  0
M  END
>  <ID>  (1) 
conformer_0

$$$$
