
     RDKit          3D

 11 11  0  0  0  0  0  0  0  0999 V2000
    1.0439   14.1606   -0.0058 C   0  0  0  0  0  0  0  0  0  0  0  0
    0.4738   13.4143   -0.7474 C   0  0  0  0  0  0  0  0  0  0  0  0
    1.1166   14.0837    1.3884 C   0  0  0  0  0  0  0  0  0  0  0  0
   -0.2426   12.2552   -0.1813 C   0  0  0  0  0  0  0  0  0  0  0  0
   -0.9423   11.3324   -0.9552 C   0  0  0  0  0  0  0  0  0  0  0  0
    0.4545   13.0021    2.0190 C   0  0  0  0  0  0  0  0  0  0  0  0
   -0.9972   11.3145   -2.2166 O   0  0  0  0  0  0  0  0  0  0  0  0
   -1.4173   10.1752   -0.4174 N   0  0  0  0  0  0  0  0  0  0  0  0
   -0.2422   12.0416    1.2693 C   0  0  0  0  0  0  0  0  0  0  0  0
   -2.1234    9.1034   -1.0950 C   0  0  0  0  0  0  0  0  0  0  0  0
    0.4511   12.7923    3.5777 C   0  0  0  0  0  0  0  0  0  0  0  0
  1  2  2  0
  1  3  1  0
  2  4  1  0
  4  5  1  0
  3  6  2  0
  5  7  2  0
  5  8  1  0
  4  9  2  0
  6  9  1  0
  8 10  1  0
  6 11  1  0
M  END
>  <ID>  (1) 
conformer_0

$$$$
