
     RDKit          3D

 10 10  0  0  0  0  0  0  0  0999 V2000
    0.4555   12.5025    3.4484 C   0  0  0  0  0  0  0  0  0  0  0  0
   -0.1749   11.4183    3.1221 C   0  0  0  0  0  0  0  0  0  0  0  0
    0.8039   13.4865    2.4900 C   0  0  0  0  0  0  0  0  0  0  0  0
   -0.5380   11.1501    1.8374 C   0  0  0  0  0  0  0  0  0  0  0  0
   -1.2408    9.9654    1.3756 C   0  0  0  0  0  0  0  0  0  0  0  0
   -0.2217   12.2420    0.8267 C   0  0  0  0  0  0  0  0  0  0  0  0
    1.4262   14.6240    2.8488 F   0  0  0  0  0  0  0  0  0  0  0  0
    0.4404   13.3061    1.1738 C   0  0  0  0  0  0  0  0  0  0  0  0
    0.9687   14.2031    0.2632 N   0  0  0  0  0  0  0  0  0  0  0  0
   -0.6209   12.0304   -0.5477 C   0  0  0  0  0  0  0  0  0  0  0  0
  1  2  1  0
  1  3  2  0
  2  4  2  0
  4  5  1  0
  4  6  1  0
  3  7  1  0
  3  8  1  0
  6  8  2  0
  8  9  1  0
  6 10  1  0
M  END
>  <ID>  (1) 
conformer_0

$$$$
