
     RDKit          3D

 11 12  0  0  0  0  0  0  0  0999 V2000
    1.1610   14.3164    1.9913 N   0  0  0  0  0  0  0  0  0  0  0  0
    0.9385   13.5744    3.1143 C   0  0  0  0  0  0  0  0  0  0  0  0
    0.5002   12.2397    2.8157 C   0  0  0  0  0  0  0  0  0  0  0  0
    0.0214   11.2424    3.7906 C   0  0  0  0  0  0  0  0  0  0  0  0
    0.2161   12.2751    1.4090 C   0  0  0  0  0  0  0  0  0  0  0  0
   -0.3943   10.0213    3.3085 C   0  0  0  0  0  0  0  0  0  0  0  0
   -0.4906    9.7611    1.8880 C   0  0  0  0  0  0  0  0  0  0  0  0
    0.6879   13.5208    0.9092 C   0  0  0  0  0  0  0  0  0  0  0  0
   -0.2759   10.9547    0.9869 C   0  0  0  0  0  0  0  0  0  0  0  0
   -1.1694   11.0659    0.0103 O   0  0  0  0  0  0  0  0  0  0  0  0
    0.7485   13.7855   -0.4035 N   0  0  0  0  0  0  0  0  0  0  0  0
  1  2  1  0
  2  3  2  0
  3  4  1  0
  3  5  1  0
  4  6  2  0
  6  7  1  0
  1  8  2  0
  5  8  1  0
  5  9  1  0
  7  9  1  0
  9 10  2  0
  8 11  1  0
M  END
>  <ID>  (1) 
conformer_0

$$$$
