
     RDKit          3D

 11 12  0  0  0  0  0  0  0  0999 V2000
    0.4194   12.6462    3.4452 C   0  0  0  0  0  0  0  0  0  0  0  0
   -0.1676   11.4978    3.1267 C   0  0  0  0  0  0  0  0  0  0  0  0
   -0.5146   10.4517    3.9911 C   0  0  0  0  0  0  0  0  0  0  0  0
   -1.1861    9.4064    3.6803 C   0  0  0  0  0  0  0  0  0  0  0  0
   -1.5200    9.0981    2.3799 C   0  0  0  0  0  0  0  0  0  0  0  0
    0.7571   13.5654    2.3793 C   0  0  0  0  0  0  0  0  0  0  0  0
   -0.7582   11.0683    1.7329 C   0  0  0  0  0  0  0  0  0  0  0  0
   -0.4024   12.1860    0.7231 C   0  0  0  0  0  0  0  0  0  0  0  0
   -1.3232   10.0451    1.3973 C   0  0  0  0  0  0  0  0  0  0  0  0
    0.3917   13.3802    1.1137 C   0  0  0  0  0  0  0  0  0  0  0  0
    0.8691   14.1901    0.0726 C   0  0  0  0  0  0  0  0  0  0  0  0
  1  2  2  0
  2  3  1  0
  3  4  2  0
  4  5  1  0
  1  6  1  0
  2  7  1  0
  7  8  2  0
  5  9  2  0
  7  9  1  0
  6 10  2  0
  8 10  1  0
 10 11  1  0
M  END
>  <ID>  (1) 
conformer_0

$$$$
