
     RDKit          3D

 10 10  0  0  0  0  0  0  0  0999 V2000
    0.4545   12.5641    2.9756 C   0  0  0  0  0  0  0  0  0  0  0  0
   -0.0776   11.8986    2.0120 C   0  0  0  0  0  0  0  0  0  0  0  0
   -0.0124   12.4821    0.6995 C   0  0  0  0  0  0  0  0  0  0  0  0
    1.0132   13.7564    2.8764 C   0  0  0  0  0  0  0  0  0  0  0  0
   -0.6375   10.6452    2.1583 N   0  0  0  0  0  0  0  0  0  0  0  0
    0.5268   13.7079    0.5963 C   0  0  0  0  0  0  0  0  0  0  0  0
    1.1078   14.3788    1.6562 C   0  0  0  0  0  0  0  0  0  0  0  0
   -1.4863   10.0798    1.2582 C   0  0  0  0  0  0  0  0  0  0  0  0
   -0.8567   10.2664    3.5445 C   0  0  0  0  0  0  0  0  0  0  0  0
    0.1788    9.3741    4.0364 C   0  0  0  0  0  0  0  0  0  0  0  0
  1  2  1  0
  2  3  2  0
  1  4  2  0
  2  5  1  0
  3  6  1  0
  4  7  1  0
  6  7  2  0
  5  8  1  0
  5  9  1  0
  9 10  1  0
M  END
>  <ID>  (1) 
conformer_0

$$$$
