
     RDKit          3D

  6  5  0  0  0  0  0  0  0  0999 V2000
    1.1610   13.8738    2.6906 C   0  0  0  0  0  0  0  0  0  0  0  0
    0.6189   12.6543    2.3059 C   0  0  0  0  0  0  0  0  0  0  0  0
    1.3301   14.7124    1.7236 N   0  0  0  0  0  0  0  0  0  0  0  0
    0.0557   11.7873    3.4294 C   0  0  0  0  0  0  0  0  0  0  0  0
   -0.0688   10.4217    3.2117 C   0  0  0  0  0  0  0  0  0  0  0  0
   -0.4119    9.7338    4.3556 O   0  0  0  0  0  0  0  0  0  0  0  0
  1  2  1  0
  1  3  2  0
  2  4  1  0
  4  5  1  0
  5  6  1  0
M  END
>  <ID>  (1) 
conformer_0

$$$$
