
     RDKit          3D

  9  9  0  0  0  0  0  0  0  0999 V2000
   -0.5230   10.2430    4.4380 N   0  0  0  0  0  0  0  0  0  0  0  0
   -0.0531   11.1551    3.6415 C   0  0  0  0  0  0  0  0  0  0  0  0
   -0.2609   11.1350    2.3722 C   0  0  0  0  0  0  0  0  0  0  0  0
    0.0822   12.2586    1.6306 C   0  0  0  0  0  0  0  0  0  0  0  0
    0.7361   12.2669    4.0608 N   0  0  0  0  0  0  0  0  0  0  0  0
    0.7721   13.3266    2.0878 C   0  0  0  0  0  0  0  0  0  0  0  0
    1.0280   13.2646    3.4547 C   0  0  0  0  0  0  0  0  0  0  0  0
   -0.2335   12.2532    0.1523 C   0  0  0  0  0  0  0  0  0  0  0  0
    1.0954   14.4453    1.3753 N   0  0  0  0  0  0  0  0  0  0  0  0
  1  2  1  0
  2  3  1  0
  3  4  2  0
  2  5  2  0
  4  6  1  0
  5  7  1  0
  6  7  2  0
  4  8  1  0
  6  9  1  0
M  END
>  <ID>  (1) 
conformer_0

$$$$
