
     RDKit          3D

 12 13  0  0  0  0  0  0  0  0999 V2000
   -0.4230   11.6748    3.4060 C   0  0  0  0  0  0  0  0  0  0  0  0
    0.4378   12.7450    3.2916 C   0  0  0  0  0  0  0  0  0  0  0  0
    0.6063   13.3665    2.0454 C   0  0  0  0  0  0  0  0  0  0  0  0
    0.2178   12.7787    0.9553 C   0  0  0  0  0  0  0  0  0  0  0  0
   -0.6251   11.6323    1.0184 C   0  0  0  0  0  0  0  0  0  0  0  0
   -1.1182   10.9961   -0.1709 C   0  0  0  0  0  0  0  0  0  0  0  0
   -1.6849    9.8547   -0.1058 N   0  0  0  0  0  0  0  0  0  0  0  0
   -0.9010   11.0114    2.2300 C   0  0  0  0  0  0  0  0  0  0  0  0
   -2.1924    9.0927   -1.1324 C   0  0  0  0  0  0  0  0  0  0  0  0
   -1.6933    9.4435   -2.3519 C   0  0  0  0  0  0  0  0  0  0  0  0
   -0.9293   10.5668   -2.5734 C   0  0  0  0  0  0  0  0  0  0  0  0
   -0.5003   11.3398   -1.5260 C   0  0  0  0  0  0  0  0  0  0  0  0
  1  2  1  0
  2  3  2  0
  3  4  1  0
  4  5  2  0
  5  6  1  0
  6  7  2  0
  1  8  2  0
  5  8  1  0
  7  9  1  0
  9 10  2  0
 10 11  1  0
  6 12  1  0
 11 12  2  0
M  END
>  <ID>  (1) 
conformer_0

$$$$
