
     RDKit          3D

 11 12  0  0  0  0  0  0  0  0999 V2000
   -1.1984   10.9150    3.4075 N   0  0  0  0  0  0  0  0  0  0  0  0
   -0.3797   11.6960    2.5906 C   0  0  0  0  0  0  0  0  0  0  0  0
   -0.5740   11.9028    1.3040 C   0  0  0  0  0  0  0  0  0  0  0  0
   -1.3039    9.6948    3.1466 C   0  0  0  0  0  0  0  0  0  0  0  0
   -1.3813   10.9617    0.6846 C   0  0  0  0  0  0  0  0  0  0  0  0
    0.3968   12.8184    3.3259 C   0  0  0  0  0  0  0  0  0  0  0  0
    1.0258   13.7241    2.4967 C   0  0  0  0  0  0  0  0  0  0  0  0
    0.1703   12.8207    0.5556 C   0  0  0  0  0  0  0  0  0  0  0  0
    0.9055   13.7841    1.1639 C   0  0  0  0  0  0  0  0  0  0  0  0
   -1.7794    8.8391    3.7713 O   0  0  0  0  0  0  0  0  0  0  0  0
   -1.5524    9.6754    1.4865 C   0  0  0  0  0  0  0  0  0  0  0  0
  1  2  1  0
  2  3  2  0
  1  4  1  0
  3  5  1  0
  2  6  1  0
  6  7  2  0
  3  8  1  0
  7  9  1  0
  8  9  2  0
  4 10  2  0
  4 11  1  0
  5 11  1  0
M  END
>  <ID>  (1) 
conformer_0

$$$$
