
     RDKit          3D

  9  9  0  0  0  0  0  0  0  0999 V2000
   -0.2991   11.9241    3.7838 C   0  0  0  0  0  0  0  0  0  0  0  0
    0.5709   12.8812    3.2809 C   0  0  0  0  0  0  0  0  0  0  0  0
    0.5420   13.1779    1.9300 C   0  0  0  0  0  0  0  0  0  0  0  0
   -0.9267   11.0564    2.9168 C   0  0  0  0  0  0  0  0  0  0  0  0
   -0.0857   12.5282    1.0945 C   0  0  0  0  0  0  0  0  0  0  0  0
   -0.8329   11.3249    1.5992 C   0  0  0  0  0  0  0  0  0  0  0  0
    0.0132   12.7721   -0.3906 C   0  0  0  0  0  0  0  0  0  0  0  0
    0.6820   13.8292   -0.7468 C   0  0  0  0  0  0  0  0  0  0  0  0
    0.8958   14.0095   -2.1245 C   0  0  0  0  0  0  0  0  0  0  0  0
  1  2  2  0
  2  3  1  0
  1  4  1  0
  3  5  2  0
  4  6  2  0
  5  6  1  0
  5  7  1  0
  7  8  2  3
  8  9  1  0
M  END
>  <ID>  (1) 
conformer_0

$$$$
