
     RDKit          3D

  9  9  0  0  0  0  0  0  0  0999 V2000
    0.4194   12.6462    3.4452 C   0  0  0  0  0  0  0  0  0  0  0  0
    0.9451   13.5861    2.7123 C   0  0  0  0  0  0  0  0  0  0  0  0
   -0.0334   11.4705    2.8596 C   0  0  0  0  0  0  0  0  0  0  0  0
   -0.1847   11.4188    1.4541 C   0  0  0  0  0  0  0  0  0  0  0  0
   -0.4629   10.3691    3.6002 C   0  0  0  0  0  0  0  0  0  0  0  0
    0.7192   13.6895    1.3394 C   0  0  0  0  0  0  0  0  0  0  0  0
   -0.7429    9.1910    3.0520 N   0  0  0  0  0  0  0  0  0  0  0  0
    0.2333   12.5825    0.7009 C   0  0  0  0  0  0  0  0  0  0  0  0
   -1.0570    8.1618    3.8540 O   0  0  0  0  0  0  0  0  0  0  0  0
  1  2  2  0
  1  3  1  0
  3  4  2  0
  3  5  1  0
  2  6  1  0
  5  7  2  3
  4  8  1  0
  6  8  2  0
  7  9  1  0
M  END
>  <ID>  (1) 
conformer_0

$$$$
