
     RDKit          3D

 10 10  0  0  0  0  0  0  0  0999 V2000
   -0.0212    9.8528    3.7910 C   0  0  0  0  0  0  0  0  0  0  0  0
   -0.2316   10.8854    3.0303 C   0  0  0  0  0  0  0  0  0  0  0  0
   -0.7394    8.7521    3.6047 C   0  0  0  0  0  0  0  0  0  0  0  0
   -0.9776   10.8082    1.8345 C   0  0  0  0  0  0  0  0  0  0  0  0
   -1.0805   11.9145    0.9199 O   0  0  0  0  0  0  0  0  0  0  0  0
   -1.5444    8.5876    2.4886 C   0  0  0  0  0  0  0  0  0  0  0  0
   -1.6738    9.5882    1.6523 C   0  0  0  0  0  0  0  0  0  0  0  0
    0.3449   12.2118    3.2333 C   0  0  0  0  0  0  0  0  0  0  0  0
   -0.6344   11.8022   -0.2357 C   0  0  0  0  0  0  0  0  0  0  0  0
    1.0943   12.9035    2.3054 N   0  0  0  0  0  0  0  0  0  0  0  0
  1  2  1  0
  1  3  2  0
  2  4  2  0
  4  5  1  0
  3  6  1  0
  4  7  1  0
  6  7  2  0
  2  8  1  0
  5  9  1  0
  8 10  1  0
M  END
>  <ID>  (1) 
conformer_0

$$$$
