
     RDKit          3D

 10 11  0  0  0  0  0  0  0  0999 V2000
    1.1610   14.3164    1.9913 N   0  0  0  0  0  0  0  0  0  0  0  0
    0.9385   13.5744    3.1143 C   0  0  0  0  0  0  0  0  0  0  0  0
    0.5002   12.2397    2.8157 C   0  0  0  0  0  0  0  0  0  0  0  0
    0.0214   11.2424    3.7906 C   0  0  0  0  0  0  0  0  0  0  0  0
    0.2161   12.2751    1.4090 C   0  0  0  0  0  0  0  0  0  0  0  0
   -0.3943   10.0213    3.3085 C   0  0  0  0  0  0  0  0  0  0  0  0
   -0.4906    9.7611    1.8880 C   0  0  0  0  0  0  0  0  0  0  0  0
   -0.3815   10.9919    1.0726 C   0  0  0  0  0  0  0  0  0  0  0  0
    0.6366   13.4311    0.9429 C   0  0  0  0  0  0  0  0  0  0  0  0
    0.5414   13.8500   -0.2617 O   0  0  0  0  0  0  0  0  0  0  0  0
  1  2  1  0
  2  3  2  0
  3  4  1  0
  3  5  1  0
  4  6  2  0
  6  7  1  0
  5  8  1  0
  7  8  2  0
  1  9  1  0
  5  9  1  0
  9 10  2  0
M  END
>  <ID>  (1) 
conformer_0

$$$$
