
     RDKit          3D

 11 12  0  0  0  0  0  0  0  0999 V2000
    0.0040   12.4787    3.8802 C   0  0  0  0  0  0  0  0  0  0  0  0
   -0.5589   11.3757    3.4048 C   0  0  0  0  0  0  0  0  0  0  0  0
   -1.2009   10.3662    4.1368 C   0  0  0  0  0  0  0  0  0  0  0  0
   -0.9332   11.5711    1.9302 C   0  0  0  0  0  0  0  0  0  0  0  0
   -0.1558   12.4499    1.1457 C   0  0  0  0  0  0  0  0  0  0  0  0
   -0.2082   12.4517   -0.2020 C   0  0  0  0  0  0  0  0  0  0  0  0
    0.7288   13.3708    1.8702 C   0  0  0  0  0  0  0  0  0  0  0  0
    0.5574   13.5985   -0.7673 C   0  0  0  0  0  0  0  0  0  0  0  0
   -2.1085    9.7189    3.6571 O   0  0  0  0  0  0  0  0  0  0  0  0
    0.7648   13.2730    3.1812 C   0  0  0  0  0  0  0  0  0  0  0  0
    1.1956   14.2548    0.9221 N   0  0  0  0  0  0  0  0  0  0  0  0
  1  2  1  0
  2  3  1  0
  2  4  2  0
  4  5  1  0
  5  6  2  0
  5  7  1  0
  6  8  1  0
  3  9  1  0
  1 10  2  0
  7 10  1  0
  7 11  1  0
  8 11  2  0
M  END
>  <ID>  (1) 
conformer_0

$$$$
