
     RDKit          3D

 11 12  0  0  0  0  0  0  0  0999 V2000
   -1.1984   10.9150    3.4075 N   0  0  0  0  0  0  0  0  0  0  0  0
   -0.3797   11.6960    2.5906 C   0  0  0  0  0  0  0  0  0  0  0  0
   -0.5740   11.9028    1.3040 C   0  0  0  0  0  0  0  0  0  0  0  0
   -1.3039    9.6948    3.1466 C   0  0  0  0  0  0  0  0  0  0  0  0
   -1.3813   10.9617    0.6846 C   0  0  0  0  0  0  0  0  0  0  0  0
    0.1252   12.8733    0.6493 C   0  0  0  0  0  0  0  0  0  0  0  0
   -1.9030    8.8116    3.8146 O   0  0  0  0  0  0  0  0  0  0  0  0
    0.4709   12.6843    3.3431 C   0  0  0  0  0  0  0  0  0  0  0  0
    1.0299   13.6964    2.5525 C   0  0  0  0  0  0  0  0  0  0  0  0
   -1.6759    9.6932    1.5252 C   0  0  0  0  0  0  0  0  0  0  0  0
    0.9318   13.7528    1.2682 C   0  0  0  0  0  0  0  0  0  0  0  0
  1  2  1  0
  2  3  2  0
  1  4  1  0
  3  5  1  0
  3  6  1  0
  4  7  1  0
  2  8  1  0
  8  9  2  0
  4 10  1  0
  5 10  1  0
  6 11  2  0
  9 11  1  0
M  END
>  <ID>  (1) 
conformer_0

$$$$
