
     RDKit          3D

 10 10  0  0  0  0  0  0  0  0999 V2000
    0.4555   12.5025    3.4484 C   0  0  0  0  0  0  0  0  0  0  0  0
    0.9595   13.5120    2.7497 C   0  0  0  0  0  0  0  0  0  0  0  0
   -0.2251   11.4741    2.8647 C   0  0  0  0  0  0  0  0  0  0  0  0
    0.8537   13.6512    1.4191 C   0  0  0  0  0  0  0  0  0  0  0  0
    0.1321   12.6221    0.7462 C   0  0  0  0  0  0  0  0  0  0  0  0
   -0.4328   11.5181    1.5431 C   0  0  0  0  0  0  0  0  0  0  0  0
   -0.0122   12.6299   -0.6437 C   0  0  0  0  0  0  0  0  0  0  0  0
   -0.7994   10.4063    3.6189 N   0  0  0  0  0  0  0  0  0  0  0  0
    0.5768   13.5611   -1.3972 O   0  0  0  0  0  0  0  0  0  0  0  0
   -0.7460   11.9530   -1.5777 O   0  0  0  0  0  0  0  0  0  0  0  0
  1  2  2  0
  1  3  1  0
  2  4  1  0
  4  5  2  0
  3  6  2  0
  5  6  1  0
  5  7  1  0
  3  8  1  0
  7  9  1  0
  7 10  2  0
M  END
>  <ID>  (1) 
conformer_0

$$$$
