
     RDKit          3D

 11 12  0  0  0  0  0  0  0  0999 V2000
    1.3622   14.6061    1.5175 N   0  0  0  0  0  0  0  0  0  0  0  0
    0.7474   13.5909    2.1172 C   0  0  0  0  0  0  0  0  0  0  0  0
    0.7254   13.4711    3.4820 C   0  0  0  0  0  0  0  0  0  0  0  0
    0.1288   12.1313    3.7389 C   0  0  0  0  0  0  0  0  0  0  0  0
    0.2701   12.6206    1.1981 C   0  0  0  0  0  0  0  0  0  0  0  0
    0.2914   12.7275   -0.2656 C   0  0  0  0  0  0  0  0  0  0  0  0
   -0.2540   11.7401   -0.9570 C   0  0  0  0  0  0  0  0  0  0  0  0
   -0.9867   10.8132    0.0856 C   0  0  0  0  0  0  0  0  0  0  0  0
   -0.4486   11.2711    2.8135 C   0  0  0  0  0  0  0  0  0  0  0  0
   -0.4980   11.5264    1.4596 C   0  0  0  0  0  0  0  0  0  0  0  0
   -1.0496   10.1542    3.3198 N   0  0  0  0  0  0  0  0  0  0  0  0
  1  2  1  0
  2  3  1  0
  3  4  2  0
  2  5  2  0
  5  6  1  0
  6  7  2  0
  7  8  1  0
  4  9  1  0
  5 10  1  0
  8 10  2  0
  9 10  1  0
  9 11  1  0
M  END
>  <ID>  (1) 
conformer_0

$$$$
