
     RDKit          3D

  8  8  0  0  0  0  0  0  0  0999 V2000
    0.0953   10.8153    3.3781 C   0  0  0  0  0  0  0  0  0  0  0  0
    0.0668   11.7570    2.5600 C   0  0  0  0  0  0  0  0  0  0  0  0
   -0.7733    9.8809    3.3220 C   0  0  0  0  0  0  0  0  0  0  0  0
   -0.4928   11.5906    1.2804 C   0  0  0  0  0  0  0  0  0  0  0  0
   -1.2572   10.5472    1.0719 C   0  0  0  0  0  0  0  0  0  0  0  0
   -1.4808    9.6511    2.0854 C   0  0  0  0  0  0  0  0  0  0  0  0
    0.8495   13.0903    2.7371 C   0  0  0  0  0  0  0  0  0  0  0  0
    0.9835   14.0167    1.7986 N   0  0  0  0  0  0  0  0  0  0  0  0
  1  2  1  0
  1  3  2  0
  2  4  2  0
  4  5  1  0
  3  6  1  0
  5  6  2  0
  2  7  1  0
  7  8  2  0
M  END
>  <ID>  (1) 
conformer_0

$$$$
