
     RDKit          3D

 11 11  0  0  0  0  0  0  0  0999 V2000
   -0.0212    9.8528    3.7910 C   0  0  0  0  0  0  0  0  0  0  0  0
   -0.2316   10.8854    3.0303 C   0  0  0  0  0  0  0  0  0  0  0  0
   -1.0500   10.9687    2.0586 C   0  0  0  0  0  0  0  0  0  0  0  0
   -0.6694    8.7737    3.4947 C   0  0  0  0  0  0  0  0  0  0  0  0
    0.4297   12.2712    3.3801 C   0  0  0  0  0  0  0  0  0  0  0  0
   -1.6656    9.7852    1.6112 C   0  0  0  0  0  0  0  0  0  0  0  0
    0.8813   13.1366    2.4018 C   0  0  0  0  0  0  0  0  0  0  0  0
   -2.5813    9.7001    0.5113 O   0  0  0  0  0  0  0  0  0  0  0  0
    1.1528   14.2694    2.5268 O   0  0  0  0  0  0  0  0  0  0  0  0
   -1.4927    8.6350    2.4095 C   0  0  0  0  0  0  0  0  0  0  0  0
    1.0647   12.6001    1.1787 N   0  0  0  0  0  0  0  0  0  0  0  0
  1  2  1  0
  2  3  2  0
  1  4  2  0
  2  5  1  0
  3  6  1  0
  5  7  1  0
  6  8  1  0
  7  9  2  0
  4 10  1  0
  6 10  2  0
  7 11  1  0
M  END
>  <ID>  (1) 
conformer_0

$$$$
