
     RDKit          3D

 10 10  0  0  0  0  0  0  0  0999 V2000
    0.4545   12.5641    2.9756 C   0  0  0  0  0  0  0  0  0  0  0  0
   -0.0776   11.8986    2.0120 C   0  0  0  0  0  0  0  0  0  0  0  0
   -0.0124   12.4821    0.6995 C   0  0  0  0  0  0  0  0  0  0  0  0
    1.0132   13.7564    2.8764 C   0  0  0  0  0  0  0  0  0  0  0  0
   -0.6869   10.5871    2.1904 C   0  0  0  0  0  0  0  0  0  0  0  0
   -1.0322   10.1763    3.4811 N   0  0  0  0  0  0  0  0  0  0  0  0
   -0.7148    9.5640    1.3568 N   0  0  0  0  0  0  0  0  0  0  0  0
   -0.5125   11.7951   -0.4026 N   0  0  0  0  0  0  0  0  0  0  0  0
    0.5623   13.7250    0.6447 C   0  0  0  0  0  0  0  0  0  0  0  0
    1.1011   14.3977    1.5969 C   0  0  0  0  0  0  0  0  0  0  0  0
  1  2  1  0
  2  3  2  0
  1  4  2  0
  2  5  1  0
  5  6  1  0
  5  7  2  0
  3  8  1  0
  3  9  1  0
  4 10  1  0
  9 10  2  0
M  END
>  <ID>  (1) 
conformer_0

$$$$
