
     RDKit          3D

  8  8  0  0  0  0  0  0  0  0999 V2000
    0.5413   13.0578    3.5257 C   0  0  0  0  0  0  0  0  0  0  0  0
   -0.0082   11.7976    3.2801 C   0  0  0  0  0  0  0  0  0  0  0  0
   -0.3897   10.9864    4.2804 N   0  0  0  0  0  0  0  0  0  0  0  0
    0.1098   11.3988    1.9577 N   0  0  0  0  0  0  0  0  0  0  0  0
    0.4907   12.5874    1.3210 N   0  0  0  0  0  0  0  0  0  0  0  0
    0.8696   13.6094    2.2365 C   0  0  0  0  0  0  0  0  0  0  0  0
    0.3103   12.7862   -0.0557 C   0  0  0  0  0  0  0  0  0  0  0  0
    1.1276   14.7764    1.9303 N   0  0  0  0  0  0  0  0  0  0  0  0
  1  2  1  0
  2  3  1  0
  2  4  2  0
  4  5  1  0
  1  6  1  0
  5  6  1  0
  5  7  1  0
  6  8  2  0
M  END
>  <ID>  (1) 
conformer_0

$$$$
