
     RDKit          3D

  8  8  0  0  0  0  0  0  0  0999 V2000
    1.1083   13.9237    2.5127 C   0  0  0  0  0  0  0  0  0  0  0  0
    0.5068   12.7237    2.1997 C   0  0  0  0  0  0  0  0  0  0  0  0
    0.2119   12.4355    1.0405 C   0  0  0  0  0  0  0  0  0  0  0  0
    0.4265   11.6283    3.2570 C   0  0  0  0  0  0  0  0  0  0  0  0
    0.4773   13.3439    0.0502 C   0  0  0  0  0  0  0  0  0  0  0  0
    1.3516   14.7891    1.6416 N   0  0  0  0  0  0  0  0  0  0  0  0
   -0.6979   11.5033    3.9983 N   0  0  0  0  0  0  0  0  0  0  0  0
    0.9736   14.5537    0.3452 C   0  0  0  0  0  0  0  0  0  0  0  0
  1  2  1  0
  2  3  2  0
  2  4  1  0
  3  5  1  0
  1  6  2  0
  4  7  1  0
  5  8  2  0
  6  8  1  0
M  END
>  <ID>  (1) 
conformer_0

$$$$
