
     RDKit          3D

 10 10  0  0  0  0  0  0  0  0999 V2000
   -0.2925   11.4181    3.8858 C   0  0  0  0  0  0  0  0  0  0  0  0
    0.4112   12.5274    3.4052 C   0  0  0  0  0  0  0  0  0  0  0  0
    0.4723   12.7824    2.0592 C   0  0  0  0  0  0  0  0  0  0  0  0
   -0.0901   11.8402    1.2080 C   0  0  0  0  0  0  0  0  0  0  0  0
   -0.7517   10.4787    3.0386 C   0  0  0  0  0  0  0  0  0  0  0  0
   -1.3600    9.2788    3.4789 C   0  0  0  0  0  0  0  0  0  0  0  0
    1.0821   14.0462    1.4219 C   0  0  0  0  0  0  0  0  0  0  0  0
   -0.7930    8.5328    4.2728 O   0  0  0  0  0  0  0  0  0  0  0  0
   -0.7774   10.7831    1.6537 C   0  0  0  0  0  0  0  0  0  0  0  0
   -2.4234    8.8156    2.9569 O   0  0  0  0  0  0  0  0  0  0  0  0
  1  2  1  0
  2  3  2  0
  3  4  1  0
  1  5  2  0
  5  6  1  0
  3  7  1  0
  6  8  2  0
  4  9  2  0
  5  9  1  0
  6 10  1  0
M  END
>  <ID>  (1) 
conformer_0

$$$$
