
     RDKit          3D

  9  9  0  0  0  0  0  0  0  0999 V2000
    0.4555   12.5025    3.4484 C   0  0  0  0  0  0  0  0  0  0  0  0
   -0.1749   11.4183    3.1221 C   0  0  0  0  0  0  0  0  0  0  0  0
    0.7695   13.5188    2.5204 C   0  0  0  0  0  0  0  0  0  0  0  0
   -0.5067   11.3045    1.6466 C   0  0  0  0  0  0  0  0  0  0  0  0
    1.3924   14.6484    2.9074 O   0  0  0  0  0  0  0  0  0  0  0  0
    0.5576   13.4812    1.2423 C   0  0  0  0  0  0  0  0  0  0  0  0
   -0.1301   12.2541    0.7650 C   0  0  0  0  0  0  0  0  0  0  0  0
   -0.6467   10.2730    3.9772 C   0  0  0  0  0  0  0  0  0  0  0  0
   -1.4962    9.4598    3.6082 N   0  0  0  0  0  0  0  0  0  0  0  0
  1  2  2  0
  1  3  1  0
  2  4  1  0
  3  5  1  0
  3  6  2  0
  4  7  2  0
  6  7  1  0
  2  8  1  0
  8  9  2  0
M  END
>  <ID>  (1) 
conformer_0

$$$$
