
     RDKit          3D

 11 12  0  0  0  0  0  0  0  0999 V2000
   -0.2925   11.4181    3.8858 C   0  0  0  0  0  0  0  0  0  0  0  0
   -0.7472   10.4667    3.3420 C   0  0  0  0  0  0  0  0  0  0  0  0
    0.2314   12.6120    3.1168 C   0  0  0  0  0  0  0  0  0  0  0  0
   -0.7866   10.3395    2.0032 C   0  0  0  0  0  0  0  0  0  0  0  0
   -0.3934   11.4372    1.1359 C   0  0  0  0  0  0  0  0  0  0  0  0
   -0.5313   11.4764   -0.1964 N   0  0  0  0  0  0  0  0  0  0  0  0
    0.2064   12.6452    1.7625 C   0  0  0  0  0  0  0  0  0  0  0  0
    0.7227   13.5399    0.9467 C   0  0  0  0  0  0  0  0  0  0  0  0
   -0.1453   12.4532   -0.9213 C   0  0  0  0  0  0  0  0  0  0  0  0
    1.3558   14.6445    1.4833 N   0  0  0  0  0  0  0  0  0  0  0  0
    0.4810   13.5414   -0.4149 C   0  0  0  0  0  0  0  0  0  0  0  0
  1  2  1  0
  1  3  2  0
  2  4  2  0
  4  5  1  0
  5  6  2  0
  3  7  1  0
  5  7  1  0
  7  8  2  0
  6  9  1  0
  8 10  1  0
  8 11  1  0
  9 11  2  0
M  END
>  <ID>  (1) 
conformer_0

$$$$
