
     RDKit          3D

 11 12  0  0  0  0  0  0  0  0999 V2000
   -0.4230   11.6748    3.4060 C   0  0  0  0  0  0  0  0  0  0  0  0
   -0.2980   11.6364    2.1794 C   0  0  0  0  0  0  0  0  0  0  0  0
   -1.0011   10.6919    1.4331 C   0  0  0  0  0  0  0  0  0  0  0  0
   -0.9988   10.7108    4.1816 C   0  0  0  0  0  0  0  0  0  0  0  0
   -0.9846   10.6957    0.0118 C   0  0  0  0  0  0  0  0  0  0  0  0
    0.3624   12.6895    1.3724 C   0  0  0  0  0  0  0  0  0  0  0  0
   -1.5856    9.6921    3.4525 C   0  0  0  0  0  0  0  0  0  0  0  0
   -1.6165    9.6518    2.0540 C   0  0  0  0  0  0  0  0  0  0  0  0
   -0.4206   11.8088   -0.6655 C   0  0  0  0  0  0  0  0  0  0  0  0
    0.2640   12.7982    0.0837 C   0  0  0  0  0  0  0  0  0  0  0  0
    1.0582   13.8774    2.0650 C   0  0  0  0  0  0  0  0  0  0  0  0
  1  2  2  0
  2  3  1  0
  1  4  1  0
  3  5  1  0
  2  6  1  0
  4  7  2  0
  3  8  2  0
  7  8  1  0
  5  9  2  0
  6 10  2  0
  9 10  1  0
  6 11  1  0
M  END
>  <ID>  (1) 
conformer_0

$$$$
