
     RDKit          3D

 11 11  0  0  0  0  0  0  0  0999 V2000
    0.2407   12.4948    3.7259 C   0  0  0  0  0  0  0  0  0  0  0  0
   -0.3684   11.4162    3.2947 C   0  0  0  0  0  0  0  0  0  0  0  0
   -0.8856   10.3308    4.0397 C   0  0  0  0  0  0  0  0  0  0  0  0
    0.7618   13.5083    2.8884 C   0  0  0  0  0  0  0  0  0  0  0  0
   -0.6217   11.3005    1.8001 C   0  0  0  0  0  0  0  0  0  0  0  0
    0.5599   13.4255    1.5119 C   0  0  0  0  0  0  0  0  0  0  0  0
   -0.0906   12.3320    0.9590 C   0  0  0  0  0  0  0  0  0  0  0  0
   -0.2849   12.2488   -0.5402 C   0  0  0  0  0  0  0  0  0  0  0  0
   -0.0494    9.5137    4.5373 O   0  0  0  0  0  0  0  0  0  0  0  0
   -1.9775    9.6974    3.7242 O   0  0  0  0  0  0  0  0  0  0  0  0
    1.0274   14.4046    0.7205 N   0  0  0  0  0  0  0  0  0  0  0  0
  1  2  2  0
  2  3  1  0
  1  4  1  0
  2  5  1  0
  4  6  2  0
  5  7  2  0
  6  7  1  0
  7  8  1  0
  3  9  2  0
  3 10  1  0
  6 11  1  0
M  END
>  <ID>  (1) 
conformer_0

$$$$
