
     RDKit          3D

 11 12  0  0  0  0  0  0  0  0999 V2000
    1.1610   14.3164    1.9913 N   0  0  0  0  0  0  0  0  0  0  0  0
    0.9385   13.5744    3.1143 C   0  0  0  0  0  0  0  0  0  0  0  0
    1.3525   13.9221    0.8558 C   0  0  0  0  0  0  0  0  0  0  0  0
    0.1056   12.3482    2.8695 C   0  0  0  0  0  0  0  0  0  0  0  0
   -0.3709   11.4511    3.8321 C   0  0  0  0  0  0  0  0  0  0  0  0
    0.0437   12.0044    1.4331 C   0  0  0  0  0  0  0  0  0  0  0  0
   -0.9988   10.4334    3.4883 C   0  0  0  0  0  0  0  0  0  0  0  0
    0.5412   12.8029    0.4093 C   0  0  0  0  0  0  0  0  0  0  0  0
   -0.7456   10.8201    1.2938 C   0  0  0  0  0  0  0  0  0  0  0  0
   -1.0703   10.4826   -0.0731 N   0  0  0  0  0  0  0  0  0  0  0  0
   -1.1596   10.1919    2.1580 N   0  0  0  0  0  0  0  0  0  0  0  0
  1  2  1  0
  1  3  2  0
  2  4  2  0
  4  5  1  0
  4  6  1  0
  5  7  2  0
  3  8  1  0
  6  8  1  0
  6  9  1  0
  9 10  1  0
  7 11  1  0
  9 11  2  0
M  END
>  <ID>  (1) 
conformer_0

$$$$
