
     RDKit          3D

 10 10  0  0  0  0  0  0  0  0999 V2000
   -0.4230   11.6748    3.4060 C   0  0  0  0  0  0  0  0  0  0  0  0
    0.4378   12.7450    3.2916 C   0  0  0  0  0  0  0  0  0  0  0  0
    0.7560   13.2220    2.0487 C   0  0  0  0  0  0  0  0  0  0  0  0
   -0.8975   11.0633    2.2349 C   0  0  0  0  0  0  0  0  0  0  0  0
    0.1875   12.5792    0.9376 C   0  0  0  0  0  0  0  0  0  0  0  0
   -0.6350   11.4905    1.0433 C   0  0  0  0  0  0  0  0  0  0  0  0
    1.5843   14.4751    1.8971 N   0  0  0  0  0  0  0  0  0  0  0  0
   -1.5490    9.8087    2.5330 C   0  0  0  0  0  0  0  0  0  0  0  0
   -2.3700    9.4355    1.7101 O   0  0  0  0  0  0  0  0  0  0  0  0
   -1.1529    8.9518    3.4288 O   0  0  0  0  0  0  0  0  0  0  0  0
  1  2  1  0
  2  3  2  0
  1  4  2  0
  3  5  1  0
  4  6  1  0
  5  6  2  0
  3  7  1  0
  4  8  1  0
  8  9  2  0
  8 10  1  0
M  END
>  <ID>  (1) 
conformer_0

$$$$
