
     RDKit          3D

 10 10  0  0  0  0  0  0  0  0999 V2000
   -0.4230   11.6748    3.4060 C   0  0  0  0  0  0  0  0  0  0  0  0
   -0.2980   11.6364    2.1794 C   0  0  0  0  0  0  0  0  0  0  0  0
    0.2968   12.6736    1.3982 C   0  0  0  0  0  0  0  0  0  0  0  0
    0.2913   12.6522    0.0465 N   0  0  0  0  0  0  0  0  0  0  0  0
    0.9893   13.7428    2.0340 C   0  0  0  0  0  0  0  0  0  0  0  0
    0.7440   13.6872   -0.7060 C   0  0  0  0  0  0  0  0  0  0  0  0
    1.2913   14.7212    0.1587 N   0  0  0  0  0  0  0  0  0  0  0  0
    0.6963   13.7240   -2.0873 C   0  0  0  0  0  0  0  0  0  0  0  0
    1.4255   14.7146    1.3465 N   0  0  0  0  0  0  0  0  0  0  0  0
   -1.0163   10.5392    4.0979 N   0  0  0  0  0  0  0  0  0  0  0  0
  1  2  2  3
  2  3  1  0
  3  4  1  0
  3  5  2  0
  4  6  2  0
  6  7  1  0
  6  8  1  0
  5  9  1  0
  7  9  2  0
  1 10  1  0
M  END
>  <ID>  (1) 
conformer_0

$$$$
