
     RDKit          3D

  6  5  0  0  0  0  0  0  0  0999 V2000
    1.1610   13.8738    2.6906 C   0  0  0  0  0  0  0  0  0  0  0  0
    0.6189   12.6543    2.3059 C   0  0  0  0  0  0  0  0  0  0  0  0
   -0.1572   11.8834    3.3254 C   0  0  0  0  0  0  0  0  0  0  0  0
   -0.6741   10.6179    3.0366 C   0  0  0  0  0  0  0  0  0  0  0  0
    1.5165   14.6670    1.5480 N   0  0  0  0  0  0  0  0  0  0  0  0
   -0.8577    9.7713    4.0423 O   0  0  0  0  0  0  0  0  0  0  0  0
  1  2  1  0
  2  3  1  0
  3  4  1  0
  1  5  1  0
  4  6  1  0
M  END
>  <ID>  (1) 
conformer_0

$$$$
