
     RDKit          3D

 10 10  0  0  0  0  0  0  0  0999 V2000
   -1.1984   10.9150    3.4075 N   0  0  0  0  0  0  0  0  0  0  0  0
   -0.3797   11.6960    2.5906 C   0  0  0  0  0  0  0  0  0  0  0  0
   -0.5740   11.9028    1.3040 C   0  0  0  0  0  0  0  0  0  0  0  0
   -1.3039    9.6948    3.1466 C   0  0  0  0  0  0  0  0  0  0  0  0
   -2.5009    9.1954    3.2592 O   0  0  0  0  0  0  0  0  0  0  0  0
   -0.4599    8.8723    2.3769 C   0  0  0  0  0  0  0  0  0  0  0  0
    0.4679   12.7888    3.1859 C   0  0  0  0  0  0  0  0  0  0  0  0
    1.1097   13.6927    2.4993 C   0  0  0  0  0  0  0  0  0  0  0  0
    0.1571   12.7732    0.4975 C   0  0  0  0  0  0  0  0  0  0  0  0
    0.9207   13.7272    1.1110 C   0  0  0  0  0  0  0  0  0  0  0  0
  1  2  1  0
  2  3  2  0
  1  4  1  0
  4  5  2  0
  4  6  1  0
  2  7  1  0
  7  8  2  0
  3  9  1  0
  8 10  1  0
  9 10  2  0
M  END
>  <ID>  (1) 
conformer_0

$$$$
