
     RDKit          3D

  7  7  0  0  0  0  0  0  0  0999 V2000
   -0.2991   11.9241    3.7838 C   0  0  0  0  0  0  0  0  0  0  0  0
   -0.8495   10.9931    3.2040 C   0  0  0  0  0  0  0  0  0  0  0  0
    0.5046   12.8760    2.9352 C   0  0  0  0  0  0  0  0  0  0  0  0
    0.4450   12.8478    1.6164 C   0  0  0  0  0  0  0  0  0  0  0  0
   -0.2856   11.9566    1.0775 C   0  0  0  0  0  0  0  0  0  0  0  0
    1.0833   14.0417    0.8391 C   0  0  0  0  0  0  0  0  0  0  0  0
   -0.9174   10.9144    1.7678 C   0  0  0  0  0  0  0  0  0  0  0  0
  1  2  1  0
  1  3  2  0
  3  4  1  0
  4  5  2  0
  4  6  1  0
  2  7  2  0
  5  7  1  0
M  END
>  <ID>  (1) 
conformer_0

$$$$
