
     RDKit          3D

 10 11  0  0  0  0  0  0  0  0999 V2000
    1.1083   13.9237    2.5127 C   0  0  0  0  0  0  0  0  0  0  0  0
    0.5068   12.7237    2.1997 C   0  0  0  0  0  0  0  0  0  0  0  0
    0.2119   12.4355    1.0405 C   0  0  0  0  0  0  0  0  0  0  0  0
    1.4582   14.7656    1.5660 N   0  0  0  0  0  0  0  0  0  0  0  0
   -0.4848   11.1792    0.7541 C   0  0  0  0  0  0  0  0  0  0  0  0
    0.4498   13.3707    0.0002 C   0  0  0  0  0  0  0  0  0  0  0  0
    1.0929   14.3926    0.2662 C   0  0  0  0  0  0  0  0  0  0  0  0
   -0.9338   10.4290    1.8734 C   0  0  0  0  0  0  0  0  0  0  0  0
   -0.4841   10.9585    3.1889 C   0  0  0  0  0  0  0  0  0  0  0  0
    0.1117   11.8827    3.4869 C   0  0  0  0  0  0  0  0  0  0  0  0
  1  2  1  0
  2  3  2  0
  1  4  2  0
  3  5  1  0
  3  6  1  0
  4  7  1  0
  6  7  2  0
  5  8  2  0
  8  9  1  0
  2 10  1  0
  9 10  2  0
M  END
>  <ID>  (1) 
conformer_0

$$$$
