
     RDKit          3D

 11 12  0  0  0  0  0  0  0  0999 V2000
    1.1610   14.3164    1.9913 N   0  0  0  0  0  0  0  0  0  0  0  0
    0.9385   13.5744    3.1143 C   0  0  0  0  0  0  0  0  0  0  0  0
    1.3525   13.9221    0.8558 C   0  0  0  0  0  0  0  0  0  0  0  0
    0.1056   12.3482    2.8695 C   0  0  0  0  0  0  0  0  0  0  0  0
   -0.3709   11.4511    3.8321 C   0  0  0  0  0  0  0  0  0  0  0  0
    0.0437   12.0044    1.4331 C   0  0  0  0  0  0  0  0  0  0  0  0
   -0.6112   10.1382    3.4593 C   0  0  0  0  0  0  0  0  0  0  0  0
   -0.8336    9.8559    2.0887 C   0  0  0  0  0  0  0  0  0  0  0  0
    0.3567   12.9789    0.5364 C   0  0  0  0  0  0  0  0  0  0  0  0
   -0.6330   10.6934    1.1457 C   0  0  0  0  0  0  0  0  0  0  0  0
   -1.7877    8.8467    1.8971 O   0  0  0  0  0  0  0  0  0  0  0  0
  1  2  1  0
  1  3  2  0
  2  4  2  0
  4  5  1  0
  4  6  1  0
  5  7  2  0
  7  8  1  0
  3  9  1  0
  6  9  1  0
  6 10  1  0
  8 10  1  0
  8 11  2  0
M  END
>  <ID>  (1) 
conformer_0

$$$$
