
     RDKit          3D

 11 12  0  0  0  0  0  0  0  0999 V2000
   -0.2991   11.9241    3.7838 C   0  0  0  0  0  0  0  0  0  0  0  0
   -0.8495   10.9931    3.2040 C   0  0  0  0  0  0  0  0  0  0  0  0
    0.4811   12.9486    2.9926 C   0  0  0  0  0  0  0  0  0  0  0  0
   -0.7284   11.0139    1.6844 C   0  0  0  0  0  0  0  0  0  0  0  0
    0.4918   12.9944    1.7090 C   0  0  0  0  0  0  0  0  0  0  0  0
   -0.1695   11.9764    1.0074 C   0  0  0  0  0  0  0  0  0  0  0  0
   -0.1401   12.0400   -0.5500 C   0  0  0  0  0  0  0  0  0  0  0  0
   -0.6669   10.9641   -1.1880 N   0  0  0  0  0  0  0  0  0  0  0  0
   -0.6556   11.0088   -2.5281 C   0  0  0  0  0  0  0  0  0  0  0  0
    0.3679   12.9215   -1.4543 C   0  0  0  0  0  0  0  0  0  0  0  0
    0.0692   12.3616   -2.6826 N   0  0  0  0  0  0  0  0  0  0  0  0
  1  2  2  0
  1  3  1  0
  2  4  1  0
  3  5  2  0
  4  6  2  0
  5  6  1  0
  6  7  1  0
  7  8  2  0
  8  9  1  0
  7 10  1  0
  9 11  2  0
 10 11  1  0
M  END
>  <ID>  (1) 
conformer_0

$$$$
