
     RDKit          3D

 11 11  0  0  0  0  0  0  0  0999 V2000
   -0.2078   11.4422    3.6442 C   0  0  0  0  0  0  0  0  0  0  0  0
    0.4492   12.5918    3.3115 C   0  0  0  0  0  0  0  0  0  0  0  0
   -0.7186   10.6769    2.6516 C   0  0  0  0  0  0  0  0  0  0  0  0
    0.5342   13.0953    2.0322 C   0  0  0  0  0  0  0  0  0  0  0  0
    1.1157   14.2734    1.6717 N   0  0  0  0  0  0  0  0  0  0  0  0
   -1.4012    9.3780    2.9771 C   0  0  0  0  0  0  0  0  0  0  0  0
   -0.7149   11.1667    1.2939 C   0  0  0  0  0  0  0  0  0  0  0  0
   -0.8945    8.6883    3.6130 O   0  0  0  0  0  0  0  0  0  0  0  0
   -0.1396   12.3718    1.0210 C   0  0  0  0  0  0  0  0  0  0  0  0
   -2.4464    9.0918    2.2857 N   0  0  0  0  0  0  0  0  0  0  0  0
   -0.0260   12.9494   -0.3588 C   0  0  0  0  0  0  0  0  0  0  0  0
  1  2  2  0
  1  3  1  0
  2  4  1  0
  4  5  1  0
  3  6  1  0
  3  7  2  0
  6  8  2  0
  4  9  2  0
  7  9  1  0
  6 10  1  0
  9 11  1  0
M  END
>  <ID>  (1) 
conformer_0

$$$$
