
     RDKit          3D

 11 12  0  0  0  0  0  0  0  0999 V2000
    0.6166   12.0534    2.9269 C   0  0  0  0  0  0  0  0  0  0  0  0
    0.3051   12.0313    1.7039 C   0  0  0  0  0  0  0  0  0  0  0  0
    0.2622   10.9749    3.6517 C   0  0  0  0  0  0  0  0  0  0  0  0
    1.2827   13.2670    3.2650 C   0  0  0  0  0  0  0  0  0  0  0  0
   -0.4711   10.9578    1.0859 C   0  0  0  0  0  0  0  0  0  0  0  0
   -0.3923    9.8808    3.2593 C   0  0  0  0  0  0  0  0  0  0  0  0
   -0.9287   10.8950   -0.2459 N   0  0  0  0  0  0  0  0  0  0  0  0
   -0.8215    9.8710    1.9053 C   0  0  0  0  0  0  0  0  0  0  0  0
    0.5432   13.1722    0.8266 C   0  0  0  0  0  0  0  0  0  0  0  0
    1.2405   14.1990    2.3533 C   0  0  0  0  0  0  0  0  0  0  0  0
    1.1011   14.2048    1.2022 N   0  0  0  0  0  0  0  0  0  0  0  0
  1  2  1  0
  1  3  2  0
  1  4  1  0
  2  5  2  0
  3  6  1  0
  5  7  1  0
  5  8  1  0
  6  8  2  0
  2  9  1  0
  4 10  2  0
  9 11  2  0
 10 11  1  0
M  END
>  <ID>  (1) 
conformer_0

$$$$
