
     RDKit          3D

  9  9  0  0  0  0  0  0  0  0999 V2000
   -1.1984   10.9150    3.4075 C   0  0  0  0  0  0  0  0  0  0  0  0
   -0.2043   11.8003    3.5106 C   0  0  0  0  0  0  0  0  0  0  0  0
   -1.5008   10.5407    2.0784 C   0  0  0  0  0  0  0  0  0  0  0  0
   -0.7843   11.1391    0.9968 C   0  0  0  0  0  0  0  0  0  0  0  0
   -1.1949   10.7786   -0.2592 N   0  0  0  0  0  0  0  0  0  0  0  0
   -0.0170   12.0178    1.0504 C   0  0  0  0  0  0  0  0  0  0  0  0
    0.4060   12.5121    2.4339 C   0  0  0  0  0  0  0  0  0  0  0  0
    1.3459   13.5405    2.6466 C   0  0  0  0  0  0  0  0  0  0  0  0
    0.5809   12.8320    0.0875 O   0  0  0  0  0  0  0  0  0  0  0  0
  1  2  1  0
  1  3  2  0
  3  4  1  0
  4  5  1  0
  4  6  2  0
  2  7  2  0
  6  7  1  0
  7  8  1  0
  6  9  1  0
M  END
>  <ID>  (1) 
conformer_0

$$$$
