
     RDKit          3D

  8  8  0  0  0  0  0  0  0  0999 V2000
    0.4555   12.5025    3.4484 C   0  0  0  0  0  0  0  0  0  0  0  0
   -0.1749   11.4183    3.1221 C   0  0  0  0  0  0  0  0  0  0  0  0
    0.7659   13.4617    2.4014 C   0  0  0  0  0  0  0  0  0  0  0  0
    0.4962   13.1663    1.0917 C   0  0  0  0  0  0  0  0  0  0  0  0
   -0.5576   11.0991    1.7529 C   0  0  0  0  0  0  0  0  0  0  0  0
   -0.1694   11.9689    0.7208 C   0  0  0  0  0  0  0  0  0  0  0  0
    0.9573   14.0712   -0.0243 C   0  0  0  0  0  0  0  0  0  0  0  0
   -0.6002   10.3563    4.0385 N   0  0  0  0  0  0  0  0  0  0  0  0
  1  2  2  0
  1  3  1  0
  3  4  2  0
  2  5  1  0
  4  6  1  0
  5  6  2  0
  4  7  1  0
  2  8  1  0
M  END
>  <ID>  (1) 
conformer_0

$$$$
