
     RDKit          3D

  9  9  0  0  0  0  0  0  0  0999 V2000
   -0.2078   11.4422    3.6442 C   0  0  0  0  0  0  0  0  0  0  0  0
    0.4492   12.5918    3.3115 C   0  0  0  0  0  0  0  0  0  0  0  0
   -0.5754   10.6816    2.7086 C   0  0  0  0  0  0  0  0  0  0  0  0
   -0.6166   11.0360    1.3470 C   0  0  0  0  0  0  0  0  0  0  0  0
    0.4606   13.0993    1.9966 C   0  0  0  0  0  0  0  0  0  0  0  0
   -1.1265   10.2432    0.3135 N   0  0  0  0  0  0  0  0  0  0  0  0
   -0.0620   12.3166    1.0124 C   0  0  0  0  0  0  0  0  0  0  0  0
    0.0768   12.7908   -0.3390 N   0  0  0  0  0  0  0  0  0  0  0  0
    1.0619   14.4006    1.6211 C   0  0  0  0  0  0  0  0  0  0  0  0
  1  2  1  0
  1  3  2  0
  3  4  1  0
  2  5  2  0
  4  6  1  0
  4  7  2  0
  5  7  1  0
  7  8  1  0
  5  9  1  0
M  END
>  <ID>  (1) 
conformer_0

$$$$
