
     RDKit          3D

  8  8  0  0  0  0  0  0  0  0999 V2000
    0.0040   12.4787    3.8802 C   0  0  0  0  0  0  0  0  0  0  0  0
   -0.5589   11.3757    3.4048 C   0  0  0  0  0  0  0  0  0  0  0  0
    0.6418   13.4200    3.0645 C   0  0  0  0  0  0  0  0  0  0  0  0
    0.6257   13.2934    1.6979 C   0  0  0  0  0  0  0  0  0  0  0  0
   -0.5897   11.1384    1.8953 C   0  0  0  0  0  0  0  0  0  0  0  0
    1.1759   14.1832    0.8118 N   0  0  0  0  0  0  0  0  0  0  0  0
   -0.0340   12.1305    1.0825 C   0  0  0  0  0  0  0  0  0  0  0  0
   -0.0674   12.0199   -0.3396 N   0  0  0  0  0  0  0  0  0  0  0  0
  1  2  2  0
  1  3  1  0
  3  4  2  0
  2  5  1  0
  4  6  1  0
  4  7  1  0
  5  7  2  0
  7  8  1  0
M  END
>  <ID>  (1) 
conformer_0

$$$$
