
     RDKit          3D

 11 12  0  0  0  0  0  0  0  0999 V2000
   -0.5230   10.2430    4.4380 N   0  0  0  0  0  0  0  0  0  0  0  0
   -0.0531   11.1551    3.6415 C   0  0  0  0  0  0  0  0  0  0  0  0
   -0.2609   11.1350    2.3722 C   0  0  0  0  0  0  0  0  0  0  0  0
    0.0822   12.2586    1.6306 C   0  0  0  0  0  0  0  0  0  0  0  0
    0.7361   12.2669    4.0608 N   0  0  0  0  0  0  0  0  0  0  0  0
    0.7721   13.3266    2.0878 C   0  0  0  0  0  0  0  0  0  0  0  0
   -0.2389   12.3925    0.1310 C   0  0  0  0  0  0  0  0  0  0  0  0
    0.2013   13.3927   -0.6149 C   0  0  0  0  0  0  0  0  0  0  0  0
    1.0369   13.2807    3.4502 C   0  0  0  0  0  0  0  0  0  0  0  0
    1.0958   14.3857    1.1656 C   0  0  0  0  0  0  0  0  0  0  0  0
    0.8420   14.4283   -0.0314 N   0  0  0  0  0  0  0  0  0  0  0  0
  1  2  1  0
  2  3  1  0
  3  4  2  0
  2  5  2  0
  4  6  1  0
  4  7  1  0
  7  8  2  0
  5  9  1  0
  6  9  2  0
  6 10  1  0
  8 11  1  0
 10 11  2  0
M  END
>  <ID>  (1) 
conformer_0

$$$$
