
     RDKit          3D

 11 12  0  0  0  0  0  0  0  0999 V2000
   -0.4230   11.6748    3.4060 C   0  0  0  0  0  0  0  0  0  0  0  0
   -0.2980   11.6364    2.1794 C   0  0  0  0  0  0  0  0  0  0  0  0
   -1.0011   10.6919    1.4331 C   0  0  0  0  0  0  0  0  0  0  0  0
   -0.9445   10.5107    0.1401 C   0  0  0  0  0  0  0  0  0  0  0  0
   -0.9242   10.4455    3.9235 N   0  0  0  0  0  0  0  0  0  0  0  0
   -1.7016    9.8146    2.3450 C   0  0  0  0  0  0  0  0  0  0  0  0
    0.4398   12.5460    4.2752 N   0  0  0  0  0  0  0  0  0  0  0  0
    0.3487   12.7315    1.3307 C   0  0  0  0  0  0  0  0  0  0  0  0
    0.1890   12.6826   -0.0571 C   0  0  0  0  0  0  0  0  0  0  0  0
   -0.4498   11.6291   -0.6415 C   0  0  0  0  0  0  0  0  0  0  0  0
    1.0064   13.8310    1.9969 N   0  0  0  0  0  0  0  0  0  0  0  0
  1  2  2  0
  2  3  1  0
  3  4  1  0
  1  5  1  0
  3  6  2  0
  5  6  2  0
  1  7  1  0
  2  8  1  0
  8  9  2  0
  4 10  2  0
  9 10  1  0
  8 11  1  0
M  END
>  <ID>  (1) 
conformer_0

$$$$
