
     RDKit          3D

 10 10  0  0  0  0  0  0  0  0999 V2000
    0.4545   12.5641    2.9756 C   0  0  0  0  0  0  0  0  0  0  0  0
   -0.0776   11.8986    2.0120 C   0  0  0  0  0  0  0  0  0  0  0  0
   -0.0124   12.4821    0.6995 C   0  0  0  0  0  0  0  0  0  0  0  0
    1.1082   13.8045    2.8920 C   0  0  0  0  0  0  0  0  0  0  0  0
   -0.7238   10.6176    2.2189 C   0  0  0  0  0  0  0  0  0  0  0  0
    1.0914   14.3706    1.5382 N   0  0  0  0  0  0  0  0  0  0  0  0
   -1.0809   10.3302    3.5883 N   0  0  0  0  0  0  0  0  0  0  0  0
   -1.8030   10.1450    1.5352 O   0  0  0  0  0  0  0  0  0  0  0  0
   -1.8555    8.8059    1.4601 C   0  0  0  0  0  0  0  0  0  0  0  0
    0.5591   13.6911    0.5491 C   0  0  0  0  0  0  0  0  0  0  0  0
  1  2  1  0
  2  3  2  0
  1  4  2  0
  2  5  1  0
  4  6  1  0
  5  7  1  0
  5  8  1  0
  8  9  1  0
  3 10  1  0
  6 10  2  0
M  END
>  <ID>  (1) 
conformer_0

$$$$
