
     RDKit          3D

 11 12  0  0  0  0  0  0  0  0999 V2000
    0.4194   12.6462    3.4452 C   0  0  0  0  0  0  0  0  0  0  0  0
   -0.1676   11.4978    3.1267 C   0  0  0  0  0  0  0  0  0  0  0  0
   -0.5146   10.4517    3.9911 C   0  0  0  0  0  0  0  0  0  0  0  0
   -1.1861    9.4064    3.6803 C   0  0  0  0  0  0  0  0  0  0  0  0
   -1.5200    9.0981    2.3799 C   0  0  0  0  0  0  0  0  0  0  0  0
    0.7571   13.5654    2.3793 C   0  0  0  0  0  0  0  0  0  0  0  0
   -0.7582   11.0683    1.7329 C   0  0  0  0  0  0  0  0  0  0  0  0
   -1.3691    9.8190    1.5172 C   0  0  0  0  0  0  0  0  0  0  0  0
    1.2609   14.6418    2.6200 O   0  0  0  0  0  0  0  0  0  0  0  0
   -0.3681   12.1539    0.7805 C   0  0  0  0  0  0  0  0  0  0  0  0
    0.2510   13.2434    1.0974 C   0  0  0  0  0  0  0  0  0  0  0  0
  1  2  2  0
  2  3  1  0
  3  4  2  0
  4  5  1  0
  1  6  1  0
  2  7  1  0
  5  8  2  0
  7  8  1  0
  6  9  1  0
  7 10  2  0
  6 11  2  0
 10 11  1  0
M  END
>  <ID>  (1) 
conformer_0

$$$$
