
     RDKit          3D

  9  9  0  0  0  0  0  0  0  0999 V2000
    1.1691   14.0730    1.6155 C   0  0  0  0  0  0  0  0  0  0  0  0
    0.6351   13.4289    0.6081 C   0  0  0  0  0  0  0  0  0  0  0  0
    0.0145   12.5090    0.6912 C   0  0  0  0  0  0  0  0  0  0  0  0
   -0.2649   11.9554    2.0790 C   0  0  0  0  0  0  0  0  0  0  0  0
    0.2364   12.6117    3.1852 C   0  0  0  0  0  0  0  0  0  0  0  0
    1.0164   13.7686    2.9628 C   0  0  0  0  0  0  0  0  0  0  0  0
   -0.8950   10.7255    2.3568 C   0  0  0  0  0  0  0  0  0  0  0  0
   -1.0327   10.2687    3.6352 N   0  0  0  0  0  0  0  0  0  0  0  0
   -1.7682   10.2044    1.4739 O   0  0  0  0  0  0  0  0  0  0  0  0
  1  2  1  0
  2  3  2  0
  3  4  1  0
  4  5  2  0
  1  6  2  0
  5  6  1  0
  4  7  1  0
  7  8  1  0
  7  9  2  0
M  END
>  <ID>  (1) 
conformer_0

$$$$
