
     RDKit          3D

 11 11  0  0  0  0  0  0  0  0999 V2000
    0.4555   12.5025    3.4484 C   0  0  0  0  0  0  0  0  0  0  0  0
   -0.1749   11.4183    3.1221 C   0  0  0  0  0  0  0  0  0  0  0  0
    0.8039   13.4865    2.4900 C   0  0  0  0  0  0  0  0  0  0  0  0
   -0.5380   11.1501    1.8374 C   0  0  0  0  0  0  0  0  0  0  0  0
   -1.2408    9.9654    1.3756 C   0  0  0  0  0  0  0  0  0  0  0  0
   -0.2217   12.2420    0.8267 C   0  0  0  0  0  0  0  0  0  0  0  0
    1.4262   14.6240    2.8488 F   0  0  0  0  0  0  0  0  0  0  0  0
    0.4404   13.3061    1.1738 C   0  0  0  0  0  0  0  0  0  0  0  0
   -1.7410    9.2055    2.3532 O   0  0  0  0  0  0  0  0  0  0  0  0
   -0.8557    9.1817    0.3860 O   0  0  0  0  0  0  0  0  0  0  0  0
    0.9916   14.1281    0.2605 N   0  0  0  0  0  0  0  0  0  0  0  0
  1  2  1  0
  1  3  2  0
  2  4  2  0
  4  5  1  0
  4  6  1  0
  3  7  1  0
  3  8  1  0
  6  8  2  0
  5  9  1  0
  5 10  2  0
  8 11  1  0
M  END
>  <ID>  (1) 
conformer_0

$$$$
