
     RDKit          3D

  9  9  0  0  0  0  0  0  0  0999 V2000
   -0.2396   11.6654    3.8423 C   0  0  0  0  0  0  0  0  0  0  0  0
    0.4938   12.7224    3.3304 C   0  0  0  0  0  0  0  0  0  0  0  0
    0.5636   12.9232    2.0012 C   0  0  0  0  0  0  0  0  0  0  0  0
   -0.1923   11.8852    1.3163 C   0  0  0  0  0  0  0  0  0  0  0  0
    1.1968   13.9440    1.2919 C   0  0  0  0  0  0  0  0  0  0  0  0
   -0.8869   10.7313    3.1969 C   0  0  0  0  0  0  0  0  0  0  0  0
    1.8348   14.6930    1.8153 N   0  0  0  0  0  0  0  0  0  0  0  0
    1.0329   13.9496   -0.0468 N   0  0  0  0  0  0  0  0  0  0  0  0
   -0.7693   10.8187    1.7558 C   0  0  0  0  0  0  0  0  0  0  0  0
  1  2  1  0
  2  3  2  0
  3  4  1  0
  3  5  1  0
  1  6  2  0
  5  7  1  0
  5  8  2  0
  4  9  2  0
  6  9  1  0
M  END
>  <ID>  (1) 
conformer_0

$$$$
