
     RDKit          3D

 11 11  0  0  0  0  0  0  0  0999 V2000
   -0.4230   11.6748    3.4060 C   0  0  0  0  0  0  0  0  0  0  0  0
    0.4378   12.7450    3.2916 C   0  0  0  0  0  0  0  0  0  0  0  0
   -0.8527   11.0602    2.2844 C   0  0  0  0  0  0  0  0  0  0  0  0
    0.6278   13.3975    2.0783 C   0  0  0  0  0  0  0  0  0  0  0  0
   -1.7281    9.8887    2.3569 C   0  0  0  0  0  0  0  0  0  0  0  0
   -2.0149    9.3008    3.3742 O   0  0  0  0  0  0  0  0  0  0  0  0
   -2.4139    9.5546    1.3562 O   0  0  0  0  0  0  0  0  0  0  0  0
    0.2881   12.9650    1.0095 C   0  0  0  0  0  0  0  0  0  0  0  0
   -0.5734   11.7160    1.0161 C   0  0  0  0  0  0  0  0  0  0  0  0
    0.5418   13.4962   -0.2128 C   0  0  0  0  0  0  0  0  0  0  0  0
    0.7968   13.9337   -1.1174 N   0  0  0  0  0  0  0  0  0  0  0  0
  1  2  2  0
  1  3  1  0
  2  4  1  0
  3  5  1  0
  5  6  1  0
  5  7  2  0
  4  8  2  0
  3  9  2  0
  8  9  1  0
  8 10  1  0
 10 11  3  0
M  END
>  <ID>  (1) 
conformer_0

$$$$
