
     RDKit          3D

 11 12  0  0  0  0  0  0  0  0999 V2000
   -1.1984   10.9150    3.4075 N   0  0  0  0  0  0  0  0  0  0  0  0
   -0.3797   11.6960    2.5906 C   0  0  0  0  0  0  0  0  0  0  0  0
   -0.5740   11.9028    1.3040 C   0  0  0  0  0  0  0  0  0  0  0  0
   -1.3039    9.6948    3.1466 C   0  0  0  0  0  0  0  0  0  0  0  0
   -1.3813   10.9617    0.6846 C   0  0  0  0  0  0  0  0  0  0  0  0
    0.1252   12.8733    0.6493 C   0  0  0  0  0  0  0  0  0  0  0  0
    0.4475   12.7521    3.4269 C   0  0  0  0  0  0  0  0  0  0  0  0
    1.0298   13.7183    2.5918 C   0  0  0  0  0  0  0  0  0  0  0  0
    0.9041   13.7771    1.2694 C   0  0  0  0  0  0  0  0  0  0  0  0
   -1.7410    9.7526    1.5562 C   0  0  0  0  0  0  0  0  0  0  0  0
   -2.1520    8.8838    3.7619 O   0  0  0  0  0  0  0  0  0  0  0  0
  1  2  1  0
  2  3  2  0
  1  4  1  0
  3  5  1  0
  3  6  1  0
  2  7  1  0
  7  8  2  0
  6  9  2  0
  8  9  1  0
  4 10  1  0
  5 10  2  0
  4 11  1  0
M  END
>  <ID>  (1) 
conformer_0

$$$$
