
     RDKit          3D

  8  8  0  0  0  0  0  0  0  0999 V2000
    0.4194   12.6462    3.4452 C   0  0  0  0  0  0  0  0  0  0  0  0
   -0.1676   11.4978    3.1267 C   0  0  0  0  0  0  0  0  0  0  0  0
    0.7903   13.5539    2.3718 C   0  0  0  0  0  0  0  0  0  0  0  0
    0.5904   13.2610    1.1028 C   0  0  0  0  0  0  0  0  0  0  0  0
   -0.1859   11.9092    0.9656 C   0  0  0  0  0  0  0  0  0  0  0  0
    0.8548   13.9995    0.0800 N   0  0  0  0  0  0  0  0  0  0  0  0
   -0.5221   11.1948    1.9038 C   0  0  0  0  0  0  0  0  0  0  0  0
   -0.5207   10.4464    4.1709 N   0  0  0  0  0  0  0  0  0  0  0  0
  1  2  2  0
  1  3  1  0
  3  4  2  0
  4  5  1  0
  4  6  1  0
  2  7  1  0
  5  7  2  0
  2  8  1  0
M  END
>  <ID>  (1) 
conformer_0

$$$$
