
     RDKit          3D

  8  8  0  0  0  0  0  0  0  0999 V2000
   -0.2396   11.6654    3.8423 C   0  0  0  0  0  0  0  0  0  0  0  0
    0.4938   12.7224    3.3304 C   0  0  0  0  0  0  0  0  0  0  0  0
    0.5636   12.9232    2.0012 C   0  0  0  0  0  0  0  0  0  0  0  0
   -0.1923   11.8852    1.3163 C   0  0  0  0  0  0  0  0  0  0  0  0
   -0.8775   10.8754    1.7512 C   0  0  0  0  0  0  0  0  0  0  0  0
   -0.9092   10.7439    3.1294 C   0  0  0  0  0  0  0  0  0  0  0  0
    1.2281   14.0577    1.3749 C   0  0  0  0  0  0  0  0  0  0  0  0
    0.9253   14.3694    0.0757 N   0  0  0  0  0  0  0  0  0  0  0  0
  1  2  1  0
  2  3  2  0
  3  4  1  0
  4  5  2  0
  1  6  2  0
  5  6  1  0
  3  7  1  0
  7  8  1  0
M  END
>  <ID>  (1) 
conformer_0

$$$$
