
     RDKit          3D

 11 12  0  0  0  0  0  0  0  0999 V2000
   -0.5230   10.2430    4.4380 N   0  0  0  0  0  0  0  0  0  0  0  0
   -0.0531   11.1551    3.6415 C   0  0  0  0  0  0  0  0  0  0  0  0
    0.5849   12.3050    3.9758 N   0  0  0  0  0  0  0  0  0  0  0  0
    0.8186   13.0804    2.8167 C   0  0  0  0  0  0  0  0  0  0  0  0
   -0.5078   10.8636    2.2680 C   0  0  0  0  0  0  0  0  0  0  0  0
    1.4332   14.3081    3.0638 N   0  0  0  0  0  0  0  0  0  0  0  0
    0.2511   12.7820    1.4335 C   0  0  0  0  0  0  0  0  0  0  0  0
   -0.2884   11.7677    1.3661 C   0  0  0  0  0  0  0  0  0  0  0  0
    0.5790   13.8882    0.6618 N   0  0  0  0  0  0  0  0  0  0  0  0
   -0.6758   11.7312   -0.0898 C   0  0  0  0  0  0  0  0  0  0  0  0
   -0.1284   12.9370   -0.8432 C   0  0  0  0  0  0  0  0  0  0  0  0
  1  2  1  0
  2  3  2  0
  3  4  1  0
  2  5  1  0
  4  6  2  0
  4  7  1  0
  5  8  1  0
  7  8  1  0
  7  9  2  0
  8 10  2  0
  9 11  1  0
 10 11  1  0
M  END
>  <ID>  (1) 
conformer_0

$$$$
