
     RDKit          3D

 11 12  0  0  0  0  0  0  0  0999 V2000
    0.6166   12.0534    2.9269 C   0  0  0  0  0  0  0  0  0  0  0  0
    0.3051   12.0313    1.7039 C   0  0  0  0  0  0  0  0  0  0  0  0
   -0.6007   11.1037    1.3182 C   0  0  0  0  0  0  0  0  0  0  0  0
   -1.0181   10.9207   -0.0744 C   0  0  0  0  0  0  0  0  0  0  0  0
    0.1770   11.1961    3.8995 C   0  0  0  0  0  0  0  0  0  0  0  0
    0.6571   13.0416    0.7834 C   0  0  0  0  0  0  0  0  0  0  0  0
    0.2072   12.9701   -0.5357 C   0  0  0  0  0  0  0  0  0  0  0  0
   -0.6359   11.9821   -0.9681 C   0  0  0  0  0  0  0  0  0  0  0  0
   -1.0125   10.0440    2.3395 C   0  0  0  0  0  0  0  0  0  0  0  0
   -0.6221   10.1779    3.5715 C   0  0  0  0  0  0  0  0  0  0  0  0
    1.4455   14.2875    1.1982 N   0  0  0  0  0  0  0  0  0  0  0  0
  1  2  1  0
  2  3  2  0
  3  4  1  0
  1  5  2  0
  2  6  1  0
  6  7  2  0
  4  8  2  0
  7  8  1  0
  3  9  1  0
  5 10  1  0
  9 10  2  0
  6 11  1  0
M  END
>  <ID>  (1) 
conformer_0

$$$$
