
     RDKit          3D

 11 12  0  0  0  0  0  0  0  0999 V2000
    1.1221   14.1326    0.8286 C   0  0  0  0  0  0  0  0  0  0  0  0
    0.8051   13.2268    1.8129 C   0  0  0  0  0  0  0  0  0  0  0  0
    0.0130   12.0781    1.5923 C   0  0  0  0  0  0  0  0  0  0  0  0
    0.7544   13.7263   -0.4209 C   0  0  0  0  0  0  0  0  0  0  0  0
   -0.4239   11.8497    0.3277 C   0  0  0  0  0  0  0  0  0  0  0  0
   -0.4238   11.1783    2.7977 C   0  0  0  0  0  0  0  0  0  0  0  0
   -1.2805   10.7038    0.0496 C   0  0  0  0  0  0  0  0  0  0  0  0
   -0.1333   12.6961   -0.7406 C   0  0  0  0  0  0  0  0  0  0  0  0
   -0.0180   11.3871    3.9920 N   0  0  0  0  0  0  0  0  0  0  0  0
   -1.1663   10.1589    2.5985 N   0  0  0  0  0  0  0  0  0  0  0  0
   -1.5426    9.8710    1.2730 C   0  0  0  0  0  0  0  0  0  0  0  0
  1  2  1  0
  2  3  2  0
  1  4  2  0
  3  5  1  0
  3  6  1  0
  5  7  1  0
  4  8  1  0
  5  8  2  0
  6  9  1  0
  6 10  2  0
  7 11  2  0
 10 11  1  0
M  END
>  <ID>  (1) 
conformer_0

$$$$
