
     RDKit          3D

  7  7  0  0  0  0  0  0  0  0999 V2000
    0.4194   12.6462    3.4452 C   0  0  0  0  0  0  0  0  0  0  0  0
    0.9451   13.5861    2.7123 C   0  0  0  0  0  0  0  0  0  0  0  0
    0.9228   13.4974    1.4303 C   0  0  0  0  0  0  0  0  0  0  0  0
   -0.3467   11.5762    2.8774 C   0  0  0  0  0  0  0  0  0  0  0  0
    0.1389   12.4520    0.7609 C   0  0  0  0  0  0  0  0  0  0  0  0
   -0.9765   10.5781    3.7464 N   0  0  0  0  0  0  0  0  0  0  0  0
   -0.5261   11.4832    1.5584 C   0  0  0  0  0  0  0  0  0  0  0  0
  1  2  1  0
  2  3  2  0
  1  4  2  0
  3  5  1  0
  4  6  1  0
  4  7  1  0
  5  7  2  0
M  END
>  <ID>  (1) 
conformer_0

$$$$
