
     RDKit          3D

 10 10  0  0  0  0  0  0  0  0999 V2000
   -0.2991   11.9241    3.7838 C   0  0  0  0  0  0  0  0  0  0  0  0
   -0.8495   10.9931    3.2040 C   0  0  0  0  0  0  0  0  0  0  0  0
   -0.7457   10.8734    1.9458 C   0  0  0  0  0  0  0  0  0  0  0  0
    0.4723   12.9463    3.0647 C   0  0  0  0  0  0  0  0  0  0  0  0
   -1.4448    9.7466    1.1690 C   0  0  0  0  0  0  0  0  0  0  0  0
    0.4677   12.8568    1.7115 C   0  0  0  0  0  0  0  0  0  0  0  0
   -0.1802   11.8577    1.0506 C   0  0  0  0  0  0  0  0  0  0  0  0
   -1.9519    8.7767    1.7996 O   0  0  0  0  0  0  0  0  0  0  0  0
    1.1313   14.0357    0.9580 C   0  0  0  0  0  0  0  0  0  0  0  0
   -1.8473    9.7608   -0.0972 O   0  0  0  0  0  0  0  0  0  0  0  0
  1  2  1  0
  2  3  2  0
  1  4  2  0
  3  5  1  0
  4  6  1  0
  3  7  1  0
  6  7  2  0
  5  8  1  0
  6  9  1  0
  5 10  2  0
M  END
>  <ID>  (1) 
conformer_0

$$$$
