
     RDKit          3D

 11 12  0  0  0  0  0  0  0  0999 V2000
    0.9790   14.0834    2.9099 C   0  0  0  0  0  0  0  0  0  0  0  0
    0.5045   12.9380    2.4578 C   0  0  0  0  0  0  0  0  0  0  0  0
    0.3745   12.6539    1.2297 C   0  0  0  0  0  0  0  0  0  0  0  0
    0.7775   13.5834    0.2460 C   0  0  0  0  0  0  0  0  0  0  0  0
    1.4315   14.9655    2.0403 N   0  0  0  0  0  0  0  0  0  0  0  0
    0.7406   13.3919   -1.0883 C   0  0  0  0  0  0  0  0  0  0  0  0
   -0.0164   11.8664    3.4608 C   0  0  0  0  0  0  0  0  0  0  0  0
    0.0916   12.3689   -1.6304 C   0  0  0  0  0  0  0  0  0  0  0  0
    1.4112   14.8076    0.7655 C   0  0  0  0  0  0  0  0  0  0  0  0
   -0.4711   11.3722   -0.7349 C   0  0  0  0  0  0  0  0  0  0  0  0
   -0.4160   11.5290    0.6231 C   0  0  0  0  0  0  0  0  0  0  0  0
  1  2  1  0
  2  3  2  0
  3  4  1  0
  1  5  2  0
  4  6  1  0
  2  7  1  0
  6  8  2  0
  4  9  2  0
  5  9  1  0
  8 10  1  0
  3 11  1  0
 10 11  2  0
M  END
>  <ID>  (1) 
conformer_0

$$$$
