
     RDKit          3D

 11 11  0  0  0  0  0  0  0  0999 V2000
    0.0040   12.4787    3.8802 C   0  0  0  0  0  0  0  0  0  0  0  0
   -0.5589   11.3757    3.4048 C   0  0  0  0  0  0  0  0  0  0  0  0
   -1.2009   10.3662    4.1368 C   0  0  0  0  0  0  0  0  0  0  0  0
   -0.9332   11.5711    1.9302 C   0  0  0  0  0  0  0  0  0  0  0  0
   -0.1558   12.4499    1.1457 C   0  0  0  0  0  0  0  0  0  0  0  0
    0.6110   13.4024    1.7668 C   0  0  0  0  0  0  0  0  0  0  0  0
    0.7751   13.3957    3.2100 C   0  0  0  0  0  0  0  0  0  0  0  0
   -1.1316    9.0891    3.5450 C   0  0  0  0  0  0  0  0  0  0  0  0
   -0.0812    8.3495    3.9333 O   0  0  0  0  0  0  0  0  0  0  0  0
    1.3021   14.4724    0.9727 N   0  0  0  0  0  0  0  0  0  0  0  0
   -2.0195    8.5730    2.8253 O   0  0  0  0  0  0  0  0  0  0  0  0
  1  2  1  0
  2  3  1  0
  2  4  2  0
  4  5  1  0
  5  6  2  0
  1  7  2  0
  6  7  1  0
  3  8  1  0
  8  9  2  0
  6 10  1  0
  8 11  1  0
M  END
>  <ID>  (1) 
conformer_0

$$$$
