
     RDKit          3D

 10 10  0  0  0  0  0  0  0  0999 V2000
    0.6166   12.0534    2.9269 C   0  0  0  0  0  0  0  0  0  0  0  0
    0.3051   12.0313    1.7039 C   0  0  0  0  0  0  0  0  0  0  0  0
   -0.6007   11.1037    1.3182 C   0  0  0  0  0  0  0  0  0  0  0  0
    1.4156   13.3012    3.3702 C   0  0  0  0  0  0  0  0  0  0  0  0
    1.0899   14.4548    2.5307 C   0  0  0  0  0  0  0  0  0  0  0  0
   -0.2990   11.4588    3.8256 C   0  0  0  0  0  0  0  0  0  0  0  0
   -0.8413   10.7894   -0.1235 N   0  0  0  0  0  0  0  0  0  0  0  0
   -1.4834   10.1727    2.1318 C   0  0  0  0  0  0  0  0  0  0  0  0
   -2.3428    9.3076    1.6834 C   0  0  0  0  0  0  0  0  0  0  0  0
   -1.1752   10.4609    3.4966 C   0  0  0  0  0  0  0  0  0  0  0  0
  1  2  1  0
  2  3  2  0
  1  4  1  0
  4  5  1  0
  1  6  2  0
  3  7  1  0
  3  8  1  0
  8  9  1  0
  6 10  1  0
  8 10  2  0
M  END
>  <ID>  (1) 
conformer_0

$$$$
