
     RDKit          3D

  8  8  0  0  0  0  0  0  0  0999 V2000
    0.6166   12.0534    2.9269 C   0  0  0  0  0  0  0  0  0  0  0  0
    0.3051   12.0313    1.7039 N   0  0  0  0  0  0  0  0  0  0  0  0
   -0.6104   11.2522    1.2249 C   0  0  0  0  0  0  0  0  0  0  0  0
    0.5533   13.3550    1.0565 C   0  0  0  0  0  0  0  0  0  0  0  0
    0.3912   13.4357   -0.3084 C   0  0  0  0  0  0  0  0  0  0  0  0
    0.8766   14.3942    1.8312 N   0  0  0  0  0  0  0  0  0  0  0  0
    0.0795   10.8032    3.5719 C   0  0  0  0  0  0  0  0  0  0  0  0
   -0.7948   10.2537    2.4398 C   0  0  0  0  0  0  0  0  0  0  0  0
  1  2  1  0
  2  3  1  0
  2  4  1  0
  4  5  1  0
  4  6  2  0
  1  7  2  0
  3  8  2  0
  7  8  1  0
M  END
>  <ID>  (1) 
conformer_0

$$$$
