
     RDKit          3D

 10 10  0  0  0  0  0  0  0  0999 V2000
    0.0040   12.4787    3.8802 C   0  0  0  0  0  0  0  0  0  0  0  0
   -0.5589   11.3757    3.4048 C   0  0  0  0  0  0  0  0  0  0  0  0
   -1.2009   10.3662    4.1368 C   0  0  0  0  0  0  0  0  0  0  0  0
   -0.9332   11.5711    1.9302 C   0  0  0  0  0  0  0  0  0  0  0  0
   -0.1558   12.4499    1.1457 C   0  0  0  0  0  0  0  0  0  0  0  0
    0.6110   13.4024    1.7668 C   0  0  0  0  0  0  0  0  0  0  0  0
    0.7751   13.3957    3.2100 C   0  0  0  0  0  0  0  0  0  0  0  0
   -0.2916   12.4690   -0.2436 C   0  0  0  0  0  0  0  0  0  0  0  0
    1.2517   14.3906    0.9703 N   0  0  0  0  0  0  0  0  0  0  0  0
   -1.4894    9.2641    3.5400 N   0  0  0  0  0  0  0  0  0  0  0  0
  1  2  1  0
  2  3  1  0
  2  4  2  0
  4  5  1  0
  5  6  2  0
  1  7  2  0
  6  7  1  0
  5  8  1  0
  6  9  1  0
  3 10  1  0
M  END
>  <ID>  (1) 
conformer_0

$$$$
