
     RDKit          3D

  9 10  0  0  0  0  0  0  0  0999 V2000
    1.1221   14.1326    0.8286 C   0  0  0  0  0  0  0  0  0  0  0  0
    0.5085   13.3918   -0.0249 C   0  0  0  0  0  0  0  0  0  0  0  0
   -0.2118   12.2037    0.3272 C   0  0  0  0  0  0  0  0  0  0  0  0
    1.0690   13.8219    2.2255 C   0  0  0  0  0  0  0  0  0  0  0  0
   -0.2862   11.8506    1.6799 C   0  0  0  0  0  0  0  0  0  0  0  0
    0.3398   12.6901    2.6826 C   0  0  0  0  0  0  0  0  0  0  0  0
    0.2134   12.3434    3.9395 N   0  0  0  0  0  0  0  0  0  0  0  0
   -0.9478   10.9184    2.4482 C   0  0  0  0  0  0  0  0  0  0  0  0
   -0.5353   11.0688    3.9111 C   0  0  0  0  0  0  0  0  0  0  0  0
  1  2  1  0
  2  3  2  0
  1  4  2  0
  3  5  1  0
  4  6  1  0
  5  6  1  0
  6  7  2  0
  5  8  2  0
  7  9  1  0
  8  9  1  0
M  END
>  <ID>  (1) 
conformer_0

$$$$
