
     RDKit          3D

  9 10  0  0  0  0  0  0  0  0999 V2000
    0.8844   14.4633    1.0657 N   0  0  0  0  0  0  0  0  0  0  0  0
    1.0572   13.8582    2.2253 C   0  0  0  0  0  0  0  0  0  0  0  0
    0.6109   12.4966    2.2241 C   0  0  0  0  0  0  0  0  0  0  0  0
   -0.2360   12.1031    1.3733 C   0  0  0  0  0  0  0  0  0  0  0  0
    0.6915   11.7912    3.5917 C   0  0  0  0  0  0  0  0  0  0  0  0
    0.0280   10.5673    3.6294 C   0  0  0  0  0  0  0  0  0  0  0  0
   -0.7462   10.8755    1.3892 C   0  0  0  0  0  0  0  0  0  0  0  0
   -0.7211   10.0902    2.5604 C   0  0  0  0  0  0  0  0  0  0  0  0
   -0.0989   13.0456    0.2453 C   0  0  0  0  0  0  0  0  0  0  0  0
  1  2  1  0
  2  3  2  0
  3  4  1  0
  3  5  1  0
  5  6  2  0
  4  7  1  0
  6  8  1  0
  7  8  2  0
  1  9  2  0
  4  9  1  0
M  END
>  <ID>  (1) 
conformer_0

$$$$
