
     RDKit          3D

 10 10  0  0  0  0  0  0  0  0999 V2000
    0.4545   12.5641    2.9756 C   0  0  0  0  0  0  0  0  0  0  0  0
    0.9088   13.5509    2.3848 C   0  0  0  0  0  0  0  0  0  0  0  0
    0.7561   13.6345    1.0020 C   0  0  0  0  0  0  0  0  0  0  0  0
    0.0054   12.6432    0.3276 C   0  0  0  0  0  0  0  0  0  0  0  0
   -0.3562   11.4914    2.5096 C   0  0  0  0  0  0  0  0  0  0  0  0
   -0.9062   10.4404    3.2856 C   0  0  0  0  0  0  0  0  0  0  0  0
   -0.2846   10.2386    4.4300 N   0  0  0  0  0  0  0  0  0  0  0  0
   -0.5327   11.5854    1.0633 C   0  0  0  0  0  0  0  0  0  0  0  0
   -1.7198    9.6983    2.8168 O   0  0  0  0  0  0  0  0  0  0  0  0
    1.3391   14.6105    0.1948 N   0  0  0  0  0  0  0  0  0  0  0  0
  1  2  2  0
  2  3  1  0
  3  4  2  0
  1  5  1  0
  5  6  1  0
  6  7  1  0
  4  8  1  0
  5  8  2  0
  6  9  2  0
  3 10  1  0
M  END
>  <ID>  (1) 
conformer_0

$$$$
