
     RDKit          3D

 11 12  0  0  0  0  0  0  0  0999 V2000
    1.1083   13.9237    2.5127 C   0  0  0  0  0  0  0  0  0  0  0  0
    0.5068   12.7237    2.1997 C   0  0  0  0  0  0  0  0  0  0  0  0
    0.2119   12.4355    1.0405 C   0  0  0  0  0  0  0  0  0  0  0  0
    1.4582   14.7656    1.5660 N   0  0  0  0  0  0  0  0  0  0  0  0
   -0.4848   11.1792    0.7541 C   0  0  0  0  0  0  0  0  0  0  0  0
    0.4498   13.3707    0.0002 C   0  0  0  0  0  0  0  0  0  0  0  0
    1.0929   14.3926    0.2662 C   0  0  0  0  0  0  0  0  0  0  0  0
   -0.9338   10.4290    1.8734 C   0  0  0  0  0  0  0  0  0  0  0  0
    0.0899   11.8526    3.3718 C   0  0  0  0  0  0  0  0  0  0  0  0
   -0.5655   10.7446    3.1324 C   0  0  0  0  0  0  0  0  0  0  0  0
   -0.7355    9.7533    4.1083 N   0  0  0  0  0  0  0  0  0  0  0  0
  1  2  1  0
  2  3  2  0
  1  4  2  0
  3  5  1  0
  3  6  1  0
  4  7  1  0
  6  7  2  0
  5  8  2  0
  2  9  1  0
  8 10  1  0
  9 10  2  0
 10 11  1  0
M  END
>  <ID>  (1) 
conformer_0

$$$$
