
     RDKit          3D

 11 12  0  0  0  0  0  0  0  0999 V2000
    0.4194   12.6462    3.4452 C   0  0  0  0  0  0  0  0  0  0  0  0
   -0.1676   11.4978    3.1267 C   0  0  0  0  0  0  0  0  0  0  0  0
    0.7886   13.6138    2.4930 C   0  0  0  0  0  0  0  0  0  0  0  0
    0.5960   13.3295    1.1725 C   0  0  0  0  0  0  0  0  0  0  0  0
    0.9763   14.2138    0.1550 C   0  0  0  0  0  0  0  0  0  0  0  0
   -0.6209   10.5244    4.0537 N   0  0  0  0  0  0  0  0  0  0  0  0
   -0.0553   11.9916    0.7506 C   0  0  0  0  0  0  0  0  0  0  0  0
    0.8680   13.8001   -1.1947 C   0  0  0  0  0  0  0  0  0  0  0  0
   -0.4749   11.1540    1.7813 C   0  0  0  0  0  0  0  0  0  0  0  0
    0.2816   12.6288   -1.5785 C   0  0  0  0  0  0  0  0  0  0  0  0
   -0.3129   11.7604   -0.6158 C   0  0  0  0  0  0  0  0  0  0  0  0
  1  2  2  0
  1  3  1  0
  3  4  2  0
  4  5  1  0
  2  6  1  0
  4  7  1  0
  5  8  2  0
  2  9  1  0
  7  9  2  0
  8 10  1  0
  7 11  1  0
 10 11  2  0
M  END
>  <ID>  (1) 
conformer_0

$$$$
