
     RDKit          3D

 22 23  0  0  0  0  0  0  0  0999 V2000
   66.1729   -5.7793  -67.5476 C   0  0  0  0  0  0  0  0  0  0  0  0
   66.2903   -4.5528  -67.7209 C   0  0  0  0  0  0  0  0  0  0  0  0
   65.1382   -3.9339  -68.3304 C   0  0  0  0  0  0  0  0  0  0  0  0
   65.2174   -2.5115  -68.6509 C   0  0  0  0  0  0  0  0  0  0  0  0
   64.0470   -4.6794  -68.5622 C   0  0  0  0  0  0  0  0  0  0  0  0
   64.0003   -5.8945  -68.5145 C   0  0  0  0  0  0  0  0  0  0  0  0
   64.3672   -1.9251  -69.6340 C   0  0  0  0  0  0  0  0  0  0  0  0
   64.8774   -1.2702  -70.6751 O   0  0  0  0  0  0  0  0  0  0  0  0
   67.4398   -3.7941  -67.3574 C   0  0  0  0  0  0  0  0  0  0  0  0
   62.7880   -6.6901  -68.7242 O   0  0  0  0  0  0  0  0  0  0  0  0
   68.2777   -3.3058  -68.1930 C   0  0  0  0  0  0  0  0  0  0  0  0
   69.2748   -2.5571  -67.5998 C   0  0  0  0  0  0  0  0  0  0  0  0
   67.7784   -3.6288  -66.0489 O   0  0  0  0  0  0  0  0  0  0  0  0
   68.9780   -2.7553  -66.0007 C   0  0  0  0  0  0  0  0  0  0  0  0
   65.1409   -6.5979  -67.9622 C   0  0  0  0  0  0  0  0  0  0  0  0
   62.8429   -7.5569  -69.7984 C   0  0  0  0  0  0  0  0  0  0  0  0
   68.7756   -1.4768  -65.4376 C   0  0  0  0  0  0  0  0  0  0  0  0
   63.1287   -2.1478  -69.6962 O   0  0  0  0  0  0  0  0  0  0  0  0
   62.3233   -8.8663  -69.5027 C   0  0  0  0  0  0  0  0  0  0  0  0
   61.1501   -8.9876  -69.0423 O   0  0  0  0  0  0  0  0  0  0  0  0
   63.2194   -9.7909  -68.9650 O   0  0  0  0  0  0  0  0  0  0  0  0
   70.0572   -3.2381  -65.2933 C   0  0  0  0  0  0  0  0  0  0  0  0
  1  2  1  0
  2  3  2  0
  3  4  1  0
  3  5  1  0
  5  6  2  0
  4  7  1  0
  7  8  1  0
  2  9  1  0
  6 10  1  0
  9 11  2  0
 11 12  1  0
  9 13  1  0
 12 14  1  0
 13 14  1  0
  1 15  2  0
  6 15  1  0
 10 16  1  0
 14 17  1  0
  7 18  2  0
 16 19  1  0
 19 20  1  0
 19 21  2  0
 14 22  1  0
M  END
>  <ID>  (1) 
conformer_0

$$$$
