
     RDKit          3D

 18 21  0  0  0  0  0  0  0  0999 V2000
   69.8512   -1.5089  -65.5454 C   0  0  0  0  0  0  0  0  0  0  0  0
   68.9578   -1.3291  -66.3880 C   0  0  0  0  0  0  0  0  0  0  0  0
   70.5783   -2.7430  -65.3168 C   0  0  0  0  0  0  0  0  0  0  0  0
   68.4799   -2.5281  -67.0956 C   0  0  0  0  0  0  0  0  0  0  0  0
   67.3928   -2.4482  -68.0402 C   0  0  0  0  0  0  0  0  0  0  0  0
   66.5856   -3.6991  -68.1044 C   0  0  0  0  0  0  0  0  0  0  0  0
   69.0966   -3.7993  -66.7957 C   0  0  0  0  0  0  0  0  0  0  0  0
   67.1747   -4.9257  -67.8073 C   0  0  0  0  0  0  0  0  0  0  0  0
   68.3989   -4.8929  -67.1163 C   0  0  0  0  0  0  0  0  0  0  0  0
   66.2475   -5.9031  -67.8951 C   0  0  0  0  0  0  0  0  0  0  0  0
   65.2611   -3.9441  -68.7786 C   0  0  0  0  0  0  0  0  0  0  0  0
   66.2011   -7.2312  -67.6127 C   0  0  0  0  0  0  0  0  0  0  0  0
   64.4927   -2.9942  -69.3824 C   0  0  0  0  0  0  0  0  0  0  0  0
   63.2755   -3.7175  -69.8822 C   0  0  0  0  0  0  0  0  0  0  0  0
   70.2018   -3.7703  -65.9130 C   0  0  0  0  0  0  0  0  0  0  0  0
   62.9872   -4.9677  -69.8249 C   0  0  0  0  0  0  0  0  0  0  0  0
   65.0712   -5.2898  -68.6204 C   0  0  0  0  0  0  0  0  0  0  0  0
   63.9370   -5.8687  -69.0918 C   0  0  0  0  0  0  0  0  0  0  0  0
  1  2  1  0
  1  3  2  0
  2  4  2  0
  4  5  1  0
  5  6  2  0
  4  7  1  0
  6  8  1  0
  7  9  1  0
  8  9  1  0
  8 10  2  0
  6 11  1  0
 10 12  1  0
 11 13  2  0
 13 14  1  0
  3 15  1  0
  7 15  2  0
 14 16  2  0
 10 17  1  0
 11 17  1  0
 16 18  1  0
 17 18  2  0
M  END
>  <ID>  (1) 
conformer_0

$$$$
