
     RDKit          3D

 18 19  0  0  0  0  0  0  0  0999 V2000
   69.8512   -1.5089  -65.5454 C   0  0  0  0  0  0  0  0  0  0  0  0
   68.9578   -1.3291  -66.3880 C   0  0  0  0  0  0  0  0  0  0  0  0
   70.5783   -2.7430  -65.3168 C   0  0  0  0  0  0  0  0  0  0  0  0
   68.4799   -2.5281  -67.0956 C   0  0  0  0  0  0  0  0  0  0  0  0
   67.3928   -2.4482  -68.0402 C   0  0  0  0  0  0  0  0  0  0  0  0
   66.5856   -3.6991  -68.1044 C   0  0  0  0  0  0  0  0  0  0  0  0
   65.2075   -3.6806  -68.5660 C   0  0  0  0  0  0  0  0  0  0  0  0
   67.0648   -4.9751  -67.7384 C   0  0  0  0  0  0  0  0  0  0  0  0
   64.4725   -4.7941  -68.5748 C   0  0  0  0  0  0  0  0  0  0  0  0
   70.3600   -3.7544  -66.2057 C   0  0  0  0  0  0  0  0  0  0  0  0
   63.1446   -4.8295  -69.0167 O   0  0  0  0  0  0  0  0  0  0  0  0
   71.1863   -4.9126  -66.0890 O   0  0  0  0  0  0  0  0  0  0  0  0
   65.1812   -5.9938  -68.1635 C   0  0  0  0  0  0  0  0  0  0  0  0
   69.3541   -3.7034  -66.9312 C   0  0  0  0  0  0  0  0  0  0  0  0
   64.3275   -7.2636  -68.2719 C   0  0  0  0  0  0  0  0  0  0  0  0
   64.4938   -8.0102  -67.1208 C   0  0  0  0  0  0  0  0  0  0  0  0
   72.5917   -4.9259  -65.8119 C   0  0  0  0  0  0  0  0  0  0  0  0
   66.4019   -6.0066  -67.8154 C   0  0  0  0  0  0  0  0  0  0  0  0
  1  2  1  0
  1  3  2  0
  2  4  2  0
  4  5  1  0
  5  6  2  3
  6  7  1  0
  6  8  1  0
  7  9  2  0
  3 10  1  0
  9 11  1  0
 10 12  1  0
  9 13  1  0
  4 14  1  0
 10 14  2  0
 13 15  1  0
 15 16  1  0
 12 17  1  0
  8 18  1  0
 13 18  1  0
M  END
>  <ID>  (1) 
conformer_0

$$$$
