
     RDKit          3D

 22 24  0  0  0  0  0  0  0  0999 V2000
   66.1729   -5.7793  -67.5476 C   0  0  0  0  0  0  0  0  0  0  0  0
   66.2903   -4.5528  -67.7209 C   0  0  0  0  0  0  0  0  0  0  0  0
   67.3062   -3.6957  -67.3670 C   0  0  0  0  0  0  0  0  0  0  0  0
   65.2058   -6.6296  -67.9937 C   0  0  0  0  0  0  0  0  0  0  0  0
   65.1189   -3.8875  -68.3412 C   0  0  0  0  0  0  0  0  0  0  0  0
   64.0382   -4.6270  -68.7543 C   0  0  0  0  0  0  0  0  0  0  0  0
   68.0303   -3.7207  -66.3284 C   0  0  0  0  0  0  0  0  0  0  0  0
   65.1683   -8.0329  -67.6636 O   0  0  0  0  0  0  0  0  0  0  0  0
   63.9748   -6.0935  -68.4843 C   0  0  0  0  0  0  0  0  0  0  0  0
   62.8710   -6.9146  -68.8423 O   0  0  0  0  0  0  0  0  0  0  0  0
   62.9631   -8.1552  -69.0671 C   0  0  0  0  0  0  0  0  0  0  0  0
   67.5275   -2.5297  -68.2213 C   0  0  0  0  0  0  0  0  0  0  0  0
   69.0131   -2.8167  -66.0023 C   0  0  0  0  0  0  0  0  0  0  0  0
   69.8176   -2.9956  -64.7392 C   0  0  0  0  0  0  0  0  0  0  0  0
   64.0559   -8.6687  -68.2396 C   0  0  0  0  0  0  0  0  0  0  0  0
   70.9075   -2.9098  -64.6792 O   0  0  0  0  0  0  0  0  0  0  0  0
   69.2930   -1.7716  -66.8387 C   0  0  0  0  0  0  0  0  0  0  0  0
   61.7672   -8.9707  -68.7101 C   0  0  0  0  0  0  0  0  0  0  0  0
   70.3288   -0.8131  -66.5181 O   0  0  0  0  0  0  0  0  0  0  0  0
   61.4859  -10.0968  -69.1684 O   0  0  0  0  0  0  0  0  0  0  0  0
   61.1350   -8.6607  -67.6681 O   0  0  0  0  0  0  0  0  0  0  0  0
   68.5864   -1.5620  -67.9580 C   0  0  0  0  0  0  0  0  0  0  0  0
  1  2  1  0
  2  3  1  0
  1  4  2  0
  2  5  2  0
  5  6  1  0
  3  7  1  0
  4  8  1  0
  4  9  1  0
  6  9  2  0
  9 10  1  0
 10 11  1  0
  3 12  2  0
  7 13  2  0
 13 14  1  0
  8 15  1  0
 11 15  1  0
 14 16  2  0
 13 17  1  0
 11 18  1  0
 17 19  1  0
 18 20  2  0
 18 21  1  0
 12 22  1  0
 17 22  2  0
M  END
>  <ID>  (1) 
conformer_0

$$$$
