
     RDKit          3D

 24 26  0  0  0  0  0  0  0  0999 V2000
   66.1729   -5.7793  -67.5476 C   0  0  0  0  0  0  0  0  0  0  0  0
   64.9244   -6.0750  -67.8965 C   0  0  0  0  0  0  0  0  0  0  0  0
   66.6624   -4.4653  -67.9454 C   0  0  0  0  0  0  0  0  0  0  0  0
   64.3283   -7.3795  -67.4951 C   0  0  0  0  0  0  0  0  0  0  0  0
   63.4690   -7.9592  -68.2731 N   0  0  0  0  0  0  0  0  0  0  0  0
   64.0279   -5.1001  -68.4124 C   0  0  0  0  0  0  0  0  0  0  0  0
   65.1149   -8.1244  -66.6386 O   0  0  0  0  0  0  0  0  0  0  0  0
   68.0377   -4.0530  -67.6284 C   0  0  0  0  0  0  0  0  0  0  0  0
   68.2349   -3.4076  -66.3586 C   0  0  0  0  0  0  0  0  0  0  0  0
   65.6916   -3.5403  -68.6298 C   0  0  0  0  0  0  0  0  0  0  0  0
   62.8764   -7.2745  -69.2527 C   0  0  0  0  0  0  0  0  0  0  0  0
   69.5350   -2.9181  -66.0642 C   0  0  0  0  0  0  0  0  0  0  0  0
   63.2582   -9.3926  -68.1227 C   0  0  0  0  0  0  0  0  0  0  0  0
   69.7561   -1.6119  -65.6292 C   0  0  0  0  0  0  0  0  0  0  0  0
   63.3228  -10.1704  -69.2735 C   0  0  0  0  0  0  0  0  0  0  0  0
   62.0333  -10.2052  -70.0475 C   0  0  0  0  0  0  0  0  0  0  0  0
   64.4391   -3.9221  -68.8344 C   0  0  0  0  0  0  0  0  0  0  0  0
   70.6769   -3.3968  -66.4760 C   0  0  0  0  0  0  0  0  0  0  0  0
   61.1669  -10.3806  -68.9071 C   0  0  0  0  0  0  0  0  0  0  0  0
   60.8144   -9.4615  -68.2899 O   0  0  0  0  0  0  0  0  0  0  0  0
   62.6903   -5.6921  -68.9699 C   0  0  0  0  0  0  0  0  0  0  0  0
   71.7698   -2.5508  -66.0240 O   0  0  0  0  0  0  0  0  0  0  0  0
   71.0786   -1.4222  -65.5219 C   0  0  0  0  0  0  0  0  0  0  0  0
   60.7588  -11.5957  -68.5351 O   0  0  0  0  0  0  0  0  0  0  0  0
  1  2  1  0
  1  3  2  0
  2  4  1  0
  4  5  1  0
  2  6  2  0
  4  7  2  0
  3  8  1  0
  8  9  2  3
  3 10  1  0
  5 11  1  0
  9 12  1  0
  5 13  1  0
 12 14  1  0
 13 15  1  0
 15 16  1  0
  6 17  1  0
 10 17  2  0
 12 18  2  0
 16 19  1  0
 19 20  2  0
  6 21  1  0
 11 21  1  0
 18 22  1  0
 14 23  2  0
 22 23  1  0
 19 24  1  0
M  END
>  <ID>  (1) 
conformer_0

$$$$
