
     RDKit          3D

 22 24  0  0  0  0  0  0  0  0999 V2000
   66.1729   -5.7793  -67.5476 C   0  0  0  0  0  0  0  0  0  0  0  0
   64.9244   -6.0750  -67.8965 C   0  0  0  0  0  0  0  0  0  0  0  0
   66.9194   -5.0313  -68.4167 C   0  0  0  0  0  0  0  0  0  0  0  0
   67.7418   -3.9450  -67.7359 C   0  0  0  0  0  0  0  0  0  0  0  0
   68.3818   -4.0705  -66.6167 C   0  0  0  0  0  0  0  0  0  0  0  0
   69.1386   -2.9650  -66.0324 C   0  0  0  0  0  0  0  0  0  0  0  0
   64.4679   -6.2609  -69.0306 C   0  0  0  0  0  0  0  0  0  0  0  0
   64.4405   -7.4250  -67.1314 C   0  0  0  0  0  0  0  0  0  0  0  0
   63.4758   -5.4056  -69.5742 O   0  0  0  0  0  0  0  0  0  0  0  0
   67.7188   -2.6398  -68.4931 C   0  0  0  0  0  0  0  0  0  0  0  0
   63.8149   -7.7129  -69.2842 C   0  0  0  0  0  0  0  0  0  0  0  0
   69.8257   -3.1568  -64.8295 C   0  0  0  0  0  0  0  0  0  0  0  0
   70.6780   -2.1730  -64.3602 C   0  0  0  0  0  0  0  0  0  0  0  0
   70.7780   -1.0213  -65.0795 C   0  0  0  0  0  0  0  0  0  0  0  0
   63.3691   -8.0724  -67.9136 C   0  0  0  0  0  0  0  0  0  0  0  0
   62.6404   -7.9068  -70.1362 C   0  0  0  0  0  0  0  0  0  0  0  0
   70.0970   -0.8115  -66.2339 C   0  0  0  0  0  0  0  0  0  0  0  0
   63.2619   -9.4769  -67.6033 N   0  0  0  0  0  0  0  0  0  0  0  0
   61.7492   -8.8919  -69.8744 O   0  0  0  0  0  0  0  0  0  0  0  0
   66.9753   -2.4813  -69.4947 O   0  0  0  0  0  0  0  0  0  0  0  0
   68.4564   -1.6254  -67.9426 C   0  0  0  0  0  0  0  0  0  0  0  0
   69.2236   -1.8229  -66.7602 C   0  0  0  0  0  0  0  0  0  0  0  0
  1  2  1  0
  1  3  1  0
  3  4  1  0
  4  5  2  0
  5  6  1  0
  2  7  1  0
  2  8  1  0
  7  9  1  0
  4 10  1  0
  7 11  1  0
  6 12  1  0
 12 13  2  0
 13 14  1  0
  8 15  1  0
 11 15  1  0
 11 16  1  0
 14 17  2  0
 15 18  1  0
 16 19  1  0
 10 20  1  0
 10 21  2  0
  6 22  2  0
 17 22  1  0
 21 22  1  0
M  END
>  <ID>  (1) 
conformer_0

$$$$
