
     RDKit          3D

  7  7  0  0  0  0  0  0  0  0999 V2000
   70.6902   -2.4823  -64.9918 C   0  0  0  0  0  0  0  0  0  0  0  0
   71.2418   -3.3146  -65.6777 C   0  0  0  0  0  0  0  0  0  0  0  0
   70.6828   -3.7962  -66.7953 O   0  0  0  0  0  0  0  0  0  0  0  0
   69.4937   -1.8254  -65.5123 C   0  0  0  0  0  0  0  0  0  0  0  0
   69.0640   -2.5116  -66.6852 C   0  0  0  0  0  0  0  0  0  0  0  0
   69.5758   -3.4695  -67.2348 C   0  0  0  0  0  0  0  0  0  0  0  0
   69.0229   -4.0175  -68.2626 O   0  0  0  0  0  0  0  0  0  0  0  0
  1  2  2  0
  2  3  1  0
  1  4  1  0
  4  5  2  0
  3  6  1  0
  5  6  1  0
  6  7  2  0
M  END
>  <ID>  (1) 
conformer_0

$$$$
