
     RDKit          3D

  8  8  0  0  0  0  0  0  0  0999 V2000
   70.6902   -2.4823  -64.9918 C   0  0  0  0  0  0  0  0  0  0  0  0
   69.7259   -1.6873  -65.4902 C   0  0  0  0  0  0  0  0  0  0  0  0
   71.2078   -3.5337  -65.7962 C   0  0  0  0  0  0  0  0  0  0  0  0
   72.3308   -4.3372  -65.3112 C   0  0  0  0  0  0  0  0  0  0  0  0
   68.8795   -2.0212  -66.3901 C   0  0  0  0  0  0  0  0  0  0  0  0
   67.7091   -1.3230  -66.7554 C   0  0  0  0  0  0  0  0  0  0  0  0
   69.2324   -3.3516  -67.2351 C   0  0  0  0  0  0  0  0  0  0  0  0
   70.3408   -4.0814  -66.8922 C   0  0  0  0  0  0  0  0  0  0  0  0
  1  2  1  0
  1  3  2  0
  3  4  1  0
  2  5  2  0
  5  6  1  0
  5  7  1  0
  3  8  1  0
  7  8  2  0
M  END
>  <ID>  (1) 
conformer_0

$$$$
