
     RDKit          3D

 17 18  0  0  0  0  0  0  0  0999 V2000
   66.1729   -5.7793  -67.5476 C   0  0  0  0  0  0  0  0  0  0  0  0
   64.9244   -6.0750  -67.8965 C   0  0  0  0  0  0  0  0  0  0  0  0
   66.9194   -5.0313  -68.4167 C   0  0  0  0  0  0  0  0  0  0  0  0
   67.7418   -3.9450  -67.7359 C   0  0  0  0  0  0  0  0  0  0  0  0
   68.3818   -4.0705  -66.6167 C   0  0  0  0  0  0  0  0  0  0  0  0
   69.1386   -2.9650  -66.0324 C   0  0  0  0  0  0  0  0  0  0  0  0
   64.4679   -6.2609  -69.0306 C   0  0  0  0  0  0  0  0  0  0  0  0
   64.4405   -7.4250  -67.1314 C   0  0  0  0  0  0  0  0  0  0  0  0
   69.1704   -1.7491  -66.6645 C   0  0  0  0  0  0  0  0  0  0  0  0
   67.7639   -2.5606  -68.5103 C   0  0  0  0  0  0  0  0  0  0  0  0
   63.4197   -5.4108  -69.5647 C   0  0  0  0  0  0  0  0  0  0  0  0
   63.9140   -8.4250  -67.8652 C   0  0  0  0  0  0  0  0  0  0  0  0
   63.6708   -7.7422  -69.1290 C   0  0  0  0  0  0  0  0  0  0  0  0
   66.9576   -2.3534  -69.5553 O   0  0  0  0  0  0  0  0  0  0  0  0
   62.4885   -8.6746  -67.3627 O   0  0  0  0  0  0  0  0  0  0  0  0
   68.4352   -1.5325  -67.8168 C   0  0  0  0  0  0  0  0  0  0  0  0
   62.4359   -7.5896  -69.5019 O   0  0  0  0  0  0  0  0  0  0  0  0
  1  2  1  0
  1  3  1  0
  3  4  1  0
  4  5  2  0
  5  6  1  0
  2  7  1  0
  2  8  1  0
  6  9  2  0
  4 10  1  0
  7 11  1  0
  8 12  1  0
  7 13  1  0
 12 13  1  0
 10 14  1  0
 12 15  1  0
  9 16  1  0
 10 16  2  0
 13 17  1  0
M  END
>  <ID>  (1) 
conformer_0

$$$$
