
     RDKit          3D

 23 25  0  0  0  0  0  0  0  0999 V2000
   66.1729   -5.7793  -67.5476 C   0  0  0  0  0  0  0  0  0  0  0  0
   64.9244   -6.0750  -67.8965 C   0  0  0  0  0  0  0  0  0  0  0  0
   66.9194   -5.0313  -68.4167 C   0  0  0  0  0  0  0  0  0  0  0  0
   67.7418   -3.9450  -67.7359 C   0  0  0  0  0  0  0  0  0  0  0  0
   68.3818   -4.0705  -66.6167 C   0  0  0  0  0  0  0  0  0  0  0  0
   69.1386   -2.9650  -66.0324 C   0  0  0  0  0  0  0  0  0  0  0  0
   64.4679   -6.2609  -69.0306 C   0  0  0  0  0  0  0  0  0  0  0  0
   64.4405   -7.4250  -67.1314 C   0  0  0  0  0  0  0  0  0  0  0  0
   63.4758   -5.4056  -69.5742 O   0  0  0  0  0  0  0  0  0  0  0  0
   67.7188   -2.6398  -68.4931 C   0  0  0  0  0  0  0  0  0  0  0  0
   63.8149   -7.7129  -69.2842 C   0  0  0  0  0  0  0  0  0  0  0  0
   69.8257   -3.1568  -64.8295 O   0  0  0  0  0  0  0  0  0  0  0  0
   71.1676   -3.2828  -64.9295 C   0  0  0  0  0  0  0  0  0  0  0  0
   62.8904   -7.9753  -70.2318 C   0  0  0  0  0  0  0  0  0  0  0  0
   66.9200   -2.4655  -69.5748 O   0  0  0  0  0  0  0  0  0  0  0  0
   69.1029   -1.6821  -66.6272 C   0  0  0  0  0  0  0  0  0  0  0  0
   63.3274   -7.8980  -67.9123 C   0  0  0  0  0  0  0  0  0  0  0  0
   62.8413   -9.2788  -67.6269 N   0  0  0  0  0  0  0  0  0  0  0  0
   61.8481   -9.7563  -68.5216 C   0  0  0  0  0  0  0  0  0  0  0  0
   61.9833   -9.2928  -69.9874 C   0  0  0  0  0  0  0  0  0  0  0  0
   60.6583   -9.9428  -68.1362 O   0  0  0  0  0  0  0  0  0  0  0  0
   69.8548   -0.5891  -66.1246 C   0  0  0  0  0  0  0  0  0  0  0  0
   68.3868   -1.5191  -67.9717 C   0  0  0  0  0  0  0  0  0  0  0  0
  1  2  1  0
  1  3  1  0
  3  4  1  0
  4  5  2  0
  5  6  1  0
  2  7  1  0
  2  8  1  0
  7  9  1  0
  4 10  1  0
  7 11  1  0
  6 12  1  0
 12 13  1  0
 11 14  1  0
 10 15  1  0
  6 16  2  0
  8 17  1  0
 11 17  1  0
 17 18  1  0
 18 19  1  0
 14 20  1  0
 19 20  1  0
 19 21  2  0
 16 22  1  0
 10 23  2  0
 16 23  1  0
M  END
>  <ID>  (1) 
conformer_0

$$$$
