
     RDKit          3D

 10 11  0  0  0  0  0  0  0  0999 V2000
   69.8512   -1.5089  -65.5454 C   0  0  0  0  0  0  0  0  0  0  0  0
   70.5642   -2.5790  -65.5044 C   0  0  0  0  0  0  0  0  0  0  0  0
   68.7301   -1.5439  -66.3651 C   0  0  0  0  0  0  0  0  0  0  0  0
   68.4351   -2.7469  -67.0308 C   0  0  0  0  0  0  0  0  0  0  0  0
   69.2311   -3.8590  -66.8591 C   0  0  0  0  0  0  0  0  0  0  0  0
   67.1184   -2.7758  -67.9275 C   0  0  0  0  0  0  0  0  0  0  0  0
   68.7829   -5.0408  -67.4913 O   0  0  0  0  0  0  0  0  0  0  0  0
   67.4863   -5.0520  -68.1220 C   0  0  0  0  0  0  0  0  0  0  0  0
   66.6933   -4.2660  -68.1887 N   0  0  0  0  0  0  0  0  0  0  0  0
   70.3405   -3.8071  -66.0927 C   0  0  0  0  0  0  0  0  0  0  0  0
  1  2  2  0
  1  3  1  0
  3  4  2  0
  4  5  1  0
  4  6  1  0
  5  7  1  0
  7  8  1  0
  6  9  1  0
  8  9  2  0
  2 10  1  0
  5 10  2  0
M  END
>  <ID>  (1) 
conformer_0

$$$$
