
     RDKit          3D

 23 25  0  0  0  0  0  0  0  0999 V2000
   66.1729   -5.7793  -67.5476 C   0  0  0  0  0  0  0  0  0  0  0  0
   66.2903   -4.5528  -67.7209 C   0  0  0  0  0  0  0  0  0  0  0  0
   65.1382   -3.9339  -68.3304 C   0  0  0  0  0  0  0  0  0  0  0  0
   65.2174   -2.5115  -68.6509 C   0  0  0  0  0  0  0  0  0  0  0  0
   64.0470   -4.6794  -68.5622 C   0  0  0  0  0  0  0  0  0  0  0  0
   64.0003   -5.8945  -68.5145 C   0  0  0  0  0  0  0  0  0  0  0  0
   64.3672   -1.9251  -69.6340 C   0  0  0  0  0  0  0  0  0  0  0  0
   64.8774   -1.2702  -70.6751 O   0  0  0  0  0  0  0  0  0  0  0  0
   67.4398   -3.7941  -67.3574 C   0  0  0  0  0  0  0  0  0  0  0  0
   62.7880   -6.6901  -68.7242 O   0  0  0  0  0  0  0  0  0  0  0  0
   68.2777   -3.3058  -68.1930 C   0  0  0  0  0  0  0  0  0  0  0  0
   69.2748   -2.5571  -67.5998 C   0  0  0  0  0  0  0  0  0  0  0  0
   67.7784   -3.6288  -66.0489 O   0  0  0  0  0  0  0  0  0  0  0  0
   68.9780   -2.7553  -66.0007 C   0  0  0  0  0  0  0  0  0  0  0  0
   65.1409   -6.5979  -67.9622 C   0  0  0  0  0  0  0  0  0  0  0  0
   62.8649   -8.0459  -69.0896 C   0  0  0  0  0  0  0  0  0  0  0  0
   63.1141   -2.0581  -69.6550 O   0  0  0  0  0  0  0  0  0  0  0  0
   69.2796   -1.1328  -67.6999 C   0  0  0  0  0  0  0  0  0  0  0  0
   63.3622   -8.3509  -70.2063 C   0  0  0  0  0  0  0  0  0  0  0  0
   62.3620   -8.9257  -68.1671 C   0  0  0  0  0  0  0  0  0  0  0  0
   63.3825   -9.6538  -70.5995 C   0  0  0  0  0  0  0  0  0  0  0  0
   62.2275  -10.2400  -68.5178 C   0  0  0  0  0  0  0  0  0  0  0  0
   62.6462  -10.7030  -69.7487 C   0  0  0  0  0  0  0  0  0  0  0  0
  1  2  1  0
  2  3  2  0
  3  4  1  0
  3  5  1  0
  5  6  2  0
  4  7  1  0
  7  8  1  0
  2  9  1  0
  6 10  1  0
  9 11  2  0
 11 12  1  0
  9 13  1  0
 12 14  1  0
 13 14  1  0
  1 15  2  0
  6 15  1  0
 10 16  1  0
  7 17  2  0
 12 18  1  0
 16 19  2  0
 16 20  1  0
 19 21  1  0
 20 22  2  0
 21 23  2  0
 22 23  1  0
M  END
>  <ID>  (1) 
conformer_0

$$$$
