
     RDKit          3D

 20 22  0  0  0  0  0  0  0  0999 V2000
   65.1966   -6.9787  -67.0525 C   0  0  0  0  0  0  0  0  0  0  0  0
   65.6167   -5.8916  -67.5796 C   0  0  0  0  0  0  0  0  0  0  0  0
   66.7827   -5.2361  -67.2798 C   0  0  0  0  0  0  0  0  0  0  0  0
   64.3640   -7.9387  -67.7115 C   0  0  0  0  0  0  0  0  0  0  0  0
   63.8334   -7.4894  -68.9681 C   0  0  0  0  0  0  0  0  0  0  0  0
   65.0590   -5.5974  -68.9010 C   0  0  0  0  0  0  0  0  0  0  0  0
   67.0132   -3.9499  -67.8058 C   0  0  0  0  0  0  0  0  0  0  0  0
   64.2059   -6.3729  -69.5044 C   0  0  0  0  0  0  0  0  0  0  0  0
   62.8525   -8.4405  -69.3737 C   0  0  0  0  0  0  0  0  0  0  0  0
   66.4144   -3.5682  -69.0154 C   0  0  0  0  0  0  0  0  0  0  0  0
   68.1281   -3.1357  -67.3392 C   0  0  0  0  0  0  0  0  0  0  0  0
   68.7747   -3.5606  -66.2893 C   0  0  0  0  0  0  0  0  0  0  0  0
   61.8925   -8.8730  -68.6110 N   0  0  0  0  0  0  0  0  0  0  0  0
   68.6215   -2.1834  -68.1535 C   0  0  0  0  0  0  0  0  0  0  0  0
   62.9360   -8.9862  -70.4973 O   0  0  0  0  0  0  0  0  0  0  0  0
   69.7026   -1.4252  -67.4168 C   0  0  0  0  0  0  0  0  0  0  0  0
   70.1611   -1.9277  -66.1886 C   0  0  0  0  0  0  0  0  0  0  0  0
   65.3795   -4.3841  -69.5065 C   0  0  0  0  0  0  0  0  0  0  0  0
   69.8400   -2.8188  -65.7153 C   0  0  0  0  0  0  0  0  0  0  0  0
   60.9274   -9.8243  -68.7769 O   0  0  0  0  0  0  0  0  0  0  0  0
  1  2  1  0
  2  3  1  0
  1  4  2  0
  4  5  1  0
  2  6  2  0
  3  7  2  0
  5  8  2  0
  6  8  1  0
  5  9  1  0
  7 10  1  0
  7 11  1  0
 11 12  1  0
  9 13  1  0
 11 14  2  0
  9 15  2  0
 14 16  1  0
 16 17  2  0
  6 18  1  0
 10 18  2  0
 12 19  2  0
 17 19  1  0
 13 20  1  0
M  END
>  <ID>  (1) 
conformer_0

$$$$
