
     RDKit          3D

 23 27  0  0  0  0  0  0  0  0999 V2000
   69.6940   -1.1067  -67.3174 C   0  0  0  0  0  0  0  0  0  0  0  0
   68.4034   -1.4866  -67.6780 C   0  0  0  0  0  0  0  0  0  0  0  0
   67.6739   -0.8623  -68.5715 C   0  0  0  0  0  0  0  0  0  0  0  0
   66.5007   -1.6012  -68.9379 C   0  0  0  0  0  0  0  0  0  0  0  0
   65.5292   -1.1568  -69.8335 C   0  0  0  0  0  0  0  0  0  0  0  0
   68.0012   -2.8301  -67.2216 C   0  0  0  0  0  0  0  0  0  0  0  0
   66.4823   -2.8841  -68.1684 C   0  0  0  0  0  0  0  0  0  0  0  0
   64.4735   -2.0509  -70.1092 C   0  0  0  0  0  0  0  0  0  0  0  0
   64.4279   -3.3234  -69.3775 C   0  0  0  0  0  0  0  0  0  0  0  0
   63.4065   -4.2397  -69.5700 C   0  0  0  0  0  0  0  0  0  0  0  0
   63.4321   -5.5004  -69.0266 C   0  0  0  0  0  0  0  0  0  0  0  0
   65.5349   -3.7615  -68.5132 C   0  0  0  0  0  0  0  0  0  0  0  0
   68.4855   -3.5690  -66.4047 C   0  0  0  0  0  0  0  0  0  0  0  0
   65.5312   -5.0153  -67.7253 C   0  0  0  0  0  0  0  0  0  0  0  0
   62.4182   -6.3881  -69.2626 O   0  0  0  0  0  0  0  0  0  0  0  0
   69.6863   -3.1784  -65.8846 C   0  0  0  0  0  0  0  0  0  0  0  0
   62.6887   -7.6919  -69.2649 C   0  0  0  0  0  0  0  0  0  0  0  0
   64.4665   -5.8787  -68.0458 C   0  0  0  0  0  0  0  0  0  0  0  0
   63.5046   -8.2881  -68.3212 C   0  0  0  0  0  0  0  0  0  0  0  0
   64.4333   -7.3034  -67.4683 C   0  0  0  0  0  0  0  0  0  0  0  0
   63.6644   -9.4391  -68.0450 O   0  0  0  0  0  0  0  0  0  0  0  0
   70.3723   -1.9196  -66.2032 C   0  0  0  0  0  0  0  0  0  0  0  0
   62.6592   -8.2155  -70.4988 O   0  0  0  0  0  0  0  0  0  0  0  0
  1  2  2  0
  2  3  1  0
  3  4  2  0
  4  5  1  0
  2  6  1  0
  4  7  1  0
  6  7  1  0
  5  8  2  0
  8  9  1  0
  9 10  1  0
 10 11  2  0
  7 12  1  0
  9 12  2  0
  6 13  2  0
 12 14  1  0
 11 15  1  0
 13 16  1  0
 15 17  1  0
 11 18  1  0
 14 18  2  0
 17 19  1  0
 18 20  1  0
 19 20  1  0
 19 21  2  0
  1 22  1  0
 16 22  2  0
 17 23  1  0
M  END
>  <ID>  (1) 
conformer_0

$$$$
