
     RDKit          3D

 22 24  0  0  0  0  0  0  0  0999 V2000
   66.1729   -5.7793  -67.5476 C   0  0  0  0  0  0  0  0  0  0  0  0
   66.2903   -4.5528  -67.7209 C   0  0  0  0  0  0  0  0  0  0  0  0
   67.3142   -3.6858  -67.3965 C   0  0  0  0  0  0  0  0  0  0  0  0
   65.1257   -3.9003  -68.3952 C   0  0  0  0  0  0  0  0  0  0  0  0
   67.6380   -2.5140  -67.6303 C   0  0  0  0  0  0  0  0  0  0  0  0
   63.9995   -4.6775  -68.6646 C   0  0  0  0  0  0  0  0  0  0  0  0
   63.9545   -6.0326  -68.3419 C   0  0  0  0  0  0  0  0  0  0  0  0
   68.3482   -4.3667  -66.6256 C   0  0  0  0  0  0  0  0  0  0  0  0
   62.7965   -6.7805  -68.5868 N   0  0  0  0  0  0  0  0  0  0  0  0
   69.4500   -3.6201  -66.2409 C   0  0  0  0  0  0  0  0  0  0  0  0
   65.0099   -6.6070  -67.7726 C   0  0  0  0  0  0  0  0  0  0  0  0
   70.5054   -4.2522  -65.3901 O   0  0  0  0  0  0  0  0  0  0  0  0
   66.6131   -1.7343  -68.4314 O   0  0  0  0  0  0  0  0  0  0  0  0
   62.7684   -7.9544  -68.1994 C   0  0  0  0  0  0  0  0  0  0  0  0
   69.5873   -2.2322  -66.5777 C   0  0  0  0  0  0  0  0  0  0  0  0
   71.6817   -3.5936  -65.2199 C   0  0  0  0  0  0  0  0  0  0  0  0
   61.5778   -8.7623  -68.4788 C   0  0  0  0  0  0  0  0  0  0  0  0
   68.6264   -1.6744  -67.2832 C   0  0  0  0  0  0  0  0  0  0  0  0
   64.0373   -8.6072  -67.5843 C   0  0  0  0  0  0  0  0  0  0  0  0
   60.6972   -8.6738  -67.9499 O   0  0  0  0  0  0  0  0  0  0  0  0
   65.0713   -7.9161  -67.3266 C   0  0  0  0  0  0  0  0  0  0  0  0
   61.7441   -9.8755  -69.2920 O   0  0  0  0  0  0  0  0  0  0  0  0
  1  2  2  0
  2  3  1  0
  2  4  1  0
  3  5  2  0
  4  6  2  0
  6  7  1  0
  3  8  1  0
  7  9  1  0
  8 10  2  0
  1 11  1  0
  7 11  2  0
 10 12  1  0
  5 13  1  0
  9 14  2  0
 10 15  1  0
 12 16  1  0
 14 17  1  0
  5 18  1  0
 15 18  2  0
 14 19  1  0
 17 20  1  0
 11 21  1  0
 19 21  2  0
 17 22  2  0
M  END
>  <ID>  (1) 
conformer_0

$$$$
