
     RDKit          3D

 24 26  0  0  0  0  0  0  0  0999 V2000
   63.7996   -8.6715  -67.1951 N   0  0  0  0  0  0  0  0  0  0  0  0
   63.6537   -7.7077  -68.0602 C   0  0  0  0  0  0  0  0  0  0  0  0
   63.0211   -8.0180  -69.2340 C   0  0  0  0  0  0  0  0  0  0  0  0
   64.3816   -6.4532  -67.8573 C   0  0  0  0  0  0  0  0  0  0  0  0
   65.4703   -6.2540  -67.2904 C   0  0  0  0  0  0  0  0  0  0  0  0
   66.0586   -4.9751  -67.2111 C   0  0  0  0  0  0  0  0  0  0  0  0
   62.8057   -6.9412  -70.2717 C   0  0  0  0  0  0  0  0  0  0  0  0
   61.9320   -7.2746  -71.2930 C   0  0  0  0  0  0  0  0  0  0  0  0
   63.7404   -5.3907  -68.7527 C   0  0  0  0  0  0  0  0  0  0  0  0
   62.4918   -9.4297  -69.4499 C   0  0  0  0  0  0  0  0  0  0  0  0
   65.5871   -3.8841  -68.0174 C   0  0  0  0  0  0  0  0  0  0  0  0
   64.2916   -4.1166  -68.6196 C   0  0  0  0  0  0  0  0  0  0  0  0
   66.2121   -2.6266  -67.9935 C   0  0  0  0  0  0  0  0  0  0  0  0
   67.3605   -2.4605  -67.3388 C   0  0  0  0  0  0  0  0  0  0  0  0
   62.7049   -5.5758  -69.6973 C   0  0  0  0  0  0  0  0  0  0  0  0
   65.8928   -1.8058  -69.0583 C   0  0  0  0  0  0  0  0  0  0  0  0
   66.9351   -0.6124  -68.8830 C   0  0  0  0  0  0  0  0  0  0  0  0
   66.6978    0.3573  -69.9467 C   0  0  0  0  0  0  0  0  0  0  0  0
   61.2173   -9.6262  -68.9645 O   0  0  0  0  0  0  0  0  0  0  0  0
   65.5670    0.8105  -70.3749 O   0  0  0  0  0  0  0  0  0  0  0  0
   68.0125   -3.1088  -66.2835 C   0  0  0  0  0  0  0  0  0  0  0  0
   67.8734   -0.9331  -67.9349 C   0  0  0  0  0  0  0  0  0  0  0  0
   67.9541    0.8968  -70.3398 O   0  0  0  0  0  0  0  0  0  0  0  0
   67.9934    2.2620  -70.6398 C   0  0  0  0  0  0  0  0  0  0  0  0
  1  2  1  0
  2  3  2  0
  2  4  1  0
  4  5  1  0
  5  6  2  0
  3  7  1  0
  7  8  1  0
  4  9  2  0
  3 10  1  0
  6 11  1  0
  9 12  1  0
 11 12  2  0
 11 13  1  0
 13 14  1  0
  7 15  1  0
  9 15  1  0
 13 16  2  0
 16 17  1  0
 17 18  1  0
 10 19  1  0
 18 20  2  0
 14 21  1  0
 14 22  2  0
 17 22  2  0
 18 23  1  0
 23 24  1  0
M  END
>  <ID>  (1) 
conformer_0

$$$$
