
     RDKit          3D

 23 25  0  0  0  0  0  0  0  0999 V2000
   66.1729   -5.7793  -67.5476 C   0  0  0  0  0  0  0  0  0  0  0  0
   66.2903   -4.5528  -67.7209 C   0  0  0  0  0  0  0  0  0  0  0  0
   67.3062   -3.6957  -67.3670 C   0  0  0  0  0  0  0  0  0  0  0  0
   65.2058   -6.6296  -67.9937 C   0  0  0  0  0  0  0  0  0  0  0  0
   65.1686   -4.0150  -68.5455 C   0  0  0  0  0  0  0  0  0  0  0  0
   65.1212   -7.9919  -67.5910 C   0  0  0  0  0  0  0  0  0  0  0  0
   63.8694   -8.6290  -67.9037 C   0  0  0  0  0  0  0  0  0  0  0  0
   63.7767  -10.0661  -67.6541 N   0  0  0  0  0  0  0  0  0  0  0  0
   62.6763   -7.9667  -68.1887 N   0  0  0  0  0  0  0  0  0  0  0  0
   62.9062   -6.6301  -68.5201 C   0  0  0  0  0  0  0  0  0  0  0  0
   61.5399   -8.6861  -68.3934 C   0  0  0  0  0  0  0  0  0  0  0  0
   65.1955   -2.6021  -68.8524 C   0  0  0  0  0  0  0  0  0  0  0  0
   64.0505   -4.8708  -68.8713 C   0  0  0  0  0  0  0  0  0  0  0  0
   61.1647   -9.0399  -69.5214 O   0  0  0  0  0  0  0  0  0  0  0  0
   66.2833   -1.8430  -68.5635 C   0  0  0  0  0  0  0  0  0  0  0  0
   68.3837   -4.1631  -66.6133 O   0  0  0  0  0  0  0  0  0  0  0  0
   64.0268   -6.0211  -68.3934 C   0  0  0  0  0  0  0  0  0  0  0  0
   69.6067   -3.5740  -66.8942 C   0  0  0  0  0  0  0  0  0  0  0  0
   66.3343   -0.4863  -68.9253 O   0  0  0  0  0  0  0  0  0  0  0  0
   67.3216   -2.3552  -67.7238 C   0  0  0  0  0  0  0  0  0  0  0  0
   69.9506   -2.4282  -66.0207 C   0  0  0  0  0  0  0  0  0  0  0  0
   70.2787   -1.3652  -66.4307 C   0  0  0  0  0  0  0  0  0  0  0  0
   60.9306   -9.1643  -67.3075 O   0  0  0  0  0  0  0  0  0  0  0  0
  1  2  1  0
  2  3  1  0
  1  4  2  0
  2  5  2  0
  4  6  1  0
  6  7  2  0
  7  8  1  0
  7  9  1  0
  9 10  1  0
  9 11  1  0
  5 12  1  0
  5 13  1  0
 11 14  2  0
 12 15  2  0
  3 16  1  0
  4 17  1  0
 10 17  1  0
 13 17  1  0
 16 18  1  0
 15 19  1  0
  3 20  2  0
 15 20  1  0
 18 21  1  0
 21 22  2  0
 11 23  1  0
M  END
>  <ID>  (1) 
conformer_0

$$$$
