
     RDKit          3D

  7  7  0  0  0  0  0  0  0  0999 V2000
   60.8571  -10.0543  -69.1623 O   0  0  0  0  0  0  0  0  0  0  0  0
   61.9291   -9.5174  -69.0141 C   0  0  0  0  0  0  0  0  0  0  0  0
   62.7456   -9.6582  -68.0057 N   0  0  0  0  0  0  0  0  0  0  0  0
   62.0527   -8.1733  -69.8322 C   0  0  0  0  0  0  0  0  0  0  0  0
   63.8435   -8.7283  -67.9841 C   0  0  0  0  0  0  0  0  0  0  0  0
   63.9988   -7.7540  -68.7843 N   0  0  0  0  0  0  0  0  0  0  0  0
   63.0505   -7.4231  -69.7036 C   0  0  0  0  0  0  0  0  0  0  0  0
  1  2  2  0
  2  3  1  0
  2  4  1  0
  3  5  1  0
  5  6  2  0
  4  7  2  0
  6  7  1  0
M  END
>  <ID>  (1) 
conformer_0

$$$$
