
     RDKit          3D

 13 14  0  0  0  0  0  0  0  0999 V2000
   64.8158   -7.5497  -66.7677 C   0  0  0  0  0  0  0  0  0  0  0  0
   63.8984   -8.1658  -67.5378 C   0  0  0  0  0  0  0  0  0  0  0  0
   65.0050   -6.2619  -66.9650 C   0  0  0  0  0  0  0  0  0  0  0  0
   64.4353   -5.5649  -68.0340 C   0  0  0  0  0  0  0  0  0  0  0  0
   63.5252   -9.5229  -67.3602 N   0  0  0  0  0  0  0  0  0  0  0  0
   63.6356   -6.4443  -68.9200 C   0  0  0  0  0  0  0  0  0  0  0  0
   62.5880   -9.9981  -68.2848 C   0  0  0  0  0  0  0  0  0  0  0  0
   63.1100   -5.6840  -70.0884 C   0  0  0  0  0  0  0  0  0  0  0  0
   63.5203   -4.5392  -70.3984 O   0  0  0  0  0  0  0  0  0  0  0  0
   62.1508   -6.2674  -70.6532 O   0  0  0  0  0  0  0  0  0  0  0  0
   61.8842   -9.0274  -68.9840 C   0  0  0  0  0  0  0  0  0  0  0  0
   60.6769   -9.3263  -69.3657 O   0  0  0  0  0  0  0  0  0  0  0  0
   63.1244   -7.6001  -68.6360 C   0  0  0  0  0  0  0  0  0  0  0  0
  1  2  2  0
  1  3  1  0
  3  4  2  0
  2  5  1  0
  4  6  1  0
  5  7  1  0
  6  8  1  0
  8  9  1  0
  8 10  2  0
  7 11  1  0
 11 12  2  0
  2 13  1  0
  6 13  2  0
 11 13  1  0
M  END
>  <ID>  (1) 
conformer_0

$$$$
