
     RDKit          3D

 23 25  0  0  0  0  0  0  0  0999 V2000
   66.1729   -5.7793  -67.5476 C   0  0  0  0  0  0  0  0  0  0  0  0
   66.2903   -4.5528  -67.7209 C   0  0  0  0  0  0  0  0  0  0  0  0
   65.0053   -6.4918  -67.5695 C   0  0  0  0  0  0  0  0  0  0  0  0
   65.1228   -3.8134  -68.2663 C   0  0  0  0  0  0  0  0  0  0  0  0
   64.9469   -7.9565  -67.2550 C   0  0  0  0  0  0  0  0  0  0  0  0
   65.2626   -2.4610  -68.5173 O   0  0  0  0  0  0  0  0  0  0  0  0
   67.4725   -3.7535  -67.5350 C   0  0  0  0  0  0  0  0  0  0  0  0
   63.7083   -8.5196  -67.5200 N   0  0  0  0  0  0  0  0  0  0  0  0
   63.4827   -9.3146  -68.6680 C   0  0  0  0  0  0  0  0  0  0  0  0
   66.5346   -2.1093  -68.7544 C   0  0  0  0  0  0  0  0  0  0  0  0
   62.0069   -9.7165  -68.9225 C   0  0  0  0  0  0  0  0  0  0  0  0
   66.5651   -0.7208  -69.2631 C   0  0  0  0  0  0  0  0  0  0  0  0
   63.8247   -5.8449  -67.9982 C   0  0  0  0  0  0  0  0  0  0  0  0
   67.6259   -2.5655  -68.1007 C   0  0  0  0  0  0  0  0  0  0  0  0
   65.3542   -0.1778  -69.9130 O   0  0  0  0  0  0  0  0  0  0  0  0
   61.3659  -10.3058  -67.9877 O   0  0  0  0  0  0  0  0  0  0  0  0
   67.7555   -0.1136  -69.4012 C   0  0  0  0  0  0  0  0  0  0  0  0
   61.3701   -9.1819  -69.8737 O   0  0  0  0  0  0  0  0  0  0  0  0
   65.5231    0.8293  -70.6983 C   0  0  0  0  0  0  0  0  0  0  0  0
   68.7401   -0.2773  -68.6710 C   0  0  0  0  0  0  0  0  0  0  0  0
   68.8743   -1.5842  -67.8340 C   0  0  0  0  0  0  0  0  0  0  0  0
   69.8656   -2.0159  -67.1753 O   0  0  0  0  0  0  0  0  0  0  0  0
   63.8444   -4.3884  -68.3488 C   0  0  0  0  0  0  0  0  0  0  0  0
  1  2  1  0
  1  3  2  0
  2  4  2  0
  3  5  1  0
  4  6  1  0
  2  7  1  0
  5  8  1  0
  8  9  1  0
  6 10  1  0
  9 11  1  0
 10 12  2  0
  3 13  1  0
  7 14  2  0
 10 14  1  0
 12 15  1  0
 11 16  1  0
 12 17  1  0
 11 18  2  0
 15 19  1  0
 17 20  2  0
 14 21  1  0
 20 21  1  0
 21 22  2  0
  4 23  1  0
 13 23  2  0
M  END
>  <ID>  (1) 
conformer_0

$$$$
