
     RDKit          3D

 23 26  0  0  0  0  0  0  0  0999 V2000
   64.8158   -7.5497  -66.7677 C   0  0  0  0  0  0  0  0  0  0  0  0
   63.8984   -8.1658  -67.5378 C   0  0  0  0  0  0  0  0  0  0  0  0
   65.0050   -6.2619  -66.9650 C   0  0  0  0  0  0  0  0  0  0  0  0
   64.4353   -5.5649  -68.0340 C   0  0  0  0  0  0  0  0  0  0  0  0
   63.5252   -9.5229  -67.3602 N   0  0  0  0  0  0  0  0  0  0  0  0
   63.6356   -6.4443  -68.9200 C   0  0  0  0  0  0  0  0  0  0  0  0
   62.5880   -9.9981  -68.2848 C   0  0  0  0  0  0  0  0  0  0  0  0
   63.1100   -5.6840  -70.0884 C   0  0  0  0  0  0  0  0  0  0  0  0
   63.3475   -7.6459  -68.6421 C   0  0  0  0  0  0  0  0  0  0  0  0
   62.4332   -8.5650  -69.3947 C   0  0  0  0  0  0  0  0  0  0  0  0
   64.8140   -4.2074  -68.4436 C   0  0  0  0  0  0  0  0  0  0  0  0
   64.3647   -3.8062  -69.6498 C   0  0  0  0  0  0  0  0  0  0  0  0
   61.2074   -8.4249  -69.4620 O   0  0  0  0  0  0  0  0  0  0  0  0
   63.2742   -4.4670  -70.3515 C   0  0  0  0  0  0  0  0  0  0  0  0
   64.7268   -2.3175  -69.9285 C   0  0  0  0  0  0  0  0  0  0  0  0
   63.7990   -1.5431  -70.5919 C   0  0  0  0  0  0  0  0  0  0  0  0
   64.4623   -0.2203  -70.8357 C   0  0  0  0  0  0  0  0  0  0  0  0
   65.6499    0.1818  -70.3949 C   0  0  0  0  0  0  0  0  0  0  0  0
   65.9462   -2.0069  -69.3769 C   0  0  0  0  0  0  0  0  0  0  0  0
   62.0262  -10.8414  -68.5098 O   0  0  0  0  0  0  0  0  0  0  0  0
   66.4490   -0.7181  -69.5889 C   0  0  0  0  0  0  0  0  0  0  0  0
   65.9998    1.4758  -70.6324 O   0  0  0  0  0  0  0  0  0  0  0  0
   64.9776    2.4201  -70.6111 C   0  0  0  0  0  0  0  0  0  0  0  0
  1  2  2  0
  1  3  1  0
  3  4  2  0
  2  5  1  0
  4  6  1  0
  5  7  1  0
  6  8  1  0
  2  9  1  0
  6  9  2  0
  7 10  1  0
  9 10  1  0
  4 11  1  0
 11 12  2  0
 10 13  1  0
  8 14  2  0
 12 14  1  0
 12 15  1  0
 15 16  2  0
 16 17  1  0
 17 18  2  0
 15 19  1  0
  7 20  2  0
 18 21  1  0
 19 21  2  0
 18 22  1  0
 22 23  1  0
M  END
>  <ID>  (1) 
conformer_0

$$$$
