
     RDKit          3D

 24 27  0  0  0  0  0  0  0  0999 V2000
   66.1729   -5.7793  -67.5476 C   0  0  0  0  0  0  0  0  0  0  0  0
   66.2903   -4.5528  -67.7209 C   0  0  0  0  0  0  0  0  0  0  0  0
   65.1382   -3.9339  -68.3304 C   0  0  0  0  0  0  0  0  0  0  0  0
   65.1051   -6.5168  -67.7165 C   0  0  0  0  0  0  0  0  0  0  0  0
   63.9462   -5.7060  -68.3000 C   0  0  0  0  0  0  0  0  0  0  0  0
   62.7983   -6.6098  -68.6053 N   0  0  0  0  0  0  0  0  0  0  0  0
   64.5133   -7.7844  -67.4021 C   0  0  0  0  0  0  0  0  0  0  0  0
   65.3752   -2.4463  -68.5906 C   0  0  0  0  0  0  0  0  0  0  0  0
   67.4786   -3.8099  -67.4241 C   0  0  0  0  0  0  0  0  0  0  0  0
   68.5657   -4.4068  -66.9368 O   0  0  0  0  0  0  0  0  0  0  0  0
   64.0085   -4.4710  -68.6220 N   0  0  0  0  0  0  0  0  0  0  0  0
   62.8758   -7.7576  -68.8035 C   0  0  0  0  0  0  0  0  0  0  0  0
   63.6955   -8.5475  -67.9301 N   0  0  0  0  0  0  0  0  0  0  0  0
   61.5644   -8.5008  -69.0430 O   0  0  0  0  0  0  0  0  0  0  0  0
   69.7990   -3.7864  -67.0150 C   0  0  0  0  0  0  0  0  0  0  0  0
   61.6814   -9.8573  -69.4596 C   0  0  0  0  0  0  0  0  0  0  0  0
   62.4947  -10.1666  -70.3268 F   0  0  0  0  0  0  0  0  0  0  0  0
   66.5340   -1.8273  -68.3551 C   0  0  0  0  0  0  0  0  0  0  0  0
   67.6185   -2.4897  -67.7262 C   0  0  0  0  0  0  0  0  0  0  0  0
   69.6533   -2.4429  -66.3909 C   0  0  0  0  0  0  0  0  0  0  0  0
   68.6755   -1.7080  -67.3720 C   0  0  0  0  0  0  0  0  0  0  0  0
   68.9749   -2.3281  -65.1307 C   0  0  0  0  0  0  0  0  0  0  0  0
   70.9488   -1.7401  -66.2886 C   0  0  0  0  0  0  0  0  0  0  0  0
   60.8049  -10.6805  -69.0036 O   0  0  0  0  0  0  0  0  0  0  0  0
  1  2  1  0
  2  3  2  0
  1  4  2  0
  4  5  1  0
  5  6  1  0
  4  7  1  0
  3  8  1  0
  2  9  1  0
  9 10  1  0
  3 11  1  0
  5 11  2  0
  6 12  1  0
  7 13  2  0
 12 13  1  0
 12 14  1  0
 10 15  1  0
 14 16  1  0
 16 17  1  0
  8 18  2  0
  9 19  2  0
 18 19  1  0
 15 20  1  0
 19 21  1  0
 20 21  1  0
 20 22  1  0
 20 23  1  0
 16 24  2  0
M  END
>  <ID>  (1) 
conformer_0

$$$$
