
     RDKit          3D

 23 27  0  0  0  0  0  0  0  0999 V2000
   66.1729   -5.7793  -67.5476 C   0  0  0  0  0  0  0  0  0  0  0  0
   66.2903   -4.5528  -67.7209 C   0  0  0  0  0  0  0  0  0  0  0  0
   67.3062   -3.6957  -67.3670 C   0  0  0  0  0  0  0  0  0  0  0  0
   65.2058   -6.6296  -67.9937 C   0  0  0  0  0  0  0  0  0  0  0  0
   65.1686   -4.0150  -68.5455 C   0  0  0  0  0  0  0  0  0  0  0  0
   65.1212   -7.9919  -67.5910 C   0  0  0  0  0  0  0  0  0  0  0  0
   63.8694   -8.6290  -67.9037 C   0  0  0  0  0  0  0  0  0  0  0  0
   63.7767  -10.0661  -67.6541 N   0  0  0  0  0  0  0  0  0  0  0  0
   62.6763   -7.9667  -68.1887 N   0  0  0  0  0  0  0  0  0  0  0  0
   62.9062   -6.6301  -68.5201 C   0  0  0  0  0  0  0  0  0  0  0  0
   61.5399   -8.6861  -68.3934 C   0  0  0  0  0  0  0  0  0  0  0  0
   65.1955   -2.6021  -68.8524 C   0  0  0  0  0  0  0  0  0  0  0  0
   64.0555   -5.8997  -68.4211 C   0  0  0  0  0  0  0  0  0  0  0  0
   61.6625   -9.9992  -68.8578 C   0  0  0  0  0  0  0  0  0  0  0  0
   68.3671   -4.1229  -66.6582 C   0  0  0  0  0  0  0  0  0  0  0  0
   63.0529  -10.7421  -68.7333 C   0  0  0  0  0  0  0  0  0  0  0  0
   67.1122   -2.2291  -67.6753 C   0  0  0  0  0  0  0  0  0  0  0  0
   60.4546  -10.4925  -68.6494 O   0  0  0  0  0  0  0  0  0  0  0  0
   69.3206   -3.0419  -66.3922 C   0  0  0  0  0  0  0  0  0  0  0  0
   66.1784   -1.8112  -68.4868 C   0  0  0  0  0  0  0  0  0  0  0  0
   69.1819   -1.7186  -66.6861 C   0  0  0  0  0  0  0  0  0  0  0  0
   64.0511   -4.5614  -68.9040 O   0  0  0  0  0  0  0  0  0  0  0  0
   68.1196   -1.3243  -67.3903 C   0  0  0  0  0  0  0  0  0  0  0  0
  1  2  1  0
  2  3  1  0
  1  4  2  0
  2  5  2  0
  4  6  1  0
  6  7  2  0
  7  8  1  0
  7  9  1  0
  9 10  1  0
  9 11  1  0
  5 12  1  0
  4 13  1  0
 10 13  2  0
 11 14  1  0
  3 15  2  0
  8 16  1  0
 14 16  1  0
  3 17  1  0
 14 18  1  0
 15 19  1  0
 12 20  2  0
 17 20  1  0
 19 21  2  0
  5 22  1  0
 13 22  1  0
 17 23  2  0
 21 23  1  0
M  END
>  <ID>  (1) 
conformer_0

$$$$
