
     RDKit          3D

 23 26  0  0  0  0  0  0  0  0999 V2000
   66.1729   -5.7793  -67.5476 C   0  0  0  0  0  0  0  0  0  0  0  0
   66.2903   -4.5528  -67.7209 C   0  0  0  0  0  0  0  0  0  0  0  0
   67.3062   -3.6957  -67.3670 C   0  0  0  0  0  0  0  0  0  0  0  0
   65.2058   -6.6296  -67.9937 C   0  0  0  0  0  0  0  0  0  0  0  0
   65.1686   -4.0150  -68.5455 C   0  0  0  0  0  0  0  0  0  0  0  0
   65.1212   -7.9919  -67.5910 C   0  0  0  0  0  0  0  0  0  0  0  0
   63.8694   -8.6290  -67.9037 C   0  0  0  0  0  0  0  0  0  0  0  0
   63.7767  -10.0661  -67.6541 N   0  0  0  0  0  0  0  0  0  0  0  0
   62.6763   -7.9667  -68.1887 N   0  0  0  0  0  0  0  0  0  0  0  0
   62.9062   -6.6301  -68.5201 C   0  0  0  0  0  0  0  0  0  0  0  0
   61.5399   -8.6861  -68.3934 C   0  0  0  0  0  0  0  0  0  0  0  0
   67.3630   -2.4042  -67.7805 C   0  0  0  0  0  0  0  0  0  0  0  0
   64.1254   -5.9821  -68.6567 C   0  0  0  0  0  0  0  0  0  0  0  0
   68.2587   -4.1369  -66.5131 C   0  0  0  0  0  0  0  0  0  0  0  0
   66.4655   -1.8112  -68.6219 C   0  0  0  0  0  0  0  0  0  0  0  0
   60.6765   -8.6015  -67.8264 O   0  0  0  0  0  0  0  0  0  0  0  0
   61.5153   -9.8663  -69.3637 C   0  0  0  0  0  0  0  0  0  0  0  0
   68.4057   -1.5570  -67.3209 C   0  0  0  0  0  0  0  0  0  0  0  0
   64.1567   -4.5963  -68.8939 C   0  0  0  0  0  0  0  0  0  0  0  0
   69.3604   -2.0298  -66.4781 C   0  0  0  0  0  0  0  0  0  0  0  0
   65.4014   -2.5249  -69.0387 C   0  0  0  0  0  0  0  0  0  0  0  0
   69.3571   -3.2571  -66.0993 C   0  0  0  0  0  0  0  0  0  0  0  0
   70.4389   -1.1715  -66.1144 C   0  0  0  0  0  0  0  0  0  0  0  0
  1  2  1  0
  2  3  1  0
  1  4  2  0
  2  5  2  0
  4  6  1  0
  6  7  2  0
  7  8  1  0
  7  9  1  0
  9 10  1  0
  9 11  1  0
  3 12  1  0
  4 13  1  0
 10 13  1  0
  3 14  2  0
 12 15  1  0
 11 16  2  0
 11 17  1  0
 12 18  2  0
  5 19  1  0
 13 19  2  0
 18 20  1  0
  5 21  1  0
 15 21  2  0
 14 22  1  0
 20 22  2  0
 20 23  1  0
M  END
>  <ID>  (1) 
conformer_0

$$$$
