
     RDKit          3D

 17 19  0  0  0  0  0  0  0  0999 V2000
   66.1729   -5.7793  -67.5476 C   0  0  0  0  0  0  0  0  0  0  0  0
   66.2903   -4.5528  -67.7209 C   0  0  0  0  0  0  0  0  0  0  0  0
   65.1382   -3.9339  -68.3304 C   0  0  0  0  0  0  0  0  0  0  0  0
   65.1051   -6.5168  -67.7165 C   0  0  0  0  0  0  0  0  0  0  0  0
   63.9462   -5.7060  -68.3000 C   0  0  0  0  0  0  0  0  0  0  0  0
   62.7983   -6.6098  -68.6053 N   0  0  0  0  0  0  0  0  0  0  0  0
   65.3136   -2.4518  -68.6053 C   0  0  0  0  0  0  0  0  0  0  0  0
   66.5532   -1.9495  -68.6583 C   0  0  0  0  0  0  0  0  0  0  0  0
   64.5980   -7.8494  -67.3200 C   0  0  0  0  0  0  0  0  0  0  0  0
   63.0068   -7.8241  -68.2626 C   0  0  0  0  0  0  0  0  0  0  0  0
   66.6912   -0.6360  -68.9409 O   0  0  0  0  0  0  0  0  0  0  0  0
   63.9969   -4.4728  -68.5947 C   0  0  0  0  0  0  0  0  0  0  0  0
   66.2913   -0.1265  -69.9826 C   0  0  0  0  0  0  0  0  0  0  0  0
   67.5190   -3.9193  -67.6158 C   0  0  0  0  0  0  0  0  0  0  0  0
   68.6548   -4.5575  -67.1175 O   0  0  0  0  0  0  0  0  0  0  0  0
   67.6748   -2.6087  -67.9683 C   0  0  0  0  0  0  0  0  0  0  0  0
   62.3775   -8.7918  -68.2929 O   0  0  0  0  0  0  0  0  0  0  0  0
  1  2  1  0
  2  3  2  0
  1  4  2  0
  4  5  1  0
  5  6  1  0
  3  7  1  0
  7  8  2  0
  4  9  1  0
  6 10  1  0
  9 10  1  0
  8 11  1  0
  3 12  1  0
  5 12  2  0
 11 13  1  0
  2 14  1  0
 14 15  1  0
  8 16  1  0
 14 16  2  0
 10 17  2  0
M  END
>  <ID>  (1) 
conformer_0

$$$$
