
     RDKit          3D

 18 19  0  0  0  0  0  0  0  0999 V2000
   66.1729   -5.7793  -67.5476 C   0  0  0  0  0  0  0  0  0  0  0  0
   64.9244   -6.0750  -67.8965 C   0  0  0  0  0  0  0  0  0  0  0  0
   66.9194   -5.0313  -68.4167 C   0  0  0  0  0  0  0  0  0  0  0  0
   67.7418   -3.9450  -67.7359 C   0  0  0  0  0  0  0  0  0  0  0  0
   68.3818   -4.0705  -66.6167 C   0  0  0  0  0  0  0  0  0  0  0  0
   69.1386   -2.9650  -66.0324 C   0  0  0  0  0  0  0  0  0  0  0  0
   64.4679   -6.2609  -69.0306 C   0  0  0  0  0  0  0  0  0  0  0  0
   64.4405   -7.4250  -67.1314 C   0  0  0  0  0  0  0  0  0  0  0  0
   63.4758   -5.4056  -69.5742 O   0  0  0  0  0  0  0  0  0  0  0  0
   67.7188   -2.6398  -68.4931 C   0  0  0  0  0  0  0  0  0  0  0  0
   63.8149   -7.7129  -69.2842 C   0  0  0  0  0  0  0  0  0  0  0  0
   69.8257   -3.1568  -64.8295 O   0  0  0  0  0  0  0  0  0  0  0  0
   69.0785   -1.6970  -66.5904 C   0  0  0  0  0  0  0  0  0  0  0  0
   63.3908   -8.0838  -67.9101 C   0  0  0  0  0  0  0  0  0  0  0  0
   62.6358   -7.8757  -70.1389 O   0  0  0  0  0  0  0  0  0  0  0  0
   68.3774   -1.5712  -67.8226 C   0  0  0  0  0  0  0  0  0  0  0  0
   70.7955   -2.2669  -64.4418 C   0  0  0  0  0  0  0  0  0  0  0  0
   63.0708   -9.3983  -67.6754 N   0  0  0  0  0  0  0  0  0  0  0  0
  1  2  1  0
  1  3  1  0
  3  4  1  0
  4  5  2  0
  5  6  1  0
  2  7  1  0
  2  8  1  0
  7  9  1  0
  4 10  1  0
  7 11  1  0
  6 12  1  0
  6 13  2  0
  8 14  1  0
 11 14  1  0
 11 15  1  0
 10 16  2  0
 13 16  1  0
 12 17  1  0
 14 18  1  0
M  END
>  <ID>  (1) 
conformer_0

$$$$
