
     RDKit          3D

 24 26  0  0  0  0  0  0  0  0999 V2000
   66.1729   -5.7793  -67.5476 C   0  0  0  0  0  0  0  0  0  0  0  0
   66.2903   -4.5528  -67.7209 C   0  0  0  0  0  0  0  0  0  0  0  0
   65.1382   -3.9339  -68.3304 C   0  0  0  0  0  0  0  0  0  0  0  0
   65.1051   -6.5168  -67.7165 C   0  0  0  0  0  0  0  0  0  0  0  0
   63.9462   -5.7060  -68.3000 C   0  0  0  0  0  0  0  0  0  0  0  0
   62.7983   -6.6098  -68.6053 N   0  0  0  0  0  0  0  0  0  0  0  0
   65.3136   -2.4518  -68.6053 C   0  0  0  0  0  0  0  0  0  0  0  0
   66.5532   -1.9495  -68.6583 C   0  0  0  0  0  0  0  0  0  0  0  0
   63.9848   -4.4625  -68.6466 C   0  0  0  0  0  0  0  0  0  0  0  0
   64.7528   -7.8788  -67.3033 C   0  0  0  0  0  0  0  0  0  0  0  0
   67.5976   -2.5242  -67.9187 C   0  0  0  0  0  0  0  0  0  0  0  0
   62.7189   -7.8202  -68.2870 C   0  0  0  0  0  0  0  0  0  0  0  0
   61.5210   -8.5668  -68.5170 N   0  0  0  0  0  0  0  0  0  0  0  0
   68.8543   -1.9336  -67.7385 O   0  0  0  0  0  0  0  0  0  0  0  0
   69.0318   -1.1554  -66.6330 C   0  0  0  0  0  0  0  0  0  0  0  0
   69.4783   -1.9089  -65.4839 C   0  0  0  0  0  0  0  0  0  0  0  0
   70.6997   -2.7736  -65.7716 C   0  0  0  0  0  0  0  0  0  0  0  0
   63.8322   -8.5067  -67.4858 N   0  0  0  0  0  0  0  0  0  0  0  0
   61.5753  -10.0009  -68.8452 C   0  0  0  0  0  0  0  0  0  0  0  0
   71.3244   -3.2564  -64.7278 O   0  0  0  0  0  0  0  0  0  0  0  0
   67.4958   -3.8499  -67.5456 C   0  0  0  0  0  0  0  0  0  0  0  0
   71.0825   -3.0386  -66.8590 O   0  0  0  0  0  0  0  0  0  0  0  0
   62.2214  -10.6388  -69.5610 O   0  0  0  0  0  0  0  0  0  0  0  0
   60.3408  -10.5298  -68.2530 O   0  0  0  0  0  0  0  0  0  0  0  0
  1  2  1  0
  2  3  2  0
  1  4  2  0
  4  5  1  0
  5  6  1  0
  3  7  1  0
  7  8  2  0
  3  9  1  0
  5  9  2  0
  4 10  1  0
  8 11  1  0
  6 12  2  0
 12 13  1  0
 11 14  1  0
 14 15  1  0
 15 16  1  0
 16 17  1  0
 10 18  2  0
 12 18  1  0
 13 19  1  0
 17 20  1  0
  2 21  1  0
 11 21  2  0
 17 22  2  0
 19 23  2  0
 19 24  1  0
M  END
>  <ID>  (1) 
conformer_0

$$$$
