
     RDKit          3D

 24 27  0  0  0  0  0  0  0  0999 V2000
   68.4928   -1.6238  -66.7102 C   0  0  0  0  0  0  0  0  0  0  0  0
   67.5163   -2.5274  -67.1198 C   0  0  0  0  0  0  0  0  0  0  0  0
   66.2646   -2.0947  -67.5985 O   0  0  0  0  0  0  0  0  0  0  0  0
   65.4176   -3.1331  -68.0702 C   0  0  0  0  0  0  0  0  0  0  0  0
   64.2577   -2.8794  -68.5719 O   0  0  0  0  0  0  0  0  0  0  0  0
   67.6886   -3.9555  -66.9273 C   0  0  0  0  0  0  0  0  0  0  0  0
   69.6641   -2.1635  -66.1847 C   0  0  0  0  0  0  0  0  0  0  0  0
   66.5735   -4.8261  -67.3934 C   0  0  0  0  0  0  0  0  0  0  0  0
   65.7242   -4.3851  -67.9030 C   0  0  0  0  0  0  0  0  0  0  0  0
   68.9425   -4.3424  -66.4494 C   0  0  0  0  0  0  0  0  0  0  0  0
   64.6272   -5.3877  -68.3555 C   0  0  0  0  0  0  0  0  0  0  0  0
   64.8639   -6.7608  -68.0912 C   0  0  0  0  0  0  0  0  0  0  0  0
   66.8673   -6.2110  -67.1624 C   0  0  0  0  0  0  0  0  0  0  0  0
   69.9017   -3.4101  -66.0964 C   0  0  0  0  0  0  0  0  0  0  0  0
   63.7937   -7.7228  -68.4976 C   0  0  0  0  0  0  0  0  0  0  0  0
   63.1133   -8.2612  -67.5308 N   0  0  0  0  0  0  0  0  0  0  0  0
   62.2279   -9.2088  -68.0146 N   0  0  0  0  0  0  0  0  0  0  0  0
   63.4400   -8.1599  -69.6694 N   0  0  0  0  0  0  0  0  0  0  0  0
   62.4528   -9.0619  -69.3512 C   0  0  0  0  0  0  0  0  0  0  0  0
   65.8613   -7.0944  -67.5747 C   0  0  0  0  0  0  0  0  0  0  0  0
   61.7201   -9.7480  -70.2438 O   0  0  0  0  0  0  0  0  0  0  0  0
   71.1216   -3.8058  -65.4972 F   0  0  0  0  0  0  0  0  0  0  0  0
   70.7101   -1.1837  -65.7912 F   0  0  0  0  0  0  0  0  0  0  0  0
   61.3277   -9.8579  -67.3637 O   0  0  0  0  0  0  0  0  0  0  0  0
  1  2  2  0
  2  3  1  0
  3  4  1  0
  4  5  2  0
  2  6  1  0
  1  7  1  0
  6  8  1  0
  4  9  1  0
  8  9  1  0
  6 10  2  0
  9 11  2  0
 11 12  1  0
  8 13  2  0
  7 14  2  0
 10 14  1  0
 12 15  1  0
 15 16  1  0
 16 17  1  0
 15 18  2  0
 17 19  1  0
 18 19  1  0
 12 20  2  0
 13 20  1  0
 19 21  2  0
 14 22  1  0
  7 23  1  0
 17 24  1  0
M  END
>  <ID>  (1) 
conformer_0

$$$$
