
     RDKit          3D

 15 16  0  0  0  0  0  0  0  0999 V2000
   66.1729   -5.7793  -67.5476 C   0  0  0  0  0  0  0  0  0  0  0  0
   64.9244   -6.0750  -67.8965 C   0  0  0  0  0  0  0  0  0  0  0  0
   66.9194   -5.0313  -68.4167 C   0  0  0  0  0  0  0  0  0  0  0  0
   67.7418   -3.9450  -67.7359 C   0  0  0  0  0  0  0  0  0  0  0  0
   68.3818   -4.0705  -66.6167 C   0  0  0  0  0  0  0  0  0  0  0  0
   69.1386   -2.9650  -66.0324 C   0  0  0  0  0  0  0  0  0  0  0  0
   64.4679   -6.2609  -69.0306 C   0  0  0  0  0  0  0  0  0  0  0  0
   63.1120   -6.7979  -69.2619 C   0  0  0  0  0  0  0  0  0  0  0  0
   64.5465   -7.3724  -67.0738 C   0  0  0  0  0  0  0  0  0  0  0  0
   63.2254   -7.9346  -67.3026 N   0  0  0  0  0  0  0  0  0  0  0  0
   67.7161   -2.6641  -68.5167 C   0  0  0  0  0  0  0  0  0  0  0  0
   69.0288   -1.6923  -66.6449 C   0  0  0  0  0  0  0  0  0  0  0  0
   62.9144   -7.9460  -68.5389 C   0  0  0  0  0  0  0  0  0  0  0  0
   63.2595   -9.1225  -69.2025 C   0  0  0  0  0  0  0  0  0  0  0  0
   68.3316   -1.5552  -67.8926 C   0  0  0  0  0  0  0  0  0  0  0  0
  1  2  1  0
  1  3  1  0
  3  4  1  0
  4  5  2  0
  5  6  1  0
  2  7  1  0
  7  8  1  0
  2  9  1  0
  9 10  1  0
  4 11  1  0
  6 12  2  0
  8 13  1  0
 10 13  1  0
 13 14  1  0
 11 15  2  0
 12 15  1  0
M  END
>  <ID>  (1) 
conformer_0

$$$$
