
     RDKit          3D

 24 28  0  0  0  0  0  0  0  0999 V2000
   64.8158   -7.5497  -66.7677 C   0  0  0  0  0  0  0  0  0  0  0  0
   63.8984   -8.1658  -67.5378 C   0  0  0  0  0  0  0  0  0  0  0  0
   65.0050   -6.2619  -66.9650 C   0  0  0  0  0  0  0  0  0  0  0  0
   64.4353   -5.5649  -68.0340 C   0  0  0  0  0  0  0  0  0  0  0  0
   63.5252   -9.5229  -67.3602 N   0  0  0  0  0  0  0  0  0  0  0  0
   63.6356   -6.4443  -68.9200 C   0  0  0  0  0  0  0  0  0  0  0  0
   62.5880   -9.9981  -68.2848 C   0  0  0  0  0  0  0  0  0  0  0  0
   63.1100   -5.6840  -70.0884 C   0  0  0  0  0  0  0  0  0  0  0  0
   62.1142  -11.2268  -68.4178 O   0  0  0  0  0  0  0  0  0  0  0  0
   61.8358   -8.9547  -69.0362 C   0  0  0  0  0  0  0  0  0  0  0  0
   64.7244   -4.2895  -68.6285 C   0  0  0  0  0  0  0  0  0  0  0  0
   65.9131   -3.5773  -68.1049 C   0  0  0  0  0  0  0  0  0  0  0  0
   62.0734   -6.3215  -70.7728 O   0  0  0  0  0  0  0  0  0  0  0  0
   63.2717   -7.6637  -68.6108 C   0  0  0  0  0  0  0  0  0  0  0  0
   64.4074   -3.9431  -69.8699 C   0  0  0  0  0  0  0  0  0  0  0  0
   66.6016   -3.7915  -66.9081 C   0  0  0  0  0  0  0  0  0  0  0  0
   63.3888   -4.5100  -70.4594 N   0  0  0  0  0  0  0  0  0  0  0  0
   66.3837   -2.5268  -68.6689 C   0  0  0  0  0  0  0  0  0  0  0  0
   61.9125   -9.0366  -70.3397 O   0  0  0  0  0  0  0  0  0  0  0  0
   60.7828   -8.7626  -68.5001 O   0  0  0  0  0  0  0  0  0  0  0  0
   65.7746   -2.1558  -69.8930 N   0  0  0  0  0  0  0  0  0  0  0  0
   67.4684   -1.8763  -68.0443 C   0  0  0  0  0  0  0  0  0  0  0  0
   64.7147   -2.5929  -70.2435 C   0  0  0  0  0  0  0  0  0  0  0  0
   67.6075   -2.6758  -66.8654 C   0  0  0  0  0  0  0  0  0  0  0  0
  1  2  2  0
  1  3  1  0
  3  4  2  0
  2  5  1  0
  4  6  1  0
  5  7  1  0
  6  8  1  0
  7  9  2  0
  7 10  1  0
  4 11  1  0
 11 12  1  0
  8 13  2  0
  2 14  1  0
  6 14  2  0
 10 14  1  0
 11 15  2  0
 12 16  1  0
  8 17  1  0
 15 17  1  0
 12 18  2  0
 10 19  1  0
 10 20  1  0
 18 21  1  0
 18 22  1  0
 15 23  1  0
 21 23  2  0
 16 24  2  0
 22 24  2  0
M  END
>  <ID>  (1) 
conformer_0

$$$$
