
     RDKit          3D

  6  6  0  0  0  0  0  0  0  0999 V2000
   70.6902   -2.4823  -64.9918 C   0  0  0  0  0  0  0  0  0  0  0  0
   71.2418   -3.3146  -65.6777 C   0  0  0  0  0  0  0  0  0  0  0  0
   69.5290   -1.7693  -65.5485 C   0  0  0  0  0  0  0  0  0  0  0  0
   68.9583   -2.2824  -66.6464 C   0  0  0  0  0  0  0  0  0  0  0  0
   70.6339   -4.0092  -66.7655 C   0  0  0  0  0  0  0  0  0  0  0  0
   69.3948   -3.4914  -67.2068 C   0  0  0  0  0  0  0  0  0  0  0  0
  1  2  2  0
  1  3  1  0
  3  4  2  0
  2  5  1  0
  4  6  1  0
  5  6  2  0
M  END
>  <ID>  (1) 
conformer_0

$$$$
