
     RDKit          3D

 16 17  0  0  0  0  0  0  0  0999 V2000
   66.1729   -5.7793  -67.5476 C   0  0  0  0  0  0  0  0  0  0  0  0
   64.9244   -6.0750  -67.8965 C   0  0  0  0  0  0  0  0  0  0  0  0
   66.9194   -5.0313  -68.4167 C   0  0  0  0  0  0  0  0  0  0  0  0
   67.7418   -3.9450  -67.7359 C   0  0  0  0  0  0  0  0  0  0  0  0
   68.3818   -4.0705  -66.6167 C   0  0  0  0  0  0  0  0  0  0  0  0
   69.1386   -2.9650  -66.0324 C   0  0  0  0  0  0  0  0  0  0  0  0
   64.4679   -6.2609  -69.0306 C   0  0  0  0  0  0  0  0  0  0  0  0
   64.4405   -7.4250  -67.1314 C   0  0  0  0  0  0  0  0  0  0  0  0
   69.1704   -1.7491  -66.6645 C   0  0  0  0  0  0  0  0  0  0  0  0
   67.7446   -2.6429  -68.4445 C   0  0  0  0  0  0  0  0  0  0  0  0
   63.3810   -8.1076  -67.7337 C   0  0  0  0  0  0  0  0  0  0  0  0
   69.9707   -0.6407  -65.9774 C   0  0  0  0  0  0  0  0  0  0  0  0
   63.3550   -9.4694  -67.8182 O   0  0  0  0  0  0  0  0  0  0  0  0
   63.4178   -7.5028  -69.0943 C   0  0  0  0  0  0  0  0  0  0  0  0
   63.8128   -8.2984  -70.1283 O   0  0  0  0  0  0  0  0  0  0  0  0
   68.4052   -1.5662  -67.8329 C   0  0  0  0  0  0  0  0  0  0  0  0
  1  2  1  0
  1  3  1  0
  3  4  1  0
  4  5  2  0
  5  6  1  0
  2  7  1  0
  2  8  1  0
  6  9  2  0
  4 10  1  0
  8 11  1  0
  9 12  1  0
 11 13  1  0
  7 14  1  0
 11 14  1  0
 14 15  1  0
  9 16  1  0
 10 16  2  0
M  END
>  <ID>  (1) 
conformer_0

$$$$
