
     RDKit          3D

 21 23  0  0  0  0  0  0  0  0999 V2000
   66.1729   -5.7793  -67.5476 C   0  0  0  0  0  0  0  0  0  0  0  0
   66.2903   -4.5528  -67.7209 C   0  0  0  0  0  0  0  0  0  0  0  0
   65.0053   -6.4918  -67.5695 C   0  0  0  0  0  0  0  0  0  0  0  0
   65.1228   -3.8134  -68.2663 C   0  0  0  0  0  0  0  0  0  0  0  0
   64.9469   -7.9565  -67.2550 C   0  0  0  0  0  0  0  0  0  0  0  0
   65.2626   -2.4610  -68.5173 O   0  0  0  0  0  0  0  0  0  0  0  0
   67.4725   -3.7535  -67.5350 C   0  0  0  0  0  0  0  0  0  0  0  0
   63.7083   -8.5196  -67.5200 N   0  0  0  0  0  0  0  0  0  0  0  0
   63.4827   -9.3146  -68.6680 C   0  0  0  0  0  0  0  0  0  0  0  0
   66.5346   -2.1093  -68.7544 C   0  0  0  0  0  0  0  0  0  0  0  0
   67.5573   -2.4943  -67.9860 C   0  0  0  0  0  0  0  0  0  0  0  0
   68.7540   -1.8873  -67.8777 N   0  0  0  0  0  0  0  0  0  0  0  0
   63.8744   -4.5293  -68.3543 C   0  0  0  0  0  0  0  0  0  0  0  0
   69.7595   -2.3584  -67.0618 C   0  0  0  0  0  0  0  0  0  0  0  0
   68.7130   -4.1527  -66.8795 N   0  0  0  0  0  0  0  0  0  0  0  0
   62.0047   -9.6642  -68.8949 C   0  0  0  0  0  0  0  0  0  0  0  0
   69.6224   -3.3754  -66.6451 C   0  0  0  0  0  0  0  0  0  0  0  0
   61.5338  -10.0339  -69.8792 O   0  0  0  0  0  0  0  0  0  0  0  0
   61.1611   -9.3588  -67.9149 O   0  0  0  0  0  0  0  0  0  0  0  0
   63.9084   -5.8319  -68.1555 C   0  0  0  0  0  0  0  0  0  0  0  0
   71.0372   -1.2899  -66.7613 C   0  0  0  0  0  0  0  0  0  0  0  0
  1  2  1  0
  1  3  2  0
  2  4  2  0
  3  5  1  0
  4  6  1  0
  2  7  1  0
  5  8  1  0
  8  9  1  0
  6 10  1  0
  7 11  1  0
 10 11  1  0
 11 12  2  0
  4 13  1  0
 12 14  1  0
  7 15  2  0
  9 16  1  0
 14 17  2  0
 15 17  1  0
 16 18  2  0
 16 19  1  0
  3 20  1  0
 13 20  2  0
 14 21  1  0
M  END
>  <ID>  (1) 
conformer_0

$$$$
