
     RDKit          3D

 21 22  0  0  0  0  0  0  0  0999 V2000
   66.1729   -5.7793  -67.5476 C   0  0  0  0  0  0  0  0  0  0  0  0
   66.2903   -4.5528  -67.7209 C   0  0  0  0  0  0  0  0  0  0  0  0
   65.0053   -6.4918  -67.5695 C   0  0  0  0  0  0  0  0  0  0  0  0
   65.1228   -3.8134  -68.2663 C   0  0  0  0  0  0  0  0  0  0  0  0
   64.9469   -7.9565  -67.2550 C   0  0  0  0  0  0  0  0  0  0  0  0
   65.2626   -2.4610  -68.5173 O   0  0  0  0  0  0  0  0  0  0  0  0
   67.4725   -3.7535  -67.5350 C   0  0  0  0  0  0  0  0  0  0  0  0
   63.7083   -8.5196  -67.5200 N   0  0  0  0  0  0  0  0  0  0  0  0
   63.4827   -9.3146  -68.6680 C   0  0  0  0  0  0  0  0  0  0  0  0
   66.5346   -2.1093  -68.7544 C   0  0  0  0  0  0  0  0  0  0  0  0
   62.0069   -9.7165  -68.9225 C   0  0  0  0  0  0  0  0  0  0  0  0
   66.5651   -0.7208  -69.2631 C   0  0  0  0  0  0  0  0  0  0  0  0
   63.8247   -5.8449  -67.9982 C   0  0  0  0  0  0  0  0  0  0  0  0
   65.4607   -0.1547  -69.9050 C   0  0  0  0  0  0  0  0  0  0  0  0
   61.1008   -9.1491  -68.6599 O   0  0  0  0  0  0  0  0  0  0  0  0
   64.4013   -0.6614  -70.0797 O   0  0  0  0  0  0  0  0  0  0  0  0
   63.9117   -4.4107  -68.3071 C   0  0  0  0  0  0  0  0  0  0  0  0
   61.8869  -10.7015  -69.8257 O   0  0  0  0  0  0  0  0  0  0  0  0
   65.5619    1.1976  -70.3225 O   0  0  0  0  0  0  0  0  0  0  0  0
   67.6368   -2.5365  -68.1041 C   0  0  0  0  0  0  0  0  0  0  0  0
   64.5874    1.9210  -70.7848 C   0  0  0  0  0  0  0  0  0  0  0  0
  1  2  1  0
  1  3  2  0
  2  4  2  0
  3  5  1  0
  4  6  1  0
  2  7  1  0
  5  8  1  0
  8  9  1  0
  6 10  1  0
  9 11  1  0
 10 12  2  3
  3 13  1  0
 12 14  1  0
 11 15  2  0
 14 16  2  0
  4 17  1  0
 13 17  2  0
 11 18  1  0
 14 19  1  0
  7 20  2  0
 10 20  1  0
 19 21  1  0
M  END
>  <ID>  (1) 
conformer_0

$$$$
