
     RDKit          3D

 24 27  0  0  0  0  0  0  0  0999 V2000
   66.1729   -5.7793  -67.5476 C   0  0  0  0  0  0  0  0  0  0  0  0
   64.9244   -6.0750  -67.8965 C   0  0  0  0  0  0  0  0  0  0  0  0
   66.9194   -5.0313  -68.4167 C   0  0  0  0  0  0  0  0  0  0  0  0
   67.7418   -3.9450  -67.7359 C   0  0  0  0  0  0  0  0  0  0  0  0
   68.3818   -4.0705  -66.6167 C   0  0  0  0  0  0  0  0  0  0  0  0
   69.1386   -2.9650  -66.0324 C   0  0  0  0  0  0  0  0  0  0  0  0
   64.4679   -6.2609  -69.0306 C   0  0  0  0  0  0  0  0  0  0  0  0
   64.4405   -7.4250  -67.1314 C   0  0  0  0  0  0  0  0  0  0  0  0
   63.4758   -5.4056  -69.5742 O   0  0  0  0  0  0  0  0  0  0  0  0
   67.7188   -2.6398  -68.4931 C   0  0  0  0  0  0  0  0  0  0  0  0
   63.8149   -7.7129  -69.2842 C   0  0  0  0  0  0  0  0  0  0  0  0
   69.8257   -3.1568  -64.8295 C   0  0  0  0  0  0  0  0  0  0  0  0
   70.6780   -2.1730  -64.3602 C   0  0  0  0  0  0  0  0  0  0  0  0
   70.7780   -1.0213  -65.0795 C   0  0  0  0  0  0  0  0  0  0  0  0
   63.3691   -8.0724  -67.9136 C   0  0  0  0  0  0  0  0  0  0  0  0
   66.8968   -2.4456  -69.5185 O   0  0  0  0  0  0  0  0  0  0  0  0
   70.1264   -0.8919  -66.2572 C   0  0  0  0  0  0  0  0  0  0  0  0
   69.3294   -1.9111  -66.7487 C   0  0  0  0  0  0  0  0  0  0  0  0
   62.8090   -7.9784  -70.2480 C   0  0  0  0  0  0  0  0  0  0  0  0
   68.4958   -1.5757  -68.0435 C   0  0  0  0  0  0  0  0  0  0  0  0
   62.9833   -9.3973  -67.6383 N   0  0  0  0  0  0  0  0  0  0  0  0
   61.7668   -9.7749  -68.4152 C   0  0  0  0  0  0  0  0  0  0  0  0
   60.8616  -10.3541  -68.0232 O   0  0  0  0  0  0  0  0  0  0  0  0
   61.9648   -9.3169  -69.9618 C   0  0  0  0  0  0  0  0  0  0  0  0
  1  2  1  0
  1  3  1  0
  3  4  1  0
  4  5  2  0
  5  6  1  0
  2  7  1  0
  2  8  1  0
  7  9  1  0
  4 10  1  0
  7 11  1  0
  6 12  1  0
 12 13  2  0
 13 14  1  0
  8 15  1  0
 11 15  1  0
 10 16  2  0
 14 17  2  0
  6 18  2  0
 17 18  1  0
 11 19  1  0
 10 20  1  0
 18 20  1  0
 15 21  1  0
 21 22  1  0
 22 23  2  0
 19 24  1  0
 22 24  1  0
M  END
>  <ID>  (1) 
conformer_0

$$$$
