
     RDKit          3D

 23 25  0  0  0  0  0  0  0  0999 V2000
   66.1729   -5.7793  -67.5476 C   0  0  0  0  0  0  0  0  0  0  0  0
   66.2903   -4.5528  -67.7209 C   0  0  0  0  0  0  0  0  0  0  0  0
   65.0053   -6.4918  -67.5695 C   0  0  0  0  0  0  0  0  0  0  0  0
   65.1228   -3.8134  -68.2663 C   0  0  0  0  0  0  0  0  0  0  0  0
   64.9469   -7.9565  -67.2550 C   0  0  0  0  0  0  0  0  0  0  0  0
   65.2626   -2.4610  -68.5173 O   0  0  0  0  0  0  0  0  0  0  0  0
   67.4725   -3.7535  -67.5350 C   0  0  0  0  0  0  0  0  0  0  0  0
   63.7083   -8.5196  -67.5200 N   0  0  0  0  0  0  0  0  0  0  0  0
   63.4827   -9.3146  -68.6680 C   0  0  0  0  0  0  0  0  0  0  0  0
   66.5346   -2.1093  -68.7544 C   0  0  0  0  0  0  0  0  0  0  0  0
   63.7879   -5.7842  -68.0954 C   0  0  0  0  0  0  0  0  0  0  0  0
   68.5644   -4.3037  -66.9134 C   0  0  0  0  0  0  0  0  0  0  0  0
   62.6013   -6.3877  -68.3368 O   0  0  0  0  0  0  0  0  0  0  0  0
   64.2762   -9.7322  -69.2459 O   0  0  0  0  0  0  0  0  0  0  0  0
   63.8458   -4.3930  -68.4365 C   0  0  0  0  0  0  0  0  0  0  0  0
   67.5400   -2.4718  -68.0896 C   0  0  0  0  0  0  0  0  0  0  0  0
   68.5939   -1.6542  -67.7028 C   0  0  0  0  0  0  0  0  0  0  0  0
   62.0048   -9.7105  -68.8755 C   0  0  0  0  0  0  0  0  0  0  0  0
   69.7059   -2.1775  -66.9530 C   0  0  0  0  0  0  0  0  0  0  0  0
   61.1891   -9.8675  -67.9463 O   0  0  0  0  0  0  0  0  0  0  0  0
   61.8242  -10.5022  -69.9466 O   0  0  0  0  0  0  0  0  0  0  0  0
   69.6613   -3.5036  -66.5343 C   0  0  0  0  0  0  0  0  0  0  0  0
   70.7238   -1.3228  -66.2990 C   0  0  0  0  0  0  0  0  0  0  0  0
  1  2  1  0
  1  3  2  0
  2  4  2  0
  3  5  1  0
  4  6  1  0
  2  7  1  0
  5  8  1  0
  8  9  1  0
  6 10  1  0
  3 11  1  0
  7 12  2  0
 11 13  1  0
  9 14  2  0
  4 15  1  0
 11 15  2  0
  7 16  1  0
 10 16  2  0
 16 17  1  0
  9 18  1  0
 17 19  1  0
 18 20  1  0
 18 21  2  0
 12 22  1  0
 19 22  2  0
 19 23  1  0
M  END
>  <ID>  (1) 
conformer_0

$$$$
