
     RDKit          3D

 18 19  0  0  0  0  0  0  0  0999 V2000
   65.2940   -6.8471  -67.0354 C   0  0  0  0  0  0  0  0  0  0  0  0
   65.6720   -5.7616  -67.6260 C   0  0  0  0  0  0  0  0  0  0  0  0
   66.7392   -4.9974  -67.1890 O   0  0  0  0  0  0  0  0  0  0  0  0
   64.1520   -7.6063  -67.3233 C   0  0  0  0  0  0  0  0  0  0  0  0
   66.9432   -3.7209  -67.7384 C   0  0  0  0  0  0  0  0  0  0  0  0
   68.0780   -3.0703  -67.3546 C   0  0  0  0  0  0  0  0  0  0  0  0
   68.6622   -3.2436  -66.1450 C   0  0  0  0  0  0  0  0  0  0  0  0
   63.3819   -7.3304  -68.3216 C   0  0  0  0  0  0  0  0  0  0  0  0
   64.8137   -5.4589  -68.8398 C   0  0  0  0  0  0  0  0  0  0  0  0
   63.6861   -6.2111  -69.0716 C   0  0  0  0  0  0  0  0  0  0  0  0
   68.6731   -2.1676  -68.2072 C   0  0  0  0  0  0  0  0  0  0  0  0
   62.2598   -8.1093  -68.6193 N   0  0  0  0  0  0  0  0  0  0  0  0
   69.7690   -2.5690  -65.6572 C   0  0  0  0  0  0  0  0  0  0  0  0
   69.8709   -1.4207  -67.6708 C   0  0  0  0  0  0  0  0  0  0  0  0
   62.0850   -8.9286  -69.6162 C   0  0  0  0  0  0  0  0  0  0  0  0
   70.3425   -1.6514  -66.4074 C   0  0  0  0  0  0  0  0  0  0  0  0
   60.9795   -9.8454  -69.5384 O   0  0  0  0  0  0  0  0  0  0  0  0
   62.6582   -8.7313  -70.8389 O   0  0  0  0  0  0  0  0  0  0  0  0
  1  2  2  0
  2  3  1  0
  1  4  1  0
  3  5  1  0
  5  6  1  0
  6  7  1  0
  4  8  2  0
  2  9  1  0
  8 10  1  0
  9 10  2  0
  6 11  2  0
  8 12  1  0
  7 13  2  0
 11 14  1  0
 12 15  1  0
 13 16  1  0
 14 16  2  0
 15 17  1  0
 15 18  2  0
M  END
>  <ID>  (1) 
conformer_0

$$$$
