
     RDKit          3D

 14 15  0  0  0  0  0  0  0  0999 V2000
   68.4928   -1.6238  -66.7102 C   0  0  0  0  0  0  0  0  0  0  0  0
   67.5163   -2.5274  -67.1198 C   0  0  0  0  0  0  0  0  0  0  0  0
   67.6127   -3.8975  -67.1180 C   0  0  0  0  0  0  0  0  0  0  0  0
   69.6166   -2.2743  -66.0081 C   0  0  0  0  0  0  0  0  0  0  0  0
   68.9349   -4.3242  -66.5378 C   0  0  0  0  0  0  0  0  0  0  0  0
   66.6016   -4.7392  -67.6569 N   0  0  0  0  0  0  0  0  0  0  0  0
   66.7039   -5.6411  -68.3839 C   0  0  0  0  0  0  0  0  0  0  0  0
   65.3612   -6.0847  -68.8976 C   0  0  0  0  0  0  0  0  0  0  0  0
   65.3709   -4.4666  -66.9277 C   0  0  0  0  0  0  0  0  0  0  0  0
   64.5103   -5.5230  -67.7321 C   0  0  0  0  0  0  0  0  0  0  0  0
   63.1945   -5.0166  -68.3011 C   0  0  0  0  0  0  0  0  0  0  0  0
   69.7815   -3.6327  -65.9801 C   0  0  0  0  0  0  0  0  0  0  0  0
   70.8352   -1.1891  -65.4671 Cl  0  0  0  0  0  0  0  0  0  0  0  0
   64.1019   -6.6205  -66.7420 C   0  0  0  0  0  0  0  0  0  0  0  0
  1  2  1  0
  2  3  2  0
  1  4  2  0
  3  5  1  0
  3  6  1  0
  6  7  1  0
  7  8  1  0
  6  9  1  0
  8 10  1  0
  9 10  1  0
 10 11  1  0
  4 12  1  0
  5 12  2  0
  4 13  1  0
 10 14  1  0
M  END
>  <ID>  (1) 
conformer_0

$$$$
