
     RDKit          3D

 24 28  0  0  0  0  0  0  0  0999 V2000
   66.1729   -5.7793  -67.5476 C   0  0  0  0  0  0  0  0  0  0  0  0
   66.2903   -4.5528  -67.7209 C   0  0  0  0  0  0  0  0  0  0  0  0
   67.3062   -3.6957  -67.3670 C   0  0  0  0  0  0  0  0  0  0  0  0
   65.2058   -6.6296  -67.9937 C   0  0  0  0  0  0  0  0  0  0  0  0
   65.1686   -4.0150  -68.5455 C   0  0  0  0  0  0  0  0  0  0  0  0
   65.1212   -7.9919  -67.5910 C   0  0  0  0  0  0  0  0  0  0  0  0
   63.8694   -8.6290  -67.9037 C   0  0  0  0  0  0  0  0  0  0  0  0
   63.7767  -10.0661  -67.6541 N   0  0  0  0  0  0  0  0  0  0  0  0
   62.6763   -7.9667  -68.1887 N   0  0  0  0  0  0  0  0  0  0  0  0
   62.9062   -6.6301  -68.5201 C   0  0  0  0  0  0  0  0  0  0  0  0
   61.5399   -8.6861  -68.3934 C   0  0  0  0  0  0  0  0  0  0  0  0
   65.1955   -2.6021  -68.8524 C   0  0  0  0  0  0  0  0  0  0  0  0
   64.0555   -5.8997  -68.4211 C   0  0  0  0  0  0  0  0  0  0  0  0
   61.6625   -9.9992  -68.8578 C   0  0  0  0  0  0  0  0  0  0  0  0
   68.3671   -4.1229  -66.6582 C   0  0  0  0  0  0  0  0  0  0  0  0
   63.0529  -10.7421  -68.7333 C   0  0  0  0  0  0  0  0  0  0  0  0
   67.1122   -2.2291  -67.6753 C   0  0  0  0  0  0  0  0  0  0  0  0
   66.2437   -1.8309  -68.3967 N   0  0  0  0  0  0  0  0  0  0  0  0
   68.1859   -1.4334  -67.1966 C   0  0  0  0  0  0  0  0  0  0  0  0
   64.1098   -4.5992  -68.7840 O   0  0  0  0  0  0  0  0  0  0  0  0
   69.3151   -1.9836  -66.4849 C   0  0  0  0  0  0  0  0  0  0  0  0
   70.4660   -0.9582  -66.0548 C   0  0  0  0  0  0  0  0  0  0  0  0
   60.4297  -10.4933  -68.6292 O   0  0  0  0  0  0  0  0  0  0  0  0
   69.3470   -3.2864  -66.2277 C   0  0  0  0  0  0  0  0  0  0  0  0
  1  2  1  0
  2  3  1  0
  1  4  2  0
  2  5  2  0
  4  6  1  0
  6  7  2  0
  7  8  1  0
  7  9  1  0
  9 10  1  0
  9 11  1  0
  5 12  1  0
  4 13  1  0
 10 13  2  0
 11 14  1  0
  3 15  2  0
  8 16  1  0
 14 16  1  0
  3 17  1  0
 12 18  2  0
 17 18  1  0
 17 19  2  0
  5 20  1  0
 13 20  1  0
 19 21  1  0
 21 22  1  0
 14 23  1  0
 15 24  1  0
 21 24  2  0
M  END
>  <ID>  (1) 
conformer_0

$$$$
