
     RDKit          3D

 24 27  0  0  0  0  0  0  0  0999 V2000
   63.7996   -8.6715  -67.1951 N   0  0  0  0  0  0  0  0  0  0  0  0
   63.6537   -7.7077  -68.0602 C   0  0  0  0  0  0  0  0  0  0  0  0
   63.0211   -8.0180  -69.2340 C   0  0  0  0  0  0  0  0  0  0  0  0
   64.3816   -6.4532  -67.8573 C   0  0  0  0  0  0  0  0  0  0  0  0
   65.4703   -6.2540  -67.2904 C   0  0  0  0  0  0  0  0  0  0  0  0
   66.0586   -4.9751  -67.2111 C   0  0  0  0  0  0  0  0  0  0  0  0
   62.8057   -6.9412  -70.2717 C   0  0  0  0  0  0  0  0  0  0  0  0
   61.9320   -7.2746  -71.2930 C   0  0  0  0  0  0  0  0  0  0  0  0
   63.7404   -5.3907  -68.7527 C   0  0  0  0  0  0  0  0  0  0  0  0
   61.5452   -8.4717  -71.3672 O   0  0  0  0  0  0  0  0  0  0  0  0
   67.2825   -4.6744  -66.6575 C   0  0  0  0  0  0  0  0  0  0  0  0
   65.3267   -3.8185  -67.8982 C   0  0  0  0  0  0  0  0  0  0  0  0
   66.0253   -2.5687  -67.8769 C   0  0  0  0  0  0  0  0  0  0  0  0
   67.1833   -2.2887  -67.4036 C   0  0  0  0  0  0  0  0  0  0  0  0
   67.8562   -3.4218  -66.8716 C   0  0  0  0  0  0  0  0  0  0  0  0
   62.9970   -5.6676  -69.8356 N   0  0  0  0  0  0  0  0  0  0  0  0
   64.2070   -4.0314  -68.6111 C   0  0  0  0  0  0  0  0  0  0  0  0
   62.4232   -9.3345  -69.2563 C   0  0  0  0  0  0  0  0  0  0  0  0
   69.2339   -3.0549  -66.1626 C   0  0  0  0  0  0  0  0  0  0  0  0
   69.3444   -1.9460  -65.4609 C   0  0  0  0  0  0  0  0  0  0  0  0
   70.3290   -3.5297  -66.6595 C   0  0  0  0  0  0  0  0  0  0  0  0
   71.4724   -2.9253  -65.9209 N   0  0  0  0  0  0  0  0  0  0  0  0
   70.7186   -1.7500  -65.3961 N   0  0  0  0  0  0  0  0  0  0  0  0
   61.0186   -9.4333  -69.1519 O   0  0  0  0  0  0  0  0  0  0  0  0
  1  2  1  0
  2  3  2  0
  2  4  1  0
  4  5  1  0
  5  6  2  0
  3  7  1  0
  7  8  1  0
  4  9  2  0
  8 10  1  0
  6 11  1  0
  6 12  1  0
 12 13  1  0
 13 14  2  0
 11 15  2  0
 14 15  1  0
  7 16  2  0
  9 16  1  0
  9 17  1  0
 12 17  2  0
  3 18  1  0
 15 19  1  0
 19 20  1  0
 19 21  2  0
 21 22  1  0
 20 23  1  0
 22 23  2  0
 18 24  1  0
M  END
>  <ID>  (1) 
conformer_0

$$$$
