
     RDKit          3D

 20 20  0  0  0  0  0  0  0  0999 V2000
   62.9029   -6.5736  -67.7914 O   0  0  0  0  0  0  0  0  0  0  0  0
   64.0085   -6.6354  -68.2880 C   0  0  0  0  0  0  0  0  0  0  0  0
   64.1840   -6.6173  -69.4301 N   0  0  0  0  0  0  0  0  0  0  0  0
   63.1780   -6.6358  -70.4571 C   0  0  0  0  0  0  0  0  0  0  0  0
   65.0807   -6.2819  -67.2427 C   0  0  0  0  0  0  0  0  0  0  0  0
   66.3832   -6.1109  -67.7243 C   0  0  0  0  0  0  0  0  0  0  0  0
   66.8748   -4.7286  -67.7945 C   0  0  0  0  0  0  0  0  0  0  0  0
   67.9363   -4.2934  -67.1200 C   0  0  0  0  0  0  0  0  0  0  0  0
   68.2872   -2.9079  -67.0696 C   0  0  0  0  0  0  0  0  0  0  0  0
   62.4543   -7.9861  -70.4624 C   0  0  0  0  0  0  0  0  0  0  0  0
   66.1028   -3.7644  -68.4837 C   0  0  0  0  0  0  0  0  0  0  0  0
   67.5379   -2.0020  -67.7882 C   0  0  0  0  0  0  0  0  0  0  0  0
   69.5524   -2.3864  -66.2238 C   0  0  0  0  0  0  0  0  0  0  0  0
   70.3977   -3.2224  -65.8571 C   0  0  0  0  0  0  0  0  0  0  0  0
   71.0129   -4.1976  -66.3659 O   0  0  0  0  0  0  0  0  0  0  0  0
   70.0639   -1.3588  -67.0029 C   0  0  0  0  0  0  0  0  0  0  0  0
   61.3450   -8.1171  -70.1089 O   0  0  0  0  0  0  0  0  0  0  0  0
   63.1422   -8.9842  -70.9947 O   0  0  0  0  0  0  0  0  0  0  0  0
   70.7889   -3.2668  -64.4370 O   0  0  0  0  0  0  0  0  0  0  0  0
   66.4631   -2.4450  -68.5202 C   0  0  0  0  0  0  0  0  0  0  0  0
  1  2  2  0
  2  3  1  0
  3  4  1  0
  2  5  1  0
  5  6  1  0
  6  7  1  0
  7  8  1  0
  8  9  2  0
  4 10  1  0
  7 11  2  0
  9 12  1  0
  9 13  1  0
 13 14  1  0
 14 15  2  0
 13 16  1  0
 10 17  2  0
 10 18  1  0
 14 19  1  0
 11 20  1  0
 12 20  2  0
M  END
>  <ID>  (1) 
conformer_0

$$$$
