
     RDKit          3D

 22 23  0  0  0  0  0  0  0  0999 V2000
   66.1729   -5.7793  -67.5476 C   0  0  0  0  0  0  0  0  0  0  0  0
   64.9244   -6.0750  -67.8965 C   0  0  0  0  0  0  0  0  0  0  0  0
   66.9194   -5.0313  -68.4167 C   0  0  0  0  0  0  0  0  0  0  0  0
   67.7418   -3.9450  -67.7359 C   0  0  0  0  0  0  0  0  0  0  0  0
   68.3818   -4.0705  -66.6167 C   0  0  0  0  0  0  0  0  0  0  0  0
   69.1386   -2.9650  -66.0324 C   0  0  0  0  0  0  0  0  0  0  0  0
   64.4679   -6.2609  -69.0306 C   0  0  0  0  0  0  0  0  0  0  0  0
   64.4405   -7.4250  -67.1314 C   0  0  0  0  0  0  0  0  0  0  0  0
   63.4758   -5.4056  -69.5742 O   0  0  0  0  0  0  0  0  0  0  0  0
   67.7188   -2.6398  -68.4931 C   0  0  0  0  0  0  0  0  0  0  0  0
   63.8149   -7.7129  -69.2842 C   0  0  0  0  0  0  0  0  0  0  0  0
   69.8257   -3.1568  -64.8295 O   0  0  0  0  0  0  0  0  0  0  0  0
   66.9390   -2.3996  -69.5394 O   0  0  0  0  0  0  0  0  0  0  0  0
   71.1557   -2.7724  -64.7617 C   0  0  0  0  0  0  0  0  0  0  0  0
   68.2873   -1.5341  -67.8336 C   0  0  0  0  0  0  0  0  0  0  0  0
   69.0209   -1.7123  -66.6196 C   0  0  0  0  0  0  0  0  0  0  0  0
   64.2650   -8.4490  -67.9217 C   0  0  0  0  0  0  0  0  0  0  0  0
   62.4572   -7.9413  -69.3210 O   0  0  0  0  0  0  0  0  0  0  0  0
   61.8232   -9.1372  -69.1350 P   0  0  0  0  0  0  0  0  0  0  0  0
   62.2895   -9.8249  -68.0045 O   0  0  0  0  0  0  0  0  0  0  0  0
   60.2821   -9.0027  -69.0033 O   0  0  0  0  0  0  0  0  0  0  0  0
   62.2533   -9.8461  -70.4601 O   0  0  0  0  0  0  0  0  0  0  0  0
  1  2  1  0
  1  3  1  0
  3  4  1  0
  4  5  2  0
  5  6  1  0
  2  7  1  0
  2  8  1  0
  7  9  1  0
  4 10  1  0
  7 11  1  0
  6 12  1  0
 10 13  1  0
 12 14  1  0
 10 15  2  0
  6 16  2  0
 15 16  1  0
  8 17  1  0
 11 17  1  0
 11 18  1  0
 18 19  1  0
 19 20  1  0
 19 21  1  0
 19 22  2  0
M  END
>  <ID>  (1) 
conformer_0

$$$$
