
     RDKit          3D

  8  8  0  0  0  0  0  0  0  0999 V2000
   70.6902   -2.4823  -64.9918 C   0  0  0  0  0  0  0  0  0  0  0  0
   71.2418   -3.3146  -65.6777 C   0  0  0  0  0  0  0  0  0  0  0  0
   69.6276   -1.7673  -65.7396 C   0  0  0  0  0  0  0  0  0  0  0  0
   69.0731   -2.1790  -66.7847 C   0  0  0  0  0  0  0  0  0  0  0  0
   67.8957   -1.4739  -67.3538 C   0  0  0  0  0  0  0  0  0  0  0  0
   72.3203   -4.1362  -65.0147 O   0  0  0  0  0  0  0  0  0  0  0  0
   69.4005   -3.1799  -67.2314 C   0  0  0  0  0  0  0  0  0  0  0  0
   70.5355   -3.9699  -66.7130 C   0  0  0  0  0  0  0  0  0  0  0  0
  1  2  1  0
  1  3  2  0
  3  4  1  0
  4  5  1  0
  2  6  1  0
  4  7  2  0
  2  8  2  0
  7  8  1  0
M  END
>  <ID>  (1) 
conformer_0

$$$$
