
     RDKit          3D

 24 26  0  0  0  0  0  0  0  0999 V2000
   66.1729   -5.7793  -67.5476 C   0  0  0  0  0  0  0  0  0  0  0  0
   66.2903   -4.5528  -67.7209 C   0  0  0  0  0  0  0  0  0  0  0  0
   65.0053   -6.4918  -67.5695 C   0  0  0  0  0  0  0  0  0  0  0  0
   65.1228   -3.8134  -68.2663 C   0  0  0  0  0  0  0  0  0  0  0  0
   64.9469   -7.9565  -67.2550 C   0  0  0  0  0  0  0  0  0  0  0  0
   65.2626   -2.4610  -68.5173 O   0  0  0  0  0  0  0  0  0  0  0  0
   67.4725   -3.7535  -67.5350 C   0  0  0  0  0  0  0  0  0  0  0  0
   63.7083   -8.5196  -67.5200 N   0  0  0  0  0  0  0  0  0  0  0  0
   63.4827   -9.3146  -68.6680 C   0  0  0  0  0  0  0  0  0  0  0  0
   66.5346   -2.1093  -68.7544 C   0  0  0  0  0  0  0  0  0  0  0  0
   62.0069   -9.7165  -68.9225 C   0  0  0  0  0  0  0  0  0  0  0  0
   66.5651   -0.7208  -69.2631 C   0  0  0  0  0  0  0  0  0  0  0  0
   63.8247   -5.8449  -67.9982 C   0  0  0  0  0  0  0  0  0  0  0  0
   65.4607   -0.1547  -69.9050 C   0  0  0  0  0  0  0  0  0  0  0  0
   68.6303   -4.3627  -67.0274 C   0  0  0  0  0  0  0  0  0  0  0  0
   67.5932   -2.5382  -68.0865 C   0  0  0  0  0  0  0  0  0  0  0  0
   68.8761   -2.1259  -67.7013 C   0  0  0  0  0  0  0  0  0  0  0  0
   63.8502   -4.5101  -68.3703 C   0  0  0  0  0  0  0  0  0  0  0  0
   69.3414   -0.8220  -67.8096 C   0  0  0  0  0  0  0  0  0  0  0  0
   64.3315   -9.7303  -69.3985 O   0  0  0  0  0  0  0  0  0  0  0  0
   69.6866   -3.1055  -66.8786 C   0  0  0  0  0  0  0  0  0  0  0  0
   61.1774   -9.0638  -68.8762 O   0  0  0  0  0  0  0  0  0  0  0  0
   61.7958  -11.0350  -69.0217 N   0  0  0  0  0  0  0  0  0  0  0  0
   70.7575   -3.1048  -66.6056 O   0  0  0  0  0  0  0  0  0  0  0  0
  1  2  1  0
  1  3  2  0
  2  4  2  0
  3  5  1  0
  4  6  1  0
  2  7  1  0
  5  8  1  0
  8  9  1  0
  6 10  1  0
  9 11  1  0
 10 12  2  3
  3 13  1  0
 12 14  1  0
  7 15  2  0
  7 16  1  0
 10 16  1  0
 16 17  2  0
  4 18  1  0
 13 18  2  0
 17 19  1  0
  9 20  2  0
 15 21  1  0
 17 21  1  0
 11 22  2  0
 11 23  1  0
 21 24  2  0
M  END
>  <ID>  (1) 
conformer_0

$$$$
