
     RDKit          3D

 16 16  0  0  0  0  0  0  0  0999 V2000
   65.2940   -6.8471  -67.0354 C   0  0  0  0  0  0  0  0  0  0  0  0
   65.6720   -5.7616  -67.6260 C   0  0  0  0  0  0  0  0  0  0  0  0
   66.7392   -4.9974  -67.1890 O   0  0  0  0  0  0  0  0  0  0  0  0
   64.1520   -7.6063  -67.3233 C   0  0  0  0  0  0  0  0  0  0  0  0
   67.4451   -4.2803  -68.1311 C   0  0  0  0  0  0  0  0  0  0  0  0
   63.9421   -8.8014  -66.5974 O   0  0  0  0  0  0  0  0  0  0  0  0
   64.9120   -5.3620  -68.8242 C   0  0  0  0  0  0  0  0  0  0  0  0
   63.4438   -7.3869  -68.3477 C   0  0  0  0  0  0  0  0  0  0  0  0
   63.7869   -6.1555  -69.1185 C   0  0  0  0  0  0  0  0  0  0  0  0
   67.9096   -3.0423  -67.4025 C   0  0  0  0  0  0  0  0  0  0  0  0
   62.3708   -8.1785  -68.7514 C   0  0  0  0  0  0  0  0  0  0  0  0
   68.7509   -3.0326  -66.4673 C   0  0  0  0  0  0  0  0  0  0  0  0
   62.0334   -8.3278  -69.9231 O   0  0  0  0  0  0  0  0  0  0  0  0
   61.9565   -9.0494  -67.8429 O   0  0  0  0  0  0  0  0  0  0  0  0
   69.9641   -2.3449  -66.4849 C   0  0  0  0  0  0  0  0  0  0  0  0
   71.0357   -2.3395  -65.2920 C   0  0  0  0  0  0  0  0  0  0  0  0
  1  2  2  0
  2  3  1  0
  1  4  1  0
  3  5  1  0
  4  6  1  0
  2  7  1  0
  4  8  2  0
  7  9  2  0
  8  9  1  0
  5 10  1  0
  8 11  1  0
 10 12  1  0
 11 13  2  0
 11 14  1  0
 12 15  2  3
 15 16  1  0
M  END
>  <ID>  (1) 
conformer_0

$$$$
