
     RDKit          3D

 24 26  0  0  0  0  0  0  0  0999 V2000
   66.1729   -5.7793  -67.5476 C   0  0  0  0  0  0  0  0  0  0  0  0
   66.2903   -4.5528  -67.7209 C   0  0  0  0  0  0  0  0  0  0  0  0
   65.0053   -6.4918  -67.5695 C   0  0  0  0  0  0  0  0  0  0  0  0
   65.1228   -3.8134  -68.2663 C   0  0  0  0  0  0  0  0  0  0  0  0
   64.9469   -7.9565  -67.2550 C   0  0  0  0  0  0  0  0  0  0  0  0
   65.2626   -2.4610  -68.5173 O   0  0  0  0  0  0  0  0  0  0  0  0
   67.4725   -3.7535  -67.5350 C   0  0  0  0  0  0  0  0  0  0  0  0
   63.7083   -8.5196  -67.5200 N   0  0  0  0  0  0  0  0  0  0  0  0
   63.4827   -9.3146  -68.6680 C   0  0  0  0  0  0  0  0  0  0  0  0
   66.5346   -2.1093  -68.7544 C   0  0  0  0  0  0  0  0  0  0  0  0
   62.0069   -9.7165  -68.9225 C   0  0  0  0  0  0  0  0  0  0  0  0
   66.5651   -0.7208  -69.2631 C   0  0  0  0  0  0  0  0  0  0  0  0
   63.7422   -5.7113  -67.9113 C   0  0  0  0  0  0  0  0  0  0  0  0
   62.5330   -6.3568  -68.1039 O   0  0  0  0  0  0  0  0  0  0  0  0
   61.1507   -9.4417  -68.1529 O   0  0  0  0  0  0  0  0  0  0  0  0
   68.6498   -4.4006  -67.0799 O   0  0  0  0  0  0  0  0  0  0  0  0
   67.6567   -2.6914  -68.1625 C   0  0  0  0  0  0  0  0  0  0  0  0
   63.9067   -4.4005  -68.2708 C   0  0  0  0  0  0  0  0  0  0  0  0
   61.7625  -10.3599  -69.9890 O   0  0  0  0  0  0  0  0  0  0  0  0
   68.7382   -1.8138  -68.1553 C   0  0  0  0  0  0  0  0  0  0  0  0
   68.8209   -0.5990  -68.5940 C   0  0  0  0  0  0  0  0  0  0  0  0
   65.3671   -0.2078  -69.9297 O   0  0  0  0  0  0  0  0  0  0  0  0
   67.6152   -0.1221  -69.2186 C   0  0  0  0  0  0  0  0  0  0  0  0
   65.4114    0.6613  -70.8851 C   0  0  0  0  0  0  0  0  0  0  0  0
  1  2  1  0
  1  3  2  0
  2  4  2  0
  3  5  1  0
  4  6  1  0
  2  7  1  0
  5  8  1  0
  8  9  1  0
  6 10  1  0
  9 11  1  0
 10 12  2  0
  3 13  1  0
 13 14  1  0
 11 15  1  0
  7 16  2  0
  7 17  1  0
 10 17  1  0
  4 18  1  0
 13 18  2  0
 11 19  2  0
 17 20  2  0
 20 21  1  0
 12 22  1  0
 12 23  1  0
 21 23  2  0
 22 24  1  0
M  END
>  <ID>  (1) 
conformer_0

$$$$
