
     RDKit          3D

 15 16  0  0  0  0  0  0  0  0999 V2000
   66.1729   -5.7793  -67.5476 C   0  0  0  0  0  0  0  0  0  0  0  0
   64.9244   -6.0750  -67.8965 C   0  0  0  0  0  0  0  0  0  0  0  0
   66.9194   -5.0313  -68.4167 C   0  0  0  0  0  0  0  0  0  0  0  0
   67.7418   -3.9450  -67.7359 C   0  0  0  0  0  0  0  0  0  0  0  0
   68.3818   -4.0705  -66.6167 C   0  0  0  0  0  0  0  0  0  0  0  0
   69.1386   -2.9650  -66.0324 C   0  0  0  0  0  0  0  0  0  0  0  0
   64.4679   -6.2609  -69.0306 C   0  0  0  0  0  0  0  0  0  0  0  0
   64.4405   -7.4250  -67.1314 C   0  0  0  0  0  0  0  0  0  0  0  0
   69.1704   -1.7491  -66.6645 C   0  0  0  0  0  0  0  0  0  0  0  0
   67.7446   -2.6429  -68.4445 C   0  0  0  0  0  0  0  0  0  0  0  0
   69.9733   -0.6286  -65.9959 C   0  0  0  0  0  0  0  0  0  0  0  0
   64.0789   -7.5221  -69.4870 C   0  0  0  0  0  0  0  0  0  0  0  0
   68.4391   -1.5730  -67.8297 C   0  0  0  0  0  0  0  0  0  0  0  0
   63.7069   -8.2312  -68.1422 C   0  0  0  0  0  0  0  0  0  0  0  0
   63.3369   -9.3872  -67.7090 O   0  0  0  0  0  0  0  0  0  0  0  0
  1  2  1  0
  1  3  1  0
  3  4  1  0
  4  5  2  0
  5  6  1  0
  2  7  1  0
  2  8  1  0
  6  9  2  0
  4 10  1  0
  9 11  1  0
  7 12  1  0
  9 13  1  0
 10 13  2  0
  8 14  1  0
 12 14  1  0
 14 15  1  0
M  END
>  <ID>  (1) 
conformer_0

$$$$
