
     RDKit          3D

 22 24  0  0  0  0  0  0  0  0999 V2000
   63.7996   -8.6715  -67.1951 N   0  0  0  0  0  0  0  0  0  0  0  0
   63.6537   -7.7077  -68.0602 C   0  0  0  0  0  0  0  0  0  0  0  0
   63.0211   -8.0180  -69.2340 C   0  0  0  0  0  0  0  0  0  0  0  0
   64.3816   -6.4532  -67.8573 C   0  0  0  0  0  0  0  0  0  0  0  0
   65.4703   -6.2540  -67.2904 C   0  0  0  0  0  0  0  0  0  0  0  0
   66.0586   -4.9751  -67.2111 C   0  0  0  0  0  0  0  0  0  0  0  0
   62.8057   -6.9412  -70.2717 C   0  0  0  0  0  0  0  0  0  0  0  0
   62.4249   -9.3231  -69.3655 C   0  0  0  0  0  0  0  0  0  0  0  0
   63.7333   -5.4313  -68.8267 C   0  0  0  0  0  0  0  0  0  0  0  0
   67.2642   -4.6828  -66.5822 C   0  0  0  0  0  0  0  0  0  0  0  0
   65.5100   -3.8894  -68.0684 C   0  0  0  0  0  0  0  0  0  0  0  0
   67.8041   -3.3733  -66.6966 C   0  0  0  0  0  0  0  0  0  0  0  0
   67.2451   -2.3845  -67.3930 C   0  0  0  0  0  0  0  0  0  0  0  0
   61.2634   -9.5868  -68.8518 O   0  0  0  0  0  0  0  0  0  0  0  0
   69.0088   -3.1144  -65.9278 O   0  0  0  0  0  0  0  0  0  0  0  0
   64.2946   -4.1930  -68.8461 C   0  0  0  0  0  0  0  0  0  0  0  0
   62.9490   -5.7823  -69.9059 C   0  0  0  0  0  0  0  0  0  0  0  0
   62.9814  -10.1883  -70.0649 O   0  0  0  0  0  0  0  0  0  0  0  0
   69.3270   -1.8632  -65.7356 C   0  0  0  0  0  0  0  0  0  0  0  0
   66.0056   -2.5572  -68.1403 C   0  0  0  0  0  0  0  0  0  0  0  0
   70.8115   -1.7721  -65.8417 C   0  0  0  0  0  0  0  0  0  0  0  0
   71.3336   -2.1747  -66.9786 C   0  0  0  0  0  0  0  0  0  0  0  0
  1  2  1  0
  2  3  2  0
  2  4  1  0
  4  5  1  0
  5  6  2  0
  3  7  1  0
  3  8  1  0
  4  9  2  0
  6 10  1  0
  6 11  1  0
 10 12  2  0
 12 13  1  0
  8 14  1  0
 12 15  1  0
  9 16  1  0
 11 16  2  0
  7 17  2  0
  9 17  1  0
  8 18  2  0
 15 19  1  0
 11 20  1  0
 13 20  2  0
 19 21  1  0
 21 22  1  0
M  END
>  <ID>  (1) 
conformer_0

$$$$
