
     RDKit          3D

  8  8  0  0  0  0  0  0  0  0999 V2000
   70.5614   -1.6706  -65.3239 C   0  0  0  0  0  0  0  0  0  0  0  0
   70.9499   -2.9323  -65.1960 C   0  0  0  0  0  0  0  0  0  0  0  0
   70.8027   -3.8399  -66.1318 C   0  0  0  0  0  0  0  0  0  0  0  0
   71.2991   -5.2033  -65.9766 O   0  0  0  0  0  0  0  0  0  0  0  0
   69.7380   -1.2698  -66.3170 C   0  0  0  0  0  0  0  0  0  0  0  0
   69.2153   -2.2315  -67.2884 C   0  0  0  0  0  0  0  0  0  0  0  0
   72.5144   -5.3596  -65.3915 C   0  0  0  0  0  0  0  0  0  0  0  0
   69.7605   -3.6659  -67.2074 C   0  0  0  0  0  0  0  0  0  0  0  0
  1  2  1  0
  2  3  2  0
  3  4  1  0
  1  5  2  0
  5  6  1  0
  4  7  1  0
  3  8  1  0
  6  8  2  0
M  END
>  <ID>  (1) 
conformer_0

$$$$
