
     RDKit          3D

 23 26  0  0  0  0  0  0  0  0999 V2000
   63.7996   -8.6715  -67.1951 N   0  0  0  0  0  0  0  0  0  0  0  0
   63.6537   -7.7077  -68.0602 C   0  0  0  0  0  0  0  0  0  0  0  0
   63.0211   -8.0180  -69.2340 C   0  0  0  0  0  0  0  0  0  0  0  0
   64.3816   -6.4532  -67.8573 C   0  0  0  0  0  0  0  0  0  0  0  0
   65.4703   -6.2540  -67.2904 C   0  0  0  0  0  0  0  0  0  0  0  0
   66.0586   -4.9751  -67.2111 C   0  0  0  0  0  0  0  0  0  0  0  0
   62.8057   -6.9412  -70.2717 C   0  0  0  0  0  0  0  0  0  0  0  0
   62.4249   -9.3231  -69.3655 C   0  0  0  0  0  0  0  0  0  0  0  0
   63.7333   -5.4313  -68.8267 C   0  0  0  0  0  0  0  0  0  0  0  0
   67.2642   -4.6828  -66.5822 C   0  0  0  0  0  0  0  0  0  0  0  0
   65.5100   -3.8894  -68.0684 C   0  0  0  0  0  0  0  0  0  0  0  0
   67.8041   -3.3733  -66.6966 C   0  0  0  0  0  0  0  0  0  0  0  0
   67.2451   -2.3845  -67.3930 C   0  0  0  0  0  0  0  0  0  0  0  0
   69.0802   -3.0607  -65.8422 C   0  0  0  0  0  0  0  0  0  0  0  0
   63.0297  -10.1743  -69.9575 O   0  0  0  0  0  0  0  0  0  0  0  0
   64.2859   -4.2062  -68.8500 C   0  0  0  0  0  0  0  0  0  0  0  0
   66.0512   -2.6708  -68.0796 C   0  0  0  0  0  0  0  0  0  0  0  0
   63.0725   -5.7562  -69.9596 C   0  0  0  0  0  0  0  0  0  0  0  0
   61.2013   -9.5504  -68.8794 O   0  0  0  0  0  0  0  0  0  0  0  0
   69.6144   -1.9230  -66.1456 C   0  0  0  0  0  0  0  0  0  0  0  0
   69.0326   -0.8965  -66.9022 C   0  0  0  0  0  0  0  0  0  0  0  0
   67.8599   -1.1785  -67.5770 C   0  0  0  0  0  0  0  0  0  0  0  0
   71.0259   -1.4767  -65.2887 Cl  0  0  0  0  0  0  0  0  0  0  0  0
  1  2  1  0
  2  3  2  0
  2  4  1  0
  4  5  1  0
  5  6  2  0
  3  7  1  0
  3  8  1  0
  4  9  2  0
  6 10  1  0
  6 11  1  0
 10 12  2  0
 12 13  1  0
 12 14  1  0
  8 15  2  0
  9 16  1  0
 11 16  1  0
 11 17  2  0
 13 17  1  0
  7 18  2  0
  9 18  1  0
  8 19  1  0
 14 20  2  0
 20 21  1  0
 13 22  2  0
 21 22  2  0
 20 23  1  0
M  END
>  <ID>  (1) 
conformer_0

$$$$
