
     RDKit          3D

 24 27  0  0  0  0  0  0  0  0999 V2000
   63.7996   -8.6715  -67.1951 N   0  0  0  0  0  0  0  0  0  0  0  0
   63.6537   -7.7077  -68.0602 C   0  0  0  0  0  0  0  0  0  0  0  0
   63.0211   -8.0180  -69.2340 C   0  0  0  0  0  0  0  0  0  0  0  0
   64.3816   -6.4532  -67.8573 C   0  0  0  0  0  0  0  0  0  0  0  0
   65.4703   -6.2540  -67.2904 C   0  0  0  0  0  0  0  0  0  0  0  0
   66.0586   -4.9751  -67.2111 C   0  0  0  0  0  0  0  0  0  0  0  0
   62.8057   -6.9412  -70.2717 C   0  0  0  0  0  0  0  0  0  0  0  0
   62.4249   -9.3231  -69.3655 C   0  0  0  0  0  0  0  0  0  0  0  0
   63.7333   -5.4313  -68.8267 C   0  0  0  0  0  0  0  0  0  0  0  0
   67.2642   -4.6828  -66.5822 C   0  0  0  0  0  0  0  0  0  0  0  0
   65.5100   -3.8894  -68.0684 C   0  0  0  0  0  0  0  0  0  0  0  0
   67.8041   -3.3733  -66.6966 C   0  0  0  0  0  0  0  0  0  0  0  0
   67.2451   -2.3845  -67.3930 C   0  0  0  0  0  0  0  0  0  0  0  0
   61.2634   -9.5868  -68.8518 O   0  0  0  0  0  0  0  0  0  0  0  0
   69.0088   -3.1144  -65.9278 O   0  0  0  0  0  0  0  0  0  0  0  0
   62.6732  -10.0389  -70.4801 O   0  0  0  0  0  0  0  0  0  0  0  0
   66.0341   -2.7862  -68.1309 C   0  0  0  0  0  0  0  0  0  0  0  0
   63.0557   -5.8074  -69.8728 C   0  0  0  0  0  0  0  0  0  0  0  0
   69.7047   -2.0196  -66.3756 C   0  0  0  0  0  0  0  0  0  0  0  0
   68.9083   -1.1497  -67.0317 C   0  0  0  0  0  0  0  0  0  0  0  0
   67.8491   -1.2786  -67.6099 N   0  0  0  0  0  0  0  0  0  0  0  0
   64.0898   -4.0450  -68.4589 C   0  0  0  0  0  0  0  0  0  0  0  0
   70.7780   -1.7110  -65.5782 C   0  0  0  0  0  0  0  0  0  0  0  0
   71.5234   -2.7131  -64.7548 C   0  0  0  0  0  0  0  0  0  0  0  0
  1  2  1  0
  2  3  2  0
  2  4  1  0
  4  5  1  0
  5  6  2  0
  3  7  1  0
  3  8  1  0
  4  9  2  0
  6 10  1  0
  6 11  1  0
 10 12  2  0
 12 13  1  0
  8 14  1  0
 12 15  1  0
  8 16  2  0
 11 17  1  0
 13 17  1  0
  7 18  2  0
  9 18  1  0
 15 19  1  0
 19 20  1  0
 13 21  2  0
 20 21  1  0
  9 22  1  0
 11 22  2  0
 19 23  2  3
 23 24  1  0
M  END
>  <ID>  (1) 
conformer_0

$$$$
