
     RDKit          3D

 19 21  0  0  0  0  0  0  0  0999 V2000
   66.1729   -5.7793  -67.5476 C   0  0  0  0  0  0  0  0  0  0  0  0
   66.2903   -4.5528  -67.7209 C   0  0  0  0  0  0  0  0  0  0  0  0
   65.1382   -3.9339  -68.3304 C   0  0  0  0  0  0  0  0  0  0  0  0
   65.1051   -6.5168  -67.7165 C   0  0  0  0  0  0  0  0  0  0  0  0
   63.9462   -5.7060  -68.3000 C   0  0  0  0  0  0  0  0  0  0  0  0
   62.7983   -6.6098  -68.6053 N   0  0  0  0  0  0  0  0  0  0  0  0
   65.3136   -2.4518  -68.6053 C   0  0  0  0  0  0  0  0  0  0  0  0
   66.5532   -1.9495  -68.6583 C   0  0  0  0  0  0  0  0  0  0  0  0
   64.5980   -7.8494  -67.3200 C   0  0  0  0  0  0  0  0  0  0  0  0
   63.0068   -7.8241  -68.2626 C   0  0  0  0  0  0  0  0  0  0  0  0
   66.6912   -0.6360  -68.9409 O   0  0  0  0  0  0  0  0  0  0  0  0
   67.3865   -3.7276  -67.5827 C   0  0  0  0  0  0  0  0  0  0  0  0
   63.1719   -8.9561  -69.1829 C   0  0  0  0  0  0  0  0  0  0  0  0
   61.9456   -9.7011  -69.2033 C   0  0  0  0  0  0  0  0  0  0  0  0
   63.9139   -4.5267  -68.5423 C   0  0  0  0  0  0  0  0  0  0  0  0
   61.8586  -10.7792  -69.8202 O   0  0  0  0  0  0  0  0  0  0  0  0
   60.9793   -9.3550  -68.4273 O   0  0  0  0  0  0  0  0  0  0  0  0
   67.5555   -2.5548  -68.1367 C   0  0  0  0  0  0  0  0  0  0  0  0
   67.8383   -0.1086  -69.3949 C   0  0  0  0  0  0  0  0  0  0  0  0
  1  2  1  0
  2  3  2  0
  1  4  2  0
  4  5  1  0
  5  6  1  0
  3  7  1  0
  7  8  2  0
  4  9  1  0
  6 10  1  0
  9 10  1  0
  8 11  1  0
  2 12  1  0
 10 13  1  0
 13 14  1  0
  3 15  1  0
  5 15  2  0
 14 16  2  0
 14 17  1  0
  8 18  1  0
 12 18  2  0
 11 19  1  0
M  END
>  <ID>  (1) 
conformer_0

$$$$
