
     RDKit          3D

 19 20  0  0  0  0  0  0  0  0999 V2000
   66.1729   -5.7793  -67.5476 C   0  0  0  0  0  0  0  0  0  0  0  0
   66.2903   -4.5528  -67.7209 C   0  0  0  0  0  0  0  0  0  0  0  0
   67.3062   -3.6957  -67.3670 C   0  0  0  0  0  0  0  0  0  0  0  0
   65.2058   -6.6296  -67.9937 C   0  0  0  0  0  0  0  0  0  0  0  0
   65.1189   -3.8875  -68.3412 C   0  0  0  0  0  0  0  0  0  0  0  0
   64.0382   -4.6270  -68.7543 C   0  0  0  0  0  0  0  0  0  0  0  0
   68.0303   -3.7207  -66.3284 C   0  0  0  0  0  0  0  0  0  0  0  0
   67.8431   -2.7387  -68.4192 C   0  0  0  0  0  0  0  0  0  0  0  0
   62.9053   -4.1325  -69.3592 O   0  0  0  0  0  0  0  0  0  0  0  0
   64.0257   -6.0286  -68.4964 C   0  0  0  0  0  0  0  0  0  0  0  0
   69.0528   -2.8906  -65.9916 C   0  0  0  0  0  0  0  0  0  0  0  0
   62.8734   -6.7882  -68.9528 C   0  0  0  0  0  0  0  0  0  0  0  0
   62.8482   -7.3465  -70.0732 C   0  0  0  0  0  0  0  0  0  0  0  0
   68.7809   -1.8888  -68.0916 C   0  0  0  0  0  0  0  0  0  0  0  0
   69.4215   -1.9550  -66.8189 C   0  0  0  0  0  0  0  0  0  0  0  0
   62.9598   -7.9936  -67.9637 N   0  0  0  0  0  0  0  0  0  0  0  0
   61.6958   -7.7457  -70.5711 O   0  0  0  0  0  0  0  0  0  0  0  0
   63.8652   -8.2284  -70.4876 O   0  0  0  0  0  0  0  0  0  0  0  0
   70.5837   -1.0379  -66.3985 C   0  0  0  0  0  0  0  0  0  0  0  0
  1  2  1  0
  2  3  1  0
  1  4  2  0
  2  5  2  0
  5  6  1  0
  3  7  1  0
  3  8  2  0
  6  9  1  0
  4 10  1  0
  6 10  2  0
  7 11  2  0
 10 12  1  0
 12 13  1  0
  8 14  1  0
 11 15  1  0
 14 15  2  0
 12 16  1  0
 13 17  1  0
 13 18  1  0
 15 19  1  0
M  END
>  <ID>  (1) 
conformer_0

$$$$
