
     RDKit          3D

 22 25  0  0  0  0  0  0  0  0999 V2000
   66.1729   -5.7793  -67.5476 C   0  0  0  0  0  0  0  0  0  0  0  0
   66.2903   -4.5528  -67.7209 C   0  0  0  0  0  0  0  0  0  0  0  0
   67.3062   -3.6957  -67.3670 C   0  0  0  0  0  0  0  0  0  0  0  0
   65.2058   -6.6296  -67.9937 C   0  0  0  0  0  0  0  0  0  0  0  0
   65.1686   -4.0150  -68.5455 C   0  0  0  0  0  0  0  0  0  0  0  0
   65.1212   -7.9919  -67.5910 C   0  0  0  0  0  0  0  0  0  0  0  0
   63.8694   -8.6290  -67.9037 C   0  0  0  0  0  0  0  0  0  0  0  0
   63.7767  -10.0661  -67.6541 N   0  0  0  0  0  0  0  0  0  0  0  0
   62.6763   -7.9667  -68.1887 N   0  0  0  0  0  0  0  0  0  0  0  0
   62.9062   -6.6301  -68.5201 C   0  0  0  0  0  0  0  0  0  0  0  0
   61.5399   -8.6861  -68.3934 C   0  0  0  0  0  0  0  0  0  0  0  0
   65.1955   -2.6021  -68.8524 C   0  0  0  0  0  0  0  0  0  0  0  0
   64.0505   -4.8708  -68.8713 C   0  0  0  0  0  0  0  0  0  0  0  0
   64.0369   -5.9932  -68.4344 C   0  0  0  0  0  0  0  0  0  0  0  0
   61.6053  -10.0391  -68.7393 C   0  0  0  0  0  0  0  0  0  0  0  0
   64.2899   -2.1909  -69.7588 C   0  0  0  0  0  0  0  0  0  0  0  0
   62.8624  -10.6813  -68.4987 C   0  0  0  0  0  0  0  0  0  0  0  0
   60.5243  -10.5947  -68.9366 O   0  0  0  0  0  0  0  0  0  0  0  0
   66.3053   -1.9026  -68.4946 C   0  0  0  0  0  0  0  0  0  0  0  0
   66.3215   -0.5363  -68.8592 O   0  0  0  0  0  0  0  0  0  0  0  0
   67.2201   -2.3114  -67.6620 C   0  0  0  0  0  0  0  0  0  0  0  0
   67.4006   -0.0967  -69.5391 C   0  0  0  0  0  0  0  0  0  0  0  0
  1  2  1  0
  2  3  1  0
  1  4  2  0
  2  5  2  0
  4  6  1  0
  6  7  2  0
  7  8  1  0
  7  9  1  0
  9 10  1  0
  9 11  1  0
  5 12  1  0
  5 13  1  0
  4 14  1  0
 10 14  1  0
 13 14  1  0
 11 15  1  0
 12 16  1  0
  8 17  1  0
 15 17  1  0
 15 18  2  0
 12 19  2  0
 19 20  1  0
  3 21  2  0
 19 21  1  0
 20 22  1  0
M  END
>  <ID>  (1) 
conformer_0

$$$$
