
     RDKit          3D

 22 24  0  0  0  0  0  0  0  0999 V2000
   66.1729   -5.7793  -67.5476 C   0  0  0  0  0  0  0  0  0  0  0  0
   64.9244   -6.0750  -67.8965 C   0  0  0  0  0  0  0  0  0  0  0  0
   66.6624   -4.4653  -67.9454 C   0  0  0  0  0  0  0  0  0  0  0  0
   64.3283   -7.3795  -67.4951 C   0  0  0  0  0  0  0  0  0  0  0  0
   63.4690   -7.9592  -68.2731 N   0  0  0  0  0  0  0  0  0  0  0  0
   64.0279   -5.1001  -68.4124 C   0  0  0  0  0  0  0  0  0  0  0  0
   65.1149   -8.1244  -66.6386 O   0  0  0  0  0  0  0  0  0  0  0  0
   68.0377   -4.0530  -67.6284 C   0  0  0  0  0  0  0  0  0  0  0  0
   68.2349   -3.4076  -66.3586 C   0  0  0  0  0  0  0  0  0  0  0  0
   65.6916   -3.5403  -68.6298 C   0  0  0  0  0  0  0  0  0  0  0  0
   62.8764   -7.2745  -69.2527 C   0  0  0  0  0  0  0  0  0  0  0  0
   64.5869   -4.0046  -68.7818 C   0  0  0  0  0  0  0  0  0  0  0  0
   62.9907   -5.8154  -69.3604 C   0  0  0  0  0  0  0  0  0  0  0  0
   63.1250   -7.9024  -70.5614 C   0  0  0  0  0  0  0  0  0  0  0  0
   62.7428   -9.0194  -67.6781 C   0  0  0  0  0  0  0  0  0  0  0  0
   69.5480   -2.9460  -66.0002 C   0  0  0  0  0  0  0  0  0  0  0  0
   62.7386   -9.2834  -70.6499 C   0  0  0  0  0  0  0  0  0  0  0  0
   70.6186   -3.4296  -65.8293 C   0  0  0  0  0  0  0  0  0  0  0  0
   69.4727   -1.4402  -65.3817 C   0  0  0  0  0  0  0  0  0  0  0  0
   62.3482  -10.0676  -68.5267 C   0  0  0  0  0  0  0  0  0  0  0  0
   61.7665   -9.6974  -69.7418 N   0  0  0  0  0  0  0  0  0  0  0  0
   71.8526   -2.8904  -65.3854 O   0  0  0  0  0  0  0  0  0  0  0  0
  1  2  1  0
  1  3  2  0
  2  4  1  0
  4  5  1  0
  2  6  2  0
  4  7  2  0
  3  8  1  0
  8  9  2  3
  3 10  1  0
  5 11  1  0
  6 12  1  0
 10 12  2  0
  6 13  1  0
 11 13  1  0
 11 14  1  0
  5 15  1  0
  9 16  1  0
 14 17  1  0
 16 18  2  3
 16 19  1  0
 15 20  1  0
 17 21  1  0
 20 21  1  0
 18 22  1  0
M  END
>  <ID>  (1) 
conformer_0

$$$$
