
     RDKit          3D

 22 24  0  0  0  0  0  0  0  0999 V2000
   65.1966   -6.9787  -67.0525 C   0  0  0  0  0  0  0  0  0  0  0  0
   65.6167   -5.8916  -67.5796 C   0  0  0  0  0  0  0  0  0  0  0  0
   66.7827   -5.2361  -67.2798 C   0  0  0  0  0  0  0  0  0  0  0  0
   64.3640   -7.9387  -67.7115 C   0  0  0  0  0  0  0  0  0  0  0  0
   63.8334   -7.4894  -68.9681 C   0  0  0  0  0  0  0  0  0  0  0  0
   65.0590   -5.5974  -68.9010 C   0  0  0  0  0  0  0  0  0  0  0  0
   67.0132   -3.9499  -67.8058 C   0  0  0  0  0  0  0  0  0  0  0  0
   64.2059   -6.3729  -69.5044 C   0  0  0  0  0  0  0  0  0  0  0  0
   62.8525   -8.4405  -69.3737 C   0  0  0  0  0  0  0  0  0  0  0  0
   66.4144   -3.5682  -69.0154 C   0  0  0  0  0  0  0  0  0  0  0  0
   68.1281   -3.1357  -67.3392 C   0  0  0  0  0  0  0  0  0  0  0  0
   68.7747   -3.5606  -66.2893 C   0  0  0  0  0  0  0  0  0  0  0  0
   69.9657   -2.7303  -65.9829 C   0  0  0  0  0  0  0  0  0  0  0  0
   68.4220   -1.9344  -67.9870 C   0  0  0  0  0  0  0  0  0  0  0  0
   70.7722   -3.2516  -64.5825 C   0  0  0  0  0  0  0  0  0  0  0  0
   67.5547   -1.4754  -69.0635 O   0  0  0  0  0  0  0  0  0  0  0  0
   61.8821   -8.8774  -68.5897 N   0  0  0  0  0  0  0  0  0  0  0  0
   69.4984   -1.0906  -67.4997 C   0  0  0  0  0  0  0  0  0  0  0  0
   65.4173   -4.4016  -69.4621 C   0  0  0  0  0  0  0  0  0  0  0  0
   70.2279   -1.3954  -66.3810 C   0  0  0  0  0  0  0  0  0  0  0  0
   63.0097   -8.9936  -70.5527 O   0  0  0  0  0  0  0  0  0  0  0  0
   60.9315   -9.8409  -68.7822 O   0  0  0  0  0  0  0  0  0  0  0  0
  1  2  1  0
  2  3  1  0
  1  4  2  0
  4  5  1  0
  2  6  2  0
  3  7  2  0
  5  8  2  0
  6  8  1  0
  5  9  1  0
  7 10  1  0
  7 11  1  0
 11 12  1  0
 12 13  2  0
 11 14  2  0
 13 15  1  0
 14 16  1  0
  9 17  1  0
 14 18  1  0
  6 19  1  0
 10 19  2  0
 13 20  1  0
 18 20  2  0
  9 21  2  0
 17 22  1  0
M  END
>  <ID>  (1) 
conformer_0

$$$$
