
     RDKit          3D

  7  7  0  0  0  0  0  0  0  0999 V2000
   70.5614   -1.6706  -65.3239 C   0  0  0  0  0  0  0  0  0  0  0  0
   70.9499   -2.9323  -65.1960 C   0  0  0  0  0  0  0  0  0  0  0  0
   71.7057   -3.2069  -64.0793 F   0  0  0  0  0  0  0  0  0  0  0  0
   70.9438   -3.6675  -66.3083 C   0  0  0  0  0  0  0  0  0  0  0  0
   70.0885   -3.1833  -67.3064 C   0  0  0  0  0  0  0  0  0  0  0  0
   69.5677   -1.9575  -67.3795 C   0  0  0  0  0  0  0  0  0  0  0  0
   69.7060   -1.1457  -66.1843 C   0  0  0  0  0  0  0  0  0  0  0  0
  1  2  1  0
  2  3  1  0
  2  4  2  0
  4  5  1  0
  5  6  2  0
  1  7  2  0
  6  7  1  0
M  END
>  <ID>  (1) 
conformer_0

$$$$
