
     RDKit          3D

  8  8  0  0  0  0  0  0  0  0999 V2000
   60.7933   -9.7576  -67.8169 O   0  0  0  0  0  0  0  0  0  0  0  0
   61.6118   -9.5462  -68.7909 C   0  0  0  0  0  0  0  0  0  0  0  0
   62.7457   -8.7876  -68.6099 C   0  0  0  0  0  0  0  0  0  0  0  0
   63.2444   -8.7525  -67.3005 N   0  0  0  0  0  0  0  0  0  0  0  0
   63.3436   -8.1834  -69.6085 C   0  0  0  0  0  0  0  0  0  0  0  0
   61.1019   -9.8081  -69.9737 O   0  0  0  0  0  0  0  0  0  0  0  0
   64.5943   -7.4489  -68.9840 C   0  0  0  0  0  0  0  0  0  0  0  0
   64.4271   -7.8352  -67.5536 C   0  0  0  0  0  0  0  0  0  0  0  0
  1  2  1  0
  2  3  1  0
  3  4  1  0
  3  5  2  0
  2  6  2  0
  5  7  1  0
  4  8  1  0
  7  8  2  0
M  END
>  <ID>  (1) 
conformer_0

$$$$
