
     RDKit          3D

  8  8  0  0  0  0  0  0  0  0999 V2000
   -4.7238   73.8788    4.7163 C   0  0  0  0  0  0  0  0  0  0  0  0
   -4.4352   75.0421    4.0373 C   0  0  0  0  0  0  0  0  0  0  0  0
   -3.8467   73.6952    5.9360 C   0  0  0  0  0  0  0  0  0  0  0  0
   -3.6793   75.9288    4.6268 C   0  0  0  0  0  0  0  0  0  0  0  0
   -3.2219   75.0473    5.9936 N   0  0  0  0  0  0  0  0  0  0  0  0
   -4.3788   77.0961    5.2176 C   0  0  0  0  0  0  0  0  0  0  0  0
   -5.5976   75.6477    3.4692 O   0  0  0  0  0  0  0  0  0  0  0  0
   -3.8175   77.6144    6.4856 O   0  0  0  0  0  0  0  0  0  0  0  0
  1  2  1  0
  1  3  1  0
  2  4  1  0
  3  5  1  0
  4  5  1  0
  4  6  1  0
  2  7  1  0
  6  8  1  0
M  END
>  <ID>  (1) 
conformer_0

$$$$
