
     RDKit          3D

  9  8  0  0  0  0  0  0  0  0999 V2000
   -5.5849   74.4347    3.8887 C   0  0  0  0  0  0  0  0  0  0  0  0
   -4.3232   74.3664    4.4806 C   0  0  0  0  0  0  0  0  0  0  0  0
   -3.6879   75.6765    4.7278 C   0  0  0  0  0  0  0  0  0  0  0  0
   -2.9287   75.8930    5.8323 N   0  0  0  0  0  0  0  0  0  0  0  0
   -5.9655   75.6937    3.6925 O   0  0  0  0  0  0  0  0  0  0  0  0
   -2.5742   77.1871    6.2451 C   0  0  0  0  0  0  0  0  0  0  0  0
   -1.8865   77.3398    7.3737 C   0  0  0  0  0  0  0  0  0  0  0  0
   -1.0814   78.4369    7.6657 O   0  0  0  0  0  0  0  0  0  0  0  0
   -4.3946   73.6569    5.7347 N   0  0  0  0  0  0  0  0  0  0  0  0
  1  2  1  0
  2  3  1  0
  3  4  1  0
  1  5  1  0
  4  6  1  0
  6  7  1  0
  7  8  1  0
  2  9  1  0
M  END
>  <ID>  (1) 
conformer_0

$$$$
