
     RDKit          3D

  8  7  0  0  0  0  0  0  0  0999 V2000
   -4.7238   73.8788    4.7163 C   0  0  0  0  0  0  0  0  0  0  0  0
   -4.4352   75.0421    4.0373 C   0  0  0  0  0  0  0  0  0  0  0  0
   -3.9716   76.1080    4.6608 C   0  0  0  0  0  0  0  0  0  0  0  0
   -4.8267   77.0812    5.0070 O   0  0  0  0  0  0  0  0  0  0  0  0
   -3.3589   75.8996    5.9771 C   0  0  0  0  0  0  0  0  0  0  0  0
   -2.7180   76.9590    6.6295 C   0  0  0  0  0  0  0  0  0  0  0  0
   -4.8121   75.1029    2.7723 O   0  0  0  0  0  0  0  0  0  0  0  0
   -3.3531   77.6047    7.6000 O   0  0  0  0  0  0  0  0  0  0  0  0
  1  2  1  0
  2  3  1  0
  3  4  1  0
  3  5  1  0
  5  6  1  0
  2  7  2  0
  6  8  1  0
M  END
>  <ID>  (1) 
conformer_0

$$$$
