
     RDKit          3D

 10 10  0  0  0  0  0  0  0  0999 V2000
   -4.7238   73.8788    4.7163 C   0  0  0  0  0  0  0  0  0  0  0  0
   -4.4352   75.0421    4.0373 C   0  0  0  0  0  0  0  0  0  0  0  0
   -3.8467   73.6952    5.9360 C   0  0  0  0  0  0  0  0  0  0  0  0
   -4.8545   75.3503    2.9501 O   0  0  0  0  0  0  0  0  0  0  0  0
   -3.3115   75.0337    5.9864 N   0  0  0  0  0  0  0  0  0  0  0  0
   -3.4108   75.6931    4.7462 C   0  0  0  0  0  0  0  0  0  0  0  0
   -3.7495   77.1355    5.0592 C   0  0  0  0  0  0  0  0  0  0  0  0
   -3.3267   77.5355    6.3473 O   0  0  0  0  0  0  0  0  0  0  0  0
   -4.3693   77.8071    4.3911 O   0  0  0  0  0  0  0  0  0  0  0  0
   -3.8251   78.7243    6.8016 C   0  0  0  0  0  0  0  0  0  0  0  0
  1  2  1  0
  1  3  1  0
  2  4  2  0
  3  5  1  0
  2  6  1  0
  5  6  1  0
  6  7  1  0
  7  8  1  0
  7  9  2  0
  8 10  1  0
M  END
>  <ID>  (1) 
conformer_0

$$$$
