
     RDKit          3D

 10 10  0  0  0  0  0  0  0  0999 V2000
   -4.4727   73.6985    4.3310 C   0  0  0  0  0  0  0  0  0  0  0  0
   -4.4041   75.0708    4.0316 C   0  0  0  0  0  0  0  0  0  0  0  0
   -3.8132   75.9273    4.8313 C   0  0  0  0  0  0  0  0  0  0  0  0
   -3.9321   73.2212    5.5042 C   0  0  0  0  0  0  0  0  0  0  0  0
   -2.9699   75.4487    5.8495 C   0  0  0  0  0  0  0  0  0  0  0  0
   -3.0615   74.1030    6.1602 C   0  0  0  0  0  0  0  0  0  0  0  0
   -2.1499   76.4061    6.6158 C   0  0  0  0  0  0  0  0  0  0  0  0
   -0.9425   76.0701    6.7855 O   0  0  0  0  0  0  0  0  0  0  0  0
   -2.5937   77.4838    7.1213 O   0  0  0  0  0  0  0  0  0  0  0  0
   -5.2212   75.4606    2.9555 O   0  0  0  0  0  0  0  0  0  0  0  0
  1  2  1  0
  2  3  2  0
  1  4  2  0
  3  5  1  0
  4  6  1  0
  5  6  2  0
  5  7  1  0
  7  8  2  0
  7  9  1  0
  2 10  1  0
M  END
>  <ID>  (1) 
conformer_0

$$$$
