
     RDKit          3D

 10 10  0  0  0  0  0  0  0  0999 V2000
   -4.6152   73.7571    5.8294 O   0  0  0  0  0  0  0  0  0  0  0  0
   -3.9679   74.7027    5.1276 C   0  0  0  0  0  0  0  0  0  0  0  0
   -3.6318   75.8948    5.7045 C   0  0  0  0  0  0  0  0  0  0  0  0
   -4.3433   76.9934    5.0932 C   0  0  0  0  0  0  0  0  0  0  0  0
   -5.2377   76.5641    3.9503 C   0  0  0  0  0  0  0  0  0  0  0  0
   -3.6627   78.2268    4.8494 O   0  0  0  0  0  0  0  0  0  0  0  0
   -2.5388   76.1186    6.1002 O   0  0  0  0  0  0  0  0  0  0  0  0
   -5.1190   77.0224    2.7770 O   0  0  0  0  0  0  0  0  0  0  0  0
   -4.7552   75.0207    3.8020 C   0  0  0  0  0  0  0  0  0  0  0  0
   -5.9710   74.3248    3.6854 O   0  0  0  0  0  0  0  0  0  0  0  0
  1  2  1  0
  2  3  1  0
  3  4  1  0
  4  5  1  0
  4  6  1  0
  3  7  1  0
  5  8  1  0
  2  9  1  0
  5  9  1  0
  9 10  1  0
M  END
>  <ID>  (1) 
conformer_0

$$$$
