
     RDKit          3D

  7  7  0  0  0  0  0  0  0  0999 V2000
   -5.3458   74.9085    3.7101 C   0  0  0  0  0  0  0  0  0  0  0  0
   -4.3349   74.4942    4.5446 C   0  0  0  0  0  0  0  0  0  0  0  0
   -5.2630   76.2737    3.2980 N   0  0  0  0  0  0  0  0  0  0  0  0
   -4.5892   76.9997    4.1951 C   0  0  0  0  0  0  0  0  0  0  0  0
   -3.8997   75.5053    5.4814 C   0  0  0  0  0  0  0  0  0  0  0  0
   -2.6438   75.1475    6.2316 N   0  0  0  0  0  0  0  0  0  0  0  0
   -3.4247   76.7236    4.7522 C   0  0  0  0  0  0  0  0  0  0  0  0
  1  2  1  0
  1  3  1  0
  3  4  1  0
  2  5  1  0
  5  6  1  0
  4  7  1  0
  5  7  1  0
M  END
>  <ID>  (1) 
conformer_0

$$$$
