
     RDKit          3D

  9  8  0  0  0  0  0  0  0  0999 V2000
   -5.6598   74.2243    4.0632 O   0  0  0  0  0  0  0  0  0  0  0  0
   -4.4279   74.4358    4.3608 C   0  0  0  0  0  0  0  0  0  0  0  0
   -4.1476   75.8154    4.4950 C   0  0  0  0  0  0  0  0  0  0  0  0
   -3.5422   76.2147    5.7226 C   0  0  0  0  0  0  0  0  0  0  0  0
   -3.7082   73.5113    4.8588 O   0  0  0  0  0  0  0  0  0  0  0  0
   -4.4319   76.6408    3.5667 O   0  0  0  0  0  0  0  0  0  0  0  0
   -3.2253   77.5508    5.8674 C   0  0  0  0  0  0  0  0  0  0  0  0
   -2.7992   77.9888    7.1740 C   0  0  0  0  0  0  0  0  0  0  0  0
   -1.7619   77.3573    7.7539 O   0  0  0  0  0  0  0  0  0  0  0  0
  1  2  2  0
  2  3  1  0
  3  4  1  0
  2  5  1  0
  3  6  1  0
  4  7  1  0
  7  8  1  0
  8  9  1  0
M  END
>  <ID>  (1) 
conformer_0

$$$$
