
     RDKit          3D

 10 10  0  0  0  0  0  0  0  0999 V2000
   -4.5927   76.1166    3.2467 O   0  0  0  0  0  0  0  0  0  0  0  0
   -4.2411   76.2067    4.3853 C   0  0  0  0  0  0  0  0  0  0  0  0
   -4.1017   77.2286    5.0993 N   0  0  0  0  0  0  0  0  0  0  0  0
   -3.6043   77.3868    6.1605 C   0  0  0  0  0  0  0  0  0  0  0  0
   -3.5019   74.8678    4.8275 C   0  0  0  0  0  0  0  0  0  0  0  0
   -3.3315   74.9184    6.2409 C   0  0  0  0  0  0  0  0  0  0  0  0
   -4.0630   73.7389    4.3375 C   0  0  0  0  0  0  0  0  0  0  0  0
   -3.4088   78.6142    6.6980 O   0  0  0  0  0  0  0  0  0  0  0  0
   -3.3310   76.2675    6.7709 N   0  0  0  0  0  0  0  0  0  0  0  0
   -5.4885   73.6362    4.7356 O   0  0  0  0  0  0  0  0  0  0  0  0
  1  2  2  0
  2  3  1  0
  3  4  1  0
  2  5  1  0
  5  6  1  0
  5  7  1  0
  4  8  2  0
  4  9  1  0
  6  9  1  0
  7 10  1  0
M  END
>  <ID>  (1) 
conformer_0

$$$$
