
     RDKit          3D

 10  9  0  0  0  0  0  0  0  0999 V2000
   -4.6152   73.7571    5.8294 O   0  0  0  0  0  0  0  0  0  0  0  0
   -3.9679   74.7027    5.1276 C   0  0  0  0  0  0  0  0  0  0  0  0
   -4.8451   75.2633    3.9964 C   0  0  0  0  0  0  0  0  0  0  0  0
   -4.4649   76.2976    3.4966 O   0  0  0  0  0  0  0  0  0  0  0  0
   -5.7800   74.5810    3.6847 O   0  0  0  0  0  0  0  0  0  0  0  0
   -3.4403   75.8018    5.8799 C   0  0  0  0  0  0  0  0  0  0  0  0
   -2.1071   76.0908    5.9801 C   0  0  0  0  0  0  0  0  0  0  0  0
   -1.6788   77.3561    6.6728 C   0  0  0  0  0  0  0  0  0  0  0  0
   -2.3029   77.4655    7.8037 O   0  0  0  0  0  0  0  0  0  0  0  0
   -0.2754   77.6344    6.7512 C   0  0  0  0  0  0  0  0  0  0  0  0
  1  2  1  0
  2  3  1  0
  3  4  2  0
  3  5  1  0
  2  6  1  0
  6  7  1  0
  7  8  1  0
  8  9  1  0
  8 10  1  0
M  END
>  <ID>  (1) 
conformer_0

$$$$
