
     RDKit          3D

  9  8  0  0  0  0  0  0  0  0999 V2000
   -4.6152   73.7571    5.8294 O   0  0  0  0  0  0  0  0  0  0  0  0
   -3.9679   74.7027    5.1276 C   0  0  0  0  0  0  0  0  0  0  0  0
   -4.8451   75.2633    3.9964 C   0  0  0  0  0  0  0  0  0  0  0  0
   -4.4649   76.2976    3.4966 O   0  0  0  0  0  0  0  0  0  0  0  0
   -5.5812   74.4230    3.5438 O   0  0  0  0  0  0  0  0  0  0  0  0
   -3.4718   75.7887    5.9253 C   0  0  0  0  0  0  0  0  0  0  0  0
   -4.1937   76.4842    6.6576 N   0  0  0  0  0  0  0  0  0  0  0  0
   -2.1395   76.2047    5.8068 O   0  0  0  0  0  0  0  0  0  0  0  0
   -3.8058   77.6308    7.5034 C   0  0  0  0  0  0  0  0  0  0  0  0
  1  2  1  0
  2  3  1  0
  3  4  2  0
  3  5  1  0
  2  6  1  0
  6  7  1  0
  6  8  2  0
  7  9  1  0
M  END
>  <ID>  (1) 
conformer_0

$$$$
