
     RDKit          3D

  9  8  0  0  0  0  0  0  0  0999 V2000
   -4.6152   73.7571    5.8294 O   0  0  0  0  0  0  0  0  0  0  0  0
   -4.3082   74.4208    4.6836 C   0  0  0  0  0  0  0  0  0  0  0  0
   -3.5343   75.7400    4.8308 C   0  0  0  0  0  0  0  0  0  0  0  0
   -3.0175   75.9650    6.0008 N   0  0  0  0  0  0  0  0  0  0  0  0
   -2.9223   77.1696    6.5382 C   0  0  0  0  0  0  0  0  0  0  0  0
   -5.5635   74.6473    3.8537 C   0  0  0  0  0  0  0  0  0  0  0  0
   -2.2578   77.5280    7.5914 C   0  0  0  0  0  0  0  0  0  0  0  0
   -5.5488   75.9661    3.2882 O   0  0  0  0  0  0  0  0  0  0  0  0
   -4.3033   77.8949    6.5837 O   0  0  0  0  0  0  0  0  0  0  0  0
  1  2  1  0
  2  3  1  0
  3  4  1  0
  4  5  1  0
  2  6  1  0
  5  7  1  0
  6  8  1  0
  5  9  1  0
M  END
>  <ID>  (1) 
conformer_0

$$$$
