
     RDKit          3D

 10  9  0  0  0  0  0  0  0  0999 V2000
   -5.0884   76.3033    3.2928 O   0  0  0  0  0  0  0  0  0  0  0  0
   -4.7108   75.4156    3.9858 C   0  0  0  0  0  0  0  0  0  0  0  0
   -3.7291   75.6520    5.0026 C   0  0  0  0  0  0  0  0  0  0  0  0
   -3.5795   76.9771    5.3959 C   0  0  0  0  0  0  0  0  0  0  0  0
   -4.0068   74.8302    6.1233 C   0  0  0  0  0  0  0  0  0  0  0  0
   -2.2909   77.5357    5.6332 O   0  0  0  0  0  0  0  0  0  0  0  0
   -2.0149   78.1928    6.7335 C   0  0  0  0  0  0  0  0  0  0  0  0
   -1.1437   77.7772    7.5221 O   0  0  0  0  0  0  0  0  0  0  0  0
    0.0784   78.3217    7.3774 C   0  0  0  0  0  0  0  0  0  0  0  0
   -4.9410   74.1470    3.8973 O   0  0  0  0  0  0  0  0  0  0  0  0
  1  2  2  0
  2  3  1  0
  3  4  1  0
  3  5  1  0
  4  6  1  0
  6  7  1  0
  7  8  1  0
  8  9  1  0
  2 10  1  0
M  END
>  <ID>  (1) 
conformer_0

$$$$
