
     RDKit          3D

  8  8  0  0  0  0  0  0  0  0999 V2000
   -5.3033   76.3657    3.5872 N   0  0  0  0  0  0  0  0  0  0  0  0
   -4.5800   76.7855    4.3444 C   0  0  0  0  0  0  0  0  0  0  0  0
   -3.9299   75.8439    5.1846 C   0  0  0  0  0  0  0  0  0  0  0  0
   -2.8952   76.1223    6.0997 C   0  0  0  0  0  0  0  0  0  0  0  0
   -4.4649   74.5556    5.0042 C   0  0  0  0  0  0  0  0  0  0  0  0
   -2.9203   77.5441    6.5684 C   0  0  0  0  0  0  0  0  0  0  0  0
   -5.4570   74.8767    3.7802 C   0  0  0  0  0  0  0  0  0  0  0  0
   -2.6697   77.7019    7.8302 O   0  0  0  0  0  0  0  0  0  0  0  0
  1  2  1  0
  2  3  2  0
  3  4  1  0
  3  5  1  0
  4  6  1  0
  1  7  2  0
  5  7  1  0
  6  8  1  0
M  END
>  <ID>  (1) 
conformer_0

$$$$
