
     RDKit          3D

  8  7  0  0  0  0  0  0  0  0999 V2000
   -4.5347   73.3559    5.4616 C   0  0  0  0  0  0  0  0  0  0  0  0
   -4.3927   74.4733    4.4345 C   0  0  0  0  0  0  0  0  0  0  0  0
   -5.7211   75.1447    4.1977 N   0  0  0  0  0  0  0  0  0  0  0  0
   -3.3221   75.4693    4.7638 C   0  0  0  0  0  0  0  0  0  0  0  0
   -2.8904   75.4879    5.9875 N   0  0  0  0  0  0  0  0  0  0  0  0
   -2.1194   76.7134    6.2921 C   0  0  0  0  0  0  0  0  0  0  0  0
   -0.9599   76.9910    6.0877 O   0  0  0  0  0  0  0  0  0  0  0  0
   -2.7608   77.3783    7.5483 C   0  0  0  0  0  0  0  0  0  0  0  0
  1  2  1  0
  2  3  1  0
  2  4  1  0
  4  5  1  0
  5  6  1  0
  6  7  2  0
  6  8  1  0
M  END
>  <ID>  (1) 
conformer_0

$$$$
