
     RDKit          3D

  6  6  0  0  0  0  0  0  0  0999 V2000
   -4.7472   73.4834    4.9842 C   0  0  0  0  0  0  0  0  0  0  0  0
   -5.3506   74.2022    4.0517 C   0  0  0  0  0  0  0  0  0  0  0  0
   -4.6122   75.5343    3.6849 C   0  0  0  0  0  0  0  0  0  0  0  0
   -3.5953   74.2838    5.6621 N   0  0  0  0  0  0  0  0  0  0  0  0
   -5.1484   76.6588    3.4098 O   0  0  0  0  0  0  0  0  0  0  0  0
   -3.2861   75.4366    4.1032 O   0  0  0  0  0  0  0  0  0  0  0  0
  1  2  1  0
  2  3  1  0
  1  4  1  0
  3  5  2  0
  3  6  1  0
  4  6  1  0
M  END
>  <ID>  (1) 
conformer_0

$$$$
