
     RDKit          3D

 10 10  0  0  0  0  0  0  0  0999 V2000
   -4.7876   76.5439    3.5627 O   0  0  0  0  0  0  0  0  0  0  0  0
   -4.1953   75.7150    4.3374 C   0  0  0  0  0  0  0  0  0  0  0  0
   -3.3807   76.0947    5.3727 N   0  0  0  0  0  0  0  0  0  0  0  0
   -4.7218   74.3190    4.3102 C   0  0  0  0  0  0  0  0  0  0  0  0
   -4.0158   73.4568    5.0978 C   0  0  0  0  0  0  0  0  0  0  0  0
   -3.0202   73.9298    5.9829 C   0  0  0  0  0  0  0  0  0  0  0  0
   -3.0437   77.5204    5.3115 C   0  0  0  0  0  0  0  0  0  0  0  0
   -2.6800   75.2463    6.0218 C   0  0  0  0  0  0  0  0  0  0  0  0
   -1.8045   77.7860    5.8842 C   0  0  0  0  0  0  0  0  0  0  0  0
   -1.9905   78.4955    7.1072 O   0  0  0  0  0  0  0  0  0  0  0  0
  1  2  2  0
  2  3  1  0
  2  4  1  0
  4  5  2  0
  5  6  1  0
  3  7  1  0
  3  8  1  0
  6  8  2  0
  7  9  1  0
  9 10  1  0
M  END
>  <ID>  (1) 
conformer_0

$$$$
