
     RDKit          3D

 10 10  0  0  0  0  0  0  0  0999 V2000
   -4.8330   75.8000    3.1205 O   0  0  0  0  0  0  0  0  0  0  0  0
   -4.3773   75.1030    4.1148 C   0  0  0  0  0  0  0  0  0  0  0  0
   -3.6165   75.6644    5.0622 N   0  0  0  0  0  0  0  0  0  0  0  0
   -3.2587   77.1127    4.7276 C   0  0  0  0  0  0  0  0  0  0  0  0
   -3.4328   75.1637    6.1329 C   0  0  0  0  0  0  0  0  0  0  0  0
   -2.7506   75.9454    7.0160 C   0  0  0  0  0  0  0  0  0  0  0  0
   -4.6935   73.7813    4.1597 C   0  0  0  0  0  0  0  0  0  0  0  0
   -3.3223   77.8097    5.9738 C   0  0  0  0  0  0  0  0  0  0  0  0
   -2.8947   77.2892    7.1235 N   0  0  0  0  0  0  0  0  0  0  0  0
   -3.6389   77.8454    8.2168 C   0  0  0  0  0  0  0  0  0  0  0  0
  1  2  2  0
  2  3  1  0
  3  4  1  0
  3  5  1  0
  5  6  1  0
  2  7  1  0
  4  8  1  0
  6  9  1  0
  8  9  1  0
  9 10  1  0
M  END
>  <ID>  (1) 
conformer_0

$$$$
