
     RDKit          3D

 10 10  0  0  0  0  0  0  0  0999 V2000
   -4.6152   73.7571    5.8294 O   0  0  0  0  0  0  0  0  0  0  0  0
   -3.9679   74.7027    5.1276 C   0  0  0  0  0  0  0  0  0  0  0  0
   -3.6318   75.8948    5.7045 C   0  0  0  0  0  0  0  0  0  0  0  0
   -4.3433   76.9934    5.0932 C   0  0  0  0  0  0  0  0  0  0  0  0
   -3.9980   74.4588    3.7665 O   0  0  0  0  0  0  0  0  0  0  0  0
   -4.0045   78.2600    5.6449 C   0  0  0  0  0  0  0  0  0  0  0  0
   -5.1918   76.9913    3.9824 O   0  0  0  0  0  0  0  0  0  0  0  0
   -2.7244   76.1097    6.5594 C   0  0  0  0  0  0  0  0  0  0  0  0
   -2.4104   77.3522    7.0902 C   0  0  0  0  0  0  0  0  0  0  0  0
   -3.1427   78.4659    6.5936 C   0  0  0  0  0  0  0  0  0  0  0  0
  1  2  1  0
  2  3  1  0
  3  4  2  0
  2  5  2  0
  4  6  1  0
  4  7  1  0
  3  8  1  0
  8  9  2  0
  6 10  2  0
  9 10  1  0
M  END
>  <ID>  (1) 
conformer_0

$$$$
