
     RDKit          3D

 10 10  0  0  0  0  0  0  0  0999 V2000
   -4.9364   73.3393    5.0335 O   0  0  0  0  0  0  0  0  0  0  0  0
   -4.5071   74.3932    4.2899 C   0  0  0  0  0  0  0  0  0  0  0  0
   -3.6254   75.4032    4.8308 C   0  0  0  0  0  0  0  0  0  0  0  0
   -5.7151   75.2256    3.7593 C   0  0  0  0  0  0  0  0  0  0  0  0
   -3.2972   75.2758    6.1062 N   0  0  0  0  0  0  0  0  0  0  0  0
   -2.2904   76.1146    6.5476 C   0  0  0  0  0  0  0  0  0  0  0  0
   -2.5843   77.1262    7.4253 C   0  0  0  0  0  0  0  0  0  0  0  0
   -1.0682   76.0081    6.1345 O   0  0  0  0  0  0  0  0  0  0  0  0
   -4.2222   76.7475    4.5979 C   0  0  0  0  0  0  0  0  0  0  0  0
   -5.5764   76.4613    4.1339 O   0  0  0  0  0  0  0  0  0  0  0  0
  1  2  1  0
  2  3  1  0
  2  4  1  0
  3  5  1  0
  5  6  1  0
  6  7  1  0
  6  8  2  0
  3  9  1  0
  4 10  1  0
  9 10  1  0
M  END
>  <ID>  (1) 
conformer_0

$$$$
