
     RDKit          3D

 10 10  0  0  0  0  0  0  0  0999 V2000
   -4.7472   73.4834    4.9842 C   0  0  0  0  0  0  0  0  0  0  0  0
   -5.3506   74.2022    4.0517 N   0  0  0  0  0  0  0  0  0  0  0  0
   -4.8400   75.4272    3.6337 C   0  0  0  0  0  0  0  0  0  0  0  0
   -3.5251   74.0588    5.5595 N   0  0  0  0  0  0  0  0  0  0  0  0
   -3.7168   75.9628    4.2257 N   0  0  0  0  0  0  0  0  0  0  0  0
   -5.5469   76.2204    2.7851 N   0  0  0  0  0  0  0  0  0  0  0  0
   -3.1347   75.1353    5.2660 C   0  0  0  0  0  0  0  0  0  0  0  0
   -1.8963   75.7336    5.8436 C   0  0  0  0  0  0  0  0  0  0  0  0
   -2.1497   77.1049    6.4402 C   0  0  0  0  0  0  0  0  0  0  0  0
   -1.9708   77.2683    7.6536 O   0  0  0  0  0  0  0  0  0  0  0  0
  1  2  2  0
  2  3  1  0
  1  4  1  0
  3  5  2  0
  3  6  1  0
  4  7  2  0
  5  7  1  0
  7  8  1  0
  8  9  1  0
  9 10  1  0
M  END
>  <ID>  (1) 
conformer_0

$$$$
