
     RDKit          3D

  9  8  0  0  0  0  0  0  0  0999 V2000
   -4.7876   76.5439    3.5627 O   0  0  0  0  0  0  0  0  0  0  0  0
   -4.1259   76.4558    4.5709 C   0  0  0  0  0  0  0  0  0  0  0  0
   -3.7868   75.0589    4.9856 C   0  0  0  0  0  0  0  0  0  0  0  0
   -4.0971   77.3373    5.5273 N   0  0  0  0  0  0  0  0  0  0  0  0
   -3.3597   77.2973    6.7432 C   0  0  0  0  0  0  0  0  0  0  0  0
   -3.5684   78.3160    7.5668 C   0  0  0  0  0  0  0  0  0  0  0  0
   -2.3908   76.4772    6.8913 O   0  0  0  0  0  0  0  0  0  0  0  0
   -4.7487   74.1500    5.3486 C   0  0  0  0  0  0  0  0  0  0  0  0
   -5.5667   73.9803    4.4522 N   0  0  0  0  0  0  0  0  0  0  0  0
  1  2  2  0
  2  3  1  0
  2  4  1  0
  4  5  1  0
  5  6  1  0
  5  7  2  0
  3  8  1  0
  8  9  1  0
M  END
>  <ID>  (1) 
conformer_0

$$$$
