
     RDKit          3D

  7  7  0  0  0  0  0  0  0  0999 V2000
   -5.0967   73.7856    4.5598 C   0  0  0  0  0  0  0  0  0  0  0  0
   -4.2001   73.9578    5.4894 N   0  0  0  0  0  0  0  0  0  0  0  0
   -3.1404   74.8648    5.1313 C   0  0  0  0  0  0  0  0  0  0  0  0
   -3.6603   76.2743    5.0290 C   0  0  0  0  0  0  0  0  0  0  0  0
   -2.6681   77.1258    4.9672 O   0  0  0  0  0  0  0  0  0  0  0  0
   -4.8866   76.3158    4.7262 N   0  0  0  0  0  0  0  0  0  0  0  0
   -5.5870   75.1728    4.1644 C   0  0  0  0  0  0  0  0  0  0  0  0
  1  2  1  0
  2  3  1  0
  3  4  1  0
  4  5  2  0
  4  6  1  0
  1  7  1  0
  6  7  1  0
M  END
>  <ID>  (1) 
conformer_0

$$$$
