
     RDKit          3D

 10 10  0  0  0  0  0  0  0  0999 V2000
   -3.8584   76.1022    4.0226 O   0  0  0  0  0  0  0  0  0  0  0  0
   -3.5706   75.9735    5.1083 C   0  0  0  0  0  0  0  0  0  0  0  0
   -3.0898   76.9523    5.8164 C   0  0  0  0  0  0  0  0  0  0  0  0
   -3.5856   74.6458    5.6009 N   0  0  0  0  0  0  0  0  0  0  0  0
   -4.1295   73.5043    4.9996 C   0  0  0  0  0  0  0  0  0  0  0  0
   -1.7368   76.8907    6.2106 C   0  0  0  0  0  0  0  0  0  0  0  0
   -3.8691   77.1763    7.0610 C   0  0  0  0  0  0  0  0  0  0  0  0
   -3.2483   78.1796    7.9333 C   0  0  0  0  0  0  0  0  0  0  0  0
   -1.2010   78.0609    6.9560 C   0  0  0  0  0  0  0  0  0  0  0  0
   -1.9136   78.1047    8.1855 O   0  0  0  0  0  0  0  0  0  0  0  0
  1  2  2  0
  2  3  1  0
  2  4  1  0
  4  5  1  0
  3  6  1  0
  3  7  1  0
  7  8  1  0
  6  9  1  0
  8 10  1  0
  9 10  1  0
M  END
>  <ID>  (1) 
conformer_0

$$$$
