
     RDKit          3D

 10 10  0  0  0  0  0  0  0  0999 V2000
   -4.7876   76.5439    3.5627 O   0  0  0  0  0  0  0  0  0  0  0  0
   -4.1953   75.7150    4.3374 C   0  0  0  0  0  0  0  0  0  0  0  0
   -4.5095   74.3906    4.3144 C   0  0  0  0  0  0  0  0  0  0  0  0
   -3.4772   76.2149    5.3258 N   0  0  0  0  0  0  0  0  0  0  0  0
   -2.9603   75.4041    6.2181 C   0  0  0  0  0  0  0  0  0  0  0  0
   -3.2963   77.5737    5.6513 C   0  0  0  0  0  0  0  0  0  0  0  0
   -4.0554   78.0454    6.7086 C   0  0  0  0  0  0  0  0  0  0  0  0
   -3.8181   77.5770    7.8990 O   0  0  0  0  0  0  0  0  0  0  0  0
   -4.1917   73.7435    5.3533 C   0  0  0  0  0  0  0  0  0  0  0  0
   -2.8586   74.0029    5.7495 C   0  0  0  0  0  0  0  0  0  0  0  0
  1  2  2  0
  2  3  1  0
  2  4  1  0
  4  5  1  0
  4  6  1  0
  6  7  1  0
  7  8  1  0
  3  9  1  0
  5 10  1  0
  9 10  1  0
M  END
>  <ID>  (1) 
conformer_0

$$$$
