
     RDKit          3D

  8  7  0  0  0  0  0  0  0  0999 V2000
   -4.4727   73.6985    4.3310 C   0  0  0  0  0  0  0  0  0  0  0  0
   -4.4041   75.0708    4.0316 C   0  0  0  0  0  0  0  0  0  0  0  0
   -3.8132   75.9273    4.8313 C   0  0  0  0  0  0  0  0  0  0  0  0
   -3.1882   75.5974    5.8305 N   0  0  0  0  0  0  0  0  0  0  0  0
   -2.3253   76.5101    6.5832 C   0  0  0  0  0  0  0  0  0  0  0  0
   -2.8333   77.5194    7.2580 C   0  0  0  0  0  0  0  0  0  0  0  0
   -2.8652   78.7132    6.8227 O   0  0  0  0  0  0  0  0  0  0  0  0
   -3.6810   77.2554    8.2678 O   0  0  0  0  0  0  0  0  0  0  0  0
  1  2  1  0
  2  3  2  3
  3  4  1  0
  4  5  1  0
  5  6  1  0
  6  7  2  0
  6  8  1  0
M  END
>  <ID>  (1) 
conformer_0

$$$$
