
     RDKit          3D

 10 10  0  0  0  0  0  0  0  0999 V2000
   -4.7472   73.4834    4.9842 C   0  0  0  0  0  0  0  0  0  0  0  0
   -3.7850   74.0685    5.6778 N   0  0  0  0  0  0  0  0  0  0  0  0
   -5.1368   74.3204    3.8025 C   0  0  0  0  0  0  0  0  0  0  0  0
   -3.1726   75.2638    5.3828 C   0  0  0  0  0  0  0  0  0  0  0  0
   -2.0758   75.7811    6.1496 N   0  0  0  0  0  0  0  0  0  0  0  0
   -1.9253   77.0623    6.3069 C   0  0  0  0  0  0  0  0  0  0  0  0
   -0.7132   77.5287    6.8073 C   0  0  0  0  0  0  0  0  0  0  0  0
   -3.7244   75.8960    4.1780 C   0  0  0  0  0  0  0  0  0  0  0  0
   -4.7601   75.4104    3.6089 N   0  0  0  0  0  0  0  0  0  0  0  0
   -2.8761   77.8839    6.0958 O   0  0  0  0  0  0  0  0  0  0  0  0
  1  2  1  0
  1  3  2  0
  2  4  2  0
  4  5  1  0
  5  6  1  0
  6  7  1  0
  4  8  1  0
  3  9  1  0
  8  9  2  0
  6 10  2  0
M  END
>  <ID>  (1) 
conformer_0

$$$$
