
     RDKit          3D

 10 10  0  0  0  0  0  0  0  0999 V2000
   -4.5640   73.2815    5.3974 C   0  0  0  0  0  0  0  0  0  0  0  0
   -4.3382   74.4712    4.4770 C   0  0  0  0  0  0  0  0  0  0  0  0
   -3.6726   75.6055    5.0445 C   0  0  0  0  0  0  0  0  0  0  0  0
   -4.3909   76.7076    5.0639 C   0  0  0  0  0  0  0  0  0  0  0  0
   -4.3947   77.5166    6.1159 C   0  0  0  0  0  0  0  0  0  0  0  0
   -4.9428   77.1635    3.8028 O   0  0  0  0  0  0  0  0  0  0  0  0
   -5.6610   74.6493    4.0269 N   0  0  0  0  0  0  0  0  0  0  0  0
   -3.4319   77.0820    7.0837 C   0  0  0  0  0  0  0  0  0  0  0  0
   -2.8457   75.9557    7.2539 C   0  0  0  0  0  0  0  0  0  0  0  0
   -3.0400   75.1281    6.1654 C   0  0  0  0  0  0  0  0  0  0  0  0
  1  2  1  0
  2  3  1  0
  3  4  1  0
  4  5  2  0
  4  6  1  0
  2  7  1  0
  5  8  1  0
  8  9  2  0
  3 10  1  0
  9 10  1  0
M  END
>  <ID>  (1) 
conformer_0

$$$$
