
     RDKit          3D

  9  9  0  0  0  0  0  0  0  0999 V2000
   -5.5849   74.4347    3.8887 C   0  0  0  0  0  0  0  0  0  0  0  0
   -5.3543   75.7152    3.8058 C   0  0  0  0  0  0  0  0  0  0  0  0
   -4.6064   73.6595    4.5755 C   0  0  0  0  0  0  0  0  0  0  0  0
   -3.5146   74.2951    5.2231 C   0  0  0  0  0  0  0  0  0  0  0  0
   -3.4834   75.8548    5.0093 C   0  0  0  0  0  0  0  0  0  0  0  0
   -4.3318   76.4561    4.2764 C   0  0  0  0  0  0  0  0  0  0  0  0
   -2.3029   76.5265    5.7019 C   0  0  0  0  0  0  0  0  0  0  0  0
   -2.5872   77.4531    6.5230 N   0  0  0  0  0  0  0  0  0  0  0  0
   -1.7286   78.2620    6.9878 C   0  0  0  0  0  0  0  0  0  0  0  0
  1  2  2  0
  1  3  1  0
  3  4  2  0
  4  5  1  0
  2  6  1  0
  5  6  2  0
  5  7  1  0
  7  8  1  0
  8  9  1  0
M  END
>  <ID>  (1) 
conformer_0

$$$$
