
     RDKit          3D

 10 11  0  0  0  0  0  0  0  0999 V2000
   -4.6152   73.7571    5.8294 O   0  0  0  0  0  0  0  0  0  0  0  0
   -3.9679   74.7027    5.1276 C   0  0  0  0  0  0  0  0  0  0  0  0
   -3.6318   75.8948    5.7045 C   0  0  0  0  0  0  0  0  0  0  0  0
   -4.3433   76.9934    5.0932 C   0  0  0  0  0  0  0  0  0  0  0  0
   -4.2486   78.3081    5.6373 N   0  0  0  0  0  0  0  0  0  0  0  0
   -2.6680   76.2528    6.5268 C   0  0  0  0  0  0  0  0  0  0  0  0
   -4.9762   74.9427    3.9117 C   0  0  0  0  0  0  0  0  0  0  0  0
   -2.5026   77.4803    7.0726 C   0  0  0  0  0  0  0  0  0  0  0  0
   -3.2899   78.5340    6.6045 C   0  0  0  0  0  0  0  0  0  0  0  0
   -5.2114   76.4008    4.0014 C   0  0  0  0  0  0  0  0  0  0  0  0
  1  2  1  0
  2  3  1  0
  3  4  2  0
  4  5  1  0
  3  6  1  0
  2  7  1  0
  6  8  2  0
  5  9  2  0
  8  9  1  0
  4 10  1  0
  7 10  1  0
M  END
>  <ID>  (1) 
conformer_0

$$$$
