
     RDKit          3D

  8  7  0  0  0  0  0  0  0  0999 V2000
   -4.4169   75.0786    3.4891 O   0  0  0  0  0  0  0  0  0  0  0  0
   -4.6276   74.5555    4.4433 C   0  0  0  0  0  0  0  0  0  0  0  0
   -3.8573   74.7991    5.5238 N   0  0  0  0  0  0  0  0  0  0  0  0
   -2.8902   75.9197    5.5448 C   0  0  0  0  0  0  0  0  0  0  0  0
   -2.5667   76.4816    6.7304 C   0  0  0  0  0  0  0  0  0  0  0  0
   -5.5224   73.6633    4.5267 N   0  0  0  0  0  0  0  0  0  0  0  0
   -1.2325   76.8590    7.0028 C   0  0  0  0  0  0  0  0  0  0  0  0
   -1.0408   77.8649    7.9522 C   0  0  0  0  0  0  0  0  0  0  0  0
  1  2  2  0
  2  3  1  0
  3  4  1  0
  4  5  1  0
  2  6  1  0
  5  7  1  0
  7  8  1  0
M  END
>  <ID>  (1) 
conformer_0

$$$$
