
     RDKit          3D

  9  8  0  0  0  0  0  0  0  0999 V2000
   -4.6152   73.7571    5.8294 O   0  0  0  0  0  0  0  0  0  0  0  0
   -4.3082   74.4208    4.6836 C   0  0  0  0  0  0  0  0  0  0  0  0
   -3.5343   75.7400    4.8308 C   0  0  0  0  0  0  0  0  0  0  0  0
   -3.0175   75.9650    6.0008 N   0  0  0  0  0  0  0  0  0  0  0  0
   -2.9223   77.1696    6.5382 C   0  0  0  0  0  0  0  0  0  0  0  0
   -2.3560   77.4745    7.6127 C   0  0  0  0  0  0  0  0  0  0  0  0
   -5.5762   74.6137    3.8583 C   0  0  0  0  0  0  0  0  0  0  0  0
   -5.5757   75.9421    3.2830 O   0  0  0  0  0  0  0  0  0  0  0  0
   -3.5971   78.2627    5.8748 O   0  0  0  0  0  0  0  0  0  0  0  0
  1  2  1  0
  2  3  1  0
  3  4  1  0
  4  5  1  0
  5  6  1  0
  2  7  1  0
  7  8  1  0
  5  9  2  0
M  END
>  <ID>  (1) 
conformer_0

$$$$
