
     RDKit          3D

  9  8  0  0  0  0  0  0  0  0999 V2000
   -5.7389   74.5761    3.9130 O   0  0  0  0  0  0  0  0  0  0  0  0
   -4.7353   75.2109    4.0182 C   0  0  0  0  0  0  0  0  0  0  0  0
   -4.0168   75.2443    5.1891 C   0  0  0  0  0  0  0  0  0  0  0  0
   -3.5082   76.5787    5.4381 C   0  0  0  0  0  0  0  0  0  0  0  0
   -3.0263   76.9713    6.7368 C   0  0  0  0  0  0  0  0  0  0  0  0
   -4.1627   75.6233    2.8721 O   0  0  0  0  0  0  0  0  0  0  0  0
   -2.8827   78.3475    6.9616 C   0  0  0  0  0  0  0  0  0  0  0  0
   -1.7059   76.4344    7.0525 C   0  0  0  0  0  0  0  0  0  0  0  0
   -4.7792   74.8715    6.2775 N   0  0  0  0  0  0  0  0  0  0  0  0
  1  2  2  0
  2  3  1  0
  3  4  1  0
  4  5  1  0
  2  6  1  0
  5  7  1  0
  5  8  1  0
  3  9  1  0
M  END
>  <ID>  (1) 
conformer_0

$$$$
