
     RDKit          3D

 10 11  0  0  0  0  0  0  0  0999 V2000
   -3.6203   78.0073    7.7537 C   0  0  0  0  0  0  0  0  0  0  0  0
   -2.4047   77.7702    7.4124 C   0  0  0  0  0  0  0  0  0  0  0  0
   -2.1672   77.0449    6.5273 C   0  0  0  0  0  0  0  0  0  0  0  0
   -3.0714   76.4164    5.6978 C   0  0  0  0  0  0  0  0  0  0  0  0
   -4.6875   77.5947    6.9820 C   0  0  0  0  0  0  0  0  0  0  0  0
   -4.3932   76.7656    5.9510 C   0  0  0  0  0  0  0  0  0  0  0  0
   -2.7744   75.5305    4.4647 C   0  0  0  0  0  0  0  0  0  0  0  0
   -3.9146   74.5613    4.2081 C   0  0  0  0  0  0  0  0  0  0  0  0
   -5.2228   75.1476    4.0717 N   0  0  0  0  0  0  0  0  0  0  0  0
   -5.5464   76.3543    5.0652 C   0  0  0  0  0  0  0  0  0  0  0  0
  1  2  1  0
  2  3  2  0
  3  4  1  0
  1  5  2  0
  4  6  2  0
  5  6  1  0
  4  7  1  0
  7  8  1  0
  8  9  1  0
  6 10  1  0
  9 10  1  0
M  END
>  <ID>  (1) 
conformer_0

$$$$
