
     RDKit          3D

 10  9  0  0  0  0  0  0  0  0999 V2000
   -5.7389   74.5761    3.9130 O   0  0  0  0  0  0  0  0  0  0  0  0
   -4.7353   75.2109    4.0182 C   0  0  0  0  0  0  0  0  0  0  0  0
   -4.0168   75.2443    5.1891 C   0  0  0  0  0  0  0  0  0  0  0  0
   -3.5082   76.5787    5.4381 C   0  0  0  0  0  0  0  0  0  0  0  0
   -3.0263   76.9713    6.7368 C   0  0  0  0  0  0  0  0  0  0  0  0
   -1.6518   76.8899    6.9482 C   0  0  0  0  0  0  0  0  0  0  0  0
   -4.5708   76.1136    3.1129 O   0  0  0  0  0  0  0  0  0  0  0  0
   -2.7543   74.4084    4.8032 C   0  0  0  0  0  0  0  0  0  0  0  0
   -3.3767   78.4602    7.1151 C   0  0  0  0  0  0  0  0  0  0  0  0
   -4.6776   74.6489    6.1589 N   0  0  0  0  0  0  0  0  0  0  0  0
  1  2  2  0
  2  3  1  0
  3  4  1  0
  4  5  1  0
  5  6  1  0
  2  7  1  0
  3  8  1  0
  5  9  1  0
  3 10  1  0
M  END
>  <ID>  (1) 
conformer_0

$$$$
