
     RDKit          3D

 10  9  0  0  0  0  0  0  0  0999 V2000
   -4.9284   75.5683    3.1792 O   0  0  0  0  0  0  0  0  0  0  0  0
   -4.7315   74.8331    4.1611 C   0  0  0  0  0  0  0  0  0  0  0  0
   -3.7288   75.1944    5.0844 C   0  0  0  0  0  0  0  0  0  0  0  0
   -3.2111   74.3167    5.8178 O   0  0  0  0  0  0  0  0  0  0  0  0
   -3.1238   76.5046    4.9805 N   0  0  0  0  0  0  0  0  0  0  0  0
   -5.1952   73.6470    4.2410 N   0  0  0  0  0  0  0  0  0  0  0  0
   -2.1131   76.9366    5.8059 C   0  0  0  0  0  0  0  0  0  0  0  0
   -2.4066   77.1699    7.0904 C   0  0  0  0  0  0  0  0  0  0  0  0
   -1.4529   77.5280    7.9278 C   0  0  0  0  0  0  0  0  0  0  0  0
   -3.7196   77.3168    7.5229 C   0  0  0  0  0  0  0  0  0  0  0  0
  1  2  2  0
  2  3  1  0
  3  4  2  0
  3  5  1  0
  2  6  1  0
  5  7  1  0
  7  8  1  0
  8  9  1  0
  8 10  2  0
M  END
>  <ID>  (1) 
conformer_0

$$$$
