
     RDKit          3D

  6  6  0  0  0  0  0  0  0  0999 V2000
   -5.5849   74.4347    3.8887 C   0  0  0  0  0  0  0  0  0  0  0  0
   -4.3232   74.3664    4.4806 C   0  0  0  0  0  0  0  0  0  0  0  0
   -3.6879   75.6765    4.7278 C   0  0  0  0  0  0  0  0  0  0  0  0
   -5.8839   75.7261    3.6477 N   0  0  0  0  0  0  0  0  0  0  0  0
   -4.2261   73.6278    5.7381 C   0  0  0  0  0  0  0  0  0  0  0  0
   -4.7435   76.5883    3.8024 C   0  0  0  0  0  0  0  0  0  0  0  0
  1  2  1  0
  2  3  1  0
  1  4  1  0
  2  5  1  0
  3  6  1  0
  4  6  1  0
M  END
>  <ID>  (1) 
conformer_0

$$$$
