
     RDKit          3D

  7  6  0  0  0  0  0  0  0  0999 V2000
   -5.0884   76.3033    3.2928 O   0  0  0  0  0  0  0  0  0  0  0  0
   -4.3812   75.6533    4.1060 C   0  0  0  0  0  0  0  0  0  0  0  0
   -3.4633   76.1498    4.9483 C   0  0  0  0  0  0  0  0  0  0  0  0
   -4.8508   74.2698    4.1097 C   0  0  0  0  0  0  0  0  0  0  0  0
   -3.2059   75.2550    5.9696 N   0  0  0  0  0  0  0  0  0  0  0  0
   -5.9410   73.8823    4.5734 O   0  0  0  0  0  0  0  0  0  0  0  0
   -3.0797   77.2654    5.0648 O   0  0  0  0  0  0  0  0  0  0  0  0
  1  2  2  0
  2  3  1  0
  2  4  1  0
  3  5  1  0
  4  6  1  0
  3  7  2  0
M  END
>  <ID>  (1) 
conformer_0

$$$$
