
     RDKit          3D

  7  6  0  0  0  0  0  0  0  0999 V2000
   -4.9212   76.0909    3.4627 O   0  0  0  0  0  0  0  0  0  0  0  0
   -4.1982   75.3684    4.2663 C   0  0  0  0  0  0  0  0  0  0  0  0
   -3.2958   75.9457    5.1362 C   0  0  0  0  0  0  0  0  0  0  0  0
   -3.6636   77.1757    5.5392 C   0  0  0  0  0  0  0  0  0  0  0  0
   -2.5567   78.1865    5.4354 O   0  0  0  0  0  0  0  0  0  0  0  0
   -3.1185   75.0774    6.2601 N   0  0  0  0  0  0  0  0  0  0  0  0
   -4.4576   74.1109    4.2638 O   0  0  0  0  0  0  0  0  0  0  0  0
  1  2  2  0
  2  3  1  0
  3  4  1  0
  4  5  1  0
  3  6  1  0
  2  7  1  0
M  END
>  <ID>  (1) 
conformer_0

$$$$
