
     RDKit          3D

  6  6  0  0  0  0  0  0  0  0999 V2000
   -4.7920   76.6030    3.8914 N   0  0  0  0  0  0  0  0  0  0  0  0
   -4.1316   75.6768    4.5608 C   0  0  0  0  0  0  0  0  0  0  0  0
   -3.3632   75.8456    5.6474 N   0  0  0  0  0  0  0  0  0  0  0  0
   -2.6750   74.7667    6.1685 C   0  0  0  0  0  0  0  0  0  0  0  0
   -3.1830   73.6889    5.3115 C   0  0  0  0  0  0  0  0  0  0  0  0
   -4.0970   74.1816    4.2019 C   0  0  0  0  0  0  0  0  0  0  0  0
  1  2  1  0
  2  3  2  0
  3  4  1  0
  4  5  2  0
  2  6  1  0
  5  6  1  0
M  END
>  <ID>  (1) 
conformer_0

$$$$
