
     RDKit          3D

  5  4  0  0  0  0  0  0  0  0999 V2000
   -4.9364   73.3393    5.0335 O   0  0  0  0  0  0  0  0  0  0  0  0
   -4.9397   74.3273    4.1493 C   0  0  0  0  0  0  0  0  0  0  0  0
   -3.9699   75.5315    4.3443 C   0  0  0  0  0  0  0  0  0  0  0  0
   -4.5349   76.7000    4.5143 O   0  0  0  0  0  0  0  0  0  0  0  0
   -2.9051   75.2780    4.8597 O   0  0  0  0  0  0  0  0  0  0  0  0
  1  2  1  0
  2  3  1  0
  3  4  1  0
  3  5  2  0
M  END
>  <ID>  (1) 
conformer_0

$$$$
