
     RDKit          3D

 10  9  0  0  0  0  0  0  0  0999 V2000
   -5.0967   73.7856    4.5598 C   0  0  0  0  0  0  0  0  0  0  0  0
   -4.4221   74.9490    4.0257 C   0  0  0  0  0  0  0  0  0  0  0  0
   -3.6398   75.6933    4.8709 C   0  0  0  0  0  0  0  0  0  0  0  0
   -4.3122   73.3081    5.6861 O   0  0  0  0  0  0  0  0  0  0  0  0
   -3.3593   75.3875    5.9997 N   0  0  0  0  0  0  0  0  0  0  0  0
   -2.5895   76.3100    6.8724 C   0  0  0  0  0  0  0  0  0  0  0  0
   -1.9548   77.2928    6.2482 C   0  0  0  0  0  0  0  0  0  0  0  0
   -0.7247   77.7294    6.7873 O   0  0  0  0  0  0  0  0  0  0  0  0
   -2.4765   78.0491    5.3878 O   0  0  0  0  0  0  0  0  0  0  0  0
   -5.3903   75.7734    3.2999 O   0  0  0  0  0  0  0  0  0  0  0  0
  1  2  1  0
  2  3  1  0
  1  4  1  0
  3  5  1  0
  5  6  1  0
  6  7  1  0
  7  8  1  0
  7  9  2  0
  2 10  1  0
M  END
>  <ID>  (1) 
conformer_0

$$$$
