
     RDKit          3D

  9  8  0  0  0  0  0  0  0  0999 V2000
   -4.9284   75.5683    3.1792 O   0  0  0  0  0  0  0  0  0  0  0  0
   -4.7315   74.8331    4.1611 C   0  0  0  0  0  0  0  0  0  0  0  0
   -3.7288   75.1944    5.0844 C   0  0  0  0  0  0  0  0  0  0  0  0
   -3.2111   74.3167    5.8178 O   0  0  0  0  0  0  0  0  0  0  0  0
   -3.2645   76.5452    5.0798 C   0  0  0  0  0  0  0  0  0  0  0  0
   -2.0801   76.7701    5.9654 C   0  0  0  0  0  0  0  0  0  0  0  0
   -2.3228   76.7479    7.2579 O   0  0  0  0  0  0  0  0  0  0  0  0
   -1.6091   77.6198    8.0132 C   0  0  0  0  0  0  0  0  0  0  0  0
   -5.6145   73.9816    4.4044 O   0  0  0  0  0  0  0  0  0  0  0  0
  1  2  2  0
  2  3  1  0
  3  4  2  0
  3  5  1  0
  5  6  1  0
  6  7  1  0
  7  8  1  0
  2  9  1  0
M  END
>  <ID>  (1) 
conformer_0

$$$$
