
     RDKit          3D

  7  7  0  0  0  0  0  0  0  0999 V2000
   -4.7472   73.4834    4.9842 C   0  0  0  0  0  0  0  0  0  0  0  0
   -5.3506   74.2022    4.0517 C   0  0  0  0  0  0  0  0  0  0  0  0
   -4.6122   75.5343    3.6849 C   0  0  0  0  0  0  0  0  0  0  0  0
   -3.5953   74.2838    5.6621 N   0  0  0  0  0  0  0  0  0  0  0  0
   -3.6208   75.5869    4.9540 C   0  0  0  0  0  0  0  0  0  0  0  0
   -2.8917   76.4813    5.1455 O   0  0  0  0  0  0  0  0  0  0  0  0
   -5.0109   76.4570    3.2484 O   0  0  0  0  0  0  0  0  0  0  0  0
  1  2  1  0
  2  3  1  0
  1  4  1  0
  3  5  1  0
  4  5  1  0
  5  6  2  0
  3  7  2  0
M  END
>  <ID>  (1) 
conformer_0

$$$$
