
     RDKit          3D

  5  4  0  0  0  0  0  0  0  0999 V2000
   -5.4524   74.0985    4.1661 N   0  0  0  0  0  0  0  0  0  0  0  0
   -4.3934   74.3093    4.4678 C   0  0  0  0  0  0  0  0  0  0  0  0
   -3.5562   73.6396    5.0080 O   0  0  0  0  0  0  0  0  0  0  0  0
   -3.9100   75.7487    3.9457 C   0  0  0  0  0  0  0  0  0  0  0  0
   -4.7672   76.7921    4.3880 O   0  0  0  0  0  0  0  0  0  0  0  0
  1  2  1  0
  2  3  2  0
  2  4  1  0
  4  5  1  0
M  END
>  <ID>  (1) 
conformer_0

$$$$
