
     RDKit          3D

  7  7  0  0  0  0  0  0  0  0999 V2000
   -5.3033   76.3657    3.5872 N   0  0  0  0  0  0  0  0  0  0  0  0
   -4.5800   76.7855    4.3444 C   0  0  0  0  0  0  0  0  0  0  0  0
   -3.9299   75.8439    5.1846 N   0  0  0  0  0  0  0  0  0  0  0  0
   -4.3964   74.6690    4.5019 C   0  0  0  0  0  0  0  0  0  0  0  0
   -3.9169   73.3946    4.8887 C   0  0  0  0  0  0  0  0  0  0  0  0
   -5.2468   74.8698    3.5493 N   0  0  0  0  0  0  0  0  0  0  0  0
   -4.2953   78.1534    4.6007 N   0  0  0  0  0  0  0  0  0  0  0  0
  1  2  1  0
  2  3  2  0
  3  4  1  0
  4  5  1  0
  1  6  1  0
  4  6  1  0
  2  7  1  0
M  END
>  <ID>  (1) 
conformer_0

$$$$
