
     RDKit          3D

  8  7  0  0  0  0  0  0  0  0999 V2000
   -4.9364   73.3393    5.0335 O   0  0  0  0  0  0  0  0  0  0  0  0
   -4.9397   74.3273    4.1493 C   0  0  0  0  0  0  0  0  0  0  0  0
   -3.9664   75.4573    4.3226 C   0  0  0  0  0  0  0  0  0  0  0  0
   -3.5509   75.6338    5.5276 N   0  0  0  0  0  0  0  0  0  0  0  0
   -2.6440   76.7264    5.7269 C   0  0  0  0  0  0  0  0  0  0  0  0
   -4.7060   76.5899    3.8117 O   0  0  0  0  0  0  0  0  0  0  0  0
   -2.7002   77.2416    6.9835 C   0  0  0  0  0  0  0  0  0  0  0  0
   -2.4151   78.5941    7.2294 O   0  0  0  0  0  0  0  0  0  0  0  0
  1  2  1  0
  2  3  1  0
  3  4  1  0
  4  5  1  0
  3  6  1  0
  5  7  1  0
  7  8  1  0
M  END
>  <ID>  (1) 
conformer_0

$$$$
