
     RDKit          3D

  9  8  0  0  0  0  0  0  0  0999 V2000
   -4.4169   75.0786    3.4891 O   0  0  0  0  0  0  0  0  0  0  0  0
   -4.6276   74.5555    4.4433 C   0  0  0  0  0  0  0  0  0  0  0  0
   -3.8573   74.7991    5.5238 N   0  0  0  0  0  0  0  0  0  0  0  0
   -2.8902   75.9197    5.5448 C   0  0  0  0  0  0  0  0  0  0  0  0
   -2.5667   76.4816    6.7304 C   0  0  0  0  0  0  0  0  0  0  0  0
   -2.1381   77.8829    6.7176 C   0  0  0  0  0  0  0  0  0  0  0  0
   -0.8343   78.1130    6.9856 C   0  0  0  0  0  0  0  0  0  0  0  0
   -3.0642   78.7425    7.5399 C   0  0  0  0  0  0  0  0  0  0  0  0
   -5.5298   73.6247    4.5061 N   0  0  0  0  0  0  0  0  0  0  0  0
  1  2  2  0
  2  3  1  0
  3  4  1  0
  4  5  1  0
  5  6  1  0
  6  7  1  0
  6  8  1  0
  2  9  1  0
M  END
>  <ID>  (1) 
conformer_0

$$$$
