
     RDKit          3D

 10 10  0  0  0  0  0  0  0  0999 V2000
   -4.6152   73.7571    5.8294 O   0  0  0  0  0  0  0  0  0  0  0  0
   -4.3082   74.4208    4.6836 C   0  0  0  0  0  0  0  0  0  0  0  0
   -3.5343   75.7400    4.8308 C   0  0  0  0  0  0  0  0  0  0  0  0
   -3.0175   75.9650    6.0008 N   0  0  0  0  0  0  0  0  0  0  0  0
   -2.4725   77.2837    6.2426 C   0  0  0  0  0  0  0  0  0  0  0  0
   -4.3186   76.7700    4.1510 O   0  0  0  0  0  0  0  0  0  0  0  0
   -5.3187   76.2906    3.3180 C   0  0  0  0  0  0  0  0  0  0  0  0
   -1.0872   77.4697    6.3121 C   0  0  0  0  0  0  0  0  0  0  0  0
   -3.1412   77.8007    7.5781 C   0  0  0  0  0  0  0  0  0  0  0  0
   -5.2690   74.7653    3.5550 C   0  0  0  0  0  0  0  0  0  0  0  0
  1  2  1  0
  2  3  1  0
  3  4  1  0
  4  5  1  0
  3  6  1  0
  6  7  1  0
  5  8  1  0
  5  9  1  0
  2 10  1  0
  7 10  1  0
M  END
>  <ID>  (1) 
conformer_0

$$$$
