
     RDKit          3D

  8  8  0  0  0  0  0  0  0  0999 V2000
   -5.0884   76.3033    3.2928 O   0  0  0  0  0  0  0  0  0  0  0  0
   -4.3812   75.6533    4.1060 C   0  0  0  0  0  0  0  0  0  0  0  0
   -3.4633   76.1498    4.9483 C   0  0  0  0  0  0  0  0  0  0  0  0
   -4.6242   74.2212    4.0913 C   0  0  0  0  0  0  0  0  0  0  0  0
   -3.5214   77.3818    5.3654 O   0  0  0  0  0  0  0  0  0  0  0  0
   -4.8343   73.6813    5.4012 C   0  0  0  0  0  0  0  0  0  0  0  0
   -3.5298   73.9937    6.1712 C   0  0  0  0  0  0  0  0  0  0  0  0
   -3.0898   75.2529    6.0143 C   0  0  0  0  0  0  0  0  0  0  0  0
  1  2  2  0
  2  3  1  0
  2  4  1  0
  3  5  1  0
  4  6  1  0
  6  7  1  0
  3  8  1  0
  7  8  1  0
M  END
>  <ID>  (1) 
conformer_0

$$$$
