
     RDKit          3D

  7  7  0  0  0  0  0  0  0  0999 V2000
   -4.7472   73.4834    4.9842 C   0  0  0  0  0  0  0  0  0  0  0  0
   -3.7850   74.0685    5.6778 N   0  0  0  0  0  0  0  0  0  0  0  0
   -5.1368   74.3204    3.8025 C   0  0  0  0  0  0  0  0  0  0  0  0
   -4.2386   75.4780    3.8676 N   0  0  0  0  0  0  0  0  0  0  0  0
   -3.3783   75.2065    4.9874 C   0  0  0  0  0  0  0  0  0  0  0  0
   -2.3692   75.9696    5.4280 O   0  0  0  0  0  0  0  0  0  0  0  0
   -4.2108   76.5454    3.0352 O   0  0  0  0  0  0  0  0  0  0  0  0
  1  2  1  0
  1  3  2  0
  3  4  1  0
  2  5  1  0
  4  5  1  0
  5  6  2  0
  4  7  1  0
M  END
>  <ID>  (1) 
conformer_0

$$$$
