
     RDKit          3D

  7  6  0  0  0  0  0  0  0  0999 V2000
   -4.9212   76.0909    3.4627 O   0  0  0  0  0  0  0  0  0  0  0  0
   -4.1982   75.3684    4.2663 C   0  0  0  0  0  0  0  0  0  0  0  0
   -3.2958   75.9457    5.1362 C   0  0  0  0  0  0  0  0  0  0  0  0
   -4.4340   73.9584    4.3409 C   0  0  0  0  0  0  0  0  0  0  0  0
   -5.6515   73.6188    4.6603 O   0  0  0  0  0  0  0  0  0  0  0  0
   -2.7689   75.2674    6.0212 O   0  0  0  0  0  0  0  0  0  0  0  0
   -3.0987   77.2271    5.1612 O   0  0  0  0  0  0  0  0  0  0  0  0
  1  2  2  0
  2  3  1  0
  2  4  1  0
  4  5  1  0
  3  6  1  0
  3  7  2  0
M  END
>  <ID>  (1) 
conformer_0

$$$$
