
     RDKit          3D

  4  3  0  0  0  0  0  0  0  0999 V2000
   -5.4524   74.0985    4.1661 N   0  0  0  0  0  0  0  0  0  0  0  0
   -4.2718   74.3642    4.5618 C   0  0  0  0  0  0  0  0  0  0  0  0
   -3.6329   73.7114    5.3272 N   0  0  0  0  0  0  0  0  0  0  0  0
   -3.5140   75.2653    3.7011 O   0  0  0  0  0  0  0  0  0  0  0  0
  1  2  1  0
  2  3  1  0
  2  4  2  0
M  END
>  <ID>  (1) 
conformer_0

$$$$
