
     RDKit          3D

 10 10  0  0  0  0  0  0  0  0999 V2000
   -4.7238   73.8788    4.7163 C   0  0  0  0  0  0  0  0  0  0  0  0
   -4.4352   75.0421    4.0373 C   0  0  0  0  0  0  0  0  0  0  0  0
   -3.5570   75.7870    4.4564 C   0  0  0  0  0  0  0  0  0  0  0  0
   -2.8065   75.4896    5.6679 C   0  0  0  0  0  0  0  0  0  0  0  0
   -1.7547   76.4084    6.1797 C   0  0  0  0  0  0  0  0  0  0  0  0
   -4.2024   73.5219    5.7480 C   0  0  0  0  0  0  0  0  0  0  0  0
   -3.1002   74.3305    6.2550 C   0  0  0  0  0  0  0  0  0  0  0  0
   -2.2007   77.4651    6.8427 C   0  0  0  0  0  0  0  0  0  0  0  0
   -1.5870   78.5550    6.8881 O   0  0  0  0  0  0  0  0  0  0  0  0
   -3.5036   77.4288    7.2338 O   0  0  0  0  0  0  0  0  0  0  0  0
  1  2  1  0
  2  3  2  0
  3  4  1  0
  4  5  1  0
  1  6  2  0
  4  7  2  0
  6  7  1  0
  5  8  1  0
  8  9  2  0
  8 10  1  0
M  END
>  <ID>  (1) 
conformer_0

$$$$
