
     RDKit          3D

  5  4  0  0  0  0  0  0  0  0999 V2000
   -4.7238   73.8788    4.7163 C   0  0  0  0  0  0  0  0  0  0  0  0
   -4.4352   75.0421    4.0373 C   0  0  0  0  0  0  0  0  0  0  0  0
   -3.8467   73.6952    5.9360 C   0  0  0  0  0  0  0  0  0  0  0  0
   -5.4841   75.7416    3.5884 O   0  0  0  0  0  0  0  0  0  0  0  0
   -3.3013   75.6584    4.1683 O   0  0  0  0  0  0  0  0  0  0  0  0
  1  2  1  0
  1  3  1  0
  2  4  1  0
  2  5  2  0
M  END
>  <ID>  (1) 
conformer_0

$$$$
