
     RDKit          3D

 10 10  0  0  0  0  0  0  0  0999 V2000
   -4.9364   73.3393    5.0335 O   0  0  0  0  0  0  0  0  0  0  0  0
   -4.1132   74.2918    4.8423 C   0  0  0  0  0  0  0  0  0  0  0  0
   -3.4847   74.8961    5.9493 C   0  0  0  0  0  0  0  0  0  0  0  0
   -3.8140   76.3411    6.0719 C   0  0  0  0  0  0  0  0  0  0  0  0
   -3.6374   76.9922    4.9781 O   0  0  0  0  0  0  0  0  0  0  0  0
   -4.6790   75.3242    3.8402 C   0  0  0  0  0  0  0  0  0  0  0  0
   -5.4814   74.9302    2.9077 O   0  0  0  0  0  0  0  0  0  0  0  0
   -3.0653   76.9697    7.2361 C   0  0  0  0  0  0  0  0  0  0  0  0
   -4.4556   76.6361    3.9426 N   0  0  0  0  0  0  0  0  0  0  0  0
   -1.8759   77.4573    6.9664 O   0  0  0  0  0  0  0  0  0  0  0  0
  1  2  1  0
  2  3  1  0
  3  4  1  0
  4  5  1  0
  2  6  1  0
  6  7  2  0
  4  8  1  0
  5  9  1  0
  6  9  1  0
  8 10  1  0
M  END
>  <ID>  (1) 
conformer_0

$$$$
