
     RDKit          3D

  6  5  0  0  0  0  0  0  0  0999 V2000
   -4.9498   75.6753    3.2136 O   0  0  0  0  0  0  0  0  0  0  0  0
   -4.3554   74.9830    4.1220 C   0  0  0  0  0  0  0  0  0  0  0  0
   -3.5369   75.5022    4.9997 C   0  0  0  0  0  0  0  0  0  0  0  0
   -2.8720   74.6558    5.7914 N   0  0  0  0  0  0  0  0  0  0  0  0
   -4.7037   73.7694    4.2549 N   0  0  0  0  0  0  0  0  0  0  0  0
   -3.3162   76.8542    5.1097 O   0  0  0  0  0  0  0  0  0  0  0  0
  1  2  2  0
  2  3  1  0
  3  4  1  0
  2  5  1  0
  3  6  2  0
M  END
>  <ID>  (1) 
conformer_0

$$$$
