
     RDKit          3D

  8  7  0  0  0  0  0  0  0  0999 V2000
   -4.5640   73.2815    5.3974 C   0  0  0  0  0  0  0  0  0  0  0  0
   -4.3382   74.4712    4.4770 C   0  0  0  0  0  0  0  0  0  0  0  0
   -3.6726   75.6055    5.0445 C   0  0  0  0  0  0  0  0  0  0  0  0
   -4.3909   76.7076    5.0639 C   0  0  0  0  0  0  0  0  0  0  0  0
   -5.3697   76.7979    4.1437 O   0  0  0  0  0  0  0  0  0  0  0  0
   -4.0559   77.7315    5.7207 O   0  0  0  0  0  0  0  0  0  0  0  0
   -5.6276   74.6945    3.9306 N   0  0  0  0  0  0  0  0  0  0  0  0
   -3.4092   75.2389    6.3874 O   0  0  0  0  0  0  0  0  0  0  0  0
  1  2  1  0
  2  3  1  0
  3  4  1  0
  4  5  2  0
  4  6  1  0
  2  7  1  0
  3  8  1  0
M  END
>  <ID>  (1) 
conformer_0

$$$$
