
     RDKit          3D

  9  8  0  0  0  0  0  0  0  0999 V2000
   -4.9284   75.5683    3.1792 O   0  0  0  0  0  0  0  0  0  0  0  0
   -4.7315   74.8331    4.1611 C   0  0  0  0  0  0  0  0  0  0  0  0
   -3.7288   75.1944    5.0844 C   0  0  0  0  0  0  0  0  0  0  0  0
   -3.2111   74.3167    5.8178 O   0  0  0  0  0  0  0  0  0  0  0  0
   -3.2645   76.5452    5.0798 C   0  0  0  0  0  0  0  0  0  0  0  0
   -2.7445   76.9986    6.3558 C   0  0  0  0  0  0  0  0  0  0  0  0
   -3.3989   78.0922    6.8893 C   0  0  0  0  0  0  0  0  0  0  0  0
   -5.2160   73.6720    4.2267 O   0  0  0  0  0  0  0  0  0  0  0  0
   -1.3104   77.5233    6.1636 C   0  0  0  0  0  0  0  0  0  0  0  0
  1  2  2  0
  2  3  1  0
  3  4  2  0
  3  5  1  0
  5  6  1  0
  6  7  1  0
  2  8  1  0
  6  9  1  0
M  END
>  <ID>  (1) 
conformer_0

$$$$
