
     RDKit          3D

  6  5  0  0  0  0  0  0  0  0999 V2000
   -5.0884   76.3033    3.2928 O   0  0  0  0  0  0  0  0  0  0  0  0
   -4.7108   75.4156    3.9858 C   0  0  0  0  0  0  0  0  0  0  0  0
   -3.7291   75.6520    5.0026 C   0  0  0  0  0  0  0  0  0  0  0  0
   -3.2099   74.6827    5.6747 N   0  0  0  0  0  0  0  0  0  0  0  0
   -4.9213   74.1841    3.8511 O   0  0  0  0  0  0  0  0  0  0  0  0
   -3.1887   76.9471    5.1692 O   0  0  0  0  0  0  0  0  0  0  0  0
  1  2  2  0
  2  3  1  0
  3  4  1  0
  2  5  1  0
  3  6  2  0
M  END
>  <ID>  (1) 
conformer_0

$$$$
