
     RDKit          3D

  9  9  0  0  0  0  0  0  0  0999 V2000
   -5.3033   76.3657    3.5872 N   0  0  0  0  0  0  0  0  0  0  0  0
   -4.5800   76.7855    4.3444 N   0  0  0  0  0  0  0  0  0  0  0  0
   -5.1503   74.9841    3.6016 C   0  0  0  0  0  0  0  0  0  0  0  0
   -3.7568   76.2405    5.1459 C   0  0  0  0  0  0  0  0  0  0  0  0
   -4.0197   74.8438    4.6094 C   0  0  0  0  0  0  0  0  0  0  0  0
   -2.7449   76.4382    6.0828 C   0  0  0  0  0  0  0  0  0  0  0  0
   -2.6790   77.6930    6.4531 C   0  0  0  0  0  0  0  0  0  0  0  0
   -1.9309   75.5639    6.5390 O   0  0  0  0  0  0  0  0  0  0  0  0
   -2.3454   77.9745    7.6695 C   0  0  0  0  0  0  0  0  0  0  0  0
  1  2  1  0
  1  3  2  0
  2  4  2  0
  3  5  1  0
  4  5  1  0
  4  6  1  0
  6  7  1  0
  6  8  2  0
  7  9  1  0
M  END
>  <ID>  (1) 
conformer_0

$$$$
