
     RDKit          3D

  8  7  0  0  0  0  0  0  0  0999 V2000
   -4.6831   76.1277    3.3033 O   0  0  0  0  0  0  0  0  0  0  0  0
   -4.7291   75.2725    4.0261 C   0  0  0  0  0  0  0  0  0  0  0  0
   -4.1159   75.2661    5.2243 C   0  0  0  0  0  0  0  0  0  0  0  0
   -3.5047   76.4950    5.5391 C   0  0  0  0  0  0  0  0  0  0  0  0
   -5.3713   74.1185    3.7545 O   0  0  0  0  0  0  0  0  0  0  0  0
   -4.1564   77.3768    6.2755 O   0  0  0  0  0  0  0  0  0  0  0  0
   -3.1393   74.1189    5.3086 N   0  0  0  0  0  0  0  0  0  0  0  0
   -3.4531   78.2848    7.1720 C   0  0  0  0  0  0  0  0  0  0  0  0
  1  2  2  0
  2  3  1  0
  3  4  1  0
  2  5  1  0
  4  6  1  0
  3  7  1  0
  6  8  1  0
M  END
>  <ID>  (1) 
conformer_0

$$$$
