
     RDKit          3D

  8  8  0  0  0  0  0  0  0  0999 V2000
   -5.1772   75.3954    3.5704 C   0  0  0  0  0  0  0  0  0  0  0  0
   -4.3758   74.5926    4.4067 C   0  0  0  0  0  0  0  0  0  0  0  0
   -3.3831   75.3219    5.0992 C   0  0  0  0  0  0  0  0  0  0  0  0
   -5.1890   76.6977    3.6900 N   0  0  0  0  0  0  0  0  0  0  0  0
   -4.2193   77.1247    4.6504 C   0  0  0  0  0  0  0  0  0  0  0  0
   -4.4140   78.6444    4.8545 N   0  0  0  0  0  0  0  0  0  0  0  0
   -3.3796   76.6146    5.2759 N   0  0  0  0  0  0  0  0  0  0  0  0
   -4.2632   73.1327    4.1413 C   0  0  0  0  0  0  0  0  0  0  0  0
  1  2  1  0
  2  3  2  0
  1  4  2  0
  4  5  1  0
  5  6  1  0
  3  7  1  0
  5  7  2  0
  2  8  1  0
M  END
>  <ID>  (1) 
conformer_0

$$$$
