
     RDKit          3D

  9  9  0  0  0  0  0  0  0  0999 V2000
   -4.7955   73.9601    4.0007 C   0  0  0  0  0  0  0  0  0  0  0  0
   -4.0960   75.0999    4.0982 C   0  0  0  0  0  0  0  0  0  0  0  0
   -3.4726   75.4452    5.2579 C   0  0  0  0  0  0  0  0  0  0  0  0
   -3.5216   76.6311    5.8056 C   0  0  0  0  0  0  0  0  0  0  0  0
   -4.9863   76.1838    3.5174 O   0  0  0  0  0  0  0  0  0  0  0  0
   -3.8252   74.4243    6.0693 O   0  0  0  0  0  0  0  0  0  0  0  0
   -2.3224   77.0896    6.3703 O   0  0  0  0  0  0  0  0  0  0  0  0
   -2.2439   78.3452    7.0818 C   0  0  0  0  0  0  0  0  0  0  0  0
   -4.5785   73.4333    5.4104 C   0  0  0  0  0  0  0  0  0  0  0  0
  1  2  1  0
  2  3  1  0
  3  4  1  0
  2  5  1  0
  3  6  1  0
  4  7  1  0
  7  8  1  0
  1  9  1  0
  6  9  1  0
M  END
>  <ID>  (1) 
conformer_0

$$$$
