
     RDKit          3D

 10  9  0  0  0  0  0  0  0  0999 V2000
   -4.6152   73.7571    5.8294 O   0  0  0  0  0  0  0  0  0  0  0  0
   -3.9679   74.7027    5.1276 C   0  0  0  0  0  0  0  0  0  0  0  0
   -4.8451   75.2633    3.9964 C   0  0  0  0  0  0  0  0  0  0  0  0
   -3.5353   75.8536    5.9594 C   0  0  0  0  0  0  0  0  0  0  0  0
   -3.6004   77.1382    5.3512 O   0  0  0  0  0  0  0  0  0  0  0  0
   -3.6820   78.3195    5.9998 C   0  0  0  0  0  0  0  0  0  0  0  0
   -3.3120   78.2432    7.3799 C   0  0  0  0  0  0  0  0  0  0  0  0
   -6.0247   75.0984    4.1036 O   0  0  0  0  0  0  0  0  0  0  0  0
   -4.2134   75.6064    2.9016 O   0  0  0  0  0  0  0  0  0  0  0  0
   -4.1427   77.3885    8.0915 O   0  0  0  0  0  0  0  0  0  0  0  0
  1  2  1  0
  2  3  1  0
  2  4  1  0
  4  5  1  0
  5  6  1  0
  6  7  1  0
  3  8  2  0
  3  9  1  0
  7 10  1  0
M  END
>  <ID>  (1) 
conformer_0

$$$$
