
     RDKit          3D

  8  7  0  0  0  0  0  0  0  0999 V2000
   -4.9498   75.6753    3.2136 O   0  0  0  0  0  0  0  0  0  0  0  0
   -4.7595   74.8902    4.0994 C   0  0  0  0  0  0  0  0  0  0  0  0
   -4.0982   75.1947    5.1451 C   0  0  0  0  0  0  0  0  0  0  0  0
   -3.5569   76.5529    5.1782 N   0  0  0  0  0  0  0  0  0  0  0  0
   -3.2776   77.3014    6.1264 C   0  0  0  0  0  0  0  0  0  0  0  0
   -3.1180   78.5335    6.0057 O   0  0  0  0  0  0  0  0  0  0  0  0
   -5.2207   73.6244    4.1438 O   0  0  0  0  0  0  0  0  0  0  0  0
   -3.2629   76.9234    7.5026 N   0  0  0  0  0  0  0  0  0  0  0  0
  1  2  2  0
  2  3  1  0
  3  4  1  0
  4  5  1  0
  5  6  2  0
  2  7  1  0
  5  8  1  0
M  END
>  <ID>  (1) 
conformer_0

$$$$
