
     RDKit          3D

  9 10  0  0  0  0  0  0  0  0999 V2000
   -3.6203   78.0073    7.7537 C   0  0  0  0  0  0  0  0  0  0  0  0
   -2.4047   77.7702    7.4124 C   0  0  0  0  0  0  0  0  0  0  0  0
   -4.6574   77.5541    6.9225 C   0  0  0  0  0  0  0  0  0  0  0  0
   -4.4770   76.8768    5.8701 C   0  0  0  0  0  0  0  0  0  0  0  0
   -5.4548   76.3843    4.9864 N   0  0  0  0  0  0  0  0  0  0  0  0
   -3.1146   76.6081    5.4755 C   0  0  0  0  0  0  0  0  0  0  0  0
   -5.0714   75.7304    3.8732 C   0  0  0  0  0  0  0  0  0  0  0  0
   -2.0851   77.0174    6.2361 C   0  0  0  0  0  0  0  0  0  0  0  0
   -3.0506   75.7441    4.2049 N   0  0  0  0  0  0  0  0  0  0  0  0
  1  2  1  0
  1  3  2  0
  3  4  1  0
  4  5  1  0
  4  6  2  0
  5  7  2  0
  2  8  2  0
  6  8  1  0
  6  9  1  0
  7  9  1  0
M  END
>  <ID>  (1) 
conformer_0

$$$$
