
     RDKit          3D

  7  6  0  0  0  0  0  0  0  0999 V2000
   -4.6831   76.1277    3.3033 O   0  0  0  0  0  0  0  0  0  0  0  0
   -4.2389   76.2307    4.3973 C   0  0  0  0  0  0  0  0  0  0  0  0
   -3.8081   75.0127    5.0445 C   0  0  0  0  0  0  0  0  0  0  0  0
   -4.6754   73.9918    4.8558 C   0  0  0  0  0  0  0  0  0  0  0  0
   -3.9786   77.3248    4.9275 O   0  0  0  0  0  0  0  0  0  0  0  0
   -5.6065   74.2158    4.1117 N   0  0  0  0  0  0  0  0  0  0  0  0
   -3.0507   75.2337    5.9974 O   0  0  0  0  0  0  0  0  0  0  0  0
  1  2  2  0
  2  3  1  0
  3  4  1  0
  2  5  1  0
  4  6  1  0
  3  7  1  0
M  END
>  <ID>  (1) 
conformer_0

$$$$
