
     RDKit          3D

  6  5  0  0  0  0  0  0  0  0999 V2000
   -5.0884   76.3033    3.2928 O   0  0  0  0  0  0  0  0  0  0  0  0
   -4.3812   75.6533    4.1060 C   0  0  0  0  0  0  0  0  0  0  0  0
   -3.4633   76.1498    4.9483 C   0  0  0  0  0  0  0  0  0  0  0  0
   -4.8508   74.2698    4.1097 C   0  0  0  0  0  0  0  0  0  0  0  0
   -3.2059   75.2550    5.9696 N   0  0  0  0  0  0  0  0  0  0  0  0
   -2.9662   77.2555    5.0052 O   0  0  0  0  0  0  0  0  0  0  0  0
  1  2  2  0
  2  3  1  0
  2  4  1  0
  3  5  1  0
  3  6  2  0
M  END
>  <ID>  (1) 
conformer_0

$$$$
