
     RDKit          3D

  9  8  0  0  0  0  0  0  0  0999 V2000
   -5.7389   74.5761    3.9130 O   0  0  0  0  0  0  0  0  0  0  0  0
   -4.7353   75.2109    4.0182 C   0  0  0  0  0  0  0  0  0  0  0  0
   -4.0168   75.2443    5.1891 C   0  0  0  0  0  0  0  0  0  0  0  0
   -3.5082   76.5787    5.4381 C   0  0  0  0  0  0  0  0  0  0  0  0
   -3.0263   76.9713    6.7368 C   0  0  0  0  0  0  0  0  0  0  0  0
   -2.8741   78.3635    7.0304 C   0  0  0  0  0  0  0  0  0  0  0  0
   -3.9495   79.0926    6.6018 O   0  0  0  0  0  0  0  0  0  0  0  0
   -4.5983   76.1577    3.1535 O   0  0  0  0  0  0  0  0  0  0  0  0
   -4.2991   74.4602    6.0531 N   0  0  0  0  0  0  0  0  0  0  0  0
  1  2  2  0
  2  3  1  0
  3  4  1  0
  4  5  1  0
  5  6  1  0
  6  7  1  0
  2  8  1  0
  3  9  1  0
M  END
>  <ID>  (1) 
conformer_0

$$$$
