
     RDKit          3D

  6  5  0  0  0  0  0  0  0  0999 V2000
   -4.7876   76.5439    3.5627 O   0  0  0  0  0  0  0  0  0  0  0  0
   -4.1259   76.4558    4.5709 C   0  0  0  0  0  0  0  0  0  0  0  0
   -3.7868   75.0589    4.9856 C   0  0  0  0  0  0  0  0  0  0  0  0
   -4.7147   74.1151    4.7373 C   0  0  0  0  0  0  0  0  0  0  0  0
   -4.8552   73.2689    5.7163 N   0  0  0  0  0  0  0  0  0  0  0  0
   -3.7067   77.3279    5.3491 O   0  0  0  0  0  0  0  0  0  0  0  0
  1  2  2  0
  2  3  1  0
  3  4  1  0
  4  5  1  0
  2  6  1  0
M  END
>  <ID>  (1) 
conformer_0

$$$$
