
     RDKit          3D

 10 10  0  0  0  0  0  0  0  0999 V2000
   -4.6152   73.7571    5.8294 O   0  0  0  0  0  0  0  0  0  0  0  0
   -3.9679   74.7027    5.1276 C   0  0  0  0  0  0  0  0  0  0  0  0
   -3.6318   75.8948    5.7045 C   0  0  0  0  0  0  0  0  0  0  0  0
   -4.3433   76.9934    5.0932 C   0  0  0  0  0  0  0  0  0  0  0  0
   -5.2377   76.5641    3.9503 C   0  0  0  0  0  0  0  0  0  0  0  0
   -3.6627   78.2268    4.8494 O   0  0  0  0  0  0  0  0  0  0  0  0
   -4.9091   75.0642    3.8343 C   0  0  0  0  0  0  0  0  0  0  0  0
   -3.6192   76.0779    7.0368 N   0  0  0  0  0  0  0  0  0  0  0  0
   -4.9181   77.0793    2.7611 O   0  0  0  0  0  0  0  0  0  0  0  0
   -3.0175   77.2774    7.6136 C   0  0  0  0  0  0  0  0  0  0  0  0
  1  2  1  0
  2  3  1  0
  3  4  1  0
  4  5  1  0
  4  6  1  0
  2  7  1  0
  5  7  1  0
  3  8  1  0
  5  9  1  0
  8 10  1  0
M  END
>  <ID>  (1) 
conformer_0

$$$$
