
     RDKit          3D

  8  7  0  0  0  0  0  0  0  0999 V2000
   -4.8330   75.8000    3.1205 O   0  0  0  0  0  0  0  0  0  0  0  0
   -4.3773   75.1030    4.1148 C   0  0  0  0  0  0  0  0  0  0  0  0
   -4.5103   73.7705    4.1516 C   0  0  0  0  0  0  0  0  0  0  0  0
   -3.6486   75.7410    5.0706 N   0  0  0  0  0  0  0  0  0  0  0  0
   -3.3444   77.1541    5.0072 C   0  0  0  0  0  0  0  0  0  0  0  0
   -2.0449   77.4176    5.8482 C   0  0  0  0  0  0  0  0  0  0  0  0
   -1.8265   76.4054    6.6507 C   0  0  0  0  0  0  0  0  0  0  0  0
   -1.8188   78.5745    6.4444 C   0  0  0  0  0  0  0  0  0  0  0  0
  1  2  2  0
  2  3  1  0
  2  4  1  0
  4  5  1  0
  5  6  1  0
  6  7  1  0
  6  8  1  0
M  END
>  <ID>  (1) 
conformer_0

$$$$
