
     RDKit          3D

  7  6  0  0  0  0  0  0  0  0999 V2000
   -4.5927   76.1166    3.2467 O   0  0  0  0  0  0  0  0  0  0  0  0
   -4.2411   76.2067    4.3853 C   0  0  0  0  0  0  0  0  0  0  0  0
   -4.1017   77.2286    5.0993 O   0  0  0  0  0  0  0  0  0  0  0  0
   -3.8540   74.8425    5.0721 C   0  0  0  0  0  0  0  0  0  0  0  0
   -4.6909   73.8423    4.9015 C   0  0  0  0  0  0  0  0  0  0  0  0
   -3.5822   75.1277    6.4422 O   0  0  0  0  0  0  0  0  0  0  0  0
   -5.8639   74.1656    4.3867 O   0  0  0  0  0  0  0  0  0  0  0  0
  1  2  2  0
  2  3  1  0
  2  4  1  0
  4  5  1  0
  4  6  1  0
  5  7  1  0
M  END
>  <ID>  (1) 
conformer_0

$$$$
