
     RDKit          3D

  9  9  0  0  0  0  0  0  0  0999 V2000
   -5.5849   74.4347    3.8887 C   0  0  0  0  0  0  0  0  0  0  0  0
   -4.3232   74.3664    4.4806 C   0  0  0  0  0  0  0  0  0  0  0  0
   -3.6879   75.6765    4.7278 C   0  0  0  0  0  0  0  0  0  0  0  0
   -2.9287   75.8930    5.8323 N   0  0  0  0  0  0  0  0  0  0  0  0
   -4.7805   76.6709    4.6721 C   0  0  0  0  0  0  0  0  0  0  0  0
   -2.3789   77.1226    6.0775 C   0  0  0  0  0  0  0  0  0  0  0  0
   -2.2864   78.0128    5.2949 O   0  0  0  0  0  0  0  0  0  0  0  0
   -5.7133   76.1628    3.7276 N   0  0  0  0  0  0  0  0  0  0  0  0
   -1.8504   77.3784    7.5028 C   0  0  0  0  0  0  0  0  0  0  0  0
  1  2  1  0
  2  3  1  0
  3  4  1  0
  3  5  1  0
  4  6  1  0
  6  7  2  0
  1  8  1  0
  5  8  1  0
  6  9  1  0
M  END
>  <ID>  (1) 
conformer_0

$$$$
