
     RDKit          3D

  9  9  0  0  0  0  0  0  0  0999 V2000
   -5.3033   76.3657    3.5872 N   0  0  0  0  0  0  0  0  0  0  0  0
   -4.5800   76.7855    4.3444 C   0  0  0  0  0  0  0  0  0  0  0  0
   -3.9299   75.8439    5.1846 C   0  0  0  0  0  0  0  0  0  0  0  0
   -2.8952   76.1223    6.0997 C   0  0  0  0  0  0  0  0  0  0  0  0
   -4.4649   74.5556    5.0042 C   0  0  0  0  0  0  0  0  0  0  0  0
   -2.9203   77.5441    6.5684 C   0  0  0  0  0  0  0  0  0  0  0  0
   -5.3568   74.8510    3.8965 N   0  0  0  0  0  0  0  0  0  0  0  0
   -4.2993   73.5070    5.4645 O   0  0  0  0  0  0  0  0  0  0  0  0
   -2.5772   77.7570    7.7768 O   0  0  0  0  0  0  0  0  0  0  0  0
  1  2  1  0
  2  3  2  0
  3  4  1  0
  3  5  1  0
  4  6  1  0
  1  7  1  0
  5  7  1  0
  5  8  2  0
  6  9  1  0
M  END
>  <ID>  (1) 
conformer_0

$$$$
