
     RDKit          3D

 12 13  0  0  0  0  0  0  0  0999 V2000
  -16.4424   -1.9085  -24.0500 N   0  0  0  0  0  0  0  0  0  0  0  0
  -17.3280   -1.1875  -24.4370 C   0  0  0  0  0  0  0  0  0  0  0  0
  -15.4217   -1.2678  -23.4627 C   0  0  0  0  0  0  0  0  0  0  0  0
  -18.5945   -1.5786  -24.9409 N   0  0  0  0  0  0  0  0  0  0  0  0
  -17.2459    0.3015  -24.3149 C   0  0  0  0  0  0  0  0  0  0  0  0
  -18.3297    1.0819  -24.6168 C   0  0  0  0  0  0  0  0  0  0  0  0
  -14.2336   -2.1043  -23.0402 C   0  0  0  0  0  0  0  0  0  0  0  0
  -18.2934    2.3462  -24.0340 C   0  0  0  0  0  0  0  0  0  0  0  0
  -16.1345    0.6763  -23.6268 C   0  0  0  0  0  0  0  0  0  0  0  0
  -15.2053   -0.1846  -23.2668 N   0  0  0  0  0  0  0  0  0  0  0  0
  -16.0492    2.0519  -23.2563 C   0  0  0  0  0  0  0  0  0  0  0  0
  -17.1275    2.8619  -23.4548 C   0  0  0  0  0  0  0  0  0  0  0  0
  1  2  2  0
  1  3  1  0
  2  4  1  0
  2  5  1  0
  5  6  1  0
  3  7  1  0
  6  8  2  0
  5  9  2  0
  3 10  2  0
  9 10  1  0
  9 11  1  0
  8 12  1  0
 11 12  2  0
M  END
>  <ID>  (1) 
conformer_0

$$$$
