
     RDKit          3D

 25 30  0  0  0  0  0  0  0  0999 V2000
  -16.3902   -2.1929  -24.1148 N   0  0  0  0  0  0  0  0  0  0  0  0
  -15.2673   -1.9330  -23.6065 C   0  0  0  0  0  0  0  0  0  0  0  0
  -14.8852   -0.6995  -23.2363 C   0  0  0  0  0  0  0  0  0  0  0  0
  -16.0057    0.1379  -23.4930 C   0  0  0  0  0  0  0  0  0  0  0  0
  -17.2460   -1.0856  -24.3027 C   0  0  0  0  0  0  0  0  0  0  0  0
  -16.4430    1.4180  -23.3873 C   0  0  0  0  0  0  0  0  0  0  0  0
  -13.6866   -0.4047  -22.7746 C   0  0  0  0  0  0  0  0  0  0  0  0
  -15.5787    2.3232  -22.9928 C   0  0  0  0  0  0  0  0  0  0  0  0
  -13.1938    0.9068  -22.5102 C   0  0  0  0  0  0  0  0  0  0  0  0
  -12.1286    1.1687  -22.1453 O   0  0  0  0  0  0  0  0  0  0  0  0
  -12.8407   -1.4625  -22.5879 C   0  0  0  0  0  0  0  0  0  0  0  0
  -13.5534   -2.8064  -22.9883 C   0  0  0  0  0  0  0  0  0  0  0  0
  -17.7794    1.7940  -23.2534 C   0  0  0  0  0  0  0  0  0  0  0  0
  -14.1423    2.0497  -22.5129 N   0  0  0  0  0  0  0  0  0  0  0  0
  -15.6994    3.6998  -23.0744 C   0  0  0  0  0  0  0  0  0  0  0  0
  -13.6766    3.1602  -21.8043 C   0  0  0  0  0  0  0  0  0  0  0  0
  -18.9023    0.8744  -23.4720 C   0  0  0  0  0  0  0  0  0  0  0  0
  -14.4721   -3.0294  -23.4120 N   0  0  0  0  0  0  0  0  0  0  0  0
  -18.0733    3.1516  -23.1231 C   0  0  0  0  0  0  0  0  0  0  0  0
  -14.3669    4.3210  -22.4741 C   0  0  0  0  0  0  0  0  0  0  0  0
  -19.3930    3.6124  -23.2167 C   0  0  0  0  0  0  0  0  0  0  0  0
  -20.3380    2.6003  -23.2861 C   0  0  0  0  0  0  0  0  0  0  0  0
  -20.1137    1.3769  -23.4832 C   0  0  0  0  0  0  0  0  0  0  0  0
  -14.6294    5.5543  -21.6740 C   0  0  0  0  0  0  0  0  0  0  0  0
  -17.0499    4.1919  -23.0144 C   0  0  0  0  0  0  0  0  0  0  0  0
  1  2  1  0
  2  3  1  0
  3  4  2  0
  1  5  2  0
  4  5  1  0
  4  6  1  0
  3  7  1  0
  6  8  1  0
  7  9  1  0
  9 10  2  0
  7 11  2  0
 11 12  1  0
  6 13  2  0
  8 14  1  0
  9 14  1  0
  8 15  2  0
 14 16  1  0
 13 17  1  0
  2 18  2  0
 12 18  1  0
 13 19  1  0
 15 20  1  0
 16 20  1  0
 19 21  1  0
 21 22  2  0
 17 23  2  0
 22 23  1  0
 20 24  1  0
 15 25  1  0
 19 25  2  0
M  END
>  <ID>  (1) 
conformer_0

$$$$
