
     RDKit          3D

 18 21  0  0  0  0  0  0  0  0999 V2000
  -16.5939   -2.2475  -24.2929 N   0  0  0  0  0  0  0  0  0  0  0  0
  -16.3089   -1.1566  -23.8835 C   0  0  0  0  0  0  0  0  0  0  0  0
  -15.0194   -0.9372  -23.2943 C   0  0  0  0  0  0  0  0  0  0  0  0
  -17.2549   -0.1340  -23.8455 C   0  0  0  0  0  0  0  0  0  0  0  0
  -14.6263    0.3872  -22.9656 C   0  0  0  0  0  0  0  0  0  0  0  0
  -17.6974   -2.0840  -24.9948 N   0  0  0  0  0  0  0  0  0  0  0  0
  -15.6965    1.4139  -23.0362 C   0  0  0  0  0  0  0  0  0  0  0  0
  -16.9768    1.0135  -23.4824 C   0  0  0  0  0  0  0  0  0  0  0  0
  -13.4238    0.7541  -22.4606 C   0  0  0  0  0  0  0  0  0  0  0  0
  -17.9143    1.9026  -23.3422 N   0  0  0  0  0  0  0  0  0  0  0  0
  -12.4277   -0.1512  -22.5712 C   0  0  0  0  0  0  0  0  0  0  0  0
  -12.7808   -1.5749  -22.9585 C   0  0  0  0  0  0  0  0  0  0  0  0
  -11.8373   -2.5007  -22.9319 F   0  0  0  0  0  0  0  0  0  0  0  0
  -14.0339   -1.8570  -23.2523 C   0  0  0  0  0  0  0  0  0  0  0  0
  -17.6245    3.1478  -22.7480 C   0  0  0  0  0  0  0  0  0  0  0  0
  -16.4697    3.5767  -22.4746 C   0  0  0  0  0  0  0  0  0  0  0  0
  -15.4139    2.7061  -22.6099 C   0  0  0  0  0  0  0  0  0  0  0  0
  -18.1499   -0.7563  -24.7460 C   0  0  0  0  0  0  0  0  0  0  0  0
  1  2  2  0
  2  3  1  0
  2  4  1  0
  3  5  2  0
  1  6  1  0
  5  7  1  0
  4  8  1  0
  7  8  1  0
  5  9  1  0
  8 10  2  0
  9 11  2  0
 11 12  1  0
 12 13  1  0
  3 14  1  0
 12 14  2  0
 10 15  1  0
 15 16  2  0
  7 17  2  0
 16 17  1  0
  4 18  2  0
  6 18  2  0
M  END
>  <ID>  (1) 
conformer_0

$$$$
