
     RDKit          3D

 31 34  0  0  0  0  0  0  0  0999 V2000
  -18.6863   -0.9583  -24.5260 N   0  0  0  0  0  0  0  0  0  0  0  0
  -17.4171   -0.8830  -24.2086 C   0  0  0  0  0  0  0  0  0  0  0  0
  -19.4944    0.1493  -24.4486 C   0  0  0  0  0  0  0  0  0  0  0  0
  -16.5552   -1.9860  -24.3532 N   0  0  0  0  0  0  0  0  0  0  0  0
  -16.7698    0.2865  -23.7926 C   0  0  0  0  0  0  0  0  0  0  0  0
  -18.9502    1.3675  -24.0646 C   0  0  0  0  0  0  0  0  0  0  0  0
  -15.4162    0.1415  -23.4644 C   0  0  0  0  0  0  0  0  0  0  0  0
  -14.8682   -1.0720  -23.4942 C   0  0  0  0  0  0  0  0  0  0  0  0
  -14.8370    1.4061  -22.8976 N   0  0  0  0  0  0  0  0  0  0  0  0
  -15.4765    2.5226  -22.8040 C   0  0  0  0  0  0  0  0  0  0  0  0
  -14.9907    3.7130  -22.3392 C   0  0  0  0  0  0  0  0  0  0  0  0
  -15.2801    4.8490  -22.5454 C   0  0  0  0  0  0  0  0  0  0  0  0
  -15.3628   -2.0372  -23.8446 C   0  0  0  0  0  0  0  0  0  0  0  0
  -13.3763   -1.0816  -22.9225 C   0  0  0  0  0  0  0  0  0  0  0  0
  -14.6537    5.9979  -21.9639 C   0  0  0  0  0  0  0  0  0  0  0  0
  -13.6929    5.7255  -21.0455 C   0  0  0  0  0  0  0  0  0  0  0  0
  -17.7225    1.4653  -23.6366 C   0  0  0  0  0  0  0  0  0  0  0  0
  -12.6029   -0.0854  -23.0971 O   0  0  0  0  0  0  0  0  0  0  0  0
  -13.0411   -1.9645  -22.0859 O   0  0  0  0  0  0  0  0  0  0  0  0
  -13.0388    6.6954  -20.3349 O   0  0  0  0  0  0  0  0  0  0  0  0
  -13.2167    4.2774  -20.7717 C   0  0  0  0  0  0  0  0  0  0  0  0
  -12.1802    4.1013  -19.8370 N   0  0  0  0  0  0  0  0  0  0  0  0
  -20.7421    0.0936  -24.6003 O   0  0  0  0  0  0  0  0  0  0  0  0
  -12.8586    6.6710  -18.9433 C   0  0  0  0  0  0  0  0  0  0  0  0
  -10.8803    4.4264  -20.2359 C   0  0  0  0  0  0  0  0  0  0  0  0
   -9.8424    4.3365  -19.4036 C   0  0  0  0  0  0  0  0  0  0  0  0
  -16.9533    2.5822  -23.2555 C   0  0  0  0  0  0  0  0  0  0  0  0
  -13.9196    3.3039  -21.3667 C   0  0  0  0  0  0  0  0  0  0  0  0
   -9.4238    3.0744  -19.3261 O   0  0  0  0  0  0  0  0  0  0  0  0
  -10.7453    5.3173  -21.3419 O   0  0  0  0  0  0  0  0  0  0  0  0
   -9.1998    5.2401  -18.7945 O   0  0  0  0  0  0  0  0  0  0  0  0
  1  2  1  0
  1  3  1  0
  2  4  1  0
  2  5  2  0
  3  6  1  0
  5  7  1  0
  7  8  2  0
  7  9  1  0
  9 10  2  0
 10 11  1  0
 11 12  2  0
  4 13  2  0
  8 13  1  0
  8 14  1  0
 12 15  1  0
 15 16  2  0
  5 17  1  0
  6 17  2  0
 14 18  1  0
 14 19  2  0
 16 20  1  0
 16 21  1  0
 21 22  1  0
  3 23  2  0
 20 24  1  0
 22 25  1  0
 25 26  1  0
 10 27  1  0
 17 27  1  0
 11 28  1  0
 21 28  2  0
 26 29  1  0
 25 30  2  0
 26 31  2  0
M  END
>  <ID>  (1) 
conformer_0

$$$$
