
     RDKit          3D

 24 27  0  0  0  0  0  0  0  0999 V2000
  -14.3945   -2.4621  -23.1749 N   0  0  0  0  0  0  0  0  0  0  0  0
  -13.4960   -1.7201  -22.7310 C   0  0  0  0  0  0  0  0  0  0  0  0
  -13.4934   -0.3424  -22.7828 C   0  0  0  0  0  0  0  0  0  0  0  0
  -14.7229    0.2575  -23.1182 C   0  0  0  0  0  0  0  0  0  0  0  0
  -15.0136    1.6809  -23.0998 C   0  0  0  0  0  0  0  0  0  0  0  0
  -14.0830    2.5490  -22.5074 C   0  0  0  0  0  0  0  0  0  0  0  0
  -15.7428   -0.6188  -23.5644 C   0  0  0  0  0  0  0  0  0  0  0  0
  -15.5472   -1.9566  -23.6007 C   0  0  0  0  0  0  0  0  0  0  0  0
  -17.0386   -0.1641  -24.0522 C   0  0  0  0  0  0  0  0  0  0  0  0
  -14.3890    3.8507  -22.4304 C   0  0  0  0  0  0  0  0  0  0  0  0
  -13.4345    4.8438  -21.8132 C   0  0  0  0  0  0  0  0  0  0  0  0
  -12.1831    4.3159  -21.4497 C   0  0  0  0  0  0  0  0  0  0  0  0
  -11.9483    3.0038  -21.5143 C   0  0  0  0  0  0  0  0  0  0  0  0
  -16.5888   -2.7227  -24.1306 O   0  0  0  0  0  0  0  0  0  0  0  0
  -10.7326    2.5970  -20.9738 O   0  0  0  0  0  0  0  0  0  0  0  0
  -16.2745    1.9439  -23.6131 C   0  0  0  0  0  0  0  0  0  0  0  0
  -12.9046    2.1059  -21.9970 C   0  0  0  0  0  0  0  0  0  0  0  0
  -18.0260   -0.9477  -24.4540 N   0  0  0  0  0  0  0  0  0  0  0  0
   -9.9336    3.6917  -20.5962 C   0  0  0  0  0  0  0  0  0  0  0  0
  -11.1873    5.1064  -20.7372 C   0  0  0  0  0  0  0  0  0  0  0  0
   -9.6742    3.5989  -19.1245 C   0  0  0  0  0  0  0  0  0  0  0  0
   -9.7364    2.4486  -18.8096 O   0  0  0  0  0  0  0  0  0  0  0  0
  -17.2444    1.2247  -23.9530 N   0  0  0  0  0  0  0  0  0  0  0  0
   -9.3768    4.5304  -18.3824 O   0  0  0  0  0  0  0  0  0  0  0  0
  1  2  1  0
  2  3  2  0
  3  4  1  0
  4  5  1  0
  5  6  1  0
  4  7  2  0
  1  8  2  0
  7  8  1  0
  7  9  1  0
  6 10  2  0
 10 11  1  0
 11 12  2  0
 12 13  1  0
  8 14  1  0
 13 15  1  0
  5 16  2  0
  6 17  1  0
 13 17  2  0
  9 18  1  0
 15 19  1  0
 12 20  1  0
 19 20  1  0
 19 21  1  0
 21 22  2  0
  9 23  2  0
 16 23  1  0
 21 24  1  0
M  END
>  <ID>  (1) 
conformer_0

$$$$
