
     RDKit          3D

 17 19  0  0  0  0  0  0  0  0999 V2000
  -18.6863   -0.9583  -24.5260 N   0  0  0  0  0  0  0  0  0  0  0  0
  -17.4171   -0.8830  -24.2086 C   0  0  0  0  0  0  0  0  0  0  0  0
  -19.4944    0.1493  -24.4486 C   0  0  0  0  0  0  0  0  0  0  0  0
  -16.5552   -1.9860  -24.3532 N   0  0  0  0  0  0  0  0  0  0  0  0
  -16.7698    0.2865  -23.7926 C   0  0  0  0  0  0  0  0  0  0  0  0
  -18.9502    1.3675  -24.0646 C   0  0  0  0  0  0  0  0  0  0  0  0
  -15.4162    0.1415  -23.4644 C   0  0  0  0  0  0  0  0  0  0  0  0
  -20.7427    0.2751  -24.5849 C   0  0  0  0  0  0  0  0  0  0  0  0
  -14.8409   -1.0316  -23.4412 C   0  0  0  0  0  0  0  0  0  0  0  0
  -19.8688    2.3340  -23.9724 C   0  0  0  0  0  0  0  0  0  0  0  0
  -15.3984   -2.1180  -23.8133 C   0  0  0  0  0  0  0  0  0  0  0  0
  -13.4174   -1.0137  -22.8593 C   0  0  0  0  0  0  0  0  0  0  0  0
  -13.0151   -2.0791  -22.3543 O   0  0  0  0  0  0  0  0  0  0  0  0
  -17.6371    1.4112  -23.8432 C   0  0  0  0  0  0  0  0  0  0  0  0
  -21.5300    1.4135  -24.4194 C   0  0  0  0  0  0  0  0  0  0  0  0
  -21.0784    2.3150  -24.0750 C   0  0  0  0  0  0  0  0  0  0  0  0
  -12.6777   -0.0034  -22.8216 O   0  0  0  0  0  0  0  0  0  0  0  0
  1  2  1  0
  1  3  1  0
  2  4  1  0
  2  5  2  0
  3  6  1  0
  5  7  1  0
  3  8  2  0
  7  9  2  0
  6 10  1  0
  4 11  2  0
  9 11  1  0
  9 12  1  0
 12 13  1  0
  5 14  1  0
  6 14  2  0
  8 15  1  0
 10 16  1  0
 15 16  2  0
 12 17  2  0
M  END
>  <ID>  (1) 
conformer_0

$$$$
