
     RDKit          3D

 16 18  0  0  0  0  0  0  0  0999 V2000
  -16.4424   -1.9085  -24.0500 N   0  0  0  0  0  0  0  0  0  0  0  0
  -15.4156   -1.8598  -23.5234 C   0  0  0  0  0  0  0  0  0  0  0  0
  -14.9415   -0.5881  -23.1320 C   0  0  0  0  0  0  0  0  0  0  0  0
  -13.6476   -0.4549  -22.5745 C   0  0  0  0  0  0  0  0  0  0  0  0
  -13.1544    0.8270  -22.5491 C   0  0  0  0  0  0  0  0  0  0  0  0
  -15.8441    0.4300  -23.2648 C   0  0  0  0  0  0  0  0  0  0  0  0
  -12.8981   -1.5837  -22.3848 C   0  0  0  0  0  0  0  0  0  0  0  0
  -11.6454   -1.5560  -22.2361 C   0  0  0  0  0  0  0  0  0  0  0  0
  -17.4571   -1.1161  -24.2213 C   0  0  0  0  0  0  0  0  0  0  0  0
  -11.0309   -0.2802  -22.1084 C   0  0  0  0  0  0  0  0  0  0  0  0
  -17.0869    0.1882  -23.7888 C   0  0  0  0  0  0  0  0  0  0  0  0
  -18.0210    1.3437  -23.8916 C   0  0  0  0  0  0  0  0  0  0  0  0
  -17.6501    2.6256  -23.4379 C   0  0  0  0  0  0  0  0  0  0  0  0
  -15.6044    1.8732  -22.8424 C   0  0  0  0  0  0  0  0  0  0  0  0
  -16.2843    2.7233  -22.8949 C   0  0  0  0  0  0  0  0  0  0  0  0
  -11.7405    0.8744  -22.2484 C   0  0  0  0  0  0  0  0  0  0  0  0
  1  2  1  0
  2  3  2  0
  3  4  1  0
  4  5  1  0
  3  6  1  0
  4  7  2  0
  7  8  1  0
  1  9  2  0
  8 10  2  0
  6 11  2  0
  9 11  1  0
 11 12  1  0
 12 13  2  0
  6 14  1  0
 13 15  1  0
 14 15  2  0
  5 16  2  0
 10 16  1  0
M  END
>  <ID>  (1) 
conformer_0

$$$$
