
     RDKit          3D

 40 47  0  0  0  0  0  0  0  0999 V2000
  -18.6863   -0.9583  -24.5260 N   0  0  0  0  0  0  0  0  0  0  0  0
  -17.4494   -1.2056  -24.3403 C   0  0  0  0  0  0  0  0  0  0  0  0
  -18.9792    0.4498  -24.2888 C   0  0  0  0  0  0  0  0  0  0  0  0
  -20.2721    0.9284  -24.3541 C   0  0  0  0  0  0  0  0  0  0  0  0
  -18.0369    1.2956  -23.8895 C   0  0  0  0  0  0  0  0  0  0  0  0
  -16.7048    0.9395  -23.7891 C   0  0  0  0  0  0  0  0  0  0  0  0
  -16.3233   -0.5068  -24.0428 C   0  0  0  0  0  0  0  0  0  0  0  0
  -20.6119    2.2027  -24.1531 C   0  0  0  0  0  0  0  0  0  0  0  0
  -21.9832    2.6223  -24.2392 C   0  0  0  0  0  0  0  0  0  0  0  0
  -16.0541    1.8199  -23.2221 N   0  0  0  0  0  0  0  0  0  0  0  0
  -15.1522   -1.0544  -23.7705 C   0  0  0  0  0  0  0  0  0  0  0  0
  -16.3757    3.0622  -23.1673 C   0  0  0  0  0  0  0  0  0  0  0  0
  -13.9646   -0.6323  -23.1538 C   0  0  0  0  0  0  0  0  0  0  0  0
  -15.0529   -2.2988  -23.8061 N   0  0  0  0  0  0  0  0  0  0  0  0
  -18.2577    2.7597  -23.7450 C   0  0  0  0  0  0  0  0  0  0  0  0
  -15.2445    3.9929  -22.6225 C   0  0  0  0  0  0  0  0  0  0  0  0
  -19.6347    3.1567  -23.7373 C   0  0  0  0  0  0  0  0  0  0  0  0
  -14.8420    3.7523  -21.3204 C   0  0  0  0  0  0  0  0  0  0  0  0
  -13.4237    3.8419  -21.1296 C   0  0  0  0  0  0  0  0  0  0  0  0
  -17.4432    3.5753  -23.3200 N   0  0  0  0  0  0  0  0  0  0  0  0
  -13.0276   -1.6054  -22.8315 C   0  0  0  0  0  0  0  0  0  0  0  0
  -17.1366   -2.4014  -24.6628 O   0  0  0  0  0  0  0  0  0  0  0  0
  -12.6929    2.9186  -21.1896 C   0  0  0  0  0  0  0  0  0  0  0  0
  -12.9573    5.0829  -20.5457 C   0  0  0  0  0  0  0  0  0  0  0  0
  -13.7894    6.1934  -20.2717 C   0  0  0  0  0  0  0  0  0  0  0  0
  -13.1384    7.3324  -19.7029 C   0  0  0  0  0  0  0  0  0  0  0  0
  -13.9473    8.4583  -19.3913 O   0  0  0  0  0  0  0  0  0  0  0  0
  -11.8085   -1.4691  -22.2671 C   0  0  0  0  0  0  0  0  0  0  0  0
  -13.6815   -2.7568  -23.2090 N   0  0  0  0  0  0  0  0  0  0  0  0
  -22.9117    1.8986  -24.9098 C   0  0  0  0  0  0  0  0  0  0  0  0
  -22.5595    0.7145  -25.4549 C   0  0  0  0  0  0  0  0  0  0  0  0
  -11.7318    5.0106  -20.3817 C   0  0  0  0  0  0  0  0  0  0  0  0
  -12.6629    1.5481  -21.6738 C   0  0  0  0  0  0  0  0  0  0  0  0
  -11.2346    3.4138  -20.8391 S   0  0  0  0  0  0  0  0  0  0  0  0
  -21.2801    0.1588  -25.1019 C   0  0  0  0  0  0  0  0  0  0  0  0
  -11.8039    7.2269  -19.3622 C   0  0  0  0  0  0  0  0  0  0  0  0
  -10.2426    3.4702  -21.8880 O   0  0  0  0  0  0  0  0  0  0  0  0
  -10.5181    2.9672  -19.5098 O   0  0  0  0  0  0  0  0  0  0  0  0
  -11.0457    6.1720  -19.6549 C   0  0  0  0  0  0  0  0  0  0  0  0
  -13.7341    1.0292  -22.7113 C   0  0  0  0  0  0  0  0  0  0  0  0
  1  2  1  0
  1  3  1  0
  3  4  1  0
  3  5  2  0
  5  6  1  0
  2  7  1  0
  6  7  1  0
  4  8  2  0
  8  9  1  0
  6 10  2  0
  7 11  1  0
 10 12  1  0
 11 13  1  0
 11 14  2  0
  5 15  1  0
 12 16  1  0
  8 17  1  0
 15 17  2  0
 16 18  1  0
 18 19  1  0
 12 20  2  0
 15 20  1  0
 13 21  1  0
  2 22  2  0
 19 23  2  0
 19 24  1  0
 24 25  1  0
 25 26  2  0
 26 27  1  0
 21 28  1  0
 14 29  1  0
 21 29  2  0
  9 30  2  0
 30 31  1  0
 24 32  2  0
 23 33  1  0
 23 34  1  0
 32 34  1  0
  4 35  1  0
 31 35  2  0
 26 36  1  0
 34 37  2  0
 34 38  2  0
 32 39  1  0
 36 39  2  0
 13 40  1  0
 33 40  2  0
M  END
>  <ID>  (1) 
conformer_0

$$$$
