
     RDKit          3D

 37 46  0  0  0  0  0  0  0  0999 V2000
  -16.5685   -2.3608  -24.2952 N   0  0  0  0  0  0  0  0  0  0  0  0
  -15.4633   -1.9776  -23.7929 C   0  0  0  0  0  0  0  0  0  0  0  0
  -15.3760   -0.6485  -23.3838 C   0  0  0  0  0  0  0  0  0  0  0  0
  -17.3499   -1.1987  -24.3273 C   0  0  0  0  0  0  0  0  0  0  0  0
  -16.5767   -0.1441  -23.8120 C   0  0  0  0  0  0  0  0  0  0  0  0
  -17.0950    1.2027  -23.6660 C   0  0  0  0  0  0  0  0  0  0  0  0
  -18.3625    1.6393  -23.8363 C   0  0  0  0  0  0  0  0  0  0  0  0
  -16.2790    2.2177  -23.0723 C   0  0  0  0  0  0  0  0  0  0  0  0
  -14.2730   -2.8231  -23.3511 N   0  0  0  0  0  0  0  0  0  0  0  0
  -19.3741    0.8756  -24.3385 O   0  0  0  0  0  0  0  0  0  0  0  0
  -14.1446   -0.1931  -22.8354 C   0  0  0  0  0  0  0  0  0  0  0  0
  -13.8926    1.2230  -22.4746 C   0  0  0  0  0  0  0  0  0  0  0  0
  -13.0542   -0.9743  -22.4884 C   0  0  0  0  0  0  0  0  0  0  0  0
  -18.9384    2.8576  -23.4761 C   0  0  0  0  0  0  0  0  0  0  0  0
  -20.2860    3.0441  -23.7727 O   0  0  0  0  0  0  0  0  0  0  0  0
  -20.6231    1.7097  -24.1260 C   0  0  0  0  0  0  0  0  0  0  0  0
  -14.9307    2.2569  -22.6466 C   0  0  0  0  0  0  0  0  0  0  0  0
  -12.7721    1.5839  -21.9438 C   0  0  0  0  0  0  0  0  0  0  0  0
  -14.6918    3.5205  -22.2982 C   0  0  0  0  0  0  0  0  0  0  0  0
  -12.5135    2.9194  -21.5142 C   0  0  0  0  0  0  0  0  0  0  0  0
  -17.9583    3.8727  -23.0361 C   0  0  0  0  0  0  0  0  0  0  0  0
  -11.3404    3.2976  -20.8543 N   0  0  0  0  0  0  0  0  0  0  0  0
  -13.3557    3.8162  -21.6935 C   0  0  0  0  0  0  0  0  0  0  0  0
  -13.1474    5.1848  -21.3002 C   0  0  0  0  0  0  0  0  0  0  0  0
  -14.1983    6.1483  -21.4519 C   0  0  0  0  0  0  0  0  0  0  0  0
  -15.3081    5.4706  -21.5629 C   0  0  0  0  0  0  0  0  0  0  0  0
  -11.8731    5.4936  -20.8132 C   0  0  0  0  0  0  0  0  0  0  0  0
  -16.7387    3.5189  -22.8439 C   0  0  0  0  0  0  0  0  0  0  0  0
  -11.5744    6.8148  -20.3927 O   0  0  0  0  0  0  0  0  0  0  0  0
  -10.3989    2.1711  -20.5616 C   0  0  0  0  0  0  0  0  0  0  0  0
  -13.2289   -2.3268  -22.7944 C   0  0  0  0  0  0  0  0  0  0  0  0
  -10.9045    4.4687  -20.6615 C   0  0  0  0  0  0  0  0  0  0  0  0
  -11.4650    7.2508  -19.2062 C   0  0  0  0  0  0  0  0  0  0  0  0
   -9.3213    2.5918  -19.7996 C   0  0  0  0  0  0  0  0  0  0  0  0
   -9.3876    3.7584  -19.0788 O   0  0  0  0  0  0  0  0  0  0  0  0
   -9.8891    4.8274  -19.8246 C   0  0  0  0  0  0  0  0  0  0  0  0
  -15.6674    4.2972  -22.2846 C   0  0  0  0  0  0  0  0  0  0  0  0
  1  2  1  0
  2  3  1  0
  1  4  2  0
  3  5  2  0
  4  5  1  0
  5  6  1  0
  6  7  1  0
  6  8  2  0
  2  9  2  0
  7 10  1  0
  3 11  1  0
 11 12  1  0
 11 13  2  0
  7 14  2  0
 14 15  1  0
 10 16  1  0
 15 16  1  0
  8 17  1  0
 12 17  1  0
 12 18  2  0
 17 19  2  0
 18 20  1  0
 14 21  1  0
 20 22  1  0
 19 23  1  0
 20 23  2  0
 23 24  1  0
 24 25  1  0
 25 26  2  0
 24 27  2  0
  8 28  1  0
 21 28  2  0
 27 29  1  0
 22 30  1  0
  9 31  1  0
 13 31  1  0
 22 32  1  0
 27 32  1  0
 29 33  1  0
 30 34  1  0
 34 35  1  0
 32 36  2  0
 35 36  1  0
 19 37  1  0
 26 37  1  0
 28 37  1  0
M  END
>  <ID>  (1) 
conformer_0

$$$$
