
     RDKit          3D

 40 47  0  0  0  0  0  0  0  0999 V2000
  -18.6863   -0.9583  -24.5260 N   0  0  0  0  0  0  0  0  0  0  0  0
  -17.4494   -1.2056  -24.3403 C   0  0  0  0  0  0  0  0  0  0  0  0
  -18.9792    0.4498  -24.2888 C   0  0  0  0  0  0  0  0  0  0  0  0
  -20.2721    0.9284  -24.3541 C   0  0  0  0  0  0  0  0  0  0  0  0
  -18.0369    1.2956  -23.8895 C   0  0  0  0  0  0  0  0  0  0  0  0
  -16.7048    0.9395  -23.7891 C   0  0  0  0  0  0  0  0  0  0  0  0
  -16.3233   -0.5068  -24.0428 C   0  0  0  0  0  0  0  0  0  0  0  0
  -20.6119    2.2027  -24.1531 C   0  0  0  0  0  0  0  0  0  0  0  0
  -21.9832    2.6223  -24.2392 C   0  0  0  0  0  0  0  0  0  0  0  0
  -16.0541    1.8199  -23.2221 N   0  0  0  0  0  0  0  0  0  0  0  0
  -15.1522   -1.0544  -23.7705 C   0  0  0  0  0  0  0  0  0  0  0  0
  -16.3757    3.0622  -23.1673 C   0  0  0  0  0  0  0  0  0  0  0  0
  -13.9646   -0.6323  -23.1538 C   0  0  0  0  0  0  0  0  0  0  0  0
  -15.0529   -2.2988  -23.8061 N   0  0  0  0  0  0  0  0  0  0  0  0
  -18.2577    2.7597  -23.7450 C   0  0  0  0  0  0  0  0  0  0  0  0
  -15.2445    3.9929  -22.6225 C   0  0  0  0  0  0  0  0  0  0  0  0
  -19.6347    3.1567  -23.7373 C   0  0  0  0  0  0  0  0  0  0  0  0
  -14.8420    3.7523  -21.3204 C   0  0  0  0  0  0  0  0  0  0  0  0
  -13.4237    3.8419  -21.1296 C   0  0  0  0  0  0  0  0  0  0  0  0
  -17.4432    3.5753  -23.3200 N   0  0  0  0  0  0  0  0  0  0  0  0
  -13.0276   -1.6054  -22.8315 C   0  0  0  0  0  0  0  0  0  0  0  0
  -17.1366   -2.4014  -24.6628 O   0  0  0  0  0  0  0  0  0  0  0  0
  -12.6929    2.9186  -21.1896 C   0  0  0  0  0  0  0  0  0  0  0  0
  -12.9573    5.0829  -20.5457 C   0  0  0  0  0  0  0  0  0  0  0  0
  -13.7894    6.1934  -20.2717 C   0  0  0  0  0  0  0  0  0  0  0  0
  -13.1384    7.3324  -19.7029 C   0  0  0  0  0  0  0  0  0  0  0  0
  -13.9473    8.4583  -19.3913 O   0  0  0  0  0  0  0  0  0  0  0  0
  -11.8085   -1.4691  -22.2671 C   0  0  0  0  0  0  0  0  0  0  0  0
  -13.6815   -2.7568  -23.2090 N   0  0  0  0  0  0  0  0  0  0  0  0
  -22.9117    1.8986  -24.9098 C   0  0  0  0  0  0  0  0  0  0  0  0
  -11.6514    5.1138  -20.3804 C   0  0  0  0  0  0  0  0  0  0  0  0
  -13.0807    1.5463  -21.7319 O   0  0  0  0  0  0  0  0  0  0  0  0
  -10.7581    4.1285  -20.7785 C   0  0  0  0  0  0  0  0  0  0  0  0
  -11.8220    7.4193  -19.5192 C   0  0  0  0  0  0  0  0  0  0  0  0
  -11.2648    2.9229  -21.0809 C   0  0  0  0  0  0  0  0  0  0  0  0
  -13.5861    0.8109  -22.9969 C   0  0  0  0  0  0  0  0  0  0  0  0
  -22.5499    0.7198  -25.4613 C   0  0  0  0  0  0  0  0  0  0  0  0
  -11.0551    6.3300  -19.8300 C   0  0  0  0  0  0  0  0  0  0  0  0
  -21.2800    0.0723  -25.1324 C   0  0  0  0  0  0  0  0  0  0  0  0
   -9.3997    4.3264  -20.7822 O   0  0  0  0  0  0  0  0  0  0  0  0
  1  2  1  0
  1  3  1  0
  3  4  1  0
  3  5  2  0
  5  6  1  0
  2  7  1  0
  6  7  1  0
  4  8  2  0
  8  9  1  0
  6 10  2  0
  7 11  1  0
 10 12  1  0
 11 13  1  0
 11 14  2  0
  5 15  1  0
 12 16  1  0
  8 17  1  0
 15 17  2  0
 16 18  1  0
 18 19  1  0
 12 20  2  0
 15 20  1  0
 13 21  1  0
  2 22  2  0
 19 23  2  0
 19 24  1  0
 24 25  1  0
 25 26  2  0
 26 27  1  0
 21 28  1  0
 14 29  1  0
 21 29  2  0
  9 30  2  0
 24 31  2  0
 23 32  1  0
 31 33  1  0
 26 34  1  0
 23 35  1  0
 33 35  2  0
 13 36  1  0
 32 36  1  0
 30 37  1  0
 31 38  1  0
 34 38  2  0
  4 39  1  0
 37 39  2  0
 33 40  1  0
M  END
>  <ID>  (1) 
conformer_0

$$$$
