
     RDKit          3D

 16 18  0  0  0  0  0  0  0  0999 V2000
  -18.6863   -0.9583  -24.5260 N   0  0  0  0  0  0  0  0  0  0  0  0
  -17.4171   -0.8830  -24.2086 C   0  0  0  0  0  0  0  0  0  0  0  0
  -19.4944    0.1493  -24.4486 C   0  0  0  0  0  0  0  0  0  0  0  0
  -16.5552   -1.9860  -24.3532 N   0  0  0  0  0  0  0  0  0  0  0  0
  -16.7698    0.2865  -23.7926 C   0  0  0  0  0  0  0  0  0  0  0  0
  -18.9502    1.3675  -24.0646 C   0  0  0  0  0  0  0  0  0  0  0  0
  -15.4162    0.1415  -23.4644 C   0  0  0  0  0  0  0  0  0  0  0  0
  -20.7427    0.2751  -24.5849 C   0  0  0  0  0  0  0  0  0  0  0  0
  -14.8409   -1.0316  -23.4412 C   0  0  0  0  0  0  0  0  0  0  0  0
  -15.3951   -2.1075  -23.8210 C   0  0  0  0  0  0  0  0  0  0  0  0
  -17.6465    1.4539  -23.7862 C   0  0  0  0  0  0  0  0  0  0  0  0
  -19.7362    2.4812  -23.9364 N   0  0  0  0  0  0  0  0  0  0  0  0
  -13.4093   -1.0834  -22.9041 C   0  0  0  0  0  0  0  0  0  0  0  0
  -12.6821   -0.0742  -22.8623 O   0  0  0  0  0  0  0  0  0  0  0  0
  -21.0281    1.7907  -24.2681 C   0  0  0  0  0  0  0  0  0  0  0  0
  -12.8267   -2.2576  -22.8162 O   0  0  0  0  0  0  0  0  0  0  0  0
  1  2  1  0
  1  3  1  0
  2  4  1  0
  2  5  2  0
  3  6  1  0
  5  7  1  0
  3  8  2  0
  7  9  2  0
  4 10  2  0
  9 10  1  0
  5 11  1  0
  6 11  2  0
  6 12  1  0
  9 13  1  0
 13 14  1  0
  8 15  1  0
 12 15  2  0
 13 16  2  0
M  END
>  <ID>  (1) 
conformer_0

$$$$
