
     RDKit          3D

 31 36  0  0  0  0  0  0  0  0999 V2000
  -16.3902   -2.1929  -24.1148 N   0  0  0  0  0  0  0  0  0  0  0  0
  -15.2673   -1.9330  -23.6065 C   0  0  0  0  0  0  0  0  0  0  0  0
  -14.8852   -0.6995  -23.2363 C   0  0  0  0  0  0  0  0  0  0  0  0
  -16.0057    0.1379  -23.4930 C   0  0  0  0  0  0  0  0  0  0  0  0
  -17.2460   -1.0856  -24.3027 C   0  0  0  0  0  0  0  0  0  0  0  0
  -16.4430    1.4180  -23.3873 C   0  0  0  0  0  0  0  0  0  0  0  0
  -13.6866   -0.4047  -22.7746 C   0  0  0  0  0  0  0  0  0  0  0  0
  -15.5787    2.3232  -22.9928 C   0  0  0  0  0  0  0  0  0  0  0  0
  -13.1938    0.9068  -22.5102 C   0  0  0  0  0  0  0  0  0  0  0  0
  -12.1286    1.1687  -22.1453 O   0  0  0  0  0  0  0  0  0  0  0  0
  -14.2888    1.9404  -22.3826 N   0  0  0  0  0  0  0  0  0  0  0  0
  -13.8794    3.1350  -21.6498 C   0  0  0  0  0  0  0  0  0  0  0  0
  -15.9955    3.5820  -23.0317 N   0  0  0  0  0  0  0  0  0  0  0  0
  -12.5007    3.3326  -21.1656 C   0  0  0  0  0  0  0  0  0  0  0  0
  -14.4791    4.4210  -22.2216 C   0  0  0  0  0  0  0  0  0  0  0  0
  -18.3594   -0.6076  -24.5646 C   0  0  0  0  0  0  0  0  0  0  0  0
  -11.8451    4.4738  -21.6323 C   0  0  0  0  0  0  0  0  0  0  0  0
  -17.7919    1.6214  -24.0017 C   0  0  0  0  0  0  0  0  0  0  0  0
  -10.5808    4.7573  -20.9725 C   0  0  0  0  0  0  0  0  0  0  0  0
  -12.9478   -1.4961  -22.5929 C   0  0  0  0  0  0  0  0  0  0  0  0
  -10.5179    5.5572  -19.9232 C   0  0  0  0  0  0  0  0  0  0  0  0
  -18.0751    3.0314  -23.8162 C   0  0  0  0  0  0  0  0  0  0  0  0
  -11.6113    6.2767  -19.5256 O   0  0  0  0  0  0  0  0  0  0  0  0
  -13.8376    5.6051  -21.4074 C   0  0  0  0  0  0  0  0  0  0  0  0
   -9.3699    6.1658  -19.4967 O   0  0  0  0  0  0  0  0  0  0  0  0
   -9.5136    4.0204  -21.2494 O   0  0  0  0  0  0  0  0  0  0  0  0
  -12.6446    5.7076  -21.4646 O   0  0  0  0  0  0  0  0  0  0  0  0
  -17.1927    3.8573  -23.3990 C   0  0  0  0  0  0  0  0  0  0  0  0
  -13.4233   -2.8824  -22.9155 C   0  0  0  0  0  0  0  0  0  0  0  0
  -14.5094   -3.0038  -23.4015 C   0  0  0  0  0  0  0  0  0  0  0  0
  -18.7619    0.6701  -24.4020 C   0  0  0  0  0  0  0  0  0  0  0  0
  1  2  1  0
  2  3  1  0
  3  4  2  0
  1  5  2  0
  4  5  1  0
  4  6  1  0
  3  7  1  0
  6  8  1  0
  7  9  1  0
  9 10  2  0
  8 11  1  0
  9 11  1  0
 11 12  1  0
  8 13  2  0
 12 14  1  0
 12 15  1  0
  5 16  1  0
 14 17  1  0
  6 18  2  0
 17 19  1  0
  7 20  2  0
 19 21  1  0
 18 22  1  0
 21 23  2  0
 15 24  1  0
 21 25  1  0
 19 26  2  0
 17 27  1  0
 24 27  1  0
 13 28  1  0
 22 28  2  0
 20 29  1  0
  2 30  2  0
 29 30  1  0
 16 31  2  0
 18 31  1  0
M  END
>  <ID>  (1) 
conformer_0

$$$$
