
     RDKit          3D

 35 40  0  0  0  0  0  0  0  0999 V2000
  -18.6863   -0.9583  -24.5260 N   0  0  0  0  0  0  0  0  0  0  0  0
  -17.4171   -0.8830  -24.2086 C   0  0  0  0  0  0  0  0  0  0  0  0
  -19.4944    0.1493  -24.4486 C   0  0  0  0  0  0  0  0  0  0  0  0
  -16.5552   -1.9860  -24.3532 N   0  0  0  0  0  0  0  0  0  0  0  0
  -16.7698    0.2865  -23.7926 C   0  0  0  0  0  0  0  0  0  0  0  0
  -18.9502    1.3675  -24.0646 C   0  0  0  0  0  0  0  0  0  0  0  0
  -15.4162    0.1415  -23.4644 C   0  0  0  0  0  0  0  0  0  0  0  0
  -14.8682   -1.0720  -23.4942 C   0  0  0  0  0  0  0  0  0  0  0  0
  -14.8370    1.4061  -22.8976 N   0  0  0  0  0  0  0  0  0  0  0  0
  -15.4765    2.5226  -22.8040 C   0  0  0  0  0  0  0  0  0  0  0  0
  -14.9907    3.7130  -22.3392 C   0  0  0  0  0  0  0  0  0  0  0  0
  -15.2801    4.8490  -22.5454 C   0  0  0  0  0  0  0  0  0  0  0  0
  -15.3628   -2.0372  -23.8446 C   0  0  0  0  0  0  0  0  0  0  0  0
  -17.0016    2.5872  -23.1304 C   0  0  0  0  0  0  0  0  0  0  0  0
  -20.7445    0.3689  -24.8358 C   0  0  0  0  0  0  0  0  0  0  0  0
  -13.7730    3.5830  -21.4391 C   0  0  0  0  0  0  0  0  0  0  0  0
  -13.1453    4.5808  -20.8662 C   0  0  0  0  0  0  0  0  0  0  0  0
  -19.8382    2.4245  -24.0897 C   0  0  0  0  0  0  0  0  0  0  0  0
  -13.7653    5.8938  -21.3241 C   0  0  0  0  0  0  0  0  0  0  0  0
  -14.7834    6.0084  -21.9256 C   0  0  0  0  0  0  0  0  0  0  0  0
  -12.0923    4.4753  -20.0171 C   0  0  0  0  0  0  0  0  0  0  0  0
  -13.3758   -1.0858  -22.9770 C   0  0  0  0  0  0  0  0  0  0  0  0
  -12.5696   -0.1437  -23.1905 O   0  0  0  0  0  0  0  0  0  0  0  0
  -17.5811    1.5094  -23.5983 C   0  0  0  0  0  0  0  0  0  0  0  0
  -21.6000   -0.8464  -25.2628 C   0  0  0  0  0  0  0  0  0  0  0  0
  -10.7896    4.5604  -20.5138 C   0  0  0  0  0  0  0  0  0  0  0  0
  -21.1031    1.6724  -24.5633 C   0  0  0  0  0  0  0  0  0  0  0  0
   -9.7759    4.9469  -19.7394 C   0  0  0  0  0  0  0  0  0  0  0  0
  -13.0260   -2.0132  -22.1291 O   0  0  0  0  0  0  0  0  0  0  0  0
   -9.3051    4.3427  -19.0144 O   0  0  0  0  0  0  0  0  0  0  0  0
  -22.3127    2.1804  -24.8128 C   0  0  0  0  0  0  0  0  0  0  0  0
  -22.8058    3.2461  -24.3896 O   0  0  0  0  0  0  0  0  0  0  0  0
  -22.9147   -0.5105  -25.1997 C   0  0  0  0  0  0  0  0  0  0  0  0
  -23.3800    1.1233  -25.0820 C   0  0  0  0  0  0  0  0  0  0  0  0
   -9.2532    6.1749  -19.9942 O   0  0  0  0  0  0  0  0  0  0  0  0
  1  2  1  0
  1  3  1  0
  2  4  1  0
  2  5  2  0
  3  6  1  0
  5  7  1  0
  7  8  2  0
  7  9  1  0
  9 10  2  0
 10 11  1  0
 11 12  2  0
  4 13  2  0
  8 13  1  0
 10 14  1  0
  3 15  2  0
 11 16  1  0
 16 17  2  0
  6 18  2  0
 17 19  1  0
 12 20  1  0
 19 20  2  0
 17 21  1  0
  8 22  1  0
 22 23  1  0
  5 24  1  0
  6 24  1  0
 14 24  2  0
 15 25  1  0
 21 26  1  0
 15 27  1  0
 18 27  1  0
 26 28  1  0
 22 29  2  0
 28 30  1  0
 27 31  1  0
 31 32  2  0
 25 33  1  0
 31 34  1  0
 33 34  1  0
 28 35  2  0
M  END
>  <ID>  (1) 
conformer_0

$$$$
