
     RDKit          3D

 21 25  0  0  0  0  0  0  0  0999 V2000
  -16.3902   -2.1929  -24.1148 N   0  0  0  0  0  0  0  0  0  0  0  0
  -15.2673   -1.9330  -23.6065 C   0  0  0  0  0  0  0  0  0  0  0  0
  -14.8852   -0.6995  -23.2363 C   0  0  0  0  0  0  0  0  0  0  0  0
  -16.0057    0.1379  -23.4930 C   0  0  0  0  0  0  0  0  0  0  0  0
  -17.2460   -1.0856  -24.3027 C   0  0  0  0  0  0  0  0  0  0  0  0
  -16.4430    1.4180  -23.3873 C   0  0  0  0  0  0  0  0  0  0  0  0
  -13.6866   -0.4047  -22.7746 C   0  0  0  0  0  0  0  0  0  0  0  0
  -15.5787    2.3232  -22.9928 C   0  0  0  0  0  0  0  0  0  0  0  0
  -13.1938    0.9068  -22.5102 C   0  0  0  0  0  0  0  0  0  0  0  0
  -12.1286    1.1687  -22.1453 O   0  0  0  0  0  0  0  0  0  0  0  0
  -12.8407   -1.4625  -22.5879 C   0  0  0  0  0  0  0  0  0  0  0  0
  -13.5534   -2.8064  -22.9883 C   0  0  0  0  0  0  0  0  0  0  0  0
  -17.7794    1.7940  -23.2534 C   0  0  0  0  0  0  0  0  0  0  0  0
  -14.1423    2.0497  -22.5129 N   0  0  0  0  0  0  0  0  0  0  0  0
  -13.6355    3.0856  -21.6655 C   0  0  0  0  0  0  0  0  0  0  0  0
  -13.8883    4.3827  -22.2674 C   0  0  0  0  0  0  0  0  0  0  0  0
  -17.6377    3.2777  -22.9953 C   0  0  0  0  0  0  0  0  0  0  0  0
  -16.2961    3.4865  -22.7392 C   0  0  0  0  0  0  0  0  0  0  0  0
  -18.6687    4.0129  -22.9336 O   0  0  0  0  0  0  0  0  0  0  0  0
  -15.4843    4.6349  -22.2794 C   0  0  0  0  0  0  0  0  0  0  0  0
  -14.4185   -2.9725  -23.4180 N   0  0  0  0  0  0  0  0  0  0  0  0
  1  2  1  0
  2  3  1  0
  3  4  2  0
  1  5  2  0
  4  5  1  0
  4  6  1  0
  3  7  1  0
  6  8  1  0
  7  9  1  0
  9 10  2  0
  7 11  2  0
 11 12  1  0
  6 13  2  0
  8 14  1  0
  9 14  1  0
 14 15  1  0
 15 16  1  0
 13 17  1  0
  8 18  1  0
 17 18  1  0
 17 19  2  0
 16 20  1  0
 18 20  1  0
  2 21  2  0
 12 21  1  0
M  END
>  <ID>  (1) 
conformer_0

$$$$
