
     RDKit          3D

 34 39  0  0  0  0  0  0  0  0999 V2000
  -18.6863   -0.9583  -24.5260 N   0  0  0  0  0  0  0  0  0  0  0  0
  -17.4171   -0.8830  -24.2086 C   0  0  0  0  0  0  0  0  0  0  0  0
  -19.4944    0.1493  -24.4486 C   0  0  0  0  0  0  0  0  0  0  0  0
  -16.5552   -1.9860  -24.3532 N   0  0  0  0  0  0  0  0  0  0  0  0
  -16.7698    0.2865  -23.7926 C   0  0  0  0  0  0  0  0  0  0  0  0
  -18.9502    1.3675  -24.0646 C   0  0  0  0  0  0  0  0  0  0  0  0
  -15.4162    0.1415  -23.4644 C   0  0  0  0  0  0  0  0  0  0  0  0
  -14.8682   -1.0720  -23.4942 C   0  0  0  0  0  0  0  0  0  0  0  0
  -14.8370    1.4061  -22.8976 N   0  0  0  0  0  0  0  0  0  0  0  0
  -15.4765    2.5226  -22.8040 C   0  0  0  0  0  0  0  0  0  0  0  0
  -14.9907    3.7130  -22.3392 C   0  0  0  0  0  0  0  0  0  0  0  0
  -15.2801    4.8490  -22.5454 C   0  0  0  0  0  0  0  0  0  0  0  0
  -15.3628   -2.0372  -23.8446 C   0  0  0  0  0  0  0  0  0  0  0  0
  -17.0016    2.5872  -23.1304 C   0  0  0  0  0  0  0  0  0  0  0  0
  -20.7445    0.3689  -24.8358 C   0  0  0  0  0  0  0  0  0  0  0  0
  -13.7730    3.5830  -21.4391 C   0  0  0  0  0  0  0  0  0  0  0  0
  -13.1453    4.5808  -20.8662 C   0  0  0  0  0  0  0  0  0  0  0  0
  -19.8382    2.4245  -24.0897 C   0  0  0  0  0  0  0  0  0  0  0  0
  -17.5767    1.4262  -23.6513 C   0  0  0  0  0  0  0  0  0  0  0  0
  -21.5470   -0.9144  -25.2581 C   0  0  0  0  0  0  0  0  0  0  0  0
  -12.0035    4.4479  -19.9699 C   0  0  0  0  0  0  0  0  0  0  0  0
  -13.6072    5.8807  -21.2024 C   0  0  0  0  0  0  0  0  0  0  0  0
  -21.1944    1.6207  -24.6222 C   0  0  0  0  0  0  0  0  0  0  0  0
  -14.6957    6.0204  -21.9655 C   0  0  0  0  0  0  0  0  0  0  0  0
  -10.7223    4.5630  -20.4959 N   0  0  0  0  0  0  0  0  0  0  0  0
  -22.7790   -0.4742  -25.5755 C   0  0  0  0  0  0  0  0  0  0  0  0
   -9.6627    4.7834  -19.7736 C   0  0  0  0  0  0  0  0  0  0  0  0
  -13.3770   -1.0970  -22.9837 C   0  0  0  0  0  0  0  0  0  0  0  0
  -22.2772    2.1280  -25.0009 C   0  0  0  0  0  0  0  0  0  0  0  0
   -8.6716    5.4248  -20.4204 O   0  0  0  0  0  0  0  0  0  0  0  0
   -9.4536    4.0900  -18.7204 O   0  0  0  0  0  0  0  0  0  0  0  0
  -12.9736   -2.1398  -22.3253 O   0  0  0  0  0  0  0  0  0  0  0  0
  -12.4181   -0.3582  -23.4536 O   0  0  0  0  0  0  0  0  0  0  0  0
  -23.2764    0.8126  -25.4441 C   0  0  0  0  0  0  0  0  0  0  0  0
  1  2  1  0
  1  3  1  0
  2  4  1  0
  2  5  2  0
  3  6  1  0
  5  7  1  0
  7  8  2  0
  7  9  1  0
  9 10  2  0
 10 11  1  0
 11 12  2  0
  4 13  2  0
  8 13  1  0
 10 14  1  0
  3 15  2  0
 11 16  1  0
 16 17  2  0
  6 18  2  0
  5 19  1  0
  6 19  1  0
 14 19  2  0
 15 20  1  0
 17 21  1  0
 17 22  1  0
 15 23  1  0
 18 23  1  0
 12 24  1  0
 22 24  2  0
 21 25  1  0
 20 26  1  0
 25 27  1  0
  8 28  1  0
 23 29  2  0
 27 30  2  0
 27 31  1  0
 28 32  1  0
 28 33  2  0
 26 34  2  0
 29 34  1  0
M  END
>  <ID>  (1) 
conformer_0

$$$$
