
     RDKit          3D

 31 36  0  0  0  0  0  0  0  0999 V2000
  -16.3902   -2.1929  -24.1148 N   0  0  0  0  0  0  0  0  0  0  0  0
  -15.2673   -1.9330  -23.6065 C   0  0  0  0  0  0  0  0  0  0  0  0
  -14.8852   -0.6995  -23.2363 C   0  0  0  0  0  0  0  0  0  0  0  0
  -16.0057    0.1379  -23.4930 C   0  0  0  0  0  0  0  0  0  0  0  0
  -17.2460   -1.0856  -24.3027 C   0  0  0  0  0  0  0  0  0  0  0  0
  -16.4430    1.4180  -23.3873 C   0  0  0  0  0  0  0  0  0  0  0  0
  -13.6866   -0.4047  -22.7746 C   0  0  0  0  0  0  0  0  0  0  0  0
  -15.5787    2.3232  -22.9928 C   0  0  0  0  0  0  0  0  0  0  0  0
  -13.1938    0.9068  -22.5102 C   0  0  0  0  0  0  0  0  0  0  0  0
  -12.1286    1.1687  -22.1453 O   0  0  0  0  0  0  0  0  0  0  0  0
  -14.2888    1.9404  -22.3826 N   0  0  0  0  0  0  0  0  0  0  0  0
  -13.8794    3.1350  -21.6498 C   0  0  0  0  0  0  0  0  0  0  0  0
  -15.9955    3.5820  -23.0317 N   0  0  0  0  0  0  0  0  0  0  0  0
  -12.5007    3.3326  -21.1656 C   0  0  0  0  0  0  0  0  0  0  0  0
  -18.3684   -0.6704  -24.6080 C   0  0  0  0  0  0  0  0  0  0  0  0
  -14.5473    4.3625  -21.8635 C   0  0  0  0  0  0  0  0  0  0  0  0
  -17.6241    1.8961  -23.9936 C   0  0  0  0  0  0  0  0  0  0  0  0
  -13.8062    5.5086  -21.0399 C   0  0  0  0  0  0  0  0  0  0  0  0
  -12.2051    4.4633  -20.4017 C   0  0  0  0  0  0  0  0  0  0  0  0
  -18.8833    0.6228  -24.4227 C   0  0  0  0  0  0  0  0  0  0  0  0
  -12.9576    5.5465  -20.5170 C   0  0  0  0  0  0  0  0  0  0  0  0
  -12.4490    6.7438  -19.8019 O   0  0  0  0  0  0  0  0  0  0  0  0
  -15.5850    4.5898  -22.4791 C   0  0  0  0  0  0  0  0  0  0  0  0
  -10.9852    4.3518  -19.9047 O   0  0  0  0  0  0  0  0  0  0  0  0
  -12.8148   -1.3203  -22.5274 C   0  0  0  0  0  0  0  0  0  0  0  0
  -11.1708    6.8108  -19.4523 C   0  0  0  0  0  0  0  0  0  0  0  0
   -9.9146    3.5719  -20.2486 C   0  0  0  0  0  0  0  0  0  0  0  0
  -13.4288   -2.7606  -22.9059 C   0  0  0  0  0  0  0  0  0  0  0  0
   -9.5762    2.6685  -19.4446 O   0  0  0  0  0  0  0  0  0  0  0  0
  -14.4127   -2.9806  -23.3179 N   0  0  0  0  0  0  0  0  0  0  0  0
   -8.9167    4.3396  -20.9892 C   0  0  0  0  0  0  0  0  0  0  0  0
  1  2  1  0
  2  3  1  0
  3  4  2  0
  1  5  2  0
  4  5  1  0
  4  6  1  0
  3  7  1  0
  6  8  1  0
  7  9  1  0
  9 10  2  0
  8 11  1  0
  9 11  1  0
 11 12  1  0
  8 13  2  0
 12 14  1  0
  5 15  1  0
 12 16  2  0
  6 17  2  0
 16 18  1  0
 14 19  2  0
 15 20  2  0
 17 20  1  0
 18 21  2  0
 19 21  1  0
 21 22  1  0
 13 23  1  0
 16 23  1  0
 19 24  1  0
  7 25  2  0
 22 26  1  0
 24 27  1  0
 25 28  1  0
 27 29  2  0
  2 30  1  0
 28 30  1  0
 27 31  1  0
M  END
>  <ID>  (1) 
conformer_0

$$$$
