
     RDKit          3D

 17 19  0  0  0  0  0  0  0  0999 V2000
  -18.6863   -0.9583  -24.5260 N   0  0  0  0  0  0  0  0  0  0  0  0
  -17.4171   -0.8830  -24.2086 C   0  0  0  0  0  0  0  0  0  0  0  0
  -19.4944    0.1493  -24.4486 C   0  0  0  0  0  0  0  0  0  0  0  0
  -16.5552   -1.9860  -24.3532 N   0  0  0  0  0  0  0  0  0  0  0  0
  -16.7698    0.2865  -23.7926 C   0  0  0  0  0  0  0  0  0  0  0  0
  -18.9502    1.3675  -24.0646 C   0  0  0  0  0  0  0  0  0  0  0  0
  -15.4162    0.1415  -23.4644 C   0  0  0  0  0  0  0  0  0  0  0  0
  -20.7427    0.2751  -24.5849 C   0  0  0  0  0  0  0  0  0  0  0  0
  -14.8409   -1.0316  -23.4412 C   0  0  0  0  0  0  0  0  0  0  0  0
  -21.5232    1.3404  -24.5651 C   0  0  0  0  0  0  0  0  0  0  0  0
  -13.4515   -1.1259  -22.8462 C   0  0  0  0  0  0  0  0  0  0  0  0
  -19.7313    2.5053  -23.9821 C   0  0  0  0  0  0  0  0  0  0  0  0
  -15.4459   -2.1342  -23.7923 C   0  0  0  0  0  0  0  0  0  0  0  0
  -17.5140    1.5621  -23.7769 C   0  0  0  0  0  0  0  0  0  0  0  0
  -21.0301    2.4943  -24.1170 C   0  0  0  0  0  0  0  0  0  0  0  0
  -12.9902   -2.0326  -22.5783 O   0  0  0  0  0  0  0  0  0  0  0  0
  -12.7582    0.1005  -22.7074 N   0  0  0  0  0  0  0  0  0  0  0  0
  1  2  1  0
  1  3  1  0
  2  4  1  0
  2  5  2  0
  3  6  1  0
  5  7  1  0
  3  8  2  0
  7  9  2  0
  8 10  1  0
  9 11  1  0
  6 12  2  0
  4 13  2  0
  9 13  1  0
  5 14  1  0
  6 14  1  0
 10 15  2  0
 12 15  1  0
 11 16  2  0
 11 17  1  0
M  END
>  <ID>  (1) 
conformer_0

$$$$
