
     RDKit          3D

 36 43  0  0  0  0  0  0  0  0999 V2000
  -18.6863   -0.9583  -24.5260 N   0  0  0  0  0  0  0  0  0  0  0  0
  -17.4171   -0.8830  -24.2086 C   0  0  0  0  0  0  0  0  0  0  0  0
  -19.4944    0.1493  -24.4486 C   0  0  0  0  0  0  0  0  0  0  0  0
  -16.5552   -1.9860  -24.3532 N   0  0  0  0  0  0  0  0  0  0  0  0
  -16.7698    0.2865  -23.7926 C   0  0  0  0  0  0  0  0  0  0  0  0
  -18.9502    1.3675  -24.0646 C   0  0  0  0  0  0  0  0  0  0  0  0
  -15.4162    0.1415  -23.4644 C   0  0  0  0  0  0  0  0  0  0  0  0
  -14.8682   -1.0720  -23.4942 C   0  0  0  0  0  0  0  0  0  0  0  0
  -14.8370    1.4061  -22.8976 N   0  0  0  0  0  0  0  0  0  0  0  0
  -15.4765    2.5226  -22.8040 C   0  0  0  0  0  0  0  0  0  0  0  0
  -14.9907    3.7130  -22.3392 C   0  0  0  0  0  0  0  0  0  0  0  0
  -15.2801    4.8490  -22.5454 C   0  0  0  0  0  0  0  0  0  0  0  0
  -15.3628   -2.0372  -23.8446 C   0  0  0  0  0  0  0  0  0  0  0  0
  -17.0016    2.5872  -23.1304 C   0  0  0  0  0  0  0  0  0  0  0  0
  -20.7445    0.3689  -24.8358 C   0  0  0  0  0  0  0  0  0  0  0  0
  -13.7730    3.5830  -21.4391 C   0  0  0  0  0  0  0  0  0  0  0  0
  -13.1453    4.5808  -20.8662 C   0  0  0  0  0  0  0  0  0  0  0  0
  -17.6080    3.8035  -23.0255 C   0  0  0  0  0  0  0  0  0  0  0  0
  -19.7899    2.4602  -24.0595 C   0  0  0  0  0  0  0  0  0  0  0  0
  -17.5905    1.3312  -23.7964 C   0  0  0  0  0  0  0  0  0  0  0  0
  -21.7453   -0.6585  -25.1902 C   0  0  0  0  0  0  0  0  0  0  0  0
  -14.5570   -3.2842  -23.8492 C   0  0  0  0  0  0  0  0  0  0  0  0
  -13.6169    5.8588  -21.2101 C   0  0  0  0  0  0  0  0  0  0  0  0
  -11.9506    4.3123  -19.9731 C   0  0  0  0  0  0  0  0  0  0  0  0
  -14.7084    5.9532  -21.9181 C   0  0  0  0  0  0  0  0  0  0  0  0
  -21.0539    1.7161  -24.5164 C   0  0  0  0  0  0  0  0  0  0  0  0
  -22.9802   -0.1971  -25.4444 C   0  0  0  0  0  0  0  0  0  0  0  0
  -16.8970    5.0341  -22.7037 C   0  0  0  0  0  0  0  0  0  0  0  0
  -22.3801    2.1334  -24.8052 C   0  0  0  0  0  0  0  0  0  0  0  0
  -13.3826   -1.2682  -23.0068 C   0  0  0  0  0  0  0  0  0  0  0  0
  -13.2790   -2.9764  -23.2832 C   0  0  0  0  0  0  0  0  0  0  0  0
  -10.6977    4.5614  -20.5201 N   0  0  0  0  0  0  0  0  0  0  0  0
   -9.6831    4.5767  -19.7823 C   0  0  0  0  0  0  0  0  0  0  0  0
  -23.2681    1.2920  -25.1986 C   0  0  0  0  0  0  0  0  0  0  0  0
   -8.6336    5.2961  -20.1898 O   0  0  0  0  0  0  0  0  0  0  0  0
   -9.6032    3.8680  -18.6973 O   0  0  0  0  0  0  0  0  0  0  0  0
  1  2  1  0
  1  3  1  0
  2  4  1  0
  2  5  2  0
  3  6  1  0
  5  7  1  0
  7  8  2  0
  7  9  1  0
  9 10  2  0
 10 11  1  0
 11 12  2  0
  4 13  2  0
  8 13  1  0
 10 14  1  0
  3 15  2  0
 11 16  1  0
 16 17  2  0
 14 18  2  0
  6 19  1  0
  5 20  1  0
  6 20  2  0
 14 20  1  0
 15 21  1  0
 13 22  1  0
 17 23  1  0
 17 24  1  0
 12 25  1  0
 23 25  2  0
 15 26  1  0
 19 26  2  0
 21 27  2  0
 12 28  1  0
 18 28  1  0
 26 29  1  0
  8 30  1  0
 22 31  2  0
 30 31  1  0
 24 32  1  0
 32 33  1  0
 27 34  1  0
 29 34  2  0
 33 35  2  0
 33 36  1  0
M  END
>  <ID>  (1) 
conformer_0

$$$$
