
     RDKit          3D

 34 40  0  0  0  0  0  0  0  0999 V2000
  -16.3902   -2.1929  -24.1148 N   0  0  0  0  0  0  0  0  0  0  0  0
  -15.2673   -1.9330  -23.6065 C   0  0  0  0  0  0  0  0  0  0  0  0
  -14.8852   -0.6995  -23.2363 C   0  0  0  0  0  0  0  0  0  0  0  0
  -16.0057    0.1379  -23.4930 C   0  0  0  0  0  0  0  0  0  0  0  0
  -17.2460   -1.0856  -24.3027 C   0  0  0  0  0  0  0  0  0  0  0  0
  -16.4430    1.4180  -23.3873 C   0  0  0  0  0  0  0  0  0  0  0  0
  -13.6866   -0.4047  -22.7746 C   0  0  0  0  0  0  0  0  0  0  0  0
  -15.5787    2.3232  -22.9928 C   0  0  0  0  0  0  0  0  0  0  0  0
  -13.1938    0.9068  -22.5102 C   0  0  0  0  0  0  0  0  0  0  0  0
  -12.1286    1.1687  -22.1453 O   0  0  0  0  0  0  0  0  0  0  0  0
  -14.2888    1.9404  -22.3826 N   0  0  0  0  0  0  0  0  0  0  0  0
  -13.8794    3.1350  -21.6498 C   0  0  0  0  0  0  0  0  0  0  0  0
  -15.9955    3.5820  -23.0317 N   0  0  0  0  0  0  0  0  0  0  0  0
  -12.5007    3.3326  -21.1656 C   0  0  0  0  0  0  0  0  0  0  0  0
  -18.3684   -0.6704  -24.6080 C   0  0  0  0  0  0  0  0  0  0  0  0
  -14.5473    4.3625  -21.8635 C   0  0  0  0  0  0  0  0  0  0  0  0
  -17.6241    1.8961  -23.9936 C   0  0  0  0  0  0  0  0  0  0  0  0
  -13.8062    5.5086  -21.0399 C   0  0  0  0  0  0  0  0  0  0  0  0
  -12.2051    4.4633  -20.4017 C   0  0  0  0  0  0  0  0  0  0  0  0
  -15.6094    4.5953  -22.4489 C   0  0  0  0  0  0  0  0  0  0  0  0
  -10.8527    4.3231  -19.7284 N   0  0  0  0  0  0  0  0  0  0  0  0
  -14.7508    6.7643  -21.0779 C   0  0  0  0  0  0  0  0  0  0  0  0
  -14.3719   -2.9903  -23.3550 N   0  0  0  0  0  0  0  0  0  0  0  0
  -12.7768   -1.4169  -22.6260 C   0  0  0  0  0  0  0  0  0  0  0  0
  -12.8664    5.5221  -20.3979 C   0  0  0  0  0  0  0  0  0  0  0  0
  -11.5041   -1.0829  -22.0591 O   0  0  0  0  0  0  0  0  0  0  0  0
  -12.3552    6.6388  -19.6403 O   0  0  0  0  0  0  0  0  0  0  0  0
  -18.6406    0.8249  -24.5544 C   0  0  0  0  0  0  0  0  0  0  0  0
   -9.8854    5.1793  -19.9985 C   0  0  0  0  0  0  0  0  0  0  0  0
  -16.2341    5.7971  -22.4894 C   0  0  0  0  0  0  0  0  0  0  0  0
  -13.1062   -2.7471  -22.8451 C   0  0  0  0  0  0  0  0  0  0  0  0
   -9.8166    5.9114  -20.9829 O   0  0  0  0  0  0  0  0  0  0  0  0
  -15.8710    6.8376  -21.7419 C   0  0  0  0  0  0  0  0  0  0  0  0
   -8.9507    5.2819  -18.8930 C   0  0  0  0  0  0  0  0  0  0  0  0
  1  2  1  0
  2  3  1  0
  3  4  2  0
  1  5  2  0
  4  5  1  0
  4  6  1  0
  3  7  1  0
  6  8  1  0
  7  9  1  0
  9 10  2  0
  8 11  1  0
  9 11  1  0
 11 12  1  0
  8 13  2  0
 12 14  1  0
  5 15  1  0
 12 16  2  0
  6 17  2  0
 16 18  1  0
 14 19  2  0
 13 20  1  0
 16 20  1  0
 19 21  1  0
 18 22  1  0
  2 23  2  0
  7 24  2  0
 18 25  2  0
 19 25  1  0
 24 26  1  0
 25 27  1  0
 15 28  2  0
 17 28  1  0
 21 29  1  0
 20 30  2  0
 23 31  1  0
 24 31  1  0
 29 32  2  0
 22 33  2  0
 30 33  1  0
 29 34  1  0
M  END
>  <ID>  (1) 
conformer_0

$$$$
