
     RDKit          3D

 34 38  0  0  0  0  0  0  0  0999 V2000
  -17.0878   -2.0011  -24.4284 N   0  0  0  0  0  0  0  0  0  0  0  0
  -15.9280   -1.9244  -23.9964 C   0  0  0  0  0  0  0  0  0  0  0  0
  -15.4425   -0.6949  -23.5124 C   0  0  0  0  0  0  0  0  0  0  0  0
  -16.6293    0.1708  -23.7188 C   0  0  0  0  0  0  0  0  0  0  0  0
  -17.5813   -0.6643  -24.2969 N   0  0  0  0  0  0  0  0  0  0  0  0
  -16.5824    1.5061  -23.3858 C   0  0  0  0  0  0  0  0  0  0  0  0
  -17.7216    2.2354  -23.6620 C   0  0  0  0  0  0  0  0  0  0  0  0
  -18.9152    1.6246  -23.9735 O   0  0  0  0  0  0  0  0  0  0  0  0
  -14.3523   -0.0484  -22.8921 C   0  0  0  0  0  0  0  0  0  0  0  0
  -17.6646    3.4846  -23.5428 O   0  0  0  0  0  0  0  0  0  0  0  0
  -14.3218    1.2429  -22.5766 C   0  0  0  0  0  0  0  0  0  0  0  0
  -13.2031    1.9336  -22.0434 C   0  0  0  0  0  0  0  0  0  0  0  0
  -13.3483    3.2010  -21.6460 C   0  0  0  0  0  0  0  0  0  0  0  0
  -14.4299    3.8787  -21.8862 C   0  0  0  0  0  0  0  0  0  0  0  0
  -12.1275    3.9449  -20.9509 C   0  0  0  0  0  0  0  0  0  0  0  0
  -15.3903    2.0486  -22.8241 C   0  0  0  0  0  0  0  0  0  0  0  0
  -15.4831    3.5269  -22.4047 C   0  0  0  0  0  0  0  0  0  0  0  0
  -11.4693    4.7670  -21.3514 N   0  0  0  0  0  0  0  0  0  0  0  0
  -11.9697    3.3932  -19.7389 O   0  0  0  0  0  0  0  0  0  0  0  0
  -10.3372    5.3585  -20.6824 C   0  0  0  0  0  0  0  0  0  0  0  0
  -10.5662    6.4219  -19.8741 C   0  0  0  0  0  0  0  0  0  0  0  0
  -20.0100    2.4194  -24.1735 C   0  0  0  0  0  0  0  0  0  0  0  0
  -11.9864    6.7437  -19.5607 C   0  0  0  0  0  0  0  0  0  0  0  0
  -21.2469    1.5681  -24.1832 C   0  0  0  0  0  0  0  0  0  0  0  0
  -22.1976    1.6654  -25.1219 C   0  0  0  0  0  0  0  0  0  0  0  0
  -21.1975    0.4513  -23.3664 C   0  0  0  0  0  0  0  0  0  0  0  0
   -9.5452    6.7040  -19.0905 C   0  0  0  0  0  0  0  0  0  0  0  0
  -13.1598   -0.9408  -22.5941 C   0  0  0  0  0  0  0  0  0  0  0  0
  -23.3628    0.9603  -25.0646 C   0  0  0  0  0  0  0  0  0  0  0  0
   -9.3079    5.1307  -21.2585 C   0  0  0  0  0  0  0  0  0  0  0  0
  -22.5003   -0.4180  -23.5801 C   0  0  0  0  0  0  0  0  0  0  0  0
  -23.3588   -0.0921  -24.4678 C   0  0  0  0  0  0  0  0  0  0  0  0
   -8.0977    5.6723  -20.5492 C   0  0  0  0  0  0  0  0  0  0  0  0
   -8.3730    6.4247  -19.5040 C   0  0  0  0  0  0  0  0  0  0  0  0
  1  2  2  0
  2  3  1  0
  3  4  2  0
  1  5  1  0
  4  5  1  0
  4  6  1  0
  6  7  1  0
  7  8  1  0
  3  9  1  0
  7 10  2  0
  9 11  2  0
 11 12  1  0
 12 13  2  0
 13 14  1  0
 13 15  1  0
  6 16  2  0
 11 16  1  0
 14 17  2  0
 16 17  1  0
 15 18  1  0
 15 19  2  0
 18 20  1  0
 20 21  1  0
  8 22  1  0
 21 23  1  0
 22 24  1  0
 24 25  1  0
 24 26  2  0
 21 27  2  0
  9 28  1  0
 25 29  2  0
 20 30  2  0
 26 31  1  0
 29 32  1  0
 31 32  2  0
 30 33  1  0
 27 34  1  0
 33 34  2  0
M  END
>  <ID>  (1) 
conformer_0

$$$$
