
     RDKit          3D

 17 19  0  0  0  0  0  0  0  0999 V2000
  -18.6863   -0.9583  -24.5260 N   0  0  0  0  0  0  0  0  0  0  0  0
  -17.4171   -0.8830  -24.2086 C   0  0  0  0  0  0  0  0  0  0  0  0
  -19.4944    0.1493  -24.4486 C   0  0  0  0  0  0  0  0  0  0  0  0
  -16.5552   -1.9860  -24.3532 N   0  0  0  0  0  0  0  0  0  0  0  0
  -16.7698    0.2865  -23.7926 C   0  0  0  0  0  0  0  0  0  0  0  0
  -18.9502    1.3675  -24.0646 C   0  0  0  0  0  0  0  0  0  0  0  0
  -15.3640   -2.0891  -23.8561 C   0  0  0  0  0  0  0  0  0  0  0  0
  -19.8405    2.4398  -23.9430 C   0  0  0  0  0  0  0  0  0  0  0  0
  -17.5647    1.4021  -23.6699 C   0  0  0  0  0  0  0  0  0  0  0  0
  -15.3579    0.1186  -23.3314 C   0  0  0  0  0  0  0  0  0  0  0  0
  -20.7176    0.0242  -24.8269 N   0  0  0  0  0  0  0  0  0  0  0  0
  -14.7480   -0.9721  -23.3491 C   0  0  0  0  0  0  0  0  0  0  0  0
  -21.5643    1.0682  -24.7682 C   0  0  0  0  0  0  0  0  0  0  0  0
  -13.3045   -1.0304  -22.7975 C   0  0  0  0  0  0  0  0  0  0  0  0
  -21.1207    2.2623  -24.2850 C   0  0  0  0  0  0  0  0  0  0  0  0
  -12.9244   -1.9974  -22.5066 O   0  0  0  0  0  0  0  0  0  0  0  0
  -12.6519    0.1751  -22.6616 N   0  0  0  0  0  0  0  0  0  0  0  0
  1  2  1  0
  1  3  1  0
  2  4  1  0
  2  5  2  0
  3  6  1  0
  4  7  2  0
  6  8  1  0
  5  9  1  0
  6  9  2  0
  5 10  1  0
  3 11  2  0
  7 12  1  0
 10 12  2  0
 11 13  1  0
 12 14  1  0
  8 15  1  0
 13 15  2  0
 14 16  2  0
 14 17  1  0
M  END
>  <ID>  (1) 
conformer_0

$$$$
