
     RDKit          3D

 40 46  0  0  0  0  0  0  0  0999 V2000
  -18.6863   -0.9583  -24.5260 N   0  0  0  0  0  0  0  0  0  0  0  0
  -17.4171   -0.8830  -24.2086 C   0  0  0  0  0  0  0  0  0  0  0  0
  -19.4944    0.1493  -24.4486 C   0  0  0  0  0  0  0  0  0  0  0  0
  -16.5552   -1.9860  -24.3532 N   0  0  0  0  0  0  0  0  0  0  0  0
  -16.7698    0.2865  -23.7926 C   0  0  0  0  0  0  0  0  0  0  0  0
  -18.9502    1.3675  -24.0646 C   0  0  0  0  0  0  0  0  0  0  0  0
  -15.4162    0.1415  -23.4644 C   0  0  0  0  0  0  0  0  0  0  0  0
  -14.8682   -1.0720  -23.4942 C   0  0  0  0  0  0  0  0  0  0  0  0
  -14.8370    1.4061  -22.8976 N   0  0  0  0  0  0  0  0  0  0  0  0
  -15.4765    2.5226  -22.8040 C   0  0  0  0  0  0  0  0  0  0  0  0
  -14.9907    3.7130  -22.3392 C   0  0  0  0  0  0  0  0  0  0  0  0
  -15.2801    4.8490  -22.5454 C   0  0  0  0  0  0  0  0  0  0  0  0
  -15.3628   -2.0372  -23.8446 C   0  0  0  0  0  0  0  0  0  0  0  0
  -17.0016    2.5872  -23.1304 C   0  0  0  0  0  0  0  0  0  0  0  0
  -20.7445    0.3689  -24.8358 C   0  0  0  0  0  0  0  0  0  0  0  0
  -13.7730    3.5830  -21.4391 C   0  0  0  0  0  0  0  0  0  0  0  0
  -13.1453    4.5808  -20.8662 C   0  0  0  0  0  0  0  0  0  0  0  0
  -19.8382    2.4245  -24.0897 C   0  0  0  0  0  0  0  0  0  0  0  0
  -13.7653    5.8938  -21.3241 C   0  0  0  0  0  0  0  0  0  0  0  0
  -17.7074    3.6904  -23.0027 C   0  0  0  0  0  0  0  0  0  0  0  0
  -21.0470    2.4760  -24.4027 C   0  0  0  0  0  0  0  0  0  0  0  0
  -13.0853    7.0177  -20.6297 N   0  0  0  0  0  0  0  0  0  0  0  0
  -17.5778    1.3765  -23.6749 C   0  0  0  0  0  0  0  0  0  0  0  0
  -14.6913   -3.2275  -23.8978 N   0  0  0  0  0  0  0  0  0  0  0  0
  -12.0459    4.4250  -20.0556 C   0  0  0  0  0  0  0  0  0  0  0  0
  -11.2377    5.6504  -19.9009 N   0  0  0  0  0  0  0  0  0  0  0  0
  -21.9395    3.6143  -24.3879 C   0  0  0  0  0  0  0  0  0  0  0  0
  -21.6015    1.2369  -24.7979 C   0  0  0  0  0  0  0  0  0  0  0  0
  -14.7799    6.0457  -22.0182 C   0  0  0  0  0  0  0  0  0  0  0  0
  -12.0428    6.7418  -19.7672 C   0  0  0  0  0  0  0  0  0  0  0  0
  -22.0040    4.2836  -23.3105 O   0  0  0  0  0  0  0  0  0  0  0  0
  -22.9147    3.6543  -25.2547 O   0  0  0  0  0  0  0  0  0  0  0  0
  -13.4082   -0.9726  -22.8799 C   0  0  0  0  0  0  0  0  0  0  0  0
   -9.8656    5.5005  -19.4419 C   0  0  0  0  0  0  0  0  0  0  0  0
  -12.6946   -0.1782  -23.1483 O   0  0  0  0  0  0  0  0  0  0  0  0
  -19.0546    3.6331  -23.3378 C   0  0  0  0  0  0  0  0  0  0  0  0
   -9.4420    4.4488  -19.1876 O   0  0  0  0  0  0  0  0  0  0  0  0
   -9.1607    6.7038  -19.5565 C   0  0  0  0  0  0  0  0  0  0  0  0
  -13.2054   -1.8999  -21.8612 O   0  0  0  0  0  0  0  0  0  0  0  0
  -11.7134    7.6634  -18.9581 O   0  0  0  0  0  0  0  0  0  0  0  0
  1  2  1  0
  1  3  1  0
  2  4  1  0
  2  5  2  0
  3  6  1  0
  5  7  1  0
  7  8  2  0
  7  9  1  0
  9 10  2  0
 10 11  1  0
 11 12  2  0
  4 13  2  0
  8 13  1  0
 10 14  1  0
  3 15  2  0
 11 16  1  0
 16 17  2  0
  6 18  2  0
 17 19  1  0
 14 20  1  0
 18 21  1  0
 19 22  1  0
  5 23  1  0
  6 23  1  0
 14 23  2  0
 13 24  1  0
 17 25  1  0
 25 26  1  0
 21 27  1  0
 15 28  1  0
 21 28  2  0
 12 29  1  0
 19 29  2  0
 22 30  1  0
 26 30  1  0
 27 31  2  0
 27 32  1  0
  8 33  1  0
 26 34  1  0
 33 35  2  0
 18 36  1  0
 20 36  2  0
 34 37  2  0
 34 38  1  0
 33 39  1  0
 30 40  2  0
M  END
>  <ID>  (1) 
conformer_0

$$$$
