
     RDKit          3D

 33 38  0  0  0  0  0  0  0  0999 V2000
  -18.6863   -0.9583  -24.5260 N   0  0  0  0  0  0  0  0  0  0  0  0
  -17.4171   -0.8830  -24.2086 C   0  0  0  0  0  0  0  0  0  0  0  0
  -19.4944    0.1493  -24.4486 C   0  0  0  0  0  0  0  0  0  0  0  0
  -16.5552   -1.9860  -24.3532 N   0  0  0  0  0  0  0  0  0  0  0  0
  -16.7698    0.2865  -23.7926 C   0  0  0  0  0  0  0  0  0  0  0  0
  -18.9502    1.3675  -24.0646 C   0  0  0  0  0  0  0  0  0  0  0  0
  -15.4162    0.1415  -23.4644 C   0  0  0  0  0  0  0  0  0  0  0  0
  -14.8682   -1.0720  -23.4942 C   0  0  0  0  0  0  0  0  0  0  0  0
  -14.8370    1.4061  -22.8976 N   0  0  0  0  0  0  0  0  0  0  0  0
  -15.4765    2.5226  -22.8040 C   0  0  0  0  0  0  0  0  0  0  0  0
  -14.9907    3.7130  -22.3392 C   0  0  0  0  0  0  0  0  0  0  0  0
  -15.2801    4.8490  -22.5454 C   0  0  0  0  0  0  0  0  0  0  0  0
  -15.3628   -2.0372  -23.8446 C   0  0  0  0  0  0  0  0  0  0  0  0
  -17.0016    2.5872  -23.1304 C   0  0  0  0  0  0  0  0  0  0  0  0
  -20.7445    0.3689  -24.8358 C   0  0  0  0  0  0  0  0  0  0  0  0
  -13.7730    3.5830  -21.4391 C   0  0  0  0  0  0  0  0  0  0  0  0
  -13.1453    4.5808  -20.8662 C   0  0  0  0  0  0  0  0  0  0  0  0
  -19.8382    2.4245  -24.0897 C   0  0  0  0  0  0  0  0  0  0  0  0
  -13.7653    5.8938  -21.3241 C   0  0  0  0  0  0  0  0  0  0  0  0
  -14.7834    6.0084  -21.9256 C   0  0  0  0  0  0  0  0  0  0  0  0
  -12.0923    4.4753  -20.0171 C   0  0  0  0  0  0  0  0  0  0  0  0
  -13.3758   -1.0858  -22.9770 C   0  0  0  0  0  0  0  0  0  0  0  0
  -17.4935    1.4293  -23.6486 C   0  0  0  0  0  0  0  0  0  0  0  0
  -10.7811    4.4415  -20.5550 C   0  0  0  0  0  0  0  0  0  0  0  0
   -9.7316    4.5493  -19.8027 C   0  0  0  0  0  0  0  0  0  0  0  0
  -12.9172   -2.1712  -22.4188 C   0  0  0  0  0  0  0  0  0  0  0  0
   -9.4125    3.6528  -19.2292 O   0  0  0  0  0  0  0  0  0  0  0  0
  -12.4786   -0.3126  -23.2625 C   0  0  0  0  0  0  0  0  0  0  0  0
  -21.0678    2.4463  -24.4173 C   0  0  0  0  0  0  0  0  0  0  0  0
   -8.8621    5.5033  -20.1174 O   0  0  0  0  0  0  0  0  0  0  0  0
  -21.6038    1.2543  -24.8154 C   0  0  0  0  0  0  0  0  0  0  0  0
  -11.2809   -0.8259  -22.6427 N   0  0  0  0  0  0  0  0  0  0  0  0
  -11.6167   -1.9507  -22.1274 N   0  0  0  0  0  0  0  0  0  0  0  0
  1  2  1  0
  1  3  1  0
  2  4  1  0
  2  5  2  0
  3  6  1  0
  5  7  1  0
  7  8  2  0
  7  9  1  0
  9 10  2  0
 10 11  1  0
 11 12  2  0
  4 13  2  0
  8 13  1  0
 10 14  1  0
  3 15  2  0
 11 16  1  0
 16 17  2  0
  6 18  2  0
 17 19  1  0
 12 20  1  0
 19 20  2  0
 17 21  1  0
  8 22  1  0
  5 23  1  0
  6 23  1  0
 14 23  2  0
 21 24  1  0
 24 25  1  0
 22 26  1  0
 25 27  1  0
 22 28  2  0
 18 29  1  0
 25 30  2  0
 15 31  1  0
 29 31  2  0
 28 32  1  0
 26 33  1  0
 32 33  2  0
M  END
>  <ID>  (1) 
conformer_0

$$$$
