
     RDKit          3D

 37 43  0  0  0  0  0  0  0  0999 V2000
  -18.6863   -0.9583  -24.5260 N   0  0  0  0  0  0  0  0  0  0  0  0
  -17.4171   -0.8830  -24.2086 C   0  0  0  0  0  0  0  0  0  0  0  0
  -19.4944    0.1493  -24.4486 C   0  0  0  0  0  0  0  0  0  0  0  0
  -16.5552   -1.9860  -24.3532 N   0  0  0  0  0  0  0  0  0  0  0  0
  -16.7698    0.2865  -23.7926 C   0  0  0  0  0  0  0  0  0  0  0  0
  -18.9502    1.3675  -24.0646 C   0  0  0  0  0  0  0  0  0  0  0  0
  -15.4162    0.1415  -23.4644 C   0  0  0  0  0  0  0  0  0  0  0  0
  -14.8682   -1.0720  -23.4942 C   0  0  0  0  0  0  0  0  0  0  0  0
  -14.8370    1.4061  -22.8976 N   0  0  0  0  0  0  0  0  0  0  0  0
  -15.4765    2.5226  -22.8040 C   0  0  0  0  0  0  0  0  0  0  0  0
  -14.9907    3.7130  -22.3392 C   0  0  0  0  0  0  0  0  0  0  0  0
  -15.2801    4.8490  -22.5454 C   0  0  0  0  0  0  0  0  0  0  0  0
  -15.3628   -2.0372  -23.8446 C   0  0  0  0  0  0  0  0  0  0  0  0
  -17.0016    2.5872  -23.1304 C   0  0  0  0  0  0  0  0  0  0  0  0
  -20.7445    0.3689  -24.8358 C   0  0  0  0  0  0  0  0  0  0  0  0
  -13.7730    3.5830  -21.4391 C   0  0  0  0  0  0  0  0  0  0  0  0
  -13.1453    4.5808  -20.8662 C   0  0  0  0  0  0  0  0  0  0  0  0
  -19.8382    2.4245  -24.0897 C   0  0  0  0  0  0  0  0  0  0  0  0
  -17.5767    1.4262  -23.6513 C   0  0  0  0  0  0  0  0  0  0  0  0
  -21.5470   -0.9144  -25.2581 C   0  0  0  0  0  0  0  0  0  0  0  0
  -12.0035    4.4479  -19.9699 C   0  0  0  0  0  0  0  0  0  0  0  0
  -13.5715    5.8651  -21.1910 C   0  0  0  0  0  0  0  0  0  0  0  0
  -10.7497    4.9447  -20.3472 N   0  0  0  0  0  0  0  0  0  0  0  0
  -13.2685   -1.1300  -22.9668 C   0  0  0  0  0  0  0  0  0  0  0  0
  -21.1733    2.1193  -24.4719 S   0  0  0  0  0  0  0  0  0  0  0  0
  -12.9848    6.9611  -20.5442 O   0  0  0  0  0  0  0  0  0  0  0  0
  -10.2245    4.7692  -21.3569 C   0  0  0  0  0  0  0  0  0  0  0  0
  -12.9148   -2.2378  -22.4349 C   0  0  0  0  0  0  0  0  0  0  0  0
  -12.4590   -0.0719  -23.1453 C   0  0  0  0  0  0  0  0  0  0  0  0
  -14.7013    6.0701  -21.9826 C   0  0  0  0  0  0  0  0  0  0  0  0
  -10.2064    5.7098  -19.2740 C   0  0  0  0  0  0  0  0  0  0  0  0
   -8.9917    5.4353  -21.5193 C   0  0  0  0  0  0  0  0  0  0  0  0
  -11.2555   -0.7254  -22.5495 N   0  0  0  0  0  0  0  0  0  0  0  0
  -11.5657   -1.9275  -22.1530 N   0  0  0  0  0  0  0  0  0  0  0  0
   -8.4816    6.2130  -20.5833 C   0  0  0  0  0  0  0  0  0  0  0  0
   -8.3632    5.3056  -22.6157 O   0  0  0  0  0  0  0  0  0  0  0  0
   -8.8936    5.8246  -19.1922 C   0  0  0  0  0  0  0  0  0  0  0  0
  1  2  1  0
  1  3  1  0
  2  4  1  0
  2  5  2  0
  3  6  1  0
  5  7  1  0
  7  8  2  0
  7  9  1  0
  9 10  2  0
 10 11  1  0
 11 12  2  0
  4 13  2  0
  8 13  1  0
 10 14  1  0
  3 15  2  0
 11 16  1  0
 16 17  2  0
  6 18  2  0
  5 19  1  0
  6 19  1  0
 14 19  2  0
 15 20  1  0
 17 21  1  0
 17 22  1  0
 21 23  1  0
  8 24  1  0
 15 25  1  0
 18 25  1  0
 22 26  1  0
 23 27  1  0
 24 28  1  0
 24 29  2  0
 12 30  1  0
 22 30  2  0
 23 31  1  0
 27 32  1  0
 29 33  1  0
 28 34  1  0
 33 34  2  0
 32 35  1  0
 32 36  2  0
 31 37  1  0
 35 37  1  0
M  END
>  <ID>  (1) 
conformer_0

$$$$
