
     RDKit          3D

 35 41  0  0  0  0  0  0  0  0999 V2000
  -18.6863   -0.9583  -24.5260 N   0  0  0  0  0  0  0  0  0  0  0  0
  -17.4171   -0.8830  -24.2086 C   0  0  0  0  0  0  0  0  0  0  0  0
  -19.4944    0.1493  -24.4486 C   0  0  0  0  0  0  0  0  0  0  0  0
  -16.5552   -1.9860  -24.3532 N   0  0  0  0  0  0  0  0  0  0  0  0
  -16.7698    0.2865  -23.7926 C   0  0  0  0  0  0  0  0  0  0  0  0
  -18.9502    1.3675  -24.0646 C   0  0  0  0  0  0  0  0  0  0  0  0
  -15.4162    0.1415  -23.4644 C   0  0  0  0  0  0  0  0  0  0  0  0
  -14.8682   -1.0720  -23.4942 C   0  0  0  0  0  0  0  0  0  0  0  0
  -14.8370    1.4061  -22.8976 N   0  0  0  0  0  0  0  0  0  0  0  0
  -15.4765    2.5226  -22.8040 C   0  0  0  0  0  0  0  0  0  0  0  0
  -14.9907    3.7130  -22.3392 C   0  0  0  0  0  0  0  0  0  0  0  0
  -15.2801    4.8490  -22.5454 C   0  0  0  0  0  0  0  0  0  0  0  0
  -15.3628   -2.0372  -23.8446 C   0  0  0  0  0  0  0  0  0  0  0  0
  -17.0016    2.5872  -23.1304 C   0  0  0  0  0  0  0  0  0  0  0  0
  -20.7445    0.3689  -24.8358 C   0  0  0  0  0  0  0  0  0  0  0  0
  -13.7730    3.5830  -21.4391 C   0  0  0  0  0  0  0  0  0  0  0  0
  -13.1453    4.5808  -20.8662 C   0  0  0  0  0  0  0  0  0  0  0  0
  -19.8382    2.4245  -24.0897 C   0  0  0  0  0  0  0  0  0  0  0  0
  -13.7653    5.8938  -21.3241 C   0  0  0  0  0  0  0  0  0  0  0  0
  -17.5571    1.3404  -23.6597 C   0  0  0  0  0  0  0  0  0  0  0  0
  -12.0676    4.5044  -20.0474 C   0  0  0  0  0  0  0  0  0  0  0  0
  -21.5418   -0.9297  -25.2569 C   0  0  0  0  0  0  0  0  0  0  0  0
  -16.4802    5.0380  -23.4721 O   0  0  0  0  0  0  0  0  0  0  0  0
  -21.1949    2.0517  -24.4742 S   0  0  0  0  0  0  0  0  0  0  0  0
  -17.2895    3.8385  -23.3180 C   0  0  0  0  0  0  0  0  0  0  0  0
  -13.1053    6.9785  -20.6879 O   0  0  0  0  0  0  0  0  0  0  0  0
  -13.2470   -1.1091  -22.9395 C   0  0  0  0  0  0  0  0  0  0  0  0
  -11.9601    6.6248  -19.8637 C   0  0  0  0  0  0  0  0  0  0  0  0
  -11.2692    5.5861  -20.0175 C   0  0  0  0  0  0  0  0  0  0  0  0
   -9.9467    5.5119  -19.3931 C   0  0  0  0  0  0  0  0  0  0  0  0
  -14.8111    6.1326  -22.0794 C   0  0  0  0  0  0  0  0  0  0  0  0
   -9.2467    6.4176  -19.2114 O   0  0  0  0  0  0  0  0  0  0  0  0
  -12.5203   -0.1305  -23.2252 O   0  0  0  0  0  0  0  0  0  0  0  0
   -9.4708    4.2443  -19.5843 O   0  0  0  0  0  0  0  0  0  0  0  0
  -12.9315   -1.9411  -22.0673 O   0  0  0  0  0  0  0  0  0  0  0  0
  1  2  1  0
  1  3  1  0
  2  4  1  0
  2  5  2  0
  3  6  1  0
  5  7  1  0
  7  8  2  0
  7  9  1  0
  9 10  2  0
 10 11  1  0
 11 12  2  0
  4 13  2  0
  8 13  1  0
 10 14  1  0
  3 15  2  0
 11 16  1  0
 16 17  2  0
  6 18  2  0
 17 19  1  0
  5 20  1  0
  6 20  1  0
 14 20  2  0
 17 21  1  0
 15 22  1  0
 12 23  1  0
 15 24  1  0
 18 24  1  0
 14 25  1  0
 23 25  1  0
 19 26  1  0
  8 27  1  0
 26 28  1  0
 21 29  1  0
 28 29  1  0
 29 30  1  0
 12 31  1  0
 19 31  2  0
 30 32  2  0
 27 33  1  0
 30 34  1  0
 27 35  2  0
M  END
>  <ID>  (1) 
conformer_0

$$$$
