
     RDKit          3D

 14 16  0  0  0  0  0  0  0  0999 V2000
  -16.5072   -2.0487  -24.2480 N   0  0  0  0  0  0  0  0  0  0  0  0
  -15.4611   -1.9390  -23.6725 C   0  0  0  0  0  0  0  0  0  0  0  0
  -14.9176   -0.7849  -23.2470 C   0  0  0  0  0  0  0  0  0  0  0  0
  -17.0919   -0.7767  -24.2041 C   0  0  0  0  0  0  0  0  0  0  0  0
  -18.3145   -0.3410  -24.6724 N   0  0  0  0  0  0  0  0  0  0  0  0
  -18.7280    0.8224  -24.1847 C   0  0  0  0  0  0  0  0  0  0  0  0
  -16.1531    0.0792  -23.5529 C   0  0  0  0  0  0  0  0  0  0  0  0
  -16.5488    1.3547  -23.3010 C   0  0  0  0  0  0  0  0  0  0  0  0
  -14.5736   -3.1379  -23.4903 N   0  0  0  0  0  0  0  0  0  0  0  0
  -17.8460    1.7358  -23.6446 C   0  0  0  0  0  0  0  0  0  0  0  0
  -13.3811   -2.4611  -22.8757 C   0  0  0  0  0  0  0  0  0  0  0  0
  -18.2698    2.8422  -23.3348 O   0  0  0  0  0  0  0  0  0  0  0  0
  -20.0581    1.1602  -24.5953 C   0  0  0  0  0  0  0  0  0  0  0  0
  -13.6981   -0.9898  -22.7213 C   0  0  0  0  0  0  0  0  0  0  0  0
  1  2  2  0
  2  3  1  0
  1  4  1  0
  4  5  1  0
  5  6  2  0
  3  7  1  0
  4  7  1  0
  7  8  2  0
  2  9  1  0
  6 10  1  0
  8 10  1  0
  9 11  2  0
 10 12  2  0
  6 13  1  0
  3 14  2  0
 11 14  1  0
M  END
>  <ID>  (1) 
conformer_0

$$$$
