
     RDKit          3D

 16 18  0  0  0  0  0  0  0  0999 V2000
  -16.4393   -2.3447  -24.2381 N   0  0  0  0  0  0  0  0  0  0  0  0
  -16.5487   -1.1114  -24.0145 C   0  0  0  0  0  0  0  0  0  0  0  0
  -15.3778   -0.6206  -23.4805 C   0  0  0  0  0  0  0  0  0  0  0  0
  -17.6763   -0.3664  -24.1932 C   0  0  0  0  0  0  0  0  0  0  0  0
  -15.4324   -2.9384  -24.0182 N   0  0  0  0  0  0  0  0  0  0  0  0
  -14.5235   -1.8546  -23.4359 C   0  0  0  0  0  0  0  0  0  0  0  0
  -15.2933    0.7473  -23.1710 C   0  0  0  0  0  0  0  0  0  0  0  0
  -14.0397    1.3384  -22.7093 C   0  0  0  0  0  0  0  0  0  0  0  0
  -16.4639    1.5499  -23.3888 C   0  0  0  0  0  0  0  0  0  0  0  0
  -17.4985    0.9831  -23.8325 C   0  0  0  0  0  0  0  0  0  0  0  0
  -18.7208    1.9570  -23.9402 C   0  0  0  0  0  0  0  0  0  0  0  0
  -13.8556   -1.9504  -22.3376 O   0  0  0  0  0  0  0  0  0  0  0  0
  -18.5852    2.9751  -23.1103 C   0  0  0  0  0  0  0  0  0  0  0  0
  -16.3253    3.0142  -23.0157 C   0  0  0  0  0  0  0  0  0  0  0  0
  -12.5410   -1.6243  -22.1514 C   0  0  0  0  0  0  0  0  0  0  0  0
  -17.4406    3.6652  -22.8995 C   0  0  0  0  0  0  0  0  0  0  0  0
  1  2  2  0
  2  3  1  0
  2  4  1  0
  1  5  1  0
  3  6  1  0
  5  6  1  0
  3  7  2  0
  7  8  1  0
  7  9  1  0
  4 10  1  0
  9 10  2  0
 10 11  1  0
  6 12  1  0
 11 13  2  0
  9 14  1  0
 12 15  1  0
 13 16  1  0
 14 16  2  0
M  END
>  <ID>  (1) 
conformer_0

$$$$
