
     RDKit          3D

  6  5  0  0  0  0  0  0  0  0999 V2000
   -8.9672    5.9109  -21.3422 C   0  0  0  0  0  0  0  0  0  0  0  0
   -9.4553    6.1684  -20.1468 C   0  0  0  0  0  0  0  0  0  0  0  0
   -9.7241    7.2070  -19.6383 O   0  0  0  0  0  0  0  0  0  0  0  0
   -9.2310    4.6598  -21.9268 O   0  0  0  0  0  0  0  0  0  0  0  0
  -10.2843    5.0359  -19.5828 O   0  0  0  0  0  0  0  0  0  0  0  0
   -9.7763    4.7338  -23.2295 C   0  0  0  0  0  0  0  0  0  0  0  0
  1  2  1  0
  2  3  2  0
  1  4  1  0
  2  5  1  0
  4  6  1  0
M  END
>  <ID>  (1) 
conformer_0

$$$$
