
     RDKit          3D

 16 18  0  0  0  0  0  0  0  0999 V2000
  -17.4850   -1.2123  -24.1914 N   0  0  0  0  0  0  0  0  0  0  0  0
  -17.6441    0.1189  -23.9756 C   0  0  0  0  0  0  0  0  0  0  0  0
  -16.3399   -1.6250  -23.9187 C   0  0  0  0  0  0  0  0  0  0  0  0
  -15.2525   -0.9083  -23.3869 C   0  0  0  0  0  0  0  0  0  0  0  0
  -18.8901    0.7645  -24.2924 C   0  0  0  0  0  0  0  0  0  0  0  0
  -15.3961    0.5130  -23.1748 C   0  0  0  0  0  0  0  0  0  0  0  0
  -16.6492    1.0129  -23.4855 C   0  0  0  0  0  0  0  0  0  0  0  0
  -13.9958   -1.5544  -23.0391 C   0  0  0  0  0  0  0  0  0  0  0  0
  -14.3650    1.2427  -22.6191 N   0  0  0  0  0  0  0  0  0  0  0  0
  -13.1820    0.7844  -22.4612 C   0  0  0  0  0  0  0  0  0  0  0  0
  -12.2563    1.4869  -21.9785 O   0  0  0  0  0  0  0  0  0  0  0  0
  -17.0087    2.3333  -23.4519 C   0  0  0  0  0  0  0  0  0  0  0  0
  -16.1999   -2.9822  -24.1314 O   0  0  0  0  0  0  0  0  0  0  0  0
  -12.9302   -0.6894  -22.5214 C   0  0  0  0  0  0  0  0  0  0  0  0
  -19.1284    1.9969  -23.9221 C   0  0  0  0  0  0  0  0  0  0  0  0
  -18.1982    2.8916  -23.6072 C   0  0  0  0  0  0  0  0  0  0  0  0
  1  2  2  0
  1  3  1  0
  3  4  1  0
  2  5  1  0
  4  6  2  0
  2  7  1  0
  6  7  1  0
  4  8  1  0
  6  9  1  0
  9 10  1  0
 10 11  2  0
  7 12  2  0
  3 13  2  0
  8 14  2  0
 10 14  1  0
  5 15  2  0
 12 16  1  0
 15 16  1  0
M  END
>  <ID>  (1) 
conformer_0

$$$$
