
     RDKit          3D

 38 44  0  0  0  0  0  0  0  0999 V2000
  -18.6863   -0.9583  -24.5260 N   0  0  0  0  0  0  0  0  0  0  0  0
  -17.4171   -0.8830  -24.2086 C   0  0  0  0  0  0  0  0  0  0  0  0
  -19.4944    0.1493  -24.4486 C   0  0  0  0  0  0  0  0  0  0  0  0
  -16.5552   -1.9860  -24.3532 N   0  0  0  0  0  0  0  0  0  0  0  0
  -16.7698    0.2865  -23.7926 C   0  0  0  0  0  0  0  0  0  0  0  0
  -18.9502    1.3675  -24.0646 C   0  0  0  0  0  0  0  0  0  0  0  0
  -15.4162    0.1415  -23.4644 C   0  0  0  0  0  0  0  0  0  0  0  0
  -14.8682   -1.0720  -23.4942 C   0  0  0  0  0  0  0  0  0  0  0  0
  -14.8370    1.4061  -22.8976 N   0  0  0  0  0  0  0  0  0  0  0  0
  -15.4765    2.5226  -22.8040 C   0  0  0  0  0  0  0  0  0  0  0  0
  -14.9907    3.7130  -22.3392 C   0  0  0  0  0  0  0  0  0  0  0  0
  -15.2801    4.8490  -22.5454 C   0  0  0  0  0  0  0  0  0  0  0  0
  -15.3628   -2.0372  -23.8446 C   0  0  0  0  0  0  0  0  0  0  0  0
  -17.0016    2.5872  -23.1304 C   0  0  0  0  0  0  0  0  0  0  0  0
  -20.7445    0.3689  -24.8358 C   0  0  0  0  0  0  0  0  0  0  0  0
  -13.7730    3.5830  -21.4391 C   0  0  0  0  0  0  0  0  0  0  0  0
  -13.1453    4.5808  -20.8662 C   0  0  0  0  0  0  0  0  0  0  0  0
  -19.8382    2.4245  -24.0897 C   0  0  0  0  0  0  0  0  0  0  0  0
  -13.7653    5.8938  -21.3241 C   0  0  0  0  0  0  0  0  0  0  0  0
  -17.5571    1.3404  -23.6597 C   0  0  0  0  0  0  0  0  0  0  0  0
  -12.0676    4.5044  -20.0474 C   0  0  0  0  0  0  0  0  0  0  0  0
  -21.5418   -0.9297  -25.2569 C   0  0  0  0  0  0  0  0  0  0  0  0
  -16.4802    5.0380  -23.4721 O   0  0  0  0  0  0  0  0  0  0  0  0
  -11.4329    5.6673  -19.7288 N   0  0  0  0  0  0  0  0  0  0  0  0
  -21.0302    1.7904  -24.5261 C   0  0  0  0  0  0  0  0  0  0  0  0
  -13.2617   -1.1334  -22.9524 C   0  0  0  0  0  0  0  0  0  0  0  0
  -10.0946    5.6592  -19.2959 C   0  0  0  0  0  0  0  0  0  0  0  0
  -22.8999   -0.4321  -25.5019 C   0  0  0  0  0  0  0  0  0  0  0  0
  -12.5131   -0.2026  -23.2801 O   0  0  0  0  0  0  0  0  0  0  0  0
   -9.1603    6.0603  -20.1493 C   0  0  0  0  0  0  0  0  0  0  0  0
  -12.8974   -2.1452  -22.3633 O   0  0  0  0  0  0  0  0  0  0  0  0
  -23.1461    0.9516  -25.2334 N   0  0  0  0  0  0  0  0  0  0  0  0
  -14.7660    6.0213  -22.0758 C   0  0  0  0  0  0  0  0  0  0  0  0
   -8.8753    5.2766  -21.2701 C   0  0  0  0  0  0  0  0  0  0  0  0
   -9.0634    4.0247  -21.3368 O   0  0  0  0  0  0  0  0  0  0  0  0
  -22.4208    2.0271  -24.6635 C   0  0  0  0  0  0  0  0  0  0  0  0
  -17.4345    3.9386  -23.1601 C   0  0  0  0  0  0  0  0  0  0  0  0
  -23.8271   -1.0899  -25.5470 O   0  0  0  0  0  0  0  0  0  0  0  0
  1  2  1  0
  1  3  1  0
  2  4  1  0
  2  5  2  0
  3  6  1  0
  5  7  1  0
  7  8  2  0
  7  9  1  0
  9 10  2  0
 10 11  1  0
 11 12  2  0
  4 13  2  0
  8 13  1  0
 10 14  1  0
  3 15  2  0
 11 16  1  0
 16 17  2  0
  6 18  2  0
 17 19  1  0
  5 20  1  0
  6 20  1  0
 14 20  2  0
 17 21  1  0
 15 22  1  0
 12 23  1  0
 21 24  1  0
 15 25  1  0
 18 25  1  0
  8 26  1  0
 24 27  1  0
 22 28  1  0
 26 29  1  0
 27 30  1  0
 26 31  2  0
 28 32  1  0
 12 33  1  0
 19 33  2  0
 30 34  2  3
 34 35  1  0
 25 36  1  0
 32 36  1  0
 14 37  1  0
 23 37  1  0
 28 38  2  0
M  END
>  <ID>  (1) 
conformer_0

$$$$
