
     RDKit          3D

 22 26  0  0  0  0  0  0  0  0999 V2000
  -14.3945   -2.4621  -23.1749 N   0  0  0  0  0  0  0  0  0  0  0  0
  -13.4960   -1.7201  -22.7310 C   0  0  0  0  0  0  0  0  0  0  0  0
  -13.4934   -0.3424  -22.7828 C   0  0  0  0  0  0  0  0  0  0  0  0
  -14.7229    0.2575  -23.1182 C   0  0  0  0  0  0  0  0  0  0  0  0
  -15.0136    1.6809  -23.0998 C   0  0  0  0  0  0  0  0  0  0  0  0
  -14.0830    2.5490  -22.5074 C   0  0  0  0  0  0  0  0  0  0  0  0
  -15.7428   -0.6188  -23.5644 C   0  0  0  0  0  0  0  0  0  0  0  0
  -15.5472   -1.9566  -23.6007 C   0  0  0  0  0  0  0  0  0  0  0  0
  -17.0386   -0.1641  -24.0522 C   0  0  0  0  0  0  0  0  0  0  0  0
  -14.3890    3.8507  -22.4304 C   0  0  0  0  0  0  0  0  0  0  0  0
  -13.4345    4.8438  -21.8132 C   0  0  0  0  0  0  0  0  0  0  0  0
  -12.1831    4.3159  -21.4497 C   0  0  0  0  0  0  0  0  0  0  0  0
  -17.4191    1.2522  -23.9372 C   0  0  0  0  0  0  0  0  0  0  0  0
  -12.7384    2.0076  -22.0021 C   0  0  0  0  0  0  0  0  0  0  0  0
  -11.3584    5.2574  -20.7245 C   0  0  0  0  0  0  0  0  0  0  0  0
  -12.4560    0.7328  -22.0557 C   0  0  0  0  0  0  0  0  0  0  0  0
  -11.9196    2.9576  -21.4188 C   0  0  0  0  0  0  0  0  0  0  0  0
  -11.7752    6.0508  -19.8115 O   0  0  0  0  0  0  0  0  0  0  0  0
  -16.6085   -2.5551  -24.0944 N   0  0  0  0  0  0  0  0  0  0  0  0
  -16.2809    2.1424  -23.4944 C   0  0  0  0  0  0  0  0  0  0  0  0
  -17.5523   -1.4061  -24.3240 C   0  0  0  0  0  0  0  0  0  0  0  0
  -10.0291    5.0241  -20.7204 O   0  0  0  0  0  0  0  0  0  0  0  0
  1  2  1  0
  2  3  2  0
  3  4  1  0
  4  5  1  0
  5  6  1  0
  4  7  2  0
  1  8  2  0
  7  8  1  0
  7  9  1  0
  6 10  2  0
 10 11  1  0
 11 12  2  0
  9 13  1  0
  6 14  1  0
 12 15  1  0
  3 16  1  0
 14 16  2  0
 12 17  1  0
 14 17  1  0
 15 18  1  0
  8 19  1  0
  5 20  1  0
 13 20  2  0
  9 21  2  0
 19 21  1  0
 15 22  2  0
M  END
>  <ID>  (1) 
conformer_0

$$$$
