
     RDKit          3D

 13 15  0  0  0  0  0  0  0  0999 V2000
  -17.0726   -1.8885  -24.5499 N   0  0  0  0  0  0  0  0  0  0  0  0
  -16.0422   -1.5615  -23.9022 C   0  0  0  0  0  0  0  0  0  0  0  0
  -15.8742   -0.2739  -23.6401 C   0  0  0  0  0  0  0  0  0  0  0  0
  -15.0635   -2.4607  -23.4292 N   0  0  0  0  0  0  0  0  0  0  0  0
  -16.9120    0.5568  -23.9237 C   0  0  0  0  0  0  0  0  0  0  0  0
  -13.9757   -2.0804  -22.8263 C   0  0  0  0  0  0  0  0  0  0  0  0
  -18.0490    0.2134  -24.5732 N   0  0  0  0  0  0  0  0  0  0  0  0
  -18.1079   -1.0929  -24.8105 C   0  0  0  0  0  0  0  0  0  0  0  0
  -14.6024    0.0655  -22.9338 C   0  0  0  0  0  0  0  0  0  0  0  0
  -14.3487    1.4741  -22.6799 N   0  0  0  0  0  0  0  0  0  0  0  0
  -13.5885   -0.8644  -22.5875 C   0  0  0  0  0  0  0  0  0  0  0  0
  -16.8073    2.0114  -23.6557 C   0  0  0  0  0  0  0  0  0  0  0  0
  -15.5196    2.3783  -22.9775 C   0  0  0  0  0  0  0  0  0  0  0  0
  1  2  1  0
  2  3  1  0
  2  4  2  0
  3  5  1  0
  4  6  1  0
  5  7  2  0
  1  8  2  0
  7  8  1  0
  3  9  2  0
  9 10  1  0
  6 11  2  0
  9 11  1  0
  5 12  1  0
 10 13  2  0
 12 13  2  0
M  END
>  <ID>  (1) 
conformer_0

$$$$
