
     RDKit          3D

 31 37  0  0  0  0  0  0  0  0999 V2000
  -16.3902   -2.1929  -24.1148 N   0  0  0  0  0  0  0  0  0  0  0  0
  -15.2673   -1.9330  -23.6065 C   0  0  0  0  0  0  0  0  0  0  0  0
  -14.8852   -0.6995  -23.2363 C   0  0  0  0  0  0  0  0  0  0  0  0
  -16.0057    0.1379  -23.4930 C   0  0  0  0  0  0  0  0  0  0  0  0
  -17.2460   -1.0856  -24.3027 C   0  0  0  0  0  0  0  0  0  0  0  0
  -16.4430    1.4180  -23.3873 C   0  0  0  0  0  0  0  0  0  0  0  0
  -13.6866   -0.4047  -22.7746 C   0  0  0  0  0  0  0  0  0  0  0  0
  -15.5787    2.3232  -22.9928 C   0  0  0  0  0  0  0  0  0  0  0  0
  -13.1938    0.9068  -22.5102 C   0  0  0  0  0  0  0  0  0  0  0  0
  -12.1286    1.1687  -22.1453 O   0  0  0  0  0  0  0  0  0  0  0  0
  -14.2888    1.9404  -22.3826 N   0  0  0  0  0  0  0  0  0  0  0  0
  -13.8794    3.1350  -21.6498 C   0  0  0  0  0  0  0  0  0  0  0  0
  -15.9955    3.5820  -23.0317 N   0  0  0  0  0  0  0  0  0  0  0  0
  -12.5007    3.3326  -21.1656 C   0  0  0  0  0  0  0  0  0  0  0  0
  -18.3684   -0.6704  -24.6080 C   0  0  0  0  0  0  0  0  0  0  0  0
  -14.5473    4.3625  -21.8635 C   0  0  0  0  0  0  0  0  0  0  0  0
  -17.6241    1.8961  -23.9936 C   0  0  0  0  0  0  0  0  0  0  0  0
  -13.8062    5.5086  -21.0399 C   0  0  0  0  0  0  0  0  0  0  0  0
  -12.2051    4.4633  -20.4017 C   0  0  0  0  0  0  0  0  0  0  0  0
  -12.8402    5.4700  -20.4080 C   0  0  0  0  0  0  0  0  0  0  0  0
  -10.7908    4.4136  -19.9861 N   0  0  0  0  0  0  0  0  0  0  0  0
  -18.6556    0.7351  -24.3352 C   0  0  0  0  0  0  0  0  0  0  0  0
  -10.1244    5.5654  -19.7873 C   0  0  0  0  0  0  0  0  0  0  0  0
  -14.3784   -2.9887  -23.3215 N   0  0  0  0  0  0  0  0  0  0  0  0
   -9.9486    3.3638  -20.4412 C   0  0  0  0  0  0  0  0  0  0  0  0
  -12.9031   -1.5537  -22.6205 C   0  0  0  0  0  0  0  0  0  0  0  0
  -15.4412    4.5627  -22.3358 N   0  0  0  0  0  0  0  0  0  0  0  0
  -10.7274    6.5845  -19.3215 O   0  0  0  0  0  0  0  0  0  0  0  0
   -8.8085    5.6780  -20.1488 C   0  0  0  0  0  0  0  0  0  0  0  0
  -13.2033   -2.7216  -22.8180 C   0  0  0  0  0  0  0  0  0  0  0  0
   -8.6139    4.0022  -20.5545 C   0  0  0  0  0  0  0  0  0  0  0  0
  1  2  1  0
  2  3  1  0
  3  4  2  0
  1  5  2  0
  4  5  1  0
  4  6  1  0
  3  7  1  0
  6  8  1  0
  7  9  1  0
  9 10  2  0
  8 11  1  0
  9 11  1  0
 11 12  1  0
  8 13  2  0
 12 14  1  0
  5 15  1  0
 12 16  2  0
  6 17  2  0
 16 18  1  0
 14 19  2  0
 18 20  2  0
 19 20  1  0
 19 21  1  0
 15 22  2  0
 17 22  1  0
 21 23  1  0
  2 24  2  0
 21 25  1  0
  7 26  2  0
 13 27  1  0
 16 27  1  0
 23 28  2  0
 23 29  1  0
 24 30  1  0
 26 30  1  0
 25 31  1  0
 29 31  1  0
M  END
>  <ID>  (1) 
conformer_0

$$$$
