
     RDKit          3D

 31 38  0  0  0  0  0  0  0  0999 V2000
  -16.5685   -2.3608  -24.2952 N   0  0  0  0  0  0  0  0  0  0  0  0
  -15.4633   -1.9776  -23.7929 C   0  0  0  0  0  0  0  0  0  0  0  0
  -15.3760   -0.6485  -23.3838 C   0  0  0  0  0  0  0  0  0  0  0  0
  -17.3499   -1.1987  -24.3273 C   0  0  0  0  0  0  0  0  0  0  0  0
  -16.5767   -0.1441  -23.8120 C   0  0  0  0  0  0  0  0  0  0  0  0
  -17.0950    1.2027  -23.6660 C   0  0  0  0  0  0  0  0  0  0  0  0
  -18.3625    1.6393  -23.8363 C   0  0  0  0  0  0  0  0  0  0  0  0
  -16.2790    2.2177  -23.0723 C   0  0  0  0  0  0  0  0  0  0  0  0
  -14.2730   -2.8231  -23.3511 N   0  0  0  0  0  0  0  0  0  0  0  0
  -19.3741    0.8756  -24.3385 O   0  0  0  0  0  0  0  0  0  0  0  0
  -14.1446   -0.1931  -22.8354 C   0  0  0  0  0  0  0  0  0  0  0  0
  -13.8926    1.2230  -22.4746 C   0  0  0  0  0  0  0  0  0  0  0  0
  -13.0542   -0.9743  -22.4884 C   0  0  0  0  0  0  0  0  0  0  0  0
  -18.9384    2.8576  -23.4761 C   0  0  0  0  0  0  0  0  0  0  0  0
  -20.2860    3.0441  -23.7727 O   0  0  0  0  0  0  0  0  0  0  0  0
  -20.6231    1.7097  -24.1260 C   0  0  0  0  0  0  0  0  0  0  0  0
  -14.9307    2.2569  -22.6466 C   0  0  0  0  0  0  0  0  0  0  0  0
  -12.7721    1.5839  -21.9438 C   0  0  0  0  0  0  0  0  0  0  0  0
  -14.6918    3.5205  -22.2982 C   0  0  0  0  0  0  0  0  0  0  0  0
  -12.5135    2.9194  -21.5142 C   0  0  0  0  0  0  0  0  0  0  0  0
  -17.9583    3.8727  -23.0361 C   0  0  0  0  0  0  0  0  0  0  0  0
  -11.3404    3.2976  -20.8543 N   0  0  0  0  0  0  0  0  0  0  0  0
  -13.3557    3.8162  -21.6935 C   0  0  0  0  0  0  0  0  0  0  0  0
  -11.6518    4.6640  -20.6269 C   0  0  0  0  0  0  0  0  0  0  0  0
  -12.7408    5.0798  -21.0965 C   0  0  0  0  0  0  0  0  0  0  0  0
  -10.5704    5.4650  -20.0078 C   0  0  0  0  0  0  0  0  0  0  0  0
  -10.8931    6.5204  -19.5214 O   0  0  0  0  0  0  0  0  0  0  0  0
  -15.5402    4.5638  -22.6365 C   0  0  0  0  0  0  0  0  0  0  0  0
  -13.2947   -2.3763  -22.8240 C   0  0  0  0  0  0  0  0  0  0  0  0
   -9.4139    4.9109  -19.9107 O   0  0  0  0  0  0  0  0  0  0  0  0
  -16.6617    3.5809  -22.9436 C   0  0  0  0  0  0  0  0  0  0  0  0
  1  2  1  0
  2  3  1  0
  1  4  2  0
  3  5  2  0
  4  5  1  0
  5  6  1  0
  6  7  1  0
  6  8  2  0
  2  9  2  0
  7 10  1  0
  3 11  1  0
 11 12  1  0
 11 13  2  0
  7 14  2  0
 14 15  1  0
 10 16  1  0
 15 16  1  0
  8 17  1  0
 12 17  1  0
 12 18  2  0
 17 19  2  0
 18 20  1  0
 14 21  1  0
 20 22  1  0
 19 23  1  0
 20 23  2  0
 22 24  2  0
 23 25  1  0
 24 25  1  0
 24 26  1  0
 26 27  2  0
 19 28  1  0
  9 29  1  0
 13 29  1  0
 26 30  1  0
  8 31  1  0
 21 31  1  0
 28 31  2  0
M  END
>  <ID>  (1) 
conformer_0

$$$$
