
     RDKit          3D

 16 18  0  0  0  0  0  0  0  0999 V2000
  -14.3945   -2.4621  -23.1749 N   0  0  0  0  0  0  0  0  0  0  0  0
  -15.4322   -2.0642  -23.6299 C   0  0  0  0  0  0  0  0  0  0  0  0
  -15.6654   -0.6996  -23.5178 C   0  0  0  0  0  0  0  0  0  0  0  0
  -16.5107   -2.5962  -24.3392 N   0  0  0  0  0  0  0  0  0  0  0  0
  -13.4116   -1.7958  -22.5537 C   0  0  0  0  0  0  0  0  0  0  0  0
  -16.8974   -0.1739  -23.9518 C   0  0  0  0  0  0  0  0  0  0  0  0
  -17.5853    0.9811  -23.9876 C   0  0  0  0  0  0  0  0  0  0  0  0
  -12.2547   -2.3440  -22.1197 N   0  0  0  0  0  0  0  0  0  0  0  0
  -16.8863    2.1520  -23.5134 C   0  0  0  0  0  0  0  0  0  0  0  0
  -17.4753    3.0491  -22.8336 C   0  0  0  0  0  0  0  0  0  0  0  0
  -17.6540   -1.2702  -24.6125 C   0  0  0  0  0  0  0  0  0  0  0  0
  -14.7831    0.1130  -22.8852 C   0  0  0  0  0  0  0  0  0  0  0  0
  -18.9383    0.9759  -24.0620 C   0  0  0  0  0  0  0  0  0  0  0  0
  -13.5983   -0.4023  -22.3805 N   0  0  0  0  0  0  0  0  0  0  0  0
  -18.8841    3.2233  -23.0695 C   0  0  0  0  0  0  0  0  0  0  0  0
  -19.5983    2.1677  -23.6571 C   0  0  0  0  0  0  0  0  0  0  0  0
  1  2  1  0
  2  3  2  0
  2  4  1  0
  1  5  2  0
  3  6  1  0
  6  7  1  0
  5  8  1  0
  7  9  1  0
  9 10  2  0
  4 11  1  0
  6 11  1  0
  3 12  1  0
  7 13  2  0
  5 14  1  0
 12 14  2  0
 10 15  1  0
 13 16  1  0
 15 16  2  0
M  END
>  <ID>  (1) 
conformer_0

$$$$
