
     RDKit          3D

 36 43  0  0  0  0  0  0  0  0999 V2000
  -16.3902   -2.1929  -24.1148 N   0  0  0  0  0  0  0  0  0  0  0  0
  -15.2673   -1.9330  -23.6065 C   0  0  0  0  0  0  0  0  0  0  0  0
  -14.8852   -0.6995  -23.2363 C   0  0  0  0  0  0  0  0  0  0  0  0
  -16.0057    0.1379  -23.4930 C   0  0  0  0  0  0  0  0  0  0  0  0
  -17.2460   -1.0856  -24.3027 C   0  0  0  0  0  0  0  0  0  0  0  0
  -16.4430    1.4180  -23.3873 C   0  0  0  0  0  0  0  0  0  0  0  0
  -13.6866   -0.4047  -22.7746 C   0  0  0  0  0  0  0  0  0  0  0  0
  -15.5787    2.3232  -22.9928 C   0  0  0  0  0  0  0  0  0  0  0  0
  -13.1938    0.9068  -22.5102 C   0  0  0  0  0  0  0  0  0  0  0  0
  -12.1286    1.1687  -22.1453 O   0  0  0  0  0  0  0  0  0  0  0  0
  -14.2888    1.9404  -22.3826 N   0  0  0  0  0  0  0  0  0  0  0  0
  -13.8794    3.1350  -21.6498 C   0  0  0  0  0  0  0  0  0  0  0  0
  -15.9955    3.5820  -23.0317 N   0  0  0  0  0  0  0  0  0  0  0  0
  -12.5007    3.3326  -21.1656 C   0  0  0  0  0  0  0  0  0  0  0  0
  -18.3684   -0.6704  -24.6080 C   0  0  0  0  0  0  0  0  0  0  0  0
  -14.5473    4.3625  -21.8635 C   0  0  0  0  0  0  0  0  0  0  0  0
  -17.6241    1.8961  -23.9936 C   0  0  0  0  0  0  0  0  0  0  0  0
  -13.8062    5.5086  -21.0399 C   0  0  0  0  0  0  0  0  0  0  0  0
  -12.2051    4.4633  -20.4017 C   0  0  0  0  0  0  0  0  0  0  0  0
  -15.6094    4.5953  -22.4489 C   0  0  0  0  0  0  0  0  0  0  0  0
  -10.8527    4.3231  -19.7284 N   0  0  0  0  0  0  0  0  0  0  0  0
  -13.0008   -1.4782  -22.5875 C   0  0  0  0  0  0  0  0  0  0  0  0
  -14.7385    6.7724  -21.0931 C   0  0  0  0  0  0  0  0  0  0  0  0
   -9.8654    3.5282  -20.2169 C   0  0  0  0  0  0  0  0  0  0  0  0
  -16.2621    5.7021  -22.5242 C   0  0  0  0  0  0  0  0  0  0  0  0
  -10.2391    5.6617  -19.7163 C   0  0  0  0  0  0  0  0  0  0  0  0
  -18.6352    0.8350  -24.4110 C   0  0  0  0  0  0  0  0  0  0  0  0
  -12.7919    5.5201  -20.3729 N   0  0  0  0  0  0  0  0  0  0  0  0
  -15.8903    6.7810  -21.7268 C   0  0  0  0  0  0  0  0  0  0  0  0
  -14.2647   -3.0482  -23.3527 N   0  0  0  0  0  0  0  0  0  0  0  0
   -8.8951    4.1604  -20.5715 O   0  0  0  0  0  0  0  0  0  0  0  0
   -8.9746    5.5532  -20.3296 C   0  0  0  0  0  0  0  0  0  0  0  0
   -9.7806    2.2937  -19.9410 C   0  0  0  0  0  0  0  0  0  0  0  0
  -13.1616   -2.6823  -22.8112 C   0  0  0  0  0  0  0  0  0  0  0  0
   -8.9623    6.3982  -21.5569 O   0  0  0  0  0  0  0  0  0  0  0  0
   -9.2090    5.6195  -22.6364 C   0  0  0  0  0  0  0  0  0  0  0  0
  1  2  1  0
  2  3  1  0
  3  4  2  0
  1  5  2  0
  4  5  1  0
  4  6  1  0
  3  7  1  0
  6  8  1  0
  7  9  1  0
  9 10  2  0
  8 11  1  0
  9 11  1  0
 11 12  1  0
  8 13  2  0
 12 14  1  0
  5 15  1  0
 12 16  2  0
  6 17  2  0
 16 18  1  0
 14 19  2  0
 13 20  1  0
 16 20  1  0
 19 21  1  0
  7 22  2  0
 18 23  1  0
 21 24  1  0
 20 25  2  0
 21 26  1  0
 15 27  2  0
 17 27  1  0
 18 28  2  0
 19 28  1  0
 23 29  2  0
 25 29  1  0
  2 30  2  0
 24 31  1  0
 26 32  1  0
 31 32  1  0
 24 33  2  0
 22 34  1  0
 30 34  1  0
 32 35  1  0
 35 36  1  0
M  END
>  <ID>  (1) 
conformer_0

$$$$
