
     RDKit          3D

 18 20  0  0  0  0  0  0  0  0999 V2000
  -17.4850   -1.2123  -24.1914 N   0  0  0  0  0  0  0  0  0  0  0  0
  -17.6441    0.1189  -23.9756 C   0  0  0  0  0  0  0  0  0  0  0  0
  -16.5548    0.8143  -23.4818 C   0  0  0  0  0  0  0  0  0  0  0  0
  -16.6776    2.2547  -23.1890 C   0  0  0  0  0  0  0  0  0  0  0  0
  -15.3389    0.2631  -23.3312 C   0  0  0  0  0  0  0  0  0  0  0  0
  -15.3239   -1.1971  -23.5855 C   0  0  0  0  0  0  0  0  0  0  0  0
  -18.8919    0.6752  -24.1338 C   0  0  0  0  0  0  0  0  0  0  0  0
  -16.4143   -1.8566  -24.0280 N   0  0  0  0  0  0  0  0  0  0  0  0
  -14.0925    0.7935  -22.8973 C   0  0  0  0  0  0  0  0  0  0  0  0
  -12.9651    0.0796  -22.8275 C   0  0  0  0  0  0  0  0  0  0  0  0
  -13.0121   -1.3253  -22.9534 C   0  0  0  0  0  0  0  0  0  0  0  0
  -19.9991    0.0059  -24.6029 N   0  0  0  0  0  0  0  0  0  0  0  0
  -14.1146   -1.9469  -23.2806 C   0  0  0  0  0  0  0  0  0  0  0  0
  -21.3513    0.3827  -24.2548 C   0  0  0  0  0  0  0  0  0  0  0  0
  -17.9297    2.8845  -23.3409 C   0  0  0  0  0  0  0  0  0  0  0  0
  -19.0143    2.1265  -23.8435 C   0  0  0  0  0  0  0  0  0  0  0  0
  -21.6034    1.3208  -23.7250 O   0  0  0  0  0  0  0  0  0  0  0  0
  -22.2929   -0.6622  -24.6602 C   0  0  0  0  0  0  0  0  0  0  0  0
  1  2  1  0
  2  3  1  0
  3  4  2  0
  3  5  1  0
  5  6  2  0
  2  7  2  0
  1  8  2  0
  6  8  1  0
  5  9  1  0
  9 10  2  0
 10 11  1  0
  7 12  1  0
  6 13  1  0
 11 13  2  0
 12 14  1  0
  4 15  1  0
  7 16  1  0
 15 16  2  0
 14 17  2  0
 14 18  1  0
M  END
>  <ID>  (1) 
conformer_0

$$$$
