
     RDKit          3D

 33 39  0  0  0  0  0  0  0  0999 V2000
  -16.3902   -2.1929  -24.1148 N   0  0  0  0  0  0  0  0  0  0  0  0
  -15.2673   -1.9330  -23.6065 C   0  0  0  0  0  0  0  0  0  0  0  0
  -14.8852   -0.6995  -23.2363 C   0  0  0  0  0  0  0  0  0  0  0  0
  -16.0057    0.1379  -23.4930 C   0  0  0  0  0  0  0  0  0  0  0  0
  -17.2460   -1.0856  -24.3027 C   0  0  0  0  0  0  0  0  0  0  0  0
  -16.4430    1.4180  -23.3873 C   0  0  0  0  0  0  0  0  0  0  0  0
  -13.6866   -0.4047  -22.7746 C   0  0  0  0  0  0  0  0  0  0  0  0
  -15.5787    2.3232  -22.9928 C   0  0  0  0  0  0  0  0  0  0  0  0
  -13.1938    0.9068  -22.5102 C   0  0  0  0  0  0  0  0  0  0  0  0
  -12.1286    1.1687  -22.1453 O   0  0  0  0  0  0  0  0  0  0  0  0
  -14.2888    1.9404  -22.3826 N   0  0  0  0  0  0  0  0  0  0  0  0
  -13.8794    3.1350  -21.6498 C   0  0  0  0  0  0  0  0  0  0  0  0
  -15.9955    3.5820  -23.0317 N   0  0  0  0  0  0  0  0  0  0  0  0
  -12.5007    3.3326  -21.1656 C   0  0  0  0  0  0  0  0  0  0  0  0
  -14.4791    4.4210  -22.2216 C   0  0  0  0  0  0  0  0  0  0  0  0
  -18.3594   -0.6076  -24.5646 C   0  0  0  0  0  0  0  0  0  0  0  0
  -11.8451    4.4738  -21.6323 C   0  0  0  0  0  0  0  0  0  0  0  0
  -17.7919    1.6214  -24.0017 C   0  0  0  0  0  0  0  0  0  0  0  0
  -10.5808    4.7573  -20.9725 C   0  0  0  0  0  0  0  0  0  0  0  0
  -15.5657    4.5873  -22.6073 C   0  0  0  0  0  0  0  0  0  0  0  0
  -12.9759   -1.5642  -22.7184 C   0  0  0  0  0  0  0  0  0  0  0  0
   -9.7014    5.3449  -21.5285 C   0  0  0  0  0  0  0  0  0  0  0  0
  -16.5614    5.2686  -21.8642 C   0  0  0  0  0  0  0  0  0  0  0  0
  -10.5327    4.4626  -19.5142 O   0  0  0  0  0  0  0  0  0  0  0  0
   -9.7387    5.8082  -22.7960 C   0  0  0  0  0  0  0  0  0  0  0  0
  -10.8064    5.4041  -23.5512 C   0  0  0  0  0  0  0  0  0  0  0  0
   -8.4570    5.6500  -20.6071 O   0  0  0  0  0  0  0  0  0  0  0  0
  -16.1363    6.5179  -21.3379 C   0  0  0  0  0  0  0  0  0  0  0  0
  -13.9708   -2.6174  -23.1493 C   0  0  0  0  0  0  0  0  0  0  0  0
  -14.7643    6.5368  -20.9552 C   0  0  0  0  0  0  0  0  0  0  0  0
  -11.8084    4.6607  -22.9174 C   0  0  0  0  0  0  0  0  0  0  0  0
  -13.8939    5.4689  -21.2876 C   0  0  0  0  0  0  0  0  0  0  0  0
  -18.6320    0.7374  -24.4507 C   0  0  0  0  0  0  0  0  0  0  0  0
  1  2  1  0
  2  3  1  0
  3  4  2  0
  1  5  2  0
  4  5  1  0
  4  6  1  0
  3  7  1  0
  6  8  1  0
  7  9  1  0
  9 10  2  0
  8 11  1  0
  9 11  1  0
 11 12  1  0
  8 13  2  0
 12 14  1  0
 12 15  1  0
  5 16  1  0
 14 17  1  0
  6 18  2  0
 17 19  1  0
 13 20  1  0
 15 20  1  0
  7 21  2  0
 19 22  2  0
 20 23  2  0
 19 24  1  0
 22 25  1  0
 25 26  2  0
 22 27  1  0
 23 28  1  0
  2 29  2  0
 21 29  1  0
 28 30  2  0
 17 31  2  0
 26 31  1  0
 15 32  2  0
 30 32  1  0
 16 33  2  0
 18 33  1  0
M  END
>  <ID>  (1) 
conformer_0

$$$$
