
     RDKit          3D

 16 18  0  0  0  0  0  0  0  0999 V2000
  -14.3945   -2.4621  -23.1749 N   0  0  0  0  0  0  0  0  0  0  0  0
  -15.4322   -2.0642  -23.6299 C   0  0  0  0  0  0  0  0  0  0  0  0
  -15.6654   -0.6996  -23.5178 C   0  0  0  0  0  0  0  0  0  0  0  0
  -16.5107   -2.5962  -24.3392 N   0  0  0  0  0  0  0  0  0  0  0  0
  -13.4116   -1.7958  -22.5537 C   0  0  0  0  0  0  0  0  0  0  0  0
  -16.8974   -0.1739  -23.9518 C   0  0  0  0  0  0  0  0  0  0  0  0
  -17.5853    0.9811  -23.9876 C   0  0  0  0  0  0  0  0  0  0  0  0
  -12.2547   -2.3440  -22.1197 N   0  0  0  0  0  0  0  0  0  0  0  0
  -16.8863    2.1520  -23.5134 C   0  0  0  0  0  0  0  0  0  0  0  0
  -17.4753    3.0491  -22.8336 C   0  0  0  0  0  0  0  0  0  0  0  0
  -18.8671    3.1398  -22.8868 C   0  0  0  0  0  0  0  0  0  0  0  0
  -19.5927    2.1035  -23.3317 C   0  0  0  0  0  0  0  0  0  0  0  0
  -17.4973   -1.4723  -24.6198 C   0  0  0  0  0  0  0  0  0  0  0  0
  -18.8585    0.9458  -23.8554 C   0  0  0  0  0  0  0  0  0  0  0  0
  -14.6201   -0.1131  -22.8246 C   0  0  0  0  0  0  0  0  0  0  0  0
  -13.5239   -0.4761  -22.4047 C   0  0  0  0  0  0  0  0  0  0  0  0
  1  2  1  0
  2  3  2  0
  2  4  1  0
  1  5  2  0
  3  6  1  0
  6  7  1  0
  5  8  1  0
  7  9  1  0
  9 10  2  0
 10 11  1  0
 11 12  2  0
  4 13  1  0
  6 13  1  0
  7 14  2  0
 12 14  1  0
  3 15  1  0
  5 16  1  0
 15 16  2  0
M  END
>  <ID>  (1) 
conformer_0

$$$$
