
     RDKit          3D

 38 45  0  0  0  0  0  0  0  0999 V2000
  -18.6863   -0.9583  -24.5260 N   0  0  0  0  0  0  0  0  0  0  0  0
  -17.4171   -0.8830  -24.2086 C   0  0  0  0  0  0  0  0  0  0  0  0
  -19.4944    0.1493  -24.4486 C   0  0  0  0  0  0  0  0  0  0  0  0
  -16.5552   -1.9860  -24.3532 N   0  0  0  0  0  0  0  0  0  0  0  0
  -16.7698    0.2865  -23.7926 C   0  0  0  0  0  0  0  0  0  0  0  0
  -18.9502    1.3675  -24.0646 C   0  0  0  0  0  0  0  0  0  0  0  0
  -15.4162    0.1415  -23.4644 C   0  0  0  0  0  0  0  0  0  0  0  0
  -14.8682   -1.0720  -23.4942 C   0  0  0  0  0  0  0  0  0  0  0  0
  -14.8370    1.4061  -22.8976 N   0  0  0  0  0  0  0  0  0  0  0  0
  -15.4765    2.5226  -22.8040 C   0  0  0  0  0  0  0  0  0  0  0  0
  -14.9907    3.7130  -22.3392 C   0  0  0  0  0  0  0  0  0  0  0  0
  -15.2801    4.8490  -22.5454 C   0  0  0  0  0  0  0  0  0  0  0  0
  -15.3628   -2.0372  -23.8446 C   0  0  0  0  0  0  0  0  0  0  0  0
  -17.0016    2.5872  -23.1304 C   0  0  0  0  0  0  0  0  0  0  0  0
  -20.7445    0.3689  -24.8358 C   0  0  0  0  0  0  0  0  0  0  0  0
  -13.7730    3.5830  -21.4391 C   0  0  0  0  0  0  0  0  0  0  0  0
  -13.1453    4.5808  -20.8662 C   0  0  0  0  0  0  0  0  0  0  0  0
  -17.6080    3.8035  -23.0255 C   0  0  0  0  0  0  0  0  0  0  0  0
  -19.7899    2.4602  -24.0595 C   0  0  0  0  0  0  0  0  0  0  0  0
  -17.5905    1.3312  -23.7964 C   0  0  0  0  0  0  0  0  0  0  0  0
  -21.7453   -0.6585  -25.1902 C   0  0  0  0  0  0  0  0  0  0  0  0
  -14.5570   -3.2842  -23.8492 C   0  0  0  0  0  0  0  0  0  0  0  0
  -13.6169    5.8588  -21.2101 C   0  0  0  0  0  0  0  0  0  0  0  0
  -11.9506    4.3123  -19.9731 C   0  0  0  0  0  0  0  0  0  0  0  0
  -21.1594    1.8312  -24.6401 C   0  0  0  0  0  0  0  0  0  0  0  0
  -14.7333    5.9565  -21.9280 C   0  0  0  0  0  0  0  0  0  0  0  0
  -13.4412   -0.9305  -22.9773 C   0  0  0  0  0  0  0  0  0  0  0  0
  -10.7304    4.5010  -20.5765 C   0  0  0  0  0  0  0  0  0  0  0  0
  -22.8139   -0.2215  -25.7802 C   0  0  0  0  0  0  0  0  0  0  0  0
  -12.7057   -2.0936  -22.9217 C   0  0  0  0  0  0  0  0  0  0  0  0
   -9.6457    4.6546  -19.7728 C   0  0  0  0  0  0  0  0  0  0  0  0
  -10.5544    4.4794  -21.9146 O   0  0  0  0  0  0  0  0  0  0  0  0
   -8.7412    3.8950  -19.7682 O   0  0  0  0  0  0  0  0  0  0  0  0
  -16.7905    4.9697  -22.8500 C   0  0  0  0  0  0  0  0  0  0  0  0
  -23.2152    1.1087  -25.8502 C   0  0  0  0  0  0  0  0  0  0  0  0
  -13.3393   -3.2859  -23.3986 C   0  0  0  0  0  0  0  0  0  0  0  0
   -9.4856    5.8279  -19.0556 N   0  0  0  0  0  0  0  0  0  0  0  0
  -22.5690    2.0720  -25.3212 C   0  0  0  0  0  0  0  0  0  0  0  0
  1  2  1  0
  1  3  1  0
  2  4  1  0
  2  5  2  0
  3  6  1  0
  5  7  1  0
  7  8  2  0
  7  9  1  0
  9 10  2  0
 10 11  1  0
 11 12  2  0
  4 13  2  0
  8 13  1  0
 10 14  1  0
  3 15  2  0
 11 16  1  0
 16 17  2  0
 14 18  2  0
  6 19  1  0
  5 20  1  0
  6 20  2  0
 14 20  1  0
 15 21  1  0
 13 22  1  0
 17 23  1  0
 17 24  1  0
 15 25  1  0
 19 25  2  0
 12 26  1  0
 23 26  2  0
  8 27  1  0
 24 28  1  0
 21 29  2  0
 27 30  2  0
 28 31  1  0
 28 32  2  0
 31 33  2  0
 12 34  1  0
 18 34  1  0
 29 35  1  0
 22 36  2  0
 30 36  1  0
 31 37  1  0
 25 38  1  0
 35 38  2  0
M  END
>  <ID>  (1) 
conformer_0

$$$$
