
     RDKit          3D

 14 16  0  0  0  0  0  0  0  0999 V2000
  -17.4850   -1.2123  -24.1914 C   0  0  0  0  0  0  0  0  0  0  0  0
  -17.3094    0.1068  -23.9466 C   0  0  0  0  0  0  0  0  0  0  0  0
  -16.5199   -2.0774  -24.0924 N   0  0  0  0  0  0  0  0  0  0  0  0
  -18.3798    1.0741  -24.0906 C   0  0  0  0  0  0  0  0  0  0  0  0
  -18.1573    2.3976  -23.7453 C   0  0  0  0  0  0  0  0  0  0  0  0
  -15.3570   -1.7107  -23.5873 C   0  0  0  0  0  0  0  0  0  0  0  0
  -14.2369   -2.5246  -23.3790 N   0  0  0  0  0  0  0  0  0  0  0  0
  -15.2102   -0.2671  -23.1770 C   0  0  0  0  0  0  0  0  0  0  0  0
  -13.9469    0.2195  -22.6250 C   0  0  0  0  0  0  0  0  0  0  0  0
  -12.8717   -0.6194  -22.5431 C   0  0  0  0  0  0  0  0  0  0  0  0
  -13.0405   -2.0039  -22.9295 C   0  0  0  0  0  0  0  0  0  0  0  0
  -16.2222    0.6260  -23.3473 C   0  0  0  0  0  0  0  0  0  0  0  0
  -17.0476    2.8350  -23.2091 C   0  0  0  0  0  0  0  0  0  0  0  0
  -16.0063    1.9519  -22.9900 C   0  0  0  0  0  0  0  0  0  0  0  0
  1  2  2  0
  1  3  1  0
  2  4  1  0
  4  5  2  0
  3  6  2  0
  6  7  1  0
  6  8  1  0
  8  9  1  0
  9 10  2  0
  7 11  2  0
 10 11  1  0
  2 12  1  0
  8 12  2  0
  5 13  1  0
 12 14  1  0
 13 14  2  0
M  END
>  <ID>  (1) 
conformer_0

$$$$
