
     RDKit          3D

 17 19  0  0  0  0  0  0  0  0999 V2000
  -16.5939   -2.2475  -24.2929 N   0  0  0  0  0  0  0  0  0  0  0  0
  -16.3089   -1.1566  -23.8835 C   0  0  0  0  0  0  0  0  0  0  0  0
  -15.0194   -0.9372  -23.2943 C   0  0  0  0  0  0  0  0  0  0  0  0
  -17.2549   -0.1340  -23.8455 C   0  0  0  0  0  0  0  0  0  0  0  0
  -14.6263    0.3872  -22.9656 C   0  0  0  0  0  0  0  0  0  0  0  0
  -13.3527    0.7128  -22.4670 C   0  0  0  0  0  0  0  0  0  0  0  0
  -12.9934    1.9605  -22.1019 C   0  0  0  0  0  0  0  0  0  0  0  0
  -16.9463    1.2093  -23.6107 C   0  0  0  0  0  0  0  0  0  0  0  0
  -17.8892    2.2865  -23.6688 C   0  0  0  0  0  0  0  0  0  0  0  0
  -15.6149    1.4882  -23.1093 C   0  0  0  0  0  0  0  0  0  0  0  0
  -19.2039    1.8202  -23.6994 C   0  0  0  0  0  0  0  0  0  0  0  0
  -11.9429    2.2943  -21.4577 O   0  0  0  0  0  0  0  0  0  0  0  0
  -19.5153    0.3863  -23.9708 C   0  0  0  0  0  0  0  0  0  0  0  0
  -13.9725    3.0002  -22.3945 O   0  0  0  0  0  0  0  0  0  0  0  0
  -14.1596   -2.0240  -23.2881 C   0  0  0  0  0  0  0  0  0  0  0  0
  -18.5486   -0.4308  -24.0416 C   0  0  0  0  0  0  0  0  0  0  0  0
  -15.1565    2.5814  -22.8412 C   0  0  0  0  0  0  0  0  0  0  0  0
  1  2  2  0
  2  3  1  0
  2  4  1  0
  3  5  2  0
  5  6  1  0
  6  7  1  0
  4  8  2  0
  8  9  1  0
  5 10  1  0
  8 10  1  0
  9 11  2  0
  7 12  2  0
 11 13  1  0
  7 14  1  0
  3 15  1  0
  4 16  1  0
 13 16  2  0
 10 17  2  0
 14 17  1  0
M  END
>  <ID>  (1) 
conformer_0

$$$$
