
     RDKit          3D

 29 34  0  0  0  0  0  0  0  0999 V2000
  -16.3902   -2.1929  -24.1148 N   0  0  0  0  0  0  0  0  0  0  0  0
  -15.2673   -1.9330  -23.6065 C   0  0  0  0  0  0  0  0  0  0  0  0
  -14.8852   -0.6995  -23.2363 C   0  0  0  0  0  0  0  0  0  0  0  0
  -16.0057    0.1379  -23.4930 C   0  0  0  0  0  0  0  0  0  0  0  0
  -17.2460   -1.0856  -24.3027 C   0  0  0  0  0  0  0  0  0  0  0  0
  -16.4430    1.4180  -23.3873 C   0  0  0  0  0  0  0  0  0  0  0  0
  -13.6866   -0.4047  -22.7746 C   0  0  0  0  0  0  0  0  0  0  0  0
  -15.5787    2.3232  -22.9928 C   0  0  0  0  0  0  0  0  0  0  0  0
  -13.1938    0.9068  -22.5102 C   0  0  0  0  0  0  0  0  0  0  0  0
  -12.1286    1.1687  -22.1453 O   0  0  0  0  0  0  0  0  0  0  0  0
  -14.2888    1.9404  -22.3826 N   0  0  0  0  0  0  0  0  0  0  0  0
  -13.8794    3.1350  -21.6498 C   0  0  0  0  0  0  0  0  0  0  0  0
  -15.9955    3.5820  -23.0317 N   0  0  0  0  0  0  0  0  0  0  0  0
  -12.5007    3.3326  -21.1656 C   0  0  0  0  0  0  0  0  0  0  0  0
  -14.4791    4.4210  -22.2216 C   0  0  0  0  0  0  0  0  0  0  0  0
  -18.3594   -0.6076  -24.5646 C   0  0  0  0  0  0  0  0  0  0  0  0
  -11.8451    4.4738  -21.6323 C   0  0  0  0  0  0  0  0  0  0  0  0
  -17.7919    1.6214  -24.0017 C   0  0  0  0  0  0  0  0  0  0  0  0
  -10.5808    4.7573  -20.9725 C   0  0  0  0  0  0  0  0  0  0  0  0
  -14.4342   -2.9438  -23.2852 N   0  0  0  0  0  0  0  0  0  0  0  0
  -13.8017    5.6518  -21.5160 C   0  0  0  0  0  0  0  0  0  0  0  0
  -12.4592    5.8260  -21.6643 C   0  0  0  0  0  0  0  0  0  0  0  0
  -10.2543    5.8091  -20.5484 O   0  0  0  0  0  0  0  0  0  0  0  0
   -9.6976    3.7107  -21.1126 O   0  0  0  0  0  0  0  0  0  0  0  0
  -12.8726   -1.4966  -22.6084 C   0  0  0  0  0  0  0  0  0  0  0  0
  -18.0997    3.0493  -23.8293 N   0  0  0  0  0  0  0  0  0  0  0  0
  -17.1657    3.9685  -23.4620 C   0  0  0  0  0  0  0  0  0  0  0  0
  -13.2113   -2.7120  -22.8051 C   0  0  0  0  0  0  0  0  0  0  0  0
  -18.6566    0.7534  -24.4404 C   0  0  0  0  0  0  0  0  0  0  0  0
  1  2  1  0
  2  3  1  0
  3  4  2  0
  1  5  2  0
  4  5  1  0
  4  6  1  0
  3  7  1  0
  6  8  1  0
  7  9  1  0
  9 10  2  0
  8 11  1  0
  9 11  1  0
 11 12  1  0
  8 13  2  0
 12 14  1  0
 12 15  1  0
  5 16  1  0
 14 17  1  0
  6 18  2  0
 17 19  1  0
  2 20  2  0
 15 21  1  0
 17 22  1  0
 21 22  1  0
 19 23  1  0
 19 24  2  0
  7 25  1  0
 18 26  1  0
 13 27  1  0
 26 27  2  0
 20 28  1  0
 25 28  2  0
 16 29  2  0
 18 29  1  0
M  END
>  <ID>  (1) 
conformer_0

$$$$
