
     RDKit          3D

 37 45  0  0  0  0  0  0  0  0999 V2000
  -18.6863   -0.9583  -24.5260 N   0  0  0  0  0  0  0  0  0  0  0  0
  -17.4171   -0.8830  -24.2086 C   0  0  0  0  0  0  0  0  0  0  0  0
  -19.4944    0.1493  -24.4486 C   0  0  0  0  0  0  0  0  0  0  0  0
  -16.5552   -1.9860  -24.3532 N   0  0  0  0  0  0  0  0  0  0  0  0
  -16.7698    0.2865  -23.7926 C   0  0  0  0  0  0  0  0  0  0  0  0
  -18.9502    1.3675  -24.0646 C   0  0  0  0  0  0  0  0  0  0  0  0
  -15.4162    0.1415  -23.4644 C   0  0  0  0  0  0  0  0  0  0  0  0
  -14.8682   -1.0720  -23.4942 C   0  0  0  0  0  0  0  0  0  0  0  0
  -14.8370    1.4061  -22.8976 N   0  0  0  0  0  0  0  0  0  0  0  0
  -15.4765    2.5226  -22.8040 C   0  0  0  0  0  0  0  0  0  0  0  0
  -14.9907    3.7130  -22.3392 C   0  0  0  0  0  0  0  0  0  0  0  0
  -15.2801    4.8490  -22.5454 C   0  0  0  0  0  0  0  0  0  0  0  0
  -15.3628   -2.0372  -23.8446 C   0  0  0  0  0  0  0  0  0  0  0  0
  -17.0016    2.5872  -23.1304 C   0  0  0  0  0  0  0  0  0  0  0  0
  -20.7445    0.3689  -24.8358 C   0  0  0  0  0  0  0  0  0  0  0  0
  -13.7730    3.5830  -21.4391 C   0  0  0  0  0  0  0  0  0  0  0  0
  -13.1453    4.5808  -20.8662 C   0  0  0  0  0  0  0  0  0  0  0  0
  -17.6080    3.8035  -23.0255 C   0  0  0  0  0  0  0  0  0  0  0  0
  -19.7899    2.4602  -24.0595 C   0  0  0  0  0  0  0  0  0  0  0  0
  -17.5905    1.3312  -23.7964 C   0  0  0  0  0  0  0  0  0  0  0  0
  -21.7453   -0.6585  -25.1902 C   0  0  0  0  0  0  0  0  0  0  0  0
  -14.5570   -3.2842  -23.8492 C   0  0  0  0  0  0  0  0  0  0  0  0
  -13.6169    5.8588  -21.2101 C   0  0  0  0  0  0  0  0  0  0  0  0
  -11.9506    4.3123  -19.9731 C   0  0  0  0  0  0  0  0  0  0  0  0
  -21.1594    1.8312  -24.6401 C   0  0  0  0  0  0  0  0  0  0  0  0
  -16.7743    4.9661  -22.8730 C   0  0  0  0  0  0  0  0  0  0  0  0
  -13.3939   -1.2807  -23.0063 C   0  0  0  0  0  0  0  0  0  0  0  0
  -12.3087   -0.5692  -22.5328 C   0  0  0  0  0  0  0  0  0  0  0  0
  -13.3277   -2.7418  -23.2613 C   0  0  0  0  0  0  0  0  0  0  0  0
  -12.9413    6.9119  -20.5735 C   0  0  0  0  0  0  0  0  0  0  0  0
  -12.1109    6.6653  -19.5864 C   0  0  0  0  0  0  0  0  0  0  0  0
  -11.6019    3.0098  -19.7956 O   0  0  0  0  0  0  0  0  0  0  0  0
  -11.4818    5.4143  -19.4051 C   0  0  0  0  0  0  0  0  0  0  0  0
  -22.8238   -0.2422  -25.7927 C   0  0  0  0  0  0  0  0  0  0  0  0
  -22.3525    2.2279  -24.9863 C   0  0  0  0  0  0  0  0  0  0  0  0
  -23.2452    1.2935  -25.6750 C   0  0  0  0  0  0  0  0  0  0  0  0
  -14.7363    6.0128  -21.9646 C   0  0  0  0  0  0  0  0  0  0  0  0
  1  2  1  0
  1  3  1  0
  2  4  1  0
  2  5  2  0
  3  6  1  0
  5  7  1  0
  7  8  2  0
  7  9  1  0
  9 10  2  0
 10 11  1  0
 11 12  2  0
  4 13  2  0
  8 13  1  0
 10 14  1  0
  3 15  2  0
 11 16  1  0
 16 17  2  0
 14 18  2  0
  6 19  1  0
  5 20  1  0
  6 20  2  0
 14 20  1  0
 15 21  1  0
 13 22  1  0
 17 23  1  0
 17 24  1  0
 15 25  1  0
 19 25  2  0
 12 26  1  0
 18 26  1  0
  8 27  1  0
 27 28  1  0
 22 29  1  0
 27 29  1  0
 23 30  1  0
 30 31  2  0
 24 32  1  0
 24 33  2  0
 31 33  1  0
 21 34  2  0
 25 35  1  0
 34 36  1  0
 35 36  2  0
 12 37  1  0
 23 37  2  0
M  END
>  <ID>  (1) 
conformer_0

$$$$
