
     RDKit          3D

 39 46  0  0  0  0  0  0  0  0999 V2000
  -18.6863   -0.9583  -24.5260 N   0  0  0  0  0  0  0  0  0  0  0  0
  -17.4171   -0.8830  -24.2086 C   0  0  0  0  0  0  0  0  0  0  0  0
  -19.4944    0.1493  -24.4486 C   0  0  0  0  0  0  0  0  0  0  0  0
  -16.5552   -1.9860  -24.3532 N   0  0  0  0  0  0  0  0  0  0  0  0
  -16.7698    0.2865  -23.7926 C   0  0  0  0  0  0  0  0  0  0  0  0
  -18.9502    1.3675  -24.0646 C   0  0  0  0  0  0  0  0  0  0  0  0
  -15.4162    0.1415  -23.4644 C   0  0  0  0  0  0  0  0  0  0  0  0
  -14.8682   -1.0720  -23.4942 C   0  0  0  0  0  0  0  0  0  0  0  0
  -14.8370    1.4061  -22.8976 N   0  0  0  0  0  0  0  0  0  0  0  0
  -15.4765    2.5226  -22.8040 C   0  0  0  0  0  0  0  0  0  0  0  0
  -14.9907    3.7130  -22.3392 C   0  0  0  0  0  0  0  0  0  0  0  0
  -15.2801    4.8490  -22.5454 C   0  0  0  0  0  0  0  0  0  0  0  0
  -15.3628   -2.0372  -23.8446 C   0  0  0  0  0  0  0  0  0  0  0  0
  -17.0016    2.5872  -23.1304 C   0  0  0  0  0  0  0  0  0  0  0  0
  -20.7445    0.3689  -24.8358 C   0  0  0  0  0  0  0  0  0  0  0  0
  -13.7730    3.5830  -21.4391 C   0  0  0  0  0  0  0  0  0  0  0  0
  -13.1453    4.5808  -20.8662 C   0  0  0  0  0  0  0  0  0  0  0  0
  -19.8382    2.4245  -24.0897 C   0  0  0  0  0  0  0  0  0  0  0  0
  -13.7653    5.8938  -21.3241 C   0  0  0  0  0  0  0  0  0  0  0  0
  -17.7074    3.6904  -23.0027 C   0  0  0  0  0  0  0  0  0  0  0  0
  -21.0470    2.4760  -24.4027 C   0  0  0  0  0  0  0  0  0  0  0  0
  -13.0853    7.0177  -20.6297 N   0  0  0  0  0  0  0  0  0  0  0  0
  -17.5778    1.3765  -23.6749 C   0  0  0  0  0  0  0  0  0  0  0  0
  -14.6913   -3.2275  -23.8978 N   0  0  0  0  0  0  0  0  0  0  0  0
  -12.0459    4.4250  -20.0556 C   0  0  0  0  0  0  0  0  0  0  0  0
  -11.2377    5.6504  -19.9009 N   0  0  0  0  0  0  0  0  0  0  0  0
  -21.9395    3.6143  -24.3879 C   0  0  0  0  0  0  0  0  0  0  0  0
  -21.6015    1.2369  -24.7979 C   0  0  0  0  0  0  0  0  0  0  0  0
  -14.7488    5.9849  -22.0336 C   0  0  0  0  0  0  0  0  0  0  0  0
  -11.2233    3.2946  -20.4052 C   0  0  0  0  0  0  0  0  0  0  0  0
  -10.0269    5.4998  -19.3356 C   0  0  0  0  0  0  0  0  0  0  0  0
   -9.9597    3.2694  -19.5324 C   0  0  0  0  0  0  0  0  0  0  0  0
   -9.2499    4.4153  -19.6651 C   0  0  0  0  0  0  0  0  0  0  0  0
  -12.1020    6.8607  -19.6882 C   0  0  0  0  0  0  0  0  0  0  0  0
  -21.9970    4.2867  -23.3144 O   0  0  0  0  0  0  0  0  0  0  0  0
  -22.7166    3.8004  -25.3894 O   0  0  0  0  0  0  0  0  0  0  0  0
  -19.0763    3.6080  -23.4483 N   0  0  0  0  0  0  0  0  0  0  0  0
  -13.3005   -0.9938  -22.9913 C   0  0  0  0  0  0  0  0  0  0  0  0
  -11.6336    7.8189  -19.0712 O   0  0  0  0  0  0  0  0  0  0  0  0
  1  2  1  0
  1  3  1  0
  2  4  1  0
  2  5  2  0
  3  6  1  0
  5  7  1  0
  7  8  2  0
  7  9  1  0
  9 10  2  0
 10 11  1  0
 11 12  2  0
  4 13  2  0
  8 13  1  0
 10 14  1  0
  3 15  2  0
 11 16  1  0
 16 17  2  0
  6 18  2  0
 17 19  1  0
 14 20  1  0
 18 21  1  0
 19 22  1  0
  5 23  1  0
  6 23  1  0
 14 23  2  0
 13 24  1  0
 17 25  1  0
 25 26  1  0
 21 27  1  0
 15 28  1  0
 21 28  2  0
 12 29  1  0
 19 29  2  0
 25 30  1  0
 26 31  1  0
 30 32  1  0
 31 33  1  0
 32 33  1  0
 22 34  1  0
 26 34  1  0
 27 35  2  0
 27 36  1  0
 18 37  1  0
 20 37  2  0
  8 38  1  0
 34 39  2  0
M  END
>  <ID>  (1) 
conformer_0

$$$$
