
     RDKit          3D

 38 43  0  0  0  0  0  0  0  0999 V2000
  -18.6863   -0.9583  -24.5260 N   0  0  0  0  0  0  0  0  0  0  0  0
  -17.4171   -0.8830  -24.2086 C   0  0  0  0  0  0  0  0  0  0  0  0
  -19.4944    0.1493  -24.4486 C   0  0  0  0  0  0  0  0  0  0  0  0
  -16.5552   -1.9860  -24.3532 N   0  0  0  0  0  0  0  0  0  0  0  0
  -16.7698    0.2865  -23.7926 C   0  0  0  0  0  0  0  0  0  0  0  0
  -18.9502    1.3675  -24.0646 C   0  0  0  0  0  0  0  0  0  0  0  0
  -15.4162    0.1415  -23.4644 C   0  0  0  0  0  0  0  0  0  0  0  0
  -14.8682   -1.0720  -23.4942 C   0  0  0  0  0  0  0  0  0  0  0  0
  -14.8370    1.4061  -22.8976 N   0  0  0  0  0  0  0  0  0  0  0  0
  -15.4765    2.5226  -22.8040 C   0  0  0  0  0  0  0  0  0  0  0  0
  -14.9907    3.7130  -22.3392 C   0  0  0  0  0  0  0  0  0  0  0  0
  -15.2801    4.8490  -22.5454 C   0  0  0  0  0  0  0  0  0  0  0  0
  -15.3628   -2.0372  -23.8446 C   0  0  0  0  0  0  0  0  0  0  0  0
  -17.0016    2.5872  -23.1304 C   0  0  0  0  0  0  0  0  0  0  0  0
  -20.7445    0.3689  -24.8358 C   0  0  0  0  0  0  0  0  0  0  0  0
  -13.7730    3.5830  -21.4391 C   0  0  0  0  0  0  0  0  0  0  0  0
  -13.1453    4.5808  -20.8662 C   0  0  0  0  0  0  0  0  0  0  0  0
  -19.8382    2.4245  -24.0897 C   0  0  0  0  0  0  0  0  0  0  0  0
  -13.7653    5.8938  -21.3241 C   0  0  0  0  0  0  0  0  0  0  0  0
  -17.7074    3.6904  -23.0027 C   0  0  0  0  0  0  0  0  0  0  0  0
  -21.0470    2.4760  -24.4027 C   0  0  0  0  0  0  0  0  0  0  0  0
  -13.0853    7.0177  -20.6297 N   0  0  0  0  0  0  0  0  0  0  0  0
  -12.1016    4.5081  -20.0180 C   0  0  0  0  0  0  0  0  0  0  0  0
  -11.9818    6.7042  -19.8910 C   0  0  0  0  0  0  0  0  0  0  0  0
  -11.5580    3.3110  -19.8279 O   0  0  0  0  0  0  0  0  0  0  0  0
  -17.5497    1.4218  -23.6596 C   0  0  0  0  0  0  0  0  0  0  0  0
  -14.7583    5.9890  -21.9010 C   0  0  0  0  0  0  0  0  0  0  0  0
  -13.3876   -1.0588  -22.9778 C   0  0  0  0  0  0  0  0  0  0  0  0
  -12.5911   -0.1879  -23.2380 O   0  0  0  0  0  0  0  0  0  0  0  0
  -11.3266    5.5401  -19.6662 C   0  0  0  0  0  0  0  0  0  0  0  0
  -10.1660    5.4828  -18.9563 C   0  0  0  0  0  0  0  0  0  0  0  0
   -9.0893    5.9333  -19.6228 C   0  0  0  0  0  0  0  0  0  0  0  0
   -8.6488    6.9519  -19.5188 O   0  0  0  0  0  0  0  0  0  0  0  0
  -11.5442    7.8664  -19.3063 O   0  0  0  0  0  0  0  0  0  0  0  0
  -21.9218    3.6178  -24.3995 O   0  0  0  0  0  0  0  0  0  0  0  0
  -13.0757   -2.0495  -22.1020 O   0  0  0  0  0  0  0  0  0  0  0  0
  -21.5471    1.4061  -24.7620 C   0  0  0  0  0  0  0  0  0  0  0  0
   -8.4630    5.1095  -20.4950 O   0  0  0  0  0  0  0  0  0  0  0  0
  1  2  1  0
  1  3  1  0
  2  4  1  0
  2  5  2  0
  3  6  1  0
  5  7  1  0
  7  8  2  0
  7  9  1  0
  9 10  2  0
 10 11  1  0
 11 12  2  0
  4 13  2  0
  8 13  1  0
 10 14  1  0
  3 15  2  0
 11 16  1  0
 16 17  2  0
  6 18  2  0
 17 19  1  0
 14 20  1  0
 18 21  1  0
 19 22  1  0
 17 23  1  0
 22 24  1  0
 23 25  1  0
  5 26  1  0
  6 26  1  0
 14 26  2  0
 12 27  1  0
 19 27  2  0
  8 28  1  0
 28 29  2  0
 23 30  2  0
 24 30  1  0
 30 31  1  0
 31 32  1  0
 32 33  2  0
 24 34  2  0
 21 35  1  0
 28 36  1  0
 15 37  1  0
 21 37  2  0
 32 38  1  0
M  END
>  <ID>  (1) 
conformer_0

$$$$
