
     RDKit          3D

 13 13  0  0  0  0  0  0  0  0999 V2000
  -22.4238   15.8891  -29.1726 C   0  0  0  0  0  0  0  0  0  0  0  0
  -21.1238   15.7891  -28.6726 O   0  0  0  0  0  0  0  0  0  0  0  0
  -19.9238   16.0891  -29.3726 C   0  0  0  0  0  0  0  0  0  0  0  0
  -18.7238   15.6891  -28.7726 C   0  0  0  0  0  0  0  0  0  0  0  0
  -20.0238   16.0891  -30.7726 C   0  0  0  0  0  0  0  0  0  0  0  0
  -21.2238   16.5891  -31.2726 O   0  0  0  0  0  0  0  0  0  0  0  0
  -18.7238   15.1891  -27.4726 O   0  0  0  0  0  0  0  0  0  0  0  0
  -17.7238   15.1891  -29.6726 C   0  0  0  0  0  0  0  0  0  0  0  0
  -18.9238   16.0891  -31.5726 C   0  0  0  0  0  0  0  0  0  0  0  0
  -17.8238   15.3891  -31.0726 C   0  0  0  0  0  0  0  0  0  0  0  0
  -19.7238   15.8891  -26.6726 C   0  0  0  0  0  0  0  0  0  0  0  0
  -16.5238   15.0891  -28.9726 O   0  0  0  0  0  0  0  0  0  0  0  0
  -16.3238   14.7891  -27.6726 C   0  0  0  0  0  0  0  0  0  0  0  0
  2  1  1  0
  3  2  1  0
  4  3  2  0
  5  3  1  0
  6  5  1  0
  7  4  1  0
  8  4  1  0
  9  5  2  0
 10  8  2  0
 10  9  1  0
 11  7  1  0
 12  8  1  0
 13 12  1  0
M  END
>  <ID>  (1) 
conformer_0

$$$$
