
     RDKit          3D

 15 16  0  0  0  0  0  0  0  0999 V2000
  -22.4238   15.8891  -29.1726 C   0  0  0  0  0  0  0  0  0  0  0  0
  -21.1238   15.7891  -28.6726 O   0  0  0  0  0  0  0  0  0  0  0  0
  -19.9238   16.0891  -29.3726 C   0  0  0  0  0  0  0  0  0  0  0  0
  -18.7238   15.6891  -28.7726 C   0  0  0  0  0  0  0  0  0  0  0  0
  -20.1238   15.9891  -30.7726 C   0  0  0  0  0  0  0  0  0  0  0  0
  -21.3238   16.7891  -31.1726 O   0  0  0  0  0  0  0  0  0  0  0  0
  -22.4238   16.8891  -30.2726 C   0  0  0  0  0  0  0  0  0  0  0  0
  -18.6238   15.2891  -27.4726 O   0  0  0  0  0  0  0  0  0  0  0  0
  -19.4238   16.1891  -26.6726 C   0  0  0  0  0  0  0  0  0  0  0  0
  -17.6238   15.3891  -29.6726 C   0  0  0  0  0  0  0  0  0  0  0  0
  -19.0238   16.0891  -31.5726 C   0  0  0  0  0  0  0  0  0  0  0  0
  -19.3238   15.8891  -32.9726 O   0  0  0  0  0  0  0  0  0  0  0  0
  -17.7238   15.9891  -30.9726 C   0  0  0  0  0  0  0  0  0  0  0  0
  -16.4238   15.5891  -29.0726 O   0  0  0  0  0  0  0  0  0  0  0  0
  -16.1238   15.1891  -27.7726 C   0  0  0  0  0  0  0  0  0  0  0  0
  2  1  1  0
  3  2  1  0
  4  3  1  0
  5  3  2  0
  6  5  1  0
  7  1  1  0
  7  6  1  0
  8  4  1  0
  9  8  1  0
 10  4  2  0
 11  5  1  0
 12 11  1  0
 13 10  1  0
 13 11  2  0
 14 10  1  0
 15 14  1  0
M  END
>  <ID>  (1) 
conformer_0

$$$$
