
     RDKit          3D

  7  7  0  0  0  0  0  0  0  0999 V2000
  -23.5989   15.0237  -29.8863 C   0  0  0  0  0  0  0  0  0  0  0  0
  -22.5989   15.2237  -28.9863 O   0  0  0  0  0  0  0  0  0  0  0  0
  -21.5989   16.1237  -28.7863 C   0  0  0  0  0  0  0  0  0  0  0  0
  -20.1989   16.0237  -28.3863 C   0  0  0  0  0  0  0  0  0  0  0  0
  -20.6989   16.4237  -29.8863 C   0  0  0  0  0  0  0  0  0  0  0  0
  -24.2989   13.7237  -29.7863 C   0  0  0  0  0  0  0  0  0  0  0  0
  -25.4989   13.7237  -30.5863 O   0  0  0  0  0  0  0  0  0  0  0  0
  2  1  1  0
  3  2  1  0
  4  3  1  0
  5  3  1  0
  5  4  1  0
  6  1  1  0
  7  6  1  0
M  END
>  <ID>  (1) 
conformer_0

$$$$
