
     RDKit          3D

 16 16  0  0  0  0  0  0  0  0999 V2000
  -22.4782   16.0681  -29.2043 C   0  0  0  0  0  0  0  0  0  0  0  0
  -21.1782   15.7681  -28.7043 O   0  0  0  0  0  0  0  0  0  0  0  0
  -20.0782   16.0681  -29.5043 C   0  0  0  0  0  0  0  0  0  0  0  0
  -18.7782   15.5681  -29.2043 C   0  0  0  0  0  0  0  0  0  0  0  0
  -20.3782   16.1681  -30.9043 C   0  0  0  0  0  0  0  0  0  0  0  0
  -21.3782   17.0681  -31.2043 O   0  0  0  0  0  0  0  0  0  0  0  0
  -19.3782   15.5681  -31.7043 C   0  0  0  0  0  0  0  0  0  0  0  0
  -18.6782   14.4681  -31.4043 C   0  0  0  0  0  0  0  0  0  0  0  0
  -18.6782   15.3681  -27.8043 O   0  0  0  0  0  0  0  0  0  0  0  0
  -19.4782   16.0681  -26.9043 C   0  0  0  0  0  0  0  0  0  0  0  0
  -18.0782   14.6681  -30.1043 C   0  0  0  0  0  0  0  0  0  0  0  0
  -18.8782   17.0681  -26.0043 C   0  0  0  0  0  0  0  0  0  0  0  0
  -17.4782   17.1681  -26.1043 O   0  0  0  0  0  0  0  0  0  0  0  0
  -16.8782   18.3681  -26.6043 C   0  0  0  0  0  0  0  0  0  0  0  0
  -15.6782   18.1681  -27.2043 C   0  0  0  0  0  0  0  0  0  0  0  0
  -14.8782   17.0681  -26.7043 O   0  0  0  0  0  0  0  0  0  0  0  0
  2  1  1  0
  3  2  1  0
  4  3  2  0
  5  3  1  0
  6  5  1  0
  7  5  2  0
  8  7  1  0
  9  4  1  0
 10  9  1  0
 11  4  1  0
 11  8  2  0
 12 10  1  0
 13 12  1  0
 14 13  1  0
 15 14  1  0
 16 15  1  0
M  END
>  <ID>  (1) 
conformer_0

$$$$
