
     RDKit          3D

 15 15  0  0  0  0  0  0  0  0999 V2000
  -22.4782   16.0681  -29.2043 C   0  0  0  0  0  0  0  0  0  0  0  0
  -21.1782   15.7681  -28.7043 O   0  0  0  0  0  0  0  0  0  0  0  0
  -20.0782   16.0681  -29.5043 C   0  0  0  0  0  0  0  0  0  0  0  0
  -20.4782   16.1681  -30.9043 C   0  0  0  0  0  0  0  0  0  0  0  0
  -18.7782   15.9681  -29.2043 C   0  0  0  0  0  0  0  0  0  0  0  0
  -21.4782   17.0681  -31.2043 O   0  0  0  0  0  0  0  0  0  0  0  0
  -18.5782   15.1681  -28.0043 O   0  0  0  0  0  0  0  0  0  0  0  0
  -17.2782   14.7681  -27.7043 C   0  0  0  0  0  0  0  0  0  0  0  0
  -19.3782   15.9681  -31.7043 C   0  0  0  0  0  0  0  0  0  0  0  0
  -17.6782   16.2681  -30.0043 C   0  0  0  0  0  0  0  0  0  0  0  0
  -18.0782   16.2681  -31.4043 C   0  0  0  0  0  0  0  0  0  0  0  0
  -17.0782   16.5681  -32.3043 N   0  0  0  0  0  0  0  0  0  0  0  0
  -16.0782   15.1681  -27.1043 C   0  0  0  0  0  0  0  0  0  0  0  0
  -16.1782   16.1681  -26.1043 O   0  0  0  0  0  0  0  0  0  0  0  0
  -17.3782   16.7681  -25.9043 C   0  0  0  0  0  0  0  0  0  0  0  0
  2  1  1  0
  3  2  1  0
  4  3  2  0
  5  3  1  0
  6  4  1  0
  7  5  1  0
  8  7  1  0
  9  4  1  0
 10  5  2  0
 11  9  2  0
 11 10  1  0
 12 11  1  0
 13  8  1  0
 14 13  1  0
 15 14  1  0
M  END
>  <ID>  (1) 
conformer_0

$$$$
