
     RDKit          3D

 16 18  0  0  0  0  0  0  0  0999 V2000
  -22.4782   16.0681  -29.2043 C   0  0  0  0  0  0  0  0  0  0  0  0
  -21.1782   15.7681  -28.7043 O   0  0  0  0  0  0  0  0  0  0  0  0
  -20.0782   16.0681  -29.5043 C   0  0  0  0  0  0  0  0  0  0  0  0
  -18.7782   15.6681  -29.1043 C   0  0  0  0  0  0  0  0  0  0  0  0
  -20.3782   16.6681  -30.7043 C   0  0  0  0  0  0  0  0  0  0  0  0
  -21.4782   17.1681  -31.1043 O   0  0  0  0  0  0  0  0  0  0  0  0
  -19.1782   17.0681  -31.5043 C   0  0  0  0  0  0  0  0  0  0  0  0
  -19.2782   17.9681  -32.5043 O   0  0  0  0  0  0  0  0  0  0  0  0
  -17.8782   16.6681  -31.1043 C   0  0  0  0  0  0  0  0  0  0  0  0
  -17.6782   15.9681  -29.9043 C   0  0  0  0  0  0  0  0  0  0  0  0
  -18.6782   15.4681  -27.7043 O   0  0  0  0  0  0  0  0  0  0  0  0
  -17.2782   14.9681  -27.6043 C   0  0  0  0  0  0  0  0  0  0  0  0
  -16.0782   15.5681  -28.1043 C   0  0  0  0  0  0  0  0  0  0  0  0
  -14.9782   15.8681  -27.2043 C   0  0  0  0  0  0  0  0  0  0  0  0
  -16.5782   14.2681  -28.5043 C   0  0  0  0  0  0  0  0  0  0  0  0
  -16.8782   16.8681  -30.2043 O   0  0  0  0  0  0  0  0  0  0  0  0
  2  1  1  0
  3  2  1  0
  4  3  1  0
  5  3  1  0
  6  5  2  0
  7  5  1  0
  8  7  1  0
  9  7  1  0
 10  4  1  0
 10  9  1  0
 11  4  1  0
 12 11  1  0
 13 12  1  0
 14 13  1  0
 15 12  1  0
 15 13  1  0
 16  9  1  0
 16 10  1  0
M  END
>  <ID>  (1) 
conformer_0

$$$$
