
     RDKit          3D

  7  8  0  0  0  0  0  0  0  0999 V2000
  -20.9390   16.0218  -30.9206 C   0  0  0  0  0  0  0  0  0  0  0  0
  -21.8390   16.2218  -29.8206 C   0  0  0  0  0  0  0  0  0  0  0  0
  -21.4390   15.8218  -28.5206 O   0  0  0  0  0  0  0  0  0  0  0  0
  -20.0390   16.1218  -28.6206 C   0  0  0  0  0  0  0  0  0  0  0  0
  -19.7390   15.2218  -30.7206 O   0  0  0  0  0  0  0  0  0  0  0  0
  -19.0390   15.7218  -29.5206 C   0  0  0  0  0  0  0  0  0  0  0  0
  -19.4390   17.1218  -29.2206 C   0  0  0  0  0  0  0  0  0  0  0  0
  2  1  2  0
  3  2  1  0
  4  3  1  0
  5  1  1  0
  6  4  1  0
  6  5  1  0
  7  4  1  0
  7  6  1  0
M  END
>  <ID>  (1) 
conformer_0

$$$$
