
     RDKit          3D

 13 13  0  0  0  0  0  0  0  0999 V2000
  -22.4782   16.0681  -29.2043 C   0  0  0  0  0  0  0  0  0  0  0  0
  -21.1782   15.7681  -28.7043 O   0  0  0  0  0  0  0  0  0  0  0  0
  -20.0782   16.0681  -29.5043 C   0  0  0  0  0  0  0  0  0  0  0  0
  -18.7782   15.6681  -29.1043 C   0  0  0  0  0  0  0  0  0  0  0  0
  -20.4782   16.2681  -30.8043 C   0  0  0  0  0  0  0  0  0  0  0  0
  -21.3782   17.2681  -31.0043 O   0  0  0  0  0  0  0  0  0  0  0  0
  -18.5782   15.1681  -27.9043 O   0  0  0  0  0  0  0  0  0  0  0  0
  -17.1782   14.8681  -27.6043 C   0  0  0  0  0  0  0  0  0  0  0  0
  -19.5782   15.8681  -31.9043 C   0  0  0  0  0  0  0  0  0  0  0  0
  -18.6782   14.7681  -31.6043 C   0  0  0  0  0  0  0  0  0  0  0  0
  -18.1782   14.7681  -30.2043 C   0  0  0  0  0  0  0  0  0  0  0  0
  -16.3782   15.8681  -26.9043 C   0  0  0  0  0  0  0  0  0  0  0  0
  -15.0782   16.2681  -27.2043 C   0  0  0  0  0  0  0  0  0  0  0  0
  2  1  1  0
  3  2  1  0
  4  3  2  0
  5  3  1  0
  6  5  1  0
  7  4  1  0
  8  7  1  0
  9  5  2  0
 10  9  1  0
 11  4  1  0
 11 10  2  0
 12  8  1  0
 13 12  1  0
M  END
>  <ID>  (1) 
conformer_0

$$$$
