
     RDKit          3D

  6  6  0  0  0  0  0  0  0  0999 V2000
  -20.9390   16.0218  -30.9206 C   0  0  0  0  0  0  0  0  0  0  0  0
  -21.8390   16.2218  -29.8206 C   0  0  0  0  0  0  0  0  0  0  0  0
  -21.4390   15.7218  -28.6206 O   0  0  0  0  0  0  0  0  0  0  0  0
  -20.0390   16.0218  -28.4206 C   0  0  0  0  0  0  0  0  0  0  0  0
  -19.6390   15.3218  -30.7206 O   0  0  0  0  0  0  0  0  0  0  0  0
  -19.1390   16.0218  -29.6206 C   0  0  0  0  0  0  0  0  0  0  0  0
  2  1  2  0
  3  2  1  0
  4  3  1  0
  5  1  1  0
  6  4  1  0
  6  5  1  0
M  END
>  <ID>  (1) 
conformer_0

$$$$
