
     RDKit          3D

 14 14  0  0  0  0  0  0  0  0999 V2000
  -22.3606   15.8520  -29.2411 C   0  0  0  0  0  0  0  0  0  0  0  0
  -21.2606   15.7520  -28.6411 O   0  0  0  0  0  0  0  0  0  0  0  0
  -22.8606   16.5520  -30.3411 C   0  0  0  0  0  0  0  0  0  0  0  0
  -23.4606   15.2520  -28.5411 C   0  0  0  0  0  0  0  0  0  0  0  0
  -24.2606   16.3520  -30.5411 O   0  0  0  0  0  0  0  0  0  0  0  0
  -24.6606   15.3520  -29.5411 C   0  0  0  0  0  0  0  0  0  0  0  0
  -19.8606   16.0520  -28.5411 C   0  0  0  0  0  0  0  0  0  0  0  0
  -19.0606   15.7520  -27.3411 C   0  0  0  0  0  0  0  0  0  0  0  0
  -19.3606   16.7520  -26.3411 O   0  0  0  0  0  0  0  0  0  0  0  0
  -18.6606   17.3520  -25.4411 C   0  0  0  0  0  0  0  0  0  0  0  0
  -17.3606   17.2520  -25.0411 C   0  0  0  0  0  0  0  0  0  0  0  0
  -16.2606   17.1520  -25.9411 O   0  0  0  0  0  0  0  0  0  0  0  0
  -19.6606   17.5520  -24.3411 O   0  0  0  0  0  0  0  0  0  0  0  0
  -20.9606   17.7520  -24.8411 C   0  0  0  0  0  0  0  0  0  0  0  0
  2  1  1  0
  3  1  1  0
  4  1  1  0
  5  3  1  0
  6  4  1  0
  6  5  1  0
  7  2  1  0
  8  7  1  0
  9  8  1  0
 10  9  1  0
 11 10  1  0
 12 11  1  0
 13 10  1  0
 14 13  1  0
M  END
>  <ID>  (1) 
conformer_0

$$$$
