
     RDKit          3D

 10 11  0  0  0  0  0  0  0  0999 V2000
  -22.3566   16.1384  -29.9932 C   0  0  0  0  0  0  0  0  0  0  0  0
  -22.0566   15.5384  -28.6932 O   0  0  0  0  0  0  0  0  0  0  0  0
  -20.9566   16.0384  -27.9932 C   0  0  0  0  0  0  0  0  0  0  0  0
  -20.9566   16.0384  -26.4932 C   0  0  0  0  0  0  0  0  0  0  0  0
  -20.2566   17.0384  -28.7932 C   0  0  0  0  0  0  0  0  0  0  0  0
  -21.1566   16.1384  -30.8932 C   0  0  0  0  0  0  0  0  0  0  0  0
  -19.9566   16.5384  -30.0932 O   0  0  0  0  0  0  0  0  0  0  0  0
  -19.0566   17.4384  -27.9932 C   0  0  0  0  0  0  0  0  0  0  0  0
  -18.8566   17.0384  -26.5932 C   0  0  0  0  0  0  0  0  0  0  0  0
  -20.3566   17.1384  -25.8932 C   0  0  0  0  0  0  0  0  0  0  0  0
  2  1  1  0
  3  2  1  0
  4  3  1  0
  5  3  1  0
  6  1  1  0
  7  5  1  0
  7  6  1  0
  8  5  1  0
  9  8  1  0
 10  4  1  0
 10  9  1  0
M  END
>  <ID>  (1) 
conformer_0

$$$$
