
     RDKit          3D

 14 14  0  0  0  0  0  0  0  0999 V2000
  -22.4782   16.0681  -29.2043 C   0  0  0  0  0  0  0  0  0  0  0  0
  -21.1782   15.7681  -28.7043 O   0  0  0  0  0  0  0  0  0  0  0  0
  -20.0782   16.0681  -29.5043 C   0  0  0  0  0  0  0  0  0  0  0  0
  -18.7782   15.6681  -29.1043 C   0  0  0  0  0  0  0  0  0  0  0  0
  -20.4782   16.2681  -30.8043 C   0  0  0  0  0  0  0  0  0  0  0  0
  -21.3782   17.2681  -31.0043 O   0  0  0  0  0  0  0  0  0  0  0  0
  -19.4782   16.0681  -31.8043 C   0  0  0  0  0  0  0  0  0  0  0  0
  -18.1782   15.5681  -31.5043 C   0  0  0  0  0  0  0  0  0  0  0  0
  -17.8782   15.2681  -30.1043 C   0  0  0  0  0  0  0  0  0  0  0  0
  -18.5782   15.2681  -27.8043 O   0  0  0  0  0  0  0  0  0  0  0  0
  -17.1782   14.9681  -27.6043 C   0  0  0  0  0  0  0  0  0  0  0  0
  -16.4782   15.8681  -26.7043 C   0  0  0  0  0  0  0  0  0  0  0  0
  -17.1782   16.7681  -26.0043 O   0  0  0  0  0  0  0  0  0  0  0  0
  -17.0782   17.3681  -24.9043 C   0  0  0  0  0  0  0  0  0  0  0  0
  2  1  1  0
  3  2  1  0
  4  3  2  0
  5  3  1  0
  6  5  1  0
  7  5  2  0
  8  7  1  0
  9  4  1  0
  9  8  2  0
 10  4  1  0
 11 10  1  0
 12 11  2  3
 13 12  1  0
 14 13  1  0
M  END
>  <ID>  (1) 
conformer_0

$$$$
