
     RDKit          3D

 15 16  0  0  0  0  0  0  0  0999 V2000
  -20.9390   16.0218  -30.9206 C   0  0  0  0  0  0  0  0  0  0  0  0
  -21.7390   16.2218  -29.8206 C   0  0  0  0  0  0  0  0  0  0  0  0
  -21.4390   15.7218  -28.6206 O   0  0  0  0  0  0  0  0  0  0  0  0
  -20.0390   16.0218  -28.4206 C   0  0  0  0  0  0  0  0  0  0  0  0
  -19.7390   15.5218  -30.8206 O   0  0  0  0  0  0  0  0  0  0  0  0
  -19.1390   15.8218  -29.5206 C   0  0  0  0  0  0  0  0  0  0  0  0
  -21.0390   17.4218  -30.3206 C   0  0  0  0  0  0  0  0  0  0  0  0
  -19.5390   15.8218  -27.1206 C   0  0  0  0  0  0  0  0  0  0  0  0
  -19.5390   16.7218  -26.0206 O   0  0  0  0  0  0  0  0  0  0  0  0
  -18.5390   17.4218  -25.5206 C   0  0  0  0  0  0  0  0  0  0  0  0
  -18.6390   17.8218  -24.2206 C   0  0  0  0  0  0  0  0  0  0  0  0
  -19.9390   18.0218  -23.7206 O   0  0  0  0  0  0  0  0  0  0  0  0
  -17.3390   16.8218  -26.1206 C   0  0  0  0  0  0  0  0  0  0  0  0
  -16.8390   17.5218  -27.3206 O   0  0  0  0  0  0  0  0  0  0  0  0
  -15.4390   17.9218  -27.4206 C   0  0  0  0  0  0  0  0  0  0  0  0
  2  1  1  0
  3  2  1  0
  4  3  1  0
  5  1  1  0
  6  4  1  0
  6  5  1  0
  7  1  1  0
  7  2  1  0
  8  4  1  0
  9  8  1  0
 10  9  1  0
 11 10  1  0
 12 11  1  0
 13 10  1  0
 14 13  1  0
 15 14  1  0
M  END
>  <ID>  (1) 
conformer_0

$$$$
