
     RDKit          3D

  5  4  0  0  0  0  0  0  0  0999 V2000
  -20.4960   16.5183  -28.9501 C   0  0  0  0  0  0  0  0  0  0  0  0
  -21.8960   16.2183  -28.6501 C   0  0  0  0  0  0  0  0  0  0  0  0
  -22.7960   15.7183  -29.6501 C   0  0  0  0  0  0  0  0  0  0  0  0
  -22.2960   17.2183  -27.7501 C   0  0  0  0  0  0  0  0  0  0  0  0
  -22.6960   18.2183  -27.0501 N   0  0  0  0  0  0  0  0  0  0  0  0
  2  1  1  0
  3  2  1  0
  4  2  1  0
  5  4  1  0
M  END
>  <ID>  (1) 
conformer_0

$$$$
