
     RDKit          3D

  6  5  0  0  0  0  0  0  0  0999 V2000
  -21.3462   17.9320  -30.8986 C   0  0  0  0  0  0  0  0  0  0  0  0
  -22.6462   17.7320  -30.1986 C   0  0  0  0  0  0  0  0  0  0  0  0
  -23.7462   17.5320  -30.9986 O   0  0  0  0  0  0  0  0  0  0  0  0
  -24.9462   16.8320  -30.5986 C   0  0  0  0  0  0  0  0  0  0  0  0
  -21.5462   19.0320  -31.8986 O   0  0  0  0  0  0  0  0  0  0  0  0
  -26.1462   17.6320  -30.2986 C   0  0  0  0  0  0  0  0  0  0  0  0
  2  1  1  0
  3  2  1  0
  4  3  1  0
  5  1  1  0
  6  4  1  0
M  END
>  <ID>  (1) 
conformer_0

$$$$
