
     RDKit          3D

 14 14  0  0  0  0  0  0  0  0999 V2000
  -22.4238   15.8891  -29.1726 C   0  0  0  0  0  0  0  0  0  0  0  0
  -21.1238   15.7891  -28.6726 O   0  0  0  0  0  0  0  0  0  0  0  0
  -19.9238   16.0891  -29.3726 C   0  0  0  0  0  0  0  0  0  0  0  0
  -18.7238   15.5891  -29.0726 C   0  0  0  0  0  0  0  0  0  0  0  0
  -20.3238   16.5891  -30.6726 C   0  0  0  0  0  0  0  0  0  0  0  0
  -21.4238   17.1891  -30.9726 O   0  0  0  0  0  0  0  0  0  0  0  0
  -18.5238   15.1891  -27.7726 O   0  0  0  0  0  0  0  0  0  0  0  0
  -19.5238   15.7891  -26.9726 C   0  0  0  0  0  0  0  0  0  0  0  0
  -19.3238   16.1891  -31.6726 C   0  0  0  0  0  0  0  0  0  0  0  0
  -19.4238   16.9891  -32.8726 O   0  0  0  0  0  0  0  0  0  0  0  0
  -18.5238   15.0891  -31.3726 C   0  0  0  0  0  0  0  0  0  0  0  0
  -17.8238   15.1891  -30.0726 C   0  0  0  0  0  0  0  0  0  0  0  0
  -18.0238   14.3891  -32.4726 O   0  0  0  0  0  0  0  0  0  0  0  0
  -18.6238   14.5891  -33.6726 C   0  0  0  0  0  0  0  0  0  0  0  0
  2  1  1  0
  3  2  1  0
  4  3  2  0
  5  3  1  0
  6  5  1  0
  7  4  1  0
  8  7  1  0
  9  5  2  0
 10  9  1  0
 11  9  1  0
 12  4  1  0
 12 11  2  0
 13 11  1  0
 14 13  1  0
M  END
>  <ID>  (1) 
conformer_0

$$$$
