
     RDKit          3D

 10 11  0  0  0  0  0  0  0  0999 V2000
  -22.1178   15.8984  -29.5709 C   0  0  0  0  0  0  0  0  0  0  0  0
  -21.3178   15.6984  -28.4709 O   0  0  0  0  0  0  0  0  0  0  0  0
  -20.0178   16.0984  -28.4709 C   0  0  0  0  0  0  0  0  0  0  0  0
  -19.2178   15.7984  -27.3709 C   0  0  0  0  0  0  0  0  0  0  0  0
  -19.4178   16.0984  -29.7709 C   0  0  0  0  0  0  0  0  0  0  0  0
  -20.0178   16.7984  -30.7709 O   0  0  0  0  0  0  0  0  0  0  0  0
  -21.3178   16.3984  -30.8709 C   0  0  0  0  0  0  0  0  0  0  0  0
  -17.9178   15.1984  -27.5709 C   0  0  0  0  0  0  0  0  0  0  0  0
  -18.0178   15.9984  -29.8709 C   0  0  0  0  0  0  0  0  0  0  0  0
  -17.3178   15.3984  -28.8709 C   0  0  0  0  0  0  0  0  0  0  0  0
  2  1  1  0
  3  2  1  0
  4  3  1  0
  5  3  2  0
  6  5  1  0
  7  1  1  0
  7  6  1  0
  8  4  2  0
  9  5  1  0
 10  8  1  0
 10  9  2  0
M  END
>  <ID>  (1) 
conformer_0

$$$$
