
     RDKit          3D

 10 12  0  0  0  0  0  0  0  0999 V2000
  -20.9390   16.0218  -30.9206 C   0  0  0  0  0  0  0  0  0  0  0  0
  -21.8390   16.2218  -29.8206 C   0  0  0  0  0  0  0  0  0  0  0  0
  -21.5390   15.6218  -28.6206 O   0  0  0  0  0  0  0  0  0  0  0  0
  -20.1390   15.9218  -28.4206 C   0  0  0  0  0  0  0  0  0  0  0  0
  -19.7390   15.3218  -30.6206 O   0  0  0  0  0  0  0  0  0  0  0  0
  -19.2390   15.9218  -29.5206 C   0  0  0  0  0  0  0  0  0  0  0  0
  -19.6390   17.1218  -28.9206 C   0  0  0  0  0  0  0  0  0  0  0  0
  -19.7390   15.7218  -27.0206 C   0  0  0  0  0  0  0  0  0  0  0  0
  -19.9390   17.0218  -26.4206 O   0  0  0  0  0  0  0  0  0  0  0  0
  -21.1390   17.3218  -30.4206 C   0  0  0  0  0  0  0  0  0  0  0  0
  2  1  1  0
  3  2  1  0
  4  3  1  0
  5  1  1  0
  6  4  1  0
  6  5  1  0
  7  4  1  0
  7  6  1  0
  8  4  1  0
  9  8  1  0
 10  1  1  0
 10  2  1  0
M  END
>  <ID>  (1) 
conformer_0

$$$$
