
     RDKit          3D

  7  6  0  0  0  0  0  0  0  0999 V2000
  -20.4874   16.4461  -30.5246 C   0  0  0  0  0  0  0  0  0  0  0  0
  -20.6874   15.7461  -29.3246 O   0  0  0  0  0  0  0  0  0  0  0  0
  -20.4874   16.0461  -28.0246 C   0  0  0  0  0  0  0  0  0  0  0  0
  -19.2874   15.7461  -27.2246 C   0  0  0  0  0  0  0  0  0  0  0  0
  -21.5874   16.3461  -27.1246 C   0  0  0  0  0  0  0  0  0  0  0  0
  -21.5874   17.3461  -30.9246 C   0  0  0  0  0  0  0  0  0  0  0  0
  -21.9874   18.2461  -29.8246 O   0  0  0  0  0  0  0  0  0  0  0  0
  2  1  1  0
  3  2  1  0
  4  3  1  0
  5  3  1  0
  6  1  1  0
  7  6  1  0
M  END
>  <ID>  (1) 
conformer_0

$$$$
