
     RDKit          3D

 11 11  0  0  0  0  0  0  0  0999 V2000
  -21.2428   16.2338  -28.8766 C   0  0  0  0  0  0  0  0  0  0  0  0
  -21.6428   16.3338  -30.2766 C   0  0  0  0  0  0  0  0  0  0  0  0
  -21.2428   15.3338  -31.1766 O   0  0  0  0  0  0  0  0  0  0  0  0
  -19.9428   15.6338  -28.8766 O   0  0  0  0  0  0  0  0  0  0  0  0
  -19.0428   15.7338  -27.7766 C   0  0  0  0  0  0  0  0  0  0  0  0
  -17.8428   15.0338  -27.8766 C   0  0  0  0  0  0  0  0  0  0  0  0
  -16.8428   15.5338  -26.9766 O   0  0  0  0  0  0  0  0  0  0  0  0
  -17.3428   16.7338  -26.3766 C   0  0  0  0  0  0  0  0  0  0  0  0
  -17.0428   17.2338  -25.1766 C   0  0  0  0  0  0  0  0  0  0  0  0
  -16.4428   18.5338  -25.0766 O   0  0  0  0  0  0  0  0  0  0  0  0
  -18.7428   16.9338  -26.8766 C   0  0  0  0  0  0  0  0  0  0  0  0
  2  1  1  0
  3  2  1  0
  4  1  1  0
  5  4  1  0
  6  5  2  0
  7  6  1  0
  8  7  1  0
  9  8  1  0
 10  9  1  0
 11  5  1  0
 11  8  2  0
M  END
>  <ID>  (1) 
conformer_0

$$$$
