
     RDKit          3D

 12 13  0  0  0  0  0  0  0  0999 V2000
  -20.7419   16.0274  -30.8331 C   0  0  0  0  0  0  0  0  0  0  0  0
  -21.8419   16.2274  -29.9331 C   0  0  0  0  0  0  0  0  0  0  0  0
  -21.6419   15.7274  -28.6331 O   0  0  0  0  0  0  0  0  0  0  0  0
  -20.2419   16.0274  -28.3331 C   0  0  0  0  0  0  0  0  0  0  0  0
  -19.4419   15.6274  -30.4331 O   0  0  0  0  0  0  0  0  0  0  0  0
  -19.1419   15.8274  -29.1331 C   0  0  0  0  0  0  0  0  0  0  0  0
  -19.6419   17.2274  -28.8331 C   0  0  0  0  0  0  0  0  0  0  0  0
  -18.6419   17.7274  -27.8331 O   0  0  0  0  0  0  0  0  0  0  0  0
  -23.0419   16.9274  -30.3331 C   0  0  0  0  0  0  0  0  0  0  0  0
  -23.4419   17.8274  -29.2331 O   0  0  0  0  0  0  0  0  0  0  0  0
  -20.7419   17.3274  -31.5331 C   0  0  0  0  0  0  0  0  0  0  0  0
  -19.6419   17.3274  -32.4331 O   0  0  0  0  0  0  0  0  0  0  0  0
  2  1  1  0
  3  2  1  0
  4  3  1  0
  5  1  1  0
  6  4  1  0
  6  5  1  0
  7  4  1  0
  7  6  1  0
  8  7  1  0
  9  2  1  0
 10  9  1  0
 11  1  1  0
 12 11  1  0
M  END
>  <ID>  (1) 
conformer_0

$$$$
