
     RDKit          3D

  4  3  0  0  0  0  0  0  0  0999 V2000
  -21.3462   17.9320  -30.8986 C   0  0  0  0  0  0  0  0  0  0  0  0
  -22.6462   17.7320  -30.1986 C   0  0  0  0  0  0  0  0  0  0  0  0
  -23.6462   17.5320  -30.9986 O   0  0  0  0  0  0  0  0  0  0  0  0
  -22.8462   18.3320  -29.0986 N   0  0  0  0  0  0  0  0  0  0  0  0
  2  1  1  0
  3  2  2  0
  4  2  1  0
M  END
>  <ID>  (1) 
conformer_0

$$$$
