
     RDKit          3D

  6  5  0  0  0  0  0  0  0  0999 V2000
  -22.3606   15.8520  -29.2411 C   0  0  0  0  0  0  0  0  0  0  0  0
  -21.5606   17.0520  -29.5411 C   0  0  0  0  0  0  0  0  0  0  0  0
  -22.2606   18.1520  -30.0411 O   0  0  0  0  0  0  0  0  0  0  0  0
  -23.4606   17.6520  -30.6411 C   0  0  0  0  0  0  0  0  0  0  0  0
  -22.9606   15.2520  -30.3411 O   0  0  0  0  0  0  0  0  0  0  0  0
  -23.9606   14.2520  -30.1411 C   0  0  0  0  0  0  0  0  0  0  0  0
  2  1  1  0
  3  2  1  0
  4  3  1  0
  5  1  1  0
  6  5  1  0
M  END
>  <ID>  (1) 
conformer_0

$$$$
