
     RDKit          3D

 15 15  0  0  0  0  0  0  0  0999 V2000
  -22.4238   15.8891  -29.1726 C   0  0  0  0  0  0  0  0  0  0  0  0
  -21.1238   15.7891  -28.6726 O   0  0  0  0  0  0  0  0  0  0  0  0
  -19.9238   16.0891  -29.3726 C   0  0  0  0  0  0  0  0  0  0  0  0
  -18.7238   15.6891  -28.7726 C   0  0  0  0  0  0  0  0  0  0  0  0
  -20.1238   16.0891  -30.7726 C   0  0  0  0  0  0  0  0  0  0  0  0
  -21.1238   16.8891  -31.2726 O   0  0  0  0  0  0  0  0  0  0  0  0
  -18.6238   15.3891  -27.4726 O   0  0  0  0  0  0  0  0  0  0  0  0
  -19.7238   15.7891  -26.6726 C   0  0  0  0  0  0  0  0  0  0  0  0
  -17.8238   15.0891  -29.7726 C   0  0  0  0  0  0  0  0  0  0  0  0
  -19.1238   15.5891  -31.6726 C   0  0  0  0  0  0  0  0  0  0  0  0
  -18.2238   14.6891  -31.0726 C   0  0  0  0  0  0  0  0  0  0  0  0
  -16.7238   14.4891  -29.2726 O   0  0  0  0  0  0  0  0  0  0  0  0
  -16.2238   14.7891  -27.9726 C   0  0  0  0  0  0  0  0  0  0  0  0
  -19.5238   15.3891  -32.9726 O   0  0  0  0  0  0  0  0  0  0  0  0
  -15.0238   15.2891  -27.5726 C   0  0  0  0  0  0  0  0  0  0  0  0
  2  1  1  0
  3  2  1  0
  4  3  2  0
  5  3  1  0
  6  5  1  0
  7  4  1  0
  8  7  1  0
  9  4  1  0
 10  5  2  0
 11  9  2  0
 11 10  1  0
 12  9  1  0
 13 12  1  0
 14 10  1  0
 15 13  2  0
M  END
>  <ID>  (1) 
conformer_0

$$$$
