
     RDKit          3D

 12 12  0  0  0  0  0  0  0  0999 V2000
  -22.4782   16.0681  -29.2043 C   0  0  0  0  0  0  0  0  0  0  0  0
  -21.1782   15.7681  -28.7043 O   0  0  0  0  0  0  0  0  0  0  0  0
  -20.0782   16.0681  -29.5043 C   0  0  0  0  0  0  0  0  0  0  0  0
  -18.7782   15.5681  -29.2043 C   0  0  0  0  0  0  0  0  0  0  0  0
  -20.3782   16.1681  -30.9043 C   0  0  0  0  0  0  0  0  0  0  0  0
  -21.4782   17.0681  -31.1043 O   0  0  0  0  0  0  0  0  0  0  0  0
  -18.4782   15.2681  -28.0043 O   0  0  0  0  0  0  0  0  0  0  0  0
  -17.9782   15.6681  -30.4043 C   0  0  0  0  0  0  0  0  0  0  0  0
  -19.6782   15.4681  -31.8043 C   0  0  0  0  0  0  0  0  0  0  0  0
  -17.1782   14.7681  -27.7043 C   0  0  0  0  0  0  0  0  0  0  0  0
  -18.4782   14.8681  -31.5043 C   0  0  0  0  0  0  0  0  0  0  0  0
  -16.0782   15.2681  -26.9043 C   0  0  0  0  0  0  0  0  0  0  0  0
  2  1  1  0
  3  2  1  0
  4  3  2  0
  5  3  1  0
  6  5  1  0
  7  4  1  0
  8  4  1  0
  9  5  2  0
 10  7  1  0
 11  8  2  0
 11  9  1  0
 12 10  1  0
M  END
>  <ID>  (1) 
conformer_0

$$$$
