
     RDKit          3D

 10 11  0  0  0  0  0  0  0  0999 V2000
  -20.9390   16.0218  -30.9206 C   0  0  0  0  0  0  0  0  0  0  0  0
  -21.7390   16.2218  -29.8206 C   0  0  0  0  0  0  0  0  0  0  0  0
  -21.9390   15.6218  -28.7206 O   0  0  0  0  0  0  0  0  0  0  0  0
  -22.4390   17.5218  -29.9206 C   0  0  0  0  0  0  0  0  0  0  0  0
  -20.5390   17.2218  -31.4206 O   0  0  0  0  0  0  0  0  0  0  0  0
  -21.3390   18.3218  -30.8206 C   0  0  0  0  0  0  0  0  0  0  0  0
  -22.1390   16.5218  -27.6206 C   0  0  0  0  0  0  0  0  0  0  0  0
  -22.7390   17.8218  -27.5206 C   0  0  0  0  0  0  0  0  0  0  0  0
  -23.0390   18.2218  -28.9206 O   0  0  0  0  0  0  0  0  0  0  0  0
  -20.7390   14.9218  -31.8206 O   0  0  0  0  0  0  0  0  0  0  0  0
  2  1  1  0
  3  2  1  0
  4  2  1  0
  5  1  1  0
  6  4  1  0
  6  5  1  0
  7  3  1  0
  8  7  1  0
  9  4  1  0
  9  8  1  0
 10  1  2  0
M  END
>  <ID>  (1) 
conformer_0

$$$$
