
     RDKit          3D

  4  3  0  0  0  0  0  0  0  0999 V2000
  -20.4960   16.5183  -28.9501 C   0  0  0  0  0  0  0  0  0  0  0  0
  -21.8960   16.2183  -28.6501 C   0  0  0  0  0  0  0  0  0  0  0  0
  -22.6960   15.6183  -29.7501 C   0  0  0  0  0  0  0  0  0  0  0  0
  -22.6960   16.7183  -27.5501 C   0  0  0  0  0  0  0  0  0  0  0  0
  2  1  1  0
  3  2  1  0
  4  2  1  0
M  END
>  <ID>  (1) 
conformer_0

$$$$
