
     RDKit          3D

  9  9  0  0  0  0  0  0  0  0999 V2000
  -22.4238   15.8891  -29.1726 C   0  0  0  0  0  0  0  0  0  0  0  0
  -21.1238   15.7891  -28.6726 O   0  0  0  0  0  0  0  0  0  0  0  0
  -20.0238   16.0891  -29.3726 C   0  0  0  0  0  0  0  0  0  0  0  0
  -18.8238   15.5891  -29.5726 C   0  0  0  0  0  0  0  0  0  0  0  0
  -20.5238   16.2891  -30.7726 C   0  0  0  0  0  0  0  0  0  0  0  0
  -19.6238   15.8891  -31.7726 C   0  0  0  0  0  0  0  0  0  0  0  0
  -21.6238   17.0891  -31.0726 O   0  0  0  0  0  0  0  0  0  0  0  0
  -19.1238   14.5891  -31.6726 C   0  0  0  0  0  0  0  0  0  0  0  0
  -18.1238   14.6891  -30.4726 C   0  0  0  0  0  0  0  0  0  0  0  0
  2  1  1  0
  3  2  1  0
  4  3  2  0
  5  3  1  0
  6  5  2  0
  7  5  1  0
  8  6  1  0
  9  4  1  0
  9  8  2  0
M  END
>  <ID>  (1) 
conformer_0

$$$$
