
     RDKit          3D

 14 16  0  0  0  0  0  0  0  0999 V2000
  -22.4782   16.0681  -29.2043 C   0  0  0  0  0  0  0  0  0  0  0  0
  -21.1782   15.7681  -28.7043 O   0  0  0  0  0  0  0  0  0  0  0  0
  -20.0782   16.0681  -29.5043 C   0  0  0  0  0  0  0  0  0  0  0  0
  -18.7782   15.5681  -29.2043 C   0  0  0  0  0  0  0  0  0  0  0  0
  -20.3782   16.1681  -30.9043 C   0  0  0  0  0  0  0  0  0  0  0  0
  -21.4782   17.0681  -31.1043 O   0  0  0  0  0  0  0  0  0  0  0  0
  -18.4782   15.1681  -28.0043 O   0  0  0  0  0  0  0  0  0  0  0  0
  -17.1782   15.2681  -27.4043 C   0  0  0  0  0  0  0  0  0  0  0  0
  -19.4782   15.4681  -31.7043 C   0  0  0  0  0  0  0  0  0  0  0  0
  -17.7782   16.1681  -30.0043 C   0  0  0  0  0  0  0  0  0  0  0  0
  -18.0782   15.8681  -31.5043 C   0  0  0  0  0  3  0  0  0  0  0  0
  -18.1782   17.1681  -30.8043 O   0  0  0  0  0  0  0  0  0  0  0  0
  -16.0782   15.7681  -28.2043 C   0  0  0  0  0  0  0  0  0  0  0  0
  -16.4782   15.9681  -29.6043 O   0  0  0  0  0  0  0  0  0  0  0  0
  2  1  1  0
  3  2  1  0
  4  3  2  0
  5  3  1  0
  6  5  1  0
  7  4  1  0
  8  7  1  0
  9  5  2  0
 10  4  1  0
 11  9  1  0
 11 10  1  0
 12 10  1  0
 12 11  1  0
 13  8  1  0
 14 10  1  0
 14 13  1  0
M  END
>  <ID>  (1) 
conformer_0

$$$$
