
     RDKit          3D

  5  4  0  0  0  0  0  0  0  0999 V2000
  -23.7377   15.2096  -29.9793 C   0  0  0  0  0  0  0  0  0  0  0  0
  -22.7377   15.1096  -28.9793 O   0  0  0  0  0  0  0  0  0  0  0  0
  -21.7377   16.1096  -28.8793 C   0  0  0  0  0  0  0  0  0  0  0  0
  -20.5377   16.1096  -28.0793 C   0  0  0  0  0  0  0  0  0  0  0  0
  -21.8377   16.9096  -30.0793 C   0  0  0  0  0  0  0  0  0  0  0  0
  2  1  1  0
  3  2  1  0
  4  3  1  0
  5  3  1  0
M  END
>  <ID>  (1) 
conformer_0

$$$$
