
     RDKit          3D

 15 14  0  0  0  0  0  0  0  0999 V2000
  -20.8181   15.8631  -30.9249 C   0  0  0  0  0  0  0  0  0  0  0  0
  -22.1181   16.0631  -30.3249 C   0  0  0  0  0  0  0  0  0  0  0  0
  -22.4181   15.5631  -29.1249 O   0  0  0  0  0  0  0  0  0  0  0  0
  -23.6181   14.7631  -28.8249 C   0  0  0  0  0  0  0  0  0  0  0  0
  -19.7181   15.7631  -30.0249 O   0  0  0  0  0  0  0  0  0  0  0  0
  -18.8181   16.8631  -29.9249 C   0  0  0  0  0  0  0  0  0  0  0  0
  -17.8181   16.8631  -28.8249 C   0  0  0  0  0  0  0  0  0  0  0  0
  -18.1181   17.6631  -27.7249 O   0  0  0  0  0  0  0  0  0  0  0  0
  -17.1181   18.5631  -27.2249 C   0  0  0  0  0  0  0  0  0  0  0  0
  -17.4181   19.2631  -26.0249 C   0  0  0  0  0  0  0  0  0  0  0  0
  -18.5181   18.9631  -25.2249 O   0  0  0  0  0  0  0  0  0  0  0  0
  -18.7181   18.1631  -24.2249 C   0  0  0  0  0  0  0  0  0  0  0  0
  -20.0181   18.0631  -23.6249 C   0  0  0  0  0  0  0  0  0  0  0  0
  -21.1181   18.6631  -24.0249 O   0  0  0  0  0  0  0  0  0  0  0  0
  -17.5181   17.8631  -23.4249 C   0  0  0  0  0  0  0  0  0  0  0  0
  2  1  1  0
  3  2  1  0
  4  3  1  0
  5  1  1  0
  6  5  1  0
  7  6  1  0
  8  7  1  0
  9  8  1  0
 10  9  2  3
 11 10  1  0
 12 11  1  0
 13 12  1  0
 14 13  1  0
 15 12  1  0
M  END
>  <ID>  (1) 
conformer_0

$$$$
