
     RDKit          3D

 11 11  0  0  0  0  0  0  0  0999 V2000
  -20.9390   16.0218  -30.9206 C   0  0  0  0  0  0  0  0  0  0  0  0
  -21.8390   16.2218  -29.8206 C   0  0  0  0  0  0  0  0  0  0  0  0
  -21.0390   15.8218  -28.6206 O   0  0  0  0  0  0  0  0  0  0  0  0
  -19.7390   16.1218  -28.8206 C   0  0  0  0  0  0  0  0  0  0  0  0
  -20.0390   17.0218  -31.1206 O   0  0  0  0  0  0  0  0  0  0  0  0
  -19.3390   17.1218  -29.8206 C   0  0  0  0  0  0  0  0  0  0  0  0
  -18.9390   15.7218  -27.6206 C   0  0  0  0  0  0  0  0  0  0  0  0
  -19.1390   16.4218  -26.4206 O   0  0  0  0  0  0  0  0  0  0  0  0
  -18.5390   17.4218  -25.6206 C   0  0  0  0  0  0  0  0  0  0  0  0
  -17.2390   17.3218  -25.1206 C   0  0  0  0  0  0  0  0  0  0  0  0
  -16.3390   16.7218  -26.1206 O   0  0  0  0  0  0  0  0  0  0  0  0
  2  1  1  0
  3  2  1  0
  4  3  1  0
  5  1  1  0
  6  4  1  0
  6  5  1  0
  7  4  1  0
  8  7  1  0
  9  8  1  0
 10  9  1  0
 11 10  1  0
M  END
>  <ID>  (1) 
conformer_0

$$$$
