
     RDKit          3D

  6  6  0  0  0  0  0  0  0  0999 V2000
  -20.4874   16.4461  -30.5246 C   0  0  0  0  0  0  0  0  0  0  0  0
  -20.3874   15.8461  -29.2246 O   0  0  0  0  0  0  0  0  0  0  0  0
  -21.6874   15.9461  -28.6246 C   0  0  0  0  0  0  0  0  0  0  0  0
  -21.5874   17.3461  -30.7246 C   0  0  0  0  0  0  0  0  0  0  0  0
  -21.9874   18.0461  -29.6246 O   0  0  0  0  0  0  0  0  0  0  0  0
  -21.9874   17.4461  -28.4246 C   0  0  0  0  0  0  0  0  0  0  0  0
  2  1  1  0
  3  2  1  0
  4  1  1  0
  5  4  1  0
  6  3  1  0
  6  5  1  0
M  END
>  <ID>  (1) 
conformer_0

$$$$
