
     RDKit          3D

 14 17  0  0  0  0  0  0  0  0999 V2000
  -20.9390   16.0218  -30.9206 C   0  0  0  0  0  0  0  0  0  0  0  0
  -21.8390   16.2218  -29.8206 C   0  0  0  0  0  0  0  0  0  0  0  0
  -21.5390   15.7218  -28.6206 O   0  0  0  0  0  0  0  0  0  0  0  0
  -20.1390   16.0218  -28.3206 C   0  0  0  0  0  0  0  0  0  0  0  0
  -19.6390   15.4218  -30.6206 O   0  0  0  0  0  0  0  0  0  0  0  0
  -19.2390   15.9218  -29.4206 C   0  0  0  0  0  0  0  0  0  0  0  0
  -19.7390   17.2218  -29.0206 C   0  0  0  0  0  0  0  0  0  0  0  0
  -21.3390   17.2218  -30.5206 C   0  0  0  0  0  0  0  0  0  0  0  0
  -20.5390   18.1218  -29.8206 O   0  0  0  0  0  0  0  0  0  0  0  0
  -19.5390   15.8218  -27.0206 C   0  0  0  0  0  0  0  0  0  0  0  0
  -18.8390   16.8218  -26.2206 O   0  0  0  0  0  0  0  0  0  0  0  0
  -17.3390   16.8218  -26.2206 C   0  0  0  0  0  0  0  0  0  0  0  0
  -16.8390   17.5218  -25.0206 C   0  0  0  0  0  0  0  0  0  0  0  0
  -17.7390   17.3218  -23.9206 O   0  0  0  0  0  0  0  0  0  0  0  0
  2  1  1  0
  3  2  1  0
  4  3  1  0
  5  1  1  0
  6  4  1  0
  6  5  1  0
  7  4  1  0
  7  6  1  0
  8  1  1  0
  8  2  1  0
  9  7  1  0
  9  8  1  0
 10  4  1  0
 11 10  1  0
 12 11  1  0
 13 12  1  0
 14 13  1  0
M  END
>  <ID>  (1) 
conformer_0

$$$$
