
     RDKit          3D

 13 13  0  0  0  0  0  0  0  0999 V2000
  -22.4782   16.0681  -29.2043 C   0  0  0  0  0  0  0  0  0  0  0  0
  -21.1782   15.7681  -28.7043 O   0  0  0  0  0  0  0  0  0  0  0  0
  -20.0782   16.0681  -29.5043 C   0  0  0  0  0  0  0  0  0  0  0  0
  -18.7782   15.5681  -29.2043 C   0  0  0  0  0  0  0  0  0  0  0  0
  -20.3782   16.1681  -30.9043 C   0  0  0  0  0  0  0  0  0  0  0  0
  -21.3782   17.0681  -31.2043 O   0  0  0  0  0  0  0  0  0  0  0  0
  -19.3782   15.5681  -31.7043 C   0  0  0  0  0  0  0  0  0  0  0  0
  -18.6782   14.4681  -31.4043 C   0  0  0  0  0  0  0  0  0  0  0  0
  -18.0782   14.6681  -30.1043 C   0  0  0  0  0  0  0  0  0  0  0  0
  -18.5782   15.2681  -27.8043 O   0  0  0  0  0  0  0  0  0  0  0  0
  -17.1782   14.7681  -27.7043 C   0  0  0  0  0  0  0  0  0  0  0  0
  -16.1782   15.4681  -27.0043 C   0  0  0  0  0  0  0  0  0  0  0  0
  -14.7782   15.0681  -27.3043 C   0  0  0  0  0  0  0  0  0  0  0  0
  2  1  1  0
  3  2  1  0
  4  3  2  0
  5  3  1  0
  6  5  1  0
  7  5  2  0
  8  7  1  0
  9  4  1  0
  9  8  2  0
 10  4  1  0
 11 10  1  0
 12 11  2  3
 13 12  1  0
M  END
>  <ID>  (1) 
conformer_0

$$$$
