
     RDKit          3D

 15 16  0  0  0  0  0  0  0  0999 V2000
  -22.4782   16.0681  -29.2043 C   0  0  0  0  0  0  0  0  0  0  0  0
  -21.1782   15.7681  -28.7043 O   0  0  0  0  0  0  0  0  0  0  0  0
  -20.0782   16.0681  -29.5043 C   0  0  0  0  0  0  0  0  0  0  0  0
  -18.7782   15.5681  -29.2043 C   0  0  0  0  0  0  0  0  0  0  0  0
  -20.3782   16.1681  -30.9043 C   0  0  0  0  0  0  0  0  0  0  0  0
  -21.3782   17.0681  -31.2043 O   0  0  0  0  0  0  0  0  0  0  0  0
  -19.3782   15.5681  -31.7043 C   0  0  0  0  0  0  0  0  0  0  0  0
  -18.5782   14.5681  -31.4043 C   0  0  0  0  0  0  0  0  0  0  0  0
  -18.5782   15.3681  -27.8043 O   0  0  0  0  0  0  0  0  0  0  0  0
  -19.4782   15.9681  -26.9043 C   0  0  0  0  0  0  0  0  0  0  0  0
  -17.8782   14.8681  -30.1043 C   0  0  0  0  0  0  0  0  0  0  0  0
  -19.0782   17.0681  -26.0043 C   0  0  0  0  0  0  0  0  0  0  0  0
  -17.8782   16.9681  -25.5043 O   0  0  0  0  0  0  0  0  0  0  0  0
  -17.4782   17.6681  -24.4043 C   0  0  0  0  0  0  0  0  0  0  0  0
  -19.6782   17.3681  -27.3043 C   0  0  0  0  0  0  0  0  0  0  0  0
  2  1  1  0
  3  2  1  0
  4  3  2  0
  5  3  1  0
  6  5  1  0
  7  5  2  0
  8  7  1  0
  9  4  1  0
 10  9  1  0
 11  4  1  0
 11  8  2  0
 12 10  1  0
 13 12  1  0
 14 13  1  0
 15 10  1  0
 15 12  1  0
M  END
>  <ID>  (1) 
conformer_0

$$$$
