
     RDKit          3D

  9 10  0  0  0  0  0  0  0  0999 V2000
  -18.8398   18.4672  -27.0431 C   0  0  0  0  0  0  0  0  0  0  0  0
  -18.0398   19.2672  -27.7431 C   0  0  0  0  0  0  0  0  0  0  0  0
  -16.6398   19.1672  -27.6431 C   0  0  0  0  0  0  0  0  0  0  0  0
  -18.4398   17.3672  -26.2431 C   0  0  0  0  0  0  0  0  0  0  0  0
  -17.0398   17.0672  -26.4431 C   0  0  0  0  0  0  0  0  0  0  0  0
  -16.8398   16.7672  -27.8431 C   0  0  0  0  0  0  0  0  0  0  0  0
  -16.2398   17.8672  -27.3431 C   0  0  0  0  0  0  0  0  0  0  0  0
  -18.7398   17.4672  -24.8431 O   0  0  0  0  0  0  0  0  0  0  0  0
  -20.1398   17.8672  -24.5431 C   0  0  0  0  0  0  0  0  0  0  0  0
  2  1  2  0
  3  2  1  0
  4  1  1  0
  5  4  2  0
  6  5  1  0
  7  3  2  0
  7  5  1  0
  7  6  1  0
  8  4  1  0
  9  8  1  0
M  END
>  <ID>  (1) 
conformer_0

$$$$
