
     RDKit          3D

 16 16  0  0  0  0  0  0  0  0999 V2000
  -22.4782   16.0681  -29.2043 C   0  0  0  0  0  0  0  0  0  0  0  0
  -21.1782   15.7681  -28.7043 O   0  0  0  0  0  0  0  0  0  0  0  0
  -20.0782   16.0681  -29.5043 C   0  0  0  0  0  0  0  0  0  0  0  0
  -20.4782   16.1681  -30.9043 C   0  0  0  0  0  0  0  0  0  0  0  0
  -18.8782   15.5681  -29.2043 C   0  0  0  0  0  0  0  0  0  0  0  0
  -21.4782   17.0681  -31.2043 O   0  0  0  0  0  0  0  0  0  0  0  0
  -19.7782   15.4681  -31.8043 C   0  0  0  0  0  0  0  0  0  0  0  0
  -18.6782   15.4681  -27.8043 O   0  0  0  0  0  0  0  0  0  0  0  0
  -19.5782   15.9681  -26.8043 C   0  0  0  0  0  0  0  0  0  0  0  0
  -17.8782   15.5681  -30.2043 C   0  0  0  0  0  0  0  0  0  0  0  0
  -18.4782   15.0681  -31.5043 C   0  0  0  0  0  0  0  0  0  0  0  0
  -19.2782   17.0681  -25.9043 C   0  0  0  0  0  0  0  0  0  0  0  0
  -17.8782   17.0681  -25.6043 O   0  0  0  0  0  0  0  0  0  0  0  0
  -17.7782   17.5681  -24.2043 C   0  0  0  0  0  0  0  0  0  0  0  0
  -17.5782   14.8681  -32.5043 N   0  0  0  0  0  0  0  0  0  0  0  0
  -17.7782   14.0681  -33.6043 C   0  0  0  0  0  0  0  0  0  0  0  0
  2  1  1  0
  3  2  1  0
  4  3  2  0
  5  3  1  0
  6  4  1  0
  7  4  1  0
  8  5  1  0
  9  8  1  0
 10  5  2  0
 11  7  2  0
 11 10  1  0
 12  9  1  0
 13 12  1  0
 14 13  1  0
 15 11  1  0
 16 15  1  0
M  END
>  <ID>  (1) 
conformer_0

$$$$
