
     RDKit          3D

 15 15  0  0  0  0  0  0  0  0999 V2000
  -22.4238   15.8891  -29.1726 C   0  0  0  0  0  0  0  0  0  0  0  0
  -21.1238   15.7891  -28.6726 O   0  0  0  0  0  0  0  0  0  0  0  0
  -19.9238   16.0891  -29.3726 C   0  0  0  0  0  0  0  0  0  0  0  0
  -18.7238   15.6891  -28.7726 C   0  0  0  0  0  0  0  0  0  0  0  0
  -20.0238   16.0891  -30.7726 C   0  0  0  0  0  0  0  0  0  0  0  0
  -20.9238   16.8891  -31.3726 O   0  0  0  0  0  0  0  0  0  0  0  0
  -18.7238   15.1891  -27.5726 O   0  0  0  0  0  0  0  0  0  0  0  0
  -17.7238   15.1891  -29.7726 C   0  0  0  0  0  0  0  0  0  0  0  0
  -19.1238   15.2891  -31.5726 C   0  0  0  0  0  0  0  0  0  0  0  0
  -18.1238   14.5891  -30.9726 C   0  0  0  0  0  0  0  0  0  0  0  0
  -19.6238   15.9891  -26.7726 C   0  0  0  0  0  0  0  0  0  0  0  0
  -16.5238   14.8891  -29.0726 O   0  0  0  0  0  0  0  0  0  0  0  0
  -16.2238   15.6891  -27.9726 C   0  0  0  0  0  0  0  0  0  0  0  0
  -19.1238   15.4891  -32.9726 O   0  0  0  0  0  0  0  0  0  0  0  0
  -18.0238   14.5891  -33.3726 C   0  0  0  0  0  0  0  0  0  0  0  0
  2  1  1  0
  3  2  1  0
  4  3  2  0
  5  3  1  0
  6  5  1  0
  7  4  1  0
  8  4  1  0
  9  5  2  0
 10  8  2  0
 10  9  1  0
 11  7  1  0
 12  8  1  0
 13 12  1  0
 14  9  1  0
 15 14  1  0
M  END
>  <ID>  (1) 
conformer_0

$$$$
