
     RDKit          3D

 16 18  0  0  0  0  0  0  0  0999 V2000
  -22.4782   16.0681  -29.2043 C   0  0  0  0  0  0  0  0  0  0  0  0
  -21.1782   15.7681  -28.7043 O   0  0  0  0  0  0  0  0  0  0  0  0
  -20.0782   16.0681  -29.5043 C   0  0  0  0  0  0  0  0  0  0  0  0
  -18.7782   15.6681  -29.1043 C   0  0  0  0  0  0  0  0  0  0  0  0
  -20.3782   16.6681  -30.7043 C   0  0  0  0  0  0  0  0  0  0  0  0
  -21.5782   17.2681  -31.0043 O   0  0  0  0  0  0  0  0  0  0  0  0
  -19.1782   17.0681  -31.4043 C   0  0  0  0  0  0  0  0  0  0  0  0
  -19.4782   17.8681  -32.6043 O   0  0  0  0  0  0  0  0  0  0  0  0
  -17.9782   17.3681  -30.7043 C   0  0  0  0  0  0  0  0  0  0  0  0
  -17.6782   16.5681  -29.5043 C   0  0  0  0  0  0  0  0  0  0  0  0
  -18.6782   15.2681  -27.8043 O   0  0  0  0  0  0  0  0  0  0  0  0
  -17.2782   15.2681  -27.4043 C   0  0  0  0  0  0  0  0  0  0  0  0
  -16.0782   16.0681  -27.8043 C   0  0  0  0  0  0  0  0  0  0  0  0
  -15.0782   16.2681  -26.8043 C   0  0  0  0  0  0  0  0  0  0  0  0
  -16.3782   14.7681  -28.3043 C   0  0  0  0  0  0  0  0  0  0  0  0
  -16.5782   17.1681  -28.7043 C   0  0  0  0  0  0  0  0  0  0  0  0
  2  1  1  0
  3  2  1  0
  4  3  2  0
  5  3  1  0
  6  5  1  0
  7  5  2  0
  8  7  1  0
  9  7  1  0
 10  4  1  0
 10  9  2  0
 11  4  1  0
 12 11  1  0
 13 12  1  0
 14 13  1  0
 15 12  1  0
 15 13  1  0
 16 10  1  0
 16 13  1  0
M  END
>  <ID>  (1) 
conformer_0

$$$$
