
     RDKit          3D

 16 16  0  0  0  0  0  0  0  0999 V2000
  -22.4238   15.8891  -29.1726 C   0  0  0  0  0  0  0  0  0  0  0  0
  -21.1238   15.7891  -28.6726 O   0  0  0  0  0  0  0  0  0  0  0  0
  -19.9238   16.0891  -29.3726 C   0  0  0  0  0  0  0  0  0  0  0  0
  -18.7238   15.5891  -29.0726 C   0  0  0  0  0  0  0  0  0  0  0  0
  -20.3238   16.5891  -30.6726 C   0  0  0  0  0  0  0  0  0  0  0  0
  -21.4238   17.1891  -30.9726 O   0  0  0  0  0  0  0  0  0  0  0  0
  -18.5238   15.1891  -27.7726 O   0  0  0  0  0  0  0  0  0  0  0  0
  -19.4238   15.8891  -26.8726 C   0  0  0  0  0  0  0  0  0  0  0  0
  -19.5238   15.9891  -31.6726 C   0  0  0  0  0  0  0  0  0  0  0  0
  -17.8238   15.3891  -30.1726 C   0  0  0  0  0  0  0  0  0  0  0  0
  -18.2238   15.4891  -31.4726 C   0  0  0  0  0  0  0  0  0  0  0  0
  -19.7238   16.5891  -32.9726 O   0  0  0  0  0  0  0  0  0  0  0  0
  -18.7238   16.7891  -25.9726 C   0  0  0  0  0  0  0  0  0  0  0  0
  -17.3238   16.6891  -25.9726 O   0  0  0  0  0  0  0  0  0  0  0  0
  -16.6238   17.7891  -26.0726 C   0  0  0  0  0  0  0  0  0  0  0  0
  -15.2238   17.6891  -26.4726 C   0  0  0  0  0  0  0  0  0  0  0  0
  2  1  1  0
  3  2  1  0
  4  3  2  0
  5  3  1  0
  6  5  1  0
  7  4  1  0
  8  7  1  0
  9  5  2  0
 10  4  1  0
 11  9  1  0
 11 10  2  0
 12  9  1  0
 13  8  1  0
 14 13  1  0
 15 14  1  0
 16 15  1  0
M  END
>  <ID>  (1) 
conformer_0

$$$$
