
     RDKit          3D

 16 17  0  0  0  0  0  0  0  0999 V2000
  -22.4238   15.8891  -29.1726 C   0  0  0  0  0  0  0  0  0  0  0  0
  -21.1238   15.7891  -28.6726 O   0  0  0  0  0  0  0  0  0  0  0  0
  -19.9238   16.0891  -29.3726 C   0  0  0  0  0  0  0  0  0  0  0  0
  -18.7238   15.6891  -28.7726 C   0  0  0  0  0  0  0  0  0  0  0  0
  -20.1238   16.0891  -30.7726 C   0  0  0  0  0  0  0  0  0  0  0  0
  -21.1238   16.8891  -31.2726 O   0  0  0  0  0  0  0  0  0  0  0  0
  -18.7238   15.1891  -27.4726 O   0  0  0  0  0  0  0  0  0  0  0  0
  -17.7238   15.1891  -29.6726 C   0  0  0  0  0  0  0  0  0  0  0  0
  -19.2238   15.1891  -31.4726 C   0  0  0  0  0  0  0  0  0  0  0  0
  -17.9238   15.0891  -31.0726 C   0  0  0  0  0  0  0  0  0  0  0  0
  -19.7238   15.7891  -26.6726 C   0  0  0  0  0  0  0  0  0  0  0  0
  -19.6238   15.0891  -32.8726 O   0  0  0  0  0  0  0  0  0  0  0  0
  -16.4238   15.5891  -29.1726 O   0  0  0  0  0  0  0  0  0  0  0  0
  -16.4238   16.2891  -28.0726 C   0  0  0  0  0  0  0  0  0  0  0  0
  -15.3238   17.0891  -27.6726 C   0  0  0  0  0  0  0  0  0  0  0  0
  -15.6238   15.8891  -26.8726 C   0  0  0  0  0  0  0  0  0  0  0  0
  2  1  1  0
  3  2  1  0
  4  3  2  0
  5  3  1  0
  6  5  1  0
  7  4  1  0
  8  4  1  0
  9  5  2  0
 10  8  2  0
 10  9  1  0
 11  7  1  0
 12  9  1  0
 13  8  1  0
 14 13  1  0
 15 14  1  0
 16 14  1  0
 16 15  1  0
M  END
>  <ID>  (1) 
conformer_0

$$$$
