
     RDKit          3D

 13 13  0  0  0  0  0  0  0  0999 V2000
  -22.4782   16.0681  -29.2043 C   0  0  0  0  0  0  0  0  0  0  0  0
  -21.1782   15.7681  -28.7043 O   0  0  0  0  0  0  0  0  0  0  0  0
  -20.0782   16.0681  -29.5043 C   0  0  0  0  0  0  0  0  0  0  0  0
  -18.7782   15.5681  -29.2043 C   0  0  0  0  0  0  0  0  0  0  0  0
  -20.3782   16.1681  -30.9043 C   0  0  0  0  0  0  0  0  0  0  0  0
  -21.4782   17.0681  -31.1043 O   0  0  0  0  0  0  0  0  0  0  0  0
  -18.4782   15.2681  -28.0043 O   0  0  0  0  0  0  0  0  0  0  0  0
  -17.0782   15.1681  -27.6043 C   0  0  0  0  0  0  0  0  0  0  0  0
  -19.0782   16.1681  -31.6043 C   0  0  0  0  0  0  0  0  0  0  0  0
  -18.5782   14.8681  -31.6043 C   0  0  0  0  0  0  0  0  0  0  0  0
  -18.1782   14.6681  -30.2043 C   0  0  0  0  0  0  0  0  0  0  0  0
  -16.4782   15.8681  -26.5043 C   0  0  0  0  0  0  0  0  0  0  0  0
  -17.2782   16.9681  -26.1043 O   0  0  0  0  0  0  0  0  0  0  0  0
  2  1  1  0
  3  2  1  0
  4  3  2  0
  5  3  1  0
  6  5  1  0
  7  4  1  0
  8  7  1  0
  9  5  2  0
 10  9  1  0
 11  4  1  0
 11 10  2  0
 12  8  1  0
 13 12  1  0
M  END
>  <ID>  (1) 
conformer_0

$$$$
