
     RDKit          3D

 10 11  0  0  0  0  0  0  0  0999 V2000
  -18.8398   18.4672  -27.0431 C   0  0  0  0  0  0  0  0  0  0  0  0
  -18.0398   19.2672  -27.7431 C   0  0  0  0  0  0  0  0  0  0  0  0
  -16.6398   19.1672  -27.6431 C   0  0  0  0  0  0  0  0  0  0  0  0
  -18.2398   17.3672  -26.3431 C   0  0  0  0  0  0  0  0  0  0  0  0
  -16.9398   16.8672  -26.8431 C   0  0  0  0  0  0  0  0  0  0  0  0
  -16.2398   17.7672  -27.7431 C   0  0  0  0  0  0  0  0  0  0  0  0
  -17.2398   16.9672  -28.2431 C   0  0  0  0  0  0  0  0  0  0  0  0
  -18.5398   17.3672  -24.9431 N   0  0  0  0  0  0  0  0  0  0  0  0
  -19.7398   18.1672  -24.6431 C   0  0  0  0  0  0  0  0  0  0  0  0
  -17.2398   17.3672  -24.2431 C   0  0  0  0  0  0  0  0  0  0  0  0
  2  1  2  0
  3  2  1  0
  4  1  1  0
  5  4  2  0
  6  3  2  0
  6  5  1  0
  7  5  1  0
  7  6  1  0
  8  4  1  0
  9  8  1  0
 10  8  1  0
M  END
>  <ID>  (1) 
conformer_0

$$$$
