
     RDKit          3D

 13 13  0  0  0  0  0  0  0  0999 V2000
  -22.3606   15.8520  -29.2411 C   0  0  0  0  0  0  0  0  0  0  0  0
  -21.2606   15.7520  -28.6411 O   0  0  0  0  0  0  0  0  0  0  0  0
  -22.8606   16.5520  -30.3411 C   0  0  0  0  0  0  0  0  0  0  0  0
  -23.4606   15.2520  -28.5411 C   0  0  0  0  0  0  0  0  0  0  0  0
  -24.2606   16.3520  -30.5411 O   0  0  0  0  0  0  0  0  0  0  0  0
  -24.7606   15.5520  -29.5411 C   0  0  0  0  0  0  0  0  0  0  0  0
  -21.3606   16.1520  -27.2411 C   0  0  0  0  0  0  0  0  0  0  0  0
  -19.9606   16.0520  -26.7411 C   0  0  0  0  0  0  0  0  0  0  0  0
  -18.9606   15.7520  -27.6411 O   0  0  0  0  0  0  0  0  0  0  0  0
  -17.8606   14.9520  -27.7411 C   0  0  0  0  0  0  0  0  0  0  0  0
  -16.5606   15.3520  -27.2411 C   0  0  0  0  0  0  0  0  0  0  0  0
  -16.6606   16.3520  -26.1411 O   0  0  0  0  0  0  0  0  0  0  0  0
  -15.7606   17.4520  -26.1411 C   0  0  0  0  0  0  0  0  0  0  0  0
  2  1  1  0
  3  1  2  0
  4  1  1  0
  5  3  1  0
  6  4  2  0
  6  5  1  0
  7  2  1  0
  8  7  1  0
  9  8  1  0
 10  9  1  0
 11 10  1  0
 12 11  1  0
 13 12  1  0
M  END
>  <ID>  (1) 
conformer_0

$$$$
