
     RDKit          3D

 16 17  0  0  0  0  0  0  0  0999 V2000
  -21.7663   15.6463  -28.3167 O   0  0  0  0  0  0  0  0  0  0  0  0
  -22.9663   15.5463  -28.9167 C   0  0  0  0  0  0  0  0  0  0  0  0
  -20.5663   16.1463  -28.9167 C   0  0  0  0  0  0  0  0  0  0  0  0
  -19.3663   15.7463  -28.4167 C   0  0  0  0  0  0  0  0  0  0  0  0
  -20.7663   16.3463  -30.3167 C   0  0  0  0  0  0  0  0  0  0  0  0
  -21.8663   16.8463  -30.8167 O   0  0  0  0  0  0  0  0  0  0  0  0
  -19.5663   15.9463  -31.1167 C   0  0  0  0  0  0  0  0  0  0  0  0
  -18.3663   15.9463  -30.6167 C   0  0  0  0  0  0  0  0  0  0  0  0
  -18.2663   15.4463  -29.2167 C   0  0  0  0  0  0  0  0  0  0  0  0
  -19.1663   15.6463  -27.0168 O   0  0  0  0  0  0  0  0  0  0  0  0
  -17.7663   15.9463  -26.8167 C   0  0  0  0  0  0  0  0  0  0  0  0
  -19.6663   16.3463  -32.5168 O   0  0  0  0  0  0  0  0  0  0  0  0
  -17.2663   16.9463  -25.8167 C   0  0  0  0  0  0  0  0  0  0  0  0
  -16.6663   15.2463  -27.4167 C   0  0  0  0  0  0  0  0  0  0  0  0
  -17.1663   14.8463  -28.7167 O   0  0  0  0  0  0  0  0  0  0  0  0
  -18.1663   18.0463  -25.9167 O   0  0  0  0  0  0  0  0  0  0  0  0
  2  1  1  0
  3  1  1  0
  4  3  2  0
  5  3  1  0
  6  5  1  0
  7  5  2  0
  8  7  1  0
  9  4  1  0
  9  8  2  0
 10  4  1  0
 11 10  1  0
 12  7  1  0
 13 11  1  0
 14 11  1  0
 15  9  1  0
 15 14  1  0
 16 13  1  0
M  END
>  <ID>  (1) 
conformer_0

$$$$
