
     RDKit          3D

 12 14  0  0  0  0  0  0  0  0999 V2000
  -20.9513   17.5081  -30.8291 C   0  0  0  0  0  0  0  0  0  0  0  0
  -20.1513   18.6081  -31.0291 O   0  0  0  0  0  0  0  0  0  0  0  0
  -20.2513   19.6081  -30.1291 C   0  0  0  0  0  0  0  0  0  0  0  0
  -21.8513   17.6081  -29.7291 C   0  0  0  0  0  0  0  0  0  0  0  0
  -21.6513   18.4081  -28.5291 N   0  0  0  0  0  0  0  0  0  0  0  0
  -20.3513   19.1081  -28.7291 C   0  0  0  0  0  0  0  0  0  0  0  0
  -21.8513   17.8081  -27.2291 C   0  0  0  0  0  0  0  0  0  0  0  0
  -22.2513   16.4081  -27.4291 C   0  0  0  0  0  0  0  0  0  0  0  0
  -22.0513   15.6081  -28.5291 O   0  0  0  0  0  0  0  0  0  0  0  0
  -22.6513   16.4081  -29.6291 C   0  0  0  0  0  0  0  0  0  0  0  0
  -23.3513   17.4081  -27.6291 C   0  0  0  0  0  0  0  0  0  0  0  0
  -20.7513   16.4081  -31.2291 O   0  0  0  0  0  0  0  0  0  0  0  0
  2  1  1  0
  3  2  1  0
  4  1  1  0
  5  4  1  0
  6  3  1  0
  6  5  1  0
  7  5  1  0
  8  7  1  0
  9  8  1  0
 10  4  1  0
 10  9  1  0
 11  7  1  0
 11  8  1  0
 12  1  2  0
M  END
>  <ID>  (1) 
conformer_0

$$$$
