
     RDKit          3D

 16 17  0  0  0  0  0  0  0  0999 V2000
  -21.7663   15.6463  -28.3167 O   0  0  0  0  0  0  0  0  0  0  0  0
  -22.9663   15.5463  -28.9167 C   0  0  0  0  0  0  0  0  0  0  0  0
  -20.5663   16.1463  -28.9167 C   0  0  0  0  0  0  0  0  0  0  0  0
  -19.3663   15.7463  -28.4167 C   0  0  0  0  0  0  0  0  0  0  0  0
  -20.7663   16.3463  -30.3167 C   0  0  0  0  0  0  0  0  0  0  0  0
  -19.4663   16.4463  -31.0168 C   0  0  0  0  0  0  0  0  0  0  0  0
  -19.6663   16.6463  -32.4168 O   0  0  0  0  0  0  0  0  0  0  0  0
  -18.4663   17.0463  -30.3167 C   0  0  0  0  0  0  0  0  0  0  0  0
  -18.2663   16.5463  -29.0168 C   0  0  0  0  0  0  0  0  0  0  0  0
  -17.0663   16.4463  -28.3167 O   0  0  0  0  0  0  0  0  0  0  0  0
  -17.1663   15.5463  -27.2167 C   0  0  0  0  0  0  0  0  0  0  0  0
  -15.9663   14.8463  -26.9167 C   0  0  0  0  0  0  0  0  0  0  0  0
  -21.7663   15.5463  -30.9167 O   0  0  0  0  0  0  0  0  0  0  0  0
  -22.9663   15.4463  -30.3167 C   0  0  0  0  0  0  0  0  0  0  0  0
  -19.4663   15.9463  -27.0168 O   0  0  0  0  0  0  0  0  0  0  0  0
  -20.4663   16.4463  -26.2168 C   0  0  0  0  0  0  0  0  0  0  0  0
  2  1  1  0
  3  1  1  0
  4  3  2  0
  5  3  1  0
  6  5  2  0
  7  6  1  0
  8  6  1  0
  9  4  1  0
  9  8  2  0
 10  9  1  0
 11 10  1  0
 12 11  1  0
 13  5  1  0
 14  2  2  0
 14 13  1  0
 15  4  1  0
 16 15  1  0
M  END
>  <ID>  (1) 
conformer_0

$$$$
