
     RDKit          3D

  8  8  0  0  0  0  0  0  0  0999 V2000
  -20.4287   16.6344  -30.5163 C   0  0  0  0  0  0  0  0  0  0  0  0
  -21.8287   16.2344  -30.2163 C   0  0  0  0  0  0  0  0  0  0  0  0
  -20.2287   17.9344  -30.8163 O   0  0  0  0  0  0  0  0  0  0  0  0
  -21.8287   15.4344  -29.0163 O   0  0  0  0  0  0  0  0  0  0  0  0
  -23.2287   15.3344  -28.6163 C   0  0  0  0  0  0  0  0  0  0  0  0
  -23.9287   15.2344  -29.9163 C   0  0  0  0  0  0  0  0  0  0  0  0
  -24.1287   16.5344  -30.4163 O   0  0  0  0  0  0  0  0  0  0  0  0
  -22.9287   17.3344  -30.1163 C   0  0  0  0  0  0  0  0  0  0  0  0
  2  1  1  0
  3  1  1  0
  4  2  1  0
  5  4  1  0
  6  5  1  0
  7  6  1  0
  8  2  1  0
  8  7  1  0
M  END
>  <ID>  (1) 
conformer_0

$$$$
