
     RDKit          3D

 11 13  0  0  0  0  0  0  0  0999 V2000
  -18.8398   18.4672  -27.0431 C   0  0  0  0  0  0  0  0  0  0  0  0
  -18.0398   19.2672  -27.7431 C   0  0  0  0  0  0  0  0  0  0  0  0
  -16.6398   19.1672  -27.6431 C   0  0  0  0  0  0  0  0  0  0  0  0
  -18.4398   17.3672  -26.2431 C   0  0  0  0  0  0  0  0  0  0  0  0
  -17.0398   17.0672  -26.4431 C   0  0  0  0  0  0  0  0  0  0  0  0
  -16.8398   16.7672  -27.8431 C   0  0  0  0  0  0  0  0  0  0  0  0
  -16.2398   17.8672  -27.3431 C   0  0  0  0  0  0  0  0  0  0  0  0
  -18.9398   17.3672  -24.9431 O   0  0  0  0  0  0  0  0  0  0  0  0
  -20.2398   18.5672  -27.1431 O   0  0  0  0  0  0  0  0  0  0  0  0
  -21.0398   17.9672  -26.0431 C   0  0  0  0  0  0  0  0  0  0  0  0
  -20.3398   17.7672  -24.8431 C   0  0  0  0  0  0  0  0  0  0  0  0
  2  1  2  0
  3  2  1  0
  4  1  1  0
  5  4  2  0
  6  5  1  0
  7  3  2  0
  7  5  1  0
  7  6  1  0
  8  4  1  0
  9  1  1  0
 10  9  1  0
 11  8  1  0
 11 10  1  0
M  END
>  <ID>  (1) 
conformer_0

$$$$
