
     RDKit          3D

  7  6  0  0  0  0  0  0  0  0999 V2000
   -3.8731  -16.7640  -12.2213 C   0  0  0  0  0  0  0  0  0  0  0  0
   -3.3731  -15.5640  -12.6213 O   0  0  0  0  0  0  0  0  0  0  0  0
   -3.1731  -17.9640  -12.6213 C   0  0  0  0  0  0  0  0  0  0  0  0
   -2.2731  -17.5640  -13.7213 C   0  0  0  0  0  0  0  0  0  0  0  0
   -4.3731  -16.8640  -10.8213 C   0  0  0  0  0  0  0  0  0  0  0  0
   -4.1731  -15.7640   -9.9213 C   0  0  0  0  0  0  0  0  0  0  0  0
   -3.9731  -18.1640  -10.2213 C   0  0  0  0  0  0  0  0  0  0  0  0
  2  1  1  0
  3  1  1  0
  4  3  1  0
  5  1  1  0
  6  5  1  0
  7  5  1  0
M  END
>  <ID>  (1) 
conformer_0

$$$$
