
     RDKit          3D

 15 15  0  0  0  0  0  0  0  0999 V2000
   -2.5964  -17.4793  -14.7092 O   0  0  0  0  0  0  0  0  0  0  0  0
   -2.6964  -17.6793  -13.3092 C   0  0  0  0  0  0  0  0  0  0  0  0
   -3.4964  -16.8793  -12.5092 C   0  0  0  0  0  0  0  0  0  0  0  0
   -3.3964  -15.4793  -12.9092 O   0  0  0  0  0  0  0  0  0  0  0  0
   -3.8964  -16.9793  -11.1092 C   0  0  0  0  0  0  0  0  0  0  0  0
   -4.0964  -15.8793  -10.4092 C   0  0  0  0  0  0  0  0  0  0  0  0
   -4.6964  -15.8793   -9.1092 C   0  0  0  0  0  0  0  0  0  0  0  0
   -5.5964  -16.7793   -8.9092 C   0  0  0  0  0  0  0  0  0  0  0  0
   -1.7964  -18.5793  -12.6092 C   0  0  0  0  0  0  0  0  0  0  0  0
   -0.6964  -19.0793  -13.3092 O   0  0  0  0  0  0  0  0  0  0  0  0
   -1.7964  -18.3793  -11.3092 O   0  0  0  0  0  0  0  0  0  0  0  0
   -1.0964  -19.1793  -10.3092 C   0  0  0  0  0  0  0  0  0  0  0  0
   -5.7964  -17.8793   -9.8092 C   0  0  0  0  0  0  0  0  0  0  0  0
   -5.1964  -17.8793  -11.0092 C   0  0  0  0  0  0  0  0  0  0  0  0
   -6.6964  -16.4793   -8.1092 F   0  0  0  0  0  0  0  0  0  0  0  0
  2  1  1  0
  3  2  1  0
  4  3  1  0
  5  3  1  0
  6  5  2  0
  7  6  1  0
  8  7  2  0
  9  2  1  0
 10  9  2  0
 11  9  1  0
 12 11  1  0
 13  8  1  0
 14  5  1  0
 14 13  2  0
 15  8  1  0
M  END
>  <ID>  (1) 
conformer_0

$$$$
