
     RDKit          3D

 12 13  0  0  0  0  0  0  0  0999 V2000
   -2.8554  -15.4628  -12.8619 O   0  0  0  0  0  0  0  0  0  0  0  0
   -3.4554  -16.6628  -12.4619 C   0  0  0  0  0  0  0  0  0  0  0  0
   -2.8554  -17.7628  -13.0619 C   0  0  0  0  0  0  0  0  0  0  0  0
   -4.1554  -16.6628  -11.2619 C   0  0  0  0  0  0  0  0  0  0  0  0
   -2.7554  -17.7628  -14.4619 O   0  0  0  0  0  0  0  0  0  0  0  0
   -2.9554  -18.9628  -12.4619 C   0  0  0  0  0  0  0  0  0  0  0  0
   -3.7554  -17.7628  -10.4619 C   0  0  0  0  0  0  0  0  0  0  0  0
   -2.3554  -18.0628  -10.3619 C   0  0  0  0  0  0  0  0  0  0  0  0
   -3.1554  -18.8628  -11.0619 C   0  0  0  0  0  0  0  0  0  0  0  0
   -1.4554  -18.0628   -9.2619 O   0  0  0  0  0  0  0  0  0  0  0  0
   -1.7554  -17.0628   -8.4619 C   0  0  0  0  0  0  0  0  0  0  0  0
   -4.0554  -15.3628  -10.6619 O   0  0  0  0  0  0  0  0  0  0  0  0
  2  1  1  0
  3  2  2  0
  4  2  1  0
  5  3  1  0
  6  3  1  0
  7  4  2  0
  8  7  1  0
  9  6  2  0
  9  7  1  0
  9  8  1  0
 10  8  1  0
 11 10  1  0
 12  4  1  0
M  END
>  <ID>  (1) 
conformer_0

$$$$
