
     RDKit          3D

 22 23  0  0  0  0  0  0  0  0999 V2000
   -2.8025  -17.5731  -14.7543 O   0  0  0  0  0  0  0  0  0  0  0  0
   -2.5025  -17.7731  -13.3543 C   0  0  0  0  0  0  0  0  0  0  0  0
   -3.2025  -17.1731  -12.3543 C   0  0  0  0  0  0  0  0  0  0  0  0
   -4.0025  -16.1731  -12.7543 O   0  0  0  0  0  0  0  0  0  0  0  0
   -2.9025  -17.5731  -11.0543 C   0  0  0  0  0  0  0  0  0  0  0  0
   -1.5025  -18.7731  -12.9543 C   0  0  0  0  0  0  0  0  0  0  0  0
   -1.7025  -18.1731  -10.6543 C   0  0  0  0  0  0  0  0  0  0  0  0
   -1.1025  -18.9731  -11.6543 C   0  0  0  0  0  0  0  0  0  0  0  0
    0.1975  -19.6731  -11.4543 C   0  0  0  0  0  0  0  0  0  0  0  0
    0.4975  -20.8731  -12.2543 C   0  0  0  0  0  0  0  0  0  0  0  0
   -3.7025  -17.2731   -9.9543 O   0  0  0  0  0  0  0  0  0  0  0  0
   -4.7025  -16.2731   -9.9543 C   0  0  0  0  0  0  0  0  0  0  0  0
   -5.5025  -16.2731   -8.8543 C   0  0  0  0  0  0  0  0  0  0  0  0
   -6.8025  -15.5731   -8.6543 C   0  0  0  0  0  0  0  0  0  0  0  0
    1.4975  -21.6731  -11.5543 C   0  0  0  0  0  0  0  0  0  0  0  0
   -8.0025  -16.1731   -8.7543 C   0  0  0  0  0  0  0  0  0  0  0  0
   -3.8025  -15.3731  -10.2543 O   0  0  0  0  0  0  0  0  0  0  0  0
    2.3975  -20.9731  -10.7543 O   0  0  0  0  0  0  0  0  0  0  0  0
   -6.8025  -14.6731   -7.6543 O   0  0  0  0  0  0  0  0  0  0  0  0
    0.9975  -22.9731  -11.0543 C   0  0  0  0  0  0  0  0  0  0  0  0
   -8.1025  -14.1731   -7.4543 C   0  0  0  0  0  0  0  0  0  0  0  0
   -8.8025  -15.0731   -8.2543 O   0  0  0  0  0  0  0  0  0  0  0  0
  2  1  1  0
  3  2  2  0
  4  3  1  0
  5  3  1  0
  6  2  1  0
  7  5  2  0
  8  6  2  0
  8  7  1  0
  9  8  1  0
 10  9  1  0
 11  5  1  0
 12 11  1  0
 13 12  1  0
 14 13  1  0
 15 10  1  0
 16 14  1  0
 17 12  2  0
 18 15  1  0
 19 14  1  0
 20 15  1  0
 21 19  1  0
 22 16  1  0
 22 21  1  0
M  END
>  <ID>  (1) 
conformer_0

$$$$
