
     RDKit          3D

 12 12  0  0  0  0  0  0  0  0999 V2000
   -2.7537  -17.7011  -14.5658 O   0  0  0  0  0  0  0  0  0  0  0  0
   -2.6537  -17.6011  -13.1658 C   0  0  0  0  0  0  0  0  0  0  0  0
   -2.7537  -18.7011  -12.4658 C   0  0  0  0  0  0  0  0  0  0  0  0
   -3.3537  -16.5011  -12.5658 C   0  0  0  0  0  0  0  0  0  0  0  0
   -3.9537  -16.7011  -11.3658 C   0  0  0  0  0  0  0  0  0  0  0  0
   -3.3537  -17.6011  -10.4658 C   0  0  0  0  0  0  0  0  0  0  0  0
   -2.8537  -18.8011  -11.0658 C   0  0  0  0  0  0  0  0  0  0  0  0
   -3.0537  -17.2011   -9.0658 C   0  0  0  0  0  0  0  0  0  0  0  0
   -4.0537  -16.1011   -8.8658 C   0  0  0  0  0  0  0  0  0  0  0  0
   -5.3537  -16.5011   -9.3658 C   0  0  0  0  0  0  0  0  0  0  0  0
   -6.4537  -15.9011   -8.5658 C   0  0  0  0  0  0  0  0  0  0  0  0
   -7.5537  -15.2011   -8.9658 C   0  0  0  0  0  0  0  0  0  0  0  0
  2  1  1  0
  3  2  2  0
  4  2  1  0
  5  4  2  0
  6  5  1  0
  7  3  1  0
  7  6  2  0
  8  6  1  0
  9  8  1  0
 10  9  1  0
 11 10  1  0
 12 11  2  0
M  END
>  <ID>  (1) 
conformer_0

$$$$
