
     RDKit          3D

 18 20  0  0  0  0  0  0  0  0999 V2000
   -3.1621  -15.7202  -12.8582 O   0  0  0  0  0  0  0  0  0  0  0  0
   -3.2621  -17.1202  -12.5582 C   0  0  0  0  0  0  0  0  0  0  0  0
   -2.4621  -18.0202  -13.2582 C   0  0  0  0  0  0  0  0  0  0  0  0
   -3.7621  -17.5202  -11.2582 C   0  0  0  0  0  0  0  0  0  0  0  0
   -2.6621  -17.7202  -14.6582 O   0  0  0  0  0  0  0  0  0  0  0  0
   -1.7621  -19.0202  -12.5582 C   0  0  0  0  0  0  0  0  0  0  0  0
   -1.8621  -19.0202  -11.1582 C   0  0  0  0  0  0  0  0  0  0  0  0
   -2.7621  -18.2202  -10.4582 C   0  0  0  0  0  0  0  0  0  0  0  0
   -4.2621  -16.4202  -10.4582 O   0  0  0  0  0  0  0  0  0  0  0  0
   -3.8621  -16.5202   -9.0582 C   0  0  0  0  0  0  0  0  0  0  0  0
   -4.9621  -16.1202   -8.1582 C   0  0  0  0  0  0  0  0  0  0  0  0
   -6.1621  -15.8202   -8.9582 C   0  0  0  0  0  0  0  0  0  0  0  0
   -7.2621  -15.1202   -8.3582 C   0  0  0  0  0  0  0  0  0  0  0  0
   -6.8621  -17.1202   -9.1582 C   0  0  0  0  0  0  0  0  0  0  0  0
   -2.6621  -17.0202   -8.3582 C   0  0  0  0  0  0  0  0  0  0  0  0
   -2.0621  -17.9202   -9.2582 O   0  0  0  0  0  0  0  0  0  0  0  0
   -8.3621  -15.5202   -8.2582 O   0  0  0  0  0  0  0  0  0  0  0  0
   -8.1621  -14.3202   -8.2582 C   0  0  0  0  0  0  0  0  0  0  0  0
  2  1  1  0
  3  2  2  0
  4  2  1  0
  5  3  1  0
  6  3  1  0
  7  6  2  0
  8  4  2  0
  8  7  1  0
  9  4  1  0
 10  9  1  0
 11 10  1  0
 12 11  1  0
 13 12  1  0
 14 12  1  0
 15 10  1  0
 16  8  1  0
 16 15  1  0
 17 13  1  0
 18 13  1  0
 18 17  1  0
M  END
>  <ID>  (1) 
conformer_0

$$$$
