
     RDKit          3D

  9  8  0  0  0  0  0  0  0  0999 V2000
   -2.8954  -17.7051  -14.8150 O   0  0  0  0  0  0  0  0  0  0  0  0
   -2.2954  -17.6051  -13.5150 C   0  0  0  0  0  0  0  0  0  0  0  0
   -3.2954  -17.4051  -12.4150 C   0  0  0  0  0  0  0  0  0  0  0  0
   -2.8954  -18.1051  -11.2150 C   0  0  0  0  0  0  0  0  0  0  0  0
   -3.1954  -17.5051   -9.9150 C   0  0  0  0  0  0  0  0  0  0  0  0
   -3.9954  -16.3050  -10.2150 C   0  0  0  0  0  0  0  0  0  0  0  0
   -4.9954  -15.9051   -9.2150 C   0  0  0  0  0  0  0  0  0  0  0  0
   -6.2954  -16.0051   -8.8150 C   0  0  0  0  0  0  0  0  0  0  0  0
   -7.2954  -15.0051   -8.8150 C   0  0  0  0  0  0  0  0  0  0  0  0
  2  1  1  0
  3  2  1  0
  4  3  1  0
  5  4  1  0
  6  5  1  0
  7  6  1  0
  8  7  1  0
  9  8  1  0
M  END
>  <ID>  (1) 
conformer_0

$$$$
