
     RDKit          3D

 12 12  0  0  0  0  0  0  0  0999 V2000
   -3.0369  -17.9060  -14.3329 O   0  0  0  0  0  0  0  0  0  0  0  0
   -2.7369  -18.0060  -12.9329 C   0  0  0  0  0  0  0  0  0  0  0  0
   -1.5369  -18.7060  -12.5329 C   0  0  0  0  0  0  0  0  0  0  0  0
   -3.7369  -17.6060  -11.9329 C   0  0  0  0  0  0  0  0  0  0  0  0
   -0.5369  -18.6060  -13.5329 O   0  0  0  0  0  0  0  0  0  0  0  0
   -1.2369  -18.6060  -11.1329 C   0  0  0  0  0  0  0  0  0  0  0  0
   -2.2369  -18.2060  -10.2329 C   0  0  0  0  0  0  0  0  0  0  0  0
   -3.2369  -17.3060  -10.6329 C   0  0  0  0  0  0  0  0  0  0  0  0
   -4.3369  -16.9060   -9.7329 C   0  0  0  0  0  0  0  0  0  0  0  0
   -4.8369  -15.7060   -9.2329 C   0  0  0  0  0  0  0  0  0  0  0  0
   -6.1369  -15.9060   -8.5329 C   0  0  0  0  0  0  0  0  0  0  0  0
   -7.4369  -15.3060   -8.7329 C   0  0  0  0  0  0  0  0  0  0  0  0
  2  1  1  0
  3  2  2  0
  4  2  1  0
  5  3  1  0
  6  3  1  0
  7  6  2  0
  8  4  2  0
  8  7  1  0
  9  8  1  0
 10  9  1  0
 11 10  1  0
 12 11  1  0
M  END
>  <ID>  (1) 
conformer_0

$$$$
