
     RDKit          3D

 10 11  0  0  0  0  0  0  0  0999 V2000
   -2.5964  -17.4793  -14.7092 O   0  0  0  0  0  0  0  0  0  0  0  0
   -1.9964  -17.5793  -13.4092 C   0  0  0  0  0  0  0  0  0  0  0  0
   -3.0964  -17.7793  -12.4092 C   0  0  0  0  0  0  0  0  0  0  0  0
   -3.8964  -16.5793  -12.0092 C   0  0  0  0  0  0  0  0  0  0  0  0
   -3.2964  -15.5793  -12.8092 O   0  0  0  0  0  0  0  0  0  0  0  0
   -4.0964  -16.2793  -10.6092 C   0  0  0  0  0  0  0  0  0  0  0  0
   -3.2964  -17.1793   -9.8092 C   0  0  0  0  0  0  0  0  0  0  0  0
   -2.1964  -18.0793  -10.0092 C   0  0  0  0  0  0  0  0  0  0  0  0
   -4.6964  -17.4793   -9.9092 C   0  0  0  0  0  0  0  0  0  0  0  0
   -2.6964  -18.7793  -11.4092 C   0  0  0  0  0  0  0  0  0  0  0  0
  2  1  1  0
  3  2  1  0
  4  3  1  0
  5  4  1  0
  6  4  1  0
  7  6  1  0
  8  7  1  0
  9  6  1  0
  9  7  1  0
 10  3  1  0
 10  8  1  0
M  END
>  <ID>  (1) 
conformer_0

$$$$
