
     RDKit          3D

  8  8  0  0  0  0  0  0  0  0999 V2000
   -2.8613  -15.9683  -13.0664 O   0  0  0  0  0  0  0  0  0  0  0  0
   -2.8613  -17.3683  -12.9664 C   0  0  0  0  0  0  0  0  0  0  0  0
   -3.4613  -17.9683  -11.7664 C   0  0  0  0  0  0  0  0  0  0  0  0
   -1.6613  -17.9683  -13.3664 C   0  0  0  0  0  0  0  0  0  0  0  0
   -0.9613  -18.8683  -12.5664 C   0  0  0  0  0  0  0  0  0  0  0  0
   -1.2613  -18.7683  -11.1664 C   0  0  0  0  0  0  0  0  0  0  0  0
   -2.4613  -18.2683  -10.7664 C   0  0  0  0  0  0  0  0  0  0  0  0
   -4.5613  -17.2683  -11.4664 O   0  0  0  0  0  0  0  0  0  0  0  0
  2  1  1  0
  3  2  2  0
  4  2  1  0
  5  4  2  0
  6  5  1  0
  7  3  1  0
  7  6  2  0
  8  3  1  0
M  END
>  <ID>  (1) 
conformer_0

$$$$
