
     RDKit          3D

 12 13  0  0  0  0  0  0  0  0999 V2000
   -2.7537  -17.7011  -14.5658 O   0  0  0  0  0  0  0  0  0  0  0  0
   -2.6537  -17.6011  -13.1658 C   0  0  0  0  0  0  0  0  0  0  0  0
   -2.7537  -18.7011  -12.4658 C   0  0  0  0  0  0  0  0  0  0  0  0
   -3.5537  -16.5011  -12.7658 C   0  0  0  0  0  0  0  0  0  0  0  0
   -4.0537  -16.7011  -11.4658 C   0  0  0  0  0  0  0  0  0  0  0  0
   -3.2537  -17.4011  -10.4658 C   0  0  0  0  0  0  0  0  0  0  0  0
   -3.4537  -17.0011   -9.1658 C   0  0  0  0  0  0  0  0  0  0  0  0
   -4.7537  -16.3011   -8.9658 C   0  0  0  0  0  0  0  0  0  0  0  0
   -2.4537  -18.4011  -11.0658 C   0  0  0  0  0  0  0  0  0  0  0  0
   -5.7537  -16.9011   -9.7658 C   0  0  0  0  0  0  0  0  0  0  0  0
   -6.8537  -17.5011   -8.9658 C   0  0  0  0  0  0  0  0  0  0  0  0
   -4.7537  -17.1011  -12.3658 O   0  0  0  0  0  0  0  0  0  0  0  0
  2  1  1  0
  3  2  2  0
  4  2  1  0
  5  4  2  0
  6  5  1  0
  7  6  1  0
  8  7  1  0
  9  3  1  0
  9  6  2  0
 10  8  1  0
 11 10  1  0
 12  4  1  0
 12  5  1  0
M  END
>  <ID>  (1) 
conformer_0

$$$$
