
     RDKit          3D

 21 23  0  0  0  0  0  0  0  0999 V2000
   -3.8731  -16.7640  -12.2213 C   0  0  0  0  0  0  0  0  0  0  0  0
   -3.3731  -15.5640  -12.6213 O   0  0  0  0  0  0  0  0  0  0  0  0
   -3.1731  -17.9640  -12.6213 C   0  0  0  0  0  0  0  0  0  0  0  0
   -2.2731  -17.5640  -13.7213 C   0  0  0  0  0  0  0  0  0  0  0  0
   -4.3731  -16.8640  -10.8213 C   0  0  0  0  0  0  0  0  0  0  0  0
   -4.1731  -15.7640   -9.9213 C   0  0  0  0  0  0  0  0  0  0  0  0
   -4.2731  -18.1640  -10.2213 C   0  0  0  0  0  0  0  0  0  0  0  0
   -2.3731  -18.6640  -11.6213 C   0  0  0  0  0  0  0  0  0  0  0  0
   -2.7731  -17.7640  -14.9213 O   0  0  0  0  0  0  0  0  0  0  0  0
   -5.2731  -15.9640   -8.9213 C   0  0  0  0  0  0  0  0  0  0  0  0
   -6.2731  -16.9640   -9.2213 C   0  0  0  0  0  0  0  0  0  0  0  0
   -1.0731  -19.2640  -11.9213 C   0  0  0  0  0  0  0  0  0  0  0  0
   -0.2731  -19.7640  -10.8213 C   0  0  0  0  0  0  0  0  0  0  0  0
    1.0269  -20.2640  -11.2213 C   0  0  0  0  0  0  0  0  0  0  0  0
    1.3269  -19.9640  -12.6213 C   0  0  0  0  0  0  0  0  0  0  0  0
    0.8269  -20.8640  -13.6213 C   0  0  0  0  0  0  0  0  0  0  0  0
   -0.1731  -21.7640  -13.0213 C   0  0  0  0  0  0  0  0  0  0  0  0
   -0.4731  -22.1640  -11.6213 C   0  0  0  0  0  0  0  0  0  0  0  0
   -5.5731  -17.6640  -10.5213 C   0  0  0  0  0  0  0  0  0  0  0  0
    0.9269  -21.9640  -11.2213 C   0  0  0  0  0  0  0  0  0  0  0  0
    2.0269  -22.4640  -12.0213 C   0  0  0  0  0  0  0  0  0  0  0  0
  2  1  1  0
  3  1  1  0
  4  3  1  0
  5  1  1  0
  6  5  1  0
  7  5  1  0
  8  3  1  0
  9  4  1  0
 10  6  2  0
 11 10  1  0
 12  8  2  3
 13 12  1  0
 14 13  1  0
 15 14  1  0
 16 15  1  0
 17 16  1  0
 18 17  1  0
 19  5  1  0
 19  7  1  0
 19 11  1  0
 20 14  1  0
 20 18  1  0
 21 20  1  0
M  END
>  <ID>  (1) 
conformer_0

$$$$
