
     RDKit          3D

 21 22  0  0  0  0  0  0  0  0999 V2000
   -2.5964  -17.4793  -14.7092 O   0  0  0  0  0  0  0  0  0  0  0  0
   -2.7964  -17.7793  -13.3092 C   0  0  0  0  0  0  0  0  0  0  0  0
   -3.3964  -16.7793  -12.5092 C   0  0  0  0  0  0  0  0  0  0  0  0
   -2.7964  -15.5793  -12.9092 O   0  0  0  0  0  0  0  0  0  0  0  0
   -3.9964  -16.7793  -11.2092 C   0  0  0  0  0  0  0  0  0  0  0  0
   -3.7964  -16.1793  -10.0092 C   0  0  0  0  0  0  0  0  0  0  0  0
   -4.9964  -16.0793   -9.2092 C   0  0  0  0  0  0  0  0  0  0  0  0
   -5.9964  -16.8793   -9.2092 C   0  0  0  0  0  0  0  0  0  0  0  0
   -7.2964  -16.4793   -8.8092 O   0  0  0  0  0  0  0  0  0  0  0  0
   -7.2964  -15.0793   -8.5092 C   0  0  0  0  0  0  0  0  0  0  0  0
   -1.5964  -18.4793  -12.8092 C   0  0  0  0  0  0  0  0  0  0  0  0
   -0.5964  -18.4793  -13.7092 O   0  0  0  0  0  0  0  0  0  0  0  0
   -4.6964  -18.0793  -11.0092 C   0  0  0  0  0  0  0  0  0  0  0  0
   -5.7964  -18.0793  -10.0092 C   0  0  0  0  0  0  0  0  0  0  0  0
   -1.4964  -19.5793  -11.8092 C   0  0  0  0  0  0  0  0  0  0  0  0
   -0.7964  -19.5793  -10.6092 C   0  0  0  0  0  0  0  0  0  0  0  0
    0.5036  -19.1793  -10.3092 C   0  0  0  0  0  0  0  0  0  0  0  0
   -1.4964  -20.8793  -12.5092 O   0  0  0  0  0  0  0  0  0  0  0  0
    0.2036  -20.5793  -10.7092 O   0  0  0  0  0  0  0  0  0  0  0  0
   -0.6964  -21.8793  -12.6092 C   0  0  0  0  0  0  0  0  0  0  0  0
    0.6036  -19.0793  -13.3092 C   0  0  0  0  0  0  0  0  0  0  0  0
  2  1  1  0
  3  2  1  0
  4  3  1  0
  5  3  1  0
  6  5  2  0
  7  6  1  0
  8  7  2  0
  9  8  1  0
 10  9  1  0
 11  2  1  0
 12 11  1  0
 13  5  1  0
 14  8  1  0
 14 13  2  0
 15 11  1  0
 16 15  1  0
 17 16  1  0
 18 15  1  0
 19 16  1  0
 19 17  1  0
 20 18  1  0
 21 12  1  0
M  END
>  <ID>  (1) 
conformer_0

$$$$
