
     RDKit          3D

  9  9  0  0  0  0  0  0  0  0999 V2000
   -2.5705  -17.7382  -14.3949 O   0  0  0  0  0  0  0  0  0  0  0  0
   -2.6705  -17.9382  -12.9949 C   0  0  0  0  0  0  0  0  0  0  0  0
   -1.8705  -18.9382  -12.3949 C   0  0  0  0  0  0  0  0  0  0  0  0
   -3.0705  -16.7382  -12.2949 C   0  0  0  0  0  0  0  0  0  0  0  0
   -2.9705  -15.5382  -12.8949 O   0  0  0  0  0  0  0  0  0  0  0  0
   -3.5705  -16.8382  -10.9949 C   0  0  0  0  0  0  0  0  0  0  0  0
   -3.3705  -15.6382  -10.1949 O   0  0  0  0  0  0  0  0  0  0  0  0
   -2.9705  -18.0382  -10.3949 C   0  0  0  0  0  0  0  0  0  0  0  0
   -2.0705  -18.9382  -10.8949 C   0  0  0  0  0  0  0  0  0  0  0  0
  2  1  1  0
  3  2  2  0
  4  2  1  0
  5  4  1  0
  6  4  2  0
  7  6  1  0
  8  6  1  0
  9  3  1  0
  9  8  2  0
M  END
>  <ID>  (1) 
conformer_0

$$$$
