
     RDKit          3D

 22 26  0  0  0  0  0  0  0  0999 V2000
   -2.9477  -15.6535  -13.1546 O   0  0  0  0  0  0  0  0  0  0  0  0
   -2.8477  -17.0535  -13.4546 C   0  0  0  0  0  0  0  0  0  0  0  0
   -3.2477  -17.8535  -12.2546 C   0  0  0  0  0  0  0  0  0  0  0  0
   -3.7477  -16.8535  -11.2546 C   0  0  0  0  0  0  0  0  0  0  0  0
   -3.4477  -17.0535   -9.8546 C   0  0  0  0  0  0  0  0  0  0  0  0
   -4.8477  -16.1535  -11.6546 C   0  0  0  0  0  0  0  0  0  0  0  0
   -4.1477  -16.3535   -9.0546 C   0  0  0  0  0  3  0  0  0  0  0  0
   -5.4477  -16.0535   -9.0546 C   0  0  0  0  0  0  0  0  0  0  0  0
   -6.6477  -15.6535   -8.3546 C   0  0  0  0  0  0  0  0  0  0  0  0
   -5.6477  -15.5535  -10.5546 C   0  0  0  0  0  0  0  0  0  0  0  0
   -7.4477  -14.6535   -8.9546 C   0  0  0  0  0  0  0  0  0  0  0  0
   -1.5477  -17.5535  -13.8546 C   0  0  0  0  0  0  0  0  0  0  0  0
   -1.1477  -18.6535  -13.1546 N   0  0  0  0  0  0  0  0  0  0  0  0
    0.0523  -19.1535  -12.9546 C   0  0  0  0  0  0  0  0  0  0  0  0
   -2.0477  -18.5535  -11.8546 N   0  0  0  0  0  0  0  0  0  0  0  0
    0.8523  -18.6535  -14.0546 C   0  0  0  0  0  0  0  0  0  0  0  0
    1.5523  -19.4535  -14.9546 C   0  0  0  0  0  0  0  0  0  0  0  0
    1.5523  -20.7535  -14.6546 C   0  0  0  0  0  0  0  0  0  0  0  0
    0.4523  -20.3535  -12.5546 N   0  0  0  0  0  0  0  0  0  0  0  0
    1.2523  -21.2535  -13.3546 C   0  0  0  0  0  0  0  0  0  0  0  0
   -6.0477  -16.8535  -10.0546 C   0  0  0  0  0  0  0  0  0  0  0  0
   -7.8477  -15.9535   -8.7546 C   0  0  0  0  0  0  0  0  0  0  0  0
  2  1  1  0
  3  2  1  0
  4  3  1  0
  5  4  2  0
  6  4  1  0
  7  5  1  0
  8  7  1  0
  9  8  1  0
 10  6  2  0
 10  8  1  0
 11  9  1  0
 12  2  2  0
 13 12  1  0
 14 13  1  0
 15  3  2  0
 15 13  1  0
 16 14  2  0
 17 16  1  0
 18 17  2  0
 19 14  1  0
 20 18  1  0
 20 19  2  0
 21  8  1  0
 21 10  1  0
 22  9  1  0
 22 11  2  0
M  END
>  <ID>  (1) 
conformer_0

$$$$
