
     RDKit          3D

 13 13  0  0  0  0  0  0  0  0999 V2000
   -2.8613  -15.9683  -13.0664 O   0  0  0  0  0  0  0  0  0  0  0  0
   -2.8613  -17.3683  -12.9664 C   0  0  0  0  0  0  0  0  0  0  0  0
   -1.5613  -17.9683  -13.0664 C   0  0  0  0  0  0  0  0  0  0  0  0
   -3.6613  -18.0683  -12.0664 C   0  0  0  0  0  0  0  0  0  0  0  0
   -1.5613  -19.2683  -12.4664 C   0  0  0  0  0  0  0  0  0  0  0  0
   -0.3613  -19.7683  -12.0664 O   0  0  0  0  0  0  0  0  0  0  0  0
   -2.6613  -20.1683  -12.5664 C   0  0  0  0  0  0  0  0  0  0  0  0
   -2.3613  -21.4683  -12.9664 O   0  0  0  0  0  0  0  0  0  0  0  0
    0.8387  -19.5683  -12.8664 C   0  0  0  0  0  0  0  0  0  0  0  0
   -4.7613  -17.3683  -11.6664 O   0  0  0  0  0  0  0  0  0  0  0  0
   -3.8613  -19.4683  -12.2664 C   0  0  0  0  0  0  0  0  0  0  0  0
    2.0387  -20.1683  -12.2664 C   0  0  0  0  0  0  0  0  0  0  0  0
    2.0387  -20.5683  -10.9664 O   0  0  0  0  0  0  0  0  0  0  0  0
  2  1  1  0
  3  2  2  0
  4  2  1  0
  5  3  1  0
  6  5  1  0
  7  5  2  0
  8  7  1  0
  9  6  1  0
 10  4  1  0
 11  4  2  0
 11  7  1  0
 12  9  1  0
 13 12  1  0
M  END
>  <ID>  (1) 
conformer_0

$$$$
