
     RDKit          3D

 17 18  0  0  0  0  0  0  0  0999 V2000
   -3.1621  -15.7202  -12.8582 O   0  0  0  0  0  0  0  0  0  0  0  0
   -3.2621  -17.1202  -12.5582 C   0  0  0  0  0  0  0  0  0  0  0  0
   -2.4621  -18.0202  -13.2582 C   0  0  0  0  0  0  0  0  0  0  0  0
   -3.7621  -17.5202  -11.2582 C   0  0  0  0  0  0  0  0  0  0  0  0
   -2.6621  -17.7202  -14.6582 O   0  0  0  0  0  0  0  0  0  0  0  0
   -1.7621  -19.0202  -12.5582 C   0  0  0  0  0  0  0  0  0  0  0  0
   -1.8621  -19.0202  -11.1582 C   0  0  0  0  0  0  0  0  0  0  0  0
   -2.7621  -18.2202  -10.4582 C   0  0  0  0  0  0  0  0  0  0  0  0
   -4.2621  -16.4202  -10.4582 O   0  0  0  0  0  0  0  0  0  0  0  0
   -4.2621  -16.4202   -8.9582 C   0  0  0  0  0  0  0  0  0  0  0  0
   -5.5621  -16.0202   -8.4582 C   0  0  0  0  0  0  0  0  0  0  0  0
   -6.5621  -16.8202   -8.9582 C   0  0  0  0  0  0  0  0  0  0  0  0
   -7.8621  -16.1202   -8.8582 C   0  0  0  0  0  0  0  0  0  0  0  0
   -6.1621  -17.9202   -9.4582 O   0  0  0  0  0  0  0  0  0  0  0  0
   -2.9621  -16.6202   -8.6582 C   0  0  0  0  0  0  0  0  0  0  0  0
   -2.3621  -17.7202   -9.1582 O   0  0  0  0  0  0  0  0  0  0  0  0
   -6.3621  -17.9202   -8.2582 N   0  0  0  0  0  0  0  0  0  0  0  0
  2  1  1  0
  3  2  2  0
  4  2  1  0
  5  3  1  0
  6  3  1  0
  7  6  2  0
  8  4  2  0
  8  7  1  0
  9  4  1  0
 10  9  1  0
 11 10  1  0
 12 11  1  0
 13 12  1  0
 14 12  1  0
 15 10  2  0
 16  8  1  0
 16 15  1  0
 17 12  1  0
M  END
>  <ID>  (1) 
conformer_0

$$$$
