
     RDKit          3D

 16 18  0  0  0  0  0  0  0  0999 V2000
   -3.1621  -15.7202  -12.8582 O   0  0  0  0  0  0  0  0  0  0  0  0
   -3.2621  -17.1202  -12.5582 C   0  0  0  0  0  0  0  0  0  0  0  0
   -2.4621  -18.0202  -13.2582 C   0  0  0  0  0  0  0  0  0  0  0  0
   -3.7621  -17.5202  -11.2582 C   0  0  0  0  0  0  0  0  0  0  0  0
   -2.6621  -17.7202  -14.6582 O   0  0  0  0  0  0  0  0  0  0  0  0
   -2.3621  -19.2202  -12.4582 C   0  0  0  0  0  0  0  0  0  0  0  0
   -1.7621  -18.9202  -11.2582 C   0  0  0  0  0  0  0  0  0  0  0  0
   -2.5621  -18.0202  -10.4582 C   0  0  0  0  0  0  0  0  0  0  0  0
   -4.7621  -17.0202  -10.6582 O   0  0  0  0  0  0  0  0  0  0  0  0
   -5.0621  -16.5202   -9.3582 C   0  0  0  0  0  0  0  0  0  0  0  0
   -6.1621  -16.1202   -8.7582 C   0  0  0  0  0  3  0  0  0  0  0  0
   -7.1621  -15.3202   -8.4582 C   0  0  0  0  0  0  0  0  0  0  0  0
   -7.9621  -14.4202   -8.1582 C   0  0  0  0  0  0  0  0  0  0  0  0
   -3.7621  -15.8202   -9.1582 C   0  0  0  0  0  0  0  0  0  0  0  0
   -3.8621  -17.0202   -8.7582 C   0  0  0  0  0  0  0  0  0  0  0  0
   -8.4621  -15.7202   -8.5582 C   0  0  0  0  0  0  0  0  0  0  0  0
  2  1  1  0
  3  2  2  0
  4  2  1  0
  5  3  1  0
  6  3  1  0
  7  6  2  0
  8  4  2  0
  8  7  1  0
  9  4  1  0
 10  9  1  0
 11 10  1  0
 12 11  2  0
 13 12  1  0
 14 10  1  0
 15 10  1  0
 15 14  2  0
 16 12  1  0
 16 13  1  0
M  END
>  <ID>  (1) 
conformer_0

$$$$
