
     RDKit          3D

 19 20  0  0  0  0  0  0  0  0999 V2000
   -2.8025  -17.5731  -14.7543 O   0  0  0  0  0  0  0  0  0  0  0  0
   -2.5025  -17.7731  -13.3543 C   0  0  0  0  0  0  0  0  0  0  0  0
   -3.2025  -17.1731  -12.3543 C   0  0  0  0  0  0  0  0  0  0  0  0
   -4.0025  -16.1731  -12.7543 O   0  0  0  0  0  0  0  0  0  0  0  0
   -2.9025  -17.5731  -11.0543 C   0  0  0  0  0  0  0  0  0  0  0  0
   -1.5025  -18.7731  -12.9543 C   0  0  0  0  0  0  0  0  0  0  0  0
   -1.7025  -18.1731  -10.6543 C   0  0  0  0  0  0  0  0  0  0  0  0
   -1.1025  -18.9731  -11.6543 C   0  0  0  0  0  0  0  0  0  0  0  0
    0.1975  -19.6731  -11.4543 C   0  0  0  0  0  0  0  0  0  0  0  0
    0.2975  -20.8731  -12.2543 C   0  0  0  0  0  0  0  0  0  0  0  0
   -3.6025  -16.8731   -9.9543 O   0  0  0  0  0  0  0  0  0  0  0  0
   -5.0025  -16.7731  -10.0543 C   0  0  0  0  0  0  0  0  0  0  0  0
   -5.4025  -16.1731   -8.7543 C   0  0  0  0  0  0  0  0  0  0  0  0
   -6.8025  -15.7731   -8.7543 C   0  0  0  0  0  0  0  0  0  0  0  0
   -7.6025  -14.8731   -8.2543 C   0  0  0  0  0  0  0  0  0  0  0  0
   -8.4025  -14.0731   -7.8543 C   0  0  0  0  0  0  0  0  0  0  0  0
   -5.9025  -17.9731  -10.0543 C   0  0  0  0  0  0  0  0  0  0  0  0
   -6.6025  -18.0731   -9.0543 O   0  0  0  0  0  0  0  0  0  0  0  0
   -7.3025  -17.0731   -8.6543 N   0  0  0  0  0  0  0  0  0  0  0  0
  2  1  1  0
  3  2  2  0
  4  3  1  0
  5  3  1  0
  6  2  1  0
  7  5  2  0
  8  6  2  0
  8  7  1  0
  9  8  1  0
 10  9  1  0
 11  5  1  0
 12 11  1  0
 13 12  1  0
 14 13  1  0
 15 14  1  0
 16 15  3  0
 17 12  1  0
 18 17  1  0
 19 14  2  0
 19 18  1  0
M  END
>  <ID>  (1) 
conformer_0

$$$$
