
     RDKit          3D

 10 11  0  0  0  0  0  0  0  0999 V2000
   -3.4636  -16.2296   -9.4782 C   0  0  0  0  0  0  0  0  0  0  0  0
   -4.8636  -16.4296   -8.9782 C   0  0  0  0  0  0  0  0  0  0  0  0
   -6.1636  -15.8296   -8.5782 C   0  0  0  0  0  0  0  0  0  0  0  0
   -4.4636  -16.1296  -10.4782 C   0  0  0  0  0  0  0  0  0  0  0  0
   -4.4636  -17.0296  -11.6782 C   0  0  0  0  0  0  0  0  0  0  0  0
   -2.4636  -17.3296   -9.5782 C   0  0  0  0  0  0  0  0  0  0  0  0
   -3.0636  -17.3296  -12.0782 C   0  0  0  0  0  0  0  0  0  0  0  0
   -2.2636  -18.0296  -10.8782 C   0  0  0  0  0  0  0  0  0  0  0  0
   -7.2636  -16.6296   -8.8782 C   0  0  0  0  0  0  0  0  0  0  0  0
   -6.8636  -18.0296   -9.1782 C   0  0  0  0  0  0  0  0  0  0  0  0
  2  1  1  0
  3  2  1  0
  4  1  1  0
  4  2  1  0
  5  4  1  0
  6  1  1  0
  7  5  1  0
  8  6  1  0
  8  7  1  0
  9  3  1  0
 10  9  1  0
M  END
>  <ID>  (1) 
conformer_0

$$$$
