
     RDKit          3D

 16 17  0  0  0  0  0  0  0  0999 V2000
   -3.1621  -15.7202  -12.8582 O   0  0  0  0  0  0  0  0  0  0  0  0
   -3.2621  -17.1202  -12.5582 C   0  0  0  0  0  0  0  0  0  0  0  0
   -2.3621  -18.0202  -13.0582 C   0  0  0  0  0  0  0  0  0  0  0  0
   -3.8621  -17.4202  -11.2582 C   0  0  0  0  0  0  0  0  0  0  0  0
   -1.6621  -18.9202  -12.2582 C   0  0  0  0  0  0  0  0  0  0  0  0
   -1.9621  -18.8202  -10.8582 C   0  0  0  0  0  0  0  0  0  0  0  0
   -2.8621  -17.8202  -10.3582 C   0  0  0  0  0  0  0  0  0  0  0  0
   -4.4621  -16.2202  -10.6582 O   0  0  0  0  0  0  0  0  0  0  0  0
   -4.3621  -16.2202   -9.2582 C   0  0  0  0  0  0  0  0  0  0  0  0
   -5.5621  -16.2202   -8.5582 C   0  0  0  0  0  0  0  0  0  0  0  0
   -6.6621  -16.9202   -9.0582 C   0  0  0  0  0  0  0  0  0  0  0  0
   -7.9621  -16.3202   -8.8582 C   0  0  0  0  0  0  0  0  0  0  0  0
   -3.0621  -15.9202   -8.8582 C   0  0  0  0  0  0  0  0  0  0  0  0
   -2.3621  -17.1202   -9.1582 O   0  0  0  0  0  0  0  0  0  0  0  0
   -6.4621  -17.9202   -9.8582 O   0  0  0  0  0  0  0  0  0  0  0  0
   -1.0621  -20.0202  -12.7582 O   0  0  0  0  0  0  0  0  0  0  0  0
  2  1  1  0
  3  2  2  0
  4  2  1  0
  5  3  1  0
  6  5  2  0
  7  4  2  0
  7  6  1  0
  8  4  1  0
  9  8  1  0
 10  9  1  0
 11 10  1  0
 12 11  1  0
 13  9  1  0
 14  7  1  0
 14 13  1  0
 15 11  1  0
 16  5  1  0
M  END
>  <ID>  (1) 
conformer_0

$$$$
