
     RDKit          3D

 18 19  0  0  0  0  0  0  0  0999 V2000
   -2.5964  -17.4793  -14.7092 O   0  0  0  0  0  0  0  0  0  0  0  0
   -2.6964  -17.6793  -13.3092 C   0  0  0  0  0  0  0  0  0  0  0  0
   -3.4964  -16.8793  -12.5092 C   0  0  0  0  0  0  0  0  0  0  0  0
   -3.3964  -15.4793  -12.9092 O   0  0  0  0  0  0  0  0  0  0  0  0
   -3.8964  -16.9793  -11.1092 C   0  0  0  0  0  0  0  0  0  0  0  0
   -4.0964  -15.8793  -10.4092 C   0  0  0  0  0  0  0  0  0  0  0  0
   -4.6964  -15.8793   -9.1092 C   0  0  0  0  0  0  0  0  0  0  0  0
   -5.7964  -16.7793   -9.0092 C   0  0  0  0  0  0  0  0  0  0  0  0
   -1.9964  -18.7793  -12.6092 C   0  0  0  0  0  0  0  0  0  0  0  0
   -0.8964  -19.1793  -13.2092 O   0  0  0  0  0  0  0  0  0  0  0  0
   -1.9964  -18.4793  -11.3092 O   0  0  0  0  0  0  0  0  0  0  0  0
   -6.9964  -16.4793   -8.5092 O   0  0  0  0  0  0  0  0  0  0  0  0
   -5.9964  -17.7793  -10.0092 C   0  0  0  0  0  0  0  0  0  0  0  0
   -7.2964  -15.0793   -8.5092 C   0  0  0  0  0  0  0  0  0  0  0  0
   -4.9964  -17.9793  -11.0092 C   0  0  0  0  0  0  0  0  0  0  0  0
   -1.1964  -19.1793  -10.4092 C   0  0  0  0  0  0  0  0  0  0  0  0
    0.0036  -18.6793   -9.9092 C   0  0  0  0  0  0  0  0  0  0  0  0
    0.0036  -19.4793  -11.0092 C   0  0  0  0  0  0  0  0  0  0  0  0
  2  1  1  0
  3  2  1  0
  4  3  1  0
  5  3  1  0
  6  5  2  0
  7  6  1  0
  8  7  2  0
  9  2  1  0
 10  9  2  0
 11  9  1  0
 12  8  1  0
 13  8  1  0
 14 12  1  0
 15  5  1  0
 15 13  2  0
 16 11  1  0
 17 16  1  0
 18 16  1  0
 18 17  2  0
M  END
>  <ID>  (1) 
conformer_0

$$$$
