
     RDKit          3D

  7  7  0  0  0  0  0  0  0  0999 V2000
   -2.9823  -17.5650  -14.2119 O   0  0  0  0  0  0  0  0  0  0  0  0
   -2.5823  -18.1650  -13.0119 C   0  0  0  0  0  0  0  0  0  0  0  0
   -3.2823  -18.0650  -11.8119 C   0  0  0  0  0  0  0  0  0  0  0  0
   -1.1823  -18.5650  -12.9119 C   0  0  0  0  0  0  0  0  0  0  0  0
   -2.3823  -18.0650  -10.7119 C   0  0  0  0  0  0  0  0  0  0  0  0
   -1.4823  -19.0650  -10.5119 C   0  0  0  0  0  0  0  0  0  0  0  0
   -0.8823  -19.4650  -11.8119 C   0  0  0  0  0  0  0  0  0  0  0  0
  2  1  1  0
  3  2  2  0
  4  2  1  0
  5  3  1  0
  6  5  2  0
  7  4  2  0
  7  6  1  0
M  END
>  <ID>  (1) 
conformer_0

$$$$
