
     RDKit          3D

 14 16  0  0  0  0  0  0  0  0999 V2000
   -2.5705  -17.7382  -14.3949 O   0  0  0  0  0  0  0  0  0  0  0  0
   -2.6705  -17.9382  -12.9949 C   0  0  0  0  0  0  0  0  0  0  0  0
   -1.8705  -18.9382  -12.3949 C   0  0  0  0  0  0  0  0  0  0  0  0
   -3.0705  -16.7382  -12.2949 C   0  0  0  0  0  0  0  0  0  0  0  0
   -2.9705  -15.5382  -12.8949 O   0  0  0  0  0  0  0  0  0  0  0  0
   -3.7705  -16.9382  -11.0949 C   0  0  0  0  0  0  0  0  0  0  0  0
   -1.8705  -18.9382  -10.9949 C   0  0  0  0  0  0  0  0  0  0  0  0
   -3.7705  -15.7382  -10.2949 O   0  0  0  0  0  0  0  0  0  0  0  0
   -2.9705  -18.1382  -10.3949 C   0  0  0  0  0  0  0  0  0  0  0  0
   -4.5705  -16.0382   -9.0949 C   0  0  0  0  0  0  0  0  0  0  0  0
   -5.7705  -16.0382   -8.6949 C   0  0  0  0  0  0  0  0  0  0  0  0
   -5.2705  -17.2382   -9.2949 C   0  0  0  0  0  0  0  0  0  0  0  0
   -1.7705  -17.7382  -10.3949 O   0  0  0  0  0  0  0  0  0  0  0  0
   -5.8705  -17.6382  -10.1949 O   0  0  0  0  0  0  0  0  0  0  0  0
  2  1  1  0
  3  2  2  0
  4  2  1  0
  5  4  1  0
  6  4  2  0
  7  3  1  0
  8  6  1  0
  9  6  1  0
  9  7  2  0
 10  8  1  0
 11 10  1  0
 12 10  1  0
 12 11  1  0
 13  7  1  0
 13  9  1  0
 14 12  2  0
M  END
>  <ID>  (1) 
conformer_0

$$$$
