
     RDKit          3D

 17 19  0  0  0  0  0  0  0  0999 V2000
   -2.5705  -17.7382  -14.3949 O   0  0  0  0  0  0  0  0  0  0  0  0
   -2.6705  -17.9382  -12.9949 C   0  0  0  0  0  0  0  0  0  0  0  0
   -1.8705  -18.9382  -12.3949 C   0  0  0  0  0  0  0  0  0  0  0  0
   -3.0705  -16.7382  -12.2949 C   0  0  0  0  0  0  0  0  0  0  0  0
   -2.9705  -15.5382  -12.8949 O   0  0  0  0  0  0  0  0  0  0  0  0
   -3.7705  -16.9382  -11.0949 C   0  0  0  0  0  0  0  0  0  0  0  0
   -1.8705  -18.9382  -10.9949 C   0  0  0  0  0  0  0  0  0  0  0  0
   -3.7705  -15.7382  -10.2949 O   0  0  0  0  0  0  0  0  0  0  0  0
   -2.7705  -17.9382  -10.3949 C   0  0  0  0  0  0  0  0  0  0  0  0
   -4.1705  -16.1382   -8.9949 C   0  0  0  0  0  0  0  0  0  0  0  0
   -5.5705  -16.2382   -8.9949 C   0  0  0  0  0  0  0  0  0  0  0  0
   -6.4705  -15.4382   -8.3949 C   0  0  0  0  0  0  0  0  0  0  0  0
   -7.6705  -15.0382   -8.7949 C   0  0  0  0  0  0  0  0  0  0  0  0
   -4.9705  -17.3382   -9.0949 O   0  0  0  0  0  0  0  0  0  0  0  0
   -2.1705  -17.4382   -9.1949 O   0  0  0  0  0  0  0  0  0  0  0  0
   -0.9705  -18.1382   -8.9949 C   0  0  0  0  0  0  0  0  0  0  0  0
   -7.5705  -16.3382   -8.3949 O   0  0  0  0  0  0  0  0  0  0  0  0
  2  1  1  0
  3  2  2  0
  4  2  1  0
  5  4  1  0
  6  4  2  0
  7  3  1  0
  8  6  1  0
  9  6  1  0
  9  7  2  0
 10  8  1  0
 11 10  1  0
 12 11  1  0
 13 12  1  0
 14 10  1  0
 14 11  1  0
 15  9  1  0
 16 15  1  0
 17 12  1  0
 17 13  1  0
M  END
>  <ID>  (1) 
conformer_0

$$$$
