
     RDKit          3D

 13 13  0  0  0  0  0  0  0  0999 V2000
   -3.1621  -15.7202  -12.8582 O   0  0  0  0  0  0  0  0  0  0  0  0
   -3.2621  -17.1202  -12.5582 C   0  0  0  0  0  0  0  0  0  0  0  0
   -2.3621  -18.0202  -13.0582 C   0  0  0  0  0  0  0  0  0  0  0  0
   -3.8621  -17.4202  -11.2582 C   0  0  0  0  0  0  0  0  0  0  0  0
   -2.3621  -19.3202  -12.4582 C   0  0  0  0  0  0  0  0  0  0  0  0
   -2.9621  -18.1202  -10.3582 C   0  0  0  0  0  0  0  0  0  0  0  0
   -1.4621  -20.3202  -12.8582 O   0  0  0  0  0  0  0  0  0  0  0  0
   -2.0621  -19.1202  -10.9582 C   0  0  0  0  0  0  0  0  0  0  0  0
   -1.2621  -20.0202  -10.3582 O   0  0  0  0  0  0  0  0  0  0  0  0
   -4.5621  -16.4202  -10.6582 O   0  0  0  0  0  0  0  0  0  0  0  0
   -4.7621  -16.1202   -9.2582 C   0  0  0  0  0  0  0  0  0  0  0  0
   -6.0621  -15.9202   -8.6582 C   0  0  0  0  0  0  0  0  0  0  0  0
   -7.2621  -15.3202   -8.6582 C   0  0  0  0  0  0  0  0  0  0  0  0
  2  1  1  0
  3  2  2  0
  4  2  1  0
  5  3  1  0
  6  4  2  0
  7  5  1  0
  8  5  2  0
  8  6  1  0
  9  8  1  0
 10  4  1  0
 11 10  1  0
 12 11  1  0
 13 12  2  0
M  END
>  <ID>  (1) 
conformer_0

$$$$
