
     RDKit          3D

 10 10  0  0  0  0  0  0  0  0999 V2000
   -2.9755  -17.5516  -14.4809 O   0  0  0  0  0  0  0  0  0  0  0  0
   -2.7755  -17.3516  -13.0809 C   0  0  0  0  0  0  0  0  0  0  0  0
   -2.9755  -18.3516  -12.0809 C   0  0  0  0  0  0  0  0  0  0  0  0
   -2.7755  -17.9516  -10.6809 C   0  0  0  0  0  0  0  0  0  0  0  0
   -3.7755  -16.9516  -10.2809 C   0  0  0  0  0  0  0  0  0  0  0  0
   -4.0755  -16.0516  -11.3809 C   0  0  0  0  0  0  0  0  0  0  0  0
   -3.1755  -16.0516  -12.3809 O   0  0  0  0  0  0  0  0  0  0  0  0
   -4.5755  -16.7516   -9.0809 C   0  0  0  0  0  0  0  0  0  0  0  0
   -5.7755  -15.9516   -8.8809 C   0  0  0  0  0  0  0  0  0  0  0  0
   -7.0755  -16.4516   -8.7809 C   0  0  0  0  0  0  0  0  0  0  0  0
  2  1  2  0
  3  2  1  0
  4  3  1  0
  5  4  1  0
  6  5  1  0
  7  2  1  0
  7  6  1  0
  8  5  2  3
  9  8  1  0
 10  9  1  0
M  END
>  <ID>  (1) 
conformer_0

$$$$
