
     RDKit          3D

 18 19  0  0  0  0  0  0  0  0999 V2000
   -2.5964  -17.4793  -14.7092 O   0  0  0  0  0  0  0  0  0  0  0  0
   -2.6964  -17.6793  -13.3092 C   0  0  0  0  0  0  0  0  0  0  0  0
   -3.4964  -16.8793  -12.5092 C   0  0  0  0  0  0  0  0  0  0  0  0
   -3.3964  -15.4793  -12.9092 O   0  0  0  0  0  0  0  0  0  0  0  0
   -3.8964  -16.9793  -11.1092 C   0  0  0  0  0  0  0  0  0  0  0  0
   -4.0964  -15.8793  -10.4092 C   0  0  0  0  0  0  0  0  0  0  0  0
   -4.6964  -15.8793   -9.1092 C   0  0  0  0  0  0  0  0  0  0  0  0
   -5.7964  -16.7793   -9.0092 C   0  0  0  0  0  0  0  0  0  0  0  0
   -1.9964  -18.7793  -12.6092 C   0  0  0  0  0  0  0  0  0  0  0  0
   -0.9964  -19.3793  -13.1092 O   0  0  0  0  0  0  0  0  0  0  0  0
   -1.8964  -18.3793  -11.2092 O   0  0  0  0  0  0  0  0  0  0  0  0
   -0.7964  -18.8793  -10.6092 C   0  0  0  0  0  0  0  0  0  0  0  0
    0.3036  -19.5793  -11.0092 C   0  0  0  0  0  0  0  0  0  0  0  0
   -0.7964  -20.3793  -10.8092 C   0  0  0  0  0  0  0  0  0  0  0  0
   -5.6964  -17.9793   -9.7092 C   0  0  0  0  0  0  0  0  0  0  0  0
   -4.9964  -17.9793  -10.9092 C   0  0  0  0  0  0  0  0  0  0  0  0
   -6.8964  -16.2793   -8.3092 F   0  0  0  0  0  0  0  0  0  0  0  0
   -0.4964  -21.4793  -10.3092 O   0  0  0  0  0  0  0  0  0  0  0  0
  2  1  1  0
  3  2  1  0
  4  3  1  0
  5  3  1  0
  6  5  2  0
  7  6  1  0
  8  7  2  0
  9  2  1  0
 10  9  2  0
 11  9  1  0
 12 11  1  0
 13 12  1  0
 14 12  1  0
 14 13  1  0
 15  8  1  0
 16  5  1  0
 16 15  2  0
 17  8  1  0
 18 14  2  0
M  END
>  <ID>  (1) 
conformer_0

$$$$
