
     RDKit          3D

 16 16  0  0  0  0  0  0  0  0999 V2000
   -2.8554  -15.4628  -12.8619 O   0  0  0  0  0  0  0  0  0  0  0  0
   -3.4554  -16.6628  -12.4619 C   0  0  0  0  0  0  0  0  0  0  0  0
   -2.6554  -17.8628  -12.7619 C   0  0  0  0  0  0  0  0  0  0  0  0
   -4.0554  -16.5628  -11.1619 C   0  0  0  0  0  0  0  0  0  0  0  0
   -2.2554  -17.8628  -14.1619 O   0  0  0  0  0  0  0  0  0  0  0  0
   -3.8554  -15.3628  -10.4619 O   0  0  0  0  0  0  0  0  0  0  0  0
   -2.9554  -18.8628  -11.7619 C   0  0  0  0  0  0  0  0  0  0  0  0
   -4.4554  -17.6628  -10.4619 C   0  0  0  0  0  0  0  0  0  0  0  0
   -5.6554  -17.3628   -9.6619 O   0  0  0  0  0  0  0  0  0  0  0  0
   -5.5554  -16.1628   -8.8619 C   0  0  0  0  0  0  0  0  0  0  0  0
   -3.9554  -18.9628  -10.8619 C   0  0  0  0  0  0  0  0  0  0  0  0
   -6.8554  -15.5628   -8.4619 C   0  0  0  0  0  0  0  0  0  0  0  0
   -2.0554  -19.9628  -11.8619 O   0  0  0  0  0  0  0  0  0  0  0  0
   -0.7554  -19.4628  -12.3619 C   0  0  0  0  0  0  0  0  0  0  0  0
    0.2446  -20.4628  -12.7619 C   0  0  0  0  0  0  0  0  0  0  0  0
   -0.4554  -21.5628  -13.3619 O   0  0  0  0  0  0  0  0  0  0  0  0
  2  1  1  0
  3  2  2  0
  4  2  1  0
  5  3  1  0
  6  4  1  0
  7  3  1  0
  8  4  2  0
  9  8  1  0
 10  9  1  0
 11  7  2  0
 11  8  1  0
 12 10  1  0
 13  7  1  0
 14 13  1  0
 15 14  1  0
 16 15  1  0
M  END
>  <ID>  (1) 
conformer_0

$$$$
