
     RDKit          3D

 19 21  0  0  0  0  0  0  0  0999 V2000
   -2.8554  -15.4628  -12.8619 O   0  0  0  0  0  0  0  0  0  0  0  0
   -3.4554  -16.6628  -12.4619 C   0  0  0  0  0  0  0  0  0  0  0  0
   -2.6554  -17.8628  -12.7619 C   0  0  0  0  0  0  0  0  0  0  0  0
   -4.0554  -16.5628  -11.1619 C   0  0  0  0  0  0  0  0  0  0  0  0
   -2.2554  -17.8628  -14.1619 O   0  0  0  0  0  0  0  0  0  0  0  0
   -3.8554  -15.3628  -10.4619 O   0  0  0  0  0  0  0  0  0  0  0  0
   -2.9554  -18.8628  -11.7619 C   0  0  0  0  0  0  0  0  0  0  0  0
   -4.4554  -17.6628  -10.4619 C   0  0  0  0  0  0  0  0  0  0  0  0
   -5.6554  -17.3628   -9.6619 O   0  0  0  0  0  0  0  0  0  0  0  0
   -5.7554  -16.1628   -9.0619 C   0  0  0  0  0  0  0  0  0  0  0  0
   -6.8554  -15.3628   -8.9619 C   0  0  0  0  0  0  0  0  0  0  0  0
   -2.0554  -19.9628  -12.0619 O   0  0  0  0  0  0  0  0  0  0  0  0
   -4.0554  -18.8628  -10.9619 C   0  0  0  0  0  0  0  0  0  0  0  0
   -7.5554  -14.7628   -8.0619 C   0  0  0  0  0  0  0  0  0  0  0  0
   -8.4554  -14.0628   -7.5619 C   0  0  0  0  0  0  0  0  0  0  0  0
   -7.8554  -16.1628   -8.4619 O   0  0  0  0  0  0  0  0  0  0  0  0
   -4.3554  -15.7628   -9.1619 C   0  0  0  0  0  0  0  0  0  0  0  0
   -3.1554  -16.5628   -8.7619 C   0  0  0  0  0  0  0  0  0  0  0  0
   -1.9554  -16.5628   -8.1619 C   0  0  0  0  0  0  0  0  0  0  0  0
  2  1  1  0
  3  2  2  0
  4  2  1  0
  5  3  1  0
  6  4  1  0
  7  3  1  0
  8  4  2  0
  9  8  1  0
 10  9  1  0
 11 10  1  0
 12  7  1  0
 13  7  2  0
 13  8  1  0
 14 11  1  0
 15 14  2  0
 16 11  1  0
 16 14  1  0
 17  6  1  0
 17 10  1  0
 18 17  1  0
 19 18  2  0
M  END
>  <ID>  (1) 
conformer_0

$$$$
