
     RDKit          3D

 21 25  0  0  0  0  0  0  0  0999 V2000
   -2.9477  -15.6535  -13.1546 O   0  0  0  0  0  0  0  0  0  0  0  0
   -2.8477  -17.0535  -13.4546 C   0  0  0  0  0  0  0  0  0  0  0  0
   -3.2477  -17.8535  -12.2546 C   0  0  0  0  0  0  0  0  0  0  0  0
   -3.7477  -16.8535  -11.2546 C   0  0  0  0  0  0  0  0  0  0  0  0
   -3.4477  -17.0535   -9.8546 C   0  0  0  0  0  0  0  0  0  0  0  0
   -4.8477  -16.1535  -11.6546 C   0  0  0  0  0  0  0  0  0  0  0  0
   -4.1477  -16.3535   -9.0546 C   0  0  0  0  0  0  0  0  0  0  0  0
   -5.4477  -16.0535   -9.0546 C   0  0  0  0  0  0  0  0  0  0  0  0
   -6.6477  -15.6535   -8.3546 C   0  0  0  0  0  0  0  0  0  0  0  0
   -5.6477  -15.5535  -10.5546 C   0  0  0  0  0  0  0  0  0  0  0  0
   -7.4477  -14.6535   -8.9546 C   0  0  0  0  0  0  0  0  0  0  0  0
   -1.5477  -17.5535  -13.8546 C   0  0  0  0  0  0  0  0  0  0  0  0
   -1.1477  -18.6535  -13.1546 N   0  0  0  0  0  0  0  0  0  0  0  0
    0.0523  -19.1535  -12.9546 C   0  0  0  0  0  0  0  0  0  0  0  0
   -2.0477  -18.5535  -11.8546 N   0  0  0  0  0  0  0  0  0  0  0  0
    0.7523  -20.3535  -13.2546 C   0  0  0  0  0  0  0  0  0  0  0  0
    0.1523  -20.0535  -11.9546 C   0  0  0  0  0  0  0  0  0  0  0  0
   -6.7477  -14.7535  -11.0546 C   0  0  0  0  0  0  0  0  0  0  0  0
   -7.8477  -15.7535   -9.0546 C   0  0  0  0  0  0  0  0  0  0  0  0
   -6.3477  -14.3535  -12.2546 O   0  0  0  0  0  0  0  0  0  0  0  0
   -7.0477  -15.3535  -12.3546 C   0  0  0  0  0  0  0  0  0  0  0  0
  2  1  1  0
  3  2  1  0
  4  3  1  0
  5  4  2  0
  6  4  1  0
  7  5  1  0
  8  7  2  0
  9  8  1  0
 10  6  2  0
 10  8  1  0
 11  9  1  0
 12  2  2  0
 13 12  1  0
 14 13  1  0
 15  3  2  0
 15 13  1  0
 16 14  1  0
 17 14  1  0
 17 16  1  0
 18 10  1  0
 19  9  1  0
 19 11  2  0
 20 18  1  0
 21 18  1  0
 21 20  1  0
M  END
>  <ID>  (1) 
conformer_0

$$$$
