
     RDKit          3D

 10 11  0  0  0  0  0  0  0  0999 V2000
   -2.7537  -17.7011  -14.5658 O   0  0  0  0  0  0  0  0  0  0  0  0
   -2.6537  -17.6011  -13.1658 C   0  0  0  0  0  0  0  0  0  0  0  0
   -2.7537  -18.7011  -12.4658 C   0  0  0  0  0  0  0  0  0  0  0  0
   -3.5537  -16.5011  -12.7658 C   0  0  0  0  0  0  0  0  0  0  0  0
   -3.9537  -16.7011  -11.3658 C   0  0  0  0  0  0  0  0  0  0  0  0
   -3.4537  -17.6011  -10.3658 C   0  0  0  0  0  0  0  0  0  0  0  0
   -2.4537  -18.5011  -11.0658 C   0  0  0  0  0  0  0  0  0  0  0  0
   -2.9537  -17.0011   -9.1658 C   0  0  0  0  0  0  0  0  0  0  0  0
   -3.4537  -15.6011   -9.2658 C   0  0  0  0  0  0  0  0  0  0  0  0
   -4.0537  -15.3011  -10.5658 O   0  0  0  0  0  0  0  0  0  0  0  0
  2  1  1  0
  3  2  2  0
  4  2  1  0
  5  4  2  0
  6  5  1  0
  7  3  1  0
  7  6  2  0
  8  6  1  0
  9  8  1  0
 10  5  1  0
 10  9  1  0
M  END
>  <ID>  (1) 
conformer_0

$$$$
