
     RDKit          3D

  7  6  0  0  0  0  0  0  0  0999 V2000
   -2.7775  -17.5537  -14.8302 O   0  0  0  0  0  0  0  0  0  0  0  0
   -2.6775  -17.4537  -13.4302 C   0  0  0  0  0  0  0  0  0  0  0  0
   -3.4775  -17.0537  -12.3302 C   0  0  0  0  0  0  0  0  0  0  0  0
   -3.4775  -17.9537  -11.1302 C   0  0  0  0  0  0  0  0  0  0  0  0
   -3.3775  -17.2537   -9.8302 C   0  0  0  0  0  0  0  0  0  0  0  0
   -3.8775  -15.8537   -9.8302 C   0  0  0  0  0  0  0  0  0  0  0  0
   -4.8775  -15.5537  -10.8302 C   0  0  0  0  0  0  0  0  0  0  0  0
  2  1  1  0
  3  2  1  0
  4  3  1  0
  5  4  1  0
  6  5  1  0
  7  6  1  0
M  END
>  <ID>  (1) 
conformer_0

$$$$
