
     RDKit          3D

 20 22  0  0  0  0  0  0  0  0999 V2000
   -2.8025  -17.5731  -14.7543 O   0  0  0  0  0  0  0  0  0  0  0  0
   -2.5025  -17.7731  -13.3543 C   0  0  0  0  0  0  0  0  0  0  0  0
   -3.2025  -17.1731  -12.3543 C   0  0  0  0  0  0  0  0  0  0  0  0
   -4.0025  -16.1731  -12.7543 O   0  0  0  0  0  0  0  0  0  0  0  0
   -2.9025  -17.5731  -11.0543 C   0  0  0  0  0  0  0  0  0  0  0  0
   -1.5025  -18.7731  -12.9543 C   0  0  0  0  0  0  0  0  0  0  0  0
   -1.7025  -18.1731  -10.6543 C   0  0  0  0  0  0  0  0  0  0  0  0
   -1.1025  -18.9731  -11.6543 C   0  0  0  0  0  0  0  0  0  0  0  0
    0.1975  -19.6731  -11.4543 C   0  0  0  0  0  0  0  0  0  0  0  0
    0.2975  -20.8731  -12.2543 C   0  0  0  0  0  0  0  0  0  0  0  0
   -3.6025  -16.8731   -9.9543 O   0  0  0  0  0  0  0  0  0  0  0  0
   -5.0025  -16.7731  -10.0543 C   0  0  0  0  0  0  0  0  0  0  0  0
   -5.4025  -16.1731   -8.7543 C   0  0  0  0  0  0  0  0  0  0  0  0
   -6.7025  -15.5731   -8.6543 C   0  0  0  0  0  0  0  0  0  0  0  0
   -7.6025  -14.8731   -8.3543 C   0  0  0  0  0  0  0  0  0  0  0  0
   -6.1025  -17.7731  -10.1543 C   0  0  0  0  0  0  0  0  0  0  0  0
   -6.8025  -17.7731   -9.0543 O   0  0  0  0  0  0  0  0  0  0  0  0
   -6.3025  -16.8731   -8.1543 N   0  0  0  0  0  0  0  0  0  0  0  0
   -0.1025  -21.0731  -13.4543 O   0  0  0  0  0  0  0  0  0  0  0  0
    1.2975  -21.8731  -11.8543 C   0  0  0  0  0  0  0  0  0  0  0  0
  2  1  1  0
  3  2  2  0
  4  3  1  0
  5  3  1  0
  6  2  1  0
  7  5  2  0
  8  6  2  0
  8  7  1  0
  9  8  1  0
 10  9  1  0
 11  5  1  0
 12 11  1  0
 13 12  1  0
 14 13  1  0
 15 14  2  0
 16 12  2  0
 17 16  1  0
 18 13  1  0
 18 14  1  0
 18 17  1  0
 19 10  2  0
 20 10  1  0
M  END
>  <ID>  (1) 
conformer_0

$$$$
