
     RDKit          3D

 15 16  0  0  0  0  0  0  0  0999 V2000
   -2.5964  -17.4793  -14.7092 O   0  0  0  0  0  0  0  0  0  0  0  0
   -2.6964  -17.6793  -13.3092 C   0  0  0  0  0  0  0  0  0  0  0  0
   -3.4964  -16.8793  -12.5092 C   0  0  0  0  0  0  0  0  0  0  0  0
   -3.3964  -15.4793  -12.9092 O   0  0  0  0  0  0  0  0  0  0  0  0
   -3.7964  -16.9793  -11.1092 C   0  0  0  0  0  0  0  0  0  0  0  0
   -4.5964  -16.0793  -10.4092 C   0  0  0  0  0  0  0  0  0  0  0  0
   -4.9964  -16.3793   -9.1092 C   0  0  0  0  0  0  0  0  0  0  0  0
   -2.1964  -18.8793  -12.7092 C   0  0  0  0  0  0  0  0  0  0  0  0
   -3.1964  -18.0793  -10.4092 C   0  0  0  0  0  0  0  0  0  0  0  0
   -2.3964  -18.7793  -11.3092 O   0  0  0  0  0  0  0  0  0  0  0  0
   -2.6964  -17.6793   -9.1092 C   0  0  0  0  0  0  0  0  0  0  0  0
   -5.7964  -15.6793   -8.3092 O   0  0  0  0  0  0  0  0  0  0  0  0
   -3.6964  -16.7793   -8.5092 C   0  0  0  0  0  0  0  0  0  0  0  0
   -7.0964  -15.1793   -8.8092 C   0  0  0  0  0  0  0  0  0  0  0  0
   -1.3964  -19.6793  -13.1092 O   0  0  0  0  0  0  0  0  0  0  0  0
  2  1  1  0
  3  2  1  0
  4  3  1  0
  5  3  1  0
  6  5  1  0
  7  6  2  0
  8  2  1  0
  9  5  2  0
 10  8  1  0
 10  9  1  0
 11  9  1  0
 12  7  1  0
 13  7  1  0
 13 11  2  0
 14 12  1  0
 15  8  2  0
M  END
>  <ID>  (1) 
conformer_0

$$$$
