
     RDKit          3D

  9  9  0  0  0  0  0  0  0  0999 V2000
   -3.1621  -15.7202  -12.8582 O   0  0  0  0  0  0  0  0  0  0  0  0
   -3.2621  -17.1202  -12.5582 C   0  0  0  0  0  0  0  0  0  0  0  0
   -2.3621  -18.0202  -13.0582 C   0  0  0  0  0  0  0  0  0  0  0  0
   -3.8621  -17.4202  -11.2582 C   0  0  0  0  0  0  0  0  0  0  0  0
   -1.6621  -18.9202  -12.2582 C   0  0  0  0  0  0  0  0  0  0  0  0
   -1.9621  -18.8202  -10.8582 C   0  0  0  0  0  0  0  0  0  0  0  0
   -2.9621  -18.0202  -10.3582 C   0  0  0  0  0  0  0  0  0  0  0  0
   -1.0621  -19.5202  -10.0582 O   0  0  0  0  0  0  0  0  0  0  0  0
   -5.1621  -17.2202  -11.0582 O   0  0  0  0  0  0  0  0  0  0  0  0
  2  1  1  0
  3  2  2  0
  4  2  1  0
  5  3  1  0
  6  5  2  0
  7  4  2  0
  7  6  1  0
  8  6  1  0
  9  4  1  0
M  END
>  <ID>  (1) 
conformer_0

$$$$
