
     RDKit          3D

  5  4  0  0  0  0  0  0  0  0999 V2000
   -3.6663  -15.8469   -9.4016 C   0  0  0  0  0  0  0  0  0  0  0  0
   -5.0663  -16.0469   -9.0016 C   0  0  0  0  0  0  0  0  0  0  0  0
   -2.7663  -16.9469   -9.0016 C   0  0  0  0  0  0  0  0  0  0  0  0
   -5.9663  -17.0469   -9.3016 C   0  0  0  0  0  0  0  0  0  0  0  0
   -7.3663  -16.7469   -8.9016 C   0  0  0  0  0  0  0  0  0  0  0  0
  2  1  1  0
  3  1  1  0
  4  2  1  0
  5  4  1  0
M  END
>  <ID>  (1) 
conformer_0

$$$$
