
     RDKit          3D

 14 14  0  0  0  0  0  0  0  0999 V2000
   -3.0104  -17.5233  -14.4092 O   0  0  0  0  0  0  0  0  0  0  0  0
   -2.7104  -17.5233  -13.1092 C   0  0  0  0  0  0  0  0  0  0  0  0
   -3.4104  -16.8233  -12.2092 C   0  0  0  0  0  0  0  0  0  0  0  0
   -1.9104  -18.6233  -12.8092 C   0  0  0  0  0  0  0  0  0  0  0  0
   -3.5104  -15.4233  -12.6092 O   0  0  0  0  0  0  0  0  0  0  0  0
   -3.6104  -17.1233  -10.9092 C   0  0  0  0  0  0  0  0  0  0  0  0
   -2.8104  -18.3233  -10.5092 C   0  0  0  0  0  0  0  0  0  0  0  0
   -1.8104  -18.9233  -11.3092 C   0  0  0  0  0  0  0  0  0  0  0  0
   -4.8104  -16.8233  -10.2092 O   0  0  0  0  0  0  0  0  0  0  0  0
   -5.1104  -16.2233   -9.1092 C   0  0  0  0  0  0  0  0  0  0  0  0
   -6.2104  -15.9233   -8.5092 C   0  0  0  0  0  0  0  0  0  0  0  0
   -7.2104  -15.0233   -8.3092 C   0  0  0  0  0  0  0  0  0  0  0  0
   -6.6104  -17.2233   -8.7092 C   0  0  0  0  0  0  0  0  0  0  0  0
   -8.2104  -15.3233   -8.0092 O   0  0  0  0  0  0  0  0  0  0  0  0
  2  1  1  0
  3  2  2  0
  4  2  1  0
  5  3  1  0
  6  3  1  0
  7  6  2  0
  8  4  2  0
  8  7  1  0
  9  6  1  0
 10  9  1  0
 11 10  1  0
 12 11  1  0
 13 11  1  0
 14 12  2  0
M  END
>  <ID>  (1) 
conformer_0

$$$$
