
     RDKit          3D

 21 25  0  0  0  0  0  0  0  0999 V2000
   -2.6622  -15.7382  -12.8605 O   0  0  0  0  0  0  0  0  0  0  0  0
   -2.4622  -17.1382  -13.1605 C   0  0  0  0  0  0  0  0  0  0  0  0
   -2.9622  -17.9382  -12.0605 C   0  0  0  0  0  0  0  0  0  0  0  0
   -3.7622  -17.1382  -11.1605 C   0  0  0  0  0  0  0  0  0  0  0  0
   -4.4622  -16.0382  -11.3605 C   0  0  0  0  0  0  0  0  0  0  0  0
   -3.5622  -17.5382   -9.7605 C   0  0  0  0  0  0  0  0  0  0  0  0
   -4.1622  -16.4382   -8.9605 C   0  0  0  0  0  0  0  0  0  0  0  0
   -5.5622  -16.4382   -9.2605 C   0  0  0  0  0  0  0  0  0  0  0  0
   -6.3622  -15.5382   -8.4605 C   0  0  0  0  0  0  0  0  0  0  0  0
   -5.8622  -17.4382   -9.9605 N   0  0  0  0  0  0  0  0  0  0  0  0
   -1.2622  -17.6382  -13.7605 C   0  0  0  0  0  0  0  0  0  0  0  0
   -0.7622  -18.6382  -12.8605 C   0  0  0  0  0  0  0  0  0  0  0  0
   -1.5622  -19.7382  -12.6605 N   0  0  0  0  0  0  0  0  0  0  0  0
   -1.1622  -21.0382  -12.3605 C   0  0  0  0  0  0  0  0  0  0  0  0
   -0.1622  -21.0382  -11.2605 C   0  0  0  0  0  0  0  0  0  0  0  0
    0.2378  -19.7382  -11.1605 O   0  0  0  0  0  0  0  0  0  0  0  0
    0.5378  -18.9382  -12.2605 C   0  0  0  0  0  0  0  0  0  0  0  0
    0.2378  -21.3382  -12.7605 C   0  0  0  0  0  0  0  0  0  0  0  0
   -3.3622  -18.2382  -13.2605 N   0  0  0  0  0  0  0  0  0  0  0  0
   -5.1622  -17.3382  -11.2605 C   0  0  0  0  0  3  0  0  0  0  0  0
   -7.2622  -17.7382   -9.9605 O   0  0  0  0  0  0  0  0  0  0  0  0
  2  1  1  0
  3  2  1  0
  4  3  1  0
  5  4  1  0
  6  4  1  0
  7  6  2  0
  8  7  1  0
  9  8  1  0
 10  8  1  0
 11  2  1  0
 12 11  1  0
 13 12  1  0
 14 13  1  0
 15 14  1  0
 16 15  1  0
 17 12  1  0
 17 16  1  0
 18 14  1  0
 18 15  1  0
 19  2  1  0
 19  3  1  0
 20  4  1  0
 20  5  1  0
 20 10  1  0
 21 10  1  0
M  END
>  <ID>  (1) 
conformer_0

$$$$
