
     RDKit          3D

 16 16  0  0  0  0  0  0  0  0999 V2000
   -2.8613  -15.9683  -13.0664 O   0  0  0  0  0  0  0  0  0  0  0  0
   -2.8613  -17.3683  -12.9664 C   0  0  0  0  0  0  0  0  0  0  0  0
   -1.5613  -17.9683  -13.0664 C   0  0  0  0  0  0  0  0  0  0  0  0
   -3.6613  -18.0683  -12.0664 C   0  0  0  0  0  0  0  0  0  0  0  0
   -1.5613  -19.2683  -12.4664 C   0  0  0  0  0  0  0  0  0  0  0  0
   -0.3613  -19.7683  -12.0664 O   0  0  0  0  0  0  0  0  0  0  0  0
   -2.6613  -20.1683  -12.5664 C   0  0  0  0  0  0  0  0  0  0  0  0
   -2.3613  -21.4683  -12.9664 O   0  0  0  0  0  0  0  0  0  0  0  0
    0.8387  -19.5683  -12.8664 C   0  0  0  0  0  0  0  0  0  0  0  0
   -4.5613  -17.2683  -11.3664 O   0  0  0  0  0  0  0  0  0  0  0  0
   -3.9613  -16.0683  -10.8664 C   0  0  0  0  0  0  0  0  0  0  0  0
   -3.5613  -16.2683   -9.4664 C   0  0  0  0  0  0  0  0  0  0  0  0
   -4.8613  -16.4683   -8.7664 C   0  0  0  0  0  0  0  0  0  0  0  0
   -6.1613  -16.6684   -9.3664 C   0  0  0  0  0  0  0  0  0  0  0  0
   -7.2613  -15.8684   -8.8664 C   0  0  0  0  0  0  0  0  0  0  0  0
   -3.8613  -19.4683  -12.3664 C   0  0  0  0  0  0  0  0  0  0  0  0
  2  1  1  0
  3  2  2  0
  4  2  1  0
  5  3  1  0
  6  5  1  0
  7  5  2  0
  8  7  1  0
  9  6  1  0
 10  4  1  0
 11 10  1  0
 12 11  1  0
 13 12  1  0
 14 13  1  0
 15 14  1  0
 16  4  2  0
 16  7  1  0
M  END
>  <ID>  (1) 
conformer_0

$$$$
