
     RDKit          3D

 15 15  0  0  0  0  0  0  0  0999 V2000
   -2.8025  -17.5731  -14.7543 O   0  0  0  0  0  0  0  0  0  0  0  0
   -2.5025  -17.7731  -13.3543 C   0  0  0  0  0  0  0  0  0  0  0  0
   -3.2025  -17.1731  -12.3543 C   0  0  0  0  0  0  0  0  0  0  0  0
   -4.0025  -16.1731  -12.7543 O   0  0  0  0  0  0  0  0  0  0  0  0
   -2.9025  -17.5731  -11.0543 C   0  0  0  0  0  0  0  0  0  0  0  0
   -1.5025  -18.7731  -12.9543 C   0  0  0  0  0  0  0  0  0  0  0  0
   -1.7025  -18.1731  -10.6543 C   0  0  0  0  0  0  0  0  0  0  0  0
   -1.1025  -18.9731  -11.6543 C   0  0  0  0  0  0  0  0  0  0  0  0
    0.1975  -19.6731  -11.4543 C   0  0  0  0  0  0  0  0  0  0  0  0
    0.8975  -19.6731  -12.7543 C   0  0  0  0  0  0  0  0  0  0  0  0
   -3.3025  -16.5731  -10.0543 O   0  0  0  0  0  0  0  0  0  0  0  0
   -4.7025  -16.1731  -10.0543 C   0  0  0  0  0  0  0  0  0  0  0  0
   -5.4025  -15.9731   -8.7543 C   0  0  0  0  0  0  0  0  0  0  0  0
   -6.8025  -15.7731   -8.7543 C   0  0  0  0  0  0  0  0  0  0  0  0
   -7.5025  -14.6731   -8.3543 C   0  0  0  0  0  0  0  0  0  0  0  0
  2  1  1  0
  3  2  2  0
  4  3  1  0
  5  3  1  0
  6  2  1  0
  7  5  2  0
  8  6  2  0
  8  7  1  0
  9  8  1  0
 10  9  1  0
 11  5  1  0
 12 11  1  0
 13 12  2  3
 14 13  1  0
 15 14  2  0
M  END
>  <ID>  (1) 
conformer_0

$$$$
