
     RDKit          3D

 10 10  0  0  0  0  0  0  0  0999 V2000
   -3.1621  -15.7202  -12.8582 O   0  0  0  0  0  0  0  0  0  0  0  0
   -3.2621  -17.1202  -12.5582 C   0  0  0  0  0  0  0  0  0  0  0  0
   -2.3621  -18.0202  -13.0582 C   0  0  0  0  0  0  0  0  0  0  0  0
   -3.8621  -17.4202  -11.2582 C   0  0  0  0  0  0  0  0  0  0  0  0
   -1.7621  -19.0202  -12.2582 C   0  0  0  0  0  0  0  0  0  0  0  0
   -2.0621  -19.0202  -10.8582 C   0  0  0  0  0  0  0  0  0  0  0  0
   -3.1621  -18.2202  -10.4582 C   0  0  0  0  0  0  0  0  0  0  0  0
   -5.1621  -17.0202  -10.9582 O   0  0  0  0  0  0  0  0  0  0  0  0
   -1.1621  -19.6202  -10.0582 O   0  0  0  0  0  0  0  0  0  0  0  0
   -0.5621  -19.4202  -12.7582 O   0  0  0  0  0  0  0  0  0  0  0  0
  2  1  1  0
  3  2  2  0
  4  2  1  0
  5  3  1  0
  6  5  2  0
  7  4  2  0
  7  6  1  0
  8  4  1  0
  9  6  1  0
 10  5  1  0
M  END
>  <ID>  (1) 
conformer_0

$$$$
