
     RDKit          3D

 14 14  0  0  0  0  0  0  0  0999 V2000
   -3.1621  -15.7202  -12.8582 O   0  0  0  0  0  0  0  0  0  0  0  0
   -3.2621  -17.1202  -12.5582 C   0  0  0  0  0  0  0  0  0  0  0  0
   -2.4621  -18.0202  -13.2582 C   0  0  0  0  0  0  0  0  0  0  0  0
   -3.7621  -17.5202  -11.2582 C   0  0  0  0  0  0  0  0  0  0  0  0
   -2.6621  -17.7202  -14.6582 O   0  0  0  0  0  0  0  0  0  0  0  0
   -1.4621  -18.7202  -12.7582 C   0  0  0  0  0  0  0  0  0  0  0  0
   -2.8621  -18.4202  -10.6582 C   0  0  0  0  0  0  0  0  0  0  0  0
   -1.5621  -18.7202  -11.2582 C   0  0  0  0  0  0  0  0  0  0  0  0
   -0.9621  -19.9202  -10.6582 O   0  0  0  0  0  0  0  0  0  0  0  0
   -4.4621  -16.7202  -10.4582 O   0  0  0  0  0  0  0  0  0  0  0  0
   -3.9621  -16.7202   -9.0582 C   0  0  0  0  0  0  0  0  0  0  0  0
   -5.2621  -16.5202   -8.3582 C   0  0  0  0  0  0  0  0  0  0  0  0
   -6.2621  -15.7202   -9.0582 C   0  0  0  0  0  0  0  0  0  0  0  0
   -7.5621  -15.4202   -8.7582 C   0  0  0  0  0  0  0  0  0  0  0  0
  2  1  1  0
  3  2  2  0
  4  2  1  0
  5  3  1  0
  6  3  1  0
  7  4  2  0
  8  6  2  0
  8  7  1  0
  9  8  1  0
 10  4  1  0
 11 10  1  0
 12 11  1  0
 13 12  1  0
 14 13  2  0
M  END
>  <ID>  (1) 
conformer_0

$$$$
