
     RDKit          3D

 13 13  0  0  0  0  0  0  0  0999 V2000
   -3.0369  -17.9060  -14.3329 O   0  0  0  0  0  0  0  0  0  0  0  0
   -2.7369  -18.0060  -12.9329 C   0  0  0  0  0  0  0  0  0  0  0  0
   -1.5369  -18.7060  -12.5329 C   0  0  0  0  0  0  0  0  0  0  0  0
   -3.2369  -17.0060  -12.1329 C   0  0  0  0  0  0  0  0  0  0  0  0
   -3.4369  -15.7060  -12.6329 O   0  0  0  0  0  0  0  0  0  0  0  0
   -3.2369  -17.2060  -10.7329 C   0  0  0  0  0  0  0  0  0  0  0  0
   -2.3369  -18.2060  -10.3329 C   0  0  0  0  0  0  0  0  0  0  0  0
   -1.4369  -18.9060  -11.1329 C   0  0  0  0  0  0  0  0  0  0  0  0
   -3.3369  -16.0060   -9.9329 O   0  0  0  0  0  0  0  0  0  0  0  0
   -4.3369  -16.2060   -8.8329 C   0  0  0  0  0  0  0  0  0  0  0  0
   -5.5369  -16.8060   -9.2329 C   0  0  0  0  0  0  0  0  0  0  0  0
   -6.6369  -16.0060   -8.6329 C   0  0  0  0  0  0  0  0  0  0  0  0
   -7.3369  -15.0060   -8.4329 C   0  0  0  0  0  0  0  0  0  0  0  0
  2  1  1  0
  3  2  2  0
  4  2  1  0
  5  4  1  0
  6  4  2  0
  7  6  1  0
  8  3  1  0
  8  7  2  0
  9  6  1  0
 10  9  1  0
 11 10  1  0
 12 11  1  0
 13 12  3  0
M  END
>  <ID>  (1) 
conformer_0

$$$$
