
     RDKit          3D

  6  5  0  0  0  0  0  0  0  0999 V2000
   -3.6663  -15.8469   -9.4016 C   0  0  0  0  0  0  0  0  0  0  0  0
   -5.0663  -16.0469   -9.0016 C   0  0  0  0  0  0  0  0  0  0  0  0
   -2.7663  -16.9469   -9.0016 C   0  0  0  0  0  0  0  0  0  0  0  0
   -6.2663  -15.7469   -8.6016 C   0  0  0  0  0  0  0  0  0  0  0  0
   -7.4663  -15.2469   -8.6016 C   0  0  0  0  0  0  0  0  0  0  0  0
   -2.0663  -17.5469   -9.9016 O   0  0  0  0  0  0  0  0  0  0  0  0
  2  1  1  0
  3  1  1  0
  4  2  3  0
  5  4  1  0
  6  3  1  0
M  END
>  <ID>  (1) 
conformer_0

$$$$
