
     RDKit          3D

 14 15  0  0  0  0  0  0  0  0999 V2000
   -2.7537  -17.7011  -14.5658 O   0  0  0  0  0  0  0  0  0  0  0  0
   -2.6537  -17.6011  -13.1658 C   0  0  0  0  0  0  0  0  0  0  0  0
   -2.7537  -18.7011  -12.4658 C   0  0  0  0  0  0  0  0  0  0  0  0
   -3.5537  -16.5011  -12.7658 C   0  0  0  0  0  0  0  0  0  0  0  0
   -3.9537  -16.7011  -11.3658 C   0  0  0  0  0  0  0  0  0  0  0  0
   -3.4537  -17.6011  -10.3658 C   0  0  0  0  0  0  0  0  0  0  0  0
   -2.4537  -18.5011  -11.0658 C   0  0  0  0  0  0  0  0  0  0  0  0
   -2.9537  -17.0011   -9.1658 C   0  0  0  0  0  0  0  0  0  0  0  0
   -3.8537  -15.8011   -9.1658 C   0  0  0  0  0  0  0  0  0  0  0  0
   -5.2537  -16.3011   -9.1658 C   0  0  0  0  0  0  0  0  0  0  0  0
   -6.2537  -15.6011   -8.4658 C   0  0  0  0  0  0  0  0  0  0  0  0
   -7.5537  -15.4011   -8.6658 C   0  0  0  0  0  0  0  0  0  0  0  0
   -3.1537  -15.7011  -11.6658 O   0  0  0  0  0  0  0  0  0  0  0  0
   -1.5537  -19.3011  -10.2658 O   0  0  0  0  0  0  0  0  0  0  0  0
  2  1  1  0
  3  2  2  0
  4  2  1  0
  5  4  2  0
  6  5  1  0
  7  3  1  0
  7  6  2  0
  8  6  1  0
  9  8  1  0
 10  9  1  0
 11 10  1  0
 12 11  2  0
 13  4  1  0
 13  5  1  0
 14  7  1  0
M  END
>  <ID>  (1) 
conformer_0

$$$$
