
     RDKit          3D

 11 10  0  0  0  0  0  0  0  0999 V2000
   -2.8025  -17.5731  -14.7543 O   0  0  0  0  0  0  0  0  0  0  0  0
   -2.5025  -17.6731  -13.3543 C   0  0  0  0  0  0  0  0  0  0  0  0
   -3.1025  -18.6731  -12.5543 C   0  0  0  0  0  0  0  0  0  0  0  0
   -3.1025  -19.9731  -13.0543 O   0  0  0  0  0  0  0  0  0  0  0  0
   -3.7025  -18.2731  -11.2543 C   0  0  0  0  0  0  0  0  0  0  0  0
   -3.7025  -16.7731  -11.2543 C   0  0  0  0  0  0  0  0  0  0  0  0
   -3.8025  -15.8731  -12.2543 O   0  0  0  0  0  0  0  0  0  0  0  0
   -3.8025  -16.1731   -9.9543 C   0  0  0  0  0  0  0  0  0  0  0  0
   -4.9025  -16.3731   -9.0543 C   0  0  0  0  0  0  0  0  0  0  0  0
   -6.1025  -15.6731   -8.6543 C   0  0  0  0  0  0  0  0  0  0  0  0
   -7.4025  -16.1731   -8.8543 C   0  0  0  0  0  0  0  0  0  0  0  0
  2  1  1  0
  3  2  1  0
  4  3  1  0
  5  3  1  0
  6  5  1  0
  7  6  1  0
  8  6  1  0
  9  8  1  0
 10  9  1  0
 11 10  1  0
M  END
>  <ID>  (1) 
conformer_0

$$$$
