
     RDKit          3D

 15 15  0  0  0  0  0  0  0  0999 V2000
   -2.5964  -17.4793  -14.7092 O   0  0  0  0  0  0  0  0  0  0  0  0
   -2.7964  -17.7793  -13.3092 C   0  0  0  0  0  0  0  0  0  0  0  0
   -3.3964  -16.7793  -12.5092 C   0  0  0  0  0  0  0  0  0  0  0  0
   -2.7964  -15.5793  -12.9092 O   0  0  0  0  0  0  0  0  0  0  0  0
   -3.9964  -16.7793  -11.2092 C   0  0  0  0  0  0  0  0  0  0  0  0
   -3.7964  -16.1793  -10.0092 C   0  0  0  0  0  0  0  0  0  0  0  0
   -4.9964  -16.0793   -9.2092 C   0  0  0  0  0  0  0  0  0  0  0  0
   -5.9964  -16.8793   -9.2092 C   0  0  0  0  0  0  0  0  0  0  0  0
   -7.2964  -16.4793   -8.8092 O   0  0  0  0  0  0  0  0  0  0  0  0
   -7.2964  -15.0793   -8.5092 C   0  0  0  0  0  0  0  0  0  0  0  0
   -1.5964  -18.4793  -12.8092 C   0  0  0  0  0  0  0  0  0  0  0  0
   -0.5964  -18.4793  -13.7092 O   0  0  0  0  0  0  0  0  0  0  0  0
   -4.9964  -17.8793  -11.2092 C   0  0  0  0  0  0  0  0  0  0  0  0
   -5.7964  -18.0793  -10.1092 C   0  0  0  0  0  0  0  0  0  0  0  0
   -1.3964  -18.4793  -11.5092 O   0  0  0  0  0  0  0  0  0  0  0  0
  2  1  1  0
  3  2  1  0
  4  3  1  0
  5  3  1  0
  6  5  2  0
  7  6  1  0
  8  7  2  0
  9  8  1  0
 10  9  1  0
 11  2  1  0
 12 11  2  0
 13  5  1  0
 14  8  1  0
 14 13  2  0
 15 11  1  0
M  END
>  <ID>  (1) 
conformer_0

$$$$
