
     RDKit          3D

 13 13  0  0  0  0  0  0  0  0999 V2000
   -3.1621  -15.7202  -12.8582 O   0  0  0  0  0  0  0  0  0  0  0  0
   -3.2621  -17.1202  -12.5582 C   0  0  0  0  0  0  0  0  0  0  0  0
   -2.4621  -18.0202  -13.2582 C   0  0  0  0  0  0  0  0  0  0  0  0
   -3.7621  -17.5202  -11.2582 C   0  0  0  0  0  0  0  0  0  0  0  0
   -2.6621  -17.7202  -14.6582 O   0  0  0  0  0  0  0  0  0  0  0  0
   -1.7621  -19.0202  -12.5582 C   0  0  0  0  0  0  0  0  0  0  0  0
   -1.5621  -18.7202  -11.1582 C   0  0  0  0  0  0  0  0  0  0  0  0
   -2.6621  -18.1202  -10.4582 C   0  0  0  0  0  0  0  0  0  0  0  0
   -4.6621  -16.9202  -10.4582 O   0  0  0  0  0  0  0  0  0  0  0  0
   -4.4621  -16.2202   -9.2582 C   0  0  0  0  0  0  0  0  0  0  0  0
   -5.6621  -16.1202   -8.5582 C   0  0  0  0  0  0  0  0  0  0  0  0
   -6.6621  -17.0202   -8.8582 C   0  0  0  0  0  0  0  0  0  0  0  0
   -7.9621  -16.3202   -8.7582 C   0  0  0  0  0  0  0  0  0  0  0  0
  2  1  1  0
  3  2  2  0
  4  2  1  0
  5  3  1  0
  6  3  1  0
  7  6  2  0
  8  4  2  0
  8  7  1  0
  9  4  1  0
 10  9  1  0
 11 10  1  0
 12 11  1  0
 13 12  1  0
M  END
>  <ID>  (1) 
conformer_0

$$$$
