
     RDKit          3D

 19 20  0  0  0  0  0  0  0  0999 V2000
   16.2908   57.0687   81.6611 O   0  0  0  0  0  0  0  0  0  0  0  0
    8.8651   60.3439   81.2791 O   0  0  0  0  0  0  0  0  0  0  0  0
   13.4007   55.1036   82.3765 C   0  0  0  0  0  0  0  0  0  0  0  0
   15.3755   55.5419   83.8195 C   0  0  0  0  0  0  0  0  0  0  0  0
   15.8803   56.7148   84.4280 O   0  0  0  0  0  0  0  0  0  0  0  0
    9.9520   59.8378   79.0444 O   0  0  0  0  0  0  0  0  0  0  0  0
   14.4596   58.3384   79.6110 C   0  0  0  0  0  0  0  0  0  0  0  0
   11.1662   55.7073   81.9521 N   0  0  0  0  0  0  0  0  0  0  0  0
   12.7099   60.0145   81.2185 O   0  0  0  0  0  0  0  0  0  0  0  0
   15.1293   56.5326   81.4837 C   0  0  0  0  0  0  0  0  0  0  0  0
   10.6706   59.4719   80.0270 C   0  0  0  0  0  0  0  0  0  0  0  0
   12.1854   59.3221   80.0751 C   0  0  0  0  0  0  0  0  0  0  0  0
   11.7888   57.8690   80.1694 C   0  0  0  0  0  0  0  0  0  0  0  0
   12.8232   56.9886   80.8778 N   0  0  0  0  0  0  0  0  0  0  0  0
   14.2209   57.1022   80.4788 C   0  0  0  0  0  0  0  0  0  0  0  0
    9.9815   59.4982   81.3498 C   0  0  0  0  0  0  0  0  0  0  0  0
   13.3414   59.2488   79.1357 O   0  0  0  0  0  0  0  0  0  0  0  0
   12.4397   55.8857   81.6041 C   0  0  0  0  0  0  0  0  0  0  0  0
   14.6030   55.8231   82.6065 C   0  0  0  0  0  0  0  0  0  0  0  0
  1 10  1  0
  2 16  1  0
  3 18  1  0
  3 19  1  0
  4  5  1  0
  4 19  1  0
  6 11  2  0
  7 15  1  0
  7 17  1  0
  8 18  2  0
  9 12  1  0
 10 15  1  0
 10 19  1  0
 11 12  1  0
 11 16  1  0
 12 13  1  0
 12 17  1  0
 13 14  1  0
 14 15  1  0
 14 18  1  0
M  END
>  <ID>  (1) 
conformer_0

$$$$
