
     RDKit          3D

 23 26  0  0  0  0  0  0  0  0999 V2000
    9.6317   57.4415   80.2752 C   0  0  0  0  0  0  0  0  0  0  0  0
   14.1178   56.4332   81.6350 C   0  0  0  0  0  0  0  0  0  0  0  0
   15.1501   58.7349   79.3676 C   0  0  0  0  0  0  0  0  0  0  0  0
   11.3667   60.5159   80.6817 C   0  0  0  0  0  0  0  0  0  0  0  0
   12.4517   59.6663   80.6348 O   0  0  0  0  0  0  0  0  0  0  0  0
   13.3292   56.9751   80.6745 C   0  0  0  0  0  0  0  0  0  0  0  0
   10.5031   60.2428   81.9066 C   0  0  0  0  0  0  0  0  0  0  0  0
   12.4199   54.9071   82.2779 C   0  0  0  0  0  0  0  0  0  0  0  0
   13.6849   55.4490   82.4716 C   0  0  0  0  0  0  0  0  0  0  0  0
   12.8833   59.0442   79.3295 C   0  0  0  0  0  0  0  0  0  0  0  0
    9.0581   58.8572   80.2813 C   0  0  0  0  0  0  0  0  0  0  0  0
   16.1218   56.8915   84.2921 N   0  0  0  0  0  0  0  0  0  0  0  0
   11.5518   55.5599   81.3908 C   0  0  0  0  0  0  0  0  0  0  0  0
   15.6119   59.7643   80.3076 O   0  0  0  0  0  0  0  0  0  0  0  0
   13.9053   57.9271   79.6833 C   0  0  0  0  0  0  0  0  0  0  0  0
    9.3360   59.4034   81.5517 O   0  0  0  0  0  0  0  0  0  0  0  0
   11.9935   56.6704   80.7558 C   0  0  0  0  0  0  0  0  0  0  0  0
   11.0465   57.5406   80.3343 O   0  0  0  0  0  0  0  0  0  0  0  0
   15.3232   56.8029   82.0411 N   0  0  0  0  0  0  0  0  0  0  0  0
   14.5612   55.2799   83.4865 N   0  0  0  0  0  0  0  0  0  0  0  0
    9.2653   59.4336   79.0687 O   0  0  0  0  0  0  0  0  0  0  0  0
   15.5196   56.2492   83.2926 C   0  0  0  0  0  0  0  0  0  0  0  0
   14.0605   59.7382   78.5299 C   0  0  0  0  0  0  0  0  0  0  0  0
  1 11  1  0
  1 18  1  0
  2  6  1  0
  2  9  2  0
  2 19  1  0
  3 14  1  0
  3 15  1  0
  3 23  1  0
  4  5  1  0
  4  7  1  0
  5 10  1  0
  6 15  1  0
  6 17  1  0
  7 16  1  0
  8  9  1  0
  8 13  2  0
  9 20  1  0
 10 15  1  0
 10 23  1  0
 11 16  1  0
 11 21  1  0
 12 22  2  0
 13 17  1  0
 17 18  1  0
 19 22  1  0
 20 22  1  0
M  END
>  <ID>  (1) 
conformer_0

$$$$
