
     RDKit          3D

 22 24  0  0  0  0  0  0  0  0999 V2000
   14.1400   54.8827   83.3842 C   0  0  0  0  0  0  0  0  0  0  0  0
   14.4035   60.0677   80.2179 O   0  0  0  0  0  0  0  0  0  0  0  0
   12.1143   58.3706   80.8085 O   0  0  0  0  0  0  0  0  0  0  0  0
   12.0477   53.9712   82.6214 O   0  0  0  0  0  0  0  0  0  0  0  0
   13.1521   54.6575   82.3074 C   0  0  0  0  0  0  0  0  0  0  0  0
   12.9901   55.6713   81.3142 O   0  0  0  0  0  0  0  0  0  0  0  0
   13.8401   56.7105   81.2595 C   0  0  0  0  0  0  0  0  0  0  0  0
   12.3274   61.2584   80.6164 C   0  0  0  0  0  0  0  0  0  0  0  0
   15.0700   56.6384   81.8898 O   0  0  0  0  0  0  0  0  0  0  0  0
   10.8731   58.5891   78.8825 O   0  0  0  0  0  0  0  0  0  0  0  0
   13.4409   58.0598   80.8843 C   0  0  0  0  0  0  0  0  0  0  0  0
   15.6245   57.9588   79.9007 C   0  0  0  0  0  0  0  0  0  0  0  0
   15.8414   56.5360   84.1239 O   0  0  0  0  0  0  0  0  0  0  0  0
   11.8122   59.2525   79.6452 C   0  0  0  0  0  0  0  0  0  0  0  0
   12.7103   61.0344   81.9592 O   0  0  0  0  0  0  0  0  0  0  0  0
   16.6185   58.6665   79.2780 O   0  0  0  0  0  0  0  0  0  0  0  0
   10.9773   60.4563   80.3415 C   0  0  0  0  0  0  0  0  0  0  0  0
   14.3611   58.7393   79.9849 C   0  0  0  0  0  0  0  0  0  0  0  0
   13.7974   54.6938   84.6721 O   0  0  0  0  0  0  0  0  0  0  0  0
   15.2236   55.8726   83.0801 C   0  0  0  0  0  0  0  0  0  0  0  0
   13.0899   60.1864   79.6726 C   0  0  0  0  0  0  0  0  0  0  0  0
   16.1200   56.9160   80.9071 C   0  0  0  0  0  0  0  0  0  0  0  0
  1  5  1  0
  1 19  1  0
  1 20  1  0
  2 18  1  0
  2 21  1  0
  3 11  1  0
  3 14  1  0
  4  5  2  0
  5  6  1  0
  6  7  1  0
  7  9  1  0
  7 11  1  0
  8 15  1  0
  8 17  1  0
  8 21  1  0
  9 20  1  0
 10 14  1  0
 11 18  1  0
 12 16  1  0
 12 18  1  0
 12 22  1  0
 13 20  2  0
 14 17  1  0
 14 21  1  0
M  END
>  <ID>  (1) 
conformer_0

$$$$
