
     RDKit          3D

 20 22  0  0  0  0  0  0  0  0999 V2000
   13.4987   58.8620   79.9055 C   0  0  0  0  0  0  0  0  0  0  0  0
   14.1056   55.2189   82.9114 C   0  0  0  0  0  0  0  0  0  0  0  0
   15.7823   57.0066   82.8080 C   0  0  0  0  0  0  0  0  0  0  0  0
   12.2712   60.0361   78.4915 O   0  0  0  0  0  0  0  0  0  0  0  0
   14.7917   54.6856   84.0020 O   0  0  0  0  0  0  0  0  0  0  0  0
   13.4124   59.1839   78.6022 C   0  0  0  0  0  0  0  0  0  0  0  0
   10.5239   60.7974   80.2249 C   0  0  0  0  0  0  0  0  0  0  0  0
   15.7889   57.9473   79.9230 C   0  0  0  0  0  0  0  0  0  0  0  0
   14.6045   56.3547   82.2352 C   0  0  0  0  0  0  0  0  0  0  0  0
   14.4120   57.9437   80.4245 C   0  0  0  0  0  0  0  0  0  0  0  0
   11.2505   60.3637   82.4703 C   0  0  0  0  0  0  0  0  0  0  0  0
   12.7741   56.2570   80.6825 C   0  0  0  0  0  0  0  0  0  0  0  0
   10.3044   60.8592   81.6015 C   0  0  0  0  0  0  0  0  0  0  0  0
   12.3471   59.7303   82.0219 N   0  0  0  0  0  0  0  0  0  0  0  0
   12.9574   54.6230   82.4823 C   0  0  0  0  0  0  0  0  0  0  0  0
   15.8305   57.1655   84.2077 O   0  0  0  0  0  0  0  0  0  0  0  0
   11.6824   60.2167   79.8011 C   0  0  0  0  0  0  0  0  0  0  0  0
   13.9249   56.8204   81.1127 C   0  0  0  0  0  0  0  0  0  0  0  0
   12.2765   55.1516   81.3720 C   0  0  0  0  0  0  0  0  0  0  0  0
   12.5254   59.5621   80.6835 C   0  0  0  0  0  0  0  0  0  0  0  0
  1  6  1  0
  1 10  1  0
  1 20  2  0
  2  5  1  0
  2  9  1  0
  2 15  2  0
  3  9  1  0
  3 16  1  0
  4  6  1  0
  4 17  1  0
  7 13  1  0
  7 17  2  0
  8 10  1  0
  9 18  1  0
 10 18  1  0
 11 13  1  0
 11 14  2  0
 12 18  2  0
 12 19  1  0
 14 20  1  0
 15 19  1  0
 17 20  1  0
M  END
>  <ID>  (1) 
conformer_0

$$$$
