
     RDKit          3D

 17 16  0  0  0  0  0  0  0  0999 V2000
   10.8209   61.4069   81.0063 C   0  0  0  0  0  0  0  0  0  0  0  0
   13.6283   58.0882   81.0373 O   0  0  0  0  0  0  0  0  0  0  0  0
   15.5850   56.6417   83.0387 O   0  0  0  0  0  0  0  0  0  0  0  0
   15.6504   56.8655   81.7889 C   0  0  0  0  0  0  0  0  0  0  0  0
   12.3044   58.1600   80.4452 C   0  0  0  0  0  0  0  0  0  0  0  0
   11.1603   57.9360   81.4145 C   0  0  0  0  0  0  0  0  0  0  0  0
   13.6420   59.7290   79.2389 C   0  0  0  0  0  0  0  0  0  0  0  0
   12.2014   59.5932   79.8215 C   0  0  0  0  0  0  0  0  0  0  0  0
   16.6190   57.2947   81.1517 O   0  0  0  0  0  0  0  0  0  0  0  0
   10.6648   58.8416   82.2240 O   0  0  0  0  0  0  0  0  0  0  0  0
   13.9040   61.0337   78.7991 O   0  0  0  0  0  0  0  0  0  0  0  0
   10.4991   56.6469   81.2754 C   0  0  0  0  0  0  0  0  0  0  0  0
   14.3575   56.8364   81.0233 C   0  0  0  0  0  0  0  0  0  0  0  0
   13.5266   55.6082   81.4455 C   0  0  0  0  0  0  0  0  0  0  0  0
   12.0839   60.6424   80.9386 C   0  0  0  0  0  0  0  0  0  0  0  0
   14.4621   59.1000   80.3936 C   0  0  0  0  0  0  0  0  0  0  0  0
   13.2209   61.2201   81.3840 O   0  0  0  0  0  0  0  0  0  0  0  0
  1 15  1  0
  2  5  1  0
  2 13  1  0
  3  4  2  0
  4  9  1  0
  4 13  1  0
  5  6  1  0
  5  8  1  0
  6 10  1  0
  6 12  1  0
  7  8  1  0
  7 11  1  0
  7 16  1  0
  8 15  1  0
 13 14  1  0
 15 17  1  0
M  END
>  <ID>  (1) 
conformer_0

$$$$
