
     RDKit          3D

 42 49  0  0  0  0  0  0  0  0999 V2000
   10.0304   56.6730   80.2453 C   0  0  0  0  0  0  0  0  0  0  0  0
   11.9601   61.2406   81.7911 O   0  0  0  0  0  0  0  0  0  0  0  0
   11.3940   56.9845   80.5530 N   0  0  0  0  0  0  0  0  0  0  0  0
   16.8733   57.8531   79.7881 C   0  0  0  0  0  0  0  0  0  0  0  0
   18.5851   61.2541   77.1916 O   0  0  0  0  0  0  0  0  0  0  0  0
   11.9832   55.9392   81.3346 N   0  0  0  0  0  0  0  0  0  0  0  0
   14.7830   58.9676   79.5211 C   0  0  0  0  0  0  0  0  0  0  0  0
   14.4500   56.1330   81.9386 C   0  0  0  0  0  0  0  0  0  0  0  0
   16.2804   56.9929   80.6332 N   0  0  0  0  0  0  0  0  0  0  0  0
    9.2606   60.2292   80.7859 C   0  0  0  0  0  0  0  0  0  0  0  0
   16.1649   58.8621   79.2049 C   0  0  0  0  0  0  0  0  0  0  0  0
   18.2576   57.9292   79.3507 N   0  0  0  0  0  0  0  0  0  0  0  0
   18.4028   59.1402   78.4130 C   0  0  0  0  0  0  0  0  0  0  0  0
   20.9410   58.6724   78.4284 C   0  0  0  0  0  0  0  0  0  0  0  0
    8.8115   53.3150   81.4453 C   0  0  0  0  0  0  0  0  0  0  0  0
   10.8841   53.9696   82.4377 C   0  0  0  0  0  0  0  0  0  0  0  0
   16.9710   59.6698   78.3451 C   0  0  0  0  0  0  0  0  0  0  0  0
   14.0476   60.1234   79.1136 O   0  0  0  0  0  0  0  0  0  0  0  0
   11.3790   60.9049   79.6837 O   0  0  0  0  0  0  0  0  0  0  0  0
   10.9265   55.0168   81.5447 C   0  0  0  0  0  0  0  0  0  0  0  0
   13.1640   55.5394   82.1569 C   0  0  0  0  0  0  0  0  0  0  0  0
    8.7813   62.7101   80.3509 O   0  0  0  0  0  0  0  0  0  0  0  0
   20.6647   60.1054   77.9817 C   0  0  0  0  0  0  0  0  0  0  0  0
   11.0571   61.9147   80.8032 C   0  0  0  0  0  0  0  0  0  0  0  0
   14.1945   58.0237   80.2402 C   0  0  0  0  0  0  0  0  0  0  0  0
   12.9828   54.6166   83.2194 C   0  0  0  0  0  0  0  0  0  0  0  0
    9.2033   59.5548   82.0375 O   0  0  0  0  0  0  0  0  0  0  0  0
   10.5281   59.7687   80.0500 C   0  0  0  0  0  0  0  0  0  0  0  0
    9.5699   61.7511   81.1108 C   0  0  0  0  0  0  0  0  0  0  0  0
   15.1561   55.0159   83.9914 C   0  0  0  0  0  0  0  0  0  0  0  0
   19.6871   57.8710   78.8706 C   0  0  0  0  0  0  0  0  0  0  0  0
   12.8859   60.8699   79.6564 C   0  0  0  0  0  0  0  0  0  0  0  0
   13.9441   54.4294   84.1833 C   0  0  0  0  0  0  0  0  0  0  0  0
   13.2289   61.2856   81.0580 C   0  0  0  0  0  0  0  0  0  0  0  0
   19.2237   60.2637   77.8177 C   0  0  0  0  0  0  0  0  0  0  0  0
   11.8563   53.8366   83.4078 N   0  0  0  0  0  0  0  0  0  0  0  0
   14.9594   57.0626   80.8981 C   0  0  0  0  0  0  0  0  0  0  0  0
    9.8573   53.0941   82.3872 C   0  0  0  0  0  0  0  0  0  0  0  0
   10.1857   59.0412   78.9181 O   0  0  0  0  0  0  0  0  0  0  0  0
   15.3966   55.8095   82.9028 C   0  0  0  0  0  0  0  0  0  0  0  0
    9.8589   55.3414   80.7279 C   0  0  0  0  0  0  0  0  0  0  0  0
    8.8386   54.4217   80.6041 C   0  0  0  0  0  0  0  0  0  0  0  0
  1  3  1  0
  1 41  1  0
  2 24  1  0
  2 34  1  0
  3  6  1  0
  4  9  2  0
  4 11  1  0
  4 12  1  0
  5 35  1  0
  6 20  1  0
  6 21  1  0
  7 11  1  0
  7 18  1  0
  7 25  2  0
  8 21  1  0
  8 37  1  0
  8 40  2  0
  9 37  1  0
 10 27  1  0
 10 28  1  0
 10 29  1  0
 11 17  1  0
 12 13  1  0
 12 31  1  0
 13 17  1  0
 13 35  1  0
 14 23  1  0
 14 31  1  0
 15 38  1  0
 15 42  1  0
 16 20  1  0
 16 36  1  0
 16 38  2  0
 18 32  1  0
 19 28  1  0
 19 32  1  0
 20 41  1  0
 21 26  1  0
 22 29  1  0
 23 35  1  0
 24 29  1  0
 25 37  1  0
 26 33  1  0
 26 36  2  0
 28 39  1  0
 30 33  2  0
 30 40  1  0
 32 34  1  0
 41 42  2  0
M  END
>  <ID>  (1) 
conformer_0

$$$$
