
     RDKit          3D

 27 32  0  0  0  0  0  0  0  0999 V2000
   11.2617   54.8555   82.3439 C   0  0  0  0  0  0  0  0  0  0  0  0
   16.2944   58.9773   78.8509 C   0  0  0  0  0  0  0  0  0  0  0  0
   10.4034   55.8351   81.7061 N   0  0  0  0  0  0  0  0  0  0  0  0
   11.4026   61.3345   81.4123 C   0  0  0  0  0  0  0  0  0  0  0  0
   10.1454   58.0227   80.8113 O   0  0  0  0  0  0  0  0  0  0  0  0
   14.3153   58.1469   79.9769 C   0  0  0  0  0  0  0  0  0  0  0  0
   10.9865   56.9416   81.0613 C   0  0  0  0  0  0  0  0  0  0  0  0
    8.1283   56.3036   80.7924 O   0  0  0  0  0  0  0  0  0  0  0  0
   14.7837   54.8902   83.5017 C   0  0  0  0  0  0  0  0  0  0  0  0
    8.9246   55.9198   81.8919 C   0  0  0  0  0  0  0  0  0  0  0  0
   13.5027   54.4892   83.3187 N   0  0  0  0  0  0  0  0  0  0  0  0
   17.1015   58.1794   79.6059 C   0  0  0  0  0  0  0  0  0  0  0  0
   10.7502   53.7960   82.8192 O   0  0  0  0  0  0  0  0  0  0  0  0
   12.9863   58.1524   80.3493 N   0  0  0  0  0  0  0  0  0  0  0  0
   14.9192   58.9644   79.0116 C   0  0  0  0  0  0  0  0  0  0  0  0
   10.7948   59.1897   80.7811 C   0  0  0  0  0  0  0  0  0  0  0  0
   12.6866   55.1432   82.4661 C   0  0  0  0  0  0  0  0  0  0  0  0
   10.2972   60.4053   81.3680 C   0  0  0  0  0  0  0  0  0  0  0  0
   12.1840   59.4799   78.8533 O   0  0  0  0  0  0  0  0  0  0  0  0
   12.1427   59.3351   80.2324 C   0  0  0  0  0  0  0  0  0  0  0  0
   12.3829   57.0511   80.9476 C   0  0  0  0  0  0  0  0  0  0  0  0
   15.1511   57.3087   80.7332 C   0  0  0  0  0  0  0  0  0  0  0  0
   15.3249   55.7927   82.6740 C   0  0  0  0  0  0  0  0  0  0  0  0
   14.5826   56.4686   81.7016 N   0  0  0  0  0  0  0  0  0  0  0  0
   12.5579   60.7098   80.8144 C   0  0  0  0  0  0  0  0  0  0  0  0
   16.5337   57.3410   80.5410 C   0  0  0  0  0  0  0  0  0  0  0  0
   13.2233   56.2029   81.6888 C   0  0  0  0  0  0  0  0  0  0  0  0
  1  3  1  0
  1 13  2  0
  1 17  1  0
  2 12  2  0
  2 15  1  0
  3  7  1  0
  3 10  1  0
  4 18  1  0
  4 25  1  0
  5  7  1  0
  5 16  1  0
  6 14  1  0
  6 15  2  0
  6 22  1  0
  7 21  1  0
  8 10  1  0
  9 11  1  0
  9 23  2  0
 11 17  2  0
 12 26  1  0
 14 20  1  0
 14 21  1  0
 16 18  1  0
 16 20  1  0
 17 27  1  0
 19 20  1  0
 20 25  1  0
 21 27  2  0
 22 24  1  0
 22 26  2  0
 23 24  1  0
 24 27  1  0
M  END
>  <ID>  (1) 
conformer_0

$$$$
