
     RDKit          3D

 16 16  0  0  0  0  0  0  0  0999 V2000
   13.2756   57.9489   80.1395 C   0  0  0  0  0  0  0  0  0  0  0  0
   12.7755   59.4824   80.3634 C   0  0  0  0  0  0  0  0  0  0  0  0
   11.3499   59.4858   80.9406 C   0  0  0  0  0  0  0  0  0  0  0  0
   14.8516   57.7967   80.3000 C   0  0  0  0  0  0  0  0  0  0  0  0
   12.7678   57.0731   81.3565 C   0  0  0  0  0  0  0  0  0  0  0  0
   12.7301   60.5747   79.1972 C   0  0  0  0  0  0  0  0  0  0  0  0
   10.6160   58.4862   81.6093 O   0  0  0  0  0  0  0  0  0  0  0  0
   13.1761   59.8975   78.0351 O   0  0  0  0  0  0  0  0  0  0  0  0
   12.8719   55.5647   81.3147 C   0  0  0  0  0  0  0  0  0  0  0  0
   15.3810   56.5387   81.2007 C   0  0  0  0  0  0  0  0  0  0  0  0
   14.9345   56.0057   82.5725 C   0  0  0  0  0  0  0  0  0  0  0  0
   13.7775   55.0485   82.4577 C   0  0  0  0  0  0  0  0  0  0  0  0
   15.5957   55.9871   83.8435 C   0  0  0  0  0  0  0  0  0  0  0  0
   10.3129   61.3727   79.1820 O   0  0  0  0  0  0  0  0  0  0  0  0
   13.7783   60.0675   81.2650 N   0  0  0  0  0  0  0  0  0  0  0  0
   10.4063   60.6346   80.4692 C   0  0  0  0  0  0  0  0  0  0  0  0
  1  2  1  0
  1  4  1  0
  1  5  1  0
  2  3  1  0
  2  6  1  0
  2 15  1  0
  3  7  1  0
  3 16  1  0
  4 10  1  0
  5  9  1  0
  6  8  1  0
  9 12  1  0
 10 11  1  0
 11 12  1  0
 11 13  1  0
 14 16  1  0
M  END
>  <ID>  (1) 
conformer_0

$$$$
