
     RDKit          3D

 16 16  0  0  0  0  0  0  0  0999 V2000
   12.7599   59.0666   79.6045 N   0  0  0  0  0  0  0  0  0  0  0  0
   14.8148   58.4509   80.5689 C   0  0  0  0  0  0  0  0  0  0  0  0
   14.1636   58.8725   79.3049 C   0  0  0  0  0  0  0  0  0  0  0  0
   10.0160   57.3795   79.6388 O   0  0  0  0  0  0  0  0  0  0  0  0
   12.5420   56.8110   81.0733 C   0  0  0  0  0  0  0  0  0  0  0  0
   13.8299   56.3560   81.5105 C   0  0  0  0  0  0  0  0  0  0  0  0
   12.1563   57.9860   80.2904 C   0  0  0  0  0  0  0  0  0  0  0  0
   13.9271   55.1001   82.1948 C   0  0  0  0  0  0  0  0  0  0  0  0
   11.4990   56.1501   81.7862 N   0  0  0  0  0  0  0  0  0  0  0  0
   14.7309   59.3937   81.5138 O   0  0  0  0  0  0  0  0  0  0  0  0
   11.0837   60.6977   79.2372 O   0  0  0  0  0  0  0  0  0  0  0  0
   12.1981   60.0865   79.0786 N   0  0  0  0  0  0  0  0  0  0  0  0
   15.5028   56.0352   83.7851 C   0  0  0  0  0  0  0  0  0  0  0  0
   14.4114   55.0843   83.5565 C   0  0  0  0  0  0  0  0  0  0  0  0
   14.9259   57.0132   80.8136 C   0  0  0  0  0  0  0  0  0  0  0  0
   10.6955   58.2851   80.2975 C   0  0  0  0  0  0  0  0  0  0  0  0
  1  3  1  0
  1  7  1  0
  1 12  1  0
  2  3  1  0
  2 10  1  0
  2 15  1  0
  4 16  1  0
  5  6  1  0
  5  7  2  0
  5  9  1  0
  6  8  1  0
  6 15  1  0
  7 16  1  0
  8 14  1  0
 11 12  1  0
 13 14  1  0
M  END
>  <ID>  (1) 
conformer_0

$$$$
