
     RDKit          3D

 15 15  0  0  0  0  0  0  0  0999 V2000
   15.6438   56.4310   83.5714 C   0  0  0  0  0  0  0  0  0  0  0  0
   10.6715   57.8426   81.9344 O   0  0  0  0  0  0  0  0  0  0  0  0
   11.8268   57.7028   81.1499 C   0  0  0  0  0  0  0  0  0  0  0  0
   10.7266   60.5750   80.6155 O   0  0  0  0  0  0  0  0  0  0  0  0
   16.0631   57.2569   82.5163 O   0  0  0  0  0  0  0  0  0  0  0  0
   14.2090   58.1459   79.3861 C   0  0  0  0  0  0  0  0  0  0  0  0
   14.5669   55.2341   81.8200 C   0  0  0  0  0  0  0  0  0  0  0  0
   13.9058   56.3915   81.1201 C   0  0  0  0  0  0  0  0  0  0  0  0
   11.9802   58.6572   80.1381 C   0  0  0  0  0  0  0  0  0  0  0  0
   13.0695   58.8873   79.3345 C   0  0  0  0  0  0  0  0  0  0  0  0
   14.5265   57.0818   80.1439 C   0  0  0  0  0  0  0  0  0  0  0  0
   14.5867   55.4829   83.2840 C   0  0  0  0  0  0  0  0  0  0  0  0
   12.6280   56.6806   81.5237 C   0  0  0  0  0  0  0  0  0  0  0  0
    9.9417   59.1609   79.1582 O   0  0  0  0  0  0  0  0  0  0  0  0
   10.8260   59.5375   79.9374 C   0  0  0  0  0  0  0  0  0  0  0  0
  1  5  1  0
  1 12  1  0
  2  3  1  0
  3  9  2  0
  3 13  1  0
  4 15  2  0
  6 10  1  0
  6 11  2  0
  7  8  1  0
  7 12  1  0
  8 11  1  0
  8 13  2  0
  9 10  1  0
  9 15  1  0
 14 15  1  0
M  END
>  <ID>  (1) 
conformer_0

$$$$
