
     RDKit          3D

 23 26  0  0  0  0  0  0  0  0999 V2000
   10.8853   60.3780   80.9929 C   0  0  0  0  0  0  0  0  0  0  0  0
   16.1231   56.3854   81.4653 N   0  0  0  0  0  0  0  0  0  0  0  0
   14.8948   57.6841   79.8681 C   0  0  0  0  0  0  0  0  0  0  0  0
   14.5583   58.9339   79.0670 C   0  0  0  0  0  0  0  0  0  0  0  0
   14.7381   54.9284   82.9527 O   0  0  0  0  0  0  0  0  0  0  0  0
   13.8527   56.9122   80.1802 C   0  0  0  0  0  0  0  0  0  0  0  0
    9.6151   58.4343   79.8737 C   0  0  0  0  0  0  0  0  0  0  0  0
   11.5329   56.0646   80.8384 O   0  0  0  0  0  0  0  0  0  0  0  0
   13.2500   54.5581   82.9649 C   0  0  0  0  0  0  0  0  0  0  0  0
   13.8130   56.0575   81.2076 C   0  0  0  0  0  0  0  0  0  0  0  0
   12.5348   55.4118   81.8488 C   0  0  0  0  0  0  0  0  0  0  0  0
    9.4338   57.2745   80.7466 C   0  0  0  0  0  0  0  0  0  0  0  0
   14.4886   60.6909   81.4691 O   0  0  0  0  0  0  0  0  0  0  0  0
   14.9588   55.7966   81.8820 C   0  0  0  0  0  0  0  0  0  0  0  0
   10.0769   55.9029   80.8188 C   0  0  0  0  0  0  0  0  0  0  0  0
   10.8332   59.3283   80.0417 C   0  0  0  0  0  0  0  0  0  0  0  0
   16.0798   57.3175   80.4241 C   0  0  0  0  0  0  0  0  0  0  0  0
   13.2653   59.4610   79.7116 C   0  0  0  0  0  0  0  0  0  0  0  0
   12.0093   59.0473   79.3122 C   0  0  0  0  0  0  0  0  0  0  0  0
   12.1120   60.9431   81.3925 C   0  0  0  0  0  0  0  0  0  0  0  0
    8.8908   57.6033   81.9757 O   0  0  0  0  0  0  0  0  0  0  0  0
   14.3289   59.6694   77.7458 O   0  0  0  0  0  0  0  0  0  0  0  0
   13.3150   60.4129   80.8355 C   0  0  0  0  0  0  0  0  0  0  0  0
  1 16  2  0
  1 20  1  0
  2 14  2  0
  2 17  1  0
  3  4  1  0
  3  6  1  0
  3 17  1  0
  4 18  1  0
  4 22  1  0
  5  9  1  0
  5 14  1  0
  6 10  2  0
  7 12  1  0
  7 16  1  0
  8 11  1  0
  8 15  1  0
  9 11  1  0
 10 11  1  0
 10 14  1  0
 12 15  1  0
 12 21  1  0
 13 23  1  0
 16 19  1  0
 18 19  2  0
 18 23  1  0
 20 23  2  0
M  END
>  <ID>  (1) 
conformer_0

$$$$
