
     RDKit          3D

 19 21  0  0  0  0  0  0  0  0999 V2000
    9.4239   60.4867   79.6319 O   0  0  0  0  0  0  0  0  0  0  0  0
   12.4195   58.7060   80.5699 C   0  0  0  0  0  0  0  0  0  0  0  0
   12.4825   54.5388   82.9507 C   0  0  0  0  0  0  0  0  0  0  0  0
   11.4060   57.8213   81.2197 C   0  0  0  0  0  0  0  0  0  0  0  0
   11.6699   59.6622   79.6758 C   0  0  0  0  0  0  0  0  0  0  0  0
   15.8228   58.1296   80.0592 O   0  0  0  0  0  0  0  0  0  0  0  0
   14.7860   56.7972   81.6486 N   0  0  0  0  0  0  0  0  0  0  0  0
   13.6868   58.1972   80.2136 N   0  0  0  0  0  0  0  0  0  0  0  0
   11.0743   59.6772   82.6860 O   0  0  0  0  0  0  0  0  0  0  0  0
   12.2940   56.5723   81.6428 N   0  0  0  0  0  0  0  0  0  0  0  0
   14.5600   55.9665   82.6344 C   0  0  0  0  0  0  0  0  0  0  0  0
   11.2463   58.8278   78.5516 O   0  0  0  0  0  0  0  0  0  0  0  0
   10.3114   59.0193   81.5439 C   0  0  0  0  0  0  0  0  0  0  0  0
   15.6644   55.9619   83.4563 O   0  0  0  0  0  0  0  0  0  0  0  0
   11.7012   55.4410   82.1678 C   0  0  0  0  0  0  0  0  0  0  0  0
   10.4042   60.0546   80.4251 C   0  0  0  0  0  0  0  0  0  0  0  0
   13.5864   56.6026   81.7420 C   0  0  0  0  0  0  0  0  0  0  0  0
   14.8208   57.7224   80.6353 C   0  0  0  0  0  0  0  0  0  0  0  0
   13.8193   54.8459   83.1594 C   0  0  0  0  0  0  0  0  0  0  0  0
  1 16  1  0
  2  4  1  0
  2  5  1  0
  2  8  1  0
  3 15  2  0
  3 19  1  0
  4 10  1  0
  4 13  1  0
  5 12  1  0
  5 16  1  0
  6 18  2  0
  7 11  1  0
  7 17  1  0
  7 18  1  0
  8 18  1  0
  9 13  1  0
 10 15  1  0
 10 17  1  0
 11 14  2  0
 11 19  1  0
 13 16  1  0
M  END
>  <ID>  (1) 
conformer_0

$$$$
