
     RDKit          3D

 31 33  0  0  0  0  0  0  0  0999 V2000
   12.4299   53.9128   81.7296 C   0  0  0  0  0  0  0  0  0  0  0  0
   10.1524   60.9215   83.2327 O   0  0  0  0  0  0  0  0  0  0  0  0
   15.9141   58.7696   79.2543 C   0  0  0  0  0  0  0  0  0  0  0  0
   16.9908   59.2588   78.6287 C   0  0  0  0  0  0  0  0  0  0  0  0
   15.3518   54.9465   83.8284 O   0  0  0  0  0  0  0  0  0  0  0  0
   11.4029   61.8026   81.4882 C   0  0  0  0  0  0  0  0  0  0  0  0
   12.3438   59.3994   79.6275 C   0  0  0  0  0  0  0  0  0  0  0  0
   13.5091   61.5178   79.7989 C   0  0  0  0  0  0  0  0  0  0  0  0
    8.3456   62.2295   81.1695 O   0  0  0  0  0  0  0  0  0  0  0  0
   13.0852   56.7263   81.8263 O   0  0  0  0  0  0  0  0  0  0  0  0
   13.2270   54.2635   82.9364 C   0  0  0  0  0  0  0  0  0  0  0  0
   11.3922   58.7079   78.9731 O   0  0  0  0  0  0  0  0  0  0  0  0
   10.6500   61.1696   80.3660 C   0  0  0  0  0  0  0  0  0  0  0  0
   14.6183   60.6353   80.1784 C   0  0  0  0  0  0  0  0  0  0  0  0
   14.4522   55.1147   82.8066 C   0  0  0  0  0  0  0  0  0  0  0  0
   12.5109   60.7691   78.9815 C   0  0  0  0  0  0  0  0  0  0  0  0
   19.2818   59.0669   78.1891 N   0  0  0  0  0  0  0  0  0  0  0  0
   15.9218   57.5882   79.9863 N   0  0  0  0  0  0  0  0  0  0  0  0
    9.1766   61.2768   80.4802 C   0  0  0  0  0  0  0  0  0  0  0  0
   12.8605   53.8975   84.1339 O   0  0  0  0  0  0  0  0  0  0  0  0
   14.6235   59.4364   79.3360 C   0  0  0  0  0  0  0  0  0  0  0  0
   14.6886   57.2857   80.4202 C   0  0  0  0  0  0  0  0  0  0  0  0
   13.9356   62.6993   79.3779 O   0  0  0  0  0  0  0  0  0  0  0  0
   17.1090   56.9711   80.1171 C   0  0  0  0  0  0  0  0  0  0  0  0
   13.6417   58.4289   79.9414 C   0  0  0  0  0  0  0  0  0  0  0  0
   10.4057   62.1046   82.5685 C   0  0  0  0  0  0  0  0  0  0  0  0
   18.1829   58.5764   78.7708 C   0  0  0  0  0  0  0  0  0  0  0  0
   18.2413   57.4287   79.5364 N   0  0  0  0  0  0  0  0  0  0  0  0
   12.8361   59.1663   80.8322 O   0  0  0  0  0  0  0  0  0  0  0  0
   11.2340   61.4651   79.0939 O   0  0  0  0  0  0  0  0  0  0  0  0
   14.4218   56.2429   81.5861 C   0  0  0  0  0  0  0  0  0  0  0  0
  1 11  1  0
  2 26  1  0
  3  4  2  0
  3 18  1  0
  3 21  1  0
  4 27  1  0
  5 15  1  0
  6 13  1  0
  6 26  1  0
  7 12  2  0
  7 16  1  0
  7 29  1  0
  8 14  1  0
  8 16  1  0
  8 23  1  0
  9 19  1  0
 10 31  1  0
 11 15  1  0
 11 20  1  0
 13 19  1  0
 13 30  1  0
 14 21  1  0
 15 31  1  0
 16 30  1  0
 17 27  2  0
 18 22  1  0
 18 24  1  0
 21 25  1  0
 22 25  1  0
 22 31  2  3
 24 28  2  0
 25 29  1  0
 27 28  1  0
M  END
>  <ID>  (1) 
conformer_0

$$$$
