
     RDKit          3D

 28 30  0  0  0  0  0  0  0  0999 V2000
    8.9591   59.8447   79.4110 C   0  0  0  0  0  0  0  0  0  0  0  0
   12.0211   55.9271   82.3620 N   0  0  0  0  0  0  0  0  0  0  0  0
   15.8070   57.5135   83.7024 O   0  0  0  0  0  0  0  0  0  0  0  0
   12.5067   60.8535   80.1557 N   0  0  0  0  0  0  0  0  0  0  0  0
   13.0979   53.5887   82.6374 C   0  0  0  0  0  0  0  0  0  0  0  0
   10.6909   56.5597   82.4646 C   0  0  0  0  0  0  0  0  0  0  0  0
   10.0603   58.1349   80.6271 C   0  0  0  0  0  0  0  0  0  0  0  0
   11.1044   59.0231   80.8307 C   0  0  0  0  0  0  0  0  0  0  0  0
   10.7747   53.9644   82.4888 O   0  0  0  0  0  0  0  0  0  0  0  0
   14.0789   54.2398   83.5850 C   0  0  0  0  0  0  0  0  0  0  0  0
   14.5610   56.0907   81.6613 C   0  0  0  0  0  0  0  0  0  0  0  0
   13.5849   54.2761   84.9031 O   0  0  0  0  0  0  0  0  0  0  0  0
   13.5957   60.2990   79.4699 C   0  0  0  0  0  0  0  0  0  0  0  0
    8.9389   58.5809   79.9393 C   0  0  0  0  0  0  0  0  0  0  0  0
   14.5564   55.5784   83.1338 C   0  0  0  0  0  0  0  0  0  0  0  0
   10.0504   60.6916   79.5102 C   0  0  0  0  0  0  0  0  0  0  0  0
   16.4172   57.7254   79.8227 C   0  0  0  0  0  0  0  0  0  0  0  0
   10.1050   56.6597   81.0517 C   0  0  0  0  0  0  0  0  0  0  0  0
   17.0986   58.9964   79.3550 C   0  0  0  0  0  0  0  0  0  0  0  0
   11.9605   54.5127   82.2880 C   0  0  0  0  0  0  0  0  0  0  0  0
   14.7792   59.5228   80.0174 C   0  0  0  0  0  0  0  0  0  0  0  0
   11.2138   60.2322   80.1964 C   0  0  0  0  0  0  0  0  0  0  0  0
    7.8682   60.2811   78.7615 O   0  0  0  0  0  0  0  0  0  0  0  0
   14.0925   57.1004   80.5368 C   0  0  0  0  0  0  0  0  0  0  0  0
   13.5618   60.4713   78.2043 O   0  0  0  0  0  0  0  0  0  0  0  0
   14.9500   58.0525   79.7796 C   0  0  0  0  0  0  0  0  0  0  0  0
   16.1075   60.1275   79.5724 C   0  0  0  0  0  0  0  0  0  0  0  0
   15.7790   56.0748   83.8600 C   0  0  0  0  0  0  0  0  0  0  0  0
  1 14  2  0
  1 16  1  0
  1 23  1  0
  2  6  1  0
  2 20  1  0
  3 28  1  0
  4 13  1  0
  4 22  1  0
  5 10  1  0
  5 20  1  0
  6 18  1  0
  7  8  1  0
  7 14  1  0
  7 18  1  0
  8 22  2  0
  9 20  2  0
 10 12  1  0
 10 15  1  0
 11 15  1  0
 11 24  1  0
 13 21  1  0
 13 25  2  0
 15 28  1  0
 16 22  1  0
 17 19  1  0
 17 26  1  0
 19 27  1  0
 21 26  1  0
 21 27  1  0
 24 26  1  0
M  END
>  <ID>  (1) 
conformer_0

$$$$
