
     RDKit          3D

 23 23  0  0  0  0  0  0  0  0999 V2000
   15.5605   57.3282   81.6832 N   0  0  0  0  0  0  0  0  0  0  0  0
   12.1612   60.0842   81.5569 F   0  0  0  0  0  0  0  0  0  0  0  0
   17.7125   59.9383   78.2487 C   0  0  0  0  0  0  0  0  0  0  0  0
   16.8968   60.6985   78.7847 O   0  0  0  0  0  0  0  0  0  0  0  0
   13.4765   58.5454   80.0124 C   0  0  0  0  0  0  0  0  0  0  0  0
   12.3037   56.5859   80.8667 C   0  0  0  0  0  0  0  0  0  0  0  0
   16.4821   58.1615   79.3682 C   0  0  0  0  0  0  0  0  0  0  0  0
   14.4392   55.9412   82.5744 C   0  0  0  0  0  0  0  0  0  0  0  0
   15.5854   55.9149   83.2816 N   0  0  0  0  0  0  0  0  0  0  0  0
   18.3098   60.1110   77.1755 O   0  0  0  0  0  0  0  0  0  0  0  0
   11.2319   58.2872   78.6812 O   0  0  0  0  0  0  0  0  0  0  0  0
   11.8198   55.5922   81.5149 C   0  0  0  0  0  0  0  0  0  0  0  0
   12.2365   54.8240   82.5010 N   0  0  0  0  0  0  0  0  0  0  0  0
   10.2362   59.4164   80.7898 F   0  0  0  0  0  0  0  0  0  0  0  0
   11.4542   59.9726   80.3769 C   0  0  0  0  0  0  0  0  0  0  0  0
   13.8693   54.1487   84.0763 N   0  0  0  0  0  0  0  0  0  0  0  0
   12.2112   58.9105   79.4035 C   0  0  0  0  0  0  0  0  0  0  0  0
   13.4977   54.9575   83.0197 C   0  0  0  0  0  0  0  0  0  0  0  0
   17.7784   58.5602   78.8909 C   0  0  0  0  0  0  0  0  0  0  0  0
   14.4409   56.9032   81.6049 C   0  0  0  0  0  0  0  0  0  0  0  0
   13.4450   57.3109   80.8431 N   0  0  0  0  0  0  0  0  0  0  0  0
   14.9500   58.5532   79.3649 C   0  0  0  0  0  0  0  0  0  0  0  0
   11.1989   60.9715   79.5500 O   0  0  0  0  0  0  0  0  0  0  0  0
  1 20  2  0
  2 15  1  0
  3  4  2  0
  3 10  1  0
  3 19  1  0
  5 17  1  0
  5 21  1  0
  5 22  1  0
  6 12  2  0
  6 21  1  0
  7 19  1  0
  7 22  1  0
  8  9  1  0
  8 18  1  0
  8 20  1  0
 11 17  1  0
 12 13  1  0
 13 18  1  0
 14 15  1  0
 15 17  1  0
 15 23  1  0
 16 18  2  0
 20 21  1  0
M  END
>  <ID>  (1) 
conformer_0

$$$$
