
     RDKit          3D

 16 17  0  0  0  0  0  0  0  0999 V2000
   14.9060   55.9924   81.9291 C   0  0  0  0  0  0  0  0  0  0  0  0
   13.3446   57.3251   80.4913 N   0  0  0  0  0  0  0  0  0  0  0  0
   14.9003   58.7018   79.1377 C   0  0  0  0  0  0  0  0  0  0  0  0
   10.4787   58.0684   81.0675 C   0  0  0  0  0  0  0  0  0  0  0  0
   14.8899   57.4067   79.9496 C   0  0  0  0  0  0  0  0  0  0  0  0
   13.3208   60.3255   78.3573 O   0  0  0  0  0  0  0  0  0  0  0  0
   10.8608   59.9819   79.4844 O   0  0  0  0  0  0  0  0  0  0  0  0
   12.6527   58.5674   79.9979 C   0  0  0  0  0  0  0  0  0  0  0  0
   12.7587   55.1874   81.2574 O   0  0  0  0  0  0  0  0  0  0  0  0
   13.5314   59.3195   79.1204 C   0  0  0  0  0  0  0  0  0  0  0  0
   13.5485   56.1314   81.2848 C   0  0  0  0  0  0  0  0  0  0  0  0
   11.3026   59.0385   80.3091 C   0  0  0  0  0  0  0  0  0  0  0  0
   15.7379   56.9553   83.9640 O   0  0  0  0  0  0  0  0  0  0  0  0
   14.3428   55.1255   84.1033 N   0  0  0  0  0  0  0  0  0  0  0  0
   15.1034   55.9704   83.4046 C   0  0  0  0  0  0  0  0  0  0  0  0
   15.7489   57.0725   81.2192 C   0  0  0  0  0  0  0  0  0  0  0  0
  1 11  1  0
  1 15  1  0
  1 16  1  0
  2  5  1  0
  2  8  1  0
  2 11  1  0
  3  5  1  0
  3 10  1  0
  4 12  1  0
  5 16  1  0
  6 10  2  0
  7 12  1  0
  8 10  1  0
  8 12  1  0
  9 11  2  0
 13 15  2  0
 14 15  1  0
M  END
>  <ID>  (1) 
conformer_0

$$$$
