
     RDKit          3D

 20 21  0  0  0  0  0  0  0  0999 V2000
   12.3487   60.0866   78.6178 O   0  0  0  0  0  0  0  0  0  0  0  0
   12.6743   58.2862   79.8397 N   0  0  0  0  0  0  0  0  0  0  0  0
   13.6796   56.1684   81.5134 C   0  0  0  0  0  0  0  0  0  0  0  0
   12.3267   55.8183   81.5375 C   0  0  0  0  0  0  0  0  0  0  0  0
   10.7215   59.5879   80.1550 N   0  0  0  0  0  0  0  0  0  0  0  0
   10.2047   57.4620   81.1487 C   0  0  0  0  0  0  0  0  0  0  0  0
   14.3236   55.5993   82.6264 C   0  0  0  0  0  0  0  0  0  0  0  0
   10.0143   58.2420   79.8959 C   0  0  0  0  0  0  0  0  0  0  0  0
   10.5623   59.8605   81.6141 C   0  0  0  0  0  0  0  0  0  0  0  0
   14.7705   58.6952   79.2062 N   0  0  0  0  0  0  0  0  0  0  0  0
   15.5159   55.9364   83.3455 C   0  0  0  0  0  0  0  0  0  0  0  0
   14.3316   56.8679   80.6059 N   0  0  0  0  0  0  0  0  0  0  0  0
   12.0083   59.4071   79.4782 C   0  0  0  0  0  0  0  0  0  0  0  0
   11.0685   56.3860   81.1253 O   0  0  0  0  0  0  0  0  0  0  0  0
   10.4820   58.4900   82.2652 C   0  0  0  0  0  0  0  0  0  0  0  0
   12.1450   54.7526   82.5126 C   0  0  0  0  0  0  0  0  0  0  0  0
   13.4201   54.5995   83.2011 C   0  0  0  0  0  0  0  0  0  0  0  0
   13.9411   57.9220   79.8764 C   0  0  0  0  0  0  0  0  0  0  0  0
   16.0100   57.2118   83.2386 O   0  0  0  0  0  0  0  0  0  0  0  0
    9.9949   60.8266   79.5394 C   0  0  0  0  0  0  0  0  0  0  0  0
  1 13  2  0
  2 13  1  0
  2 18  1  0
  3  4  1  0
  3  7  1  0
  3 12  1  0
  4 14  1  0
  4 16  1  0
  5  9  1  0
  5 13  1  0
  5 20  1  0
  6  8  1  0
  6 14  1  0
  6 15  1  0
  7 11  1  0
  7 17  1  0
  9 15  1  0
 10 18  2  0
 11 19  1  0
 12 18  1  0
 16 17  1  0
M  END
>  <ID>  (1) 
conformer_0

$$$$
