
     RDKit          3D

 29 32  0  0  0  0  0  0  0  0999 V2000
   15.6817   56.6275   83.2527 C   0  0  0  0  0  0  0  0  0  0  0  0
   11.5126   58.8197   78.7333 O   0  0  0  0  0  0  0  0  0  0  0  0
   14.1092   59.4806   78.8748 C   0  0  0  0  0  0  0  0  0  0  0  0
   10.2494   60.2354   80.1728 C   0  0  0  0  0  0  0  0  0  0  0  0
   11.0697   55.4185   81.0345 O   0  0  0  0  0  0  0  0  0  0  0  0
   15.8449   57.2367   82.0537 O   0  0  0  0  0  0  0  0  0  0  0  0
    9.5364   60.9161   82.4518 O   0  0  0  0  0  0  0  0  0  0  0  0
   14.4496   54.7999   84.3940 O   0  0  0  0  0  0  0  0  0  0  0  0
   11.8523   61.2643   81.6490 C   0  0  0  0  0  0  0  0  0  0  0  0
   15.4034   56.7521   80.7857 C   0  0  0  0  0  0  0  0  0  0  0  0
   11.7021   59.7869   79.7719 C   0  0  0  0  0  0  0  0  0  0  0  0
   13.9186   58.6482   80.1606 O   0  0  0  0  0  0  0  0  0  0  0  0
    9.3931   59.0443   80.2644 O   0  0  0  0  0  0  0  0  0  0  0  0
   10.5965   60.2281   81.7846 C   0  0  0  0  0  0  0  0  0  0  0  0
   14.8537   55.3959   83.2258 C   0  0  0  0  0  0  0  0  0  0  0  0
   10.7951   54.8259   83.1758 O   0  0  0  0  0  0  0  0  0  0  0  0
   13.8065   55.4081   82.1797 C   0  0  0  0  0  0  0  0  0  0  0  0
   15.9718   57.2125   84.4369 O   0  0  0  0  0  0  0  0  0  0  0  0
   14.4343   61.8896   79.0272 O   0  0  0  0  0  0  0  0  0  0  0  0
    9.9798   58.7594   81.6435 C   0  0  0  0  0  0  0  0  0  0  0  0
   12.6681   60.7972   80.3778 C   0  0  0  0  0  0  0  0  0  0  0  0
   12.6779   59.3036   80.7367 O   0  0  0  0  0  0  0  0  0  0  0  0
   13.7912   60.8382   79.3628 C   0  0  0  0  0  0  0  0  0  0  0  0
   15.5329   59.1587   78.8655 O   0  0  0  0  0  0  0  0  0  0  0  0
   10.0864   61.5638   79.7902 O   0  0  0  0  0  0  0  0  0  0  0  0
   14.1268   56.0348   80.8956 C   0  0  0  0  0  0  0  0  0  0  0  0
   11.3834   54.8589   82.1187 C   0  0  0  0  0  0  0  0  0  0  0  0
   15.3105   57.9229   79.7652 C   0  0  0  0  0  0  0  0  0  0  0  0
   12.8312   54.2973   82.1485 C   0  0  0  0  0  0  0  0  0  0  0  0
  1  6  1  0
  1 15  1  0
  1 18  2  0
  2 11  1  0
  3 12  1  0
  3 23  1  0
  3 24  1  0
  4 11  1  0
  4 13  1  0
  4 14  1  0
  4 25  1  0
  5 27  2  0
  6 10  1  0
  7 14  1  0
  8 15  1  0
  9 14  1  0
  9 21  1  0
 10 26  1  0
 10 28  1  0
 11 21  1  0
 11 22  1  0
 12 28  1  0
 13 20  1  0
 14 20  1  0
 15 17  1  0
 16 27  1  0
 17 26  1  0
 17 29  1  0
 19 23  2  0
 21 23  1  0
 24 28  1  0
 27 29  1  0
M  END
>  <ID>  (1) 
conformer_0

$$$$
