
     RDKit          3D

 11 10  0  0  0  0  0  0  0  0999 V2000
   12.6959   57.7488   80.5340 C   0  0  0  0  0  0  0  0  0  0  0  0
   11.8258   56.6195   80.9580 C   0  0  0  0  0  0  0  0  0  0  0  0
   11.9446   58.6837   79.6069 C   0  0  0  0  0  0  0  0  0  0  0  0
   16.3433   56.3762   80.5902 C   0  0  0  0  0  0  0  0  0  0  0  0
   15.1568   56.3081   82.7767 C   0  0  0  0  0  0  0  0  0  0  0  0
   14.1343   57.4905   80.6212 C   0  0  0  0  0  0  0  0  0  0  0  0
   12.3313   55.7407   81.7085 O   0  0  0  0  0  0  0  0  0  0  0  0
   16.0654   57.1286   83.4841 O   0  0  0  0  0  0  0  0  0  0  0  0
   10.6453   56.6202   80.5338 O   0  0  0  0  0  0  0  0  0  0  0  0
   12.3485   60.3196   79.9611 S   0  0  0  0  0  0  0  0  0  0  0  0
   14.9985   56.5966   81.3481 C   0  0  0  0  0  0  0  0  0  0  0  0
  1  2  1  0
  1  3  1  0
  1  6  1  0
  2  7  2  0
  2  9  1  0
  3 10  1  0
  4 11  1  0
  5  8  1  0
  5 11  1  0
  6 11  1  0
M  END
>  <ID>  (1) 
conformer_0

$$$$
