
     RDKit          3D

 11 10  0  0  0  0  0  0  0  0999 V2000
   11.5729   59.0595   79.1292 O   0  0  0  0  0  0  0  0  0  0  0  0
   14.3915   60.0556   80.8559 O   0  0  0  0  0  0  0  0  0  0  0  0
   12.5406   57.0101   80.2005 C   0  0  0  0  0  0  0  0  0  0  0  0
   14.4984   55.6835   81.7591 C   0  0  0  0  0  0  0  0  0  0  0  0
   14.8894   55.2065   84.0587 O   0  0  0  0  0  0  0  0  0  0  0  0
   15.2198   56.0753   83.0275 C   0  0  0  0  0  0  0  0  0  0  0  0
   14.7598   56.7703   80.6538 C   0  0  0  0  0  0  0  0  0  0  0  0
   13.2527   57.9410   81.9733 O   0  0  0  0  0  0  0  0  0  0  0  0
   13.6377   57.7898   80.7208 C   0  0  0  0  0  0  0  0  0  0  0  0
   12.8432   59.6080   79.1295 C   0  0  0  0  0  0  0  0  0  0  0  0
   13.9630   59.0512   80.0007 C   0  0  0  0  0  0  0  0  0  0  0  0
  1 10  1  0
  2 11  1  0
  3  9  1  0
  4  6  1  0
  4  7  1  0
  5  6  1  0
  7  9  1  0
  8  9  1  0
  9 11  1  0
 10 11  1  0
M  END
>  <ID>  (1) 
conformer_0

$$$$
