
     RDKit          3D

 14 13  0  0  0  0  0  0  0  0999 V2000
   14.3028   57.7085   79.8420 C   0  0  0  0  0  0  0  0  0  0  0  0
   12.6678   56.8934   81.3292 O   0  0  0  0  0  0  0  0  0  0  0  0
   14.9579   56.2924   81.8533 C   0  0  0  0  0  0  0  0  0  0  0  0
   11.8116   60.4976   79.3767 O   0  0  0  0  0  0  0  0  0  0  0  0
   16.0136   57.2976   81.7844 C   0  0  0  0  0  0  0  0  0  0  0  0
   10.7094   58.4524   79.7400 C   0  0  0  0  0  0  0  0  0  0  0  0
    9.8657   58.4036   78.6241 O   0  0  0  0  0  0  0  0  0  0  0  0
   16.8937   57.3584   80.7564 O   0  0  0  0  0  0  0  0  0  0  0  0
   14.1995   54.9106   83.6275 O   0  0  0  0  0  0  0  0  0  0  0  0
   13.8970   56.6618   80.8196 C   0  0  0  0  0  0  0  0  0  0  0  0
   15.5660   56.6416   84.1726 O   0  0  0  0  0  0  0  0  0  0  0  0
   14.9163   55.9053   83.3337 C   0  0  0  0  0  0  0  0  0  0  0  0
   13.4145   58.9103   79.7637 C   0  0  0  0  0  0  0  0  0  0  0  0
   12.0347   59.1189   79.3014 C   0  0  0  0  0  0  0  0  0  0  0  0
  1 10  1  0
  1 13  1  0
  2 10  1  0
  3  5  1  0
  3 10  1  0
  3 12  1  0
  4 14  1  0
  5  8  1  0
  6  7  1  0
  6 14  1  0
  9 12  2  0
 11 12  1  0
 13 14  1  0
M  END
>  <ID>  (1) 
conformer_0

$$$$
