
     RDKit          3D

 22 23  0  0  0  0  0  0  0  0999 V2000
   15.3511   55.9901   82.9049 C   0  0  0  0  0  0  0  0  0  0  0  0
   10.4602   57.0858   80.4187 C   0  0  0  0  0  0  0  0  0  0  0  0
   14.1936   58.1256   80.0248 C   0  0  0  0  0  0  0  0  0  0  0  0
   10.9435   54.7638   81.0749 O   0  0  0  0  0  0  0  0  0  0  0  0
   13.2784   61.6966   79.9473 O   0  0  0  0  0  0  0  0  0  0  0  0
   13.5807   59.8287   78.5612 O   0  0  0  0  0  0  0  0  0  0  0  0
   11.7062   60.5826   81.7212 O   0  0  0  0  0  0  0  0  0  0  0  0
   13.3027   60.3743   79.7973 C   0  0  0  0  0  0  0  0  0  0  0  0
   15.1524   57.3580   80.6790 O   0  0  0  0  0  0  0  0  0  0  0  0
   15.6758   60.0502   79.7852 O   0  0  0  0  0  0  0  0  0  0  0  0
   14.1573   55.0812   82.8801 C   0  0  0  0  0  0  0  0  0  0  0  0
   14.4850   59.5577   79.6987 C   0  0  0  0  0  0  0  0  0  0  0  0
   13.5444   55.1184   81.5206 C   0  0  0  0  0  0  0  0  0  0  0  0
   12.8842   57.8993   80.6095 O   0  0  0  0  0  0  0  0  0  0  0  0
   15.7274   56.4065   84.2062 O   0  0  0  0  0  0  0  0  0  0  0  0
   11.3142   56.0273   81.0591 C   0  0  0  0  0  0  0  0  0  0  0  0
   10.7279   58.3480   81.2178 C   0  0  0  0  0  0  0  0  0  0  0  0
   12.0068   59.4607   80.5460 S   0  0  0  0  0  6  0  0  0  0  0  0
   15.1035   57.1624   82.0376 C   0  0  0  0  0  0  0  0  0  0  0  0
   10.8543   58.1476   82.5785 O   0  0  0  0  0  0  0  0  0  0  0  0
   12.7934   56.4534   81.1279 C   0  0  0  0  0  0  0  0  0  0  0  0
   11.0422   59.7894   79.3204 O   0  0  0  0  0  0  0  0  0  0  0  0
  1 11  1  0
  1 15  1  0
  1 19  1  0
  2 16  1  0
  2 17  1  0
  3  9  1  0
  3 12  1  0
  3 14  1  0
  4 16  1  0
  5  8  1  0
  6  8  1  0
  7 18  1  0
  8 12  1  0
  8 18  1  0
  9 19  1  0
 10 12  1  0
 11 13  1  0
 13 21  1  0
 14 18  1  0
 16 21  1  0
 17 18  1  0
 17 20  1  0
 18 22  1  0
M  END
>  <ID>  (1) 
conformer_0

$$$$
