
     RDKit          3D

 28 30  0  0  0  0  0  0  0  0999 V2000
   14.2129   59.6826   79.1703 C   0  0  0  0  0  0  0  0  0  0  0  0
   11.9780   60.1871   80.5658 C   0  0  0  0  0  0  0  0  0  0  0  0
   13.2546   61.8386   79.3707 O   0  0  0  0  0  0  0  0  0  0  0  0
   10.0955   59.6762   79.0912 O   0  0  0  0  0  0  0  0  0  0  0  0
   17.5883   58.8414   80.0223 O   0  0  0  0  0  0  0  0  0  0  0  0
   16.7611   59.1579   78.9879 C   0  0  0  0  0  0  0  0  0  0  0  0
    9.5950   57.2443   80.2021 C   0  0  0  0  0  0  0  0  0  0  0  0
   11.5938   57.9264   81.7179 O   0  0  0  0  0  0  0  0  0  0  0  0
   11.7134   60.7643   81.9114 C   0  0  0  0  0  0  0  0  0  0  0  0
   13.4193   54.3566   83.8559 N   0  0  0  0  0  0  0  0  0  0  0  0
   10.8997   53.4920   81.9053 O   0  0  0  0  0  0  0  0  0  0  0  0
   13.2425   60.5812   79.8649 C   0  0  0  0  0  0  0  0  0  0  0  0
   14.1125   58.1676   79.4830 C   0  0  0  0  0  0  0  0  0  0  0  0
   10.3258   58.3362   81.0494 C   0  0  0  0  0  0  0  0  0  0  0  0
    9.3992   56.0250   81.1059 C   0  0  0  0  0  0  0  0  0  0  0  0
   12.6078   54.9357   82.9074 C   0  0  0  0  0  0  0  0  0  0  0  0
   11.9252   56.6014   81.4252 C   0  0  0  0  0  0  0  0  0  0  0  0
   14.4525   56.1444   82.1061 C   0  0  0  0  0  0  0  0  0  0  0  0
   10.9477   59.3122   79.9848 C   0  0  0  0  0  0  0  0  0  0  0  0
   10.3861   54.6233   83.9464 O   0  0  0  0  0  0  0  0  0  0  0  0
   15.7881   60.8557   80.4367 O   0  0  0  0  0  0  0  0  0  0  0  0
   13.0754   55.9354   82.0951 C   0  0  0  0  0  0  0  0  0  0  0  0
   11.0873   54.6159   82.7114 C   0  0  0  0  0  0  0  0  0  0  0  0
   10.7369   60.4611   82.8811 O   0  0  0  0  0  0  0  0  0  0  0  0
   14.7408   54.6417   83.9356 C   0  0  0  0  0  0  0  0  0  0  0  0
   15.3051   55.5116   83.0199 C   0  0  0  0  0  0  0  0  0  0  0  0
   15.6502   60.1155   79.3044 C   0  0  0  0  0  0  0  0  0  0  0  0
   10.7090   55.8412   81.7890 N   0  0  0  0  0  0  0  0  0  0  0  0
  1 12  1  0
  1 13  1  0
  1 27  1  0
  2  9  2  3
  2 12  1  0
  2 19  1  0
  3 12  1  0
  4 19  1  0
  5  6  1  0
  6 27  1  0
  7 14  1  0
  7 15  1  0
  8 14  1  0
  8 17  1  0
  9 24  1  0
 10 16  2  0
 10 25  1  0
 11 23  1  0
 14 19  1  0
 15 28  1  0
 16 22  1  0
 16 23  1  0
 17 22  1  0
 17 28  1  0
 18 22  2  0
 18 26  1  0
 20 23  1  0
 21 27  1  0
 23 28  1  0
 25 26  2  0
M  END
>  <ID>  (1) 
conformer_0

$$$$
