
     RDKit          3D

 20 21  0  0  0  0  0  0  0  0999 V2000
   14.4646   56.1427   82.6910 C   0  0  0  0  0  0  0  0  0  0  0  0
   10.6614   56.0214   80.6026 C   0  0  0  0  0  0  0  0  0  0  0  0
   15.0779   59.2659   78.5710 C   0  0  0  0  0  0  0  0  0  0  0  0
   15.7372   55.9934   82.1669 C   0  0  0  0  0  0  0  0  0  0  0  0
   17.1374   58.3055   79.2228 C   0  0  0  0  0  0  0  0  0  0  0  0
   13.8271   57.6709   80.9684 C   0  0  0  0  0  0  0  0  0  0  0  0
   12.7343   58.6007   80.7074 C   0  0  0  0  0  0  0  0  0  0  0  0
   11.7862   60.6706   80.5214 N   0  0  0  0  0  0  0  0  0  0  0  0
   12.8786   60.0003   80.8942 C   0  0  0  0  0  0  0  0  0  0  0  0
   14.1850   55.6125   83.8892 O   0  0  0  0  0  0  0  0  0  0  0  0
   10.7805   59.7431   80.2790 O   0  0  0  0  0  0  0  0  0  0  0  0
   13.5198   56.8437   82.0419 C   0  0  0  0  0  0  0  0  0  0  0  0
   13.9187   60.6183   81.4469 N   0  0  0  0  0  0  0  0  0  0  0  0
   16.0442   56.7189   81.0341 C   0  0  0  0  0  0  0  0  0  0  0  0
   11.3196   58.4559   80.5129 C   0  0  0  0  0  0  0  0  0  0  0  0
   18.0158   58.7295   80.0545 O   0  0  0  0  0  0  0  0  0  0  0  0
   10.3159   57.3663   80.7083 C   0  0  0  0  0  0  0  0  0  0  0  0
    9.0627   57.6765   81.0393 O   0  0  0  0  0  0  0  0  0  0  0  0
   15.7503   58.3661   79.4341 N   0  0  0  0  0  0  0  0  0  0  0  0
   15.1483   57.5921   80.4620 C   0  0  0  0  0  0  0  0  0  0  0  0
  1  4  1  0
  1 10  1  0
  1 12  2  0
  2 17  1  0
  3 19  1  0
  4 14  1  0
  5 16  2  0
  5 19  1  0
  6  7  1  0
  6 12  1  0
  6 20  1  0
  7  9  1  0
  7 15  1  0
  8  9  1  0
  8 11  1  0
  9 13  2  0
 11 15  1  0
 14 20  2  0
 15 17  1  0
 17 18  1  0
 19 20  1  0
M  END
>  <ID>  (1) 
conformer_0

$$$$
