
     RDKit          3D

 36 39  0  0  0  0  0  0  0  0999 V2000
   15.2828   56.0109   83.4022 C   0  0  0  0  0  0  0  0  0  0  0  0
    9.6558   63.9846   80.1938 O   0  0  0  0  0  0  0  0  0  0  0  0
   10.1519   59.3068   81.0127 C   0  0  0  0  0  0  0  0  0  0  0  0
   14.8284   59.0689   80.1238 N   0  0  0  0  0  0  0  0  0  0  0  0
   13.9484   56.1166   81.1709 C   0  0  0  0  0  0  0  0  0  0  0  0
   12.6554   55.5472   81.5664 C   0  0  0  0  0  0  0  0  0  0  0  0
   10.4475   61.8102   81.4504 C   0  0  0  0  0  0  0  0  0  0  0  0
   10.9098   60.4292   81.4917 C   0  0  0  0  0  0  0  0  0  0  0  0
    9.1705   58.7104   81.7396 C   0  0  0  0  0  0  0  0  0  0  0  0
   14.6360   54.9984   84.0511 N   0  0  0  0  0  0  0  0  0  0  0  0
   10.4027   58.7583   79.7502 C   0  0  0  0  0  0  0  0  0  0  0  0
   13.5296   61.8214   79.7965 C   0  0  0  0  0  0  0  0  0  0  0  0
   13.5463   54.2728   83.6967 C   0  0  0  0  0  0  0  0  0  0  0  0
   16.0805   56.8643   84.1821 N   0  0  0  0  0  0  0  0  0  0  0  0
    8.5546   57.2316   79.9549 C   0  0  0  0  0  0  0  0  0  0  0  0
   15.3189   60.0869   79.2175 C   0  0  0  0  0  0  0  0  0  0  0  0
   12.8242   54.3113   82.4297 C   0  0  0  0  0  0  0  0  0  0  0  0
    8.3853   57.6901   81.2595 C   0  0  0  0  0  0  0  0  0  0  0  0
    9.6025   57.7810   79.2012 C   0  0  0  0  0  0  0  0  0  0  0  0
   11.0095   64.1335   80.6865 C   0  0  0  0  0  0  0  0  0  0  0  0
   15.3915   57.7484   80.2580 C   0  0  0  0  0  0  0  0  0  0  0  0
   15.8376   57.3487   81.5230 O   0  0  0  0  0  0  0  0  0  0  0  0
   16.6514   57.9291   79.3367 C   0  0  0  0  0  0  0  0  0  0  0  0
   12.0431   60.1802   82.1532 O   0  0  0  0  0  0  0  0  0  0  0  0
   16.6560   59.3899   78.7928 C   0  0  0  0  0  0  0  0  0  0  0  0
   13.0732   62.4348   78.5193 C   0  0  0  0  0  0  0  0  0  0  0  0
   11.5478   59.0833   79.0350 F   0  0  0  0  0  0  0  0  0  0  0  0
   11.6760   62.4744   78.4451 O   0  0  0  0  0  0  0  0  0  0  0  0
   11.5617   62.7994   81.1743 C   0  0  0  0  0  0  0  0  0  0  0  0
   15.2512   61.3491   81.2946 O   0  0  0  0  0  0  0  0  0  0  0  0
   14.9788   61.4419   79.9264 C   0  0  0  0  0  0  0  0  0  0  0  0
    9.7628   62.1463   82.6610 O   0  0  0  0  0  0  0  0  0  0  0  0
   14.9945   56.4211   82.0848 N   0  0  0  0  0  0  0  0  0  0  0  0
   14.0986   57.0061   80.0874 C   0  0  0  0  0  0  0  0  0  0  0  0
   12.8604   62.3765   80.8887 O   0  0  0  0  0  0  0  0  0  0  0  0
   14.5209   60.0133   78.0509 O   0  0  0  0  0  0  0  0  0  0  0  0
  1 10  1  0
  1 14  2  0
  1 33  1  0
  2 20  1  0
  3  8  1  0
  3  9  2  0
  3 11  1  0
  4 16  1  0
  4 21  1  0
  5  6  1  0
  5 33  1  0
  5 34  1  0
  6 17  1  0
  7  8  1  0
  7 29  1  0
  7 32  1  0
  8 24  1  0
  9 18  1  0
 10 13  2  0
 11 19  2  0
 11 27  1  0
 12 26  1  0
 12 31  1  0
 12 35  1  0
 13 17  1  0
 15 18  2  0
 15 19  1  0
 16 25  1  0
 16 31  1  0
 16 36  1  0
 20 29  1  0
 21 22  1  0
 21 23  1  0
 21 34  1  0
 22 33  1  0
 23 25  1  0
 26 28  1  0
 29 35  1  0
 30 31  1  0
M  END
>  <ID>  (1) 
conformer_0

$$$$
