
     RDKit          3D

 25 27  0  0  0  0  0  0  0  0999 V2000
   12.0851   59.4108   79.3716 C   0  0  0  0  0  0  0  0  0  0  0  0
   12.8693   59.8745   78.3009 O   0  0  0  0  0  0  0  0  0  0  0  0
   12.9029   58.2122   79.8981 C   0  0  0  0  0  0  0  0  0  0  0  0
    8.1701   59.5919   81.0177 C   0  0  0  0  0  0  0  0  0  0  0  0
   14.1578   54.7024   83.9315 C   0  0  0  0  0  0  0  0  0  0  0  0
   12.1499   57.1178   80.2678 N   0  0  0  0  0  0  0  0  0  0  0  0
   11.7867   61.6312   82.2368 C   0  0  0  0  0  0  0  0  0  0  0  0
   16.0383   57.1623   80.4815 C   0  0  0  0  0  0  0  0  0  0  0  0
   15.4425   58.2590   79.4728 C   0  0  0  0  0  0  0  0  0  0  0  0
   11.6880   55.1672   81.7732 C   0  0  0  0  0  0  0  0  0  0  0  0
   11.9877   56.6027   81.5828 C   0  0  0  0  0  0  0  0  0  0  0  0
   10.9385   59.5841   81.3808 O   0  0  0  0  0  0  0  0  0  0  0  0
   15.5926   56.4488   83.2693 C   0  0  0  0  0  0  0  0  0  0  0  0
   12.9695   54.3333   81.7464 C   0  0  0  0  0  0  0  0  0  0  0  0
   11.4826   62.0203   78.9326 O   0  0  0  0  0  0  0  0  0  0  0  0
    9.0969   58.5030   80.4388 C   0  0  0  0  0  0  0  0  0  0  0  0
   10.5961   61.0097   81.4425 C   0  0  0  0  0  0  0  0  0  0  0  0
   14.5983   56.2465   82.2664 N   0  0  0  0  0  0  0  0  0  0  0  0
   14.2067   58.1879   80.1386 N   0  0  0  0  0  0  0  0  0  0  0  0
   14.6700   57.0348   81.0646 C   0  0  0  0  0  0  0  0  0  0  0  0
   10.6086   59.0960   80.0115 C   0  0  0  0  0  0  0  0  0  0  0  0
    9.1908   57.5689   81.5217 O   0  0  0  0  0  0  0  0  0  0  0  0
   15.2802   55.5373   84.3894 C   0  0  0  0  0  0  0  0  0  0  0  0
   10.5798   61.7429   80.0356 C   0  0  0  0  0  0  0  0  0  0  0  0
   14.0855   54.9433   82.4735 C   0  0  0  0  0  0  0  0  0  0  0  0
  1  2  1  0
  1  3  1  0
  1 21  1  0
  3  6  2  0
  3 19  1  0
  4 16  1  0
  5 23  1  0
  5 25  1  0
  6 11  1  0
  7 17  1  0
  8  9  1  0
  8 20  1  0
  9 19  1  0
 10 11  1  0
 10 14  1  0
 12 17  1  0
 12 21  1  0
 13 18  1  0
 13 23  1  0
 14 25  1  0
 15 24  1  0
 16 21  1  0
 16 22  1  0
 17 24  1  0
 18 20  1  0
 18 25  1  0
 19 20  1  0
M  END
>  <ID>  (1) 
conformer_0

$$$$
