
     RDKit          3D

 10  9  0  0  0  0  0  0  0  0999 V2000
   10.7590   57.7503   82.1687 O   0  0  0  0  0  0  0  0  0  0  0  0
   10.8128   59.0786   81.6810 C   0  0  0  0  0  0  0  0  0  0  0  0
   13.7115   56.8428   80.8557 C   0  0  0  0  0  0  0  0  0  0  0  0
   16.0282   56.9438   82.1377 O   0  0  0  0  0  0  0  0  0  0  0  0
   17.1847   57.8071   80.3458 O   0  0  0  0  0  0  0  0  0  0  0  0
   16.1943   57.2010   80.9042 C   0  0  0  0  0  0  0  0  0  0  0  0
   12.4146   57.5156   80.4263 C   0  0  0  0  0  0  0  0  0  0  0  0
   14.9327   57.2193   80.0962 C   0  0  0  0  0  0  0  0  0  0  0  0
   11.1788   56.8152   81.0545 C   0  0  0  0  0  0  0  0  0  0  0  0
   11.9197   59.8234   81.7063 O   0  0  0  0  0  0  0  0  0  0  0  0
  1  2  1  0
  1  9  1  0
  2 10  1  0
  3  7  1  0
  3  8  1  0
  4  6  2  0
  5  6  1  0
  6  8  1  0
  7  9  1  0
M  END
>  <ID>  (1) 
conformer_0

$$$$
