
     RDKit          3D

 21 23  0  0  0  0  0  0  0  0999 V2000
   15.9417   57.4252   79.9959 O   0  0  0  0  0  0  0  0  0  0  0  0
   13.2959   60.8640   80.3544 C   0  0  0  0  0  0  0  0  0  0  0  0
   16.0677   57.1906   83.2551 O   0  0  0  0  0  0  0  0  0  0  0  0
   13.1543   56.0994   81.6769 C   0  0  0  0  0  0  0  0  0  0  0  0
   13.8416   58.4566   80.2202 C   0  0  0  0  0  0  0  0  0  0  0  0
   13.7786   60.8164   81.6881 O   0  0  0  0  0  0  0  0  0  0  0  0
   15.2246   60.1173   79.1189 O   0  0  0  0  0  0  0  0  0  0  0  0
   10.6910   57.0983   81.4729 C   0  0  0  0  0  0  0  0  0  0  0  0
   12.6037   58.3745   80.9965 C   0  0  0  0  0  0  0  0  0  0  0  0
   11.5547   58.8378   78.9375 O   0  0  0  0  0  0  0  0  0  0  0  0
    9.2616   59.0956   81.3209 O   0  0  0  0  0  0  0  0  0  0  0  0
   12.9607   54.4452   81.6892 S   0  0  0  0  0  0  0  0  0  0  0  0
   12.1549   57.0253   81.2362 C   0  0  0  0  0  0  0  0  0  0  0  0
   15.3120   55.1300   83.4601 O   0  0  0  0  0  0  0  0  0  0  0  0
   14.5296   56.5120   81.6711 C   0  0  0  0  0  0  0  0  0  0  0  0
   14.7945   57.4386   80.6132 C   0  0  0  0  0  0  0  0  0  0  0  0
   11.4814   59.1162   80.3371 C   0  0  0  0  0  0  0  0  0  0  0  0
   15.4288   56.2356   82.7819 C   0  0  0  0  0  0  0  0  0  0  0  0
   10.2678   58.3245   80.8029 N   0  0  0  0  0  0  0  0  0  0  0  0
   11.7807   60.6252   80.3852 C   0  0  0  0  0  0  0  0  0  0  0  0
   13.9652   59.7803   79.4910 C   0  0  0  0  0  0  0  0  0  0  0  0
  1 16  1  0
  2  6  1  0
  2 20  1  0
  2 21  1  0
  3 18  2  0
  4 12  2  0
  4 13  1  0
  4 15  1  0
  5  9  1  0
  5 16  1  0
  5 21  1  0
  7 21  1  0
  8 13  1  0
  8 19  1  0
  9 13  1  0
  9 17  1  0
 10 17  1  0
 11 19  1  0
 14 18  1  0
 15 16  1  0
 15 18  1  0
 17 19  1  0
 17 20  1  0
M  END
>  <ID>  (1) 
conformer_0

$$$$
