
     RDKit          3D

 25 28  0  0  0  0  0  0  0  0999 V2000
   12.2524   56.0999   81.0247 C   0  0  0  0  0  0  0  0  0  0  0  0
   16.5792   59.1149   78.5828 C   0  0  0  0  0  0  0  0  0  0  0  0
   16.3684   57.2687   80.0021 C   0  0  0  0  0  0  0  0  0  0  0  0
   10.6677   60.9983   80.1579 O   0  0  0  0  0  0  0  0  0  0  0  0
   14.5045   58.7250   79.7377 C   0  0  0  0  0  0  0  0  0  0  0  0
   11.2564   60.9452   81.4715 C   0  0  0  0  0  0  0  0  0  0  0  0
   13.6407   55.0415   82.6806 C   0  0  0  0  0  0  0  0  0  0  0  0
   10.4445   57.2413   79.9847 N   0  0  0  0  0  0  0  0  0  0  0  0
   15.5151   56.0651   83.6714 C   0  0  0  0  0  0  0  0  0  0  0  0
   10.2217   54.9888   80.3803 N   0  0  0  0  0  0  0  0  0  0  0  0
   13.5380   56.0065   81.7030 C   0  0  0  0  0  0  0  0  0  0  0  0
   10.5184   60.7855   83.7148 O   0  0  0  0  0  0  0  0  0  0  0  0
   11.4501   55.0079   80.9052 C   0  0  0  0  0  0  0  0  0  0  0  0
   14.5910   55.0500   83.6523 C   0  0  0  0  0  0  0  0  0  0  0  0
   12.1432   58.6623   80.9269 C   0  0  0  0  0  0  0  0  0  0  0  0
   15.0964   57.6083   80.4130 C   0  0  0  0  0  0  0  0  0  0  0  0
   15.5395   56.9279   82.6638 C   0  0  0  0  0  0  0  0  0  0  0  0
   10.1825   61.4148   82.5066 C   0  0  0  0  0  0  0  0  0  0  0  0
   14.6486   56.8646   81.5707 N   0  0  0  0  0  0  0  0  0  0  0  0
    9.7306   56.1452   79.9075 C   0  0  0  0  0  0  0  0  0  0  0  0
   11.6329   57.3021   80.6067 C   0  0  0  0  0  0  0  0  0  0  0  0
   11.5078   59.5250   81.8552 C   0  0  0  0  0  0  0  0  0  0  0  0
   15.2650   59.4503   78.8255 C   0  0  0  0  0  0  0  0  0  0  0  0
   17.1206   57.9982   79.1591 C   0  0  0  0  0  0  0  0  0  0  0  0
   13.1107   59.2213   79.9931 C   0  0  0  0  0  0  0  0  0  0  0  0
  1 11  1  0
  1 13  2  0
  1 21  1  0
  2 23  2  0
  2 24  1  0
  3 16  1  0
  3 24  2  0
  4  6  1  0
  5 16  2  0
  5 23  1  0
  5 25  1  0
  6 18  1  0
  6 22  1  0
  7 11  1  0
  7 14  2  0
  8 20  1  0
  8 21  2  0
  9 14  1  0
  9 17  2  0
 10 13  1  0
 10 20  2  0
 11 19  1  0
 12 18  1  0
 15 21  1  0
 15 22  1  0
 15 25  1  0
 16 19  1  0
 17 19  1  0
M  END
>  <ID>  (1) 
conformer_0

$$$$
