
     RDKit          3D

 23 23  0  0  0  0  0  0  0  0999 V2000
   11.2162   59.2685   80.6560 C   0  0  0  0  0  0  0  0  0  0  0  0
   13.9470   55.5130   82.7192 O   0  0  0  0  0  0  0  0  0  0  0  0
   14.7646   54.8969   83.6740 O   0  0  0  0  0  0  0  0  0  0  0  0
   17.2833   59.1972   79.0867 C   0  0  0  0  0  0  0  0  0  0  0  0
   15.2618   57.1472   81.5175 C   0  0  0  0  0  0  0  0  0  0  0  0
   12.2954   58.7652   79.5869 C   0  0  0  0  0  0  0  0  0  0  0  0
   14.7634   58.8829   79.2139 C   0  0  0  0  0  0  0  0  0  0  0  0
   16.1249   58.3837   79.4839 C   0  0  0  0  0  0  0  0  0  0  0  0
    9.9020   58.1579   78.8824 O   0  0  0  0  0  0  0  0  0  0  0  0
   15.7441   57.2727   82.8287 O   0  0  0  0  0  0  0  0  0  0  0  0
   14.0131   56.9688   80.5294 C   0  0  0  0  0  0  0  0  0  0  0  0
    8.6309   56.4144   81.5542 O   0  0  0  0  0  1  0  0  0  0  0  0
   12.0546   59.6516   81.8016 O   0  0  0  0  0  0  0  0  0  0  0  0
    9.8080   58.5247   80.2713 C   0  0  0  0  0  0  0  0  0  0  0  0
   17.0746   60.2580   78.5133 O   0  0  0  0  0  0  0  0  0  0  0  0
   16.2760   57.5893   80.6208 O   0  0  0  0  0  0  0  0  0  0  0  0
   14.6190   55.7842   81.4128 C   0  0  0  0  0  0  0  0  0  0  0  0
   10.2665   57.7925   82.8418 O   0  0  0  0  0  0  0  0  0  0  0  0
   12.3795   59.7204   78.5660 O   0  0  0  0  0  0  0  0  0  0  0  0
    9.9330   57.1330   81.5145 P   0  0  0  0  0  4  0  0  0  0  0  0
   18.4010   58.6611   79.3377 O   0  0  0  0  0  0  0  0  0  0  0  0
   13.6792   58.4174   80.1498 C   0  0  0  0  0  0  0  0  0  0  0  0
   11.0763   56.2437   80.9444 O   0  0  0  0  0  0  0  0  0  0  0  0
  1  6  1  0
  1 13  1  0
  1 14  1  0
  2  3  1  0
  2 17  1  0
  4  8  1  0
  4 15  2  0
  4 21  1  0
  5 10  1  0
  5 16  1  0
  5 17  1  0
  6 19  1  0
  6 22  1  0
  7  8  1  0
  7 22  1  0
  8 16  1  0
  9 14  1  0
 11 17  1  0
 11 22  1  0
 12 20  2  0
 14 20  1  0
 18 20  1  0
 20 23  1  0
M  END
>  <ID>  (1) 
conformer_0

$$$$
