
     RDKit          3D

 18 19  0  0  0  0  0  0  0  0999 V2000
   12.5632   58.7110   79.6540 N   0  0  0  0  0  0  0  0  0  0  0  0
   10.7857   57.7249   80.9332 C   0  0  0  0  0  0  0  0  0  0  0  0
   14.5479   59.9619   78.9527 C   0  0  0  0  0  0  0  0  0  0  0  0
   13.1960   57.5145   80.1650 C   0  0  0  0  0  0  0  0  0  0  0  0
   14.4852   56.8372   80.5711 C   0  0  0  0  0  0  0  0  0  0  0  0
    9.2032   57.9886   81.1850 C   0  0  0  0  0  0  0  0  0  0  0  0
   11.1109   58.7864   79.9205 N   0  0  0  0  0  0  0  0  0  0  0  0
   15.4830   58.7008   79.1970 C   0  0  0  0  0  0  0  0  0  0  0  0
   15.7680   57.5295   80.1768 C   0  0  0  0  0  0  0  0  0  0  0  0
    9.6812   59.2779   79.7231 C   0  0  0  0  0  0  0  0  0  0  0  0
   14.6883   56.1381   81.8713 C   0  0  0  0  0  0  0  0  0  0  0  0
    8.9409   56.8225   82.1067 O   0  0  0  0  0  0  0  0  0  0  0  0
    7.9382   58.8799   81.5127 C   0  0  0  0  0  0  0  0  0  0  0  0
   13.7092   55.5988   82.6093 O   0  0  0  0  0  0  0  0  0  0  0  0
   13.0732   59.9640   79.2108 C   0  0  0  0  0  0  0  0  0  0  0  0
   12.0130   56.7983   80.7876 C   0  0  0  0  0  0  0  0  0  0  0  0
   15.8344   56.6716   82.7225 C   0  0  0  0  0  0  0  0  0  0  0  0
   15.5215   57.0074   84.0138 O   0  0  0  0  0  0  0  0  0  0  0  0
  1  4  1  0
  1  7  1  0
  1 15  1  0
  2  6  1  0
  2  7  1  0
  2 16  1  0
  3  8  1  0
  3 15  1  0
  4  5  1  0
  4 16  1  0
  5  9  1  0
  5 11  1  0
  6 12  1  0
  6 13  1  0
  7 10  1  0
  8  9  1  0
 11 14  1  0
 11 17  1  0
 17 18  1  0
M  END
>  <ID>  (1) 
conformer_0

$$$$
