
     RDKit          3D

 21 23  0  0  0  0  0  0  0  0999 V2000
   13.6555   54.9510   83.2205 C   0  0  0  0  0  0  0  0  0  0  0  0
   15.6443   55.9759   82.3344 C   0  0  0  0  0  0  0  0  0  0  0  0
   14.7035   58.2864   79.6052 C   0  0  0  0  0  0  0  0  0  0  0  0
    8.6850   60.5015   81.2752 N   0  0  0  0  0  0  0  0  0  0  0  0
   10.6192   58.5983   80.6369 C   0  0  0  0  0  0  0  0  0  0  0  0
   16.1527   58.7879   79.4680 C   0  0  0  0  0  0  0  0  0  0  0  0
   15.7491   54.7360   84.3450 N   0  0  0  0  0  0  0  0  0  0  0  0
   11.3749   59.7438   80.2614 C   0  0  0  0  0  0  0  0  0  0  0  0
   12.9041   55.5922   82.2911 C   0  0  0  0  0  0  0  0  0  0  0  0
   11.2991   57.4278   80.8040 C   0  0  0  0  0  0  0  0  0  0  0  0
   12.5888   59.5488   79.6227 C   0  0  0  0  0  0  0  0  0  0  0  0
   11.0794   61.1887   80.7356 C   0  0  0  0  0  0  0  0  0  0  0  0
   13.3011   58.4013   79.9192 C   0  0  0  0  0  0  0  0  0  0  0  0
    9.6191   61.5256   80.6212 C   0  0  0  0  0  0  0  0  0  0  0  0
   16.3584   59.9282   79.8833 O   0  0  0  0  0  0  0  0  0  0  0  0
   13.4743   56.5140   81.4251 C   0  0  0  0  0  0  0  0  0  0  0  0
   14.8534   56.6378   81.3808 C   0  0  0  0  0  0  0  0  0  0  0  0
   12.6982   57.4061   80.6757 C   0  0  0  0  0  0  0  0  0  0  0  0
   17.0816   58.2606   78.8418 O   0  0  0  0  0  0  0  0  0  0  0  0
   15.0087   55.2296   83.2783 C   0  0  0  0  0  0  0  0  0  0  0  0
   15.4487   57.4238   80.3722 C   0  0  0  0  0  0  0  0  0  0  0  0
  1  9  2  0
  1 20  1  0
  2 17  1  0
  2 20  2  0
  3  6  1  0
  3 13  1  0
  3 21  2  0
  4 14  1  0
  5  8  1  0
  5 10  2  0
  6 15  2  0
  6 19  1  0
  7 20  1  0
  8 11  1  0
  8 12  1  0
  9 16  1  0
 10 18  1  0
 11 13  2  0
 12 14  1  0
 13 18  1  0
 16 17  2  0
 16 18  1  0
 17 21  1  0
M  END
>  <ID>  (1) 
conformer_0

$$$$
