
     RDKit          3D

 18 20  0  0  0  0  0  0  0  0999 V2000
   12.1312   59.2370   80.8980 N   0  0  0  0  0  0  0  0  0  0  0  0
   11.7581   54.2774   83.1384 O   0  0  0  0  0  0  0  0  0  0  0  0
   13.6588   60.7805   81.1336 C   0  0  0  0  0  0  0  0  0  0  0  0
   12.6778   55.7709   81.5626 C   0  0  0  0  0  0  0  0  0  0  0  0
   11.5346   60.3267   81.5247 C   0  0  0  0  0  0  0  0  0  0  0  0
   10.6368   58.0169   79.6500 O   0  0  0  0  0  0  0  0  0  0  0  0
   11.9411   56.7727   80.8365 N   0  0  0  0  0  0  0  0  0  0  0  0
   14.5348   56.4771   82.8445 O   0  0  0  0  0  0  0  0  0  0  0  0
   14.4980   58.5670   80.3647 C   0  0  0  0  0  0  0  0  0  0  0  0
   16.0252   56.7792   80.3231 C   0  0  0  0  0  0  0  0  0  0  0  0
   14.1100   56.1696   81.6549 C   0  0  0  0  0  0  0  0  0  0  0  0
   16.6244   57.9817   79.6218 C   0  0  0  0  0  0  0  0  0  0  0  0
   11.5156   58.0473   80.4831 C   0  0  0  0  0  0  0  0  0  0  0  0
   12.4708   61.2957   81.6850 C   0  0  0  0  0  0  0  0  0  0  0  0
   11.9006   54.5230   81.7971 C   0  0  0  0  0  0  0  0  0  0  0  0
   13.4814   59.5153   80.7415 C   0  0  0  0  0  0  0  0  0  0  0  0
   14.5288   57.1007   80.5004 C   0  0  0  0  0  0  0  0  0  0  0  0
   15.6081   59.0495   79.6105 C   0  0  0  0  0  0  0  0  0  0  0  0
  1  5  1  0
  1 13  1  0
  1 16  1  0
  2 15  1  0
  3 14  1  0
  3 16  1  0
  4  7  1  0
  4 11  1  0
  4 15  1  0
  5 14  1  0
  6 13  2  0
  7 13  1  0
  8 11  1  0
  9 16  1  0
  9 17  1  0
  9 18  1  0
 10 12  1  0
 10 17  1  0
 11 17  1  0
 12 18  1  0
M  END
>  <ID>  (1) 
conformer_0

$$$$
