
     RDKit          3D

 29 33  0  0  0  0  0  0  0  0999 V2000
    7.5630   61.6545   79.3644 O   0  0  0  0  0  0  0  0  0  0  0  0
   13.5008   60.0675   80.9429 C   0  0  0  0  0  0  0  0  0  0  0  0
   11.2730   61.2245   80.7809 C   0  0  0  0  0  0  0  0  0  0  0  0
   12.8479   53.8131   84.3840 O   0  0  0  0  0  0  0  0  0  0  0  0
   10.7102   60.9872   83.2364 O   0  0  0  0  0  0  0  0  0  0  0  0
   12.5503   56.2979   81.5212 N   0  0  0  0  0  0  0  0  0  0  0  0
   10.3772   60.5470   81.9155 C   0  0  0  0  0  0  0  0  0  0  0  0
   14.4998   54.9336   83.1255 C   0  0  0  0  0  0  0  0  0  0  0  0
    8.6292   59.4150   79.3916 O   0  0  0  0  0  0  0  0  0  0  0  0
   13.1506   54.7208   83.3376 N   0  0  0  0  0  0  0  0  0  0  0  0
   16.1274   55.8301   81.6289 N   0  0  0  0  0  0  0  0  0  0  0  0
   11.7974   62.4811   81.3377 O   0  0  0  0  0  0  0  0  0  0  0  0
   14.3789   57.5375   80.5589 C   0  0  0  0  0  0  0  0  0  0  0  0
   14.8654   55.7535   82.0185 C   0  0  0  0  0  0  0  0  0  0  0  0
    8.8599   60.9601   81.6414 C   0  0  0  0  0  0  0  0  0  0  0  0
   15.8977   58.5858   79.1102 C   0  0  0  0  0  0  0  0  0  0  0  0
   15.6534   57.4952   80.1080 N   0  0  0  0  0  0  0  0  0  0  0  0
   13.8914   58.8552   80.2531 C   0  0  0  0  0  0  0  0  0  0  0  0
   15.3983   54.4283   84.0199 N   0  0  0  0  0  0  0  0  0  0  0  0
   13.8675   56.5116   81.3465 C   0  0  0  0  0  0  0  0  0  0  0  0
   10.2578   61.2935   79.5538 O   0  0  0  0  0  0  0  0  0  0  0  0
   13.7893   60.1132   78.2895 C   0  0  0  0  0  0  0  0  0  0  0  0
   14.7315   59.4132   79.1068 C   0  0  0  0  0  0  0  0  0  0  0  0
   12.4335   60.0777   78.8366 O   0  0  0  0  0  0  0  0  0  0  0  0
   16.4513   56.6238   80.6678 C   0  0  0  0  0  0  0  0  0  0  0  0
   12.4735   60.6149   80.1122 C   0  0  0  0  0  0  0  0  0  0  0  0
    8.7519   60.8634   79.8397 S   0  0  0  0  0  4  0  0  0  0  0  0
   12.2435   55.4499   82.4747 C   0  0  0  0  0  0  0  0  0  0  0  0
    7.3924   61.0133   82.1523 C   0  0  0  0  0  0  0  0  0  0  0  0
  1 27  1  0
  2 18  1  0
  2 26  1  0
  3  7  1  0
  3 12  1  0
  3 21  1  0
  3 26  1  0
  4 10  1  0
  5  7  1  0
  6 20  1  0
  6 28  2  0
  7 15  1  0
  8 10  1  0
  8 14  1  0
  8 19  2  0
  9 27  1  0
 10 28  1  0
 11 14  1  0
 11 25  2  0
 13 17  1  0
 13 18  1  0
 13 20  1  0
 14 20  1  0
 15 27  1  0
 15 29  1  0
 16 17  1  0
 16 23  1  0
 17 25  1  0
 18 23  1  0
 21 27  1  0
 22 23  1  0
 22 24  1  0
 24 26  1  0
M  END
>  <ID>  (1) 
conformer_0

$$$$
