
     RDKit          3D

 33 37  0  0  0  0  0  0  0  0999 V2000
   10.4897   56.9390   82.2093 C   0  0  0  0  0  0  0  0  0  0  0  0
   11.2485   62.4914   81.1831 C   0  0  0  0  0  0  0  0  0  0  0  0
    9.8491   54.4842   81.8850 C   0  0  0  0  0  0  0  0  0  0  0  0
   11.3866   52.6988   85.3123 O   0  0  0  0  0  0  0  0  0  0  0  0
   14.1331   55.1116   82.0248 N   0  0  0  0  0  0  0  0  0  0  0  0
   15.7094   57.8418   79.9849 C   0  0  0  0  0  0  0  0  0  0  0  0
   13.5604   53.8193   82.7232 C   0  0  0  0  0  0  0  0  0  0  0  0
   10.0302   57.1207   79.1914 C   0  0  0  0  0  0  0  0  0  0  0  0
   17.6745   58.5369   78.8408 C   0  0  0  0  0  0  0  0  0  0  0  0
   17.0547   59.6895   78.4002 C   0  0  0  0  0  0  0  0  0  0  0  0
   15.0825   59.0558   79.5519 C   0  0  0  0  0  0  0  0  0  0  0  0
   11.5833   62.6018   79.6812 C   0  0  0  0  0  0  0  0  0  0  0  0
   15.5763   56.7397   82.2169 C   0  0  0  0  0  0  0  0  0  0  0  0
   13.1505   54.2008   85.2823 O   0  0  0  0  0  0  0  0  0  0  0  0
   14.1072   55.9167   80.8089 N   0  0  0  0  0  0  0  0  0  0  0  0
   15.0939   56.8757   80.9014 C   0  0  0  0  0  0  0  0  0  0  0  0
   11.9920   53.7731   84.7948 C   0  0  0  0  0  0  0  0  0  0  0  0
   11.2369   54.6254   84.0331 O   0  0  0  0  0  0  0  0  0  0  0  0
   17.0019   57.6445   79.5977 C   0  0  0  0  0  0  0  0  0  0  0  0
   13.8351   59.3989   79.9143 N   0  0  0  0  0  0  0  0  0  0  0  0
   12.0418   53.7088   83.1727 C   0  0  0  0  0  0  0  0  0  0  0  0
   11.1269   58.7763   80.6963 C   0  0  0  0  0  0  0  0  0  0  0  0
   12.8928   60.3258   80.0816 C   0  0  0  0  0  0  0  0  0  0  0  0
   15.0350   55.7309   82.8286 N   0  0  0  0  0  0  0  0  0  0  0  0
   12.8468   61.7329   79.4373 C   0  0  0  0  0  0  0  0  0  0  0  0
   10.0139   55.9106   81.3882 C   0  0  0  0  0  0  0  0  0  0  0  0
   10.7961   61.0922   81.4080 C   0  0  0  0  0  0  0  0  0  0  0  0
   10.9725   58.1449   81.9126 C   0  0  0  0  0  0  0  0  0  0  0  0
   11.6512   60.0922   80.7166 C   0  0  0  0  0  0  0  0  0  0  0  0
   10.7186   58.2350   79.4853 C   0  0  0  0  0  0  0  0  0  0  0  0
   11.3016   53.7276   81.7571 C   0  0  0  0  0  0  0  0  0  0  0  0
    9.7087   56.1064   80.0395 C   0  0  0  0  0  0  0  0  0  0  0  0
   15.7624   59.9371   78.7367 C   0  0  0  0  0  0  0  0  0  0  0  0
  1 26  1  0
  1 28  2  0
  2 12  1  0
  2 27  1  0
  3 26  1  0
  3 31  1  0
  4 17  2  0
  5  7  1  0
  5 15  1  0
  5 24  1  0
  6 11  1  0
  6 16  1  0
  6 19  1  0
  7 21  1  0
  8 30  2  0
  8 32  1  0
  9 10  1  0
  9 19  2  0
 10 33  1  0
 11 20  1  0
 11 33  2  0
 12 25  1  0
 13 16  1  0
 13 24  1  0
 14 17  1  0
 15 16  1  0
 17 18  1  0
 18 21  1  0
 20 23  1  0
 21 31  1  0
 22 28  1  0
 22 29  1  0
 22 30  1  0
 23 25  2  0
 23 29  1  0
 26 32  1  0
 27 29  1  0
M  END
>  <ID>  (1) 
conformer_0

$$$$
