
     RDKit          3D

 30 32  0  0  0  0  0  0  0  0999 V2000
   12.8694   57.7007   79.9153 C   0  0  0  0  0  0  0  0  0  0  0  0
   14.2095   59.6909   78.7612 C   0  0  0  0  0  0  0  0  0  0  0  0
   14.6157   55.3279   83.3499 C   0  0  0  0  0  0  0  0  0  0  0  0
   14.0028   61.1623   79.1668 C   0  0  0  0  0  0  0  0  0  0  0  0
    8.6569   59.2750   81.4603 C   0  0  0  0  0  0  0  0  0  0  0  0
   14.8768   54.6480   84.4700 O   0  0  0  0  0  0  0  0  0  0  0  0
   10.6867   61.9882   80.0438 C   0  0  0  0  0  0  0  0  0  0  0  0
    8.3953   61.2848   80.6469 C   0  0  0  0  0  0  0  0  0  0  0  0
   10.7229   55.0237   81.4678 O   0  0  0  0  0  1  0  0  0  0  0  0
   15.3881   56.3193   82.7884 C   0  0  0  0  0  0  0  0  0  0  0  0
   10.8963   56.2569   80.8431 S   0  0  0  0  0  4  0  0  0  0  0  0
   13.5794   58.7580   79.6221 N   0  0  0  0  0  0  0  0  0  0  0  0
   15.5424   57.3916   80.5887 C   0  0  0  0  0  0  0  0  0  0  0  0
   10.2346   57.3316   81.7110 N   0  0  0  0  0  0  0  0  0  0  0  0
   14.8026   56.6711   81.5353 C   0  0  0  0  0  0  0  0  0  0  0  0
    9.9988   59.9610   81.6951 C   0  0  0  0  0  0  0  0  0  0  0  0
   11.6483   60.9253   79.6870 C   0  0  0  0  0  0  0  0  0  0  0  0
   11.2757   60.0154   78.9592 O   0  0  0  0  0  0  0  0  0  0  0  0
   12.9218   61.1367   80.2266 O   0  0  0  0  0  0  0  0  0  0  0  0
   13.4999   56.0921   81.5375 C   0  0  0  0  0  0  0  0  0  0  0  0
   16.2956   57.0134   83.3665 F   0  0  0  0  0  0  0  0  0  0  0  0
   15.7053   59.3484   78.7685 C   0  0  0  0  0  0  0  0  0  0  0  0
   12.5158   56.6419   80.7131 C   0  0  0  0  0  0  0  0  0  0  0  0
    9.8352   61.4331   81.2405 C   0  0  0  0  0  0  0  0  0  0  0  0
   10.3084   56.3277   79.6095 O   0  0  0  0  0  1  0  0  0  0  0  0
   16.0611   58.1578   79.5807 C   0  0  0  0  0  0  0  0  0  0  0  0
    8.7925   57.7314   81.4292 C   0  0  0  0  0  0  0  0  0  0  0  0
    7.3921   59.4784   82.1095 O   0  0  0  0  0  0  0  0  0  0  0  0
   13.4633   55.1297   82.5838 C   0  0  0  0  0  0  0  0  0  0  0  0
   16.4457   60.4387   79.1611 O   0  0  0  0  0  0  0  0  0  0  0  0
  1 12  1  0
  1 23  1  0
  2  4  1  0
  2 12  1  0
  2 22  1  0
  3  6  1  0
  3 10  1  0
  3 29  1  0
  4 19  1  0
  5 16  1  0
  5 27  1  0
  5 28  1  0
  7 17  1  0
  7 24  1  0
  8 24  1  0
  9 11  1  0
 10 15  1  0
 10 21  1  0
 11 14  1  0
 11 23  1  0
 11 25  1  0
 13 15  2  0
 13 26  2  0
 14 27  1  0
 15 20  1  0
 16 24  1  0
 17 18  2  0
 17 19  1  0
 20 23  2  0
 20 29  1  0
 22 26  1  0
 22 30  1  0
M  END
>  <ID>  (1) 
conformer_0

$$$$
