
     RDKit          3D

 19 20  0  0  0  0  0  0  0  0999 V2000
   14.0268   56.0279   82.1921 C   0  0  0  0  0  0  0  0  0  0  0  0
   14.1214   57.8759   80.2981 C   0  0  0  0  0  0  0  0  0  0  0  0
   12.6619   59.6486   79.4952 C   0  0  0  0  0  0  0  0  0  0  0  0
   12.2346   59.6510   81.9167 O   0  0  0  0  0  0  0  0  0  0  0  0
   14.7907   60.1576   80.5700 O   0  0  0  0  0  0  0  0  0  0  0  0
   15.1178   55.9902   81.3960 N   0  0  0  0  0  0  0  0  0  0  0  0
   10.1411   58.8651   79.0933 O   0  0  0  0  0  0  0  0  0  0  0  0
   15.3513   55.2075   83.9591 N   0  0  0  0  0  0  0  0  0  0  0  0
   14.1613   59.3077   79.6811 C   0  0  0  0  0  0  0  0  0  0  0  0
    9.6084   58.4073   81.2305 O   0  0  0  0  0  0  0  0  0  0  0  0
   14.1639   55.5766   83.4650 N   0  0  0  0  0  0  0  0  0  0  0  0
   14.7535   59.3115   78.4257 O   0  0  0  0  0  0  0  0  0  0  0  0
   12.8240   56.6022   81.7893 N   0  0  0  0  0  0  0  0  0  0  0  0
   10.4724   58.8967   80.3384 C   0  0  0  0  0  0  0  0  0  0  0  0
   12.7979   57.5856   80.8462 C   0  0  0  0  0  0  0  0  0  0  0  0
   15.1858   56.9423   80.4423 C   0  0  0  0  0  0  0  0  0  0  0  0
   11.9456   58.9261   80.7148 C   0  0  0  0  0  0  0  0  0  0  0  0
   12.0543   60.7493   79.0691 O   0  0  0  0  0  0  0  0  0  0  0  0
   16.6482   57.2154   79.9435 C   0  0  0  0  0  0  0  0  0  0  0  0
  1  6  1  0
  1 11  2  3
  1 13  1  0
  2  9  1  0
  2 15  1  0
  2 16  1  0
  3  9  1  0
  3 17  1  0
  3 18  1  0
  4 17  1  0
  5  9  1  0
  6 16  1  0
  7 14  2  0
  8 11  1  0
  9 12  1  0
 10 14  1  0
 13 15  1  0
 14 17  1  0
 15 17  1  0
 16 19  1  0
M  END
>  <ID>  (1) 
conformer_0

$$$$
