
     RDKit          3D

 21 21  0  0  0  0  0  0  0  0999 V2000
   13.6449   59.6061   78.2391 C   0  0  0  0  0  0  0  0  0  0  0  0
   13.0022   53.7506   83.0051 N   0  0  0  0  0  0  0  0  0  0  0  0
   10.5823   59.7017   82.5258 O   0  0  0  0  0  0  0  0  0  0  0  0
   16.1587   56.8892   84.4341 N   0  0  0  0  0  0  0  0  0  0  0  0
   15.3451   56.3314   83.4275 C   0  0  0  0  0  0  0  0  0  0  0  0
   10.6158   60.8116   81.6581 C   0  0  0  0  0  0  0  0  0  0  0  0
   12.4426   61.1241   79.7547 C   0  0  0  0  0  0  0  0  0  0  0  0
   14.5408   57.0576   79.9675 C   0  0  0  0  0  0  0  0  0  0  0  0
   10.9441   59.3498   79.1289 O   0  0  0  0  0  0  0  0  0  0  0  0
   12.3394   59.6686   79.1469 C   0  0  0  0  0  0  0  0  0  0  0  0
   14.7420   60.3695   78.7670 O   0  0  0  0  0  0  0  0  0  0  0  0
   13.7746   55.2968   81.4880 C   0  0  0  0  0  0  0  0  0  0  0  0
   12.0532   61.0784   81.2150 C   0  0  0  0  0  0  0  0  0  0  0  0
   14.5728   55.2885   83.7313 N   0  0  0  0  0  0  0  0  0  0  0  0
   15.4016   56.8701   82.2224 N   0  0  0  0  0  0  0  0  0  0  0  0
   14.5936   56.3666   81.2817 C   0  0  0  0  0  0  0  0  0  0  0  0
   12.6808   58.6861   80.3606 C   0  0  0  0  0  0  0  0  0  0  0  0
   11.7139   61.9954   78.9616 O   0  0  0  0  0  0  0  0  0  0  0  0
   13.7871   54.7583   82.7334 C   0  0  0  0  0  0  0  0  0  0  0  0
   14.0410   58.2768   80.2378 N   0  0  0  0  0  0  0  0  0  0  0  0
   12.9617   60.5841   82.0545 O   0  0  0  0  0  0  0  0  0  0  0  0
  1 10  1  0
  1 11  1  0
  2 19  2  0
  3  6  1  0
  4  5  2  0
  5 14  1  0
  5 15  1  0
  6 13  1  0
  7 10  1  0
  7 13  1  0
  7 18  1  0
  8 16  1  0
  8 20  1  0
  9 10  1  0
 10 17  1  0
 12 16  1  0
 12 19  1  0
 13 21  1  0
 14 19  1  0
 15 16  2  0
 17 20  1  0
M  END
>  <ID>  (1) 
conformer_0

$$$$
