
     RDKit          3D

 17 17  0  0  0  0  0  0  0  0999 V2000
   12.6954   56.0056   80.8987 C   0  0  0  0  0  0  0  0  0  0  0  0
   16.4396   57.1001   81.2310 O   0  0  0  0  0  0  0  0  0  0  0  0
   10.3244   58.4231   79.2563 C   0  0  0  0  0  0  0  0  0  0  0  0
   10.9914   59.5162   80.1243 C   0  0  0  0  0  0  0  0  0  0  0  0
   14.3898   57.9947   80.6933 C   0  0  0  0  0  0  0  0  0  0  0  0
   14.1140   55.6905   81.3356 C   0  0  0  0  0  0  0  0  0  0  0  0
   11.7354   55.2474   81.5245 O   0  0  0  0  0  0  0  0  0  0  0  0
   15.2109   58.5839   79.5962 C   0  0  0  0  0  0  0  0  0  0  0  0
   15.4803   56.6046   83.0584 C   0  0  0  0  0  0  0  0  0  0  0  0
   12.5042   59.3731   79.9467 C   0  0  0  0  0  0  0  0  0  0  0  0
   14.1022   54.8530   82.4765 O   0  0  0  0  0  0  0  0  0  0  0  0
   10.5853   58.5039   82.3094 O   0  0  0  0  0  0  0  0  0  0  0  0
   15.0375   56.9134   81.5977 C   0  0  0  0  0  0  0  0  0  0  0  0
   13.1339   58.5633   80.9003 O   0  0  0  0  0  0  0  0  0  0  0  0
   10.7669   59.7006   81.6304 C   0  0  0  0  0  0  0  0  0  0  0  0
   14.9849   55.2823   83.4772 C   0  0  0  0  0  0  0  0  0  0  0  0
   12.8598   59.6245   78.7175 O   0  0  0  0  0  0  0  0  0  0  0  0
  1  6  1  0
  1  7  1  0
  2 13  1  0
  3  4  1  0
  4 10  1  0
  4 15  1  0
  5  8  1  0
  5 13  1  0
  5 14  1  0
  6 11  1  0
  6 13  1  0
  9 13  1  0
  9 16  1  0
 10 14  1  0
 10 17  2  0
 11 16  1  0
 12 15  1  0
M  END
>  <ID>  (1) 
conformer_0

$$$$
