
     RDKit          3D

 33 35  0  0  0  0  0  0  0  0999 V2000
   12.9082   61.3867   78.0248 O   0  0  0  0  0  0  0  0  0  0  0  0
   10.8379   59.4288   81.8911 C   0  0  0  0  0  0  0  0  0  0  0  0
   15.6061   59.7779   78.9006 C   0  0  0  0  0  0  0  0  0  0  0  0
   10.6211   54.2664   81.1778 C   0  0  0  0  0  0  0  0  0  0  0  0
   10.2681   58.2825   79.3298 C   0  0  0  0  0  0  0  0  0  0  0  0
   16.1927   58.4285   79.3441 C   0  0  0  0  0  0  0  0  0  0  0  0
   12.5724   54.0593   82.8504 C   0  0  0  0  0  0  0  0  0  0  0  0
   11.3517   53.4526   82.2335 C   0  0  0  0  0  0  0  0  0  0  0  0
   15.8818   55.3575   84.3697 O   0  0  0  0  0  0  0  0  0  0  0  0
   14.5790   54.8539   83.9432 C   0  0  0  0  0  0  0  0  0  0  0  0
   10.7655   60.9958   82.0412 C   0  0  0  0  0  0  0  0  0  0  0  0
   15.5793   56.2091   82.2007 C   0  0  0  0  0  0  0  0  0  0  0  0
    9.3423   54.6734   81.7810 C   0  0  0  0  0  0  0  0  0  0  0  0
   11.5821   60.3369   79.7910 O   0  0  0  0  0  0  0  0  0  0  0  0
   13.6090   61.7761   80.2173 O   0  0  0  0  0  0  0  0  0  0  0  0
   10.1740   59.2757   80.5137 C   0  0  0  0  0  0  0  0  0  0  0  0
   14.3653   55.5939   82.7096 N   0  0  0  0  0  0  0  0  0  0  0  0
   16.0228   56.7321   84.0107 C   0  0  0  0  0  0  0  0  0  0  0  0
   14.1413   59.6408   79.0056 N   0  0  0  0  0  0  0  0  0  0  0  0
   15.2553   57.8512   80.2988 C   0  0  0  0  0  0  0  0  0  0  0  0
   10.3108   53.0679   83.0818 N   0  0  0  0  0  0  0  0  0  0  0  0
   15.3194   56.4026   80.6196 C   0  0  0  0  0  0  0  0  0  0  0  0
    9.1354   53.8423   82.8935 C   0  0  0  0  0  0  0  0  0  0  0  0
   13.4470   54.8041   81.9016 C   0  0  0  0  0  0  0  0  0  0  0  0
    8.6748   59.6731   80.7307 C   0  0  0  0  0  0  0  0  0  0  0  0
   13.3631   54.0974   84.0509 O   0  0  0  0  0  0  0  0  0  0  0  0
   11.0555   61.5329   80.5845 C   0  0  0  0  0  0  0  0  0  0  0  0
    8.3500   55.6812   81.3541 C   0  0  0  0  0  0  0  0  0  0  0  0
   14.6858   58.6086   81.2171 O   0  0  0  0  0  0  0  0  0  0  0  0
    8.3047   61.0074   80.7009 O   0  0  0  0  0  0  0  0  0  0  0  0
    9.5412   56.9633   79.6474 C   0  0  0  0  0  0  0  0  0  0  0  0
    8.9781   56.9574   81.0315 N   0  0  0  0  0  0  0  0  0  0  0  0
   13.0913   60.8340   79.2614 S   0  0  0  0  0  4  0  0  0  0  0  0
  1 33  1  0
  2 11  1  0
  2 16  1  0
  3  6  1  0
  3 19  1  0
  4  8  1  0
  4 13  1  0
  5 16  1  0
  5 31  1  0
  6 20  1  0
  7  8  1  0
  7 24  1  0
  7 26  1  0
  8 21  1  0
  9 10  1  0
  9 18  1  0
 10 17  1  0
 10 26  1  0
 11 27  1  0
 12 17  1  0
 12 22  1  0
 13 23  1  0
 13 28  1  0
 14 27  1  0
 14 33  1  0
 15 33  1  0
 16 25  1  0
 17 24  1  0
 19 33  1  0
 20 22  1  0
 20 29  1  0
 21 23  1  0
 25 30  1  0
 28 32  1  0
 31 32  1  0
M  END
>  <ID>  (1) 
conformer_0

$$$$
