
     RDKit          3D

 25 28  0  0  0  0  0  0  0  0999 V2000
   16.1098   57.2800   80.0575 C   0  0  0  0  0  0  0  0  0  0  0  0
   11.7101   59.1627   80.2193 C   0  0  0  0  0  0  0  0  0  0  0  0
   15.0152   55.1493   83.7900 N   0  0  0  0  0  0  0  0  0  0  0  0
   13.0509   54.2782   82.9263 N   0  0  0  0  0  0  0  0  0  0  0  0
   14.0644   54.2028   83.7671 C   0  0  0  0  0  0  0  0  0  0  0  0
   14.9765   56.2296   82.8986 C   0  0  0  0  0  0  0  0  0  0  0  0
   11.4637   56.6517   80.5922 C   0  0  0  0  0  0  0  0  0  0  0  0
   11.6540   61.7038   79.6546 C   0  0  0  0  0  0  0  0  0  0  0  0
   11.4384   62.1070   80.9986 C   0  0  0  0  0  0  0  0  0  0  0  0
   16.1719   59.2188   79.0327 N   0  0  0  0  0  0  0  0  0  0  0  0
   10.2683   56.6817   80.0644 O   0  0  0  0  0  0  0  0  0  0  0  0
   13.9355   56.3041   81.9376 C   0  0  0  0  0  0  0  0  0  0  0  0
   12.9411   55.3266   82.0757 C   0  0  0  0  0  0  0  0  0  0  0  0
   14.8617   57.8126   80.2067 C   0  0  0  0  0  0  0  0  0  0  0  0
   14.8854   58.9917   79.5354 C   0  0  0  0  0  0  0  0  0  0  0  0
   11.7850   55.4662   81.2913 C   0  0  0  0  0  0  0  0  0  0  0  0
   10.7384   54.3798   81.2705 C   0  0  0  0  0  0  0  0  0  0  0  0
   11.0451   58.7792   79.0940 O   0  0  0  0  0  0  0  0  0  0  0  0
   16.9372   58.1344   79.3701 C   0  0  0  0  0  0  0  0  0  0  0  0
   12.4747   57.6957   80.5745 C   0  0  0  0  0  0  0  0  0  0  0  0
   11.4689   59.7437   81.5880 C   0  0  0  0  0  0  0  0  0  0  0  0
   13.7851   57.2999   80.9243 N   0  0  0  0  0  0  0  0  0  0  0  0
   11.3102   61.0298   81.9294 C   0  0  0  0  0  0  0  0  0  0  0  0
   11.6937   60.3584   79.3487 C   0  0  0  0  0  0  0  0  0  0  0  0
   15.8704   57.1128   83.1304 O   0  0  0  0  0  0  0  0  0  0  0  0
  1 14  1  0
  1 19  1  0
  2 18  1  0
  2 20  1  0
  2 21  1  0
  2 24  1  0
  3  5  1  0
  3  6  1  0
  4  5  2  0
  4 13  1  0
  6 12  1  0
  6 25  2  0
  7 11  1  0
  7 16  2  0
  7 20  1  0
  8  9  1  0
  8 24  2  0
  9 23  1  0
 10 15  1  0
 10 19  1  0
 12 13  2  0
 12 22  1  0
 13 16  1  0
 14 15  1  0
 14 22  1  0
 16 17  1  0
 20 22  1  0
 21 23  2  0
M  END
>  <ID>  (1) 
conformer_0

$$$$
