
     RDKit          3D

 23 26  0  0  0  0  0  0  0  0999 V2000
   14.3693   56.5319   81.5555 C   0  0  0  0  0  0  0  0  0  0  0  0
   10.5292   58.7310   81.7728 C   0  0  0  0  0  0  0  0  0  0  0  0
   15.9147   57.9254   79.7359 C   0  0  0  0  0  0  0  0  0  0  0  0
   10.8385   61.1052   82.0234 C   0  0  0  0  0  0  0  0  0  0  0  0
   11.0816   55.2206   81.3541 C   0  0  0  0  0  0  0  0  0  0  0  0
   14.5465   58.1341   79.7523 C   0  0  0  0  0  0  0  0  0  0  0  0
   11.8917   61.0649   81.1217 C   0  0  0  0  0  0  0  0  0  0  0  0
   12.2653   59.8204   80.5358 C   0  0  0  0  0  0  0  0  0  0  0  0
   10.8318   54.2926   82.4774 C   0  0  0  0  0  0  0  0  0  0  0  0
   16.1137   56.5576   83.2744 C   0  0  0  0  0  0  0  0  0  0  0  0
   13.4207   55.6859   82.0181 N   0  0  0  0  0  0  0  0  0  0  0  0
   10.2842   55.0644   80.3209 O   0  0  0  0  0  0  0  0  0  0  0  0
   13.7883   57.4376   80.6582 C   0  0  0  0  0  0  0  0  0  0  0  0
    9.7015   57.6468   81.8862 O   0  0  0  0  0  0  0  0  0  0  0  0
   12.4081   57.3993   80.9095 C   0  0  0  0  0  0  0  0  0  0  0  0
   14.0710   59.1292   78.9549 N   0  0  0  0  0  0  0  0  0  0  0  0
   11.7346   58.6327   81.0476 C   0  0  0  0  0  0  0  0  0  0  0  0
   10.1227   59.9317   82.3178 C   0  0  0  0  0  0  0  0  0  0  0  0
   11.5881   53.0617   82.1694 O   0  0  0  0  0  0  0  0  0  0  0  0
   12.1753   56.1318   81.4458 C   0  0  0  0  0  0  0  0  0  0  0  0
   15.7124   56.7110   81.8524 C   0  0  0  0  0  0  0  0  0  0  0  0
   16.5201   57.2730   80.8431 C   0  0  0  0  0  0  0  0  0  0  0  0
   13.0819   59.9211   79.4111 N   0  0  0  0  0  0  0  0  0  0  0  0
  1 11  1  0
  1 13  1  0
  1 21  1  0
  2 14  1  0
  2 17  1  0
  2 18  2  0
  3  6  1  0
  3 22  2  0
  4  7  2  0
  4 18  1  0
  5  9  1  0
  5 12  1  0
  5 20  1  0
  6 13  2  0
  6 16  1  0
  7  8  1  0
  8 17  1  0
  8 23  1  0
  9 19  1  0
 10 21  1  0
 11 20  1  0
 13 15  1  0
 15 17  1  0
 15 20  1  0
 16 23  2  0
 21 22  1  0
M  END
>  <ID>  (1) 
conformer_0

$$$$
