
     RDKit          3D

 25 27  0  0  0  0  0  0  0  0999 V2000
   15.3896   56.9640   82.1136 C   0  0  0  0  0  0  0  0  0  0  0  0
   10.3135   56.8555   82.8492 O   0  0  0  0  0  0  0  0  0  0  0  0
    9.3865   57.7877   79.3510 O   0  0  0  0  0  0  0  0  0  0  0  0
   11.6377   58.5410   80.3127 O   0  0  0  0  0  0  0  0  0  0  0  0
   13.9603   60.1961   80.5734 C   0  0  0  0  0  0  0  0  0  0  0  0
   16.6508   57.5182   80.0210 C   0  0  0  0  0  0  0  0  0  0  0  0
   11.2863   56.5847   81.9230 C   0  0  0  0  0  0  0  0  0  0  0  0
   13.4528   55.5415   82.5077 N   0  0  0  0  0  0  0  0  0  0  0  0
   11.3198   54.3127   81.7226 O   0  0  0  0  0  0  0  0  0  0  0  0
   15.3573   55.2724   83.9453 N   0  0  0  0  0  0  0  0  0  0  0  0
   10.0662   54.8853   81.0624 C   0  0  0  0  0  0  0  0  0  0  0  0
   16.0887   60.0510   79.6145 O   0  0  0  0  0  0  0  0  0  0  0  0
   13.0015   60.5248   79.4304 C   0  0  0  0  0  0  0  0  0  0  0  0
   13.6554   53.7279   83.9163 O   0  0  0  0  0  0  0  0  0  0  0  0
   12.0032   55.3427   82.3180 C   0  0  0  0  0  0  0  0  0  0  0  0
   13.2353   60.0502   81.7454 O   0  0  0  0  0  0  0  0  0  0  0  0
   14.1420   54.7908   83.4874 C   0  0  0  0  0  0  0  0  0  0  0  0
   15.6821   58.1502   80.9507 N   0  0  0  0  0  0  0  0  0  0  0  0
   15.9779   56.3832   83.3197 C   0  0  0  0  0  0  0  0  0  0  0  0
   14.1442   56.4742   81.8401 C   0  0  0  0  0  0  0  0  0  0  0  0
   15.0580   59.2534   80.1329 C   0  0  0  0  0  0  0  0  0  0  0  0
   10.6417   60.2194   79.1962 O   0  0  0  0  0  0  0  0  0  0  0  0
   11.7355   59.7885   79.7093 C   0  0  0  0  0  0  0  0  0  0  0  0
   10.6057   57.6464   79.8707 C   0  0  0  0  0  0  0  0  0  0  0  0
   10.6677   56.2221   80.5680 C   0  0  0  0  0  0  0  0  0  0  0  0
  1 18  1  0
  1 19  1  0
  1 20  2  0
  2  7  1  0
  3 24  2  0
  4 23  1  0
  4 24  1  0
  5 13  1  0
  5 16  1  0
  5 21  1  0
  6 18  1  0
  7 15  1  0
  7 25  1  0
  8 15  1  0
  8 17  1  0
  8 20  1  0
  9 11  1  0
  9 15  1  0
 10 17  1  0
 10 19  2  0
 11 25  1  0
 12 21  1  0
 13 23  1  0
 14 17  2  0
 18 21  1  0
 22 23  2  0
 24 25  1  0
M  END
>  <ID>  (1) 
conformer_0

$$$$
