
     RDKit          3D

 15 15  0  0  0  0  0  0  0  0999 V2000
   12.6645   55.9979   81.3186 C   0  0  0  0  0  0  0  0  0  0  0  0
   14.7166   56.8061   80.8422 O   0  0  0  0  0  0  0  0  0  0  0  0
   10.9070   57.7406   81.3067 C   0  0  0  0  0  0  0  0  0  0  0  0
   14.0358   56.2676   82.0513 C   0  0  0  0  0  0  0  0  0  0  0  0
   12.8914   58.1987   79.9061 C   0  0  0  0  0  0  0  0  0  0  0  0
   14.2956   58.1757   80.4381 C   0  0  0  0  0  0  0  0  0  0  0  0
   11.8229   55.0234   81.7515 O   0  0  0  0  0  0  0  0  0  0  0  0
   15.1868   56.1236   83.1037 C   0  0  0  0  0  0  0  0  0  0  0  0
   15.9453   57.1479   83.1275 O   0  0  0  0  0  0  0  0  0  0  0  0
   12.6476   59.0633   78.9365 O   0  0  0  0  0  0  0  0  0  0  0  0
   15.0192   55.3263   84.0567 O   0  0  0  0  0  0  0  0  0  0  0  0
   10.2535   59.6121   79.9985 O   0  0  0  0  0  0  0  0  0  0  0  0
   12.0603   57.1168   80.4981 C   0  0  0  0  0  0  0  0  0  0  0  0
   10.6377   59.9160   82.2387 O   0  0  0  0  0  0  0  0  0  0  0  0
   10.7135   59.2087   81.1126 C   0  0  0  0  0  0  0  0  0  0  0  0
  1  4  1  0
  1  7  1  0
  1 13  1  0
  2  4  1  0
  2  6  1  0
  3 13  1  0
  3 15  1  0
  4  8  1  0
  5  6  1  0
  5 10  1  0
  5 13  1  0
  8  9  2  0
  8 11  1  0
 12 15  2  0
 14 15  1  0
M  END
>  <ID>  (1) 
conformer_0

$$$$
