
     RDKit          3D

 27 30  0  0  0  0  0  0  0  0999 V2000
   13.8495   55.0267   82.6207 N   0  0  0  0  0  0  0  0  0  0  0  0
   11.5176   55.0882   82.7827 C   0  0  0  0  0  0  0  0  0  0  0  0
   12.8410   53.9080   84.4432 N   0  0  0  0  0  0  0  0  0  0  0  0
   16.2575   56.2482   80.6728 C   0  0  0  0  0  0  0  0  0  0  0  0
   12.0806   58.8977   81.0229 C   0  0  0  0  0  0  0  0  0  0  0  0
    9.9758   57.5777   80.3357 C   0  0  0  0  0  0  0  0  0  0  0  0
   11.5091   55.9600   81.8053 N   0  0  0  0  0  0  0  0  0  0  0  0
   10.2193   60.4788   80.2783 C   0  0  0  0  0  0  0  0  0  0  0  0
   12.3763   60.2425   81.5457 C   0  0  0  0  0  0  0  0  0  0  0  0
   10.6531   61.7202   80.8584 O   0  0  0  0  0  0  0  0  0  0  0  0
   12.6397   56.5460   81.2688 C   0  0  0  0  0  0  0  0  0  0  0  0
   17.5602   59.9688   79.0257 C   0  0  0  0  0  0  0  0  0  0  0  0
   11.5941   61.4172   82.0276 C   0  0  0  0  0  0  0  0  0  0  0  0
   16.8507   57.3660   79.9186 C   0  0  0  0  0  0  0  0  0  0  0  0
   14.9135   56.4235   80.8183 C   0  0  0  0  0  0  0  0  0  0  0  0
   17.8184   60.7152   78.0414 O   0  0  0  0  0  0  0  0  0  0  0  0
    9.8367   59.6175   81.4877 C   0  0  0  0  0  0  0  0  0  0  0  0
   13.7757   60.4840   81.7405 O   0  0  0  0  0  0  0  0  0  0  0  0
   12.7461   54.6708   83.2753 C   0  0  0  0  0  0  0  0  0  0  0  0
   10.9043   60.1900   79.1067 O   0  0  0  0  0  0  0  0  0  0  0  0
   14.4883   57.6564   80.1828 N   0  0  0  0  0  0  0  0  0  0  0  0
   10.7161   58.4052   81.4019 C   0  0  0  0  0  0  0  0  0  0  0  0
   13.8149   55.9353   81.5799 C   0  0  0  0  0  0  0  0  0  0  0  0
   12.9709   57.7507   80.4901 C   0  0  0  0  0  0  0  0  0  0  0  0
   15.6823   58.1838   79.5537 C   0  0  0  0  0  0  0  0  0  0  0  0
   16.0731   59.5609   79.0459 C   0  0  0  0  0  0  0  0  0  0  0  0
   18.3551   59.8738   79.9729 O   0  0  0  0  0  0  0  0  0  0  0  0
  1 19  1  0
  1 23  2  0
  2  7  2  0
  2 19  1  0
  3 19  2  0
  4 14  1  0
  4 15  1  0
  5  9  1  0
  5 22  1  0
  5 24  1  0
  6 22  1  0
  7 11  1  0
  8 10  1  0
  8 17  1  0
  8 20  2  0
  9 13  1  0
  9 18  1  0
 10 13  1  0
 11 23  1  0
 11 24  1  0
 12 16  2  0
 12 26  1  0
 12 27  1  0
 14 25  1  0
 15 21  1  0
 15 23  1  0
 17 22  1  0
 21 24  1  0
 21 25  1  0
 25 26  1  0
M  END
>  <ID>  (1) 
conformer_0

$$$$
