
     RDKit          3D

 19 20  0  0  0  0  0  0  0  0999 V2000
   13.5898   54.3885   81.3435 O   0  0  0  0  0  0  0  0  0  0  0  0
   14.0298   59.4693   79.1879 C   0  0  0  0  0  0  0  0  0  0  0  0
   14.7268   55.1531   83.3241 C   0  0  0  0  0  0  0  0  0  0  0  0
   12.6285   56.1037   82.5016 O   0  0  0  0  0  0  0  0  0  0  0  0
   10.5082   59.1948   82.1917 O   0  0  0  0  0  0  0  0  0  0  0  0
   14.3675   58.7438   80.4455 O   0  0  0  0  0  0  0  0  0  0  0  0
   14.0719   55.0075   84.5598 O   0  0  0  0  0  0  0  0  0  0  0  0
   15.8091   56.2405   83.3945 C   0  0  0  0  0  0  0  0  0  0  0  0
   13.7052   57.4923   80.5032 C   0  0  0  0  0  0  0  0  0  0  0  0
   15.7128   57.0903   82.1083 C   0  0  0  0  0  0  0  0  0  0  0  0
   11.4882   59.8852   81.5438 C   0  0  0  0  0  0  0  0  0  0  0  0
   10.4527   59.4707   79.4399 O   0  0  0  0  0  0  0  0  0  0  0  0
   12.6891   60.1758   79.3054 C   0  0  0  0  0  0  0  0  0  0  0  0
   15.8263   57.0814   84.5486 O   0  0  0  0  0  0  0  0  0  0  0  0
   13.8237   55.5368   82.1162 C   0  0  0  0  0  0  0  0  0  0  0  0
   12.2409   57.8819   80.1585 C   0  0  0  0  0  0  0  0  0  0  0  0
   15.8228   56.7918   80.7747 O   0  0  0  0  0  0  0  0  0  0  0  0
   11.6986   59.3069   80.1074 C   0  0  0  0  0  0  0  0  0  0  0  0
   14.6074   56.4790   81.2199 C   0  0  0  0  0  0  0  0  0  0  0  0
  1 15  1  0
  2  6  1  0
  2 13  1  0
  3  7  1  0
  3  8  1  0
  3 15  1  0
  4 15  1  0
  5 11  1  0
  6  9  1  0
  8 10  1  0
  8 14  1  0
  9 16  1  0
  9 19  1  0
 10 17  1  0
 11 18  1  0
 12 18  1  0
 13 18  1  0
 15 19  1  0
 16 18  1  0
 17 19  1  0
M  END
>  <ID>  (1) 
conformer_0

$$$$
