
     RDKit          3D

 23 25  0  0  0  0  0  0  0  0999 V2000
   15.8553   56.9836   83.9795 O   0  0  0  0  0  0  0  0  0  0  0  0
   16.9974   59.9177   79.9111 O   0  0  0  0  0  0  0  0  0  0  0  0
   13.7812   57.7292   79.7357 O   0  0  0  0  0  0  0  0  0  0  0  0
   14.4303   57.5954   81.0569 C   0  0  0  0  0  0  0  0  0  0  0  0
   11.4277   59.6236   81.6218 O   0  0  0  0  0  0  0  0  0  0  0  0
   16.6437   57.5559   80.1200 C   0  0  0  0  0  0  0  0  0  0  0  0
   13.4265   56.8708   81.9189 C   0  0  0  0  0  0  0  0  0  0  0  0
   18.0740   57.5417   79.9760 O   0  0  0  0  0  0  0  0  0  0  0  0
   12.8877   58.8494   79.4081 C   0  0  0  0  0  0  0  0  0  0  0  0
   15.0868   59.4426   78.5465 C   0  0  0  0  0  0  0  0  0  0  0  0
   15.3249   55.6217   82.1335 C   0  0  0  0  0  0  0  0  0  0  0  0
   16.0966   58.8937   79.5791 C   0  0  0  0  0  0  0  0  0  0  0  0
   15.7830   56.8904   81.3137 C   0  0  0  0  0  0  0  0  0  0  0  0
    9.7107   58.0507   81.2415 O   0  0  0  0  0  0  0  0  0  0  0  0
   13.7353   59.8818   79.0689 O   0  0  0  0  0  0  0  0  0  0  0  0
   13.8963   55.5199   81.7314 O   0  0  0  0  0  0  0  0  0  0  0  0
   11.3551   58.6397   79.4480 C   0  0  0  0  0  0  0  0  0  0  0  0
   11.4293   55.9459   80.8201 O   0  0  0  0  0  0  0  0  0  0  0  0
   11.0790   58.3810   81.0495 C   0  0  0  0  0  0  0  0  0  0  0  0
   15.2380   55.8795   83.6558 C   0  0  0  0  0  0  0  0  0  0  0  0
   10.5726   59.7006   79.0487 O   0  0  0  0  0  0  0  0  0  0  0  0
   11.9538   57.1426   81.4153 C   0  0  0  0  0  0  0  0  0  0  0  0
   14.3290   55.1167   84.2328 O   0  0  0  0  0  0  0  0  0  0  0  0
  1 20  2  0
  2 12  1  0
  3  4  1  0
  3  9  1  0
  4  7  1  0
  4 13  1  0
  5 19  1  0
  6  8  1  0
  6 12  1  0
  6 13  1  0
  7 16  1  0
  7 22  1  0
  9 15  1  0
  9 17  1  0
 10 12  1  0
 10 15  1  0
 11 13  1  0
 11 16  1  0
 11 20  1  0
 14 19  1  0
 17 19  1  0
 17 21  1  0
 18 22  1  0
 19 22  1  0
 20 23  1  0
M  END
>  <ID>  (1) 
conformer_0

$$$$
