
     RDKit          3D

 17 18  0  0  0  0  0  0  0  0999 V2000
   13.8200   56.3626   81.1107 N   0  0  0  0  0  0  0  0  0  0  0  0
   11.0857   57.2193   79.9860 O   0  0  0  0  0  0  0  0  0  0  0  0
   12.1753   59.3520   79.7057 C   0  0  0  0  0  0  0  0  0  0  0  0
   11.7320   60.0846   81.0024 C   0  0  0  0  0  0  0  0  0  0  0  0
   10.8643   59.2568   81.8500 C   0  0  0  0  0  0  0  0  0  0  0  0
   12.7758   60.7099   81.5673 O   0  0  0  0  0  0  0  0  0  0  0  0
   14.6366   58.0257   79.6098 C   0  0  0  0  0  0  0  0  0  0  0  0
   14.8972   56.6516   82.0408 N   0  0  0  0  0  0  0  0  0  0  0  0
   12.2476   57.8711   79.8439 C   0  0  0  0  0  0  0  0  0  0  0  0
   14.8769   55.7977   83.0652 C   0  0  0  0  0  0  0  0  0  0  0  0
   13.8933   54.9035   82.8554 N   0  0  0  0  0  0  0  0  0  0  0  0
   12.2279   54.6306   81.2767 O   0  0  0  0  0  0  0  0  0  0  0  0
   14.5804   59.4711   80.0089 C   0  0  0  0  0  0  0  0  0  0  0  0
   13.4244   60.0459   79.2092 C   0  0  0  0  0  0  0  0  0  0  0  0
   13.2043   55.2506   81.6629 C   0  0  0  0  0  0  0  0  0  0  0  0
   13.5293   57.2111   80.0442 C   0  0  0  0  0  0  0  0  0  0  0  0
   15.6953   55.8610   84.1595 N   0  0  0  0  0  0  0  0  0  0  0  0
  1  8  1  0
  1 15  1  0
  1 16  1  0
  2  9  1  0
  3  4  1  0
  3  9  1  0
  3 14  1  0
  4  5  1  0
  4  6  1  0
  7 13  1  0
  7 16  1  0
  8 10  1  0
  9 16  1  0
 10 11  1  0
 10 17  2  0
 11 15  1  0
 12 15  2  0
 13 14  1  0
M  END
>  <ID>  (1) 
conformer_0

$$$$
