
     RDKit          3D

 17 17  0  0  0  0  0  0  0  0999 V2000
   15.6450   56.3553   83.3278 C   0  0  0  0  0  0  0  0  0  0  0  0
   13.7163   57.5129   80.2396 C   0  0  0  0  0  0  0  0  0  0  0  0
   16.1078   57.8133   79.5358 C   0  0  0  0  0  0  0  0  0  0  0  0
   11.7020   58.6755   79.4351 O   0  0  0  0  0  0  0  0  0  0  0  0
   11.8549   60.4010   81.8879 C   0  0  0  0  0  0  0  0  0  0  0  0
   13.5384   55.4990   81.7497 C   0  0  0  0  0  0  0  0  0  0  0  0
   14.5684   59.4526   79.2315 O   0  0  0  0  0  0  0  0  0  0  0  0
   11.8834   59.8310   80.4691 C   0  0  0  0  0  0  0  0  0  0  0  0
   14.9881   55.2021   83.6524 N   0  0  0  0  0  0  0  0  0  0  0  0
   11.5555   57.6052   81.4866 C   0  0  0  0  0  0  0  0  0  0  0  0
   13.9518   54.7621   82.8474 C   0  0  0  0  0  0  0  0  0  0  0  0
   14.8196   58.2976   79.6685 C   0  0  0  0  0  0  0  0  0  0  0  0
   10.1629   57.9840   81.4677 O   0  0  0  0  0  0  0  0  0  0  0  0
   12.4405   58.3745   80.5052 C   0  0  0  0  0  0  0  0  0  0  0  0
   12.2039   60.9133   79.6695 O   0  0  0  0  0  0  0  0  0  0  0  0
   15.2472   57.0830   82.2147 C   0  0  0  0  0  0  0  0  0  0  0  0
   14.1764   56.6981   81.4187 C   0  0  0  0  0  0  0  0  0  0  0  0
  1  9  2  0
  1 16  1  0
  2 12  1  0
  2 14  1  0
  2 17  1  0
  3 12  1  0
  4 14  1  0
  5  8  1  0
  6 11  2  0
  6 17  1  0
  7 12  2  0
  8 14  1  0
  8 15  1  0
  9 11  1  0
 10 13  1  0
 10 14  1  0
 16 17  2  0
M  END
>  <ID>  (1) 
conformer_0

$$$$
