
     RDKit          3D

 16 15  0  0  0  0  0  0  0  0999 V2000
   11.8058   60.8073   81.5339 C   0  0  0  0  0  0  0  0  0  0  0  0
   10.4810   58.6494   80.3999 C   0  0  0  0  0  0  0  0  0  0  0  0
   12.9439   55.5943   82.0900 O   0  0  0  0  0  0  0  0  0  0  0  0
    9.9785   57.9031   81.2801 O   0  0  0  0  0  0  0  0  0  0  0  0
   11.4204   60.5842   82.9203 O   0  0  0  0  0  0  0  0  0  0  0  0
   14.1627   59.2538   80.8340 C   0  0  0  0  0  0  0  0  0  0  0  0
   15.3774   56.2081   83.0477 C   0  0  0  0  0  0  0  0  0  0  0  0
   14.8856   55.0325   83.7772 C   0  0  0  0  0  0  0  0  0  0  0  0
   11.7030   59.4942   80.7481 C   0  0  0  0  0  0  0  0  0  0  0  0
   10.3167   58.5408   79.1455 O   0  0  0  0  0  0  0  0  0  0  0  0
   13.7845   56.3990   81.2610 C   0  0  0  0  0  0  0  0  0  0  0  0
   15.2328   58.8286   80.3014 O   0  0  0  0  0  0  0  0  0  0  0  0
   12.8565   57.2468   80.3454 C   0  0  0  0  0  0  0  0  0  0  0  0
   14.6357   57.1378   82.2101 O   0  0  0  0  0  0  0  0  0  0  0  0
   12.9185   58.6443   80.8091 N   0  0  0  0  0  0  0  0  0  0  0  0
   14.3428   60.4112   81.3710 O   0  0  0  0  0  0  0  0  0  0  0  0
  1  5  1  0
  1  9  1  0
  2  4  2  0
  2  9  1  0
  2 10  1  0
  3 11  1  0
  6 12  2  0
  6 15  1  0
  6 16  1  0
  7  8  1  0
  7 14  1  0
  9 15  1  0
 11 13  1  0
 11 14  1  0
 13 15  1  0
M  END
>  <ID>  (1) 
conformer_0

$$$$
