
     RDKit          3D

 14 14  0  0  0  0  0  0  0  0999 V2000
   10.9196   60.6245   80.9566 C   0  0  0  0  0  0  0  0  0  0  0  0
   12.6909   59.8698   79.2754 C   0  0  0  0  0  0  0  0  0  0  0  0
   15.7471   57.2821   82.0589 O   0  0  0  0  0  0  0  0  0  0  0  0
   14.9119   56.4584   81.7941 C   0  0  0  0  0  0  0  0  0  0  0  0
   11.7901   58.3490   80.8148 C   0  0  0  0  0  0  0  0  0  0  0  0
   13.0764   57.7703   80.4269 C   0  0  0  0  0  0  0  0  0  0  0  0
   14.8922   59.2012   79.8023 O   0  0  0  0  0  0  0  0  0  0  0  0
   11.1137   60.3023   82.3691 O   0  0  0  0  0  0  0  0  0  0  0  0
   10.7594   57.5944   81.0700 O   0  0  0  0  0  0  0  0  0  0  0  0
   13.6571   58.7304   79.4409 C   0  0  0  0  0  0  0  0  0  0  0  0
   13.9309   56.5904   80.7398 C   0  0  0  0  0  0  0  0  0  0  0  0
   15.2212   55.5978   83.9800 O   0  0  0  0  0  0  0  0  0  0  0  0
   14.7505   55.3750   82.7413 N   0  0  0  0  0  0  0  0  0  0  0  0
   11.5754   59.5989   80.1850 N   0  0  0  0  0  0  0  0  0  0  0  0
  1  8  1  0
  1 14  1  0
  2 10  1  0
  2 14  1  0
  3  4  2  0
  4 11  1  0
  4 13  1  0
  5  6  1  0
  5  9  2  0
  5 14  1  0
  6 10  1  0
  6 11  1  0
  7 10  1  0
 12 13  1  0
M  END
>  <ID>  (1) 
conformer_0

$$$$
