
     RDKit          3D

 34 38  0  0  0  0  0  0  0  0999 V2000
   12.4689   59.6663   79.0514 C   0  0  0  0  0  0  0  0  0  0  0  0
    8.7568   60.4156   81.6101 O   0  0  0  0  0  0  0  0  0  0  0  0
   11.1984   56.5027   80.3046 O   0  0  0  0  0  0  0  0  0  0  0  0
   15.0242   56.3304   81.2152 N   0  0  0  0  0  0  0  0  0  0  0  0
   16.6904   57.6942   79.9406 C   0  0  0  0  0  0  0  0  0  0  0  0
   13.6316   55.1315   82.6707 N   0  0  0  0  0  0  0  0  0  0  0  0
   12.0550   61.0853   81.1320 C   0  0  0  0  0  0  0  0  0  0  0  0
   14.9407   55.5244   82.3196 C   0  0  0  0  0  0  0  0  0  0  0  0
    9.8439   57.0217   80.6980 C   0  0  0  0  0  0  0  0  0  0  0  0
    8.6713   59.0066   81.3870 C   0  0  0  0  0  0  0  0  0  0  0  0
    7.5406   56.8834   81.4336 C   0  0  0  0  0  0  0  0  0  0  0  0
    9.7414   58.3658   80.8831 C   0  0  0  0  0  0  0  0  0  0  0  0
    8.6870   56.2387   80.9200 C   0  0  0  0  0  0  0  0  0  0  0  0
   13.9198   56.8154   80.4956 C   0  0  0  0  0  0  0  0  0  0  0  0
   13.8215   59.6582   78.1004 O   0  0  0  0  0  0  0  0  0  0  0  0
   13.7441   62.6546   80.6442 O   0  0  0  0  0  0  0  0  0  0  0  0
    7.5399   58.2691   81.6865 C   0  0  0  0  0  0  0  0  0  0  0  0
   12.9165   58.9298   80.2076 O   0  0  0  0  0  0  0  0  0  0  0  0
   13.9351   54.1385   84.8630 N   0  0  0  0  0  0  0  0  0  0  0  0
   12.5506   56.3966   80.7841 C   0  0  0  0  0  0  0  0  0  0  0  0
   11.9055   54.1620   83.5984 N   0  0  0  0  0  0  0  0  0  0  0  0
   11.5089   54.7523   82.4321 N   0  0  0  0  0  0  0  0  0  0  0  0
   15.5232   58.5996   79.7293 C   0  0  0  0  0  0  0  0  0  0  0  0
   17.9790   58.1154   79.7741 O   0  0  0  0  0  0  0  0  0  0  0  0
   14.0968   58.2112   79.9442 C   0  0  0  0  0  0  0  0  0  0  0  0
    9.3969   61.2924   80.7265 C   0  0  0  0  0  0  0  0  0  0  0  0
   13.5837   60.7591   79.0088 C   0  0  0  0  0  0  0  0  0  0  0  0
   12.5223   55.4311   81.8826 C   0  0  0  0  0  0  0  0  0  0  0  0
   16.3957   56.4892   80.7524 C   0  0  0  0  0  0  0  0  0  0  0  0
   10.8278   61.2905   80.4281 O   0  0  0  0  0  0  0  0  0  0  0  0
   11.3838   62.3672   81.4809 C   0  0  0  0  0  0  0  0  0  0  0  0
   15.9068   59.8908   79.9188 O   0  0  0  0  0  0  0  0  0  0  0  0
   13.2770   61.4351   80.3621 C   0  0  0  0  0  0  0  0  0  0  0  0
   13.1858   54.4107   83.8019 C   0  0  0  0  0  0  0  0  0  0  0  0
  1 18  1  0
  1 27  1  0
  2 10  1  0
  2 26  1  0
  3  9  1  0
  3 20  1  0
  4  8  1  0
  4 14  1  0
  4 29  1  0
  5 23  1  0
  5 24  1  0
  5 29  2  0
  6  8  1  0
  6 28  1  0
  6 34  1  0
  7 30  1  0
  7 31  1  0
  7 33  1  0
  9 12  2  0
  9 13  1  0
 10 12  1  0
 10 17  2  0
 11 13  2  0
 11 17  1  0
 14 20  1  0
 14 25  1  0
 15 27  1  0
 16 33  1  0
 18 25  1  0
 19 34  2  0
 20 28  2  0
 21 22  1  0
 21 34  1  0
 22 28  1  0
 23 25  1  0
 23 32  1  0
 26 30  1  0
 27 33  1  0
M  END
>  <ID>  (1) 
conformer_0

$$$$
