
     RDKit          3D

 21 21  0  0  0  0  0  0  0  0999 V2000
   12.4822   60.1000   78.6216 O   0  0  0  0  0  0  0  0  0  0  0  0
   12.3085   60.5224   81.9696 O   0  0  0  0  0  0  0  0  0  0  0  0
   11.6916   57.5061   80.4227 C   0  0  0  0  0  0  0  0  0  0  0  0
    9.6331   60.1663   79.1421 O   0  0  0  0  0  0  0  0  0  0  0  0
   15.0586   58.3532   79.2764 C   0  0  0  0  0  0  0  0  0  0  0  0
   12.7137   59.5658   79.9044 C   0  0  0  0  0  0  0  0  0  0  0  0
   17.1315   57.6409   80.8712 O   0  0  0  0  0  0  0  0  0  0  0  0
   13.7357   57.0324   80.7607 C   0  0  0  0  0  0  0  0  0  0  0  0
   12.8718   58.2450   80.5208 O   0  0  0  0  0  0  0  0  0  0  0  0
   12.3391   55.7795   82.2368 O   0  0  0  0  0  0  0  0  0  0  0  0
   16.0845   56.9173   81.0602 C   0  0  0  0  0  0  0  0  0  0  0  0
   14.6179   55.5855   82.5208 C   0  0  0  0  0  0  0  0  0  0  0  0
   11.5860   60.2652   80.7522 C   0  0  0  0  0  0  0  0  0  0  0  0
   10.3000   59.6294   80.2332 C   0  0  0  0  0  0  0  0  0  0  0  0
   13.4408   54.6870   84.5377 N   0  0  0  0  0  0  0  0  0  0  0  0
   13.4685   56.1875   81.8256 C   0  0  0  0  0  0  0  0  0  0  0  0
   15.8677   56.1353   82.1847 C   0  0  0  0  0  0  0  0  0  0  0  0
   14.9953   57.1958   80.1599 C   0  0  0  0  0  0  0  0  0  0  0  0
   14.5450   54.7807   83.7404 C   0  0  0  0  0  0  0  0  0  0  0  0
    9.4214   57.5879   80.9854 O   0  0  0  0  0  0  0  0  0  0  0  0
   10.3980   58.1200   80.0350 C   0  0  0  0  0  0  0  0  0  0  0  0
  1  6  1  0
  2 13  1  0
  3  9  1  0
  3 21  1  0
  4 14  1  0
  5 18  1  0
  6 13  1  0
  7 11  1  0
  8  9  1  0
  8 16  1  0
  8 18  1  0
 10 16  2  0
 11 17  2  0
 11 18  1  0
 12 16  1  0
 12 17  1  0
 12 19  1  0
 13 14  1  0
 14 21  1  0
 15 19  1  0
 20 21  1  0
M  END
>  <ID>  (1) 
conformer_0

$$$$
