
     RDKit          3D

 26 28  0  0  0  0  0  0  0  0999 V2000
    9.8886   56.8687   80.1642 C   0  0  0  0  0  0  0  0  0  0  0  0
   10.2409   58.4739   80.0019 C   0  0  0  0  0  0  0  0  0  0  0  0
   10.7076   55.8783   80.9155 C   0  0  0  0  0  0  0  0  0  0  0  0
   14.1468   60.6077   80.3460 C   0  0  0  0  0  0  0  0  0  0  0  0
   10.1756   55.0080   81.8571 C   0  0  0  0  0  0  0  0  0  0  0  0
   12.1712   56.1989   81.0355 C   0  0  0  0  0  0  0  0  0  0  0  0
   11.8159   60.5555   80.0927 C   0  0  0  0  0  0  0  0  0  0  0  0
   11.9766   61.2710   81.4000 C   0  0  0  0  0  0  0  0  0  0  0  0
   12.6785   57.0872   80.1826 C   0  0  0  0  0  0  0  0  0  0  0  0
   13.9194   57.5492   80.1788 N   0  0  0  0  0  0  0  0  0  0  0  0
    8.5282   56.6007   80.4752 O   0  0  0  0  0  0  0  0  0  0  0  0
   13.0138   59.8035   79.7835 O   0  0  0  0  0  0  0  0  0  0  0  0
   14.4390   54.6194   84.0886 N   0  0  0  0  0  0  0  0  0  0  0  0
   15.8355   56.4391   84.0402 N   0  0  0  0  0  0  0  0  0  0  0  0
    8.0452   59.3379   80.1812 O   0  0  0  0  0  0  0  0  0  0  0  0
   16.0413   57.2746   81.1009 O   0  0  0  0  0  0  0  0  0  0  0  0
   13.0332   55.6485   81.9291 N   0  0  0  0  0  0  0  0  0  0  0  0
    9.1465   59.0667   80.9736 C   0  0  0  0  0  0  0  0  0  0  0  0
   15.0445   55.6300   83.3303 C   0  0  0  0  0  0  0  0  0  0  0  0
   10.6892   59.9572   79.4902 O   0  0  0  0  0  0  0  0  0  0  0  0
   12.9020   62.4554   81.2044 C   0  0  0  0  0  0  0  0  0  0  0  0
   14.2977   56.0625   82.0994 C   0  0  0  0  0  0  0  0  0  0  0  0
   14.8391   56.9904   81.1021 C   0  0  0  0  0  0  0  0  0  0  0  0
   15.1610   59.8454   79.3783 C   0  0  0  0  0  0  0  0  0  0  0  0
   14.1718   58.6681   79.2259 C   0  0  0  0  0  0  0  0  0  0  0  0
   13.8720   62.0367   80.0923 C   0  0  0  0  0  0  0  0  0  0  0  0
  1  2  1  0
  1  3  1  0
  1 11  1  0
  2 18  1  0
  2 20  1  0
  3  5  1  0
  3  6  1  0
  4 12  1  0
  4 24  1  0
  4 26  1  0
  6  9  2  0
  6 17  1  0
  7  8  1  0
  7 12  1  0
  7 20  1  0
  8 21  1  0
  9 10  1  0
 10 23  1  0
 10 25  1  0
 13 19  2  0
 14 19  1  0
 15 18  1  0
 16 23  2  0
 17 22  2  0
 19 22  1  0
 21 26  1  0
 22 23  1  0
 24 25  1  0
M  END
>  <ID>  (1) 
conformer_0

$$$$
