
     RDKit          3D

 16 16  0  0  0  0  0  0  0  0999 V2000
   11.7205   57.5222   80.5264 C   0  0  0  0  0  0  0  0  0  0  0  0
   15.7982   57.2136   83.5689 O   0  0  0  0  0  0  0  0  0  0  0  0
   14.3188   56.9740   80.7610 C   0  0  0  0  0  0  0  0  0  0  0  0
   15.4530   56.3596   81.3308 C   0  0  0  0  0  0  0  0  0  0  0  0
    9.6312   58.4111   79.9357 O   0  0  0  0  0  0  0  0  0  0  0  0
   11.3189   58.5058   81.7562 O   0  0  0  0  0  0  0  0  0  0  0  0
   15.4083   56.0846   82.8134 C   0  0  0  0  0  0  0  0  0  0  0  0
    9.6409   56.8236   81.6393 C   0  0  0  0  0  0  0  0  0  0  0  0
   12.2076   59.2315   78.8176 O   0  0  0  0  0  0  0  0  0  0  0  0
   14.5088   59.4381   80.5916 O   0  0  0  0  0  0  0  0  0  0  0  0
   10.3947   57.9651   80.9580 C   0  0  0  0  0  0  0  0  0  0  0  0
   12.6205   58.3621   79.6873 C   0  0  0  0  0  0  0  0  0  0  0  0
   14.1194   58.2367   80.0084 C   0  0  0  0  0  0  0  0  0  0  0  0
   16.6075   56.7063   80.4128 C   0  0  0  0  0  0  0  0  0  0  0  0
   11.9755   56.2540   81.3475 C   0  0  0  0  0  0  0  0  0  0  0  0
   10.7622   55.9477   82.1888 C   0  0  0  0  0  0  0  0  0  0  0  0
  1 11  1  0
  1 12  1  0
  1 15  1  0
  2  7  1  0
  3  4  1  0
  3 13  1  0
  4  7  1  0
  4 14  1  0
  5 11  1  0
  6 11  1  0
  8 11  1  0
  8 16  1  0
  9 12  1  0
 10 13  1  0
 12 13  1  0
 15 16  1  0
M  END
>  <ID>  (1) 
conformer_0

$$$$
