
     RDKit          3D

 21 24  0  0  0  0  0  0  0  0999 V2000
   13.4814   54.2082   84.7083 C   0  0  0  0  0  0  0  0  0  0  0  0
   14.2269   56.8704   80.6690 C   0  0  0  0  0  0  0  0  0  0  0  0
   15.0683   58.6095   79.0301 C   0  0  0  0  0  0  0  0  0  0  0  0
   12.5905   54.5838   83.5598 C   0  0  0  0  0  0  0  0  0  0  0  0
   10.7310   59.4880   80.3790 C   0  0  0  0  0  0  0  0  0  0  0  0
   13.1479   56.0755   81.2692 C   0  0  0  0  0  0  0  0  0  0  0  0
   11.5715   60.4801   79.9138 C   0  0  0  0  0  0  0  0  0  0  0  0
    9.3450   57.8158   81.2839 C   0  0  0  0  0  0  0  0  0  0  0  0
   16.1645   59.1884   79.8968 C   0  0  0  0  0  0  0  0  0  0  0  0
   16.7074   56.8086   80.0079 C   0  0  0  0  0  0  0  0  0  0  0  0
   17.3310   58.1941   79.8196 C   0  0  0  0  0  0  0  0  0  0  0  0
   11.5064   58.2453   80.2816 N   0  0  0  0  0  0  0  0  0  0  0  0
   15.6732   56.8151   81.1007 C   0  0  0  0  0  0  0  0  0  0  0  0
   13.4027   55.2913   82.5348 C   0  0  0  0  0  0  0  0  0  0  0  0
   14.8103   55.1873   83.0030 C   0  0  0  0  0  0  0  0  0  0  0  0
   13.9723   57.8866   79.6590 C   0  0  0  0  0  0  0  0  0  0  0  0
    9.7647   59.2946   81.4154 C   0  0  0  0  0  0  0  0  0  0  0  0
   10.5149   57.1716   80.6622 C   0  0  0  0  0  0  0  0  0  0  0  0
   12.6493   59.8699   79.2506 N   0  0  0  0  0  0  0  0  0  0  0  0
   12.7075   58.5685   79.5912 C   0  0  0  0  0  0  0  0  0  0  0  0
   14.8191   54.4064   84.1936 N   0  0  0  0  0  0  0  0  0  0  0  0
  1  4  1  0
  1 21  1  0
  2  6  2  3
  2 13  1  0
  2 16  1  0
  3  9  1  0
  3 16  1  0
  4 14  1  0
  5  7  1  0
  5 12  1  0
  5 17  1  0
  6 14  1  0
  7 19  1  0
  8 17  1  0
  8 18  1  0
  9 11  1  0
 10 11  1  0
 10 13  1  0
 12 18  1  0
 12 20  1  0
 14 15  1  0
 15 21  1  0
 16 20  1  0
 19 20  2  0
M  END
>  <ID>  (1) 
conformer_0

$$$$
