
     RDKit          3D

 28 30  0  0  0  0  0  0  0  0999 V2000
   13.1686   59.6019   78.8490 C   0  0  0  0  0  0  0  0  0  0  0  0
    8.8384   58.0979   81.3092 C   0  0  0  0  0  0  0  0  0  0  0  0
   15.7738   56.8070   84.1965 O   0  0  0  0  0  0  0  0  0  0  0  0
   10.8370   60.6406   79.1024 O   0  0  0  0  0  0  0  0  0  0  0  0
    8.6301   54.2306   82.6978 C   0  0  0  0  0  0  0  0  0  0  0  0
   12.1726   58.6067   79.5869 C   0  0  0  0  0  0  0  0  0  0  0  0
   13.7893   55.9280   81.4460 O   0  0  0  0  0  0  0  0  0  0  0  0
   14.5698   59.4179   79.5964 C   0  0  0  0  0  0  0  0  0  0  0  0
   13.6685   60.4420   79.9613 C   0  0  0  0  0  0  0  0  0  0  0  0
   15.8227   57.2540   80.1257 C   0  0  0  0  0  0  0  0  0  0  0  0
   15.5489   59.6637   78.6822 O   0  0  0  0  0  0  0  0  0  0  0  0
   12.3075   54.5858   82.7514 C   0  0  0  0  0  0  0  0  0  0  0  0
    9.9377   54.7879   82.5692 C   0  0  0  0  0  0  0  0  0  0  0  0
   11.3859   56.2874   81.3749 C   0  0  0  0  0  0  0  0  0  0  0  0
   11.7200   57.3430   80.3718 O   0  0  0  0  0  0  0  0  0  0  0  0
    9.5631   60.4136   81.4446 O   0  0  0  0  0  0  0  0  0  0  0  0
   16.1179   56.2629   81.2692 C   0  0  0  0  0  0  0  0  0  0  0  0
   15.2401   55.8505   83.5789 C   0  0  0  0  0  0  0  0  0  0  0  0
    7.7014   58.7164   81.9192 O   0  0  0  0  0  0  0  0  0  0  0  0
   14.6707   58.1774   80.3575 C   0  0  0  0  0  0  0  0  0  0  0  0
    8.7746   56.6644   81.5962 C   0  0  0  0  0  0  0  0  0  0  0  0
   10.9435   59.5202   79.7890 C   0  0  0  0  0  0  0  0  0  0  0  0
   11.0554   54.1593   83.1231 C   0  0  0  0  0  0  0  0  0  0  0  0
   10.0785   55.9472   81.8179 C   0  0  0  0  0  0  0  0  0  0  0  0
   14.9253   56.0778   82.1311 C   0  0  0  0  0  0  0  0  0  0  0  0
   12.4892   55.6093   81.8518 C   0  0  0  0  0  0  0  0  0  0  0  0
    9.7986   59.1490   80.7249 C   0  0  0  0  0  0  0  0  0  0  0  0
   14.8345   54.7963   84.1583 O   0  0  0  0  0  0  0  0  0  0  0  0
  1  6  1  0
  1  9  1  0
  2 19  1  0
  2 21  1  0
  2 27  1  0
  3 18  2  0
  4 22  1  0
  5 13  1  0
  6 15  1  0
  6 22  1  0
  7 25  1  0
  7 26  1  0
  8  9  1  0
  8 11  1  0
  8 20  2  0
 10 17  1  0
 10 20  1  0
 12 23  1  0
 12 26  2  0
 13 23  2  0
 13 24  1  0
 14 15  1  0
 14 24  2  0
 14 26  1  0
 16 27  1  0
 17 25  1  0
 18 25  1  0
 18 28  1  0
 21 24  1  0
 22 27  1  0
M  END
>  <ID>  (1) 
conformer_0

$$$$
