
     RDKit          3D

 13 14  0  0  0  0  0  0  0  0999 V2000
   12.9484   58.9615   79.6626 C   0  0  0  0  0  0  0  0  0  0  0  0
   15.7241   57.2951   82.7437 O   0  0  0  0  0  0  0  0  0  0  0  0
   15.4708   55.7420   80.9905 C   0  0  0  0  0  0  0  0  0  0  0  0
   15.6139   57.0621   81.5339 C   0  0  0  0  0  0  0  0  0  0  0  0
   11.2155   58.0990   80.9725 C   0  0  0  0  0  0  0  0  0  0  0  0
   12.6136   56.5672   82.2303 O   0  0  0  0  0  0  0  0  0  0  0  0
   14.9945   58.1097   80.6493 C   0  0  0  0  0  0  0  0  0  0  0  0
   12.4015   57.1717   81.1014 C   0  0  0  0  0  0  0  0  0  0  0  0
   15.3044   59.1120   79.5250 C   0  0  0  0  0  0  0  0  0  0  0  0
   11.7551   59.2935   80.2728 O   0  0  0  0  0  0  0  0  0  0  0  0
   13.5357   57.7085   80.3077 C   0  0  0  0  0  0  0  0  0  0  0  0
   13.6548   60.4277   78.0533 O   0  0  0  0  0  0  0  0  0  0  0  0
   14.0265   59.9432   79.3217 C   0  0  0  0  0  0  0  0  0  0  0  0
  1 10  1  0
  1 11  1  0
  1 13  1  0
  2  4  2  0
  3  4  1  0
  4  7  1  0
  5  8  1  0
  5 10  1  0
  6  8  1  0
  7  9  1  0
  7 11  1  0
  8 11  1  0
  9 13  1  0
 12 13  1  0
M  END
>  <ID>  (1) 
conformer_0

$$$$
