
     RDKit          3D

 11 10  0  0  0  0  0  0  0  0999 V2000
   11.9611   59.5148   81.1746 C   0  0  0  0  0  0  0  0  0  0  0  0
   12.0999   60.7536   80.9446 O   0  0  0  0  0  0  0  0  0  0  0  0
   15.7393   57.0176   84.1490 O   0  0  0  0  0  0  0  0  0  0  0  0
   13.1997   57.3292   80.3585 C   0  0  0  0  0  0  0  0  0  0  0  0
   15.1373   55.9921   83.3639 C   0  0  0  0  0  0  0  0  0  0  0  0
   11.6332   58.6224   78.9543 N   0  0  0  0  0  0  0  0  0  0  0  0
   15.4520   56.1573   81.8684 C   0  0  0  0  0  0  0  0  0  0  0  0
   12.4574   58.6626   80.0606 C   0  0  0  0  0  0  0  0  0  0  0  0
   11.2156   58.9862   82.0568 O   0  0  0  0  0  0  0  0  0  0  0  0
   14.1307   56.0907   81.0565 C   0  0  0  0  0  0  0  0  0  0  0  0
   13.4697   57.3065   81.7362 O   0  0  0  0  0  0  0  0  0  0  0  0
  1  2  2  0
  1  8  1  0
  1  9  1  0
  3  5  1  0
  4  8  1  0
  4 11  1  0
  5  7  1  0
  6  8  1  0
  7 10  1  0
 10 11  1  0
M  END
>  <ID>  (1) 
conformer_0

$$$$
