
     RDKit          3D

 27 28  0  0  0  0  0  0  0  0999 V2000
   10.6595   60.8518   82.1522 C   0  0  0  0  0  0  0  0  0  0  0  0
   15.1921   56.5373   80.9470 C   0  0  0  0  0  0  0  0  0  0  0  0
   12.7754   54.8550   82.3349 C   0  0  0  0  0  0  0  0  0  0  0  0
   14.1709   54.9579   82.8348 C   0  0  0  0  0  0  0  0  0  0  0  0
   16.6280   58.0876   79.8015 C   0  0  0  0  0  0  0  0  0  0  0  0
   10.4922   57.5971   81.1844 C   0  0  0  0  0  0  0  0  0  0  0  0
   12.7505   56.9395   80.8523 C   0  0  0  0  0  0  0  0  0  0  0  0
   10.1541   60.1850   80.7579 C   0  0  0  0  0  0  0  0  0  0  0  0
   11.3524   59.5236   80.1904 C   0  0  0  0  0  0  0  0  0  0  0  0
   12.0032   60.1580   79.2742 O   0  0  0  0  0  0  0  0  0  0  0  0
   11.7863   58.1632   80.6742 C   0  0  0  0  0  0  0  0  0  0  0  0
   15.5503   58.9209   79.5983 C   0  0  0  0  0  0  0  0  0  0  0  0
   16.4587   56.8688   80.4880 C   0  0  0  0  0  0  0  0  0  0  0  0
   12.2243   56.0940   81.8504 O   0  0  0  0  0  0  0  0  0  0  0  0
   10.7726   56.2100   81.6487 C   0  0  0  0  0  0  0  0  0  0  0  0
    9.7829   55.3651   81.5823 O   0  0  0  0  0  0  0  0  0  0  0  0
   14.3428   58.4341   79.8160 C   0  0  0  0  0  0  0  0  0  0  0  0
    9.5527   57.7143   80.0691 N   0  0  0  0  0  0  0  0  0  0  0  0
   11.8563   54.1737   83.3335 S   0  0  0  0  0  0  0  0  0  0  0  0
   14.1152   57.2804   80.4854 C   0  0  0  0  0  0  0  0  0  0  0  0
   15.0068   55.5675   81.9444 O   0  0  0  0  0  0  0  0  0  0  0  0
   11.9760   61.4681   81.9291 O   0  0  0  0  0  0  0  0  0  0  0  0
   15.6850   60.2280   79.2837 O   0  0  0  0  0  0  0  0  0  0  0  0
   10.0529   57.8438   78.7013 O   0  0  0  0  0  0  0  0  0  0  0  0
   14.3386   54.6173   84.1145 O   0  0  0  0  0  0  0  0  0  0  0  0
   10.7680   59.7823   83.0283 O   0  0  0  0  0  0  0  0  0  0  0  0
    9.6477   61.9292   82.6341 C   0  0  0  0  0  0  0  0  0  0  0  0
  1  8  1  0
  1 22  1  0
  1 26  1  0
  1 27  1  0
  2 13  2  0
  2 20  1  0
  2 21  1  0
  3  4  1  0
  3 14  1  0
  3 19  1  0
  4 21  1  0
  4 25  2  0
  5 12  2  0
  5 13  1  0
  6 11  1  0
  6 15  1  0
  6 18  1  0
  7 11  1  0
  7 14  1  0
  7 20  1  0
  8  9  1  0
  9 10  1  0
  9 11  1  0
 12 17  1  0
 12 23  1  0
 15 16  1  0
 17 20  2  0
 18 24  1  0
M  END
>  <ID>  (1) 
conformer_0

$$$$
