
     RDKit          3D

 23 25  0  0  0  0  0  0  0  0999 V2000
   14.2547   58.1331   80.8865 O   0  0  0  0  0  0  0  0  0  0  0  0
   14.2619   55.8400   82.0307 C   0  0  0  0  0  0  0  0  0  0  0  0
    9.7780   59.1015   80.2668 C   0  0  0  0  0  0  0  0  0  0  0  0
   11.8066   56.0084   81.6957 C   0  0  0  0  0  0  0  0  0  0  0  0
   14.8686   58.2467   79.5357 C   0  0  0  0  0  0  0  0  0  0  0  0
   15.0052   57.0788   81.5491 C   0  0  0  0  0  0  0  0  0  0  0  0
   14.9864   55.1208   83.2356 C   0  0  0  0  0  0  0  0  0  0  0  0
    9.8129   58.2532   79.1064 O   0  0  0  0  0  0  0  0  0  0  0  0
   13.2203   60.2835   79.3462 C   0  0  0  0  0  0  0  0  0  0  0  0
   10.9128   59.4035   82.3697 O   0  0  0  0  0  0  0  0  0  0  0  0
   16.3367   59.9918   78.4077 O   0  0  0  0  0  0  0  0  0  0  0  0
   15.4560   59.5574   79.1580 C   0  0  0  0  0  0  0  0  0  0  0  0
   14.5855   60.5701   79.9445 C   0  0  0  0  0  0  0  0  0  0  0  0
   12.9237   56.1654   82.5321 O   0  0  0  0  0  0  0  0  0  0  0  0
   11.4158   60.5394   81.5284 C   0  0  0  0  0  0  0  0  0  0  0  0
   10.8869   60.1969   80.1149 C   0  0  0  0  0  0  0  0  0  0  0  0
   10.2130   58.4411   81.5703 C   0  0  0  0  0  0  0  0  0  0  0  0
   16.1115   57.2514   82.3295 O   0  0  0  0  0  0  0  0  0  0  0  0
   12.0709   59.4406   79.5382 O   0  0  0  0  0  0  0  0  0  0  0  0
   15.8685   57.1506   80.0623 C   0  0  0  0  0  0  0  0  0  0  0  0
   11.0360   57.2034   81.4138 O   0  0  0  0  0  0  0  0  0  0  0  0
   13.3276   60.6689   78.0166 O   0  0  0  0  0  0  0  0  0  0  0  0
   14.9292   55.9954   84.3447 O   0  0  0  0  0  0  0  0  0  0  0  0
  1  5  1  0
  1  6  1  0
  2  6  1  0
  2  7  1  0
  2 14  1  0
  3  8  1  0
  3 16  1  0
  3 17  1  0
  4 14  1  0
  4 21  1  0
  5 12  1  0
  5 20  1  0
  6 18  1  0
  6 20  1  0
  7 23  1  0
  9 13  1  0
  9 19  1  0
  9 22  2  0
 10 15  1  0
 10 17  1  0
 11 12  2  0
 12 13  1  0
 15 16  1  0
 16 19  1  0
 17 21  1  0
M  END
>  <ID>  (1) 
conformer_0

$$$$
