
     RDKit          3D

 18 19  0  0  0  0  0  0  0  0999 V2000
   14.6040   55.4256   83.3102 C   0  0  0  0  0  0  0  0  0  0  0  0
   11.1975   59.4488   79.5307 C   0  0  0  0  0  0  0  0  0  0  0  0
   13.6472   59.1457   79.2288 N   0  0  0  0  0  0  0  0  0  0  0  0
   12.4109   58.6452   79.6587 C   0  0  0  0  0  0  0  0  0  0  0  0
   10.5431   56.7791   80.6183 C   0  0  0  0  0  0  0  0  0  0  0  0
   14.5677   58.2647   79.5851 O   0  0  0  0  0  0  0  0  0  0  0  0
   11.3210   60.6577   79.2189 O   0  0  0  0  0  0  0  0  0  0  0  0
   13.9395   54.5773   84.2218 N   0  0  0  0  0  0  0  0  0  0  0  0
   16.2608   56.2836   80.5956 C   0  0  0  0  0  0  0  0  0  0  0  0
   14.1940   55.3377   81.9206 C   0  0  0  0  0  0  0  0  0  0  0  0
   14.0168   57.2001   80.2305 N   0  0  0  0  0  0  0  0  0  0  0  0
    9.9371   58.9291   79.7264 N   0  0  0  0  0  0  0  0  0  0  0  0
   12.6962   57.3986   80.2166 C   0  0  0  0  0  0  0  0  0  0  0  0
   11.8224   56.5241   80.6836 N   0  0  0  0  0  0  0  0  0  0  0  0
   15.8266   56.0548   83.6822 C   0  0  0  0  0  0  0  0  0  0  0  0
    9.7531   57.7133   80.2015 C   0  0  0  0  0  0  0  0  0  0  0  0
   15.9822   57.1986   84.5184 C   0  0  0  0  0  0  0  0  0  0  0  0
   14.7585   56.1980   80.9353 C   0  0  0  0  0  0  0  0  0  0  0  0
  1  8  1  0
  1 10  1  0
  1 15  1  0
  2  4  1  0
  2  7  2  0
  2 12  1  0
  3  4  1  0
  3  6  1  0
  4 13  2  0
  5 14  2  0
  5 16  1  0
  6 11  1  0
  9 18  1  0
 10 18  1  0
 11 13  1  0
 11 18  1  0
 12 16  2  0
 13 14  1  0
 15 17  1  0
M  END
>  <ID>  (1) 
conformer_0

$$$$
