
     RDKit          3D

 31 34  0  0  0  0  0  0  0  0999 V2000
   11.6201   54.4481   82.7520 C   0  0  0  0  0  0  0  0  0  0  0  0
    9.2780   56.0923   82.7551 C   0  0  0  0  0  0  0  0  0  0  0  0
   11.6363   54.1443   81.2214 C   0  0  0  0  0  0  0  0  0  0  0  0
    9.1250   54.5483   82.6675 C   0  0  0  0  0  0  0  0  0  0  0  0
   15.1766   55.2870   83.6054 C   0  0  0  0  0  0  0  0  0  0  0  0
   13.7749   60.6510   79.3167 C   0  0  0  0  0  0  0  0  0  0  0  0
   14.0127   56.3966   81.6246 C   0  0  0  0  0  0  0  0  0  0  0  0
    9.8153   56.8591   80.1135 C   0  0  0  0  0  0  0  0  0  0  0  0
   13.2494   61.6832   78.6157 O   0  0  0  0  0  0  0  0  0  0  0  0
   14.0388   55.2300   82.6133 C   0  0  0  0  0  0  0  0  0  0  0  0
   15.1518   56.8287   80.7238 C   0  0  0  0  0  0  0  0  0  0  0  0
   13.2284   57.5504   81.7296 O   0  0  0  0  0  0  0  0  0  0  0  0
   11.3859   60.3884   80.0616 O   0  0  0  0  0  0  0  0  0  0  0  0
   15.2260   54.1680   84.4470 C   0  0  0  0  0  0  0  0  0  0  0  0
    8.8935   56.8135   81.4262 C   0  0  0  0  0  0  0  0  0  0  0  0
   12.7899   59.8778   80.1114 C   0  0  0  0  0  0  0  0  0  0  0  0
   14.6622   58.0916   79.9580 C   0  0  0  0  0  0  0  0  0  0  0  0
    8.3187   59.9592   79.4272 C   0  0  0  0  0  0  0  0  0  0  0  0
   10.9242   59.0832   81.9840 O   0  0  0  0  0  0  0  0  0  0  0  0
   12.9800   54.3630   83.2261 N   0  0  0  0  0  0  0  0  0  0  0  0
   15.9406   56.5419   83.8542 C   0  0  0  0  0  0  0  0  0  0  0  0
   10.3954   59.2992   80.6349 C   0  0  0  0  0  0  0  0  0  0  0  0
    8.7874   60.9995   81.3819 C   0  0  0  0  0  0  0  0  0  0  0  0
   16.8661   58.9909   80.0869 O   0  0  0  0  0  0  0  0  0  0  0  0
    8.7892   59.4563   80.8365 C   0  0  0  0  0  0  0  0  0  0  0  0
   10.5449   58.1511   79.5295 C   0  0  0  0  0  0  0  0  0  0  0  0
   15.6736   59.1236   79.5883 C   0  0  0  0  0  0  0  0  0  0  0  0
   15.1177   60.3324   79.1793 O   0  0  0  0  0  0  0  0  0  0  0  0
    8.8660   61.4065   79.8496 C   0  0  0  0  0  0  0  0  0  0  0  0
   10.3847   53.9825   83.4038 C   0  0  0  0  0  0  0  0  0  0  0  0
   13.5047   58.6262   80.7657 C   0  0  0  0  0  0  0  0  0  0  0  0
  1  3  1  0
  1 20  1  0
  1 30  1  0
  2  4  1  0
  2 15  1  0
  4 30  1  0
  5 10  1  0
  5 14  1  0
  5 21  1  0
  6  9  2  0
  6 16  1  0
  6 28  1  0
  7 10  1  0
  7 11  1  0
  7 12  1  0
  8 15  1  0
  8 26  1  0
 10 20  2  0
 11 17  1  0
 12 31  1  0
 13 16  1  0
 13 22  1  0
 16 31  1  0
 17 27  1  0
 17 31  1  0
 18 25  1  0
 18 29  1  0
 19 22  1  0
 22 25  1  0
 22 26  1  0
 23 25  1  0
 23 29  1  0
 24 27  2  0
 27 28  1  0
M  END
>  <ID>  (1) 
conformer_0

$$$$
