
     RDKit          3D

 21 21  0  0  0  0  0  0  0  0999 V2000
   14.0757   54.8708   82.9755 C   0  0  0  0  0  0  0  0  0  0  0  0
   12.0713   58.6421   81.4475 O   0  0  0  0  0  0  0  0  0  0  0  0
   14.6140   58.7510   80.4984 O   0  0  0  0  0  0  0  0  0  0  0  0
   13.2076   61.9506   81.2079 C   0  0  0  0  0  0  0  0  0  0  0  0
   16.7394   57.8140   79.7654 C   0  0  0  0  0  0  0  0  0  0  0  0
   15.8313   59.7964   78.8067 O   0  0  0  0  0  0  0  0  0  0  0  0
   14.8246   55.8702   83.6622 O   0  0  0  0  0  0  0  0  0  0  0  0
   13.7755   59.9591   80.3879 C   0  0  0  0  0  0  0  0  0  0  0  0
   15.7607   58.9184   79.6854 C   0  0  0  0  0  0  0  0  0  0  0  0
    9.8921   57.5794   82.0140 O   0  0  0  0  0  0  0  0  0  0  0  0
   13.6364   55.2973   81.5856 C   0  0  0  0  0  0  0  0  0  0  0  0
   12.3307   56.0656   81.5965 C   0  0  0  0  0  0  0  0  0  0  0  0
   16.1272   56.5878   80.5352 C   0  0  0  0  0  0  0  0  0  0  0  0
   11.5017   59.6627   79.4161 O   0  0  0  0  0  0  0  0  0  0  0  0
   11.3004   55.2789   81.3718 O   0  0  0  0  0  0  0  0  0  0  0  0
   10.6720   58.6905   81.7542 C   0  0  0  0  0  0  0  0  0  0  0  0
   12.3222   59.5621   80.3784 C   0  0  0  0  0  0  0  0  0  0  0  0
   13.7880   60.6541   81.6608 O   0  0  0  0  0  0  0  0  0  0  0  0
   13.9062   57.4660   80.3871 C   0  0  0  0  0  0  0  0  0  0  0  0
   12.4526   57.3505   80.8457 C   0  0  0  0  0  0  0  0  0  0  0  0
   14.6482   56.2577   80.9855 C   0  0  0  0  0  0  0  0  0  0  0  0
  1  7  1  0
  1 11  1  0
  2 16  1  0
  2 17  1  0
  3  8  1  0
  3  9  1  0
  4 18  1  0
  5  9  1  0
  5 13  1  0
  6  9  2  0
  8 17  1  0
  8 18  1  0
 10 16  1  0
 11 12  1  0
 11 21  1  0
 12 15  1  0
 12 20  1  0
 13 21  2  3
 14 17  2  0
 19 20  1  0
 19 21  1  0
M  END
>  <ID>  (1) 
conformer_0

$$$$
