
     RDKit          3D

 23 26  0  0  0  0  0  0  0  0999 V2000
    9.7279   57.6650   81.3921 C   0  0  0  0  0  0  0  0  0  0  0  0
   14.3488   59.3845   78.5837 O   0  0  0  0  0  0  0  0  0  0  0  0
   12.1494   57.2008   81.2338 C   0  0  0  0  0  0  0  0  0  0  0  0
   12.5113   54.2266   84.7764 O   0  0  0  0  0  0  0  0  0  0  0  0
   13.1797   54.8527   83.7673 C   0  0  0  0  0  0  0  0  0  0  0  0
   15.2283   56.9150   80.7353 C   0  0  0  0  0  0  0  0  0  0  0  0
   15.2175   55.5564   82.7781 C   0  0  0  0  0  0  0  0  0  0  0  0
    9.5320   55.5837   80.9967 O   0  0  0  0  0  0  0  0  0  0  0  0
   10.6588   56.5112   81.6208 C   0  0  0  0  0  0  0  0  0  0  0  0
   11.8064   58.4307   80.6903 C   0  0  0  0  0  0  0  0  0  0  0  0
   14.5487   54.8528   83.8017 N   0  0  0  0  0  0  0  0  0  0  0  0
   10.3933   58.7853   80.8222 C   0  0  0  0  0  0  0  0  0  0  0  0
   10.3117   54.8968   83.3865 O   0  0  0  0  0  0  0  0  0  0  0  0
   12.5752   59.3335   79.9598 N   0  0  0  0  0  0  0  0  0  0  0  0
   12.0636   60.5778   79.4202 C   0  0  0  0  0  0  0  0  0  0  0  0
   14.3015   57.5231   79.8208 C   0  0  0  0  0  0  0  0  0  0  0  0
   11.0869   55.5028   82.7042 C   0  0  0  0  0  0  0  0  0  0  0  0
   12.4921   55.5019   82.7657 C   0  0  0  0  0  0  0  0  0  0  0  0
   13.7755   58.7831   79.5067 C   0  0  0  0  0  0  0  0  0  0  0  0
   12.3887   61.7775   80.2944 C   0  0  0  0  0  0  0  0  0  0  0  0
   13.1422   56.3814   81.8387 C   0  0  0  0  0  0  0  0  0  0  0  0
   14.5525   56.2651   81.8188 C   0  0  0  0  0  0  0  0  0  0  0  0
   16.4568   57.2559   80.6293 N   0  0  0  0  0  0  0  0  0  0  0  0
  1  9  1  0
  1 12  1  0
  2 19  2  0
  3  9  1  0
  3 10  1  0
  3 21  1  0
  4  5  2  0
  5 11  1  0
  5 18  1  0
  6 16  1  0
  6 22  1  0
  6 23  2  0
  7 11  1  0
  7 22  2  0
  8  9  1  0
  9 17  1  0
 10 12  1  0
 10 14  1  0
 13 17  2  0
 14 15  1  0
 14 19  1  0
 15 20  1  0
 16 19  1  0
 17 18  1  0
 18 21  1  0
 21 22  1  0
M  END
>  <ID>  (1) 
conformer_0

$$$$
