
     RDKit          3D

 15 15  0  0  0  0  0  0  0  0999 V2000
   15.9944   57.7530   79.7787 C   0  0  0  0  0  0  0  0  0  0  0  0
   12.7528   60.7479   81.6037 O   0  0  0  0  0  1  0  0  0  0  0  0
   13.2841   58.1135   80.2725 C   0  0  0  0  0  0  0  0  0  0  0  0
   15.2918   58.6923   79.0906 C   0  0  0  0  0  0  0  0  0  0  0  0
   13.3050   56.2827   81.9461 C   0  0  0  0  0  0  0  0  0  0  0  0
   13.9314   58.8819   79.3315 C   0  0  0  0  0  0  0  0  0  0  0  0
   13.8662   55.9502   83.0851 O   0  0  0  0  0  0  0  0  0  0  0  0
   13.9708   57.1174   80.9738 C   0  0  0  0  0  0  0  0  0  0  0  0
   16.1045   56.1253   81.4596 O   0  0  0  0  0  0  0  0  0  0  0  0
   15.3484   56.9668   80.7499 C   0  0  0  0  0  0  0  0  0  0  0  0
   10.7781   60.7142   79.9416 O   0  0  0  0  0  0  0  0  0  0  0  0
   11.8279   58.3124   80.6364 C   0  0  0  0  0  0  0  0  0  0  0  0
   10.7768   57.6476   79.7456 C   0  0  0  0  0  0  0  0  0  0  0  0
   10.5044   59.7537   82.3924 O   0  0  0  0  0  0  0  0  0  0  0  0
   11.4504   59.9070   81.1531 P   0  0  0  0  0  4  0  0  0  0  0  0
  1  4  2  0
  1 10  1  0
  2 15  2  0
  3  6  2  0
  3  8  1  0
  3 12  1  0
  4  6  1  0
  5  7  1  0
  5  8  1  0
  8 10  2  0
  9 10  1  0
 11 15  1  0
 12 13  1  0
 12 15  1  0
 14 15  1  0
M  END
>  <ID>  (1) 
conformer_0

$$$$
