
     RDKit          3D

 15 16  0  0  0  0  0  0  0  0999 V2000
   15.6984   56.8123   83.7370 O   0  0  0  0  0  0  0  0  0  0  0  0
   14.6911   58.5381   79.3741 C   0  0  0  0  0  0  0  0  0  0  0  0
   11.5848   59.1256   79.2774 C   0  0  0  0  0  0  0  0  0  0  0  0
   13.4437   60.0575   78.2708 O   0  0  0  0  0  0  0  0  0  0  0  0
   13.2242   55.5768   81.5715 O   0  0  0  0  0  0  0  0  0  0  0  0
   12.5901   58.9753   81.6839 O   0  0  0  0  0  0  0  0  0  0  0  0
   14.1958   55.2124   82.5914 C   0  0  0  0  0  0  0  0  0  0  0  0
   11.2469   60.4145   79.6217 O   0  0  0  0  0  0  0  0  0  0  0  0
   13.7851   54.9016   83.8096 O   0  0  0  0  0  0  0  0  0  0  0  0
   15.2755   56.2471   82.5019 C   0  0  0  0  0  0  0  0  0  0  0  0
   12.6915   58.1686   80.5796 C   0  0  0  0  0  0  0  0  0  0  0  0
   14.6991   57.3450   81.6263 C   0  0  0  0  0  0  0  0  0  0  0  0
   15.3052   58.0399   80.5738 O   0  0  0  0  0  0  0  0  0  0  0  0
   13.4170   56.8627   80.9121 C   0  0  0  0  0  0  0  0  0  0  0  0
   13.1874   58.9914   79.3235 C   0  0  0  0  0  0  0  0  0  0  0  0
  1 10  1  0
  2 13  1  0
  2 15  1  0
  3  8  1  0
  3 15  1  0
  4 15  1  0
  5  7  1  0
  5 14  1  0
  6 11  1  0
  7  9  1  0
  7 10  1  0
 10 12  1  0
 11 14  1  0
 11 15  1  0
 12 13  1  0
 12 14  1  0
M  END
>  <ID>  (1) 
conformer_0

$$$$
