
     RDKit          3D

 19 21  0  0  0  0  0  0  0  0999 V2000
   10.8125   59.4957   79.4971 O   0  0  0  0  0  0  0  0  0  0  0  0
   13.4700   60.1272   77.9066 O   0  0  0  0  0  0  0  0  0  0  0  0
   14.4767   57.9326   79.6893 C   0  0  0  0  0  0  0  0  0  0  0  0
   14.2838   59.3931   79.9534 C   0  0  0  0  0  0  0  0  0  0  0  0
   16.4493   57.3099   81.6061 O   0  0  0  0  0  0  0  0  0  0  0  0
   15.2865   56.8384   81.8105 C   0  0  0  0  0  0  0  0  0  0  0  0
   14.2828   57.1230   80.9065 N   0  0  0  0  0  0  0  0  0  0  0  0
   12.9701   56.7625   81.1784 C   0  0  0  0  0  0  0  0  0  0  0  0
   12.0307   58.7248   79.3361 C   0  0  0  0  0  0  0  0  0  0  0  0
   14.9910   56.0952   82.9850 C   0  0  0  0  0  0  0  0  0  0  0  0
   11.1160   60.7300   80.2334 C   0  0  0  0  0  0  0  0  0  0  0  0
   12.0044   57.5468   80.3147 C   0  0  0  0  0  0  0  0  0  0  0  0
   13.1286   62.1735   79.9246 O   0  0  0  0  0  0  0  0  0  0  0  0
   13.0675   59.8539   79.1793 C   0  0  0  0  0  0  0  0  0  0  0  0
   15.9837   55.9116   84.0066 C   0  0  0  0  0  0  0  0  0  0  0  0
   12.7610   55.9263   82.2209 C   0  0  0  0  0  0  0  0  0  0  0  0
   13.7500   55.5935   83.1135 N   0  0  0  0  0  0  0  0  0  0  0  0
   12.4773   61.0587   79.8806 C   0  0  0  0  0  0  0  0  0  0  0  0
   10.7389   57.2431   80.6026 O   0  0  0  0  0  0  0  0  0  0  0  0
  1  9  1  0
  1 11  1  0
  2 14  1  0
  3  4  1  0
  3  7  1  0
  4 14  1  0
  5  6  2  0
  6  7  1  0
  6 10  1  0
  7  8  1  0
  8 12  2  0
  8 16  1  0
  9 12  1  0
  9 14  1  0
 10 15  1  0
 10 17  2  0
 11 18  1  0
 12 19  1  0
 13 18  1  0
 14 18  1  0
 16 17  1  0
M  END
>  <ID>  (1) 
conformer_0

$$$$
