
     RDKit          3D

 23 24  0  0  0  0  0  0  0  0999 V2000
   17.4169   57.0779   80.2129 O   0  0  0  0  0  0  0  0  0  0  0  0
   14.4687   54.5682   83.8989 C   0  0  0  0  0  0  0  0  0  0  0  0
   15.7794   56.8379   82.8418 O   0  0  0  0  0  0  0  0  0  0  0  0
   13.9820   60.9998   80.5017 C   0  0  0  0  0  0  0  0  0  0  0  0
   10.0450   58.5985   81.4074 O   0  0  0  0  0  0  0  0  0  0  0  0
   10.9719   58.2609   80.3786 C   0  0  0  0  0  0  0  0  0  0  0  0
   14.0777   55.3055   82.7853 C   0  0  0  0  0  0  0  0  0  0  0  0
   12.2682   54.2674   83.6323 N   0  0  0  0  0  0  0  0  0  0  0  0
   13.1590   58.9832   79.2709 C   0  0  0  0  0  0  0  0  0  0  0  0
   12.7523   60.4819   81.2147 C   0  0  0  0  0  0  0  0  0  0  0  0
   12.9484   59.6386   78.0256 O   0  0  0  0  0  0  0  0  0  0  0  0
   15.1955   56.3497   80.6185 C   0  0  0  0  0  0  0  0  0  0  0  0
   10.5472   58.2761   79.0338 O   0  0  0  0  0  0  0  0  0  0  0  0
   12.1039   60.9105   82.3095 O   0  0  0  0  0  0  0  0  0  0  0  0
   14.9735   56.1591   82.0994 C   0  0  0  0  0  0  0  0  0  0  0  0
   14.5326   59.7225   79.7687 C   0  0  0  0  0  0  0  0  0  0  0  0
   15.9763   57.5792   80.0524 C   0  0  0  0  0  0  0  0  0  0  0  0
   11.2966   56.6819   80.6723 C   0  0  0  0  0  0  0  0  0  0  0  0
   13.3791   53.9433   84.3767 C   0  0  0  0  0  0  0  0  0  0  0  0
   12.0956   59.4056   80.3664 C   0  0  0  0  0  0  0  0  0  0  0  0
   14.8381   58.7747   80.8386 O   0  0  0  0  0  0  0  0  0  0  0  0
   12.6893   55.0880   82.6208 C   0  0  0  0  0  0  0  0  0  0  0  0
   11.6784   55.5682   81.6666 C   0  0  0  0  0  0  0  0  0  0  0  0
  1 17  1  0
  2  7  1  0
  2 19  1  0
  3 15  1  0
  4 10  1  0
  4 16  1  0
  5  6  1  0
  6 13  1  0
  6 18  1  0
  6 20  1  0
  7 15  1  0
  7 22  2  0
  8 19  1  0
  8 22  1  0
  9 11  1  0
  9 16  1  0
  9 20  1  0
 10 14  1  0
 10 20  1  0
 12 15  1  0
 12 17  1  0
 16 21  1  0
 18 23  1  0
 22 23  1  0
M  END
>  <ID>  (1) 
conformer_0

$$$$
