
     RDKit          3D

 30 33  0  0  0  0  0  0  0  0999 V2000
   15.7642   56.3153   82.8165 C   0  0  0  0  0  0  0  0  0  0  0  0
   10.0106   58.5825   79.2566 C   0  0  0  0  0  0  0  0  0  0  0  0
    9.1342   54.2480   80.8273 N   0  0  0  0  0  0  0  0  0  0  0  0
   11.3826   60.2013   80.5804 N   0  0  0  0  0  0  0  0  0  0  0  0
   13.4595   61.2872   79.3466 S   0  0  0  0  0  4  0  0  0  0  0  0
   15.2423   56.4788   81.5602 C   0  0  0  0  0  0  0  0  0  0  0  0
   15.4082   59.2157   79.2478 C   0  0  0  0  0  0  0  0  0  0  0  0
   14.1492   55.9445   81.1335 C   0  0  0  0  0  0  0  0  0  0  0  0
   10.4309   58.2264   81.6817 C   0  0  0  0  0  0  0  0  0  0  0  0
   15.9037   57.9846   79.7336 C   0  0  0  0  0  0  0  0  0  0  0  0
   18.0976   58.5429   78.9680 C   0  0  0  0  0  0  0  0  0  0  0  0
   11.1893   54.9806   81.3093 N   0  0  0  0  0  0  0  0  0  0  0  0
   13.9393   54.7799   83.2948 C   0  0  0  0  0  0  0  0  0  0  0  0
   16.2903   60.0631   78.6171 C   0  0  0  0  0  0  0  0  0  0  0  0
   12.5687   62.0124   78.3292 O   0  0  0  0  0  1  0  0  0  0  0  0
   15.1450   55.3495   83.6719 C   0  0  0  0  0  0  0  0  0  0  0  0
   17.6142   59.7603   78.4926 C   0  0  0  0  0  0  0  0  0  0  0  0
   15.1931   57.0269   80.4350 O   0  0  0  0  0  0  0  0  0  0  0  0
   10.2495   59.9980   79.6555 C   0  0  0  0  0  0  0  0  0  0  0  0
   12.8876   61.3028   82.1016 N   0  0  0  0  0  0  0  0  0  0  0  0
   12.3841   61.2625   80.7570 C   0  0  0  0  0  0  0  0  0  0  0  0
   11.0826   59.5303   81.8831 C   0  0  0  0  0  0  0  0  0  0  0  0
   17.2457   57.6547   79.5640 C   0  0  0  0  0  0  0  0  0  0  0  0
   14.5089   62.1568   79.4970 O   0  0  0  0  0  1  0  0  0  0  0  0
   14.0469   59.7164   79.3351 N   0  0  0  0  0  0  0  0  0  0  0  0
   13.4639   55.1150   82.0495 C   0  0  0  0  0  0  0  0  0  0  0  0
   12.2485   54.6499   81.6690 C   0  0  0  0  0  0  0  0  0  0  0  0
   10.0969   57.6316   80.3802 C   0  0  0  0  0  0  0  0  0  0  0  0
   10.0263   55.2090   80.7938 C   0  0  0  0  0  0  0  0  0  0  0  0
    9.7182   56.3692   80.1807 N   0  0  0  0  0  0  0  0  0  0  0  0
  1  6  2  0
  1 16  1  0
  2 19  1  0
  2 28  1  0
  3 29  2  0
  4 19  1  0
  4 21  1  0
  4 22  1  0
  5 15  1  0
  5 21  1  0
  5 24  1  0
  5 25  1  0
  6  8  1  0
  6 18  1  0
  7 10  2  0
  7 14  1  0
  7 25  1  0
  8 26  2  0
  9 22  1  0
  9 28  1  0
 10 18  1  0
 10 23  1  0
 11 17  1  0
 11 23  2  0
 12 27  1  0
 12 29  1  0
 13 16  2  0
 13 26  1  0
 14 17  2  0
 20 21  1  0
 26 27  1  0
 28 30  1  0
 29 30  1  0
M  END
>  <ID>  (1) 
conformer_0

$$$$
