
     RDKit          3D

 27 31  0  0  0  0  0  0  0  0999 V2000
   10.4988   59.2540   80.8060 C   0  0  0  0  0  0  0  0  0  0  0  0
   13.4230   57.3218   80.3437 C   0  0  0  0  0  0  0  0  0  0  0  0
    9.5670   61.8104   80.9191 C   0  0  0  0  0  0  0  0  0  0  0  0
   12.7279   56.1274   80.7281 C   0  0  0  0  0  0  0  0  0  0  0  0
   15.4513   58.7210   78.8941 C   0  0  0  0  0  0  0  0  0  0  0  0
   13.3276   59.9491   78.5664 C   0  0  0  0  0  0  0  0  0  0  0  0
   15.2396   56.5038   81.8458 C   0  0  0  0  0  0  0  0  0  0  0  0
   14.8075   57.3625   80.8167 C   0  0  0  0  0  0  0  0  0  0  0  0
   15.9742   57.8281   80.0069 C   0  0  0  0  0  0  0  0  0  0  0  0
   12.3214   54.6662   82.8820 C   0  0  0  0  0  0  0  0  0  0  0  0
   14.4333   60.3805   80.6342 O   0  0  0  0  0  0  0  0  0  0  0  0
   15.5677   55.2194   84.3344 N   0  0  0  0  0  0  0  0  0  0  0  0
   13.3404   61.1303   77.9379 N   0  0  0  0  0  0  0  0  0  0  0  0
   17.0454   58.5316   80.5487 O   0  0  0  0  0  0  0  0  0  0  0  0
   14.4122   54.9946   83.6222 N   0  0  0  0  0  0  0  0  0  0  0  0
   14.3333   55.6736   82.4169 C   0  0  0  0  0  0  0  0  0  0  0  0
   13.2567   54.3760   83.8173 N   0  0  0  0  0  0  0  0  0  0  0  0
   14.4898   59.6989   79.4691 C   0  0  0  0  0  0  0  0  0  0  0  0
   11.1226   54.4601   82.9498 O   0  0  0  0  0  0  0  0  0  0  0  0
   10.9483   60.1580   79.8613 C   0  0  0  0  0  0  0  0  0  0  0  0
   11.0143   57.9205   80.4961 C   0  0  0  0  0  0  0  0  0  0  0  0
   12.3415   58.2235   79.7929 C   0  0  0  0  0  0  0  0  0  0  0  0
   13.0127   55.5141   81.9431 C   0  0  0  0  0  0  0  0  0  0  0  0
    9.7651   59.6400   81.8976 C   0  0  0  0  0  0  0  0  0  0  0  0
   10.3817   61.4099   79.8568 C   0  0  0  0  0  0  0  0  0  0  0  0
    9.3034   60.9240   81.9439 C   0  0  0  0  0  0  0  0  0  0  0  0
   12.0353   59.5843   79.1257 C   0  0  0  0  0  0  0  0  0  0  0  0
  1 20  1  0
  1 21  1  0
  1 24  1  0
  2  4  1  0
  2  8  1  0
  2 22  1  0
  3 25  1  0
  3 26  1  0
  4 23  1  0
  5  9  1  0
  5 18  1  0
  6 13  1  0
  6 18  1  0
  6 27  1  0
  7  8  1  0
  7 16  2  0
  8  9  1  0
  9 14  1  0
 10 17  1  0
 10 19  2  0
 10 23  1  0
 11 18  1  0
 12 15  1  0
 15 16  1  0
 15 17  1  0
 16 23  1  0
 20 25  2  0
 20 27  1  0
 21 22  1  0
 22 27  1  0
 24 26  2  0
M  END
>  <ID>  (1) 
conformer_0

$$$$
