
     RDKit          3D

 17 17  0  0  0  0  0  0  0  0999 V2000
   12.2781   59.8706   80.4772 O   0  0  0  0  0  0  0  0  0  0  0  0
   14.2464   56.7159   80.3925 C   0  0  0  0  0  0  0  0  0  0  0  0
   11.8482   57.0001   80.5028 C   0  0  0  0  0  0  0  0  0  0  0  0
   14.9883   54.6376   84.3696 N   0  0  0  0  0  0  0  0  0  0  0  0
   14.6475   59.4988   79.9285 C   0  0  0  0  0  0  0  0  0  0  0  0
    9.7268   57.7524   79.8298 O   0  0  0  0  0  0  0  0  0  0  0  0
   10.8911   59.6205   82.3924 O   0  0  0  0  0  0  0  0  0  0  0  0
   13.2438   58.9435   80.0299 C   0  0  0  0  0  0  0  0  0  0  0  0
   11.5687   55.7503   81.2841 C   0  0  0  0  0  0  0  0  0  0  0  0
   14.6663   60.8982   80.3579 C   0  0  0  0  0  0  0  0  0  0  0  0
   15.5338   56.1985   82.6500 C   0  0  0  0  0  0  0  0  0  0  0  0
   11.1767   59.3051   81.1138 C   0  0  0  0  0  0  0  0  0  0  0  0
   14.6447   55.1045   83.0882 C   0  0  0  0  0  0  0  0  0  0  0  0
   13.1503   57.6024   80.5234 N   0  0  0  0  0  0  0  0  0  0  0  0
   15.9080   58.8615   79.4021 C   0  0  0  0  0  0  0  0  0  0  0  0
   15.4779   56.5500   81.2038 C   0  0  0  0  0  0  0  0  0  0  0  0
   10.7389   57.9773   80.6721 C   0  0  0  0  0  0  0  0  0  0  0  0
  1  8  1  0
  1 12  1  0
  2 14  1  0
  2 16  1  0
  3  9  1  0
  3 14  1  0
  3 17  1  0
  4 13  1  0
  5  8  1  0
  5 10  1  0
  5 15  1  0
  6 17  1  0
  7 12  2  0
  8 14  1  0
 11 13  1  0
 11 16  1  0
 12 17  1  0
M  END
>  <ID>  (1) 
conformer_0

$$$$
