
     RDKit          3D

 29 31  0  0  0  0  0  0  0  0999 V2000
   10.9130   58.3012   80.0791 O   0  0  0  0  0  0  0  0  0  0  0  0
   18.2124   59.6821   77.8120 C   0  0  0  0  0  0  0  0  0  0  0  0
   11.9087   59.2218   80.4593 C   0  0  0  0  0  0  0  0  0  0  0  0
   15.6317   57.7472   79.5309 N   0  0  0  0  0  0  0  0  0  0  0  0
   10.3724   58.0005   82.5339 O   0  0  0  0  0  1  0  0  0  0  0  0
   14.1191   56.5421   80.9583 N   0  0  0  0  0  0  0  0  0  0  0  0
   17.6943   58.7459   78.7900 C   0  0  0  0  0  0  0  0  0  0  0  0
   13.9559   61.1226   80.6050 C   0  0  0  0  0  0  0  0  0  0  0  0
   15.4332   56.8406   80.5119 C   0  0  0  0  0  0  0  0  0  0  0  0
   16.3576   56.2177   80.9178 O   0  0  0  0  0  0  0  0  0  0  0  0
   15.9333   56.9102   84.0229 C   0  0  0  0  0  0  0  0  0  0  0  0
   13.2567   57.3090   80.1078 C   0  0  0  0  0  0  0  0  0  0  0  0
   12.7198   61.4199   81.1661 C   0  0  0  0  0  0  0  0  0  0  0  0
    9.7318   57.9328   81.1086 P   0  0  0  0  0  4  0  0  0  0  0  0
   13.2272   58.8131   80.1733 C   0  0  0  0  0  0  0  0  0  0  0  0
   16.4305   58.9703   79.4026 C   0  0  0  0  0  0  0  0  0  0  0  0
   17.7070   60.9449   77.8444 O   0  0  0  0  0  0  0  0  0  0  0  0
   14.2264   59.9145   79.9701 C   0  0  0  0  0  0  0  0  0  0  0  0
   15.5209   60.0644   79.1212 C   0  0  0  0  0  0  0  0  0  0  0  0
   12.2937   53.5789   84.5371 C   0  0  0  0  0  0  0  0  0  0  0  0
   14.3037   54.9452   84.3172 N   0  0  0  0  0  0  0  0  0  0  0  0
    9.0685   56.5538   80.9165 O   0  0  0  0  0  0  0  0  0  0  0  0
   14.1021   55.8502   82.2335 N   0  0  0  0  0  0  0  0  0  0  0  0
   18.4918   57.7415   79.2869 O   0  0  0  0  0  0  0  0  0  0  0  0
   14.7956   55.9014   83.4421 C   0  0  0  0  0  0  0  0  0  0  0  0
   13.1577   54.7321   82.3122 C   0  0  0  0  0  0  0  0  0  0  0  0
   11.6946   60.4869   81.0807 C   0  0  0  0  0  0  0  0  0  0  0  0
    8.6620   59.0071   80.7373 O   0  0  0  0  0  0  0  0  0  0  0  0
   13.3143   54.1411   83.6397 C   0  0  0  0  0  0  0  0  0  0  0  0
  1  3  1  0
  1 14  1  0
  2  7  1  0
  2 17  1  0
  3 15  1  0
  3 27  1  0
  4  9  1  0
  4 16  1  0
  5 14  2  0
  6  9  1  0
  6 12  1  0
  6 23  1  0
  7 16  1  0
  7 24  1  0
  8 13  1  0
  8 18  2  0
  9 10  2  0
 11 25  1  0
 12 15  1  0
 13 27  2  0
 14 22  1  0
 14 28  1  0
 15 18  1  0
 16 19  1  0
 18 19  1  0
 20 29  1  0
 21 25  2  0
 21 29  1  0
 23 25  1  0
 23 26  1  0
 26 29  1  0
M  END
>  <ID>  (1) 
conformer_0

$$$$
