
     RDKit          3D

 16 16  0  0  0  0  0  0  0  0999 V2000
   12.1632   58.5094   79.5374 C   0  0  0  0  0  0  0  0  0  0  0  0
   11.6740   59.3843   81.9850 O   0  0  0  0  0  0  0  0  0  0  0  0
   10.7586   58.5775   81.6021 C   0  0  0  0  0  0  0  0  0  0  0  0
   10.8690   57.9378   80.1889 C   0  0  0  0  0  0  0  0  0  0  0  0
    9.5571   58.4948   82.0311 O   0  0  0  0  0  0  0  0  0  0  0  0
   15.4066   56.3494   81.9222 C   0  0  0  0  0  0  0  0  0  0  0  0
   13.1922   56.7877   81.0311 O   0  0  0  0  0  0  0  0  0  0  0  0
   14.2662   55.8104   81.0468 C   0  0  0  0  0  0  0  0  0  0  0  0
   15.7231   57.7381   81.1198 S   0  0  0  0  0  0  0  0  0  0  0  0
   10.7107   56.5527   80.2092 O   0  0  0  0  0  0  0  0  0  0  0  0
   14.7549   58.0389   79.8773 C   0  0  0  0  0  0  0  0  0  0  0  0
   12.3416   59.8070   79.1383 O   0  0  0  0  0  0  0  0  0  0  0  0
   15.2049   55.9738   83.3812 C   0  0  0  0  0  0  0  0  0  0  0  0
   15.8593   56.6816   84.2629 N   0  0  0  0  0  0  0  0  0  0  0  0
   14.2429   55.2044   83.7062 O   0  0  0  0  0  0  0  0  0  0  0  0
   13.3264   57.8826   80.1798 C   0  0  0  0  0  0  0  0  0  0  0  0
  1  4  1  0
  1 12  1  0
  1 16  1  0
  2  3  2  0
  3  4  1  0
  3  5  1  0
  4 10  1  0
  6  8  1  0
  6  9  1  0
  6 13  1  0
  7  8  1  0
  7 16  1  0
  9 11  1  0
 11 16  1  0
 13 14  1  0
 13 15  2  0
M  END
>  <ID>  (1) 
conformer_0

$$$$
