
     RDKit          3D

 11 10  0  0  0  0  0  0  0  0999 V2000
   13.3109   57.7342   80.1546 C   0  0  0  0  0  0  0  0  0  0  0  0
   11.2054   59.1331   80.4025 C   0  0  0  0  0  0  0  0  0  0  0  0
   13.5470   60.2207   80.1996 C   0  0  0  0  0  0  0  0  0  0  0  0
   15.2537   57.0852   82.3403 O   0  0  0  0  0  0  0  0  0  0  0  0
   12.6446   59.0428   79.9388 C   0  0  0  0  0  0  0  0  0  0  0  0
   15.3901   55.9866   83.2442 C   0  0  0  0  0  0  0  0  0  0  0  0
   15.4444   56.6272   80.9734 C   0  0  0  0  0  0  0  0  0  0  0  0
   14.8265   57.6352   80.0136 C   0  0  0  0  0  0  0  0  0  0  0  0
   14.6681   60.1203   80.9364 O   0  0  0  0  0  0  0  0  0  0  0  0
   11.0249   59.7404   81.7114 C   0  0  0  0  0  0  0  0  0  0  0  0
   10.3799   58.3771   79.7476 O   0  0  0  0  0  0  0  0  0  0  0  0
  1  5  1  0
  1  8  1  0
  2  5  1  0
  2 10  1  0
  2 11  1  0
  3  5  1  0
  3  9  1  0
  4  6  1  0
  4  7  1  0
  7  8  1  0
M  END
>  <ID>  (1) 
conformer_0

$$$$
