
     RDKit          3D

 13 13  0  0  0  0  0  0  0  0999 V2000
   15.2220   59.2242   80.2725 O   0  0  0  0  0  0  0  0  0  0  0  0
   12.3051   57.7168   80.6485 C   0  0  0  0  0  0  0  0  0  0  0  0
   14.1471   56.1731   81.4458 C   0  0  0  0  0  0  0  0  0  0  0  0
   15.5930   56.2389   81.9284 C   0  0  0  0  0  0  0  0  0  0  0  0
   10.9375   59.8842   81.4474 O   0  0  0  0  0  0  0  0  0  0  0  0
   11.7912   60.7822   79.0871 O   0  0  0  0  0  0  0  0  0  0  0  0
   15.0397   57.9484   80.2226 C   0  0  0  0  0  0  0  0  0  0  0  0
   12.6016   59.9956   79.7802 C   0  0  0  0  0  0  0  0  0  0  0  0
   13.1464   55.1016   81.5826 C   0  0  0  0  0  0  0  0  0  0  0  0
   16.2363   57.0482   80.7369 C   0  0  0  0  0  0  0  0  0  0  0  0
   11.8657   59.1394   80.7907 C   0  0  0  0  0  0  0  0  0  0  0  0
   13.7821   57.3914   80.7363 C   0  0  0  0  0  0  0  0  0  0  0  0
   15.4573   55.7882   83.5838 S   0  0  0  0  0  0  0  0  0  0  0  0
  1  7  1  0
  2 11  1  0
  2 12  1  0
  3  4  1  0
  3  9  1  0
  3 12  1  0
  4 10  1  0
  4 13  1  0
  5 11  1  0
  6  8  1  0
  7 10  1  0
  7 12  1  0
  8 11  1  0
M  END
>  <ID>  (1) 
conformer_0

$$$$
