
     RDKit          3D

 16 16  0  0  0  0  0  0  0  0999 V2000
   10.3007   58.5409   78.8618 O   0  0  0  0  0  0  0  0  0  0  0  0
   12.4596   57.9195   80.1712 C   0  0  0  0  0  0  0  0  0  0  0  0
   16.6203   57.0802   82.0123 O   0  0  0  0  0  0  0  0  0  0  0  0
   15.4136   58.7097   80.2300 O   0  0  0  0  0  0  0  0  0  0  0  0
   14.6337   55.7434   82.2059 C   0  0  0  0  0  0  0  0  0  0  0  0
   10.0278   58.7550   80.2029 C   0  0  0  0  0  0  0  0  0  0  0  0
    9.5682   61.0532   79.7493 O   0  0  0  0  0  0  0  0  0  0  0  0
   14.8440   55.9103   83.5715 O   0  0  0  0  0  0  0  0  0  0  0  0
   14.8943   57.4141   80.4525 C   0  0  0  0  0  0  0  0  0  0  0  0
   15.6643   56.3966   81.3172 C   0  0  0  0  0  0  0  0  0  0  0  0
   11.5730   58.9473   82.1306 O   0  0  0  0  0  0  0  0  0  0  0  0
   13.3495   56.3803   81.8698 O   0  0  0  0  0  0  0  0  0  0  0  0
   11.2734   58.3393   80.9844 C   0  0  0  0  0  0  0  0  0  0  0  0
   13.5613   57.5998   81.1969 C   0  0  0  0  0  0  0  0  0  0  0  0
    8.6884   60.1977   81.6293 O   0  0  0  0  0  0  0  0  0  0  0  0
    9.4447   60.0669   80.5650 C   0  0  0  0  0  0  0  0  0  0  0  0
  1  6  1  0
  2 13  1  0
  2 14  1  0
  3 10  1  0
  4  9  1  0
  5  8  1  0
  5 10  1  0
  5 12  1  0
  6 13  1  0
  6 16  1  0
  7 16  2  0
  9 10  1  0
  9 14  1  0
 11 13  1  0
 12 14  1  0
 15 16  1  0
M  END
>  <ID>  (1) 
conformer_0

$$$$
