
     RDKit          3D

 23 26  0  0  0  0  0  0  0  0999 V2000
   11.5927   55.7186   80.9047 C   0  0  0  0  0  0  0  0  0  0  0  0
   15.9751   56.9156   81.2843 C   0  0  0  0  0  0  0  0  0  0  0  0
   15.9054   56.1766   82.4687 C   0  0  0  0  0  0  0  0  0  0  0  0
   10.2381   59.9722   81.3972 C   0  0  0  0  0  0  0  0  0  0  0  0
   11.0962   53.1094   81.6926 C   0  0  0  0  0  0  0  0  0  0  0  0
   11.5866   60.3539   81.9751 C   0  0  0  0  0  0  0  0  0  0  0  0
   12.4701   54.9851   81.6795 N   0  0  0  0  0  0  0  0  0  0  0  0
   13.3068   58.7980   79.0269 O   0  0  0  0  0  0  0  0  0  0  0  0
    9.1665   60.5488   82.0190 O   0  0  0  0  0  0  0  0  0  0  0  0
   10.1921   60.1604   79.9148 C   0  0  0  0  0  0  0  0  0  0  0  0
   12.6949   59.5686   81.3212 C   0  0  0  0  0  0  0  0  0  0  0  0
   14.8313   57.1919   80.5230 C   0  0  0  0  0  0  0  0  0  0  0  0
   11.4379   59.8629   79.3576 O   0  0  0  0  0  0  0  0  0  0  0  0
   13.5791   56.7680   80.9062 C   0  0  0  0  0  0  0  0  0  0  0  0
   12.2377   53.7160   82.0823 C   0  0  0  0  0  0  0  0  0  0  0  0
   10.2111   53.8856   80.9740 N   0  0  0  0  0  0  0  0  0  0  0  0
   14.6635   55.5861   82.7445 C   0  0  0  0  0  0  0  0  0  0  0  0
   14.5704   54.8374   83.9712 N   0  0  0  0  0  0  0  0  0  0  0  0
   10.4386   55.1868   80.5935 N   0  0  0  0  0  0  0  0  0  0  0  0
   13.6025   55.7175   81.8617 C   0  0  0  0  0  0  0  0  0  0  0  0
   12.2842   58.8110   80.0819 C   0  0  0  0  0  0  0  0  0  0  0  0
   13.8539   60.3459   81.3445 O   0  0  0  0  0  0  0  0  0  0  0  0
   12.1899   57.1133   80.4570 C   0  0  0  0  0  0  0  0  0  0  0  0
  1  7  1  0
  1 19  2  0
  1 23  1  0
  2  3  1  0
  2 12  2  0
  3 17  2  0
  4  6  1  0
  4  9  1  0
  4 10  1  0
  5 15  2  0
  5 16  1  0
  6 11  1  0
  7 15  1  0
  7 20  1  0
  8 21  1  0
 10 13  1  0
 11 21  1  0
 11 22  1  0
 12 14  1  0
 13 21  1  0
 14 20  1  0
 14 23  1  0
 16 19  1  0
 17 18  1  0
 17 20  1  0
 21 23  1  0
M  END
>  <ID>  (1) 
conformer_0

$$$$
