
     RDKit          3D

 18 20  0  0  0  0  0  0  0  0999 V2000
   11.7728   61.0028   81.7655 C   0  0  0  0  0  0  0  0  0  0  0  0
   12.4045   57.6012   80.1086 C   0  0  0  0  0  0  0  0  0  0  0  0
   14.6012   57.1113   80.7657 C   0  0  0  0  0  0  0  0  0  0  0  0
   10.4822   60.5602   81.2054 N   0  0  0  0  0  0  0  0  0  0  0  0
   14.7911   60.0628   78.9936 O   0  0  0  0  0  0  0  0  0  0  0  0
   15.6381   56.3388   83.2269 C   0  0  0  0  0  0  0  0  0  0  0  0
   10.7594   58.6821   78.8596 O   0  0  0  0  0  0  0  0  0  0  0  0
   12.5555   59.9128   79.5947 C   0  0  0  0  0  0  0  0  0  0  0  0
   11.8830   56.4713   80.6664 C   0  0  0  0  0  0  0  0  0  0  0  0
   10.6257   59.0572   81.1167 C   0  0  0  0  0  0  0  0  0  0  0  0
   11.5797   58.8155   79.9050 C   0  0  0  0  0  0  0  0  0  0  0  0
   13.8532   59.1666   79.2782 C   0  0  0  0  0  0  0  0  0  0  0  0
   14.1017   55.9427   81.3586 C   0  0  0  0  0  0  0  0  0  0  0  0
   15.7153   56.7789   84.4959 N   0  0  0  0  0  0  0  0  0  0  0  0
   13.7440   57.7803   79.8420 C   0  0  0  0  0  0  0  0  0  0  0  0
   14.4953   55.6096   82.7432 C   0  0  0  0  0  0  0  0  0  0  0  0
   12.7842   55.5365   81.0680 C   0  0  0  0  0  0  0  0  0  0  0  0
   12.8514   60.8648   80.7473 C   0  0  0  0  0  0  0  0  0  0  0  0
  1  4  1  0
  1 18  1  0
  2  9  2  0
  2 11  1  0
  2 15  1  0
  3 13  1  0
  3 15  1  0
  4 10  1  0
  5 12  1  0
  6 14  1  0
  6 16  1  0
  7 11  1  0
  8 11  1  0
  8 12  1  0
  8 18  1  0
  9 17  1  0
 10 11  1  0
 12 15  1  0
 13 16  1  0
 13 17  1  0
M  END
>  <ID>  (1) 
conformer_0

$$$$
