
     RDKit          3D

 27 29  0  0  0  0  0  0  0  0999 V2000
    9.4262   56.7831   79.9407 C   0  0  0  0  0  0  0  0  0  0  0  0
   14.9601   59.1740   78.7773 C   0  0  0  0  0  0  0  0  0  0  0  0
   10.3473   57.9969   81.9099 C   0  0  0  0  0  0  0  0  0  0  0  0
   11.9298   62.1557   81.8764 N   0  0  0  0  0  0  0  0  0  0  0  0
   15.6138   57.2184   80.7547 C   0  0  0  0  0  0  0  0  0  0  0  0
   11.0014   54.6891   80.7201 O   0  0  0  0  0  0  0  0  0  0  0  0
   16.2996   58.7316   78.9797 C   0  0  0  0  0  0  0  0  0  0  0  0
   13.4708   62.4038   79.9693 O   0  0  0  0  0  1  0  0  0  0  0  0
   15.4707   56.2973   82.0519 N   0  0  0  0  0  0  0  0  0  0  0  0
    8.5909   58.0692   80.1414 C   0  0  0  0  0  0  0  0  0  0  0  0
   16.6236   57.7696   79.9652 C   0  0  0  0  0  0  0  0  0  0  0  0
    9.1715   58.8372   81.3700 C   0  0  0  0  0  0  0  0  0  0  0  0
   13.4098   56.6864   81.0689 C   0  0  0  0  0  0  0  0  0  0  0  0
   14.0983   55.9989   82.0196 C   0  0  0  0  0  0  0  0  0  0  0  0
   10.9962   55.6686   81.4607 C   0  0  0  0  0  0  0  0  0  0  0  0
   14.1040   61.0236   81.7881 O   0  0  0  0  0  1  0  0  0  0  0  0
   11.4357   58.0847   79.7734 C   0  0  0  0  0  0  0  0  0  0  0  0
   14.2989   57.5318   80.3848 C   0  0  0  0  0  0  0  0  0  0  0  0
   10.7346   57.0295   80.7522 N   0  0  0  0  0  0  0  0  0  0  0  0
   13.7538   55.0614   82.9373 N   0  0  0  0  0  0  0  0  0  0  0  0
   14.7955   54.8083   83.7508 C   0  0  0  0  0  0  0  0  0  0  0  0
   12.3224   60.3156   80.2259 N   0  0  0  0  0  0  0  0  0  0  0  0
   13.0140   61.4391   80.9352 S   0  0  0  0  0  4  0  0  0  0  0  0
   12.5704   59.0971   79.5352 C   0  0  0  0  0  0  0  0  0  0  0  0
   15.8109   55.5443   83.3319 N   0  0  0  0  0  0  0  0  0  0  0  0
   13.9540   58.6058   79.5583 C   0  0  0  0  0  0  0  0  0  0  0  0
   10.8519   55.5996   82.6977 O   0  0  0  0  0  0  0  0  0  0  0  0
  1 10  1  0
  2  7  1  0
  2 26  2  0
  3 12  1  0
  3 19  1  0
  4 23  1  0
  5  9  1  0
  5 11  2  0
  5 18  1  0
  6 15  2  0
  7 11  1  0
  8 23  1  0
  9 14  1  0
  9 25  1  0
 10 12  1  0
 13 14  1  0
 13 18  1  0
 14 20  2  0
 15 19  1  0
 15 27  1  0
 16 23  1  0
 17 19  1  0
 17 24  1  0
 18 26  1  0
 20 21  1  0
 21 25  1  0
 22 23  1  0
 22 24  1  0
 24 26  1  0
M  END
>  <ID>  (1) 
conformer_0

$$$$
