
     RDKit          3D

 25 29  0  0  0  0  0  0  0  0999 V2000
   11.0706   59.4894   80.0694 C   0  0  0  0  0  0  0  0  0  0  0  0
    8.9123   56.4435   79.9824 C   0  0  0  0  0  0  0  0  0  0  0  0
   15.6691   55.8341   83.0328 C   0  0  0  0  0  0  0  0  0  0  0  0
   13.2086   58.0100   79.8496 O   0  0  0  0  0  0  0  0  0  0  0  0
   13.6543   56.1520   81.8515 N   0  0  0  0  0  0  0  0  0  0  0  0
   13.1436   53.5345   84.2413 O   0  0  0  0  0  0  0  0  0  0  0  0
   14.9450   56.4971   82.0121 C   0  0  0  0  0  0  0  0  0  0  0  0
   15.0394   54.8245   83.7892 C   0  0  0  0  0  0  0  0  0  0  0  0
   10.5573   55.3114   81.5471 C   0  0  0  0  0  0  0  0  0  0  0  0
   13.7091   54.5154   83.5901 C   0  0  0  0  0  0  0  0  0  0  0  0
   12.9558   55.3035   82.6799 N   0  0  0  0  0  0  0  0  0  0  0  0
   12.4410   59.2203   79.4675 C   0  0  0  0  0  0  0  0  0  0  0  0
    9.7159   56.6284   81.3070 C   0  0  0  0  0  0  0  0  0  0  0  0
   10.8845   58.5322   82.2395 O   0  0  0  0  0  0  0  0  0  0  0  0
   17.3480   57.9984   79.3823 C   0  0  0  0  0  0  0  0  0  0  0  0
    9.2341   57.8874   79.5228 C   0  0  0  0  0  0  0  0  0  0  0  0
   16.5496   59.3466   79.1410 C   0  0  0  0  0  0  0  0  0  0  0  0
   11.4570   55.2600   82.7856 C   0  0  0  0  0  0  0  0  0  0  0  0
   10.6632   60.7433   80.4178 O   0  0  0  0  0  0  0  0  0  0  0  0
   15.5763   57.5714   81.1053 C   0  0  0  0  0  0  0  0  0  0  0  0
   13.5788   60.1729   79.0517 C   0  0  0  0  0  0  0  0  0  0  0  0
   10.2472   58.2468   80.8085 C   0  0  0  0  0  0  0  0  0  0  0  0
   14.9547   59.4606   79.2744 C   0  0  0  0  0  0  0  0  0  0  0  0
   16.6243   56.8483   80.1722 C   0  0  0  0  0  0  0  0  0  0  0  0
   14.6023   58.2402   80.1726 C   0  0  0  0  0  0  0  0  0  0  0  0
  1 12  1  0
  1 19  1  0
  1 22  1  0
  2 13  1  0
  2 16  1  0
  3  7  1  0
  3  8  2  0
  4 12  1  0
  4 25  1  0
  5  7  2  0
  5 11  1  0
  6 10  2  0
  7 20  1  0
  8 10  1  0
  9 13  1  0
  9 18  1  0
 10 11  1  0
 11 18  1  0
 12 21  1  0
 13 22  1  0
 14 22  1  0
 15 17  1  0
 15 24  1  0
 16 22  1  0
 17 23  1  0
 20 24  1  0
 20 25  1  0
 21 23  1  0
 23 25  1  0
M  END
>  <ID>  (1) 
conformer_0

$$$$
