
     RDKit          3D

 34 38  0  0  0  0  0  0  0  0999 V2000
   14.1038   55.2691   82.6258 C   0  0  0  0  0  0  0  0  0  0  0  0
   12.7478   54.7866   82.3643 C   0  0  0  0  0  0  0  0  0  0  0  0
    8.1121   58.3237   81.9864 O   0  0  0  0  0  0  0  0  0  0  0  0
    9.4495   57.7990   80.1191 C   0  0  0  0  0  0  0  0  0  0  0  0
   13.4976   57.3791   79.7643 O   0  0  0  0  0  0  0  0  0  0  0  0
   10.2283   60.6007   82.2663 C   0  0  0  0  0  0  0  0  0  0  0  0
    9.7513   57.9775   78.8982 O   0  0  0  0  0  0  0  0  0  0  0  0
   18.2091   59.2153   79.3193 C   0  0  0  0  0  0  0  0  0  0  0  0
   12.1704   61.9138   81.3160 C   0  0  0  0  0  0  0  0  0  0  0  0
   14.0886   61.8889   79.8668 C   0  0  0  0  0  0  0  0  0  0  0  0
   15.8328   59.9441   78.9576 C   0  0  0  0  0  0  0  0  0  0  0  0
   16.7681   58.9577   79.2908 C   0  0  0  0  0  0  0  0  0  0  0  0
   15.8084   56.3530   83.8925 C   0  0  0  0  0  0  0  0  0  0  0  0
    9.7674   62.8761   82.4248 O   0  0  0  0  0  0  0  0  0  0  0  0
   13.4172   60.5864   79.5974 C   0  0  0  0  0  0  0  0  0  0  0  0
   10.4633   60.7626   79.9389 C   0  0  0  0  0  0  0  0  0  0  0  0
   16.0558   57.8005   79.6490 C   0  0  0  0  0  0  0  0  0  0  0  0
   14.3575   56.2360   81.6544 C   0  0  0  0  0  0  0  0  0  0  0  0
   16.7612   56.6290   80.1247 C   0  0  0  0  0  0  0  0  0  0  0  0
   10.8687   55.6722   80.8470 C   0  0  0  0  0  0  0  0  0  0  0  0
   12.0085   60.9351   80.1588 C   0  0  0  0  0  0  0  0  0  0  0  0
   14.6832   58.0562   79.5352 N   0  0  0  0  0  0  0  0  0  0  0  0
   15.0105   55.0849   83.6778 O   0  0  0  0  0  0  0  0  0  0  0  0
   10.0945   56.8361   80.9153 N   0  0  0  0  0  0  0  0  0  0  0  0
   13.2214   59.6463   78.5371 O   0  0  0  0  0  0  0  0  0  0  0  0
    7.4901   59.5436   80.0426 O   0  0  0  0  0  0  0  0  0  0  0  0
    8.6362   58.9718   80.7999 C   0  0  0  0  0  0  0  0  0  0  0  0
   14.4499   59.4726   79.1248 C   0  0  0  0  0  0  0  0  0  0  0  0
   12.2202   55.6054   81.2527 C   0  0  0  0  0  0  0  0  0  0  0  0
    9.5485   60.2284   81.0190 C   0  0  0  0  0  0  0  0  0  0  0  0
   13.6035   62.3431   81.1686 N   0  0  0  0  0  0  0  0  0  0  0  0
   10.8883   61.9776   82.2211 C   0  0  0  0  0  0  0  0  0  0  0  0
   13.3061   56.4598   80.7910 C   0  0  0  0  0  0  0  0  0  0  0  0
   10.6793   59.7062   83.1231 O   0  0  0  0  0  0  0  0  0  0  0  0
  1  2  1  0
  1 18  1  0
  1 23  1  0
  2 29  1  0
  3 27  1  0
  4  7  2  0
  4 24  1  0
  4 27  1  0
  5 22  1  0
  5 33  1  0
  6 30  1  0
  6 32  1  0
  6 34  1  0
  8 12  1  0
  9 21  1  0
  9 31  1  0
  9 32  1  0
 10 15  1  0
 10 31  1  0
 11 12  1  0
 11 28  1  0
 12 17  2  0
 13 23  1  0
 14 32  1  0
 15 21  1  0
 15 25  1  0
 16 21  1  0
 16 30  1  0
 17 19  1  0
 17 22  1  0
 18 33  1  0
 20 24  1  0
 20 29  1  0
 22 28  1  0
 25 28  1  0
 26 27  1  0
 27 30  1  0
 29 33  2  0
M  END
>  <ID>  (1) 
conformer_0

$$$$
