
     RDKit          3D

 23 24  0  0  0  0  0  0  0  0999 V2000
    8.8192   59.7264   82.0508 O   0  0  0  0  0  0  0  0  0  0  0  0
   11.7699   60.4260   79.6234 C   0  0  0  0  0  0  0  0  0  0  0  0
   12.6342   57.6153   79.9501 O   0  0  0  0  0  0  0  0  0  0  0  0
   14.6677   55.2388   83.1202 C   0  0  0  0  0  0  0  0  0  0  0  0
    9.8633   61.4199   80.9817 O   0  0  0  0  0  0  0  0  0  0  0  0
   14.1443   59.4703   78.8016 C   0  0  0  0  0  0  0  0  0  0  0  0
   15.4760   56.3386   83.4090 C   0  0  0  0  0  0  0  0  0  0  0  0
   11.5979   57.9712   80.8210 C   0  0  0  0  0  0  0  0  0  0  0  0
   13.9964   57.5684   80.3522 C   0  0  0  0  0  0  0  0  0  0  0  0
   10.7364   59.5826   79.1187 O   0  0  0  0  0  0  0  0  0  0  0  0
   13.0321   54.7185   81.3672 C   0  0  0  0  0  0  0  0  0  0  0  0
   16.0006   58.9347   80.1433 O   0  0  0  0  0  0  0  0  0  0  0  0
   16.0091   56.7049   84.5271 N   0  0  0  0  0  0  0  0  0  0  0  0
    9.4396   60.1448   81.0059 C   0  0  0  0  0  0  0  0  0  0  0  0
    9.8292   56.3641   80.4067 O   0  0  0  0  0  0  0  0  0  0  0  0
   10.1364   57.6953   80.3848 C   0  0  0  0  0  0  0  0  0  0  0  0
   14.1584   55.4258   81.7894 C   0  0  0  0  0  0  0  0  0  0  0  0
    9.5575   59.0548   79.9094 C   0  0  0  0  0  0  0  0  0  0  0  0
   11.7560   58.3751   82.0460 O   0  0  0  0  0  0  0  0  0  0  0  0
   15.4156   57.1571   82.2878 N   0  0  0  0  0  0  0  0  0  0  0  0
   13.2545   60.6265   79.3215 C   0  0  0  0  0  0  0  0  0  0  0  0
   14.4927   56.7089   81.3780 C   0  0  0  0  0  0  0  0  0  0  0  0
   14.7366   58.7260   79.9817 C   0  0  0  0  0  0  0  0  0  0  0  0
  1 14  2  0
  2 10  1  0
  2 21  1  0
  3  8  1  0
  3  9  1  0
  4  7  1  0
  4 17  1  0
  5 14  1  0
  6 21  1  0
  6 23  1  0
  7 13  2  0
  7 20  1  0
  8 16  1  0
  8 19  2  0
  9 22  1  0
  9 23  1  0
 10 18  1  0
 11 17  1  0
 12 23  1  0
 14 18  1  0
 15 16  1  0
 16 18  1  0
 17 22  2  0
 20 22  1  0
M  END
>  <ID>  (1) 
conformer_0

$$$$
