
     RDKit          3D

 31 33  0  0  0  0  0  0  0  0999 V2000
   15.5009   55.8915   82.5662 O   0  0  0  0  0  0  0  0  0  0  0  0
    9.4151   56.2638   80.4315 C   0  0  0  0  0  0  0  0  0  0  0  0
   13.3322   60.2496   80.0531 C   0  0  0  0  0  0  0  0  0  0  0  0
   13.0270   54.9416   81.3469 O   0  0  0  0  0  0  0  0  0  0  0  0
   13.3026   58.7583   79.7131 C   0  0  0  0  0  0  0  0  0  0  0  0
   15.9581   60.0911   79.0878 C   0  0  0  0  0  0  0  0  0  0  0  0
    9.5477   55.1951   83.5832 C   0  0  0  0  0  0  0  0  0  0  0  0
   13.4366   53.7123   84.6627 O   0  0  0  0  0  0  0  0  0  0  0  0
   11.1200   60.0520   80.8785 C   0  0  0  0  0  0  0  0  0  0  0  0
   15.8439   58.6051   79.3139 C   0  0  0  0  0  0  0  0  0  0  0  0
   14.6768   58.2641   79.9588 N   0  0  0  0  0  0  0  0  0  0  0  0
   10.8666   52.4163   83.6866 O   0  0  0  0  0  0  0  0  0  0  0  0
   14.7029   55.0468   83.2844 C   0  0  0  0  0  0  0  0  0  0  0  0
   11.9780   60.8284   79.9364 O   0  0  0  0  0  0  0  0  0  0  0  0
   14.5277   60.7410   79.1272 C   0  0  0  0  0  0  0  0  0  0  0  0
   13.5319   54.5856   82.5578 C   0  0  0  0  0  0  0  0  0  0  0  0
    9.9812   57.8868   82.1121 O   0  0  0  0  0  0  0  0  0  0  0  0
   11.2999   53.5027   82.9478 C   0  0  0  0  0  0  0  0  0  0  0  0
   17.5001   57.7329   80.7901 O   0  0  0  0  0  0  0  0  0  0  0  0
   10.6352   58.8462   80.0602 C   0  0  0  0  0  0  0  0  0  0  0  0
    9.9419   57.6439   80.7346 C   0  0  0  0  0  0  0  0  0  0  0  0
   10.1643   54.9330   80.9508 C   0  0  0  0  0  0  0  0  0  0  0  0
   15.5910   55.9972   81.1875 C   0  0  0  0  0  0  0  0  0  0  0  0
   12.5268   54.1078   83.6328 C   0  0  0  0  0  0  0  0  0  0  0  0
   13.6516   60.3448   81.4053 O   0  0  0  0  0  0  0  0  0  0  0  0
    9.8125   59.3927   79.1023 O   0  0  0  0  0  0  0  0  0  0  0  0
   14.6300   56.9780   80.5464 C   0  0  0  0  0  0  0  0  0  0  0  0
   14.7518   54.3461   84.5338 C   0  0  0  0  0  0  0  0  0  0  0  0
   10.2414   54.4513   82.4224 C   0  0  0  0  0  0  0  0  0  0  0  0
   16.9068   57.6798   79.6333 C   0  0  0  0  0  0  0  0  0  0  0  0
   14.0032   60.3367   77.7969 O   0  0  0  0  0  0  0  0  0  0  0  0
  1 13  1  0
  1 23  1  0
  2 21  1  0
  2 22  1  0
  3  5  1  0
  3 14  1  0
  3 15  1  0
  3 25  1  0
  4 16  1  0
  5 11  1  0
  6 10  1  0
  6 15  1  0
  7 29  1  0
  8 24  1  0
  8 28  1  0
  9 14  1  0
  9 20  1  0
 10 11  1  0
 10 30  1  0
 11 27  1  0
 12 18  1  0
 13 16  1  0
 13 28  1  0
 15 31  1  0
 16 24  1  0
 17 21  1  0
 18 24  1  0
 18 29  1  0
 19 30  1  0
 20 21  1  0
 20 26  1  0
 22 29  1  0
 23 27  1  0
M  END
>  <ID>  (1) 
conformer_0

$$$$
