
     RDKit          3D

 22 23  0  0  0  0  0  0  0  0999 V2000
   13.7395   54.9540   82.6153 C   0  0  0  0  0  0  0  0  0  0  0  0
   10.7273   56.1365   80.6713 C   0  0  0  0  0  0  0  0  0  0  0  0
   13.7076   59.2870   80.2023 O   0  0  0  0  0  0  0  0  0  0  0  0
   13.2395   60.3926   81.0578 C   0  0  0  0  0  0  0  0  0  0  0  0
   14.7028   58.5940   79.3327 C   0  0  0  0  0  0  0  0  0  0  0  0
   16.9315   58.0416   79.6336 O   0  0  0  0  0  0  0  0  0  0  0  0
   16.2872   60.1367   79.9213 O   0  0  0  0  0  0  0  0  0  0  0  0
   15.8105   56.2560   83.1897 C   0  0  0  0  0  0  0  0  0  0  0  0
   13.0851   57.0462   80.8395 C   0  0  0  0  0  0  0  0  0  0  0  0
   12.4869   54.9729   81.9863 C   0  0  0  0  0  0  0  0  0  0  0  0
   12.1484   56.0386   81.1386 C   0  0  0  0  0  0  0  0  0  0  0  0
   14.6018   56.0296   82.3928 C   0  0  0  0  0  0  0  0  0  0  0  0
   12.6480   58.2324   80.0735 C   0  0  0  0  0  0  0  0  0  0  0  0
    9.3479   58.6761   81.1856 C   0  0  0  0  0  0  0  0  0  0  0  0
   11.6425   61.0830   82.7812 O   0  0  0  0  0  0  0  0  0  0  0  0
   14.2936   56.9363   81.4262 C   0  0  0  0  0  0  0  0  0  0  0  0
   11.3467   58.8161   79.9111 C   0  0  0  0  0  0  0  0  0  0  0  0
   11.2078   59.8171   79.0135 O   0  0  0  0  0  0  0  0  0  0  0  0
   10.8226   59.3264   81.3181 C   0  0  0  0  0  0  0  0  0  0  0  0
   16.1002   59.0308   79.5938 C   0  0  0  0  0  0  0  0  0  0  0  0
   11.8902   60.3587   81.6503 C   0  0  0  0  0  0  0  0  0  0  0  0
    9.6749   57.2063   80.8159 O   0  0  0  0  0  0  0  0  0  0  0  0
  1 10  2  0
  1 12  1  0
  2 11  1  0
  2 22  1  0
  3  4  1  0
  3  5  1  0
  4 21  1  0
  5 20  1  0
  6 20  2  0
  7 20  1  0
  8 12  1  0
  9 11  2  0
  9 13  1  0
  9 16  1  0
 10 11  1  0
 12 16  2  0
 13 17  1  0
 14 19  1  0
 14 22  1  0
 15 21  1  0
 17 18  1  0
 17 19  1  0
 19 21  1  0
M  END
>  <ID>  (1) 
conformer_0

$$$$
