
     RDKit          3D

 23 24  0  0  0  0  0  0  0  0999 V2000
   17.1682   58.4340   78.9825 N   0  0  0  0  0  0  0  0  0  0  0  0
   13.2410   55.1941   82.0458 C   0  0  0  0  0  0  0  0  0  0  0  0
   16.8863   57.3829   79.8096 C   0  0  0  0  0  0  0  0  0  0  0  0
   10.9628   59.8509   81.3325 C   0  0  0  0  0  0  0  0  0  0  0  0
   13.3457   60.0159   78.5632 C   0  0  0  0  0  0  0  0  0  0  0  0
   10.7345   62.1987   81.9068 C   0  0  0  0  0  0  0  0  0  0  0  0
   12.4131   58.3131   79.8965 C   0  0  0  0  0  0  0  0  0  0  0  0
   15.1331   55.8139   83.3061 C   0  0  0  0  0  0  0  0  0  0  0  0
   14.9953   58.4835   79.3784 C   0  0  0  0  0  0  0  0  0  0  0  0
   15.6318   56.4398   82.2265 C   0  0  0  0  0  0  0  0  0  0  0  0
   15.9970   59.0898   78.7153 C   0  0  0  0  0  0  0  0  0  0  0  0
   11.6188   60.9767   81.8979 O   0  0  0  0  0  0  0  0  0  0  0  0
   13.9474   61.2014   79.0867 O   0  0  0  0  0  0  0  0  0  0  0  0
   13.6662   58.8318   79.3568 N   0  0  0  0  0  0  0  0  0  0  0  0
   14.9199   56.5808   81.0593 C   0  0  0  0  0  0  0  0  0  0  0  0
   15.9060   55.8560   84.4684 N   0  0  0  0  0  0  0  0  0  0  0  0
   11.3936   59.4510   79.9809 C   0  0  0  0  0  0  0  0  0  0  0  0
   13.7048   55.9391   80.9746 C   0  0  0  0  0  0  0  0  0  0  0  0
   10.4676   59.4832   79.0240 O   0  0  0  0  0  0  0  0  0  0  0  0
   15.5572   57.3807   80.0756 C   0  0  0  0  0  0  0  0  0  0  0  0
   11.5578   57.1290   79.9235 O   0  0  0  0  0  0  0  0  0  0  0  0
   13.9353   55.1196   83.2503 C   0  0  0  0  0  0  0  0  0  0  0  0
   10.8100   58.8419   82.4282 C   0  0  0  0  0  0  0  0  0  0  0  0
  1  3  1  0
  1 11  1  0
  2 18  2  0
  2 22  1  0
  3 20  1  0
  4 12  1  0
  4 17  1  0
  4 23  1  0
  5 13  1  0
  5 14  1  0
  6 12  1  0
  7 14  1  0
  7 17  1  0
  7 21  2  0
  8 10  1  0
  8 16  1  0
  8 22  2  0
  9 11  1  0
  9 14  1  0
  9 20  2  0
 10 15  2  0
 15 18  1  0
 15 20  1  0
 17 19  1  0
M  END
>  <ID>  (1) 
conformer_0

$$$$
