
     RDKit          3D

 22 23  0  0  0  0  0  0  0  0999 V2000
   14.4231   56.4191   82.1626 C   0  0  0  0  0  0  0  0  0  0  0  0
   11.0091   61.2960   79.3552 O   0  0  0  0  0  0  0  0  0  0  0  0
   12.2923   55.4197   81.5298 C   0  0  0  0  0  0  0  0  0  0  0  0
   11.4965   54.2712   81.4024 C   0  0  0  0  0  0  0  0  0  0  0  0
   13.3994   58.5924   79.4884 C   0  0  0  0  0  0  0  0  0  0  0  0
   12.9758   57.4743   80.3543 O   0  0  0  0  0  0  0  0  0  0  0  0
    9.9959   57.9625   80.4199 O   0  0  0  0  0  0  0  0  0  0  0  0
   13.3484   60.9229   78.2762 O   0  0  0  0  0  0  0  0  0  0  0  0
   15.2265   57.3839   80.0717 C   0  0  0  0  0  0  0  0  0  0  0  0
   10.5874   56.7251   80.5064 C   0  0  0  0  0  0  0  0  0  0  0  0
    9.7257   55.6499   80.4235 C   0  0  0  0  0  0  0  0  0  0  0  0
   12.8562   59.9273   79.0861 C   0  0  0  0  0  0  0  0  0  0  0  0
   13.4468   55.3301   82.4953 C   0  0  0  0  0  0  0  0  0  0  0  0
   11.9568   56.5898   80.7863 C   0  0  0  0  0  0  0  0  0  0  0  0
   14.1945   56.9992   80.8951 C   0  0  0  0  0  0  0  0  0  0  0  0
   11.8436   60.3200   81.2877 O   0  0  0  0  0  0  0  0  0  0  0  0
   16.5237   56.7222   80.2107 C   0  0  0  0  0  0  0  0  0  0  0  0
   10.2231   54.3884   80.8331 C   0  0  0  0  0  0  0  0  0  0  0  0
   14.7686   58.4207   79.2527 C   0  0  0  0  0  0  0  0  0  0  0  0
   11.8031   60.4967   79.9491 C   0  0  0  0  0  0  0  0  0  0  0  0
   15.2071   56.9325   83.0498 O   0  0  0  0  0  0  0  0  0  0  0  0
   13.8000   54.8663   83.8471 O   0  0  0  0  0  0  0  0  0  0  0  0
  1 13  1  0
  1 15  1  0
  1 21  1  0
  2 20  2  0
  3  4  1  0
  3 13  1  0
  3 14  1  0
  4 18  2  0
  5 12  1  0
  5 19  1  0
  6 14  1  0
  6 15  1  0
  7 10  1  0
  8 12  1  0
  9 15  1  0
  9 17  1  0
  9 19  1  0
 10 11  2  0
 10 14  1  0
 11 18  1  0
 12 20  1  0
 13 22  1  0
 16 20  1  0
M  END
>  <ID>  (1) 
conformer_0

$$$$
