
     RDKit          3D

 26 28  0  0  0  0  0  0  0  0999 V2000
   12.4889   61.9309   81.1332 C   0  0  0  0  0  0  0  0  0  0  0  0
   14.3278   59.6110   78.8829 C   0  0  0  0  0  0  0  0  0  0  0  0
    8.4443   60.0628   81.7713 O   0  0  0  0  0  1  0  0  0  0  0  0
   10.0294   58.3184   80.5968 C   0  0  0  0  0  0  0  0  0  0  0  0
   12.1652   55.4889   81.4359 N   0  0  0  0  0  0  0  0  0  0  0  0
   14.8443   60.8334   80.9883 O   0  0  0  0  0  0  0  0  0  0  0  0
   15.1113   58.3665   79.2110 C   0  0  0  0  0  0  0  0  0  0  0  0
    8.9399   56.2607   79.9278 C   0  0  0  0  0  0  0  0  0  0  0  0
   15.4185   56.9514   81.1153 C   0  0  0  0  0  0  0  0  0  0  0  0
   14.5074   60.9189   79.6417 C   0  0  0  0  0  0  0  0  0  0  0  0
   16.0122   56.5284   82.1895 N   0  0  0  0  0  0  0  0  0  0  0  0
    9.7295   60.7858   79.8986 O   0  0  0  0  0  1  0  0  0  0  0  0
   10.0644   55.5727   80.3680 C   0  0  0  0  0  0  0  0  0  0  0  0
    9.7387   59.9069   81.1128 S   0  0  0  0  0  4  0  0  0  0  0  0
   11.1587   57.5806   80.8615 C   0  0  0  0  0  0  0  0  0  0  0  0
   12.3417   62.2020   79.6143 C   0  0  0  0  0  0  0  0  0  0  0  0
   14.1904   56.7072   80.8426 C   0  0  0  0  0  0  0  0  0  0  0  0
   12.3167   60.5792   81.6446 N   0  0  0  0  0  0  0  0  0  0  0  0
   15.3231   55.7802   83.1095 C   0  0  0  0  0  0  0  0  0  0  0  0
   14.9303   57.4386   80.1291 N   0  0  0  0  0  0  0  0  0  0  0  0
   11.0014   60.1962   82.2768 C   0  0  0  0  0  0  0  0  0  0  0  0
   14.0105   55.4720   82.8796 C   0  0  0  0  0  0  0  0  0  0  0  0
   11.1718   56.2515   80.8637 C   0  0  0  0  0  0  0  0  0  0  0  0
   13.7669   62.0278   78.9480 C   0  0  0  0  0  0  0  0  0  0  0  0
   13.4574   55.9352   81.6902 C   0  0  0  0  0  0  0  0  0  0  0  0
    8.9372   57.6599   80.0147 C   0  0  0  0  0  0  0  0  0  0  0  0
  1 16  1  0
  1 18  1  0
  2  7  1  0
  2 10  1  0
  3 14  1  0
  4 14  1  0
  4 15  2  0
  4 26  1  0
  5 23  1  0
  5 25  1  0
  6 10  1  0
  7 20  1  0
  8 13  1  0
  8 26  2  0
  9 11  2  0
  9 17  1  0
  9 20  1  0
 10 24  1  0
 11 19  1  0
 12 14  1  0
 13 23  2  0
 14 21  1  0
 15 23  1  0
 16 24  1  0
 17 25  2  0
 18 21  1  0
 19 22  2  0
 22 25  1  0
M  END
>  <ID>  (1) 
conformer_0

$$$$
