
     RDKit          3D

 10 10  0  0  0  0  0  0  0  0999 V2000
   13.0028   57.6667   80.5070 C   0  0  0  0  0  0  0  0  0  0  0  0
   11.8688   58.6103   80.4316 C   0  0  0  0  0  0  0  0  0  0  0  0
   15.2713   56.7191   80.7082 C   0  0  0  0  0  0  0  0  0  0  0  0
   16.3534   57.2352   81.3521 O   0  0  0  0  0  0  0  0  0  0  0  0
   12.6532   60.1994   78.9296 O   0  0  0  0  0  0  0  0  0  0  0  0
   14.4180   57.8570   80.1308 C   0  0  0  0  0  0  0  0  0  0  0  0
   12.9537   56.5418   81.4559 C   0  0  0  0  0  0  0  0  0  0  0  0
   12.1996   60.0308   80.0730 C   0  0  0  0  0  0  0  0  0  0  0  0
   14.3457   55.9791   81.6624 C   0  0  0  0  0  0  0  0  0  0  0  0
   12.0944   60.8621   80.9870 O   0  0  0  0  0  0  0  0  0  0  0  0
  1  2  1  0
  1  6  1  0
  1  7  1  0
  2  8  1  0
  3  4  1  0
  3  6  1  0
  3  9  1  0
  5  8  2  0
  7  9  1  0
  8 10  1  0
M  END
>  <ID>  (1) 
conformer_0

$$$$
