
     RDKit          3D

 18 19  0  0  0  0  0  0  0  0999 V2000
   10.3968   58.5687   79.8458 O   0  0  0  0  0  0  0  0  0  0  0  0
   13.0172   60.3775   80.1378 C   0  0  0  0  0  0  0  0  0  0  0  0
   14.7310   56.0784   81.0612 C   0  0  0  0  0  0  0  0  0  0  0  0
   13.5205   57.9317   79.8999 C   0  0  0  0  0  0  0  0  0  0  0  0
   12.3612   56.3345   81.3275 C   0  0  0  0  0  0  0  0  0  0  0  0
   12.3640   57.6323   80.6681 C   0  0  0  0  0  0  0  0  0  0  0  0
   13.5741   55.9192   81.9086 C   0  0  0  0  0  0  0  0  0  0  0  0
   14.6595   57.1498   80.1365 C   0  0  0  0  0  0  0  0  0  0  0  0
   12.8910   60.1792   78.7777 C   0  0  0  0  0  0  0  0  0  0  0  0
   11.5420   60.7470   82.0877 C   0  0  0  0  0  0  0  0  0  0  0  0
   15.6960   56.9321   83.7698 O   0  0  0  0  0  0  0  0  0  0  0  0
   10.9476   55.7802   81.4252 C   0  0  0  0  0  0  0  0  0  0  0  0
   13.6567   59.2967   79.4662 C   0  0  0  0  0  0  0  0  0  0  0  0
   13.9124   55.5415   83.1768 N   0  0  0  0  0  0  0  0  0  0  0  0
   15.2484   55.6499   83.6074 C   0  0  0  0  0  0  0  0  0  0  0  0
   11.8452   59.9632   80.8210 N   0  0  0  0  0  0  0  0  0  0  0  0
   15.0912   59.5731   79.0880 C   0  0  0  0  0  0  0  0  0  0  0  0
   11.3928   58.7165   80.5318 C   0  0  0  0  0  0  0  0  0  0  0  0
  1 18  2  0
  2  9  1  0
  2 16  1  0
  3  7  1  0
  3  8  2  0
  4  6  1  0
  4  8  1  0
  4 13  1  0
  5  6  1  0
  5  7  1  0
  5 12  1  0
  6 18  1  0
  7 14  1  0
  9 13  1  0
 10 16  1  0
 11 15  1  0
 13 17  1  0
 14 15  1  0
 16 18  1  0
M  END
>  <ID>  (1) 
conformer_0

$$$$
