
     RDKit          3D

 17 19  0  0  0  0  0  0  0  0999 V2000
   15.0730   55.8603   82.5867 O   0  0  0  0  0  0  0  0  0  0  0  0
   11.8914   55.5279   81.3794 C   0  0  0  0  0  0  0  0  0  0  0  0
   11.4473   57.7809   80.2142 C   0  0  0  0  0  0  0  0  0  0  0  0
   12.2806   56.7125   80.7634 C   0  0  0  0  0  0  0  0  0  0  0  0
   14.0396   55.9104   81.8799 C   0  0  0  0  0  0  0  0  0  0  0  0
   12.4748   59.7180   81.2665 O   0  0  0  0  0  0  0  0  0  0  0  0
   14.4473   57.7413   80.2202 C   0  0  0  0  0  0  0  0  0  0  0  0
   10.7934   54.9921   81.3836 O   0  0  0  0  0  0  0  0  0  0  0  0
   15.8672   57.8149   80.0367 C   0  0  0  0  0  0  0  0  0  0  0  0
   13.6612   56.8300   80.9670 N   0  0  0  0  0  0  0  0  0  0  0  0
   12.2484   59.1080   80.0505 C   0  0  0  0  0  0  0  0  0  0  0  0
   11.4402   59.8404   79.2741 O   0  0  0  0  0  0  0  0  0  0  0  0
   14.8545   59.4873   78.6770 C   0  0  0  0  0  0  0  0  0  0  0  0
   13.0166   55.0421   82.0377 N   0  0  0  0  0  0  0  0  0  0  0  0
   13.6520   58.7939   79.3937 C   0  0  0  0  0  0  0  0  0  0  0  0
   16.7061   57.4192   80.9163 O   0  0  0  0  0  0  0  0  0  0  0  0
   16.1559   59.0158   79.2397 C   0  0  0  0  0  0  0  0  0  0  0  0
  1  5  2  0
  2  4  1  0
  2  8  2  0
  2 14  1  0
  3  4  1  0
  3 11  1  0
  4 10  1  0
  5 10  1  0
  5 14  1  0
  6 11  1  0
  7  9  1  0
  7 10  1  0
  7 15  1  0
  9 16  2  0
  9 17  1  0
 11 12  1  0
 11 15  1  0
 13 15  1  0
 13 17  1  0
M  END
>  <ID>  (1) 
conformer_0

$$$$
