
     RDKit          3D

 17 17  0  0  0  0  0  0  0  0999 V2000
   11.5054   58.2734   81.1318 F   0  0  0  0  0  0  0  0  0  0  0  0
   13.3519   59.9362   78.4288 O   0  0  0  0  0  0  0  0  0  0  0  0
   12.0102   60.4294   80.7406 F   0  0  0  0  0  0  0  0  0  0  0  0
   13.3490   56.5350   80.4335 O   0  0  0  0  0  0  0  0  0  0  0  0
   12.5814   55.7692   82.5144 O   0  0  0  0  0  0  0  0  0  0  0  0
   16.0395   56.4071   80.1652 O   0  0  0  0  0  0  0  0  0  0  0  0
   15.3975   57.4545   80.8072 C   0  0  0  0  0  0  0  0  0  0  0  0
   10.8770   59.2571   79.2119 O   0  0  0  0  0  0  0  0  0  0  0  0
   15.1010   54.9340   83.6047 C   0  0  0  0  0  0  0  0  0  0  0  0
   14.0526   57.7539   80.1160 C   0  0  0  0  0  0  0  0  0  0  0  0
   14.9930   56.9097   82.1486 C   0  0  0  0  0  0  0  0  0  0  0  0
   14.9086   55.4396   82.2211 C   0  0  0  0  0  0  0  0  0  0  0  0
   14.2408   55.3946   84.5481 O   0  0  0  0  0  0  0  0  0  0  0  0
   13.7238   56.1060   81.8189 C   0  0  0  0  0  0  0  0  0  0  0  0
   16.0975   58.6240   80.7928 O   0  0  0  0  0  0  0  0  0  0  0  0
   13.2062   58.8633   79.3425 C   0  0  0  0  0  0  0  0  0  0  0  0
   11.8167   59.1803   80.1245 C   0  0  0  0  0  0  0  0  0  0  0  0
  1 17  1  0
  2 16  1  0
  3 17  1  0
  4 10  1  0
  4 14  1  0
  5 14  2  0
  6  7  1  0
  7 10  1  0
  7 11  1  0
  7 15  1  0
  8 17  1  0
  9 12  1  0
  9 13  1  0
 10 16  1  0
 11 12  1  0
 12 14  1  0
 16 17  1  0
M  END
>  <ID>  (1) 
conformer_0

$$$$
