
     RDKit          3D

 21 22  0  0  0  0  0  0  0  0999 V2000
   12.2543   55.7423   81.0291 O   0  0  0  0  0  0  0  0  0  0  0  0
    9.9530   57.8356   79.9558 N   0  0  0  0  0  0  0  0  0  0  0  0
   10.7179   58.7444   79.2396 C   0  0  0  0  0  0  0  0  0  0  0  0
   13.3917   61.3239   81.5333 O   0  0  0  0  0  0  0  0  0  0  0  0
   11.2806   62.3272   82.0270 C   0  0  0  0  0  0  0  0  0  0  0  0
   15.9749   57.3335   80.3081 C   0  0  0  0  0  0  0  0  0  0  0  0
   14.2029   55.1836   84.0184 O   0  0  0  0  0  0  0  0  0  0  0  0
   12.6609   58.0990   80.1291 C   0  0  0  0  0  0  0  0  0  0  0  0
   10.6246   57.2335   80.9918 C   0  0  0  0  0  0  0  0  0  0  0  0
   14.7164   56.7104   80.9054 C   0  0  0  0  0  0  0  0  0  0  0  0
   13.5752   57.2078   80.2729 N   0  0  0  0  0  0  0  0  0  0  0  0
   12.0895   61.3073   81.2912 C   0  0  0  0  0  0  0  0  0  0  0  0
   15.0655   55.8734   83.4029 C   0  0  0  0  0  0  0  0  0  0  0  0
   11.8008   59.1601   79.9996 C   0  0  0  0  0  0  0  0  0  0  0  0
   14.5575   59.3224   79.4279 C   0  0  0  0  0  0  0  0  0  0  0  0
   15.1039   55.7425   81.9491 C   0  0  0  0  0  0  0  0  0  0  0  0
   15.7732   56.7177   84.0172 O   0  0  0  0  0  0  0  0  0  0  0  0
   15.5590   58.7555   80.2388 O   0  0  0  0  0  0  0  0  0  0  0  0
   13.1123   59.3823   79.6690 C   0  0  0  0  0  0  0  0  0  0  0  0
   12.1007   56.9525   80.6087 C   0  0  0  0  0  0  0  0  0  0  0  0
   11.3583   60.0593   81.0882 C   0  0  0  0  0  0  0  0  0  0  0  0
  1 20  1  0
  2  3  1  0
  2  9  1  0
  3 14  1  0
  4 12  1  0
  5 12  1  0
  6 10  1  0
  6 18  1  0
  7 13  2  0
  8 11  1  0
  8 14  1  0
  8 20  2  0
  9 20  1  0
 10 11  1  0
 10 16  1  0
 12 21  1  0
 13 16  1  0
 13 17  1  0
 14 19  1  0
 14 21  1  0
 15 18  1  0
 15 19  1  0
M  END
>  <ID>  (1) 
conformer_0

$$$$
