
     RDKit          3D

 19 20  0  0  0  0  0  0  0  0999 V2000
   11.3094   59.6209   82.0892 O   0  0  0  0  0  0  0  0  0  0  0  0
   16.5378   58.4459   79.4780 C   0  0  0  0  0  0  0  0  0  0  0  0
   14.2539   57.2059   80.3382 C   0  0  0  0  0  0  0  0  0  0  0  0
   15.3158   58.9732   79.1275 C   0  0  0  0  0  0  0  0  0  0  0  0
   12.8929   55.7345   81.6867 C   0  0  0  0  0  0  0  0  0  0  0  0
   12.9976   56.8259   80.8614 C   0  0  0  0  0  0  0  0  0  0  0  0
   11.7697   55.2116   81.8690 O   0  0  0  0  0  0  0  0  0  0  0  0
   11.0144   58.6131   81.3293 C   0  0  0  0  0  0  0  0  0  0  0  0
   11.8202   59.2732   78.6980 O   0  0  0  0  0  0  0  0  0  0  0  0
   12.7165   58.7160   79.4539 C   0  0  0  0  0  0  0  0  0  0  0  0
   11.9650   57.8491   80.5196 C   0  0  0  0  0  0  0  0  0  0  0  0
    9.7008   58.3772   81.0580 N   0  0  0  0  0  0  0  0  0  0  0  0
   17.6750   59.1583   79.2093 F   0  0  0  0  0  0  0  0  0  0  0  0
   13.8506   54.9020   84.6588 N   0  0  0  0  0  0  0  0  0  0  0  0
   15.4795   56.6474   80.5761 C   0  0  0  0  0  0  0  0  0  0  0  0
   13.9809   55.2036   82.3500 N   0  0  0  0  0  0  0  0  0  0  0  0
   14.1289   58.3577   79.5643 C   0  0  0  0  0  0  0  0  0  0  0  0
   16.6467   57.2560   80.1535 C   0  0  0  0  0  0  0  0  0  0  0  0
   13.8324   54.3595   83.4344 C   0  0  0  0  0  0  0  0  0  0  0  0
  1  8  2  0
  2  4  2  0
  2 13  1  0
  2 18  1  0
  3  6  1  0
  3 15  1  0
  3 17  2  0
  4 17  1  0
  5  6  1  0
  5  7  2  0
  5 16  1  0
  6 11  1  0
  8 11  1  0
  8 12  1  0
  9 10  1  0
 10 11  1  0
 10 17  1  0
 14 19  1  0
 15 18  2  0
 16 19  1  0
M  END
>  <ID>  (1) 
conformer_0

$$$$
