
     RDKit          3D

 16 15  0  0  0  0  0  0  0  0999 V2000
   12.0003   55.5472   82.7521 O   0  0  0  0  0  0  0  0  0  0  0  0
   12.5009   58.9390   80.0173 C   0  0  0  0  0  0  0  0  0  0  0  0
   10.5974   60.0968   81.2418 C   0  0  0  0  0  0  0  0  0  0  0  0
   13.9838   58.5618   80.2443 C   0  0  0  0  0  0  0  0  0  0  0  0
   14.0430   57.0146   80.5364 C   0  0  0  0  0  0  0  0  0  0  0  0
   11.8065   59.6390   79.0331 O   0  0  0  0  0  0  0  0  0  0  0  0
    9.6883   59.1987   81.8313 O   0  0  0  0  0  0  0  0  0  0  0  0
   13.0294   54.5753   82.4459 C   0  0  0  0  0  0  0  0  0  0  0  0
   14.8863   55.1258   83.8054 O   0  0  0  0  0  0  0  0  0  0  0  0
   12.9646   60.3759   81.8274 O   0  0  0  0  0  0  0  0  0  0  0  0
   14.3654   55.2950   82.4817 C   0  0  0  0  0  0  0  0  0  0  0  0
   12.0001   59.4586   81.3847 C   0  0  0  0  0  0  0  0  0  0  0  0
   14.1405   56.7434   82.0525 C   0  0  0  0  0  0  0  0  0  0  0  0
   14.6413   58.7789   78.9844 O   0  0  0  0  0  0  0  0  0  0  0  0
   15.0494   57.5876   82.5865 O   0  0  0  0  0  0  0  0  0  0  0  0
   15.2086   56.4820   79.9799 O   0  0  0  0  0  0  0  0  0  0  0  0
  1  8  1  0
  2  4  1  0
  2  6  1  0
  2 12  1  0
  3  7  1  0
  3 12  1  0
  4  5  1  0
  4 14  1  0
  5 13  1  0
  5 16  1  0
  8 11  1  0
  9 11  1  0
 10 12  1  0
 11 13  1  0
 13 15  1  0
M  END
>  <ID>  (1) 
conformer_0

$$$$
