
     RDKit          3D

 21 22  0  0  0  0  0  0  0  0999 V2000
   12.8064   54.7086   83.2909 O   0  0  0  0  0  0  0  0  0  0  0  0
   14.2537   57.0980   80.2423 C   0  0  0  0  0  0  0  0  0  0  0  0
   14.7216   55.9237   82.3172 C   0  0  0  0  0  0  0  0  0  0  0  0
   13.2406   59.9195   79.7300 C   0  0  0  0  0  0  0  0  0  0  0  0
   10.3463   62.3667   81.0182 O   0  0  0  0  0  0  0  0  0  0  0  0
    9.4877   59.4653   79.8525 C   0  0  0  0  0  0  0  0  0  0  0  0
   15.5316   55.6982   83.5131 C   0  0  0  0  0  0  0  0  0  0  0  0
   10.9062   60.8185   82.7156 C   0  0  0  0  0  0  0  0  0  0  0  0
   11.2912   55.3906   81.2682 O   0  0  0  0  0  0  0  0  0  0  0  0
    9.4169   58.1061   79.4723 C   0  0  0  0  0  0  0  0  0  0  0  0
   10.7203   59.9857   80.3221 C   0  0  0  0  0  0  0  0  0  0  0  0
   15.9959   56.7227   84.1728 O   0  0  0  0  0  0  0  0  0  0  0  0
   15.5266   54.5518   84.1112 O   0  0  0  0  0  0  0  0  0  0  0  0
   12.8908   56.9308   80.3939 C   0  0  0  0  0  0  0  0  0  0  0  0
   12.4985   55.9453   81.2910 C   0  0  0  0  0  0  0  0  0  0  0  0
   15.1645   56.6025   81.1897 C   0  0  0  0  0  0  0  0  0  0  0  0
   11.7970   57.8018   79.9400 C   0  0  0  0  0  0  0  0  0  0  0  0
   13.3733   55.4943   82.3080 C   0  0  0  0  0  0  0  0  0  0  0  0
   11.8817   59.2100   80.0181 C   0  0  0  0  0  0  0  0  0  0  0  0
   10.5373   57.2833   79.6226 C   0  0  0  0  0  0  0  0  0  0  0  0
   10.7074   61.1386   81.2578 C   0  0  0  0  0  0  0  0  0  0  0  0
  1 18  1  0
  2 14  1  0
  2 16  2  0
  3  7  1  0
  3 16  1  0
  3 18  1  0
  4 19  1  0
  5 21  1  0
  6 10  1  0
  6 11  1  0
  7 12  2  0
  7 13  1  0
  8 21  1  0
  9 15  1  0
 10 20  2  0
 11 19  1  0
 11 21  1  0
 14 15  1  0
 14 17  1  0
 15 18  2  0
 17 19  1  0
 17 20  1  0
M  END
>  <ID>  (1) 
conformer_0

$$$$
