
     RDKit          3D

 14 14  0  0  0  0  0  0  0  0999 V2000
    4.4376   -8.9486   10.6374 C   0  0  0  0  0  0  0  0  0  0  0  0
    4.9376   -9.0486   11.9374 N   0  0  0  0  0  0  0  0  0  0  0  0
    6.3376   -8.7486   12.1374 C   0  0  0  0  0  0  0  0  0  0  0  0
    6.9376   -9.5486   13.2374 C   0  0  0  0  0  0  0  0  0  0  0  0
    8.2376   -9.2486   13.7374 C   0  0  0  0  0  0  0  0  0  0  0  0
    3.0376   -9.1486   10.3374 C   0  0  0  0  0  0  0  0  0  0  0  0
    2.8376  -10.2486    9.3374 O   0  0  0  0  0  0  0  0  0  0  0  0
    2.1376   -9.3486   11.4374 C   0  0  0  0  0  0  0  0  0  0  0  0
    1.0376  -10.2486   11.0374 C   0  0  0  0  0  0  0  0  0  0  0  0
    6.4376  -10.8486   13.3374 C   0  0  0  0  0  0  0  0  0  0  0  0
    1.4376  -10.7486    9.5374 C   0  0  0  0  0  0  0  0  0  0  0  0
    5.3376   -8.8486    9.6374 O   0  0  0  0  0  0  0  0  0  0  0  0
    5.2376  -11.1486   13.3374 O   0  0  0  0  0  0  0  0  0  0  0  0
    0.3376  -11.0486    8.8374 O   0  0  0  0  0  0  0  0  0  0  0  0
  2  1  1  0
  3  2  1  0
  4  3  1  0
  5  4  1  0
  6  1  1  0
  7  6  1  0
  8  6  1  0
  9  8  1  0
 10  4  1  0
 11  7  1  0
 11  9  1  0
 12  1  2  0
 13 10  2  0
 14 11  2  0
M  END
>  <ID>  (1) 
conformer_0

$$$$
