
     RDKit          3D

 15 15  0  0  0  0  0  0  0  0999 V2000
    4.9170   -8.9600   12.0502 N   0  0  0  0  0  0  0  0  0  0  0  0
    6.1170   -9.2600   11.6502 C   0  0  0  0  0  0  0  0  0  0  0  0
    7.1170   -9.2600   12.7502 C   0  0  0  0  0  0  0  0  0  0  0  0
    6.6170   -8.7600   13.9502 C   0  0  0  0  0  0  0  0  0  0  0  0
    8.2170  -10.2600   12.6502 C   0  0  0  0  0  0  0  0  0  0  0  0
    8.3170  -11.2600   13.6502 C   0  0  0  0  0  0  0  0  0  0  0  0
    3.6170   -9.2600   11.5502 C   0  0  0  0  0  0  0  0  0  0  0  0
    3.4170   -8.5600   10.2502 C   0  0  0  0  0  0  0  0  0  0  0  0
    3.5170   -7.1600   10.1502 C   0  0  0  0  0  0  0  0  0  0  0  0
    5.7170   -8.0600   11.1502 C   0  0  0  0  0  0  0  0  0  0  0  0
    2.6170   -9.3600   12.3502 O   0  0  0  0  0  0  0  0  0  0  0  0
    4.3170   -6.1600   10.5502 O   0  0  0  0  0  0  0  0  0  0  0  0
    2.2170   -9.1600    9.6502 O   0  0  0  0  0  0  0  0  0  0  0  0
    2.2170   -6.7600    9.5502 C   0  0  0  0  0  0  0  0  0  0  0  0
    1.5170   -5.6600    9.3502 O   0  0  0  0  0  0  0  0  0  0  0  0
  2  1  1  0
  3  2  1  0
  4  3  1  0
  5  3  1  0
  6  5  1  0
  7  1  1  0
  8  7  1  0
  9  8  1  0
 10  1  1  0
 10  2  1  0
 11  7  2  0
 12  9  1  0
 13  8  1  0
 14  9  2  3
 15 14  1  0
M  END
>  <ID>  (1) 
conformer_0

$$$$
