
     RDKit          3D

 18 18  0  0  0  0  0  0  0  0999 V2000
    4.4376   -8.9486   10.6374 C   0  0  0  0  0  0  0  0  0  0  0  0
    4.9376   -9.0486   11.9374 N   0  0  0  0  0  0  0  0  0  0  0  0
    3.7376   -7.7486   10.2374 C   0  0  0  0  0  0  0  0  0  0  0  0
    4.4376   -6.5486   10.6374 O   0  0  0  0  0  0  0  0  0  0  0  0
    2.5376   -7.6486    9.4374 C   0  0  0  0  0  0  0  0  0  0  0  0
    6.1376   -9.5486   12.2374 C   0  0  0  0  0  0  0  0  0  0  0  0
    6.8376   -9.2486   13.4374 C   0  0  0  0  0  0  0  0  0  0  0  0
    8.2376   -8.9486   13.6374 C   0  0  0  0  0  0  0  0  0  0  0  0
    2.1376   -8.4486    8.3374 C   0  0  0  0  0  0  0  0  0  0  0  0
    2.0376   -6.2486    9.5374 O   0  0  0  0  0  0  0  0  0  0  0  0
    1.1376   -7.7486    7.5374 O   0  0  0  0  0  0  0  0  0  0  0  0
    6.5376  -10.5486   11.5374 O   0  0  0  0  0  0  0  0  0  0  0  0
    1.8376   -9.8486    8.4374 C   0  0  0  0  0  0  0  0  0  0  0  0
    2.1376  -10.3486    7.1374 O   0  0  0  0  0  0  0  0  0  0  0  0
    3.7376  -10.1486   10.1374 O   0  0  0  0  0  0  0  0  0  0  0  0
    2.5376  -10.2486    9.7374 C   0  0  0  0  0  0  0  0  0  0  0  0
    1.7376  -11.2486   10.3374 C   0  0  0  0  0  0  0  0  0  0  0  0
    1.7376  -12.2486   11.1374 O   0  0  0  0  0  0  0  0  0  0  0  0
  2  1  1  0
  3  1  1  0
  4  3  1  0
  5  3  1  0
  6  2  1  0
  7  6  1  0
  8  7  1  0
  9  5  1  0
 10  5  1  0
 11  9  1  0
 12  6  2  0
 13  9  1  0
 14 13  1  0
 15  1  1  0
 16 13  1  0
 16 15  1  0
 17 16  1  0
 18 17  2  0
M  END
>  <ID>  (1) 
conformer_0

$$$$
