
     RDKit          3D

 16 16  0  0  0  0  0  0  0  0999 V2000
    4.4376   -8.9486   10.6374 C   0  0  0  0  0  0  0  0  0  0  0  0
    4.9376   -9.0486   11.9374 N   0  0  0  0  0  0  0  0  0  0  0  0
    3.7376   -7.7486   10.2374 C   0  0  0  0  0  0  0  0  0  0  0  0
    4.4376   -6.5486   10.6374 O   0  0  0  0  0  0  0  0  0  0  0  0
    2.5376   -7.6486    9.4374 C   0  0  0  0  0  0  0  0  0  0  0  0
    6.3376   -8.8486   12.3374 C   0  0  0  0  0  0  0  0  0  0  0  0
    6.7376   -9.7486   13.3374 C   0  0  0  0  0  0  0  0  0  0  0  0
    8.1376   -9.7486   13.5374 C   0  0  0  0  0  0  0  0  0  0  0  0
    2.5376   -8.5486    8.2374 C   0  0  0  0  0  0  0  0  0  0  0  0
    1.8376   -6.3486    9.3374 O   0  0  0  0  0  0  0  0  0  0  0  0
    1.5376   -8.2486    7.3374 O   0  0  0  0  0  0  0  0  0  0  0  0
    4.3376   -9.7486    9.4374 O   0  0  0  0  0  0  0  0  0  0  0  0
    3.0376   -9.8486    8.8374 C   0  0  0  0  0  0  0  0  0  0  0  0
    8.6376  -11.0486   13.8374 C   0  0  0  0  0  0  0  0  0  0  0  0
    2.7376  -11.0486    8.0374 C   0  0  0  0  0  0  0  0  0  0  0  0
    2.5376  -10.6486    6.6374 O   0  0  0  0  0  0  0  0  0  0  0  0
  2  1  1  0
  3  1  1  0
  4  3  1  0
  5  3  2  0
  6  2  1  0
  7  6  1  0
  8  7  1  0
  9  5  1  0
 10  5  1  0
 11  9  1  0
 12  1  1  0
 13  9  2  0
 13 12  1  0
 14  8  1  0
 15 13  1  0
 16 15  1  0
M  END
>  <ID>  (1) 
conformer_0

$$$$
