
     RDKit          3D

 14 13  0  0  0  0  0  0  0  0999 V2000
    4.4376   -8.9486   10.6374 C   0  0  0  0  0  0  0  0  0  0  0  0
    4.9376   -9.0486   11.9374 N   0  0  0  0  0  0  0  0  0  0  0  0
    4.5376   -9.8486    9.7374 O   0  0  0  0  0  0  0  0  0  0  0  0
    3.4376   -7.8486   10.4374 C   0  0  0  0  0  0  0  0  0  0  0  0
    4.0376   -6.5486   10.5374 O   0  0  0  0  0  0  0  0  0  0  0  0
    2.3376   -8.0486    9.4374 C   0  0  0  0  0  0  0  0  0  0  0  0
    6.3376   -8.7486   12.2374 C   0  0  0  0  0  0  0  0  0  0  0  0
    7.1376   -9.5486   13.1374 C   0  0  0  0  0  0  0  0  0  0  0  0
    8.1376  -10.4486   12.6374 C   0  0  0  0  0  0  0  0  0  0  0  0
    8.6376  -11.4486   13.6374 C   0  0  0  0  0  0  0  0  0  0  0  0
    2.7376   -8.6486    8.1374 C   0  0  0  0  0  0  0  0  0  0  0  0
    1.6376   -8.4486    7.1374 O   0  0  0  0  0  0  0  0  0  0  0  0
    1.9376   -6.6486    9.1374 O   0  0  0  0  0  0  0  0  0  0  0  0
    7.6376   -8.7486   14.2374 O   0  0  0  0  0  0  0  0  0  0  0  0
  2  1  1  0
  3  1  2  0
  4  1  1  0
  5  4  1  0
  6  4  1  0
  7  2  1  0
  8  7  1  0
  9  8  1  0
 10  9  1  0
 11  6  1  0
 12 11  1  0
 13  6  1  0
 14  8  1  0
M  END
>  <ID>  (1) 
conformer_0

$$$$
