
     RDKit          3D

 16 17  0  0  0  0  0  0  0  0999 V2000
    4.4376   -8.9486   10.6374 C   0  0  0  0  0  0  0  0  0  0  0  0
    4.9376   -9.0486   11.9374 N   0  0  0  0  0  0  0  0  0  0  0  0
    6.3376   -8.7486   12.1374 C   0  0  0  0  0  0  0  0  0  0  0  0
    6.9376   -9.5486   13.2374 C   0  0  0  0  0  0  0  0  0  0  0  0
    8.2376   -9.2486   13.7374 C   0  0  0  0  0  0  0  0  0  0  0  0
    3.6376   -7.9486    9.9374 C   0  0  0  0  0  0  0  0  0  0  0  0
    3.7376   -6.6486   10.5374 O   0  0  0  0  0  0  0  0  0  0  0  0
    2.4376   -8.0486    9.2374 C   0  0  0  0  0  0  0  0  0  0  0  0
    2.2376   -9.1486    8.2374 C   0  0  0  0  0  0  0  0  0  0  0  0
    2.4376  -10.4486    8.4374 O   0  0  0  0  0  0  0  0  0  0  0  0
    3.6376   -9.8486    8.4374 C   0  0  0  0  0  0  0  0  0  0  0  0
    1.6376   -6.9486    8.9374 O   0  0  0  0  0  0  0  0  0  0  0  0
    4.3376  -10.0486    9.7374 O   0  0  0  0  0  0  0  0  0  0  0  0
    5.9376  -10.5486   13.6374 C   0  0  0  0  0  0  0  0  0  0  0  0
    4.8376   -9.9486   14.1374 O   0  0  0  0  0  0  0  0  0  0  0  0
    6.3376  -11.9486   13.8374 C   0  0  0  0  0  0  0  0  0  0  0  0
  2  1  1  0
  3  2  1  0
  4  3  1  0
  5  4  1  0
  6  1  1  0
  7  6  1  0
  8  6  1  0
  9  8  1  0
 10  9  1  0
 11  9  1  0
 11 10  1  0
 12  8  1  0
 13  1  1  0
 13 11  1  0
 14  4  1  0
 15 14  1  0
 16 14  1  0
M  END
>  <ID>  (1) 
conformer_0

$$$$
