
     RDKit          3D

 14 14  0  0  0  0  0  0  0  0999 V2000
    4.4376   -8.9486   10.6374 C   0  0  0  0  0  0  0  0  0  0  0  0
    4.9376   -9.0486   11.9374 N   0  0  0  0  0  0  0  0  0  0  0  0
    6.3376   -8.7486   12.1374 C   0  0  0  0  0  0  0  0  0  0  0  0
    6.9376   -9.5486   13.2374 C   0  0  0  0  0  0  0  0  0  0  0  0
    8.2376   -9.2486   13.7374 C   0  0  0  0  0  0  0  0  0  0  0  0
    3.0376   -9.1486   10.3374 C   0  0  0  0  0  0  0  0  0  0  0  0
    2.8376  -10.2486    9.3374 O   0  0  0  0  0  0  0  0  0  0  0  0
    2.4376   -7.9486    9.7374 C   0  0  0  0  0  0  0  0  0  0  0  0
    1.7376   -8.1486    8.4374 C   0  0  0  0  0  0  0  0  0  0  0  0
    0.6376   -7.3486    8.1374 O   0  0  0  0  0  0  0  0  0  0  0  0
    1.8376   -9.7486    8.3374 C   0  0  0  0  0  0  0  0  0  0  0  0
    5.2376   -9.3486    9.5374 O   0  0  0  0  0  0  0  0  0  0  0  0
    2.8376   -6.6486    9.9374 O   0  0  0  0  0  0  0  0  0  0  0  0
    0.8376  -10.2486    7.6374 O   0  0  0  0  0  0  0  0  0  0  0  0
  2  1  1  0
  3  2  1  0
  4  3  1  0
  5  4  1  0
  6  1  1  0
  7  6  1  0
  8  6  1  0
  9  8  1  0
 10  9  1  0
 11  7  1  0
 11  9  1  0
 12  1  2  0
 13  8  1  0
 14 11  2  0
M  END
>  <ID>  (1) 
conformer_0

$$$$
