
     RDKit          3D

 18 18  0  0  0  0  0  0  0  0999 V2000
    3.5326   -9.0079   11.4103 C   0  0  0  0  0  0  0  0  0  0  0  0
    4.9326   -8.7079   11.5103 N   0  0  0  0  0  0  0  0  0  0  0  0
    2.8326   -8.5079   10.2103 C   0  0  0  0  0  0  0  0  0  0  0  0
    5.8326   -9.5079   12.3103 C   0  0  0  0  0  0  0  0  0  0  0  0
    6.9326   -8.9079   12.9103 C   0  0  0  0  0  0  0  0  0  0  0  0
    8.0326   -9.6079   13.5103 C   0  0  0  0  0  0  0  0  0  0  0  0
    3.0326   -7.2079    9.6103 C   0  0  0  0  0  0  0  0  0  0  0  0
    3.9326   -6.3079   10.1103 O   0  0  0  0  0  0  0  0  0  0  0  0
    3.1326  -10.1079   12.1103 O   0  0  0  0  0  0  0  0  0  0  0  0
    1.7326   -9.2079    9.7103 O   0  0  0  0  0  0  0  0  0  0  0  0
    1.1326   -8.6079    8.5103 C   0  0  0  0  0  0  0  0  0  0  0  0
    7.1326   -7.6079   12.5103 O   0  0  0  0  0  0  0  0  0  0  0  0
    0.8326   -7.2079    8.3103 O   0  0  0  0  0  0  0  0  0  0  0  0
    0.7326   -9.4079    7.3103 C   0  0  0  0  0  0  0  0  0  0  0  0
    0.7326  -10.8079    7.7103 O   0  0  0  0  0  0  0  0  0  0  0  0
    5.6326  -10.9079   12.5103 C   0  0  0  0  0  0  0  0  0  0  0  0
    6.6326  -11.7079   13.2103 C   0  0  0  0  0  0  0  0  0  0  0  0
    7.9326  -11.1079   13.6103 C   0  0  0  0  0  0  0  0  0  0  0  0
  2  1  1  0
  3  1  1  0
  4  2  1  0
  5  4  2  0
  6  5  1  0
  7  3  2  3
  8  7  1  0
  9  1  2  0
 10  3  1  0
 11 10  1  0
 12  5  1  0
 13 11  2  0
 14 11  1  0
 15 14  1  0
 16  4  1  0
 17 16  2  0
 18  6  2  0
 18 17  1  0
M  END
>  <ID>  (1) 
conformer_0

$$$$
