
     RDKit          3D

 16 16  0  0  0  0  0  0  0  0999 V2000
    4.4376   -8.9486   10.6374 C   0  0  0  0  0  0  0  0  0  0  0  0
    4.9376   -9.0486   11.9374 N   0  0  0  0  0  0  0  0  0  0  0  0
    3.7376   -7.7486   10.2374 C   0  0  0  0  0  0  0  0  0  0  0  0
    4.4376   -6.5486   10.6374 O   0  0  0  0  0  0  0  0  0  0  0  0
    2.5376   -7.6486    9.4374 C   0  0  0  0  0  0  0  0  0  0  0  0
    6.3376   -8.8486   12.3374 C   0  0  0  0  0  0  0  0  0  0  0  0
    6.7376   -9.7486   13.3374 C   0  0  0  0  0  0  0  0  0  0  0  0
    8.1376   -9.7486   13.5374 C   0  0  0  0  0  0  0  0  0  0  0  0
    2.5376   -8.5486    8.2374 C   0  0  0  0  0  0  0  0  0  0  0  0
    2.1376   -6.2486    9.3374 O   0  0  0  0  0  0  0  0  0  0  0  0
    1.4376   -8.2486    7.3374 O   0  0  0  0  0  0  0  0  0  0  0  0
    8.6376  -11.1486   13.7374 C   0  0  0  0  0  0  0  0  0  0  0  0
    3.6376   -9.5486    8.3374 C   0  0  0  0  0  0  0  0  0  0  0  0
    3.8376   -9.9486    9.6374 O   0  0  0  0  0  0  0  0  0  0  0  0
    4.2376  -10.0486    7.1374 C   0  0  0  0  0  0  0  0  0  0  0  0
    3.7376   -9.3486    5.9374 O   0  0  0  0  0  0  0  0  0  0  0  0
  2  1  1  0
  3  1  1  0
  4  3  1  0
  5  3  1  0
  6  2  1  0
  7  6  1  0
  8  7  1  0
  9  5  1  0
 10  5  1  0
 11  9  1  0
 12  8  1  0
 13  9  1  0
 14  1  1  0
 14 13  1  0
 15 13  1  0
 16 15  1  0
M  END
>  <ID>  (1) 
conformer_0

$$$$
