
     RDKit          3D

 18 17  0  0  0  0  0  0  0  0999 V2000
    4.4376   -8.9486   10.6374 C   0  0  0  0  0  0  0  0  0  0  0  0
    4.9376   -9.0486   11.9374 N   0  0  0  0  0  0  0  0  0  0  0  0
    3.7376   -7.7486   10.2374 C   0  0  0  0  0  0  0  0  0  0  0  0
    4.4376   -6.5486   10.6374 O   0  0  0  0  0  0  0  0  0  0  0  0
    2.5376   -7.6486    9.4374 C   0  0  0  0  0  0  0  0  0  0  0  0
    6.1376   -9.5486   12.2374 C   0  0  0  0  0  0  0  0  0  0  0  0
    6.6376   -9.8486   13.4374 C   0  0  0  0  0  0  0  0  0  0  0  0
    7.8376   -9.0486   13.8374 C   0  0  0  0  0  0  0  0  0  0  0  0
    2.2376   -8.4486    8.3374 C   0  0  0  0  0  0  0  0  0  0  0  0
    2.1376   -6.2486    9.3374 O   0  0  0  0  0  0  0  0  0  0  0  0
    1.0376   -8.0486    7.5374 O   0  0  0  0  0  0  0  0  0  0  0  0
    3.6376  -10.1486   10.5374 O   0  0  0  0  0  0  0  0  0  0  0  0
    8.2376   -8.1486   12.7374 C   0  0  0  0  0  0  0  0  0  0  0  0
    3.9376  -11.2486   11.3374 C   0  0  0  0  0  0  0  0  0  0  0  0
    3.1376  -12.4486   10.9374 C   0  0  0  0  0  0  0  0  0  0  0  0
    3.1376  -12.6486    9.5374 O   0  0  0  0  0  0  0  0  0  0  0  0
    4.2376  -11.2486   12.6374 O   0  0  0  0  0  0  0  0  0  0  0  0
    3.4376  -13.5486   11.8374 C   0  0  0  0  0  0  0  0  0  0  0  0
  2  1  1  0
  3  1  1  0
  4  3  1  0
  5  3  1  0
  6  2  2  3
  7  6  1  0
  8  7  1  0
  9  5  1  0
 10  5  1  0
 11  9  1  0
 12  1  1  0
 13  8  1  0
 14 12  1  0
 15 14  1  0
 16 15  1  0
 17 14  2  0
 18 15  1  0
M  END
>  <ID>  (1) 
conformer_0

$$$$
