
     RDKit          3D

  9 10  0  0  0  0  0  0  0  0999 V2000
    8.1101  -10.1007   13.2930 C   0  0  0  0  0  0  0  0  0  0  0  0
    7.3101   -8.9007   13.5930 C   0  0  0  0  0  0  0  0  0  0  0  0
    8.0101  -10.5007   11.8930 C   0  0  0  0  0  0  0  0  0  0  0  0
    7.5101   -9.5007   10.9930 C   0  0  0  0  0  0  0  0  0  0  0  0
    6.4101   -8.7007   11.3930 C   0  0  0  0  0  0  0  0  0  0  0  0
    6.0101   -9.0007   12.7930 C   0  0  0  0  0  0  0  0  0  0  0  0
    9.1101  -11.3007   11.3930 C   0  0  0  0  0  0  0  0  0  0  0  0
    8.7101  -11.3007   13.8930 C   0  0  0  0  0  0  0  0  0  0  0  0
    9.1101  -12.2007   12.7930 C   0  0  0  0  0  0  0  0  0  0  0  0
  2  1  1  0
  3  1  1  0
  4  3  1  0
  5  4  1  0
  6  2  1  0
  6  5  1  0
  7  3  1  0
  8  1  1  0
  9  7  1  0
  9  8  1  0
M  END
>  <ID>  (1) 
conformer_0

$$$$
