
     RDKit          3D

 17 17  0  0  0  0  0  0  0  0999 V2000
    4.9170   -8.9600   12.0502 N   0  0  0  0  0  0  0  0  0  0  0  0
    6.1170   -9.2600   11.6502 C   0  0  0  0  0  0  0  0  0  0  0  0
    7.2170   -9.4600   12.5502 C   0  0  0  0  0  0  0  0  0  0  0  0
    7.3170   -8.6600   13.7502 C   0  0  0  0  0  0  0  0  0  0  0  0
    3.7170   -9.2600   11.4502 C   0  0  0  0  0  0  0  0  0  0  0  0
    2.8170   -8.2600   10.8502 C   0  0  0  0  0  0  0  0  0  0  0  0
    8.2170  -10.4600   12.3502 C   0  0  0  0  0  0  0  0  0  0  0  0
    3.3170   -7.4600    9.8502 C   0  0  0  0  0  0  0  0  0  0  0  0
    4.3170   -6.5600   10.4502 O   0  0  0  0  0  0  0  0  0  0  0  0
    8.6170  -11.2600   13.5502 C   0  0  0  0  0  0  0  0  0  0  0  0
    3.6170  -10.4600   10.7502 O   0  0  0  0  0  0  0  0  0  0  0  0
    3.5170   -7.9600    8.4502 C   0  0  0  0  0  0  0  0  0  0  0  0
    2.2170   -8.5600    8.0502 C   0  0  0  0  0  0  0  0  0  0  0  0
    1.1170   -8.7600    9.0502 C   0  0  0  0  0  0  0  0  0  0  0  0
    1.5170   -9.0600   10.4502 C   0  0  0  0  0  0  0  0  0  0  0  0
    2.2170   -9.0600    6.7502 O   0  0  0  0  0  0  0  0  0  0  0  0
    6.5170   -9.0600   10.2502 C   0  0  0  0  0  0  0  0  0  0  0  0
  2  1  1  0
  3  2  1  0
  4  3  1  0
  5  1  1  0
  6  5  1  0
  7  3  1  0
  8  6  1  0
  9  8  1  0
 10  7  1  0
 11  5  2  0
 12  8  1  0
 13 12  1  0
 14 13  1  0
 15  6  1  0
 15 14  1  0
 16 13  1  0
 17  2  1  0
M  END
>  <ID>  (1) 
conformer_0

$$$$
