
     RDKit          3D

  4  3  0  0  0  0  0  0  0  0999 V2000
    4.3394  -12.8847   10.0792 C   0  0  0  0  0  0  0  0  0  0  0  0
    3.6394  -13.0847    8.7792 C   0  0  0  0  0  0  0  0  0  0  0  0
    4.5394  -14.0847   10.8792 N   0  0  0  0  0  0  0  0  0  0  0  0
    4.4394  -12.4847    7.6792 O   0  0  0  0  0  0  0  0  0  0  0  0
  2  1  1  0
  3  1  1  0
  4  2  1  0
M  END
>  <ID>  (1) 
conformer_0

$$$$
