
     RDKit          3D

 18 18  0  0  0  0  0  0  0  0999 V2000
    4.9170   -8.9600   12.0502 N   0  0  0  0  0  0  0  0  0  0  0  0
    6.1170   -9.2600   11.6502 C   0  0  0  0  0  0  0  0  0  0  0  0
    7.1170   -9.2600   12.7502 C   0  0  0  0  0  0  0  0  0  0  0  0
    6.6170   -8.7600   13.9502 C   0  0  0  0  0  0  0  0  0  0  0  0
    8.5170   -9.2600   12.3502 C   0  0  0  0  0  0  0  0  0  0  0  0
    3.7170   -9.0600   11.4502 C   0  0  0  0  0  0  0  0  0  0  0  0
    3.4170   -8.3600   10.2502 C   0  0  0  0  0  0  0  0  0  0  0  0
    2.8170   -9.7600   12.1502 O   0  0  0  0  0  0  0  0  0  0  0  0
    2.5170   -7.2600    9.9502 C   0  0  0  0  0  0  0  0  0  0  0  0
    1.5170   -7.7600    8.9502 C   0  0  0  0  0  0  0  0  0  0  0  0
    2.2170   -8.6600    8.1502 C   0  0  0  0  0  0  0  0  0  0  0  0
    0.6170   -6.8600    8.4502 O   0  0  0  0  0  0  0  0  0  0  0  0
    1.8170   -8.8600    6.8502 O   0  0  0  0  0  0  0  0  0  0  0  0
    1.2170   -9.1600    9.1502 C   0  0  0  0  0  0  0  0  0  0  0  0
    4.3170   -8.8600    9.2502 O   0  0  0  0  0  0  0  0  0  0  0  0
    3.2170   -6.2600    9.1502 O   0  0  0  0  0  0  0  0  0  0  0  0
    0.2170   -9.7600    8.7502 O   0  0  0  0  0  0  0  0  0  0  0  0
    6.8170   -9.3600   10.3502 O   0  0  0  0  0  0  0  0  0  0  0  0
  2  1  1  0
  3  2  1  0
  4  3  1  0
  5  3  1  0
  6  1  1  0
  7  6  1  0
  8  6  2  0
  9  7  1  0
 10  9  1  0
 11 10  1  0
 12 10  1  0
 13 11  1  0
 14 10  1  0
 14 11  1  0
 15  7  1  0
 16  9  1  0
 17 14  1  0
 18  2  2  0
M  END
>  <ID>  (1) 
conformer_0

$$$$
