
     RDKit          3D

 17 17  0  0  0  0  0  0  0  0999 V2000
    4.4376   -8.9486   10.6374 C   0  0  0  0  0  0  0  0  0  0  0  0
    4.9376   -9.0486   11.9374 N   0  0  0  0  0  0  0  0  0  0  0  0
    3.7376   -7.7486   10.2374 C   0  0  0  0  0  0  0  0  0  0  0  0
    4.3376   -6.4486   10.6374 O   0  0  0  0  0  0  0  0  0  0  0  0
    2.5376   -7.6486    9.4374 C   0  0  0  0  0  0  0  0  0  0  0  0
    6.2376   -9.1486   12.2374 C   0  0  0  0  0  0  0  0  0  0  0  0
    6.6376   -9.6486   13.4374 C   0  0  0  0  0  0  0  0  0  0  0  0
    8.0376  -10.1486   13.3374 C   0  0  0  0  0  0  0  0  0  0  0  0
    8.3376  -11.5486   13.7374 C   0  0  0  0  0  0  0  0  0  0  0  0
    2.3376   -8.4486    8.3374 C   0  0  0  0  0  0  0  0  0  0  0  0
    2.0376   -6.2486    9.3374 O   0  0  0  0  0  0  0  0  0  0  0  0
    1.2376   -8.0486    7.4374 O   0  0  0  0  0  0  0  0  0  0  0  0
    3.9376  -10.0486   10.0374 O   0  0  0  0  0  0  0  0  0  0  0  0
    3.1376   -9.8486    8.8374 C   0  0  0  0  0  0  0  0  0  0  0  0
    2.5376  -10.9486    8.0374 C   0  0  0  0  0  0  0  0  0  0  0  0
    2.4376  -10.4486    6.6374 O   0  0  0  0  0  0  0  0  0  0  0  0
    6.9376   -7.9486   11.8374 O   0  0  0  0  0  0  0  0  0  0  0  0
  2  1  1  0
  3  1  1  0
  4  3  1  0
  5  3  2  0
  6  2  1  0
  7  6  1  0
  8  7  1  0
  9  8  1  0
 10  5  1  0
 11  5  1  0
 12 10  1  0
 13  1  1  0
 14 10  2  0
 14 13  1  0
 15 14  1  0
 16 15  1  0
 17  6  2  0
M  END
>  <ID>  (1) 
conformer_0

$$$$
