
     RDKit          3D

 18 18  0  0  0  0  0  0  0  0999 V2000
    4.4376   -8.9486   10.6374 C   0  0  0  0  0  0  0  0  0  0  0  0
    4.9376   -9.0486   11.9374 N   0  0  0  0  0  0  0  0  0  0  0  0
    3.7376   -7.7486   10.2374 C   0  0  0  0  0  0  0  0  0  0  0  0
    4.3376   -6.4486   10.6374 O   0  0  0  0  0  0  0  0  0  0  0  0
    2.5376   -7.6486    9.4374 C   0  0  0  0  0  0  0  0  0  0  0  0
    6.2376   -9.1486   12.2374 C   0  0  0  0  0  0  0  0  0  0  0  0
    6.6376   -9.6486   13.4374 C   0  0  0  0  0  0  0  0  0  0  0  0
    7.9376  -10.3486   13.5374 C   0  0  0  0  0  0  0  0  0  0  0  0
    8.3376  -10.5486   12.1374 C   0  0  0  0  0  0  0  0  0  0  0  0
    6.8376   -7.9486   11.8374 O   0  0  0  0  0  0  0  0  0  0  0  0
    9.1376  -11.7486   11.8374 C   0  0  0  0  0  0  0  0  0  0  0  0
    2.3376   -8.7486    8.4374 C   0  0  0  0  0  0  0  0  0  0  0  0
    2.8376   -9.9486    9.1374 O   0  0  0  0  0  0  0  0  0  0  0  0
    3.2376  -10.0486   10.4374 C   0  0  0  0  0  0  0  0  0  0  0  0
    9.3376  -12.4486   13.1374 C   0  0  0  0  0  0  0  0  0  0  0  0
    1.0376   -8.9486    7.7374 C   0  0  0  0  0  0  0  0  0  0  0  0
    0.6376  -10.2486    8.0374 O   0  0  0  0  0  0  0  0  0  0  0  0
    1.9376   -6.3486    9.4374 O   0  0  0  0  0  0  0  0  0  0  0  0
  2  1  1  0
  3  1  1  0
  4  3  1  0
  5  3  1  0
  6  2  1  0
  7  6  1  0
  8  7  1  0
  9  8  1  0
 10  6  1  0
 11  9  1  0
 12  5  1  0
 13 12  1  0
 14  1  1  0
 14 13  1  0
 15 11  1  0
 16 12  1  0
 17 16  1  0
 18  5  1  0
M  END
>  <ID>  (1) 
conformer_0

$$$$
