
     RDKit          3D

 17 16  0  0  0  0  0  0  0  0999 V2000
    4.4376   -8.9486   10.6374 C   0  0  0  0  0  0  0  0  0  0  0  0
    4.9376   -9.0486   11.9374 N   0  0  0  0  0  0  0  0  0  0  0  0
    3.7376   -7.7486   10.2374 C   0  0  0  0  0  0  0  0  0  0  0  0
    4.3376   -6.4486   10.6374 O   0  0  0  0  0  0  0  0  0  0  0  0
    2.5376   -7.6486    9.4374 C   0  0  0  0  0  0  0  0  0  0  0  0
    6.2376   -9.1486   12.2374 C   0  0  0  0  0  0  0  0  0  0  0  0
    6.6376   -9.6486   13.4374 C   0  0  0  0  0  0  0  0  0  0  0  0
    7.9376  -10.3486   13.5374 C   0  0  0  0  0  0  0  0  0  0  0  0
    8.3376  -10.6486   12.1374 C   0  0  0  0  0  0  0  0  0  0  0  0
    2.0376   -6.2486    9.3374 O   0  0  0  0  0  0  0  0  0  0  0  0
    1.8376   -8.6486    8.7374 C   0  0  0  0  0  0  0  0  0  0  0  0
    1.6376   -8.2486    7.3374 O   0  0  0  0  0  0  0  0  0  0  0  0
    6.7376   -7.8486   12.0374 O   0  0  0  0  0  0  0  0  0  0  0  0
    8.5376   -9.5486   11.3374 C   0  0  0  0  0  0  0  0  0  0  0  0
    1.1376   -9.7486    9.2374 C   0  0  0  0  0  0  0  0  0  0  0  0
    1.2376  -10.8486    8.2374 O   0  0  0  0  0  0  0  0  0  0  0  0
    5.3376   -9.2486    9.5374 O   0  0  0  0  0  0  0  0  0  0  0  0
  2  1  1  0
  3  1  1  0
  4  3  1  0
  5  3  2  3
  6  2  1  0
  7  6  1  0
  8  7  1  0
  9  8  1  0
 10  5  1  0
 11  5  1  0
 12 11  1  0
 13  6  1  0
 14  9  2  0
 15 11  1  0
 16 15  1  0
 17  1  1  0
M  END
>  <ID>  (1) 
conformer_0

$$$$
