
     RDKit          3D

 15 14  0  0  0  0  0  0  0  0999 V2000
    4.4376   -8.9486   10.6374 C   0  0  0  0  0  0  0  0  0  0  0  0
    4.9376   -9.0486   11.9374 N   0  0  0  0  0  0  0  0  0  0  0  0
    3.7376   -7.7486   10.2374 C   0  0  0  0  0  0  0  0  0  0  0  0
    4.3376   -6.4486   10.6374 O   0  0  0  0  0  0  0  0  0  0  0  0
    2.5376   -7.6486    9.4374 C   0  0  0  0  0  0  0  0  0  0  0  0
    6.1376   -9.4486   12.4374 C   0  0  0  0  0  0  0  0  0  0  0  0
    6.8376  -10.3486   12.9374 C   0  0  0  0  0  0  0  0  0  0  0  0
    8.1376  -10.0486   13.5374 C   0  0  0  0  0  0  0  0  0  0  0  0
    2.2376   -8.5486    8.3374 C   0  0  0  0  0  0  0  0  0  0  0  0
    2.0376   -6.2486    9.3374 O   0  0  0  0  0  0  0  0  0  0  0  0
    1.5376   -8.1486    7.2374 O   0  0  0  0  0  0  0  0  0  0  0  0
    8.4376   -8.7486   13.7374 C   0  0  0  0  0  0  0  0  0  0  0  0
    5.5376   -9.0486    9.8374 O   0  0  0  0  0  0  0  0  0  0  0  0
    2.1376   -9.9486    8.7374 C   0  0  0  0  0  0  0  0  0  0  0  0
    1.2376  -10.7486    8.2374 O   0  0  0  0  0  0  0  0  0  0  0  0
  2  1  1  0
  3  1  1  0
  4  3  1  0
  5  3  1  0
  6  2  1  0
  7  6  2  3
  8  7  1  0
  9  5  1  0
 10  5  1  0
 11  9  1  0
 12  8  2  0
 13  1  1  0
 14  9  1  0
 15 14  1  0
M  END
>  <ID>  (1) 
conformer_0

$$$$
