
     RDKit          3D

 15 14  0  0  0  0  0  0  0  0999 V2000
    4.4376   -8.9486   10.6374 C   0  0  0  0  0  0  0  0  0  0  0  0
    4.9376   -9.0486   11.9374 N   0  0  0  0  0  0  0  0  0  0  0  0
    3.7376   -7.7486   10.2374 C   0  0  0  0  0  0  0  0  0  0  0  0
    4.4376   -6.5486   10.6374 O   0  0  0  0  0  0  0  0  0  0  0  0
    2.5376   -7.6486    9.4374 C   0  0  0  0  0  0  0  0  0  0  0  0
    6.1376   -9.5486   12.2374 C   0  0  0  0  0  0  0  0  0  0  0  0
    6.6376   -9.8486   13.4374 C   0  0  0  0  0  0  0  0  0  0  0  0
    7.8376   -9.0486   13.8374 C   0  0  0  0  0  0  0  0  0  0  0  0
    2.2376   -8.4486    8.3374 C   0  0  0  0  0  0  0  0  0  0  0  0
    2.1376   -6.2486    9.3374 O   0  0  0  0  0  0  0  0  0  0  0  0
    1.2376   -8.0486    7.3374 O   0  0  0  0  0  0  0  0  0  0  0  0
    5.2376   -9.6486    9.8374 O   0  0  0  0  0  0  0  0  0  0  0  0
    8.4376   -8.4486   12.6374 C   0  0  0  0  0  0  0  0  0  0  0  0
    1.8376   -9.8486    8.5374 C   0  0  0  0  0  0  0  0  0  0  0  0
    1.8376  -10.6486    7.5374 O   0  0  0  0  0  0  0  0  0  0  0  0
  2  1  1  0
  3  1  1  0
  4  3  1  0
  5  3  1  0
  6  2  2  3
  7  6  1  0
  8  7  1  0
  9  5  1  0
 10  5  1  0
 11  9  1  0
 12  1  2  0
 13  8  1  0
 14  9  1  0
 15 14  2  0
M  END
>  <ID>  (1) 
conformer_0

$$$$
