
     RDKit          3D

 17 17  0  0  0  0  0  0  0  0999 V2000
    4.4376   -8.9486   10.6374 C   0  0  0  0  0  0  0  0  0  0  0  0
    4.9376   -9.0486   11.9374 N   0  0  0  0  0  0  0  0  0  0  0  0
    3.7376   -7.7486   10.2374 C   0  0  0  0  0  0  0  0  0  0  0  0
    4.4376   -6.5486   10.6374 O   0  0  0  0  0  0  0  0  0  0  0  0
    2.5376   -7.6486    9.4374 C   0  0  0  0  0  0  0  0  0  0  0  0
    6.1376   -9.5486   12.2374 C   0  0  0  0  0  0  0  0  0  0  0  0
    6.6376   -9.8486   13.4374 C   0  0  0  0  0  0  0  0  0  0  0  0
    8.0376  -10.0486   13.5374 C   0  0  0  0  0  0  0  0  0  0  0  0
    2.2376   -8.4486    8.2374 C   0  0  0  0  0  0  0  0  0  0  0  0
    1.1376   -8.0486    7.3374 O   0  0  0  0  0  0  0  0  0  0  0  0
    2.0376   -6.3486    9.4374 O   0  0  0  0  0  0  0  0  0  0  0  0
    8.6376  -11.3486   13.8374 C   0  0  0  0  0  0  0  0  0  0  0  0
    5.1376   -9.6486    9.6374 O   0  0  0  0  0  0  0  0  0  0  0  0
    3.1376   -9.5486    7.9374 C   0  0  0  0  0  0  0  0  0  0  0  0
    2.6376  -10.6486    7.1374 O   0  0  0  0  0  0  0  0  0  0  0  0
    4.5376   -9.3486    8.4374 C   0  0  0  0  0  0  0  0  0  0  0  0
    5.4376   -9.4486    7.3374 O   0  0  0  0  0  0  0  0  0  0  0  0
  2  1  1  0
  3  1  1  0
  4  3  1  0
  5  3  1  0
  6  2  2  3
  7  6  1  0
  8  7  1  0
  9  5  1  0
 10  9  1  0
 11  5  1  0
 12  8  1  0
 13  1  1  0
 14  9  1  0
 15 14  1  0
 16 13  1  0
 16 14  1  0
 17 16  2  0
M  END
>  <ID>  (1) 
conformer_0

$$$$
