
     RDKit          3D

 16 16  0  0  0  0  0  0  0  0999 V2000
    4.4376   -8.9486   10.6374 C   0  0  0  0  0  0  0  0  0  0  0  0
    4.9376   -9.0486   11.9374 N   0  0  0  0  0  0  0  0  0  0  0  0
    3.7376   -7.7486   10.2374 C   0  0  0  0  0  0  0  0  0  0  0  0
    4.4376   -6.5486   10.6374 O   0  0  0  0  0  0  0  0  0  0  0  0
    2.5376   -7.6486    9.4374 C   0  0  0  0  0  0  0  0  0  0  0  0
    6.1376   -9.5486   12.2374 C   0  0  0  0  0  0  0  0  0  0  0  0
    6.8376   -9.2486   13.4374 C   0  0  0  0  0  0  0  0  0  0  0  0
    8.2376   -8.9486   13.6374 C   0  0  0  0  0  0  0  0  0  0  0  0
    4.0376  -10.0486    9.9374 O   0  0  0  0  0  0  0  0  0  0  0  0
    2.3376   -8.6486    8.3374 C   0  0  0  0  0  0  0  0  0  0  0  0
    2.0376   -6.4486    9.3374 O   0  0  0  0  0  0  0  0  0  0  0  0
    1.4376   -8.2486    7.3374 O   0  0  0  0  0  0  0  0  0  0  0  0
    3.1376   -9.8486    8.7374 C   0  0  0  0  0  0  0  0  0  0  0  0
    2.8376  -11.0486    7.9374 C   0  0  0  0  0  0  0  0  0  0  0  0
    2.5376  -10.6486    6.6374 O   0  0  0  0  0  0  0  0  0  0  0  0
    6.8376  -10.3486   11.3374 O   0  0  0  0  0  0  0  0  0  0  0  0
  2  1  1  0
  3  1  1  0
  4  3  1  0
  5  3  2  0
  6  2  1  0
  7  6  1  0
  8  7  1  0
  9  1  1  0
 10  5  1  0
 11  5  1  0
 12 10  1  0
 13  9  1  0
 13 10  2  0
 14 13  1  0
 15 14  1  0
 16  6  2  0
M  END
>  <ID>  (1) 
conformer_0

$$$$
