
     RDKit          3D

 15 14  0  0  0  0  0  0  0  0999 V2000
    4.4376   -8.9486   10.6374 C   0  0  0  0  0  0  0  0  0  0  0  0
    4.9376   -9.0486   11.9374 N   0  0  0  0  0  0  0  0  0  0  0  0
    3.7376   -7.7486   10.2374 C   0  0  0  0  0  0  0  0  0  0  0  0
    4.4376   -6.5486   10.6374 O   0  0  0  0  0  0  0  0  0  0  0  0
    2.5376   -7.6486    9.4374 C   0  0  0  0  0  0  0  0  0  0  0  0
    6.1376   -9.5486   12.2374 C   0  0  0  0  0  0  0  0  0  0  0  0
    6.6376   -9.8486   13.4374 C   0  0  0  0  0  0  0  0  0  0  0  0
    8.0376  -10.0486   13.5374 C   0  0  0  0  0  0  0  0  0  0  0  0
    1.9376   -6.3486    9.3374 O   0  0  0  0  0  0  0  0  0  0  0  0
    8.6376  -11.3486   13.8374 C   0  0  0  0  0  0  0  0  0  0  0  0
    2.3376   -8.5486    8.3374 C   0  0  0  0  0  0  0  0  0  0  0  0
    1.4376   -8.0486    7.4374 O   0  0  0  0  0  0  0  0  0  0  0  0
    5.3376   -9.5486    9.8374 O   0  0  0  0  0  0  0  0  0  0  0  0
    2.0376   -9.9486    8.7374 C   0  0  0  0  0  0  0  0  0  0  0  0
    1.6376  -10.7486    7.7374 O   0  0  0  0  0  0  0  0  0  0  0  0
  2  1  1  0
  3  1  1  0
  4  3  1  0
  5  3  1  0
  6  2  2  3
  7  6  1  0
  8  7  1  0
  9  5  1  0
 10  8  1  0
 11  5  1  0
 12 11  1  0
 13  1  2  0
 14 11  1  0
 15 14  1  0
M  END
>  <ID>  (1) 
conformer_0

$$$$
