
     RDKit          3D

 16 16  0  0  0  0  0  0  0  0999 V2000
    4.4376   -8.9486   10.6374 C   0  0  0  0  0  0  0  0  0  0  0  0
    4.9376   -9.0486   11.9374 N   0  0  0  0  0  0  0  0  0  0  0  0
    4.5376   -9.8486    9.7374 O   0  0  0  0  0  0  0  0  0  0  0  0
    3.4376   -7.8486   10.4374 C   0  0  0  0  0  0  0  0  0  0  0  0
    4.1376   -6.5486   10.6374 O   0  0  0  0  0  0  0  0  0  0  0  0
    6.3376   -8.9486   12.3374 C   0  0  0  0  0  0  0  0  0  0  0  0
    6.8376  -10.1486   13.0374 C   0  0  0  0  0  0  0  0  0  0  0  0
    8.1376  -10.6486   12.7374 C   0  0  0  0  0  0  0  0  0  0  0  0
    8.6376  -11.8486   13.2374 C   0  0  0  0  0  0  0  0  0  0  0  0
    2.5376   -7.8486    9.3374 C   0  0  0  0  0  0  0  0  0  0  0  0
    2.4376   -8.9486    8.3374 C   0  0  0  0  0  0  0  0  0  0  0  0
    1.7376   -8.5486    7.1374 O   0  0  0  0  0  0  0  0  0  0  0  0
    1.9376   -6.6486    9.0374 O   0  0  0  0  0  0  0  0  0  0  0  0
    3.6376   -9.7486    8.5374 C   0  0  0  0  0  0  0  0  0  0  0  0
    3.7376  -10.8486    7.5374 C   0  0  0  0  0  0  0  0  0  0  0  0
    2.8376  -10.8486    6.4374 O   0  0  0  0  0  0  0  0  0  0  0  0
  2  1  1  0
  3  1  1  0
  4  1  1  0
  5  4  1  0
  6  2  1  0
  7  6  1  0
  8  7  2  3
  9  8  1  0
 10  4  2  0
 11 10  1  0
 12 11  1  0
 13 10  1  0
 14  3  1  0
 14 11  2  0
 15 14  1  0
 16 15  1  0
M  END
>  <ID>  (1) 
conformer_0

$$$$
