
     RDKit          3D

 11 10  0  0  0  0  0  0  0  0999 V2000
    4.8399   -8.5733   10.6771 C   0  0  0  0  0  0  0  0  0  0  0  0
    4.8399   -9.1733   11.9771 N   0  0  0  0  0  0  0  0  0  0  0  0
    3.6399   -7.7733   10.3771 C   0  0  0  0  0  0  0  0  0  0  0  0
    5.9399   -9.0733   12.7771 C   0  0  0  0  0  0  0  0  0  0  0  0
    5.9399   -8.9733   13.9771 O   0  0  0  0  0  0  0  0  0  0  0  0
    4.0399   -6.3733   10.5771 O   0  0  0  0  0  0  0  0  0  0  0  0
    7.1399   -9.0733   11.8771 C   0  0  0  0  0  0  0  0  0  0  0  0
    2.6399   -7.8733    9.2771 C   0  0  0  0  0  0  0  0  0  0  0  0
    1.8399   -6.6733    9.0771 O   0  0  0  0  0  0  0  0  0  0  0  0
    2.9399   -8.7733    8.1771 C   0  0  0  0  0  0  0  0  0  0  0  0
    1.8399   -8.5733    7.1771 O   0  0  0  0  0  0  0  0  0  0  0  0
  2  1  1  0
  3  1  1  0
  4  2  1  0
  5  4  2  0
  6  3  1  0
  7  4  1  0
  8  3  1  0
  9  8  1  0
 10  8  1  0
 11 10  1  0
M  END
>  <ID>  (1) 
conformer_0

$$$$
