
     RDKit          3D

 18 19  0  0  0  0  0  0  0  0999 V2000
    4.8399   -8.5733   10.6771 C   0  0  0  0  0  0  0  0  0  0  0  0
    4.8399   -9.1733   11.9771 N   0  0  0  0  0  0  0  0  0  0  0  0
    3.6399   -7.7733   10.3771 C   0  0  0  0  0  0  0  0  0  0  0  0
    5.9399   -9.0733   12.7771 C   0  0  0  0  0  0  0  0  0  0  0  0
    5.9399   -8.9733   13.9771 O   0  0  0  0  0  0  0  0  0  0  0  0
    7.0399   -8.6733   11.8771 C   0  0  0  0  0  0  0  0  0  0  0  0
    3.9399   -6.3733   10.4771 O   0  0  0  0  0  0  0  0  0  0  0  0
    2.6399   -7.9733    9.2771 C   0  0  0  0  0  0  0  0  0  0  0  0
    8.2399   -9.3733   11.8771 C   0  0  0  0  0  0  0  0  0  0  0  0
    2.8399   -8.6733    8.0771 C   0  0  0  0  0  0  0  0  0  0  0  0
    1.9399   -8.6733    6.9771 O   0  0  0  0  0  0  0  0  0  0  0  0
    1.7399   -6.8733    9.0771 O   0  0  0  0  0  0  0  0  0  0  0  0
    7.0399   -9.5733   10.8771 O   0  0  0  0  0  0  0  0  0  0  0  0
    5.0399   -9.4733    9.6771 O   0  0  0  0  0  0  0  0  0  0  0  0
    3.5399   -9.9733    8.0771 C   0  0  0  0  0  0  0  0  0  0  0  0
    3.1399  -10.9733    7.1771 O   0  0  0  0  0  0  0  0  0  0  0  0
    3.8399  -10.2733    9.4771 C   0  0  0  0  0  0  0  0  0  0  0  0
    2.8399  -10.6733   10.2771 O   0  0  0  0  0  0  0  0  0  0  0  0
  2  1  1  0
  3  1  1  0
  4  2  1  0
  5  4  2  0
  6  4  1  0
  7  3  1  0
  8  3  1  0
  9  6  1  0
 10  8  1  0
 11 10  1  0
 12  8  1  0
 13  6  1  0
 13  9  1  0
 14  1  1  0
 15 10  1  0
 16 15  1  0
 17 14  1  0
 17 15  1  0
 18 17  2  0
M  END
>  <ID>  (1) 
conformer_0

$$$$
