
     RDKit          3D

 11 14  0  0  0  0  0  0  0  0999 V2000
    6.0868   -9.2744   12.0971 C   0  0  0  0  0  0  0  0  0  0  0  0
    6.7868   -8.7744   13.2971 C   0  0  0  0  0  0  0  0  0  0  0  0
    5.6868   -8.2744   11.0971 C   0  0  0  0  0  0  0  0  0  0  0  0
    8.0868   -9.0744   13.6971 C   0  0  0  0  0  0  0  0  0  0  0  0
    5.4868   -7.1744   10.5971 O   0  0  0  0  0  0  0  0  0  0  0  0
    4.8868  -10.0744   12.4971 C   0  0  0  0  0  0  0  0  0  0  0  0
    3.7868  -10.2744   11.4971 C   0  0  0  0  0  0  0  0  0  0  0  0
    3.3868   -9.2744   10.5971 C   0  0  0  0  0  0  0  0  0  0  0  0
    4.4868  -10.1744   10.1971 O   0  0  0  0  0  0  0  0  0  0  0  0
    4.2868   -7.9744   10.6971 C   0  0  0  0  0  0  0  0  0  0  0  0
    7.0868   -9.9744   13.9971 O   0  0  0  0  0  0  0  0  0  0  0  0
  2  1  1  0
  3  1  1  0
  4  2  1  0
  5  3  1  0
  6  1  1  0
  7  6  1  0
  8  7  1  0
  9  7  1  0
  9  8  1  0
 10  3  1  0
 10  5  1  0
 10  8  1  0
 11  2  1  0
 11  4  1  0
M  END
>  <ID>  (1) 
conformer_0

$$$$
