
     RDKit          3D

 15 14  0  0  0  0  0  0  0  0999 V2000
    4.4376   -8.9486   10.6374 C   0  0  0  0  0  0  0  0  0  0  0  0
    4.9376   -9.0486   11.9374 N   0  0  0  0  0  0  0  0  0  0  0  0
    3.7376   -7.7486   10.2374 C   0  0  0  0  0  0  0  0  0  0  0  0
    4.3376   -6.4486   10.6374 O   0  0  0  0  0  0  0  0  0  0  0  0
    2.5376   -7.6486    9.4374 C   0  0  0  0  0  0  0  0  0  0  0  0
    6.2376   -9.1486   12.2374 C   0  0  0  0  0  0  0  0  0  0  0  0
    6.6376   -9.6486   13.4374 C   0  0  0  0  0  0  0  0  0  0  0  0
    8.0376  -10.1486   13.3374 C   0  0  0  0  0  0  0  0  0  0  0  0
    8.3376  -11.5486   13.7374 C   0  0  0  0  0  0  0  0  0  0  0  0
    2.1376   -8.4486    8.2374 C   0  0  0  0  0  0  0  0  0  0  0  0
    2.0376   -6.2486    9.4374 O   0  0  0  0  0  0  0  0  0  0  0  0
    1.1376   -7.8486    7.4374 O   0  0  0  0  0  0  0  0  0  0  0  0
    5.2376   -9.4486    9.6374 O   0  0  0  0  0  0  0  0  0  0  0  0
    1.6376   -9.8486    8.4374 C   0  0  0  0  0  0  0  0  0  0  0  0
    1.6376  -10.5486    7.1374 O   0  0  0  0  0  0  0  0  0  0  0  0
  2  1  1  0
  3  1  1  0
  4  3  1  0
  5  3  1  0
  6  2  1  0
  7  6  1  0
  8  7  1  0
  9  8  1  0
 10  5  1  0
 11  5  1  0
 12 10  1  0
 13  1  2  0
 14 10  1  0
 15 14  1  0
M  END
>  <ID>  (1) 
conformer_0

$$$$
