
     RDKit          3D

 16 16  0  0  0  0  0  0  0  0999 V2000
    4.4376   -8.9486   10.6374 C   0  0  0  0  0  0  0  0  0  0  0  0
    4.9376   -9.0486   11.9374 N   0  0  0  0  0  0  0  0  0  0  0  0
    3.7376   -7.7486   10.2374 C   0  0  0  0  0  0  0  0  0  0  0  0
    4.4376   -6.5486   10.6374 O   0  0  0  0  0  0  0  0  0  0  0  0
    2.5376   -7.6486    9.4374 C   0  0  0  0  0  0  0  0  0  0  0  0
    6.3376   -8.8486   12.3374 C   0  0  0  0  0  0  0  0  0  0  0  0
    6.7376   -9.7486   13.3374 C   0  0  0  0  0  0  0  0  0  0  0  0
    8.1376   -9.7486   13.5374 C   0  0  0  0  0  0  0  0  0  0  0  0
    2.3376   -8.6486    8.3374 C   0  0  0  0  0  0  0  0  0  0  0  0
    1.9376   -6.3486    9.4374 O   0  0  0  0  0  0  0  0  0  0  0  0
    1.3376   -8.1486    7.4374 O   0  0  0  0  0  0  0  0  0  0  0  0
    8.7376  -11.0486   13.8374 C   0  0  0  0  0  0  0  0  0  0  0  0
    4.0376  -10.0486    9.9374 O   0  0  0  0  0  0  0  0  0  0  0  0
    3.4376   -9.7486    8.6374 C   0  0  0  0  0  0  0  0  0  0  0  0
    3.2376  -10.8486    7.7374 C   0  0  0  0  0  0  0  0  0  0  0  0
    2.5376  -10.5486    6.6374 O   0  0  0  0  0  0  0  0  0  0  0  0
  2  1  1  0
  3  1  1  0
  4  3  1  0
  5  3  1  0
  6  2  1  0
  7  6  1  0
  8  7  1  0
  9  5  2  0
 10  5  1  0
 11  9  1  0
 12  8  1  0
 13  1  1  0
 14  9  1  0
 14 13  1  0
 15 14  1  0
 16 15  1  0
M  END
>  <ID>  (1) 
conformer_0

$$$$
