
     RDKit          3D

 17 16  0  0  0  0  0  0  0  0999 V2000
    4.4376   -8.9486   10.6374 C   0  0  0  0  0  0  0  0  0  0  0  0
    4.9376   -9.0486   11.9374 N   0  0  0  0  0  0  0  0  0  0  0  0
    6.2376   -8.8486   12.2374 C   0  0  0  0  0  0  0  0  0  0  0  0
    7.0376   -9.7486   13.0374 C   0  0  0  0  0  0  0  0  0  0  0  0
    8.2376   -9.2486   13.7374 C   0  0  0  0  0  0  0  0  0  0  0  0
    3.4376   -8.0486   10.1374 C   0  0  0  0  0  0  0  0  0  0  0  0
    6.6376   -7.6486   11.7374 O   0  0  0  0  0  0  0  0  0  0  0  0
    3.9376   -6.6486   10.2374 O   0  0  0  0  0  0  0  0  0  0  0  0
    2.3376   -8.2486    9.3374 C   0  0  0  0  0  0  0  0  0  0  0  0
    2.0376   -8.7486    8.0374 C   0  0  0  0  0  0  0  0  0  0  0  0
    1.2376   -8.1486    7.1374 O   0  0  0  0  0  0  0  0  0  0  0  0
    2.8376   -9.8486    7.4374 C   0  0  0  0  0  0  0  0  0  0  0  0
    2.2376  -10.4486    6.3374 O   0  0  0  0  0  0  0  0  0  0  0  0
    6.6376  -11.1486   13.3374 C   0  0  0  0  0  0  0  0  0  0  0  0
    5.8376  -11.1486   14.4374 O   0  0  0  0  0  0  0  0  0  0  0  0
    1.4376   -7.0486    9.3374 O   0  0  0  0  0  0  0  0  0  0  0  0
    5.5376   -9.2486    9.7374 C   0  0  0  0  0  0  0  0  0  0  0  0
  2  1  1  0
  3  2  1  0
  4  3  1  0
  5  4  1  0
  6  1  1  0
  7  3  2  0
  8  6  1  0
  9  6  1  0
 10  9  1  0
 11 10  1  0
 12 10  1  0
 13 12  1  0
 14  4  1  0
 15 14  1  0
 16  9  1  0
 17  1  1  0
M  END
>  <ID>  (1) 
conformer_0

$$$$
