
     RDKit          3D

 17 17  0  0  0  0  0  0  0  0999 V2000
    4.4376   -8.9486   10.6374 C   0  0  0  0  0  0  0  0  0  0  0  0
    4.9376   -9.0486   11.9374 N   0  0  0  0  0  0  0  0  0  0  0  0
    6.3376   -8.7486   12.1374 C   0  0  0  0  0  0  0  0  0  0  0  0
    6.9376   -9.5486   13.2374 C   0  0  0  0  0  0  0  0  0  0  0  0
    8.2376   -9.0486   13.6374 C   0  0  0  0  0  0  0  0  0  0  0  0
    3.6376   -7.8486   10.1374 C   0  0  0  0  0  0  0  0  0  0  0  0
    4.0376   -6.5486   10.6374 O   0  0  0  0  0  0  0  0  0  0  0  0
    2.6376   -8.0486    9.1374 C   0  0  0  0  0  0  0  0  0  0  0  0
    3.7376  -10.1486   10.4374 O   0  0  0  0  0  0  0  0  0  0  0  0
    6.1376  -10.6486   13.5374 C   0  0  0  0  0  0  0  0  0  0  0  0
    1.7376   -9.2486    9.1374 C   0  0  0  0  0  0  0  0  0  0  0  0
    0.5376   -9.1486    8.8374 O   0  0  0  0  0  0  0  0  0  0  0  0
    1.7376   -6.9486    8.8374 O   0  0  0  0  0  0  0  0  0  0  0  0
    2.3376  -10.1486   10.1374 C   0  0  0  0  0  0  0  0  0  0  0  0
    1.3376  -11.1486   10.6374 C   0  0  0  0  0  0  0  0  0  0  0  0
    0.1376  -11.3486    9.8374 O   0  0  0  0  0  0  0  0  0  0  0  0
    4.8376  -10.6486   13.6374 O   0  0  0  0  0  0  0  0  0  0  0  0
  2  1  1  0
  3  2  1  0
  4  3  1  0
  5  4  1  0
  6  1  1  0
  7  6  1  0
  8  6  1  0
  9  1  1  0
 10  4  1  0
 11  8  1  0
 12 11  2  0
 13  8  1  0
 14  9  1  0
 14 11  1  0
 15 14  1  0
 16 15  1  0
 17 10  1  0
M  END
>  <ID>  (1) 
conformer_0

$$$$
