
     RDKit          3D

 18 19  0  0  0  0  0  0  0  0999 V2000
    4.9170   -8.9600   12.0502 N   0  0  0  0  0  0  0  0  0  0  0  0
    6.1170   -9.2600   11.6502 C   0  0  0  0  0  0  0  0  0  0  0  0
    7.2170   -9.4600   12.5502 C   0  0  0  0  0  0  0  0  0  0  0  0
    7.3170   -8.6600   13.7502 C   0  0  0  0  0  0  0  0  0  0  0  0
    3.7170   -9.2600   11.4502 C   0  0  0  0  0  0  0  0  0  0  0  0
    2.8170   -8.2600   10.8502 C   0  0  0  0  0  0  0  0  0  0  0  0
    8.0170  -10.6600   12.6502 C   0  0  0  0  0  0  0  0  0  0  0  0
    2.1170   -8.9600    9.7502 C   0  0  0  0  0  0  0  0  0  0  0  0
    3.3170  -10.5600   11.2502 O   0  0  0  0  0  0  0  0  0  0  0  0
    8.4170  -11.3600   13.8502 C   0  0  0  0  0  0  0  0  0  0  0  0
    3.6170   -7.1600   10.2502 C   0  0  0  0  0  0  0  0  0  0  0  0
    4.5170   -6.3600   10.4502 O   0  0  0  0  0  0  0  0  0  0  0  0
    2.3170   -8.3600    8.4502 C   0  0  0  0  0  0  0  0  0  0  0  0
    1.3170   -8.0600    7.5502 O   0  0  0  0  0  0  0  0  0  0  0  0
    3.7170   -8.2600    8.0502 C   0  0  0  0  0  0  0  0  0  0  0  0
    4.2170   -8.6600    6.8502 O   0  0  0  0  0  0  0  0  0  0  0  0
    5.0170   -7.5600   10.0502 C   0  0  0  0  0  0  0  0  0  0  0  0
    4.8170   -8.6600    8.9502 C   0  0  0  0  0  0  0  0  0  0  0  0
  2  1  1  0
  3  2  1  0
  4  3  1  0
  5  1  1  0
  6  5  1  0
  7  3  1  0
  8  6  1  0
  9  5  2  0
 10  7  1  0
 11  6  1  0
 12 11  1  0
 13  8  1  0
 14 13  1  0
 15 13  1  0
 16 15  1  0
 17 11  1  0
 17 12  1  0
 18 15  1  0
 18 17  1  0
M  END
>  <ID>  (1) 
conformer_0

$$$$
