
     RDKit          3D

 16 16  0  0  0  0  0  0  0  0999 V2000
    4.4376   -8.9486   10.6374 C   0  0  0  0  0  0  0  0  0  0  0  0
    4.9376   -9.0486   11.9374 N   0  0  0  0  0  0  0  0  0  0  0  0
    6.2376   -8.8486   12.2374 C   0  0  0  0  0  0  0  0  0  0  0  0
    7.0376   -9.7486   13.0374 C   0  0  0  0  0  0  0  0  0  0  0  0
    8.2376   -9.2486   13.7374 C   0  0  0  0  0  0  0  0  0  0  0  0
    3.3376   -8.0486   10.3374 C   0  0  0  0  0  0  0  0  0  0  0  0
    6.7376   -7.7486   11.7374 O   0  0  0  0  0  0  0  0  0  0  0  0
    3.6376   -6.6486   10.4374 O   0  0  0  0  0  0  0  0  0  0  0  0
    2.3376   -8.4486    9.3374 C   0  0  0  0  0  0  0  0  0  0  0  0
    2.7376   -9.8486    9.0374 O   0  0  0  0  0  0  0  0  0  0  0  0
    4.0376  -10.1486    9.6374 C   0  0  0  0  0  0  0  0  0  0  0  0
    6.9376  -11.1486   13.0374 C   0  0  0  0  0  0  0  0  0  0  0  0
    6.8376  -11.9486   14.2374 O   0  0  0  0  0  0  0  0  0  0  0  0
    1.3376   -7.7486    8.6374 C   0  0  0  0  0  0  0  0  0  0  0  0
    1.1376   -7.8486    7.3374 O   0  0  0  0  0  0  0  0  0  0  0  0
    5.0376  -10.2486    8.7374 O   0  0  0  0  0  0  0  0  0  0  0  0
  2  1  1  0
  3  2  1  0
  4  3  1  0
  5  4  1  0
  6  1  1  0
  7  3  2  0
  8  6  1  0
  9  6  1  0
 10  9  1  0
 11  1  1  0
 11 10  1  0
 12  4  1  0
 13 12  1  0
 14  9  1  0
 15 14  1  0
 16 11  1  0
M  END
>  <ID>  (1) 
conformer_0

$$$$
