
     RDKit          3D

 17 17  0  0  0  0  0  0  0  0999 V2000
    4.4376   -8.9486   10.6374 C   0  0  0  0  0  0  0  0  0  0  0  0
    4.9376   -9.0486   11.9374 N   0  0  0  0  0  0  0  0  0  0  0  0
    6.2376   -8.8486   12.2374 C   0  0  0  0  0  0  0  0  0  0  0  0
    7.0376   -9.7486   13.0374 C   0  0  0  0  0  0  0  0  0  0  0  0
    8.1376   -9.0486   13.6374 C   0  0  0  0  0  0  0  0  0  0  0  0
    3.3376   -8.0486   10.4374 C   0  0  0  0  0  0  0  0  0  0  0  0
    6.7376   -7.7486   11.8374 O   0  0  0  0  0  0  0  0  0  0  0  0
    3.6376   -6.6486   10.6374 O   0  0  0  0  0  0  0  0  0  0  0  0
    2.2376   -8.4486    9.5374 C   0  0  0  0  0  0  0  0  0  0  0  0
    2.5376   -9.8486    9.1374 O   0  0  0  0  0  0  0  0  0  0  0  0
    6.1376  -10.8486   13.4374 C   0  0  0  0  0  0  0  0  0  0  0  0
    3.7376  -10.2486    9.9374 C   0  0  0  0  0  0  0  0  0  0  0  0
    3.5376  -11.2486   10.8374 O   0  0  0  0  0  0  0  0  0  0  0  0
    1.2376   -7.6486    8.9374 C   0  0  0  0  0  0  0  0  0  0  0  0
    0.9376   -7.7486    7.5374 O   0  0  0  0  0  0  0  0  0  0  0  0
    5.2376  -10.7486   14.3374 O   0  0  0  0  0  0  0  0  0  0  0  0
    6.5376  -12.1486   12.9374 C   0  0  0  0  0  0  0  0  0  0  0  0
  2  1  1  0
  3  2  1  0
  4  3  1  0
  5  4  1  0
  6  1  1  0
  7  3  2  0
  8  6  1  0
  9  6  1  0
 10  9  1  0
 11  4  1  0
 12  1  1  0
 12 10  1  0
 13 12  1  0
 14  9  1  0
 15 14  1  0
 16 11  2  0
 17 11  1  0
M  END
>  <ID>  (1) 
conformer_0

$$$$
