
     RDKit          3D

 13 12  0  0  0  0  0  0  0  0999 V2000
    3.2075   -8.6090   10.9039 C   0  0  0  0  0  0  0  0  0  0  0  0
    4.4075   -9.0090   11.6039 N   0  0  0  0  0  0  0  0  0  0  0  0
    3.5075   -7.4090   10.1039 C   0  0  0  0  0  0  0  0  0  0  0  0
    4.2075   -6.3090   10.5039 O   0  0  0  0  0  0  0  0  0  0  0  0
    5.7075   -8.4090   11.2039 C   0  0  0  0  0  0  0  0  0  0  0  0
    6.6075   -8.7090   12.2039 C   0  0  0  0  0  0  0  0  0  0  0  0
    6.1075   -9.1090   13.5039 C   0  0  0  0  0  0  0  0  0  0  0  0
    5.1075  -10.0090   13.6039 O   0  0  0  0  0  0  0  0  0  0  0  0
    2.5075   -9.7090   10.2039 C   0  0  0  0  0  0  0  0  0  0  0  0
    3.0075   -9.8090    8.8039 O   0  0  0  0  0  0  0  0  0  0  0  0
    1.2075  -10.3090   10.4039 C   0  0  0  0  0  0  0  0  0  0  0  0
    0.6075  -11.1090    9.5039 O   0  0  0  0  0  0  0  0  0  0  0  0
    6.9075   -8.6090   14.5039 O   0  0  0  0  0  0  0  0  0  0  0  0
  2  1  1  0
  3  1  1  0
  4  3  1  0
  5  2  1  0
  6  5  1  0
  7  6  1  0
  8  7  2  0
  9  1  1  0
 10  9  1  0
 11  9  2  3
 12 11  1  0
 13  7  1  0
M  END
>  <ID>  (1) 
conformer_0

$$$$
