
     RDKit          3D

 16 15  0  0  0  0  0  0  0  0999 V2000
    4.4376   -8.9486   10.6374 C   0  0  0  0  0  0  0  0  0  0  0  0
    4.9376   -9.0486   11.9374 N   0  0  0  0  0  0  0  0  0  0  0  0
    3.7376   -7.7486   10.2374 C   0  0  0  0  0  0  0  0  0  0  0  0
    4.4376   -6.5486   10.6374 O   0  0  0  0  0  0  0  0  0  0  0  0
    2.5376   -7.6486    9.4374 C   0  0  0  0  0  0  0  0  0  0  0  0
    6.3376   -8.8486   12.3374 C   0  0  0  0  0  0  0  0  0  0  0  0
    6.8376   -9.4486   13.5374 C   0  0  0  0  0  0  0  0  0  0  0  0
    8.0376  -10.2486   13.3374 C   0  0  0  0  0  0  0  0  0  0  0  0
    8.3376  -10.4486   11.9374 C   0  0  0  0  0  0  0  0  0  0  0  0
    2.0376   -8.4486    8.4374 C   0  0  0  0  0  0  0  0  0  0  0  0
    2.1376   -6.2486    9.3374 O   0  0  0  0  0  0  0  0  0  0  0  0
    1.1376   -7.9486    7.4374 O   0  0  0  0  0  0  0  0  0  0  0  0
    8.3376   -9.4486   10.9374 C   0  0  0  0  0  0  0  0  0  0  0  0
    3.7376  -10.0486   10.2374 O   0  0  0  0  0  0  0  0  0  0  0  0
    1.6376   -9.8486    8.6374 C   0  0  0  0  0  0  0  0  0  0  0  0
    2.1376  -10.5486    7.4374 O   0  0  0  0  0  0  0  0  0  0  0  0
  2  1  1  0
  3  1  1  0
  4  3  1  0
  5  3  1  0
  6  2  1  0
  7  6  1  0
  8  7  1  0
  9  8  1  0
 10  5  1  0
 11  5  1  0
 12 10  1  0
 13  9  1  0
 14  1  1  0
 15 10  1  0
 16 15  1  0
M  END
>  <ID>  (1) 
conformer_0

$$$$
