
     RDKit          3D

 19 19  0  0  0  0  0  0  0  0999 V2000
    4.8399   -8.5733   10.6771 C   0  0  0  0  0  0  0  0  0  0  0  0
    4.8399   -9.1733   11.9771 N   0  0  0  0  0  0  0  0  0  0  0  0
    3.6399   -7.7733   10.3771 C   0  0  0  0  0  0  0  0  0  0  0  0
    5.9399   -9.0733   12.7771 C   0  0  0  0  0  0  0  0  0  0  0  0
    5.9399   -8.9733   13.9771 O   0  0  0  0  0  0  0  0  0  0  0  0
    7.0399   -9.0733   11.8771 C   0  0  0  0  0  0  0  0  0  0  0  0
    4.0399   -6.3733   10.4771 O   0  0  0  0  0  0  0  0  0  0  0  0
    2.7399   -7.9733    9.2771 C   0  0  0  0  0  0  0  0  0  0  0  0
    8.2399   -9.7733   12.3771 C   0  0  0  0  0  0  0  0  0  0  0  0
    7.9399  -10.5733   13.5771 C   0  0  0  0  0  0  0  0  0  0  0  0
    2.0399   -9.2733    9.4771 C   0  0  0  0  0  0  0  0  0  0  0  0
    1.6399   -9.8733    8.1771 O   0  0  0  0  0  0  0  0  0  0  0  0
    3.2399   -7.7733    7.9771 O   0  0  0  0  0  0  0  0  0  0  0  0
    1.8399  -11.2733    8.2771 C   0  0  0  0  0  0  0  0  0  0  0  0
    1.9399  -11.7733    9.6771 C   0  0  0  0  0  0  0  0  0  0  0  0
    0.7399  -11.2733   10.2771 O   0  0  0  0  0  0  0  0  0  0  0  0
    1.9399  -12.3733    7.3771 O   0  0  0  0  0  0  0  0  0  0  0  0
    5.8399   -8.5733    9.7771 O   0  0  0  0  0  0  0  0  0  0  0  0
    2.7399  -10.3733   10.1771 C   0  0  0  0  0  0  0  0  0  0  0  0
  2  1  1  0
  3  1  1  0
  4  2  1  0
  5  4  2  0
  6  4  1  0
  7  3  1  0
  8  3  1  0
  9  6  1  0
 10  9  1  0
 11  8  1  0
 12 11  1  0
 13  8  1  0
 14 12  1  0
 15 14  1  0
 16 15  1  0
 17 14  2  0
 18  1  2  0
 19 11  1  0
 19 15  1  0
M  END
>  <ID>  (1) 
conformer_0

$$$$
