
     RDKit          3D

 14 14  0  0  0  0  0  0  0  0999 V2000
    4.4376   -8.9486   10.6374 C   0  0  0  0  0  0  0  0  0  0  0  0
    4.9376   -9.0486   11.9374 N   0  0  0  0  0  0  0  0  0  0  0  0
    6.3376   -8.7486   12.1374 C   0  0  0  0  0  0  0  0  0  0  0  0
    6.9376   -9.5486   13.2374 C   0  0  0  0  0  0  0  0  0  0  0  0
    8.2376   -9.2486   13.7374 C   0  0  0  0  0  0  0  0  0  0  0  0
    3.0376   -9.1486   10.3374 C   0  0  0  0  0  0  0  0  0  0  0  0
    2.8376  -10.2486    9.3374 O   0  0  0  0  0  0  0  0  0  0  0  0
    2.1376   -9.3486   11.4374 C   0  0  0  0  0  0  0  0  0  0  0  0
    1.4376  -10.6486    9.3374 C   0  0  0  0  0  0  0  0  0  0  0  0
    6.1376  -10.7486   13.4374 C   0  0  0  0  0  0  0  0  0  0  0  0
    5.2376   -8.7486    9.5374 O   0  0  0  0  0  0  0  0  0  0  0  0
    1.0376  -10.5486   10.7374 C   0  0  0  0  0  0  0  0  0  0  0  0
    5.3376  -11.0486   14.4374 O   0  0  0  0  0  0  0  0  0  0  0  0
    0.6376  -10.1486    8.3374 O   0  0  0  0  0  0  0  0  0  0  0  0
  2  1  1  0
  3  2  1  0
  4  3  1  0
  5  4  1  0
  6  1  1  0
  7  6  1  0
  8  6  1  0
  9  7  1  0
 10  4  1  0
 11  1  2  0
 12  8  1  0
 12  9  1  0
 13 10  1  0
 14  9  1  0
M  END
>  <ID>  (1) 
conformer_0

$$$$
