
     RDKit          3D

 18 18  0  0  0  0  0  0  0  0999 V2000
    4.4376   -8.9486   10.6374 C   0  0  0  0  0  0  0  0  0  0  0  0
    5.1376   -8.7486   11.8374 N   0  0  0  0  0  0  0  0  0  0  0  0
    3.7376   -7.8486    9.9374 C   0  0  0  0  0  0  0  0  0  0  0  0
    5.2376   -9.6486   12.8374 C   0  0  0  0  0  0  0  0  0  0  0  0
    5.8376   -9.2486   13.8374 O   0  0  0  0  0  0  0  0  0  0  0  0
    4.1376   -6.4486   10.2374 O   0  0  0  0  0  0  0  0  0  0  0  0
    2.3376   -7.8486    9.5374 C   0  0  0  0  0  0  0  0  0  0  0  0
    1.9376   -8.5486    8.3374 C   0  0  0  0  0  0  0  0  0  0  0  0
    1.0376   -7.9486    7.4374 O   0  0  0  0  0  0  0  0  0  0  0  0
    4.5376  -10.8486   12.3374 C   0  0  0  0  0  0  0  0  0  0  0  0
    1.9376   -6.4486    9.2374 O   0  0  0  0  0  0  0  0  0  0  0  0
    4.5376  -11.3486   11.0374 O   0  0  0  0  0  0  0  0  0  0  0  0
    2.3376   -9.9486    8.1374 C   0  0  0  0  0  0  0  0  0  0  0  0
    2.2376  -10.3486    6.7374 O   0  0  0  0  0  0  0  0  0  0  0  0
    3.5376  -11.5486   13.1374 C   0  0  0  0  0  0  0  0  0  0  0  0
    2.3376  -11.8486   12.5374 O   0  0  0  0  0  0  0  0  0  0  0  0
    5.8376   -9.2486   10.6374 C   0  0  0  0  0  0  0  0  0  0  0  0
    6.9376   -9.9486   10.5374 O   0  0  0  0  0  0  0  0  0  0  0  0
  2  1  1  0
  3  1  1  0
  4  2  1  0
  5  4  2  0
  6  3  1  0
  7  3  1  0
  8  7  1  0
  9  8  1  0
 10  4  1  0
 11  7  1  0
 12 10  1  0
 13  8  1  0
 14 13  1  0
 15 10  1  0
 16 15  1  0
 17  1  1  0
 17  2  1  0
 18 17  2  0
M  END
>  <ID>  (1) 
conformer_0

$$$$
