
     RDKit          3D

 14 13  0  0  0  0  0  0  0  0999 V2000
    4.4376   -8.9486   10.6374 C   0  0  0  0  0  0  0  0  0  0  0  0
    4.9376   -9.0486   11.9374 N   0  0  0  0  0  0  0  0  0  0  0  0
    6.2376   -8.8486   12.2374 C   0  0  0  0  0  0  0  0  0  0  0  0
    7.0376   -9.7486   13.0374 C   0  0  0  0  0  0  0  0  0  0  0  0
    8.2376   -9.2486   13.7374 C   0  0  0  0  0  0  0  0  0  0  0  0
    3.9376   -9.8486    9.9374 O   0  0  0  0  0  0  0  0  0  0  0  0
    3.8376   -7.6486   10.2374 C   0  0  0  0  0  0  0  0  0  0  0  0
    4.2376   -6.3486   10.6374 O   0  0  0  0  0  0  0  0  0  0  0  0
    2.7376   -7.7486    9.2374 C   0  0  0  0  0  0  0  0  0  0  0  0
    6.0376  -10.7486   13.5374 C   0  0  0  0  0  0  0  0  0  0  0  0
    2.6376   -8.6486    8.2374 C   0  0  0  0  0  0  0  0  0  0  0  0
    1.9376   -6.5486    9.2374 O   0  0  0  0  0  0  0  0  0  0  0  0
    1.7376   -8.3486    7.1374 O   0  0  0  0  0  0  0  0  0  0  0  0
    5.8376  -11.7486   12.5374 O   0  0  0  0  0  0  0  0  0  0  0  0
  2  1  1  0
  3  2  1  0
  4  3  1  0
  5  4  1  0
  6  1  2  0
  7  1  1  0
  8  7  1  0
  9  7  1  0
 10  4  1  0
 11  9  2  3
 12  9  1  0
 13 11  1  0
 14 10  1  0
M  END
>  <ID>  (1) 
conformer_0

$$$$
