
     RDKit          3D

 15 14  0  0  0  0  0  0  0  0999 V2000
    4.4376   -8.9486   10.6374 C   0  0  0  0  0  0  0  0  0  0  0  0
    4.9376   -9.0486   11.9374 N   0  0  0  0  0  0  0  0  0  0  0  0
    3.7376   -7.7486   10.2374 C   0  0  0  0  0  0  0  0  0  0  0  0
    4.3376   -6.4486   10.6374 O   0  0  0  0  0  0  0  0  0  0  0  0
    2.5376   -7.6486    9.4374 C   0  0  0  0  0  0  0  0  0  0  0  0
    6.2376   -9.1486   12.2374 C   0  0  0  0  0  0  0  0  0  0  0  0
    6.6376   -9.6486   13.4374 C   0  0  0  0  0  0  0  0  0  0  0  0
    8.0376  -10.1486   13.3374 C   0  0  0  0  0  0  0  0  0  0  0  0
    8.3376  -11.5486   13.7374 C   0  0  0  0  0  0  0  0  0  0  0  0
    2.4376   -8.3486    8.1374 C   0  0  0  0  0  0  0  0  0  0  0  0
    1.9376   -6.3486    9.5374 O   0  0  0  0  0  0  0  0  0  0  0  0
    1.3376   -8.0486    7.3374 O   0  0  0  0  0  0  0  0  0  0  0  0
    5.4376   -9.4486    9.9374 O   0  0  0  0  0  0  0  0  0  0  0  0
    2.9376   -9.7486    8.1374 C   0  0  0  0  0  0  0  0  0  0  0  0
    2.2376  -10.3486    7.0374 O   0  0  0  0  0  0  0  0  0  0  0  0
  2  1  1  0
  3  1  1  0
  4  3  1  0
  5  3  1  0
  6  2  1  0
  7  6  1  0
  8  7  1  0
  9  8  1  0
 10  5  1  0
 11  5  1  0
 12 10  1  0
 13  1  1  0
 14 10  1  0
 15 14  1  0
M  END
>  <ID>  (1) 
conformer_0

$$$$
