
     RDKit          3D

 17 17  0  0  0  0  0  0  0  0999 V2000
    4.4376   -8.9486   10.6374 C   0  0  0  0  0  0  0  0  0  0  0  0
    4.9376   -9.0486   11.9374 N   0  0  0  0  0  0  0  0  0  0  0  0
    6.2376   -8.8486   12.2374 C   0  0  0  0  0  0  0  0  0  0  0  0
    7.0376   -9.7486   13.0374 C   0  0  0  0  0  0  0  0  0  0  0  0
    8.2376   -9.2486   13.7374 C   0  0  0  0  0  0  0  0  0  0  0  0
    3.9376   -9.8486    9.9374 O   0  0  0  0  0  0  0  0  0  0  0  0
    3.8376   -7.6486   10.2374 C   0  0  0  0  0  0  0  0  0  0  0  0
    4.2376   -6.3486   10.6374 O   0  0  0  0  0  0  0  0  0  0  0  0
    2.7376   -7.7486    9.2374 C   0  0  0  0  0  0  0  0  0  0  0  0
    2.6376   -8.8486    8.2374 C   0  0  0  0  0  0  0  0  0  0  0  0
    1.9376   -6.6486    9.2374 O   0  0  0  0  0  0  0  0  0  0  0  0
    1.8376   -8.6486    7.1374 O   0  0  0  0  0  0  0  0  0  0  0  0
    6.7376   -7.7486   11.5374 O   0  0  0  0  0  0  0  0  0  0  0  0
    6.9376  -11.1486   12.7374 C   0  0  0  0  0  0  0  0  0  0  0  0
    3.9376   -9.5486    8.4374 C   0  0  0  0  0  0  0  0  0  0  0  0
    5.5376  -11.6486   12.7374 O   0  0  0  0  0  0  0  0  0  0  0  0
    3.9376  -10.6486    7.4374 O   0  0  0  0  0  0  0  0  0  0  0  0
  2  1  1  0
  3  2  1  0
  4  3  1  0
  5  4  1  0
  6  1  1  0
  7  1  1  0
  8  7  1  0
  9  7  1  0
 10  9  2  0
 11  9  1  0
 12 10  1  0
 13  3  2  0
 14  4  1  0
 15  6  1  0
 15 10  1  0
 16 14  1  0
 17 15  1  0
M  END
>  <ID>  (1) 
conformer_0

$$$$
