
     RDKit          3D

  5  4  0  0  0  0  0  0  0  0999 V2000
    8.1101  -10.1007   13.2930 C   0  0  0  0  0  0  0  0  0  0  0  0
    7.3101   -8.9007   13.5930 C   0  0  0  0  0  0  0  0  0  0  0  0
    8.0101  -10.5007   11.8930 C   0  0  0  0  0  0  0  0  0  0  0  0
    9.1101  -11.0007   11.1930 C   0  0  0  0  0  0  0  0  0  0  0  0
    9.8101  -10.3007   10.0930 C   0  0  0  0  0  0  0  0  0  0  0  0
  2  1  1  0
  3  1  1  0
  4  3  1  0
  5  4  1  0
M  END
>  <ID>  (1) 
conformer_0

$$$$
