
     RDKit          3D

 17 17  0  0  0  0  0  0  0  0999 V2000
    4.4376   -8.9486   10.6374 C   0  0  0  0  0  0  0  0  0  0  0  0
    4.9376   -9.0486   11.9374 N   0  0  0  0  0  0  0  0  0  0  0  0
    3.7376   -7.7486   10.2374 C   0  0  0  0  0  0  0  0  0  0  0  0
    4.3376   -6.4486   10.6374 O   0  0  0  0  0  0  0  0  0  0  0  0
    6.2376   -9.0486   12.3374 C   0  0  0  0  0  0  0  0  0  0  0  0
    2.3376   -7.8486    9.7374 C   0  0  0  0  0  0  0  0  0  0  0  0
    6.9376   -8.7486   13.4374 C   0  0  0  0  0  0  0  0  0  0  0  0
    2.2376   -8.5486    8.4374 C   0  0  0  0  0  0  0  0  0  0  0  0
    1.3376   -8.0486    7.5374 O   0  0  0  0  0  0  0  0  0  0  0  0
    1.9376   -6.4486    9.6374 O   0  0  0  0  0  0  0  0  0  0  0  0
    3.6376   -9.9486   10.0374 O   0  0  0  0  0  0  0  0  0  0  0  0
    3.2376   -9.6486    8.6374 C   0  0  0  0  0  0  0  0  0  0  0  0
    3.4376  -10.6486    7.5374 C   0  0  0  0  0  0  0  0  0  0  0  0
    4.6376  -11.4486    7.9374 O   0  0  0  0  0  0  0  0  0  0  0  0
    6.9376   -8.8486   11.0374 C   0  0  0  0  0  0  0  0  0  0  0  0
    6.8376   -7.6486   10.3374 O   0  0  0  0  0  0  0  0  0  0  0  0
    7.9376   -9.4486   14.0374 O   0  0  0  0  0  0  0  0  0  0  0  0
  2  1  1  0
  3  1  1  0
  4  3  1  0
  5  2  1  0
  6  3  1  0
  7  5  1  0
  8  6  1  0
  9  8  1  0
 10  6  1  0
 11  1  1  0
 12  8  1  0
 12 11  1  0
 13 12  1  0
 14 13  1  0
 15  5  1  0
 16 15  1  0
 17  7  1  0
M  END
>  <ID>  (1) 
conformer_0

$$$$
