
     RDKit          3D

 19 20  0  0  0  0  0  0  0  0999 V2000
    4.9170   -8.9600   12.0502 N   0  0  0  0  0  0  0  0  0  0  0  0
    6.1170   -9.2600   11.6502 C   0  0  0  0  0  0  0  0  0  0  0  0
    7.2170   -9.4600   12.5502 C   0  0  0  0  0  0  0  0  0  0  0  0
    7.3170   -8.6600   13.7502 C   0  0  0  0  0  0  0  0  0  0  0  0
    3.7170   -9.2600   11.4502 C   0  0  0  0  0  0  0  0  0  0  0  0
    2.8170   -8.2600   10.8502 C   0  0  0  0  0  0  0  0  0  0  0  0
    8.0170  -10.6600   12.6502 C   0  0  0  0  0  0  0  0  0  0  0  0
    2.1170   -8.9600    9.7502 C   0  0  0  0  0  0  0  0  0  0  0  0
    3.3170  -10.5600   11.2502 O   0  0  0  0  0  0  0  0  0  0  0  0
    8.7170  -11.0600   13.8502 C   0  0  0  0  0  0  0  0  0  0  0  0
    3.5170   -7.0600   10.3502 C   0  0  0  0  0  0  0  0  0  0  0  0
    4.5170   -6.3600   10.5502 O   0  0  0  0  0  0  0  0  0  0  0  0
    2.2170   -8.2600    8.4502 C   0  0  0  0  0  0  0  0  0  0  0  0
    1.1170   -7.8600    7.5502 O   0  0  0  0  0  0  0  0  0  0  0  0
    3.6170   -8.3600    8.0502 C   0  0  0  0  0  0  0  0  0  0  0  0
    3.8170   -8.7600    6.6502 O   0  0  0  0  0  0  0  0  0  0  0  0
    1.0170   -9.6600   10.0502 O   0  0  0  0  0  0  0  0  0  0  0  0
    6.3170   -9.2600   10.3502 O   0  0  0  0  0  0  0  0  0  0  0  0
    3.2170   -7.0600    8.6502 C   0  0  0  0  0  0  0  0  0  0  0  0
  2  1  1  0
  3  2  1  0
  4  3  1  0
  5  1  1  0
  6  5  1  0
  7  3  1  0
  8  6  1  0
  9  5  2  0
 10  7  1  0
 11  6  1  0
 12 11  2  0
 13  8  1  0
 14 13  1  0
 15 13  1  0
 16 15  1  0
 17  8  1  0
 18  2  2  0
 19 11  1  0
 19 13  1  0
 19 15  1  0
M  END
>  <ID>  (1) 
conformer_0

$$$$
