
     RDKit          3D

 15 15  0  0  0  0  0  0  0  0999 V2000
    4.4376   -8.9486   10.6374 C   0  0  0  0  0  0  0  0  0  0  0  0
    4.9376   -9.0486   11.9374 N   0  0  0  0  0  0  0  0  0  0  0  0
    6.3376   -8.7486   12.1374 C   0  0  0  0  0  0  0  0  0  0  0  0
    6.9376   -9.5486   13.2374 C   0  0  0  0  0  0  0  0  0  0  0  0
    8.2376   -9.2486   13.7374 C   0  0  0  0  0  0  0  0  0  0  0  0
    3.4376   -7.9486   10.3374 C   0  0  0  0  0  0  0  0  0  0  0  0
    4.0376   -6.6486   10.5374 O   0  0  0  0  0  0  0  0  0  0  0  0
    2.7376   -8.0486    9.0374 C   0  0  0  0  0  0  0  0  0  0  0  0
    5.2376   -9.2486    9.5374 O   0  0  0  0  0  0  0  0  0  0  0  0
    1.6376   -8.9486    9.1374 C   0  0  0  0  0  0  0  0  0  0  0  0
    3.0376   -9.4486    8.6374 O   0  0  0  0  0  0  0  0  0  0  0  0
    0.5376   -8.5486    8.2374 C   0  0  0  0  0  0  0  0  0  0  0  0
    0.4376   -7.1486    7.9374 O   0  0  0  0  0  0  0  0  0  0  0  0
    6.3376  -10.8486   13.2374 C   0  0  0  0  0  0  0  0  0  0  0  0
    6.2376  -11.5486   14.3374 O   0  0  0  0  0  0  0  0  0  0  0  0
  2  1  1  0
  3  2  1  0
  4  3  1  0
  5  4  1  0
  6  1  1  0
  7  6  1  0
  8  6  1  0
  9  1  2  0
 10  8  1  0
 11  8  1  0
 11 10  1  0
 12 10  1  0
 13 12  1  0
 14  4  1  0
 15 14  1  0
M  END
>  <ID>  (1) 
conformer_0

$$$$
