
     RDKit          3D

 16 15  0  0  0  0  0  0  0  0999 V2000
    4.4376   -8.9486   10.6374 C   0  0  0  0  0  0  0  0  0  0  0  0
    4.9376   -9.0486   11.9374 N   0  0  0  0  0  0  0  0  0  0  0  0
    6.3376   -8.7486   12.1374 C   0  0  0  0  0  0  0  0  0  0  0  0
    6.9376   -9.5486   13.2374 C   0  0  0  0  0  0  0  0  0  0  0  0
    8.2376   -9.0486   13.6374 C   0  0  0  0  0  0  0  0  0  0  0  0
    3.6376   -7.8486   10.1374 C   0  0  0  0  0  0  0  0  0  0  0  0
    4.0376   -6.5486   10.6374 O   0  0  0  0  0  0  0  0  0  0  0  0
    3.0376   -8.0486    8.8374 C   0  0  0  0  0  0  0  0  0  0  0  0
    1.7376   -8.3486    8.4374 C   0  0  0  0  0  0  0  0  0  0  0  0
    1.0376   -7.8486    7.4374 O   0  0  0  0  0  0  0  0  0  0  0  0
    4.8376   -9.7486    9.6374 O   0  0  0  0  0  0  0  0  0  0  0  0
    1.2376   -9.6486    8.9374 C   0  0  0  0  0  0  0  0  0  0  0  0
    1.4376  -10.7486    8.1374 O   0  0  0  0  0  0  0  0  0  0  0  0
    3.7376   -7.2486    7.8374 O   0  0  0  0  0  0  0  0  0  0  0  0
    5.9376  -10.5486   13.6374 C   0  0  0  0  0  0  0  0  0  0  0  0
    4.7376  -10.0486   14.0374 O   0  0  0  0  0  0  0  0  0  0  0  0
  2  1  1  0
  3  2  1  0
  4  3  1  0
  5  4  1  0
  6  1  1  0
  7  6  1  0
  8  6  1  0
  9  8  1  0
 10  9  1  0
 11  1  2  0
 12  9  1  0
 13 12  1  0
 14  8  1  0
 15  4  1  0
 16 15  1  0
M  END
>  <ID>  (1) 
conformer_0

$$$$
