
     RDKit          3D

 52 56  0  0  0  0  0  0  0  0999 V2000
   17.6124    8.1817   28.3096 C   0  0  0  0  0  0  0  0  0  0  0  0
   16.7407    9.7495   31.5480 O   0  0  0  0  0  0  0  0  0  0  0  0
   26.2103    9.0664   34.4443 C   0  0  0  0  0  0  0  0  0  0  0  0
   20.9297   10.0392   33.4064 O   0  0  0  0  0  0  0  0  0  0  0  0
   22.1099    8.9489   30.7682 C   0  0  0  0  0  0  0  0  0  0  0  0
   27.3730    9.8995   34.9435 C   0  0  0  0  0  0  0  0  0  0  0  0
   16.4953    7.6444   27.8726 O   0  0  0  0  0  0  0  0  0  0  0  0
   21.2460    9.5090   29.6524 C   0  0  0  0  0  0  0  0  0  0  0  0
   20.0605   10.1659   30.3204 C   0  0  0  0  0  0  0  0  0  0  0  0
   23.5529    7.8400   32.7500 O   0  0  0  0  0  0  0  0  0  0  0  0
   23.7810    9.2603   35.6479 C   0  0  0  0  0  0  0  0  0  0  0  0
   23.5808    9.5173   36.9206 O   0  0  0  0  0  0  0  0  0  0  0  0
   19.7958    8.5598   27.0025 C   0  0  0  0  0  0  0  0  0  0  0  0
   18.0949   11.4637   29.5514 C   0  0  0  0  0  0  0  0  0  0  0  0
   18.7083   14.4820   32.1294 C   0  0  0  0  0  0  0  0  0  0  0  0
   21.0938   11.1771   32.6442 C   0  0  0  0  0  0  0  0  0  0  0  0
   30.2797   11.9011   35.5491 F   0  0  0  0  0  0  0  0  0  0  0  0
   19.7863   14.5629   28.9850 O   0  0  0  0  0  0  0  0  0  0  0  0
   20.4756   13.3782   33.3265 C   0  0  0  0  0  0  0  0  0  0  0  0
   17.7836    8.9682   29.5699 C   0  0  0  0  0  0  0  0  0  0  0  0
   17.9109   14.5668   31.0211 O   0  0  0  0  0  0  0  0  0  0  0  0
   22.7059    8.4319   34.9649 C   0  0  0  0  0  0  0  0  0  0  0  0
   19.3941   15.3041   34.2486 C   0  0  0  0  0  0  0  0  0  0  0  0
   19.6688   13.5118   32.2883 C   0  0  0  0  0  0  0  0  0  0  0  0
   27.8438   11.9324   35.8590 C   0  0  0  0  0  0  0  0  0  0  0  0
   20.6504   11.0700   31.2948 O   0  0  0  0  0  0  0  0  0  0  0  0
   26.7575   11.0509   35.4737 C   0  0  0  0  0  0  0  0  0  0  0  0
   29.0917   11.2957   35.5418 C   0  0  0  0  0  0  0  0  0  0  0  0
   24.8336    9.8700   34.8104 C   0  0  0  0  0  0  0  0  0  0  0  0
   23.6355    8.2969   26.8445 C   0  0  0  0  0  0  0  0  0  0  0  0
   28.8418   10.0506   35.0923 C   0  0  0  0  0  0  0  0  0  0  0  0
   19.1038   12.5445   29.8115 C   0  0  0  0  0  0  0  0  0  0  0  0
   22.3216    8.3792   27.5519 C   0  0  0  0  0  0  0  0  0  0  0  0
   18.1537    8.1136   31.7824 O   0  0  0  0  0  0  0  0  0  0  0  0
   29.7938    9.1033   34.8467 Cl  0  0  0  0  0  0  0  0  0  0  0  0
   18.8701   13.2062   27.5564 O   0  0  0  0  0  0  0  0  0  0  0  0
   21.4272   12.2991   33.3663 O   0  0  0  0  0  0  0  0  0  0  0  0
   21.2025    8.2097   31.7202 C   0  0  0  0  0  0  0  0  0  0  0  0
   17.4573    8.8866   31.0618 C   0  0  0  0  0  0  0  0  0  0  0  0
   24.5948   11.9715   36.0169 O   0  0  0  0  0  0  0  0  0  0  0  0
   19.1892   13.5232   28.6851 C   0  0  0  0  0  0  0  0  0  0  0  0
   22.8677    7.0485   35.2445 O   0  0  0  0  0  0  0  0  0  0  0  0
   18.8034   10.1073   29.4431 C   0  0  0  0  0  0  0  0  0  0  0  0
   18.7914    7.5768   27.6348 C   0  0  0  0  0  0  0  0  0  0  0  0
   21.2281    7.9045   26.6010 C   0  0  0  0  0  0  0  0  0  0  0  0
   22.7628    8.5978   33.4826 C   0  0  0  0  0  0  0  0  0  0  0  0
   22.0536    9.4811   28.3867 C   0  0  0  0  0  0  0  0  0  0  0  0
   21.3406    8.7340   33.0510 C   0  0  0  0  0  0  0  0  0  0  0  0
   25.3521   11.1179   35.4390 C   0  0  0  0  0  0  0  0  0  0  0  0
   18.8855    6.1284   27.7489 C   0  0  0  0  0  0  0  0  0  0  0  0
   20.3412   14.2785   34.3574 C   0  0  0  0  0  0  0  0  0  0  0  0
   18.5677   15.3787   33.1247 C   0  0  0  0  0  0  0  0  0  0  0  0
  1  7  1  0
  1 20  1  0
  1 44  1  0
  2 39  2  0
  3  6  1  0
  3 29  1  0
  4 16  1  0
  4 48  1  0
  5  8  1  0
  5 38  1  0
  6 27  1  0
  6 31  2  0
  8  9  1  0
  8 47  1  0
  9 26  1  0
  9 43  1  0
 10 46  1  0
 11 12  1  0
 11 22  1  0
 11 29  1  0
 13 44  1  0
 13 45  1  0
 14 32  1  0
 14 43  1  0
 15 21  1  0
 15 24  2  0
 15 52  1  0
 16 26  1  0
 16 37  1  0
 17 28  1  0
 18 41  2  0
 19 24  1  0
 19 37  1  0
 19 51  2  0
 20 39  1  0
 20 43  1  0
 22 42  1  0
 22 46  1  0
 23 51  1  0
 23 52  2  0
 25 27  1  0
 25 28  1  0
 27 49  1  0
 28 31  1  0
 29 49  1  0
 30 33  1  0
 31 35  1  0
 32 41  1  0
 33 45  1  0
 33 47  1  0
 34 39  1  0
 36 41  1  0
 38 48  1  0
 40 49  2  0
 44 50  1  0
 46 48  1  0
M  END
>  <ID>  (1) 
conformer_0

$$$$
