
     RDKit          3D

 46 50  0  0  0  0  0  0  0  0999 V2000
   23.2969    9.7253   35.2608 C   0  0  0  0  0  0  0  0  0  0  0  0
   25.0512   11.3859   35.3597 C   0  0  0  0  0  0  0  0  0  0  0  0
   17.6640    7.6225   29.6318 C   0  0  0  0  0  0  0  0  0  0  0  0
   21.0187   13.5243   34.1463 C   0  0  0  0  0  0  0  0  0  0  0  0
   22.1488   10.4846   32.4553 N   0  0  0  0  0  0  0  0  0  0  0  0
   21.2867    9.0030   28.8696 C   0  0  0  0  0  0  0  0  0  0  0  0
   19.0537   10.6991   32.2704 C   0  0  0  0  0  0  0  0  0  0  0  0
   21.3555   11.4523   33.0293 C   0  0  0  0  0  0  0  0  0  0  0  0
   23.6929   11.0981   35.1387 N   0  0  0  0  0  0  0  0  0  0  0  0
   19.8532   13.5225   30.6221 C   0  0  0  0  0  0  0  0  0  0  0  0
   16.9651    9.5849   32.9181 C   0  0  0  0  0  0  0  0  0  0  0  0
   20.0838   12.8442   29.5761 O   0  0  0  0  0  0  0  0  0  0  0  0
   19.9071    6.9435   29.1104 O   0  0  0  0  0  0  0  0  0  0  0  0
   22.0709    7.9905   26.7287 C   0  0  0  0  0  0  0  0  0  0  0  0
   25.4256    9.1000   34.4871 C   0  0  0  0  0  0  0  0  0  0  0  0
   18.7088    6.5707   29.8201 C   0  0  0  0  0  0  0  0  0  0  0  0
   28.2095    9.4299   35.0155 C   0  0  0  0  0  0  0  0  0  0  0  0
   19.8660   14.7854   30.4448 O   0  0  0  0  0  0  0  0  0  0  0  0
   27.7851   11.7574   35.7211 C   0  0  0  0  0  0  0  0  0  0  0  0
   20.1335   11.5700   32.2951 C   0  0  0  0  0  0  0  0  0  0  0  0
   23.8807    8.6057   34.3414 C   0  0  0  0  0  0  0  0  0  0  0  0
   16.8659    8.5189   32.1317 N   0  0  0  0  0  0  0  0  0  0  0  0
   23.3340    9.2963   36.6008 O   0  0  0  0  0  0  0  0  0  0  0  0
   22.5340    7.0358   24.6275 O   0  0  0  0  0  0  0  0  0  0  0  0
   19.9379   10.4420   31.4350 C   0  0  0  0  0  0  0  0  0  0  0  0
   17.1121    8.1987   30.8410 C   0  0  0  0  0  0  0  0  0  0  0  0
   21.0623    8.3650   31.9345 O   0  0  0  0  0  0  0  0  0  0  0  0
   20.1161   13.8126   33.1262 C   0  0  0  0  0  0  0  0  0  0  0  0
   25.5057   12.6023   35.8175 C   0  0  0  0  0  0  0  0  0  0  0  0
   19.3513   14.8924   33.2030 O   0  0  0  0  0  0  0  0  0  0  0  0
   20.0444    8.2135   28.4182 C   0  0  0  0  0  0  0  0  0  0  0  0
   22.9526    7.8486   25.5673 C   0  0  0  0  0  0  0  0  0  0  0  0
   26.8991   12.7787   36.0379 C   0  0  0  0  0  0  0  0  0  0  0  0
   23.9205    8.2571   32.9736 O   0  0  0  0  0  0  0  0  0  0  0  0
   21.2544    9.6703   31.4720 C   0  0  0  0  0  0  0  0  0  0  0  0
   23.7929    8.7137   25.3480 O   0  0  0  0  0  0  0  0  0  0  0  0
   21.7502   12.2989   34.0650 C   0  0  0  0  0  0  0  0  0  0  0  0
   22.7996   12.0726   34.9149 C   0  0  0  0  0  0  0  0  0  0  0  0
   22.5845    7.6429   34.6125 O   0  0  0  0  0  0  0  0  0  0  0  0
   19.9230   12.9512   31.9991 C   0  0  0  0  0  0  0  0  0  0  0  0
   25.9476   10.3653   35.0672 C   0  0  0  0  0  0  0  0  0  0  0  0
   17.8986   10.4886   32.8670 C   0  0  0  0  0  0  0  0  0  0  0  0
   27.3262   10.5166   35.2996 C   0  0  0  0  0  0  0  0  0  0  0  0
   21.9631    9.5972   30.1062 C   0  0  0  0  0  0  0  0  0  0  0  0
   22.5062    8.6843   27.9160 C   0  0  0  0  0  0  0  0  0  0  0  0
   29.4959   12.0744   35.7132 Cl  0  0  0  0  0  0  0  0  0  0  0  0
  1  9  1  0
  1 21  1  0
  1 23  1  0
  2  9  1  0
  2 29  2  0
  2 41  1  0
  3 16  1  0
  3 26  1  0
  4 28  2  0
  4 37  1  0
  5  8  1  0
  5 35  1  0
  6 31  1  0
  6 44  2  0
  6 45  1  0
  7 20  1  0
  7 25  1  0
  7 42  2  0
  8 20  1  0
  8 37  1  0
  9 38  1  0
 10 12  2  0
 10 18  1  0
 10 40  1  0
 11 22  1  0
 11 42  1  0
 13 16  1  0
 13 31  1  0
 14 32  1  0
 14 45  1  0
 15 21  1  0
 15 41  2  0
 17 43  1  0
 19 33  1  0
 19 43  2  0
 19 46  1  0
 20 40  1  0
 21 34  1  0
 21 39  1  0
 22 26  1  0
 24 32  2  0
 25 35  1  0
 27 35  1  0
 28 30  1  0
 28 40  1  0
 29 33  1  0
 32 36  1  0
 35 44  1  0
 37 38  2  3
 41 43  1  0
M  END
>  <ID>  (1) 
conformer_0

$$$$
