
     RDKit          3D

 37 41  0  0  0  0  0  0  0  0999 V2000
   22.1824    8.4743   31.7333 C   0  0  0  0  0  0  0  0  0  0  0  0
   19.9800    8.3777   30.5565 N   0  0  0  0  0  0  0  0  0  0  0  0
   30.1444    8.3924   34.8775 N   0  0  0  0  0  0  0  0  0  0  0  0
   19.4172   12.2094   32.0168 C   0  0  0  0  0  0  0  0  0  0  0  0
   17.8761    5.8436   24.9785 C   0  0  0  0  0  0  0  0  0  0  0  0
   19.5632   13.0323   34.0580 C   0  0  0  0  0  0  0  0  0  0  0  0
   19.1372    8.9948   28.3393 C   0  0  0  0  0  0  0  0  0  0  0  0
   20.7965   12.6997   33.7152 C   0  0  0  0  0  0  0  0  0  0  0  0
   19.3574    8.0606   29.3225 C   0  0  0  0  0  0  0  0  0  0  0  0
   18.9296    8.6124   27.0163 C   0  0  0  0  0  0  0  0  0  0  0  0
   22.8361    8.6710   32.9974 N   0  0  0  0  0  0  0  0  0  0  0  0
   20.3038    9.7443   30.8299 C   0  0  0  0  0  0  0  0  0  0  0  0
   18.7388    6.3697   27.6995 C   0  0  0  0  0  0  0  0  0  0  0  0
   19.1261   10.3997   28.7651 C   0  0  0  0  0  0  0  0  0  0  0  0
   28.1366    9.5019   34.9660 N   0  0  0  0  0  0  0  0  0  0  0  0
   23.6477    9.3024   35.5825 C   0  0  0  0  0  0  0  0  0  0  0  0
   18.7714    7.3095   26.6489 C   0  0  0  0  0  0  0  0  0  0  0  0
   19.9676    8.3675   32.8154 O   0  0  0  0  0  0  0  0  0  0  0  0
   29.2886   11.7851   35.5432 N   0  0  0  0  0  0  0  0  0  0  0  0
   20.6704    8.6079   31.8026 C   0  0  0  0  0  0  0  0  0  0  0  0
   20.7080   12.1817   32.4681 N   0  0  0  0  0  0  0  0  0  0  0  0
   22.2124    8.1048   34.0697 N   0  0  0  0  0  0  0  0  0  0  0  0
   27.9802   11.7478   35.4272 C   0  0  0  0  0  0  0  0  0  0  0  0
   18.7054   12.7158   33.0049 N   0  0  0  0  0  0  0  0  0  0  0  0
   22.7346    8.1994   35.3362 C   0  0  0  0  0  0  0  0  0  0  0  0
   29.4615    9.5391   35.0438 C   0  0  0  0  0  0  0  0  0  0  0  0
   30.0820   10.7220   35.3605 C   0  0  0  0  0  0  0  0  0  0  0  0
   18.8816   11.7872   30.7700 O   0  0  0  0  0  0  0  0  0  0  0  0
   24.1261    9.2400   33.1902 C   0  0  0  0  0  0  0  0  0  0  0  0
   19.0085    6.7374   29.0538 C   0  0  0  0  0  0  0  0  0  0  0  0
   23.8369    9.6425   36.8544 O   0  0  0  0  0  0  0  0  0  0  0  0
   27.3162   10.5233   35.1208 C   0  0  0  0  0  0  0  0  0  0  0  0
   19.2701   10.5920   30.2000 C   0  0  0  0  0  0  0  0  0  0  0  0
   25.1632   11.5863   35.6776 C   0  0  0  0  0  0  0  0  0  0  0  0
   18.6677    6.9394   25.3337 O   0  0  0  0  0  0  0  0  0  0  0  0
   25.8047   10.3681   35.0052 C   0  0  0  0  0  0  0  0  0  0  0  0
   24.6708    9.4183   34.5600 C   0  0  0  0  0  0  0  0  0  0  0  0
  1 11  1  0
  1 20  1  0
  2  9  1  0
  2 12  1  0
  2 20  1  0
  3 26  2  0
  4 21  2  0
  4 24  1  0
  4 28  1  0
  5 35  1  0
  6  8  1  0
  6 24  1  0
  7  9  1  0
  7 10  1  0
  7 14  1  0
  8 21  1  0
  9 30  2  0
 10 17  2  0
 11 22  1  0
 11 29  1  0
 12 33  1  0
 13 17  1  0
 13 30  1  0
 14 33  1  0
 15 26  1  0
 15 32  2  0
 16 25  1  0
 16 31  1  0
 16 37  1  0
 17 35  1  0
 18 20  2  0
 19 23  2  0
 19 27  1  0
 22 25  1  0
 23 32  1  0
 26 27  1  0
 28 33  1  0
 29 37  1  0
 32 36  1  0
 34 36  1  0
 36 37  1  0
M  END
>  <ID>  (1) 
conformer_0

$$$$
