
     RDKit          3D

 42 45  0  0  0  0  0  0  0  0999 V2000
   16.9650   10.3001   33.0719 C   0  0  0  0  0  0  0  0  0  0  0  0
   25.8260   10.4575   35.1416 C   0  0  0  0  0  0  0  0  0  0  0  0
   19.2769    6.5609   29.8587 C   0  0  0  0  0  0  0  0  0  0  0  0
   15.9522    9.4205   33.2045 O   0  0  0  0  0  0  0  0  0  0  0  0
   28.2760   11.7656   35.4987 C   0  0  0  0  0  0  0  0  0  0  0  0
   29.4615   10.9212   35.2392 C   0  0  0  0  0  0  0  0  0  0  0  0
   17.7725   12.5345   33.2025 C   0  0  0  0  0  0  0  0  0  0  0  0
   19.0226   11.6710   27.9869 C   0  0  0  0  0  0  0  0  0  0  0  0
   20.0323    7.8759   28.0770 C   0  0  0  0  0  0  0  0  0  0  0  0
   19.5015   11.8562   29.3125 C   0  0  0  0  0  0  0  0  0  0  0  0
   20.1235    8.2497   26.6104 C   0  0  0  0  0  0  0  0  0  0  0  0
   20.4157   11.0197   30.0531 C   0  0  0  0  0  0  0  0  0  0  0  0
   20.7671    8.3736   31.0830 C   0  0  0  0  0  0  0  0  0  0  0  0
   19.0302   12.0914   32.8899 C   0  0  0  0  0  0  0  0  0  0  0  0
   27.8345    9.0303   35.0380 C   0  0  0  0  0  0  0  0  0  0  0  0
   30.1946    8.6186   34.7356 C   0  0  0  0  0  0  0  0  0  0  0  0
   26.4638    9.1833   35.1550 N   0  0  0  0  0  0  0  0  0  0  0  0
   21.6350   10.5205   33.3581 C   0  0  0  0  0  0  0  0  0  0  0  0
   20.1541   14.1328   29.6509 O   0  0  0  0  0  0  0  0  0  0  0  0
   20.1526    7.1936   30.7185 C   0  0  0  0  0  0  0  0  0  0  0  0
   21.7477    8.5186   32.1861 N   0  0  0  0  0  0  0  0  0  0  0  0
   23.8088   11.8259   35.3637 C   0  0  0  0  0  0  0  0  0  0  0  0
   20.4635    9.5021   30.1151 C   0  0  0  0  0  0  0  0  0  0  0  0
   20.1203    8.9563   28.8644 N   0  0  0  0  0  0  0  0  0  0  0  0
   20.9947    7.4877   25.6753 C   0  0  0  0  0  0  0  0  0  0  0  0
   16.7264   11.6465   33.2922 C   0  0  0  0  0  0  0  0  0  0  0  0
   18.7635    5.4870   30.3634 O   0  0  0  0  0  0  0  0  0  0  0  0
   19.2795   10.7411   32.6852 C   0  0  0  0  0  0  0  0  0  0  0  0
   24.5318   12.7181   36.1313 C   0  0  0  0  0  0  0  0  0  0  0  0
   26.8921   11.4663   35.2868 C   0  0  0  0  0  0  0  0  0  0  0  0
   22.4860    7.8502   25.8118 C   0  0  0  0  0  0  0  0  0  0  0  0
   22.4251    9.3263   33.4323 C   0  0  0  0  0  0  0  0  0  0  0  0
   20.5977   10.3428   32.4961 N   0  0  0  0  0  0  0  0  0  0  0  0
   21.7719   11.6220   34.1261 C   0  0  0  0  0  0  0  0  0  0  0  0
   29.1754    9.5108   35.0443 C   0  0  0  0  0  0  0  0  0  0  0  0
   19.3762    6.7694   28.5126 N   0  0  0  0  0  0  0  0  0  0  0  0
   19.1286   13.1816   29.8581 C   0  0  0  0  0  0  0  0  0  0  0  0
   18.2040    9.8302   32.7457 C   0  0  0  0  0  0  0  0  0  0  0  0
   22.5353   12.1132   35.0336 N   0  0  0  0  0  0  0  0  0  0  0  0
   23.4125    8.3642   35.3845 N   0  0  0  0  0  0  0  0  0  0  0  0
   24.3739   10.5698   34.9575 C   0  0  0  0  0  0  0  0  0  0  0  0
   23.4829    9.4907   34.5779 C   0  0  0  0  0  0  0  0  0  0  0  0
  1  4  1  0
  1 26  2  0
  1 38  1  0
  2 17  1  0
  2 30  2  0
  2 41  1  0
  3 20  1  0
  3 27  2  0
  3 36  1  0
  5  6  1  0
  5 30  1  0
  6 35  1  0
  7 14  2  0
  7 26  1  0
  8 10  1  0
  9 11  1  0
  9 24  1  0
  9 36  2  0
 10 12  1  0
 10 37  1  0
 11 25  1  0
 12 23  1  0
 13 20  2  0
 13 21  1  0
 13 23  1  0
 14 28  1  0
 15 17  2  0
 15 35  1  0
 16 35  1  0
 18 32  1  0
 18 33  1  0
 18 34  2  0
 19 37  1  0
 21 32  2  3
 22 29  1  0
 22 39  1  0
 22 41  1  0
 23 24  2  0
 25 31  1  0
 28 33  1  0
 28 38  2  0
 32 42  1  0
 34 39  1  0
 40 42  1  0
 41 42  1  0
M  END
>  <ID>  (1) 
conformer_0

$$$$
