
     RDKit          3D

 36 39  0  0  0  0  0  0  0  0999 V2000
   27.3885    9.4058   34.8045 C   0  0  0  0  0  0  0  0  0  0  0  0
   25.6258   10.8604   35.7572 C   0  0  0  0  0  0  0  0  0  0  0  0
   28.6558   11.3753   35.5572 C   0  0  0  0  0  0  0  0  0  0  0  0
   18.3191    9.1013   30.7460 S   0  0  0  0  0  4  0  0  0  0  0  0
   18.2638    5.5627   25.4886 C   0  0  0  0  0  0  0  0  0  0  0  0
   27.6142   12.1952   35.9718 C   0  0  0  0  0  0  0  0  0  0  0  0
   29.8525    9.3682   34.7803 C   0  0  0  0  0  0  0  0  0  0  0  0
   26.2901   12.0304   36.0641 C   0  0  0  0  0  0  0  0  0  0  0  0
   18.9251   12.4102   32.8780 C   0  0  0  0  0  0  0  0  0  0  0  0
   18.9030    7.4054   27.0676 C   0  0  0  0  0  0  0  0  0  0  0  0
   20.5599   10.0894   32.1779 C   0  0  0  0  0  0  0  0  0  0  0  0
   21.3223   10.7009   33.2141 C   0  0  0  0  0  0  0  0  0  0  0  0
   18.3376    7.8577   31.6191 O   0  0  0  0  0  1  0  0  0  0  0  0
   22.6958    8.9586   34.5443 C   0  0  0  0  0  0  0  0  0  0  0  0
   19.0220    8.6949   29.1840 C   0  0  0  0  0  0  0  0  0  0  0  0
   28.5901   10.0638   35.0663 C   0  0  0  0  0  0  0  0  0  0  0  0
   26.1300    9.7654   35.1102 C   0  0  0  0  0  0  0  0  0  0  0  0
   21.4877    7.9587   26.4880 C   0  0  0  0  0  0  0  0  0  0  0  0
   22.3714    9.9492   33.7034 N   0  0  0  0  0  0  0  0  0  0  0  0
   25.0616    8.8997   34.7700 N   0  0  0  0  0  0  0  0  0  0  0  0
   20.2346    8.8996   28.3907 C   0  0  0  0  0  0  0  0  0  0  0  0
   18.0589    7.0288   25.9023 C   0  0  0  0  0  0  0  0  0  0  0  0
   22.1089    7.9119   34.6221 O   0  0  0  0  0  0  0  0  0  0  0  0
   24.2021   10.6358   36.1273 C   0  0  0  0  0  0  0  0  0  0  0  0
   20.0099   12.6836   33.6172 C   0  0  0  0  0  0  0  0  0  0  0  0
   21.0743    9.9121   28.5162 O   0  0  0  0  0  0  0  0  0  0  0  0
   21.2537    9.0795   31.4958 O   0  0  0  0  0  0  0  0  0  0  0  0
   18.1497    7.7539   28.3381 C   0  0  0  0  0  0  0  0  0  0  0  0
   29.8655   11.9252   35.5944 O   0  0  0  0  0  0  0  0  0  0  0  0
   23.8199    9.2723   35.4720 C   0  0  0  0  0  0  0  0  0  0  0  0
   19.1985   10.2948   31.7360 C   0  0  0  0  0  0  0  0  0  0  0  0
   16.5721    7.3645   26.0053 C   0  0  0  0  0  0  0  0  0  0  0  0
   18.5480   11.4145   32.0988 C   0  0  0  0  0  0  0  0  0  0  0  0
   17.0003    9.6148   30.4087 O   0  0  0  0  0  1  0  0  0  0  0  0
   21.1517   11.9391   33.7697 C   0  0  0  0  0  0  0  0  0  0  0  0
   20.1709    8.1814   27.1145 C   0  0  0  0  0  0  0  0  0  0  0  0
  1 16  1  0
  1 17  2  0
  2  8  2  0
  2 17  1  0
  2 24  1  0
  3  6  2  0
  3 16  1  0
  3 29  1  0
  4 13  1  0
  4 15  1  0
  4 31  1  0
  4 34  1  0
  5 22  1  0
  6  8  1  0
  7 16  1  0
  9 25  1  0
  9 33  2  0
 10 22  1  0
 10 28  1  0
 10 36  1  0
 11 12  1  0
 11 27  1  0
 11 31  1  0
 12 19  1  0
 12 35  1  0
 14 19  1  0
 14 23  2  0
 14 30  1  0
 15 21  1  0
 15 28  1  0
 17 20  1  0
 18 36  1  0
 20 30  1  0
 21 26  1  0
 21 36  1  0
 22 32  1  0
 24 30  1  0
 25 35  2  0
 31 33  1  0
M  END
>  <ID>  (1) 
conformer_0

$$$$
