
     RDKit          3D

 31 34  0  0  0  0  0  0  0  0999 V2000
   24.4658    9.6751   35.4104 C   0  0  0  0  0  0  0  0  0  0  0  0
   22.4561    9.6338   31.1585 C   0  0  0  0  0  0  0  0  0  0  0  0
   22.0885    8.6875   28.1835 C   0  0  0  0  0  0  0  0  0  0  0  0
   16.9289    8.8486   32.0490 C   0  0  0  0  0  0  0  0  0  0  0  0
   20.0854    7.4607   26.6803 C   0  0  0  0  0  0  0  0  0  0  0  0
   25.9108   10.0144   35.2190 C   0  0  0  0  0  0  0  0  0  0  0  0
   27.7487   11.6385   35.3174 C   0  0  0  0  0  0  0  0  0  0  0  0
   26.3975   11.2985   35.4174 C   0  0  0  0  0  0  0  0  0  0  0  0
   20.4936    9.0360   32.3498 C   0  0  0  0  0  0  0  0  0  0  0  0
   23.8709   10.0963   36.4953 O   0  0  0  0  0  0  0  0  0  0  0  0
   23.7598    8.8498   34.5345 N   0  0  0  0  0  0  0  0  0  0  0  0
   21.3050    7.6795   26.1276 C   0  0  0  0  0  0  0  0  0  0  0  0
   18.5550    7.0240   28.8142 Cl  0  0  0  0  0  0  0  0  0  0  0  0
   22.3102    8.2317   26.8715 C   0  0  0  0  0  0  0  0  0  0  0  0
   26.9059    9.0344   34.8355 C   0  0  0  0  0  0  0  0  0  0  0  0
   22.6439    8.8916   33.5102 C   0  0  0  0  0  0  0  0  0  0  0  0
   30.3146   11.0726   34.9090 Cl  0  0  0  0  0  0  0  0  0  0  0  0
   23.8078    8.3348   26.1044 Cl  0  0  0  0  0  0  0  0  0  0  0  0
   28.3217    9.3577   34.8471 C   0  0  0  0  0  0  0  0  0  0  0  0
   20.3808    9.0774   29.9518 C   0  0  0  0  0  0  0  0  0  0  0  0
   23.1922    9.5062   32.3175 C   0  0  0  0  0  0  0  0  0  0  0  0
   17.1020   10.1344   32.6621 C   0  0  0  0  0  0  0  0  0  0  0  0
   20.8106    8.4983   28.7506 C   0  0  0  0  0  0  0  0  0  0  0  0
   21.2406    8.6975   33.3996 N   0  0  0  0  0  0  0  0  0  0  0  0
   22.9073    7.9289   34.8788 O   0  0  0  0  0  0  0  0  0  0  0  0
   28.6761   10.6449   35.0638 C   0  0  0  0  0  0  0  0  0  0  0  0
   18.1517    8.3365   31.8713 N   0  0  0  0  0  0  0  0  0  0  0  0
   19.0769    9.2312   32.3164 N   0  0  0  0  0  0  0  0  0  0  0  0
   19.8693    7.7338   27.9799 C   0  0  0  0  0  0  0  0  0  0  0  0
   21.1364    9.2442   31.1002 N   0  0  0  0  0  0  0  0  0  0  0  0
   18.4448   10.3308   32.7977 C   0  0  0  0  0  0  0  0  0  0  0  0
  1  6  1  0
  1 10  2  0
  1 11  1  0
  2 21  2  0
  2 30  1  0
  3 14  2  0
  3 23  1  0
  4 22  1  0
  4 27  1  0
  5 12  2  0
  5 29  1  0
  6  8  1  0
  6 15  2  0
  7  8  2  0
  7 26  1  0
  9 24  1  0
  9 28  1  0
  9 30  1  0
 11 16  1  0
 11 25  1  0
 12 14  1  0
 13 29  1  0
 14 18  1  0
 15 19  1  0
 16 21  1  0
 16 24  2  0
 17 26  1  0
 19 26  2  0
 20 23  1  0
 20 30  1  0
 22 31  1  0
 23 29  2  0
 27 28  1  0
 28 31  1  0
M  END
>  <ID>  (1) 
conformer_0

$$$$
