
     RDKit          3D

 27 29  0  0  0  0  0  0  0  0999 V2000
   24.1943    8.0209   32.6462 N   0  0  0  0  0  0  0  0  0  0  0  0
   29.7742    8.7996   34.8923 C   0  0  0  0  0  0  0  0  0  0  0  0
   19.8395    8.8676   30.9274 C   0  0  0  0  0  0  0  0  0  0  0  0
   29.6234   11.6861   35.3357 F   0  0  0  0  0  0  0  0  0  0  0  0
   27.1078   11.3943   35.1592 C   0  0  0  0  0  0  0  0  0  0  0  0
   23.2087    9.0809   36.0658 O   0  0  0  0  0  1  0  0  0  0  0  0
   17.5197    7.7268   25.6639 C   0  0  0  0  0  0  0  0  0  0  0  0
   22.7966    8.8921   34.6077 S   0  0  0  0  0  4  0  0  0  0  0  0
   18.6521    7.0291   26.4590 C   0  0  0  0  0  0  0  0  0  0  0  0
   20.4776    9.3940   31.9961 C   0  0  0  0  0  0  0  0  0  0  0  0
   25.1098    9.9984   34.2089 C   0  0  0  0  0  0  0  0  0  0  0  0
   21.6220    7.9924   34.5433 O   0  0  0  0  0  1  0  0  0  0  0  0
   18.5493    7.5408   27.9582 C   0  0  0  0  0  0  0  0  0  0  0  0
   16.3702    7.7000   26.6903 C   0  0  0  0  0  0  0  0  0  0  0  0
   26.3384   10.1060   34.9057 C   0  0  0  0  0  0  0  0  0  0  0  0
   19.8387    7.9767   28.5449 C   0  0  0  0  0  0  0  0  0  0  0  0
   27.3059    9.0505   34.7557 C   0  0  0  0  0  0  0  0  0  0  0  0
   21.8552    8.9078   29.6725 C   0  0  0  0  0  0  0  0  0  0  0  0
   22.5281    9.3888   30.7929 C   0  0  0  0  0  0  0  0  0  0  0  0
   28.6099    9.5500   34.9394 C   0  0  0  0  0  0  0  0  0  0  0  0
   18.1195    8.5871   31.2246 Cl  0  0  0  0  0  0  0  0  0  0  0  0
   17.1235    8.0230   27.9721 N   0  0  0  0  0  0  0  0  0  0  0  0
   21.8176    9.5936   32.0421 C   0  0  0  0  0  0  0  0  0  0  0  0
   20.4924    8.5923   29.7302 C   0  0  0  0  0  0  0  0  0  0  0  0
   28.5677   10.9550   35.1549 C   0  0  0  0  0  0  0  0  0  0  0  0
   24.5263    8.5841   33.9483 C   0  0  0  0  0  0  0  0  0  0  0  0
   22.4157   10.0491   33.3177 C   0  0  0  0  0  0  0  0  0  0  0  0
  1 26  1  0
  2 20  1  0
  3 10  2  0
  3 21  1  0
  3 24  1  0
  4 25  1  0
  5 15  1  0
  5 25  1  0
  6  8  1  0
  7  9  1  0
  7 14  1  0
  8 12  1  0
  8 26  1  0
  8 27  1  0
  9 13  1  0
 10 23  1  0
 11 15  1  0
 11 26  1  0
 13 16  1  0
 13 22  1  0
 14 22  1  0
 15 17  1  0
 16 24  1  0
 17 20  1  0
 18 19  1  0
 18 24  2  0
 19 23  2  0
 20 25  2  0
 23 27  1  0
M  END
>  <ID>  (1) 
conformer_0

$$$$
