
     RDKit          3D

 29 32  0  0  0  0  0  0  0  0999 V2000
   22.2252    8.4374   27.8885 C   0  0  0  0  0  0  0  0  0  0  0  0
   19.4866    8.3400   28.1420 C   0  0  0  0  0  0  0  0  0  0  0  0
   20.0569    7.7947   27.0492 C   0  0  0  0  0  0  0  0  0  0  0  0
   17.8628    9.9470   32.3455 C   0  0  0  0  0  0  0  0  0  0  0  0
   22.6744    9.9897   33.5844 C   0  0  0  0  0  0  0  0  0  0  0  0
   28.4959   10.9181   35.2058 C   0  0  0  0  0  0  0  0  0  0  0  0
   24.8894   10.3000   34.8524 C   0  0  0  0  0  0  0  0  0  0  0  0
   21.8187    9.0447   33.0123 N   0  0  0  0  0  0  0  0  0  0  0  0
   23.0643    8.8968   35.8309 C   0  0  0  0  0  0  0  0  0  0  0  0
   27.1745    9.1208   34.9532 N   0  0  0  0  0  0  0  0  0  0  0  0
   29.6430    8.7491   34.9612 C   0  0  0  0  0  0  0  0  0  0  0  0
   28.4987    9.5692   35.0520 N   0  0  0  0  0  0  0  0  0  0  0  0
   20.2421    8.8945   29.1574 C   0  0  0  0  0  0  0  0  0  0  0  0
   19.1932    7.0377   26.0806 C   0  0  0  0  0  0  0  0  0  0  0  0
   17.7188   10.6477   31.1534 C   0  0  0  0  0  0  0  0  0  0  0  0
   24.3427    8.2565   33.7392 O   0  0  0  0  0  0  0  0  0  0  0  0
   22.2599    8.8052   30.5231 C   0  0  0  0  0  0  0  0  0  0  0  0
   26.3262   10.2102   35.0382 C   0  0  0  0  0  0  0  0  0  0  0  0
   21.4313    7.9501   26.8363 C   0  0  0  0  0  0  0  0  0  0  0  0
   27.1266   11.3793   35.2300 S   0  0  0  0  0  0  0  0  0  0  0  0
   18.6040   10.4643   30.1162 C   0  0  0  0  0  0  0  0  0  0  0  0
   19.0210    9.2132   32.5632 C   0  0  0  0  0  0  0  0  0  0  0  0
   21.6259    8.7530   29.1496 C   0  0  0  0  0  0  0  0  0  0  0  0
   29.5186   11.6966   35.2924 O   0  0  0  0  0  0  0  0  0  0  0  0
   23.7894    9.3140   34.5227 C   0  0  0  0  0  0  0  0  0  0  0  0
   21.3923    8.7858   31.7531 C   0  0  0  0  0  0  0  0  0  0  0  0
   19.9898    9.1536   31.5814 C   0  0  0  0  0  0  0  0  0  0  0  0
   16.7578   11.5065   31.0177 F   0  0  0  0  0  0  0  0  0  0  0  0
   19.6284    9.5285   30.2714 C   0  0  0  0  0  0  0  0  0  0  0  0
  1 19  2  0
  1 23  1  0
  2  3  2  0
  2 13  1  0
  3 14  1  0
  3 19  1  0
  4 15  1  0
  4 22  2  0
  5  8  1  0
  5 25  1  0
  6 12  1  0
  6 20  1  0
  6 24  2  0
  7 18  2  3
  7 25  1  0
  8 26  1  0
  9 25  1  0
 10 12  1  0
 10 18  1  0
 11 12  1  0
 13 23  1  0
 13 29  1  0
 15 21  2  0
 15 28  1  0
 16 25  1  0
 17 23  2  0
 17 26  1  0
 18 20  1  0
 21 29  1  0
 22 27  1  0
 26 27  1  0
 27 29  1  0
M  END
>  <ID>  (1) 
conformer_0

$$$$
