
     RDKit          3D

 40 46  0  0  0  0  0  0  0  0999 V2000
   26.7309    9.8561   34.9718 C   0  0  0  0  0  0  0  0  0  0  0  0
   19.2907    8.3049   33.1658 O   0  0  0  0  0  0  0  0  0  0  0  0
   22.0002    8.5966   28.2330 C   0  0  0  0  0  0  0  0  0  0  0  0
   20.8407   12.5276   33.9610 C   0  0  0  0  0  0  0  0  0  0  0  0
   19.5143    7.7599   28.7506 N   0  0  0  0  0  0  0  0  0  0  0  0
   27.1148   11.1908   35.3303 C   0  0  0  0  0  0  0  0  0  0  0  0
   23.0652   12.7692   35.0159 C   0  0  0  0  0  0  0  0  0  0  0  0
   20.2537   11.5494   33.3321 C   0  0  0  0  0  0  0  0  0  0  0  0
   19.3054    7.6432   30.1627 C   0  0  0  0  0  0  0  0  0  0  0  0
   25.7996   11.9665   35.4654 C   0  0  0  0  0  0  0  0  0  0  0  0
   23.0610    9.0554   34.7610 C   0  0  0  0  0  0  0  0  0  0  0  0
   16.6777    7.0783   25.6926 C   0  0  0  0  0  0  0  0  0  0  0  0
   24.8159   11.0732   35.0277 C   0  0  0  0  0  0  0  0  0  0  0  0
   23.4995   11.4237   34.7161 C   0  0  0  0  0  0  0  0  0  0  0  0
   20.6421    8.1271   28.1254 C   0  0  0  0  0  0  0  0  0  0  0  0
   20.3996    7.7130   26.6832 C   0  0  0  0  0  0  0  0  0  0  0  0
   23.0747    8.9273   36.1774 F   0  0  0  0  0  0  0  0  0  0  0  0
   21.7617   13.1276   34.6458 C   0  0  0  0  0  0  0  0  0  0  0  0
   19.0978    6.5422   30.5823 O   0  0  0  0  0  0  0  0  0  0  0  0
   18.2188    6.9160   25.4156 C   0  0  0  0  0  0  0  0  0  0  0  0
   27.7602    8.8980   34.8032 C   0  0  0  0  0  0  0  0  0  0  0  0
   29.0363    9.4856   34.8936 C   0  0  0  0  0  0  0  0  0  0  0  0
   20.6776    9.7512   30.2923 N   0  0  0  0  0  0  0  0  0  0  0  0
   18.3738    5.3698   25.1764 C   0  0  0  0  0  0  0  0  0  0  0  0
   22.5753    8.3997   26.9999 C   0  0  0  0  0  0  0  0  0  0  0  0
   20.4930   10.2920   32.8082 C   0  0  0  0  0  0  0  0  0  0  0  0
   23.9524   13.6373   35.6587 C   0  0  0  0  0  0  0  0  0  0  0  0
   21.6123    7.8800   26.0601 C   0  0  0  0  0  0  0  0  0  0  0  0
   18.5367    7.3696   27.8858 C   0  0  0  0  0  0  0  0  0  0  0  0
   25.3754    9.7983   34.8238 N   0  0  0  0  0  0  0  0  0  0  0  0
   25.3189   13.2205   35.9052 C   0  0  0  0  0  0  0  0  0  0  0  0
   24.4795    8.7537   34.2830 C   0  0  0  0  0  0  0  0  0  0  0  0
   19.4042    9.3309   32.3263 C   0  0  0  0  0  0  0  0  0  0  0  0
   30.2184    8.7836   34.6904 C   0  0  0  0  0  0  0  0  0  0  0  0
   18.1156   10.1359   32.1191 C   0  0  0  0  0  0  0  0  0  0  0  0
   22.6074   10.4121   34.1654 C   0  0  0  0  0  0  0  0  0  0  0  0
   21.8043    9.8517   33.0038 C   0  0  0  0  0  0  0  0  0  0  0  0
   19.8682    8.7906   30.9199 C   0  0  0  0  0  0  0  0  0  0  0  0
   29.0143   11.2390   35.2382 S   0  0  0  0  0  0  0  0  0  0  0  0
   19.0979    7.3310   26.6028 C   0  0  0  0  0  0  0  0  0  0  0  0
  1  6  2  0
  1 21  1  0
  1 30  1  0
  2 33  1  0
  3 15  1  0
  3 25  1  0
  4  8  2  0
  4 18  2  0
  5  9  1  0
  5 15  1  0
  5 29  1  0
  6 10  1  0
  6 39  1  0
  7 14  2  0
  7 18  1  0
  7 27  1  0
  8 26  1  0
  9 19  2  0
  9 38  1  0
 10 13  2  0
 10 31  1  0
 11 17  1  0
 11 32  1  0
 11 36  1  0
 12 20  1  0
 13 14  1  0
 13 30  1  0
 14 36  1  0
 15 16  2  0
 16 28  1  0
 16 40  1  0
 20 24  1  0
 20 40  1  0
 21 22  1  0
 22 34  1  0
 22 39  1  0
 23 38  1  0
 25 28  1  0
 26 33  1  0
 26 37  1  0
 27 31  2  0
 29 40  1  0
 30 32  1  0
 33 35  1  0
 33 38  1  0
 36 37  1  0
M  END
>  <ID>  (1) 
conformer_0

$$$$
