
     RDKit          3D

 41 43  0  0  0  0  0  0  0  0999 V2000
   20.6673    8.6793   29.6066 C   0  0  0  0  0  0  0  0  0  0  0  0
   22.6445    8.6194   28.2412 C   0  0  0  0  0  0  0  0  0  0  0  0
   25.7263   10.1998   35.4226 C   0  0  0  0  0  0  0  0  0  0  0  0
   21.8193    8.1733   27.1668 C   0  0  0  0  0  0  0  0  0  0  0  0
   23.3828   11.5753   35.8166 O   0  0  0  0  0  0  0  0  0  0  0  0
   23.4333   10.8870   34.8196 C   0  0  0  0  0  0  0  0  0  0  0  0
   29.8343    8.8066   35.0392 N   0  0  0  0  0  0  0  0  0  0  0  0
   22.0067    8.9043   29.4218 C   0  0  0  0  0  0  0  0  0  0  0  0
   19.9553   15.1022   34.7580 C   0  0  0  0  0  0  0  0  0  0  0  0
   19.9896    8.8435   30.8996 C   0  0  0  0  0  0  0  0  0  0  0  0
   18.2049   10.6031   31.7961 C   0  0  0  0  0  0  0  0  0  0  0  0
   21.0570   14.3031   34.9960 C   0  0  0  0  0  0  0  0  0  0  0  0
   19.0346   14.8959   33.7748 C   0  0  0  0  0  0  0  0  0  0  0  0
   29.5017   10.2248   35.1433 C   0  0  0  0  0  0  0  0  0  0  0  0
   18.5566    8.3222   28.7176 O   0  0  0  0  0  0  0  0  0  0  0  0
   18.9782    6.7332   25.7723 N   0  0  0  0  0  0  0  0  0  0  0  0
   18.8926   11.0953   30.5555 C   0  0  0  0  0  0  0  0  0  0  0  0
   20.8196    8.7064   32.0769 O   0  0  0  0  0  0  0  0  0  0  0  0
   24.1150    8.4919   34.3094 N   0  0  0  0  0  0  0  0  0  0  0  0
   18.9278   14.0655   32.7741 C   0  0  0  0  0  0  0  0  0  0  0  0
   28.1207   10.6997   35.0519 C   0  0  0  0  0  0  0  0  0  0  0  0
   21.3392   13.2075   34.2365 C   0  0  0  0  0  0  0  0  0  0  0  0
   23.6225    8.1003   32.9462 C   0  0  0  0  0  0  0  0  0  0  0  0
   19.7022    7.6298   26.1629 C   0  0  0  0  0  0  0  0  0  0  0  0
   19.8750    8.3051   28.5405 C   0  0  0  0  0  0  0  0  0  0  0  0
   18.8589    9.6355   30.9068 O   0  0  0  0  0  0  0  0  0  0  0  0
   22.5596   10.9229   33.7840 N   0  0  0  0  0  0  0  0  0  0  0  0
   27.0092    9.7504   34.9510 C   0  0  0  0  0  0  0  0  0  0  0  0
   23.2434    7.8283   35.2284 O   0  0  0  0  0  0  0  0  0  0  0  0
   24.5062    9.8609   34.7057 C   0  0  0  0  0  0  0  0  0  0  0  0
   27.7906   11.9950   35.3004 O   0  0  0  0  0  0  0  0  0  0  0  0
   19.5126   12.4645   30.9779 C   0  0  0  0  0  0  0  0  0  0  0  0
   17.8436    9.7005   33.0012 C   0  0  0  0  0  0  0  0  0  0  0  0
   20.6092   12.6408   30.1339 O   0  0  0  0  0  0  0  0  0  0  0  0
   22.6397   10.2613   32.5544 C   0  0  0  0  0  0  0  0  0  0  0  0
   20.8065   12.7085   33.1636 C   0  0  0  0  0  0  0  0  0  0  0  0
   22.3890    8.0204   25.9516 O   0  0  0  0  0  0  0  0  0  0  0  0
   19.7706   13.0464   32.3381 C   0  0  0  0  0  0  0  0  0  0  0  0
   22.2580    8.8128   32.6411 C   0  0  0  0  0  0  0  0  0  0  0  0
   17.5216    7.6145   28.2498 C   0  0  0  0  0  0  0  0  0  0  0  0
   20.4328    7.9902   27.3001 C   0  0  0  0  0  0  0  0  0  0  0  0
  1  8  2  0
  1 10  1  0
  1 25  1  0
  2  4  2  0
  2  8  1  0
  3 28  1  0
  3 30  1  0
  4 37  1  0
  4 41  1  0
  5  6  2  0
  6 27  1  0
  6 30  1  0
  7 14  1  0
  9 12  2  0
  9 13  1  0
 10 18  1  0
 10 26  1  0
 11 17  1  0
 11 26  1  0
 11 33  1  0
 12 22  1  0
 13 20  2  0
 14 21  2  3
 15 25  1  0
 15 40  1  0
 16 24  2  0
 17 32  1  0
 18 39  1  0
 19 23  1  0
 19 29  1  0
 19 30  1  0
 20 38  1  0
 21 28  1  0
 21 31  1  0
 22 36  2  0
 23 39  1  0
 24 41  1  0
 25 41  2  0
 27 35  1  0
 32 34  1  0
 32 38  1  0
 35 39  1  0
 36 38  1  0
M  END
>  <ID>  (1) 
conformer_0

$$$$
