
     RDKit          3D

 43 47  0  0  0  0  0  0  0  0999 V2000
   19.4045   11.4501   32.5623 C   0  0  0  0  0  0  0  0  0  0  0  0
   23.3819    9.1802   34.1735 C   0  0  0  0  0  0  0  0  0  0  0  0
   19.2903    9.0747   31.2788 C   0  0  0  0  0  0  0  0  0  0  0  0
   20.2662   12.9025   30.6577 C   0  0  0  0  0  0  0  0  0  0  0  0
   22.7928    8.0233   34.8691 O   0  0  0  0  0  0  0  0  0  0  0  0
   17.7422   13.6053   30.2758 C   0  0  0  0  0  0  0  0  0  0  0  0
   19.2860    7.2607   26.3165 C   0  0  0  0  0  0  0  0  0  0  0  0
   17.8699    8.6854   31.3443 C   0  0  0  0  0  0  0  0  0  0  0  0
   18.8116   14.2614   29.5213 O   0  0  0  0  0  0  0  0  0  0  0  0
   26.2928    9.5671   34.7484 C   0  0  0  0  0  0  0  0  0  0  0  0
   19.0775    8.3609   28.7923 C   0  0  0  0  0  0  0  0  0  0  0  0
   20.1117   14.3413   30.2102 C   0  0  0  0  0  0  0  0  0  0  0  0
   19.3515   12.5885   31.7107 N   0  0  0  0  0  0  0  0  0  0  0  0
   21.9886    8.7876   28.1828 C   0  0  0  0  0  0  0  0  0  0  0  0
   19.8720    8.6627   29.9650 C   0  0  0  0  0  0  0  0  0  0  0  0
   16.9308    7.6459   27.8786 O   0  0  0  0  0  0  0  0  0  0  0  0
   27.2157   11.5419   35.5611 C   0  0  0  0  0  0  0  0  0  0  0  0
   20.3730    7.1871   25.4741 N   0  0  0  0  0  0  0  0  0  0  0  0
   22.7115    7.9664   25.4618 C   0  0  0  0  0  0  0  0  0  0  0  0
   18.2025   13.5142   31.7610 C   0  0  0  0  0  0  0  0  0  0  0  0
   28.5287   11.0554   35.3693 C   0  0  0  0  0  0  0  0  0  0  0  0
   17.7585    7.8072   29.0565 C   0  0  0  0  0  0  0  0  0  0  0  0
   20.3137    8.3980   33.5883 O   0  0  0  0  0  0  0  0  0  0  0  0
   16.8238    7.1520   26.5041 O   0  0  0  0  0  0  0  0  0  0  0  0
   24.7228   11.0840   35.9027 C   0  0  0  0  0  0  0  0  0  0  0  0
   24.9489    8.9541   34.1873 C   0  0  0  0  0  0  0  0  0  0  0  0
   28.7257    9.7545   34.9839 C   0  0  0  0  0  0  0  0  0  0  0  0
   24.2531   12.2428   35.8063 O   0  0  0  0  0  0  0  0  0  0  0  0
   24.0628   10.1355   36.5218 O   0  0  0  0  0  0  0  0  0  0  0  0
   21.1505   12.6581   33.9656 C   0  0  0  0  0  0  0  0  0  0  0  0
   19.7912   10.1146   32.2131 N   0  0  0  0  0  0  0  0  0  0  0  0
   19.8723   11.9242   33.9166 C   0  0  0  0  0  0  0  0  0  0  0  0
   20.7438    9.4942   33.0938 C   0  0  0  0  0  0  0  0  0  0  0  0
   18.0369    6.7875   25.8444 N   0  0  0  0  0  0  0  0  0  0  0  0
   17.4254    7.7605   30.4194 N   0  0  0  0  0  0  0  0  0  0  0  0
   30.0164    9.1652   34.9118 C   0  0  0  0  0  0  0  0  0  0  0  0
   22.2004    9.8621   33.4164 C   0  0  0  0  0  0  0  0  0  0  0  0
   21.0344    8.1477   27.3271 N   0  0  0  0  0  0  0  0  0  0  0  0
   26.1029   10.7782   35.3862 C   0  0  0  0  0  0  0  0  0  0  0  0
   27.6280    8.9860   34.6227 C   0  0  0  0  0  0  0  0  0  0  0  0
   21.4104    7.7340   26.0645 C   0  0  0  0  0  0  0  0  0  0  0  0
   19.6770    7.8777   27.5085 C   0  0  0  0  0  0  0  0  0  0  0  0
   17.0321    9.1627   32.1671 O   0  0  0  0  0  0  0  0  0  0  0  0
  1 13  1  0
  1 31  1  0
  1 32  1  0
  2  5  1  0
  2 26  1  0
  2 37  1  0
  3  8  1  0
  3 15  1  0
  3 31  1  0
  4 12  1  0
  4 13  1  0
  6  9  1  0
  6 20  1  0
  7 18  1  0
  7 34  2  0
  7 42  1  0
  8 35  1  0
  8 43  2  0
  9 12  1  0
 10 26  1  0
 10 39  2  0
 10 40  1  0
 11 15  1  0
 11 22  1  0
 11 42  1  0
 13 20  1  0
 14 38  1  0
 16 22  1  0
 16 24  1  0
 17 21  2  0
 17 39  1  0
 18 41  2  0
 19 41  1  0
 21 27  1  0
 22 35  1  0
 23 33  2  0
 24 34  1  0
 25 28  2  0
 25 29  1  0
 25 39  1  0
 27 36  1  0
 27 40  2  0
 30 32  1  0
 31 33  1  0
 33 37  1  0
 38 41  1  0
 38 42  1  0
M  END
>  <ID>  (1) 
conformer_0

$$$$
