
     RDKit          3D

 36 39  0  0  0  0  0  0  0  0999 V2000
   19.7810    8.5199   29.4646 C   0  0  0  0  0  0  0  0  0  0  0  0
   24.7016   11.1886   35.2613 C   0  0  0  0  0  0  0  0  0  0  0  0
   21.7616    8.9182   33.7832 C   0  0  0  0  0  0  0  0  0  0  0  0
   20.8154    9.6383   31.4683 C   0  0  0  0  0  0  0  0  0  0  0  0
   18.6706    6.2085   28.8193 C   0  0  0  0  0  0  0  0  0  0  0  0
   18.2618    6.7459   30.0850 N   0  0  0  0  0  0  0  0  0  0  0  0
   22.6373   12.6271   35.0516 C   0  0  0  0  0  0  0  0  0  0  0  0
   19.1323    9.5736   27.4343 O   0  0  0  0  0  0  0  0  0  0  0  0
   20.8657    9.2472   30.1071 N   0  0  0  0  0  0  0  0  0  0  0  0
   27.7723    8.6239   34.8914 C   0  0  0  0  0  0  0  0  0  0  0  0
   23.3033   11.4069   34.9237 C   0  0  0  0  0  0  0  0  0  0  0  0
   22.1352    9.1304   29.4590 C   0  0  0  0  0  0  0  0  0  0  0  0
   19.6556    8.3465   27.9726 C   0  0  0  0  0  0  0  0  0  0  0  0
   25.5302    9.9183   35.0405 C   0  0  0  0  0  0  0  0  0  0  0  0
   18.2753    8.5100   31.4296 O   0  0  0  0  0  0  0  0  0  0  0  0
   21.0076    8.1784   27.3379 C   0  0  0  0  0  0  0  0  0  0  0  0
   20.5353   11.0016   31.7110 O   0  0  0  0  0  0  0  0  0  0  0  0
   25.3312   12.2925   35.8664 C   0  0  0  0  0  0  0  0  0  0  0  0
   24.6988   13.5424   35.9864 C   0  0  0  0  0  0  0  0  0  0  0  0
   21.3667    7.7478   25.9829 C   0  0  0  0  0  0  0  0  0  0  0  0
   24.7694    8.8514   34.2255 C   0  0  0  0  0  0  0  0  0  0  0  0
   21.9484    9.1828   32.3243 C   0  0  0  0  0  0  0  0  0  0  0  0
   27.7758   10.9970   35.1392 C   0  0  0  0  0  0  0  0  0  0  0  0
   23.2275    8.9115   36.3209 O   0  0  0  0  0  1  0  0  0  0  0  0
   18.6387    6.6112   26.5013 O   0  0  0  0  0  0  0  0  0  0  0  0
   22.1147    8.8446   28.0120 C   0  0  0  0  0  0  0  0  0  0  0  0
   23.1861    9.5944   32.0041 O   0  0  0  0  0  0  0  0  0  0  0  0
   23.0353    7.0596   34.7602 O   0  0  0  0  0  0  0  0  0  0  0  0
   29.1338   11.0606   35.1212 C   0  0  0  0  0  0  0  0  0  0  0  0
   29.8636    9.8625   35.0190 C   0  0  0  0  0  0  0  0  0  0  0  0
   18.7104    8.0319   30.3233 C   0  0  0  0  0  0  0  0  0  0  0  0
   29.1904    8.6591   34.8952 C   0  0  0  0  0  0  0  0  0  0  0  0
   18.7133    7.1979   27.7158 C   0  0  0  0  0  0  0  0  0  0  0  0
   27.0155    9.8450   35.0185 C   0  0  0  0  0  0  0  0  0  0  0  0
   23.3385   13.7120   35.5710 C   0  0  0  0  0  0  0  0  0  0  0  0
   23.1806    8.4912   34.8180 P   0  0  0  0  0  4  0  0  0  0  0  0
  1  9  1  0
  1 13  1  0
  1 31  1  0
  2 11  1  0
  2 14  1  0
  2 18  2  0
  3 22  1  0
  3 36  1  0
  4  9  1  0
  4 17  1  0
  4 22  1  0
  5  6  1  0
  5 33  1  0
  6 31  1  0
  7 11  2  0
  7 35  1  0
  8 13  1  0
  9 12  1  0
 10 32  2  0
 10 34  1  0
 12 26  1  0
 13 16  1  0
 13 33  1  0
 14 21  1  0
 14 34  1  0
 15 31  2  0
 16 20  1  0
 16 26  1  0
 18 19  1  0
 19 35  2  0
 21 36  1  0
 22 27  1  0
 23 29  1  0
 23 34  2  0
 24 36  2  0
 25 33  1  0
 28 36  1  0
 29 30  2  0
 30 32  1  0
M  END
>  <ID>  (1) 
conformer_0

$$$$
