
     RDKit          3D

 31 33  0  0  0  0  0  0  0  0999 V2000
   21.7477    9.2301   29.7810 C   0  0  0  0  0  0  0  0  0  0  0  0
   21.2949   11.7343   32.9493 N   0  0  0  0  0  0  0  0  0  0  0  0
   29.8187   10.3531   35.2118 C   0  0  0  0  0  0  0  0  0  0  0  0
   22.9911    7.7091   34.8870 O   0  0  0  0  0  0  0  0  0  0  0  0
   27.1548    9.8929   34.7293 C   0  0  0  0  0  0  0  0  0  0  0  0
   22.1347    8.8054   28.4314 C   0  0  0  0  0  0  0  0  0  0  0  0
   23.9185    9.5598   35.9071 N   0  0  0  0  0  0  0  0  0  0  0  0
   20.6478    8.3000   33.3097 O   0  0  0  0  0  0  0  0  0  0  0  0
   23.4764    8.0750   26.1955 C   0  0  0  0  0  0  0  0  0  0  0  0
   28.9226   11.4097   35.2281 C   0  0  0  0  0  0  0  0  0  0  0  0
   22.9863    9.0265   34.9680 C   0  0  0  0  0  0  0  0  0  0  0  0
   20.6025   10.6034   32.5965 C   0  0  0  0  0  0  0  0  0  0  0  0
   21.0290    8.3362   27.7680 C   0  0  0  0  0  0  0  0  0  0  0  0
   25.7090    9.6923   34.3123 C   0  0  0  0  0  0  0  0  0  0  0  0
   21.0215    7.9180   26.4731 O   0  0  0  0  0  0  0  0  0  0  0  0
   21.1556    9.5396   33.3162 C   0  0  0  0  0  0  0  0  0  0  0  0
   19.4461   10.5400   31.6835 C   0  0  0  0  0  0  0  0  0  0  0  0
   22.2475    9.9979   34.1420 C   0  0  0  0  0  0  0  0  0  0  0  0
   20.2967    9.0083   29.8330 C   0  0  0  0  0  0  0  0  0  0  0  0
   19.8894    8.4475   28.6475 N   0  0  0  0  0  0  0  0  0  0  0  0
   17.9987    7.3858   27.0990 C   0  0  0  0  0  0  0  0  0  0  0  0
   17.6873    7.4995   29.6164 C   0  0  0  0  0  0  0  0  0  0  0  0
   22.1232    7.8425   25.6241 C   0  0  0  0  0  0  0  0  0  0  0  0
   19.3709    9.3533   30.9228 N   0  0  0  0  0  0  0  0  0  0  0  0
   16.5071    7.6189   26.7840 C   0  0  0  0  0  0  0  0  0  0  0  0
   24.8033   10.5479   35.1951 C   0  0  0  0  0  0  0  0  0  0  0  0
   27.5953   11.1748   34.9935 C   0  0  0  0  0  0  0  0  0  0  0  0
   29.4100    9.0594   35.0201 C   0  0  0  0  0  0  0  0  0  0  0  0
   28.0599    8.7906   34.8072 C   0  0  0  0  0  0  0  0  0  0  0  0
   22.2866   11.3631   33.8706 C   0  0  0  0  0  0  0  0  0  0  0  0
   18.5093    8.0855   28.3437 C   0  0  0  0  0  0  0  0  0  0  0  0
  1  6  1  0
  1 19  1  0
  2 12  1  0
  2 30  1  0
  3 10  2  0
  3 28  1  0
  4 11  2  0
  5 14  1  0
  5 27  2  0
  5 29  1  0
  6 13  1  0
  7 11  1  0
  7 26  1  0
  8 16  1  0
  9 23  1  0
 10 27  1  0
 11 18  1  0
 12 16  2  0
 12 17  1  0
 13 15  1  0
 13 20  1  0
 14 26  1  0
 15 23  1  0
 16 18  1  0
 17 24  1  0
 18 30  1  0
 19 20  1  0
 19 24  2  3
 20 31  1  0
 21 25  1  0
 21 31  1  0
 22 31  1  0
 28 29  2  0
M  END
>  <ID>  (1) 
conformer_0

$$$$
