
     RDKit          3D

 34 37  0  0  0  0  0  0  0  0999 V2000
   27.1957    8.8585   34.9779 C   0  0  0  0  0  0  0  0  0  0  0  0
   18.8387    5.7340   28.8170 O   0  0  0  0  0  0  0  0  0  0  0  0
   23.1855    9.2190   36.6390 O   0  0  0  0  0  0  0  0  0  0  0  0
   23.5091    8.9647   33.1152 C   0  0  0  0  0  0  0  0  0  0  0  0
   19.5940    8.4443   33.4087 O   0  0  0  0  0  0  0  0  0  0  0  0
   21.3819    8.2191   26.7731 C   0  0  0  0  0  0  0  0  0  0  0  0
   19.6258   12.6657   32.8616 C   0  0  0  0  0  0  0  0  0  0  0  0
   21.9846    8.7243   29.0993 C   0  0  0  0  0  0  0  0  0  0  0  0
   28.6145    8.8816   34.9557 C   0  0  0  0  0  0  0  0  0  0  0  0
   21.9843    8.1764   34.7239 C   0  0  0  0  0  0  0  0  0  0  0  0
   30.6017   10.1621   34.8357 N   0  0  0  0  0  0  0  0  0  0  0  0
   22.2978    8.5810   27.7460 C   0  0  0  0  0  0  0  0  0  0  0  0
   19.8164    7.7893   28.5246 C   0  0  0  0  0  0  0  0  0  0  0  0
   24.2372    8.9230   34.4887 C   0  0  0  0  0  0  0  0  0  0  0  0
   22.0519    8.6023   33.3181 N   0  0  0  0  0  0  0  0  0  0  0  0
   23.1382    8.6396   35.4658 C   0  0  0  0  0  0  0  0  0  0  0  0
   26.4584   10.0584   35.0168 C   0  0  0  0  0  0  0  0  0  0  0  0
   20.6590    8.9406   32.6314 S   0  0  0  0  0  4  0  0  0  0  0  0
   20.1436    7.8597   27.1598 C   0  0  0  0  0  0  0  0  0  0  0  0
   19.6062   11.3608   32.4564 C   0  0  0  0  0  0  0  0  0  0  0  0
   29.2335   10.0966   34.9381 C   0  0  0  0  0  0  0  0  0  0  0  0
   20.4273    8.4147   31.0370 C   0  0  0  0  0  0  0  0  0  0  0  0
   24.9931   10.1275   34.9705 C   0  0  0  0  0  0  0  0  0  0  0  0
   19.6794    7.1888   31.2033 O   0  0  0  0  0  0  0  0  0  0  0  0
   28.5203   11.2694   34.9671 C   0  0  0  0  0  0  0  0  0  0  0  0
   27.1755   11.2224   35.0495 C   0  0  0  0  0  0  0  0  0  0  0  0
   20.7048    8.3190   29.5404 C   0  0  0  0  0  0  0  0  0  0  0  0
   18.6150    6.9820   28.7788 C   0  0  0  0  0  0  0  0  0  0  0  0
   17.5023    7.5158   28.6965 O   0  0  0  0  0  0  0  0  0  0  0  0
   23.5896    8.8235   27.2823 Cl  0  0  0  0  0  0  0  0  0  0  0  0
   20.6486   10.5648   32.9133 C   0  0  0  0  0  0  0  0  0  0  0  0
   21.6179   12.4186   34.0708 C   0  0  0  0  0  0  0  0  0  0  0  0
   21.6376   11.1569   33.5979 N   0  0  0  0  0  0  0  0  0  0  0  0
   20.5797   13.2249   33.7054 C   0  0  0  0  0  0  0  0  0  0  0  0
  1  9  2  0
  1 17  1  0
  2 28  2  0
  3 16  1  0
  4 14  1  0
  4 15  1  0
  5 18  1  0
  6 12  2  0
  6 19  1  0
  7 20  2  0
  7 34  1  0
  8 12  1  0
  8 27  2  0
  9 21  1  0
 10 15  1  0
 10 16  1  0
 11 21  1  0
 12 30  1  0
 13 19  2  0
 13 27  1  0
 13 28  1  0
 14 16  1  0
 14 23  1  0
 15 18  1  0
 17 23  1  0
 17 26  2  0
 18 22  1  0
 18 31  1  0
 20 31  1  0
 21 25  2  0
 22 24  2  0
 22 27  1  0
 25 26  1  0
 28 29  1  0
 31 33  2  0
 32 33  1  0
 32 34  2  0
M  END
>  <ID>  (1) 
conformer_0

$$$$
