
     RDKit          3D

 32 34  0  0  0  0  0  0  0  0999 V2000
   18.8508    7.6810   26.7744 C   0  0  0  0  0  0  0  0  0  0  0  0
   26.4734   11.4892   35.6459 C   0  0  0  0  0  0  0  0  0  0  0  0
   21.4312    7.8389   26.3948 C   0  0  0  0  0  0  0  0  0  0  0  0
   20.1048    8.2591   28.5986 C   0  0  0  0  0  0  0  0  0  0  0  0
   26.1649   10.1958   35.2391 C   0  0  0  0  0  0  0  0  0  0  0  0
   18.7464    8.1908   29.0148 C   0  0  0  0  0  0  0  0  0  0  0  0
   20.1878    8.5830   31.6562 C   0  0  0  0  0  0  0  0  0  0  0  0
   20.7298    9.5150   32.6092 C   0  0  0  0  0  0  0  0  0  0  0  0
   28.8167   11.0382   35.4944 C   0  0  0  0  0  0  0  0  0  0  0  0
   18.8844    8.9502   31.2844 C   0  0  0  0  0  0  0  0  0  0  0  0
   23.8654   10.5662   35.9829 N   0  0  0  0  0  0  0  0  0  0  0  0
   22.6584    8.2658   26.8669 N   0  0  0  0  0  0  0  0  0  0  0  0
   30.1603   11.4814   35.5565 O   0  0  0  0  0  0  0  0  0  0  0  0
   21.4749    7.2640   25.1994 N   0  0  0  0  0  0  0  0  0  0  0  0
   20.2238    7.9274   27.1902 C   0  0  0  0  0  0  0  0  0  0  0  0
   18.1249    8.4431   30.2441 O   0  0  0  0  0  0  0  0  0  0  0  0
   19.6736   10.3617   32.9017 C   0  0  0  0  0  0  0  0  0  0  0  0
   22.7361    9.0891   34.1262 N   0  0  0  0  0  0  0  0  0  0  0  0
   22.0987    9.5868   32.9842 C   0  0  0  0  0  0  0  0  0  0  0  0
   23.0709   10.0330   31.8803 Cl  0  0  0  0  0  0  0  0  0  0  0  0
   27.2252    9.3138   34.9150 N   0  0  0  0  0  0  0  0  0  0  0  0
   18.5062   10.0041   32.0615 C   0  0  0  0  0  0  0  0  0  0  0  0
   16.7012    7.6974   27.9253 O   0  0  0  0  0  0  0  0  0  0  0  0
   28.0120   13.2348   36.3147 C   0  0  0  0  0  0  0  0  0  0  0  0
   17.9920    7.8406   27.9006 C   0  0  0  0  0  0  0  0  0  0  0  0
   24.1521    8.8311   34.3297 C   0  0  0  0  0  0  0  0  0  0  0  0
   29.8103    8.6518   34.8743 Cl  0  0  0  0  0  0  0  0  0  0  0  0
   23.1384    8.0759   35.1283 O   0  0  0  0  0  0  0  0  0  0  0  0
   28.5300    9.7250   35.0987 C   0  0  0  0  0  0  0  0  0  0  0  0
   27.7823   11.8927   35.8243 C   0  0  0  0  0  0  0  0  0  0  0  0
   24.7367    9.8091   35.2258 C   0  0  0  0  0  0  0  0  0  0  0  0
   18.3298    7.3893   25.4485 C   0  0  0  0  0  0  0  0  0  0  0  0
  1 15  2  0
  1 25  1  0
  1 32  1  0
  2  5  1  0
  2 30  2  0
  3 12  2  0
  3 14  1  0
  3 15  1  0
  4  6  1  0
  4 15  1  0
  5 21  1  0
  5 31  1  0
  6 16  1  0
  6 25  2  0
  7  8  1  0
  7 10  1  0
  8 17  1  0
  8 19  1  0
  9 13  1  0
  9 29  1  0
  9 30  1  0
 10 16  1  0
 10 22  1  0
 11 31  1  0
 17 22  1  0
 18 19  2  3
 18 26  1  0
 19 20  1  0
 21 29  2  0
 23 25  1  0
 24 30  1  0
 26 28  1  0
 26 31  1  0
 27 29  1  0
M  END
>  <ID>  (1) 
conformer_0

$$$$
