
     RDKit          3D

 30 32  0  0  0  0  0  0  0  0999 V2000
   21.1369    9.1204   30.5360 C   0  0  0  0  0  0  0  0  0  0  0  0
   20.5949   11.9265   32.8282 C   0  0  0  0  0  0  0  0  0  0  0  0
   19.9907   13.0071   32.3627 N   0  0  0  0  0  0  0  0  0  0  0  0
   19.7215    8.2897   28.4397 C   0  0  0  0  0  0  0  0  0  0  0  0
   21.5722   12.0390   33.7394 N   0  0  0  0  0  0  0  0  0  0  0  0
   29.6045    8.6688   34.9711 C   0  0  0  0  0  0  0  0  0  0  0  0
   22.2216    9.7551   33.4031 N   0  0  0  0  0  0  0  0  0  0  0  0
   22.9480    8.6970   34.0662 C   0  0  0  0  0  0  0  0  0  0  0  0
   20.4537    7.9692   27.2777 C   0  0  0  0  0  0  0  0  0  0  0  0
   23.5955   11.2969   35.0365 S   0  0  0  0  0  0  0  0  0  0  0  0
   22.4050   11.0096   34.0246 C   0  0  0  0  0  0  0  0  0  0  0  0
   22.4885    8.6867   28.4008 C   0  0  0  0  0  0  0  0  0  0  0  0
   27.0223    9.2967   35.0123 C   0  0  0  0  0  0  0  0  0  0  0  0
   24.2297    8.8945   34.6232 C   0  0  0  0  0  0  0  0  0  0  0  0
   16.9063    8.9452   32.2896 O   0  0  0  0  0  0  0  0  0  0  0  0
   28.9197   11.0800   35.0666 C   0  0  0  0  0  0  0  0  0  0  0  0
   24.6600   10.1226   35.1001 C   0  0  0  0  0  0  0  0  0  0  0  0
   18.7116    6.7610   26.0939 C   0  0  0  0  0  0  0  0  0  0  0  0
   19.9518    7.4181   26.1191 O   0  0  0  0  0  0  0  0  0  0  0  0
   20.0147    8.7420   29.6612 C   0  0  0  0  0  0  0  0  0  0  0  0
   21.8358    8.2405   27.2958 C   0  0  0  0  0  0  0  0  0  0  0  0
   18.8833    8.0136   32.1763 O   0  0  0  0  0  0  0  0  0  0  0  0
   22.3351    9.0324   29.7119 C   0  0  0  0  0  0  0  0  0  0  0  0
   21.2938    9.6784   32.0701 C   0  0  0  0  0  0  0  0  0  0  0  0
   18.7694   10.4070   31.7626 C   0  0  0  0  0  0  0  0  0  0  0  0
   22.3755    7.6286   34.2457 O   0  0  0  0  0  0  0  0  0  0  0  0
   26.0429   10.2188   35.5808 O   0  0  0  0  0  0  0  0  0  0  0  0
   28.4585    9.6435   35.0135 C   0  0  0  0  0  0  0  0  0  0  0  0
   18.1841    9.0783   32.1367 C   0  0  0  0  0  0  0  0  0  0  0  0
   20.2345   10.6513   32.2322 C   0  0  0  0  0  0  0  0  0  0  0  0
  1 20  1  0
  1 23  2  0
  1 24  1  0
  2  3  2  0
  2  5  1  0
  2 30  1  0
  4  9  1  0
  4 20  2  0
  5 11  2  0
  6 28  1  0
  7  8  1  0
  7 11  1  0
  7 24  1  0
  8 14  1  0
  8 26  2  0
  9 19  1  0
  9 21  1  0
 10 11  1  0
 10 17  1  0
 12 21  2  0
 12 23  1  0
 13 27  1  0
 13 28  1  0
 14 17  2  0
 15 29  2  0
 16 28  1  0
 17 27  1  0
 18 19  1  0
 22 29  1  0
 24 30  1  0
 25 29  1  0
 25 30  1  0
M  END
>  <ID>  (1) 
conformer_0

$$$$
