
     RDKit          3D

 46 51  0  0  0  0  0  0  0  0999 V2000
   19.9588   11.2038   31.4650 C   0  0  0  0  0  0  0  0  0  0  0  0
   25.8398   13.7017   37.1240 O   0  0  0  0  0  0  0  0  0  0  0  0
   25.0099   13.2656   35.9767 C   0  0  0  0  0  0  0  0  0  0  0  0
   20.7947    8.2817   28.2690 C   0  0  0  0  0  0  0  0  0  0  0  0
   22.0395   11.5200   34.1592 S   0  0  0  0  0  0  0  0  0  0  0  0
   16.9379    9.4444   32.7895 C   0  0  0  0  0  0  0  0  0  0  0  0
   28.5910   11.3650   35.4138 C   0  0  0  0  0  0  0  0  0  0  0  0
   21.1851    9.2743   32.0388 N   0  0  0  0  0  0  0  0  0  0  0  0
   23.6222   12.4130   35.8053 O   0  0  0  0  0  0  0  0  0  0  0  0
   25.0988    9.9149   35.5889 C   0  0  0  0  0  0  0  0  0  0  0  0
   22.3696    9.0741   32.8993 C   0  0  0  0  0  0  0  0  0  0  0  0
   29.2802    8.7777   34.9721 C   0  0  0  0  0  0  0  0  0  0  0  0
   18.2477    9.3753   32.1920 C   0  0  0  0  0  0  0  0  0  0  0  0
   17.9297   11.5018   32.7506 C   0  0  0  0  0  0  0  0  0  0  0  0
   18.8322   10.6399   32.1228 C   0  0  0  0  0  0  0  0  0  0  0  0
   27.5679   10.4379   35.3209 C   0  0  0  0  0  0  0  0  0  0  0  0
   16.7657   10.8207   33.1344 C   0  0  0  0  0  0  0  0  0  0  0  0
   23.0155    7.7021   34.8213 O   0  0  0  0  0  0  0  0  0  0  0  0
   23.3208   11.4760   34.8553 C   0  0  0  0  0  0  0  0  0  0  0  0
   19.5774   13.2964   30.2957 C   0  0  0  0  0  0  0  0  0  0  0  0
   21.0852    9.0948   30.6092 C   0  0  0  0  0  0  0  0  0  0  0  0
   18.9788    7.8281   29.7049 C   0  0  0  0  0  0  0  0  0  0  0  0
   23.8395   10.1144   34.7950 C   0  0  0  0  0  0  0  0  0  0  0  0
   26.1627   10.8729   35.3689 C   0  0  0  0  0  0  0  0  0  0  0  0
   24.5144   14.6816   35.4075 C   0  0  0  0  0  0  0  0  0  0  0  0
   18.8039    7.2847   27.3330 C   0  0  0  0  0  0  0  0  0  0  0  0
   22.8728    7.8722   32.2029 O   0  0  0  0  0  0  0  0  0  0  0  0
   27.9373    9.0935   35.0625 C   0  0  0  0  0  0  0  0  0  0  0  0
   19.0455   11.4863   29.0658 C   0  0  0  0  0  0  0  0  0  0  0  0
   18.3595   11.8634   26.0757 O   0  0  0  0  0  0  0  0  0  0  0  0
   22.0104    9.8677   29.9795 O   0  0  0  0  0  0  0  0  0  0  0  0
   21.2737   11.1958   31.9382 C   0  0  0  0  0  0  0  0  0  0  0  0
   29.8739   11.0164   35.3437 C   0  0  0  0  0  0  0  0  0  0  0  0
   23.1239    8.9557   34.2572 C   0  0  0  0  0  0  0  0  0  0  0  0
   20.0893    7.7618   27.1823 C   0  0  0  0  0  0  0  0  0  0  0  0
   18.1991    7.3257   28.6218 C   0  0  0  0  0  0  0  0  0  0  0  0
   19.5650   11.9224   30.2860 C   0  0  0  0  0  0  0  0  0  0  0  0
   30.2508    9.7286   35.1226 N   0  0  0  0  0  0  0  0  0  0  0  0
   17.0278   13.7731   26.7670 C   0  0  0  0  0  0  0  0  0  0  0  0
   20.2570    8.3791   29.5333 C   0  0  0  0  0  0  0  0  0  0  0  0
   18.6587   12.6374   28.2544 C   0  0  0  0  0  0  0  0  0  0  0  0
   17.9656   12.6848   26.9387 C   0  0  0  0  0  0  0  0  0  0  0  0
   25.9957   12.3023   35.2388 C   0  0  0  0  0  0  0  0  0  0  0  0
   21.8002   10.5476   33.0352 C   0  0  0  0  0  0  0  0  0  0  0  0
   24.7971    9.7388   36.9310 O   0  0  0  0  0  0  0  0  0  0  0  0
   19.0283   13.7576   29.0702 C   0  0  0  0  0  0  0  0  0  0  0  0
  1 15  1  0
  1 32  2  3
  1 37  1  0
  2  3  1  0
  3  9  1  0
  3 25  1  0
  3 43  1  0
  4 35  2  0
  4 40  1  0
  5 19  1  0
  5 44  1  0
  6 13  1  0
  6 17  1  0
  7 16  2  0
  7 33  1  0
  8 11  1  0
  8 21  1  0
  9 19  1  0
 10 23  1  0
 10 24  1  0
 10 45  1  0
 11 27  1  0
 11 34  1  0
 11 44  1  0
 12 28  2  0
 12 38  1  0
 13 15  1  0
 14 15  1  0
 14 17  1  0
 16 24  1  0
 16 28  1  0
 18 34  1  0
 19 23  1  0
 20 37  1  0
 20 46  1  0
 21 31  2  0
 21 40  1  0
 22 36  1  0
 22 40  2  0
 23 34  1  0
 24 43  1  0
 26 35  1  0
 26 36  2  0
 29 37  1  0
 29 41  1  0
 30 42  2  0
 32 44  1  0
 33 38  2  0
 39 42  1  0
 41 42  1  0
 41 46  1  0
M  END
>  <ID>  (1) 
conformer_0

$$$$
