
     RDKit          3D

 33 36  0  0  0  0  0  0  0  0999 V2000
   29.7090    8.6172   35.0305 C   0  0  0  0  0  0  0  0  0  0  0  0
   23.3685    7.6388   34.4905 O   0  0  0  0  0  0  0  0  0  0  0  0
   26.3569   10.3335   35.4568 C   0  0  0  0  0  0  0  0  0  0  0  0
   18.9660    6.6851   25.2395 C   0  0  0  0  0  0  0  0  0  0  0  0
   24.9342    9.9776   35.5686 C   0  0  0  0  0  0  0  0  0  0  0  0
   21.1502   10.2513   33.5155 O   0  0  0  0  0  0  0  0  0  0  0  0
   29.1103   10.9507   35.4472 C   0  0  0  0  0  0  0  0  0  0  0  0
   18.2017    6.8964   27.4860 C   0  0  0  0  0  0  0  0  0  0  0  0
   20.7174    8.5450   29.5589 C   0  0  0  0  0  0  0  0  0  0  0  0
   21.8474    9.0889   33.4646 C   0  0  0  0  0  0  0  0  0  0  0  0
   20.1506    7.2779   25.5763 C   0  0  0  0  0  0  0  0  0  0  0  0
   19.4574    9.0435   31.6234 C   0  0  0  0  0  0  0  0  0  0  0  0
   24.3852    9.6948   36.7137 O   0  0  0  0  0  0  0  0  0  0  0  0
   26.8191   11.6306   35.6236 C   0  0  0  0  0  0  0  0  0  0  0  0
   20.7279    9.0454   30.9127 N   0  0  0  0  0  0  0  0  0  0  0  0
   22.8828    8.9274   34.6254 C   0  0  0  0  0  0  0  0  0  0  0  0
   27.3625    9.3397   35.2541 C   0  0  0  0  0  0  0  0  0  0  0  0
   23.8888   10.0572   34.4920 C   0  0  0  0  0  0  0  0  0  0  0  0
   19.6364    7.8005   29.1624 C   0  0  0  0  0  0  0  0  0  0  0  0
   20.3654    7.6847   26.8907 C   0  0  0  0  0  0  0  0  0  0  0  0
   19.3964    7.4644   27.8424 C   0  0  0  0  0  0  0  0  0  0  0  0
   23.2526   11.2640   34.5974 O   0  0  0  0  0  0  0  0  0  0  0  0
   30.5247   11.2799   35.5005 C   0  0  0  0  0  0  0  0  0  0  0  0
   21.5474    8.3281   27.2745 C   0  0  0  0  0  0  0  0  0  0  0  0
   18.2485    8.4922   30.8810 C   0  0  0  0  0  0  0  0  0  0  0  0
   28.1652   11.9608   35.6007 C   0  0  0  0  0  0  0  0  0  0  0  0
   18.9518    9.4024   32.7864 O   0  0  0  0  0  0  0  0  0  0  0  0
   18.7267    7.2760   30.1786 C   0  0  0  0  0  0  0  0  0  0  0  0
   21.9710    9.7756   31.1562 C   0  0  0  0  0  0  0  0  0  0  0  0
   22.7180    9.1183   32.2639 C   0  0  0  0  0  0  0  0  0  0  0  0
   21.7116    8.7668   28.5811 C   0  0  0  0  0  0  0  0  0  0  0  0
   28.7129    9.6602   35.2570 C   0  0  0  0  0  0  0  0  0  0  0  0
   17.9868    6.5032   26.1773 C   0  0  0  0  0  0  0  0  0  0  0  0
  1 32  1  0
  2 16  1  0
  3  5  1  0
  3 14  2  0
  3 17  1  0
  4 11  2  0
  4 33  1  0
  5 13  1  0
  5 18  1  0
  6 10  1  0
  7 23  1  0
  7 26  2  0
  7 32  1  0
  8 21  1  0
  8 33  2  0
  9 15  1  0
  9 19  2  0
  9 31  1  0
 10 16  1  0
 10 30  1  0
 11 20  1  0
 12 15  1  0
 12 25  1  0
 12 27  2  0
 14 26  1  0
 15 29  1  0
 16 18  1  0
 17 32  2  0
 18 22  1  0
 19 21  1  0
 19 28  1  0
 20 21  2  0
 20 24  1  0
 24 31  2  0
 25 28  1  0
 29 30  1  0
M  END
>  <ID>  (1) 
conformer_0

$$$$
