
     RDKit          3D

 26 28  0  0  0  0  0  0  0  0999 V2000
   27.4925    8.9410   34.7443 C   0  0  0  0  0  0  0  0  0  0  0  0
   24.7656   10.0155   32.7190 C   0  0  0  0  0  0  0  0  0  0  0  0
   21.4375    8.6811   33.2788 C   0  0  0  0  0  0  0  0  0  0  0  0
   20.8406    9.0798   29.2597 N   0  0  0  0  0  0  0  0  0  0  0  0
   21.4800    8.1503   26.6370 C   0  0  0  0  0  0  0  0  0  0  0  0
   23.4503    9.5394   32.2799 C   0  0  0  0  0  0  0  0  0  0  0  0
   17.9872    7.0760   26.9131 O   0  0  0  0  0  0  0  0  0  0  0  0
   20.0268    8.1376   27.1221 C   0  0  0  0  0  0  0  0  0  0  0  0
   22.8127    8.9946   33.4768 C   0  0  0  0  0  0  0  0  0  0  0  0
   19.4456    6.7205   25.3234 O   0  0  0  0  0  0  0  0  0  0  0  0
   20.5955    8.2969   34.1092 O   0  0  0  0  0  0  0  0  0  0  0  0
   23.8457    9.0040   34.4704 C   0  0  0  0  0  0  0  0  0  0  0  0
   22.4555    9.2900   31.1316 C   0  0  0  0  0  0  0  0  0  0  0  0
   27.9789   11.6658   35.1614 C   0  0  0  0  0  0  0  0  0  0  0  0
   22.2537    8.9432   29.6639 C   0  0  0  0  0  0  0  0  0  0  0  0
   28.7613    9.4374   35.0378 C   0  0  0  0  0  0  0  0  0  0  0  0
   29.8513    8.5096   35.1441 N   0  0  0  0  0  0  0  0  0  0  0  0
   19.7799    8.2962   28.6149 C   0  0  0  0  0  0  0  0  0  0  0  0
   26.4074    9.9094   34.5739 C   0  0  0  0  0  0  0  0  0  0  0  0
   19.8493    8.5042   31.5382 O   0  0  0  0  0  0  0  0  0  0  0  0
   19.0884    7.2452   26.3983 C   0  0  0  0  0  0  0  0  0  0  0  0
   21.1485    8.8842   31.8109 C   0  0  0  0  0  0  0  0  0  0  0  0
   29.0410   10.7669   35.2460 C   0  0  0  0  0  0  0  0  0  0  0  0
   25.0771    9.5922   34.0591 C   0  0  0  0  0  0  0  0  0  0  0  0
   26.7112   11.2551   34.8322 C   0  0  0  0  0  0  0  0  0  0  0  0
   23.5352    8.4730   35.6560 O   0  0  0  0  0  0  0  0  0  0  0  0
  1 16  2  0
  1 19  1  0
  2  6  1  0
  2 24  1  0
  3  9  1  0
  3 11  2  0
  3 22  1  0
  4 15  1  0
  4 18  1  0
  5  8  1  0
  6  9  2  0
  6 13  1  0
  7 21  2  0
  8 18  1  0
  8 21  1  0
  9 12  1  0
 10 21  1  0
 12 24  2  0
 12 26  1  0
 13 15  1  0
 13 22  1  0
 14 23  2  0
 14 25  1  0
 16 17  1  0
 16 23  1  0
 19 24  1  0
 19 25  2  0
 20 22  1  0
M  END
>  <ID>  (1) 
conformer_0

$$$$
