
     RDKit          3D

 29 32  0  0  0  0  0  0  0  0999 V2000
   21.2467    8.6567   32.8601 C   0  0  0  0  0  0  0  0  0  0  0  0
   21.6985    8.9235   30.1536 C   0  0  0  0  0  0  0  0  0  0  0  0
   22.3559    9.3114   32.4586 C   0  0  0  0  0  0  0  0  0  0  0  0
   23.3041    9.7009   33.5958 C   0  0  0  0  0  0  0  0  0  0  0  0
   26.9103   10.2169   35.2626 C   0  0  0  0  0  0  0  0  0  0  0  0
   21.4056    8.4474   27.7923 C   0  0  0  0  0  0  0  0  0  0  0  0
   19.2209    7.8167   26.9976 C   0  0  0  0  0  0  0  0  0  0  0  0
   24.6161   10.1803   34.2493 N   0  0  0  0  0  0  0  0  0  0  0  0
   27.3992    8.9296   34.9562 C   0  0  0  0  0  0  0  0  0  0  0  0
   20.1084    8.0823   28.0130 C   0  0  0  0  0  0  0  0  0  0  0  0
   29.2169   10.9538   35.3545 C   0  0  0  0  0  0  0  0  0  0  0  0
   17.8304    7.4901   27.4483 C   0  0  0  0  0  0  0  0  0  0  0  0
   20.2216    8.2986   31.8780 C   0  0  0  0  0  0  0  0  0  0  0  0
   21.9391    8.3579   26.5074 F   0  0  0  0  0  0  0  0  0  0  0  0
   25.4588   10.4489   35.3861 C   0  0  0  0  0  0  0  0  0  0  0  0
   18.1113    7.5516   29.3806 C   0  0  0  0  0  0  0  0  0  0  0  0
   19.5831    8.0223   29.3696 C   0  0  0  0  0  0  0  0  0  0  0  0
   22.6568    8.9345   34.7773 C   0  0  0  0  0  0  0  0  0  0  0  0
   23.2079    8.8807   36.0105 N   0  0  0  0  0  0  0  0  0  0  0  0
   22.5377    9.4573   31.1167 C   0  0  0  0  0  0  0  0  0  0  0  0
   27.8618   11.2335   35.4536 C   0  0  0  0  0  0  0  0  0  0  0  0
   17.4969    6.2454   26.7143 O   0  0  0  0  0  0  0  0  0  0  0  0
   28.7630    8.6912   34.9013 C   0  0  0  0  0  0  0  0  0  0  0  0
   30.1318   11.9354   35.3968 F   0  0  0  0  0  0  0  0  0  0  0  0
   22.1770    8.9130   28.8115 C   0  0  0  0  0  0  0  0  0  0  0  0
   29.6977    9.6942   35.1163 C   0  0  0  0  0  0  0  0  0  0  0  0
   16.6794    8.2345   27.3279 O   0  0  0  0  0  0  0  0  0  0  0  0
   20.4463    8.3994   30.4732 C   0  0  0  0  0  0  0  0  0  0  0  0
   21.4378    8.4407   34.2902 N   0  0  0  0  0  0  0  0  0  0  0  0
  1  3  1  0
  1 13  2  0
  1 29  1  0
  2 20  1  0
  2 25  2  0
  2 28  1  0
  3  4  1  0
  3 20  2  0
  4  8  1  0
  4 18  1  0
  5  9  2  0
  5 15  1  0
  5 21  1  0
  6 10  2  0
  6 14  1  0
  6 25  1  0
  7 10  1  0
  7 12  1  0
  8 15  1  0
  9 23  1  0
 10 17  1  0
 11 21  2  0
 11 24  1  0
 11 26  1  0
 12 22  1  0
 12 27  1  0
 13 28  1  0
 16 17  1  0
 17 28  2  0
 18 19  2  0
 18 29  1  0
 23 26  2  0
M  END
>  <ID>  (1) 
conformer_0

$$$$
