
     RDKit          3D

 28 30  0  0  0  0  0  0  0  0999 V2000
   27.7023   11.6764   35.7764 C   0  0  0  0  0  0  0  0  0  0  0  0
   21.0626   10.4169   33.3275 C   0  0  0  0  0  0  0  0  0  0  0  0
   19.2621    7.6494   30.5627 N   0  0  0  0  0  0  0  0  0  0  0  0
   18.2320    6.1539   25.7131 C   0  0  0  0  0  0  0  0  0  0  0  0
   19.8707    8.6431   31.4918 C   0  0  0  0  0  0  0  0  0  0  0  0
   25.3091   10.9283   36.0536 C   0  0  0  0  0  0  0  0  0  0  0  0
   21.1040    9.1505   28.5493 C   0  0  0  0  0  0  0  0  0  0  0  0
   21.9213    8.0918   26.1918 Cl  0  0  0  0  0  0  0  0  0  0  0  0
   19.4554    7.5874   27.1802 C   0  0  0  0  0  0  0  0  0  0  0  0
   21.6938    9.2092   33.0799 C   0  0  0  0  0  0  0  0  0  0  0  0
   26.9464    9.6550   34.8613 C   0  0  0  0  0  0  0  0  0  0  0  0
   28.5146    9.6980   34.8966 C   0  0  0  0  0  0  0  0  0  0  0  0
   24.2688   10.1387   35.6624 N   0  0  0  0  0  0  0  0  0  0  0  0
   19.2422    9.8391   31.8018 C   0  0  0  0  0  0  0  0  0  0  0  0
   26.6041   10.7879   35.5981 C   0  0  0  0  0  0  0  0  0  0  0  0
   22.9856    8.8341   33.9144 C   0  0  0  0  0  0  0  0  0  0  0  0
   25.8037    9.0098   34.2965 N   0  0  0  0  0  0  0  0  0  0  0  0
   19.8446   10.7278   32.6959 C   0  0  0  0  0  0  0  0  0  0  0  0
   18.4839    7.8298   29.4615 C   0  0  0  0  0  0  0  0  0  0  0  0
   28.8818   10.9705   35.3535 C   0  0  0  0  0  0  0  0  0  0  0  0
   21.1107    8.3751   32.0885 C   0  0  0  0  0  0  0  0  0  0  0  0
   20.6997    8.2738   27.4480 C   0  0  0  0  0  0  0  0  0  0  0  0
   24.4649    9.2722   34.6273 C   0  0  0  0  0  0  0  0  0  0  0  0
   19.5674    6.4354   30.8213 O   0  0  0  0  0  0  0  0  0  0  0  0
   19.1919    7.0825   25.9241 O   0  0  0  0  0  0  0  0  0  0  0  0
   22.5708    7.7556   34.7115 O   0  0  0  0  0  0  0  0  0  0  0  0
   29.6423    8.7118   34.7793 C   0  0  0  0  0  0  0  0  0  0  0  0
   18.5577    7.4987   28.2118 C   0  0  0  0  0  0  0  0  0  0  0  0
  1 15  1  0
  1 20  1  0
  2 10  2  0
  2 18  1  0
  3  5  1  0
  3 19  1  0
  3 24  1  0
  4 25  1  0
  5 14  2  0
  5 21  1  0
  6 13  2  0
  6 15  1  0
  7 22  1  0
  8 22  1  0
  9 22  1  0
  9 25  1  0
  9 28  2  3
 10 16  1  0
 10 21  1  0
 11 12  1  0
 11 15  1  0
 11 17  1  0
 12 20  1  0
 12 27  1  0
 13 23  1  0
 14 18  1  0
 16 23  1  0
 16 26  1  0
 17 23  2  0
 19 28  1  0
M  END
>  <ID>  (1) 
conformer_0

$$$$
