
     RDKit          3D

 23 24  0  0  0  0  0  0  0  0999 V2000
   19.3179    9.2160   30.3907 O   0  0  0  0  0  0  0  0  0  0  0  0
   26.6271    9.9343   34.8091 C   0  0  0  0  0  0  0  0  0  0  0  0
   24.1344    9.2159   34.2128 C   0  0  0  0  0  0  0  0  0  0  0  0
   27.7648    9.0846   34.8366 C   0  0  0  0  0  0  0  0  0  0  0  0
   25.4096    9.3694   34.7208 N   0  0  0  0  0  0  0  0  0  0  0  0
   29.7158   10.7479   35.2435 C   0  0  0  0  0  0  0  0  0  0  0  0
   18.5191    8.2950   29.2666 C   0  0  0  0  0  0  0  0  0  0  0  0
   21.9312    8.1529   34.6106 C   0  0  0  0  0  0  0  0  0  0  0  0
   21.1370    9.1137   32.1078 C   0  0  0  0  0  0  0  0  0  0  0  0
   21.9851    9.9329   31.3696 C   0  0  0  0  0  0  0  0  0  0  0  0
   23.2617    9.4571   33.2050 C   0  0  0  0  0  0  0  0  0  0  0  0
   29.1452    9.3758   34.9446 C   0  0  0  0  0  0  0  0  0  0  0  0
   21.8215    8.7799   33.3047 C   0  0  0  0  0  0  0  0  0  0  0  0
   19.0772    7.9982   32.2424 O   0  0  0  0  0  0  0  0  0  0  0  0
   16.5831    8.1911   27.4509 O   0  0  0  0  0  0  0  0  0  0  0  0
   23.2736    8.3893   35.1952 N   0  0  0  0  0  0  0  0  0  0  0  0
   18.4197    6.9050   26.6600 C   0  0  0  0  0  0  0  0  0  0  0  0
   23.2313   10.0942   32.0360 C   0  0  0  0  0  0  0  0  0  0  0  0
   23.4263    8.9046   36.4642 O   0  0  0  0  0  0  0  0  0  0  0  0
   19.8167    8.7334   31.6028 C   0  0  0  0  0  0  0  0  0  0  0  0
   19.4343    7.1059   29.3958 O   0  0  0  0  0  0  0  0  0  0  0  0
   17.8502    7.9267   27.7710 C   0  0  0  0  0  0  0  0  0  0  0  0
   30.1109    8.3775   34.7501 N   0  0  0  0  0  0  0  0  0  0  0  0
  1  7  1  0
  1 20  1  0
  2  4  2  3
  2  5  1  0
  3  5  1  0
  3 11  2  0
  3 16  1  0
  4 12  1  0
  6 12  1  0
  7 21  2  0
  7 22  1  0
  8 13  1  0
  8 16  1  0
  9 10  1  0
  9 13  2  0
  9 20  1  0
 10 18  1  0
 11 13  1  0
 11 18  1  0
 12 23  1  0
 14 20  2  0
 15 22  1  0
 16 19  1  0
 17 22  1  0
M  END
>  <ID>  (1) 
conformer_0

$$$$
