
     RDKit          3D

 28 30  0  0  0  0  0  0  0  0999 V2000
   27.1473   10.9399   35.3051 N   0  0  0  0  0  0  0  0  0  0  0  0
   20.0670    7.4767   27.1615 C   0  0  0  0  0  0  0  0  0  0  0  0
   21.9505    9.5366   31.2492 C   0  0  0  0  0  0  0  0  0  0  0  0
   22.0351    7.6535   25.5215 C   0  0  0  0  0  0  0  0  0  0  0  0
   21.8641    8.7445   27.7768 N   0  0  0  0  0  0  0  0  0  0  0  0
   22.6098    8.5902   34.1689 C   0  0  0  0  0  0  0  0  0  0  0  0
   23.2557    9.9134   34.1725 C   0  0  0  0  0  0  0  0  0  0  0  0
   19.7930    8.8423   32.0090 C   0  0  0  0  0  0  0  0  0  0  0  0
   21.3017    9.5478   29.9581 C   0  0  0  0  0  0  0  0  0  0  0  0
   20.9666    8.6959   28.8210 C   0  0  0  0  0  0  0  0  0  0  0  0
   22.3181   11.0390   33.9287 C   0  0  0  0  0  0  0  0  0  0  0  0
   29.6950    9.8756   35.2014 C   0  0  0  0  0  0  0  0  0  0  0  0
   17.7371    7.5695   29.6229 C   0  0  0  0  0  0  0  0  0  0  0  0
   24.6404   10.2953   34.5635 C   0  0  0  0  0  0  0  0  0  0  0  0
   25.6577    9.2367   34.6684 C   0  0  0  0  0  0  0  0  0  0  0  0
   28.5461    8.9997   35.0726 C   0  0  0  0  0  0  0  0  0  0  0  0
   21.0618    9.4756   32.4697 C   0  0  0  0  0  0  0  0  0  0  0  0
   28.1620   11.8228   35.2478 C   0  0  0  0  0  0  0  0  0  0  0  0
   21.0596   10.7629   33.1892 C   0  0  0  0  0  0  0  0  0  0  0  0
   29.5247   11.3031   35.4475 C   0  0  0  0  0  0  0  0  0  0  0  0
   21.3355    7.9538   26.7754 C   0  0  0  0  0  0  0  0  0  0  0  0
   19.9158    7.8575   28.4640 C   0  0  0  0  0  0  0  0  0  0  0  0
   23.0148    8.5619   25.1992 O   0  0  0  0  0  0  0  0  0  0  0  0
   19.0112    7.2756   29.3002 O   0  0  0  0  0  0  0  0  0  0  0  0
   27.1325    9.5849   34.9750 C   0  0  0  0  0  0  0  0  0  0  0  0
   21.3991    8.4722   33.4184 N   0  0  0  0  0  0  0  0  0  0  0  0
   18.7946    9.4915   31.6725 O   0  0  0  0  0  0  0  0  0  0  0  0
   23.0239    7.5586   34.8377 O   0  0  0  0  0  0  0  0  0  0  0  0
  1 18  1  0
  1 25  1  0
  2 21  1  0
  2 22  1  0
  3  9  1  0
  3 17  1  0
  4 21  1  0
  4 23  1  0
  5 10  1  0
  5 21  1  0
  6  7  1  0
  6 26  1  0
  6 28  2  0
  7 11  1  0
  7 14  1  0
  8 17  1  0
  8 27  2  0
  9 10  1  0
 10 22  1  0
 11 19  1  0
 12 16  1  0
 12 20  2  0
 13 24  1  0
 14 15  2  3
 15 25  1  0
 16 25  2  0
 17 19  1  0
 17 26  1  0
 18 20  1  0
 22 24  1  0
M  END
>  <ID>  (1) 
conformer_0

$$$$
