
     RDKit          3D

 27 29  0  0  0  0  0  0  0  0999 V2000
   27.1900   10.3213   34.7918 C   0  0  0  0  0  0  0  0  0  0  0  0
   18.6271    9.0910   29.3779 C   0  0  0  0  0  0  0  0  0  0  0  0
   21.1901    8.6449   33.6380 C   0  0  0  0  0  0  0  0  0  0  0  0
   19.5769    8.5810   28.4441 N   0  0  0  0  0  0  0  0  0  0  0  0
   19.8363    7.4966   26.2457 N   0  0  0  0  0  0  0  0  0  0  0  0
   23.3769    9.4507   33.0696 C   0  0  0  0  0  0  0  0  0  0  0  0
   20.7509    9.1075   32.4424 C   0  0  0  0  0  0  0  0  0  0  0  0
   28.2408   11.3337   34.9423 C   0  0  0  0  0  0  0  0  0  0  0  0
   25.8753   10.5795   35.4294 C   0  0  0  0  0  0  0  0  0  0  0  0
   18.3735   10.3610   29.3483 O   0  0  0  0  0  0  0  0  0  0  0  0
   29.5334   10.6454   35.1325 C   0  0  0  0  0  0  0  0  0  0  0  0
   18.9848    7.8244   27.3362 C   0  0  0  0  0  0  0  0  0  0  0  0
   24.8669    9.6844   34.9545 C   0  0  0  0  0  0  0  0  0  0  0  0
   21.5983    9.4946   31.4222 C   0  0  0  0  0  0  0  0  0  0  0  0
   17.9669    8.2499   30.1095 O   0  0  0  0  0  0  0  0  0  0  0  0
   29.2992    9.2069   35.1015 N   0  0  0  0  0  0  0  0  0  0  0  0
   22.9202    9.7105   31.7869 C   0  0  0  0  0  0  0  0  0  0  0  0
   19.3618    9.2401   32.3838 F   0  0  0  0  0  0  0  0  0  0  0  0
   21.0417    8.8385   28.8566 C   0  0  0  0  0  0  0  0  0  0  0  0
   24.5817    9.8820   33.6157 O   0  0  0  0  0  0  0  0  0  0  0  0
   21.1258    7.9353   26.3749 N   0  0  0  0  0  0  0  0  0  0  0  0
   27.8267    8.9814   34.9302 C   0  0  0  0  0  0  0  0  0  0  0  0
   17.6928    7.5471   27.1269 O   0  0  0  0  0  0  0  0  0  0  0  0
   22.5204    8.7720   33.9392 C   0  0  0  0  0  0  0  0  0  0  0  0
   21.1837    9.7110   29.9969 C   0  0  0  0  0  0  0  0  0  0  0  0
   21.7512    8.4351   27.5757 C   0  0  0  0  0  0  0  0  0  0  0  0
   22.8871    8.1989   35.1031 O   0  0  0  0  0  0  0  0  0  0  0  0
  1  8  1  0
  1  9  1  0
  1 22  1  0
  2  4  1  0
  2 10  2  0
  2 15  1  0
  3  7  1  0
  3 24  2  0
  4 12  1  0
  4 19  1  0
  5 12  1  0
  5 21  1  0
  6 17  1  0
  6 20  1  0
  6 24  1  0
  7 14  1  0
  7 18  1  0
  8 11  1  0
  9 13  1  0
 11 16  1  0
 12 23  2  0
 13 20  1  0
 14 17  2  0
 14 25  1  0
 16 22  1  0
 19 25  1  0
 19 26  1  0
 21 26  2  0
 24 27  1  0
M  END
>  <ID>  (1) 
conformer_0

$$$$
