
     RDKit          3D

 28 31  0  0  0  0  0  0  0  0999 V2000
   29.5156    8.6490   34.9249 C   0  0  0  0  0  0  0  0  0  0  0  0
   19.4208    8.4179   30.8480 C   0  0  0  0  0  0  0  0  0  0  0  0
   22.7685    7.4759   35.2376 O   0  0  0  0  0  0  0  0  0  0  0  0
   30.4510    9.6796   35.1397 N   0  0  0  0  0  0  0  0  0  0  0  0
   20.3099    7.9417   27.3497 C   0  0  0  0  0  0  0  0  0  0  0  0
   28.2644    9.2224   34.9427 C   0  0  0  0  0  0  0  0  0  0  0  0
   20.6561    8.6587   33.1421 C   0  0  0  0  0  0  0  0  0  0  0  0
   22.4123    9.6965   31.2442 C   0  0  0  0  0  0  0  0  0  0  0  0
   21.5926    8.0053   26.1617 Cl  0  0  0  0  0  0  0  0  0  0  0  0
   18.0642    7.1967   27.7542 C   0  0  0  0  0  0  0  0  0  0  0  0
   22.7610    8.5714   34.5537 C   0  0  0  0  0  0  0  0  0  0  0  0
   28.4082   10.6454   35.1091 C   0  0  0  0  0  0  0  0  0  0  0  0
   24.0397    9.9066   33.1041 C   0  0  0  0  0  0  0  0  0  0  0  0
   27.3116   11.5325   35.0935 C   0  0  0  0  0  0  0  0  0  0  0  0
   18.1355    7.9287   30.3047 C   0  0  0  0  0  0  0  0  0  0  0  0
   25.5477    9.6403   34.9946 C   0  0  0  0  0  0  0  0  0  0  0  0
   26.0267   11.0096   34.7114 C   0  0  0  0  0  0  0  0  0  0  0  0
   17.8831    7.4921   29.0228 C   0  0  0  0  0  0  0  0  0  0  0  0
   24.1578    9.2857   34.5136 C   0  0  0  0  0  0  0  0  0  0  0  0
   19.1160    7.3161   26.8743 C   0  0  0  0  0  0  0  0  0  0  0  0
   21.9333    8.8838   33.4694 C   0  0  0  0  0  0  0  0  0  0  0  0
   29.7246   10.8913   35.2393 N   0  0  0  0  0  0  0  0  0  0  0  0
   19.7123    8.5302   32.1760 C   0  0  0  0  0  0  0  0  0  0  0  0
   22.7909    9.5315   32.5422 C   0  0  0  0  0  0  0  0  0  0  0  0
   20.4658    8.7477   29.8701 C   0  0  0  0  0  0  0  0  0  0  0  0
   20.4853    8.4471   28.5525 C   0  0  0  0  0  0  0  0  0  0  0  0
   17.0866    7.9485   31.0983 O   0  0  0  0  0  0  0  0  0  0  0  0
   21.5696    9.4010   30.3315 C   0  0  0  0  0  0  0  0  0  0  0  0
  1  4  1  0
  1  6  1  0
  2 15  1  0
  2 23  1  0
  2 25  1  0
  3 11  1  0
  4 22  1  0
  5  9  1  0
  5 20  1  0
  5 26  2  0
  6 12  1  0
  7 21  1  0
  7 23  2  0
  8 24  1  0
  8 28  2  0
 10 18  2  0
 10 20  1  0
 11 19  1  0
 11 21  1  0
 12 14  2  3
 12 22  1  0
 13 19  1  0
 13 24  1  0
 14 17  1  0
 15 18  2  0
 15 27  1  0
 16 17  2  3
 16 19  1  0
 21 24  2  0
 25 26  2  0
 25 28  1  0
M  END
>  <ID>  (1) 
conformer_0

$$$$
