
     RDKit          3D

 29 31  0  0  0  0  0  0  0  0999 V2000
   20.6235   10.5216   32.8072 C   0  0  0  0  0  0  0  0  0  0  0  0
   17.3564    7.3658   26.5622 C   0  0  0  0  0  0  0  0  0  0  0  0
   28.2263   11.1598   35.1116 C   0  0  0  0  0  0  0  0  0  0  0  0
   25.1222    9.7510   34.6429 C   0  0  0  0  0  0  0  0  0  0  0  0
   29.5428   11.1698   34.9694 N   0  0  0  0  0  0  0  0  0  0  0  0
   27.5328   10.0012   35.1316 C   0  0  0  0  0  0  0  0  0  0  0  0
   21.7120    9.6053   32.4239 C   0  0  0  0  0  0  0  0  0  0  0  0
   19.8932   11.0227   31.5908 C   0  0  0  0  0  0  0  0  0  0  0  0
   15.8967    7.4878   26.2682 C   0  0  0  0  0  0  0  0  0  0  0  0
   18.2313    8.9387   29.5038 N   0  0  0  0  0  0  0  0  0  0  0  0
   28.1964    8.7779   34.9903 C   0  0  0  0  0  0  0  0  0  0  0  0
   26.2039   10.0802   35.3491 O   0  0  0  0  0  0  0  0  0  0  0  0
   18.1088    8.5428   27.0793 C   0  0  0  0  0  0  0  0  0  0  0  0
   22.3624    9.9150   31.1194 C   0  0  0  0  0  0  0  0  0  0  0  0
   19.1249    8.8759   30.7029 C   0  0  0  0  0  0  0  0  0  0  0  0
   18.8116    8.3178   28.3774 C   0  0  0  0  0  0  0  0  0  0  0  0
   24.2615    9.7975   36.7955 O   0  0  0  0  0  0  0  0  0  0  0  0
   22.8322    8.8398   34.8810 C   0  0  0  0  0  0  0  0  0  0  0  0
   22.7641    9.3288   33.4583 C   0  0  0  0  0  0  0  0  0  0  0  0
   30.2103    9.9898   34.8489 C   0  0  0  0  0  0  0  0  0  0  0  0
   18.0426    6.1697   25.8805 C   0  0  0  0  0  0  0  0  0  0  0  0
   20.0625   10.0377   30.5248 C   0  0  0  0  0  0  0  0  0  0  0  0
   22.7720    7.4052   34.8605 O   0  0  0  0  0  0  0  0  0  0  0  0
   29.5899    8.8022   34.8553 C   0  0  0  0  0  0  0  0  0  0  0  0
   25.2375    9.3002   33.2841 C   0  0  0  0  0  0  0  0  0  0  0  0
   19.7462    7.4256   28.4805 O   0  0  0  0  0  0  0  0  0  0  0  0
   24.0523    9.3432   35.5587 C   0  0  0  0  0  0  0  0  0  0  0  0
   21.4408   10.0063   29.9965 C   0  0  0  0  0  0  0  0  0  0  0  0
   23.9701    8.7876   32.7255 C   0  0  0  0  0  0  0  0  0  0  0  0
  1  7  1  0
  1  8  1  0
  2  9  1  0
  2 13  1  0
  2 21  1  0
  3  5  2  0
  3  6  1  0
  4 12  1  0
  4 25  1  0
  4 27  1  0
  5 20  1  0
  6 11  2  0
  6 12  1  0
  7 14  1  0
  7 19  1  0
  8 22  1  0
 10 15  1  0
 10 16  1  0
 11 24  1  0
 13 16  1  0
 14 28  1  0
 15 22  1  0
 16 26  2  0
 17 27  1  0
 18 19  1  0
 18 23  1  0
 18 27  1  0
 19 29  1  0
 20 24  2  0
 22 28  1  0
 25 29  1  0
M  END
>  <ID>  (1) 
conformer_0

$$$$
