
     RDKit          3D

 23 24  0  0  0  0  0  0  0  0999 V2000
   20.3783    8.0338   29.0368 C   0  0  0  0  0  0  0  0  0  0  0  0
   28.2528   11.4381   35.5574 O   0  0  0  0  0  0  0  0  0  0  0  0
   24.4940   10.1889   34.2984 C   0  0  0  0  0  0  0  0  0  0  0  0
   22.4051    8.8842   33.3539 C   0  0  0  0  0  0  0  0  0  0  0  0
   27.9351    8.8104   34.7243 O   0  0  0  0  0  0  0  0  0  0  0  0
   18.9864    6.3139   28.4162 O   0  0  0  0  0  0  0  0  0  0  0  0
   26.9913   10.9306   35.3175 C   0  0  0  0  0  0  0  0  0  0  0  0
   21.2127    8.7475   34.1863 O   0  0  0  0  0  0  0  0  0  0  0  0
   20.0116    7.9955   30.3658 C   0  0  0  0  0  0  0  0  0  0  0  0
   20.6443    8.3457   31.5086 C   0  0  0  0  0  0  0  0  0  0  0  0
   23.1246    7.4549   35.2375 O   0  0  0  0  0  0  0  0  0  0  0  0
   21.5623    8.6817   28.6843 C   0  0  0  0  0  0  0  0  0  0  0  0
   25.8685   11.7059   35.5955 C   0  0  0  0  0  0  0  0  0  0  0  0
   21.8661    8.8384   31.8722 C   0  0  0  0  0  0  0  0  0  0  0  0
   24.6112   11.3371   35.0951 C   0  0  0  0  0  0  0  0  0  0  0  0
   22.4909    9.1666   29.4988 C   0  0  0  0  0  0  0  0  0  0  0  0
   23.2588   10.0962   33.5379 O   0  0  0  0  0  0  0  0  0  0  0  0
   26.8479    9.6761   34.7431 C   0  0  0  0  0  0  0  0  0  0  0  0
   23.3535    7.7177   33.7856 C   0  0  0  0  0  0  0  0  0  0  0  0
   25.6278    9.3055   34.2138 C   0  0  0  0  0  0  0  0  0  0  0  0
   19.5910    7.3528   28.0134 C   0  0  0  0  0  0  0  0  0  0  0  0
   19.7827    7.6648   26.7718 O   0  0  0  0  0  0  0  0  0  0  0  0
   22.7246    9.2647   30.8515 C   0  0  0  0  0  0  0  0  0  0  0  0
  1  9  1  0
  1 12  1  0
  1 21  1  0
  2  7  1  0
  3 15  2  0
  3 17  1  0
  3 20  1  0
  4  8  1  0
  4 14  1  0
  4 17  1  0
  4 19  1  0
  5 18  1  0
  6 21  2  0
  7 13  2  0
  7 18  1  0
  9 10  2  0
 10 14  1  0
 11 19  1  0
 12 16  2  0
 13 15  1  0
 14 23  2  0
 16 23  1  0
 18 20  2  0
 21 22  1  0
M  END
>  <ID>  (1) 
conformer_0

$$$$
