
     RDKit          3D

 34 36  0  0  0  0  0  0  0  0999 V2000
   24.8891    8.7648   33.9801 C   0  0  0  0  0  0  0  0  0  0  0  0
   18.4932    6.5995   28.6201 N   0  0  0  0  0  0  0  0  0  0  0  0
   21.3650    8.5874   28.0608 C   0  0  0  0  0  0  0  0  0  0  0  0
   27.4567   11.8977   35.5962 C   0  0  0  0  0  0  0  0  0  0  0  0
   17.6093   10.0458   32.2880 O   0  0  0  0  0  0  0  0  0  0  0  0
   24.2573    9.7282   35.0265 C   0  0  0  0  0  0  0  0  0  0  0  0
   29.7918    8.4463   34.8654 C   0  0  0  0  0  0  0  0  0  0  0  0
   19.2906    8.7963   31.2464 C   0  0  0  0  0  0  0  0  0  0  0  0
   20.6085    8.4701   26.8691 C   0  0  0  0  0  0  0  0  0  0  0  0
   26.7334   10.7361   35.3249 C   0  0  0  0  0  0  0  0  0  0  0  0
   29.6244   10.8186   35.3333 C   0  0  0  0  0  0  0  0  0  0  0  0
   20.2895    9.0840   32.0854 C   0  0  0  0  0  0  0  0  0  0  0  0
   19.6567    8.3228   29.9032 C   0  0  0  0  0  0  0  0  0  0  0  0
   22.8821   10.1065   34.3826 C   0  0  0  0  0  0  0  0  0  0  0  0
   22.0145    7.8617   34.2296 O   0  0  0  0  0  0  0  0  0  0  0  0
   23.2710    8.1339   26.6681 C   0  0  0  0  0  0  0  0  0  0  0  0
   21.1241    7.9491   25.6882 C   0  0  0  0  0  0  0  0  0  0  0  0
   22.7624    8.5587   27.8847 C   0  0  0  0  0  0  0  0  0  0  0  0
   21.9831    9.1353   33.8581 C   0  0  0  0  0  0  0  0  0  0  0  0
   19.2915    8.9850   26.7786 F   0  0  0  0  0  0  0  0  0  0  0  0
   25.2022   10.9160   35.2451 C   0  0  0  0  0  0  0  0  0  0  0  0
   21.1758   11.1119   33.1316 C   0  0  0  0  0  0  0  0  0  0  0  0
   20.8458    8.7353   29.3283 C   0  0  0  0  0  0  0  0  0  0  0  0
   21.0490    9.7053   32.9896 C   0  0  0  0  0  0  0  0  0  0  0  0
   27.5811    9.5449   35.0793 C   0  0  0  0  0  0  0  0  0  0  0  0
   28.9456    9.6224   35.0899 C   0  0  0  0  0  0  0  0  0  0  0  0
   22.2797   11.3514   33.9907 C   0  0  0  0  0  0  0  0  0  0  0  0
   17.9040    8.9996   31.6623 C   0  0  0  0  0  0  0  0  0  0  0  0
   28.8443   11.9215   35.5946 C   0  0  0  0  0  0  0  0  0  0  0  0
   22.4724    7.7680   25.6174 C   0  0  0  0  0  0  0  0  0  0  0  0
   16.9679    8.1227   31.5089 N   0  0  0  0  0  0  0  0  0  0  0  0
   24.6023   12.0338   35.8590 O   0  0  0  0  0  0  0  0  0  0  0  0
   23.8798    9.2067   36.3803 O   0  0  0  0  0  0  0  0  0  0  0  0
   18.8794    7.4450   29.2628 C   0  0  0  0  0  0  0  0  0  0  0  0
  1  6  1  0
  2 34  3  0
  3  9  1  0
  3 18  1  0
  3 23  1  0
  4 10  2  0
  4 29  1  0
  5 28  2  0
  6 14  1  0
  6 21  1  0
  6 33  1  0
  7 26  1  0
  8 12  2  0
  8 13  1  0
  8 28  1  0
  9 17  1  0
  9 20  1  0
 10 21  1  0
 10 25  1  0
 11 26  1  0
 11 29  2  0
 12 24  2  0
 13 23  2  3
 13 34  1  0
 14 19  1  0
 14 27  1  0
 15 19  1  0
 16 18  2  0
 16 30  1  0
 17 30  2  0
 19 24  1  0
 21 32  1  0
 22 24  1  0
 22 27  1  0
 25 26  2  0
 28 31  1  0
M  END
>  <ID>  (1) 
conformer_0

$$$$
