
     RDKit          3D

 43 45  0  0  0  0  0  0  0  0999 V2000
   29.3133    9.9277   35.1219 C   0  0  0  0  0  0  0  0  0  0  0  0
   19.7416    7.0935   25.8912 C   0  0  0  0  0  0  0  0  0  0  0  0
   19.5929   13.8051   30.7591 C   0  0  0  0  0  0  0  0  0  0  0  0
   21.0347    8.3587   32.1120 O   0  0  0  0  0  0  0  0  0  0  0  0
   16.1180    8.1042   32.2396 O   0  0  0  0  0  1  0  0  0  0  0  0
   17.1468    9.1733   30.2596 O   0  0  0  0  0  0  0  0  0  0  0  0
   23.8641    7.9536   33.8257 O   0  0  0  0  0  0  0  0  0  0  0  0
   21.8347    8.9438   29.6999 C   0  0  0  0  0  0  0  0  0  0  0  0
   21.9380    7.9300   25.5010 F   0  0  0  0  0  0  0  0  0  0  0  0
   21.0941   13.3978   34.1467 C   0  0  0  0  0  0  0  0  0  0  0  0
   20.9062    7.6919   26.3602 C   0  0  0  0  0  0  0  0  0  0  0  0
   18.7182    8.4175   32.0702 O   0  0  0  0  0  0  0  0  0  0  0  0
   19.6641   12.8028   32.0680 C   0  0  0  0  0  0  0  0  0  0  0  0
   27.9814    9.5955   34.8883 C   0  0  0  0  0  0  0  0  0  0  0  0
   20.4054    8.4932   29.8619 C   0  0  0  0  0  0  0  0  0  0  0  0
   20.0228    7.9594   28.5834 C   0  0  0  0  0  0  0  0  0  0  0  0
   29.6587   11.1880   35.6137 C   0  0  0  0  0  0  0  0  0  0  0  0
   19.8458   13.5611   33.3251 C   0  0  0  0  0  0  0  0  0  0  0  0
   26.9758   10.5547   35.0207 C   0  0  0  0  0  0  0  0  0  0  0  0
   21.6358    9.1545   32.9757 N   0  0  0  0  0  0  0  0  0  0  0  0
   21.0033    8.1056   27.7088 C   0  0  0  0  0  0  0  0  0  0  0  0
   27.3166   11.7654   35.6177 C   0  0  0  0  0  0  0  0  0  0  0  0
   18.8802    7.3312   28.1289 C   0  0  0  0  0  0  0  0  0  0  0  0
   23.5003    8.9440   34.7597 C   0  0  0  0  0  0  0  0  0  0  0  0
   18.7086    6.9195   26.8055 C   0  0  0  0  0  0  0  0  0  0  0  0
   22.1404    8.7472   28.2930 O   0  0  0  0  0  0  0  0  0  0  0  0
   17.0256   10.4135   32.7172 C   0  0  0  0  0  0  0  0  0  0  0  0
   18.6127   13.5121   34.2354 C   0  0  0  0  0  0  0  0  0  0  0  0
   19.9266    8.9189   31.2794 C   0  0  0  0  0  0  0  0  0  0  0  0
   27.5999    8.3196   34.4627 C   0  0  0  0  0  0  0  0  0  0  0  0
   22.7039   11.0861   33.5713 C   0  0  0  0  0  0  0  0  0  0  0  0
   30.2794    8.9900   34.8320 O   0  0  0  0  0  0  0  0  0  0  0  0
   26.1258   12.9039   36.0687 Cl  0  0  0  0  0  0  0  0  0  0  0  0
   24.5387    9.9832   35.2236 C   0  0  0  0  0  0  0  0  0  0  0  0
   20.2534   11.0111   30.0465 O   0  0  0  0  0  0  0  0  0  0  0  0
   17.2626    8.9924   31.7744 P   0  0  0  0  0  4  0  0  0  0  0  0
   19.7231   11.4285   32.1858 N   0  0  0  0  0  0  0  0  0  0  0  0
   20.0094   10.4503   31.2442 C   0  0  0  0  0  0  0  0  0  0  0  0
   28.6500   12.0981   35.8753 C   0  0  0  0  0  0  0  0  0  0  0  0
   25.6872   10.3037   34.4540 C   0  0  0  0  0  0  0  0  0  0  0  0
   23.0835    8.3052   35.9637 O   0  0  0  0  0  0  0  0  0  0  0  0
   22.3871    9.7736   34.0392 C   0  0  0  0  0  0  0  0  0  0  0  0
   24.0846   10.8080   36.1596 O   0  0  0  0  0  0  0  0  0  0  0  0
  1 14  2  0
  1 17  1  0
  1 32  1  0
  2 11  2  0
  2 25  1  0
  3 13  1  0
  4 20  1  0
  4 29  1  0
  5 36  2  0
  6 36  1  0
  7 24  1  0
  8 15  1  0
  8 26  1  0
  9 11  1  0
 10 18  1  0
 11 21  1  0
 12 29  1  0
 12 36  1  0
 13 18  1  0
 13 37  1  0
 14 19  1  0
 14 30  1  0
 15 16  1  0
 15 29  1  0
 16 21  2  0
 16 23  1  0
 17 39  2  0
 18 28  1  0
 19 22  2  0
 19 40  1  0
 20 42  1  0
 21 26  1  0
 22 33  1  0
 22 39  1  0
 23 25  2  0
 24 34  1  0
 24 41  1  0
 24 42  1  0
 27 36  1  0
 29 38  1  0
 31 42  1  0
 34 40  1  0
 34 43  1  0
 35 38  2  0
 37 38  1  0
M  END
>  <ID>  (1) 
conformer_0

$$$$
