
     RDKit          3D

 31 31  0  0  0  0  0  0  0  0999 V2000
   19.3127    7.2772   26.9712 C   0  0  0  0  0  0  0  0  0  0  0  0
   27.6924    9.3036   34.9324 C   0  0  0  0  0  0  0  0  0  0  0  0
   20.7140   12.9805   34.1844 C   0  0  0  0  0  0  0  0  0  0  0  0
   25.3757    9.4802   34.3760 C   0  0  0  0  0  0  0  0  0  0  0  0
   23.1812    8.5481   34.7429 C   0  0  0  0  0  0  0  0  0  0  0  0
   19.6386   13.4231   32.0827 C   0  0  0  0  0  0  0  0  0  0  0  0
   29.0654    9.5988   35.0398 C   0  0  0  0  0  0  0  0  0  0  0  0
   20.2863   12.3678   31.5129 C   0  0  0  0  0  0  0  0  0  0  0  0
   18.5031    6.5554   25.8915 C   0  0  0  0  0  0  0  0  0  0  0  0
   23.0642    9.9284   32.5204 C   0  0  0  0  0  0  0  0  0  0  0  0
   19.8301   13.7515   33.4134 C   0  0  0  0  0  0  0  0  0  0  0  0
   19.2138    7.6700   29.4830 C   0  0  0  0  0  0  0  0  0  0  0  0
   18.3145    7.7089   28.1353 C   0  0  0  0  0  0  0  0  0  0  0  0
   21.2025    8.7790   28.4806 O   0  0  0  0  0  0  0  0  0  0  0  0
   29.9558    8.5090   34.7574 C   0  0  0  0  0  0  0  0  0  0  0  0
   21.3559   11.9597   33.5787 C   0  0  0  0  0  0  0  0  0  0  0  0
   17.5938    9.1785   28.1875 C   0  0  0  0  0  0  0  0  0  0  0  0
   22.4605    8.8985   33.4690 C   0  0  0  0  0  0  0  0  0  0  0  0
   26.5699   10.2044   34.9983 C   0  0  0  0  0  0  0  0  0  0  0  0
   29.5236   10.9616   35.2561 C   0  0  0  0  0  0  0  0  0  0  0  0
   23.7534   10.7062   35.7637 C   0  0  0  0  0  0  0  0  0  0  0  0
   17.6382    7.5911   25.1589 C   0  0  0  0  0  0  0  0  0  0  0  0
   24.1931    9.3573   35.2471 N   0  0  0  0  0  0  0  0  0  0  0  0
   21.0789    8.6037   33.5699 O   0  0  0  0  0  0  0  0  0  0  0  0
   21.1787   11.6193   32.2647 C   0  0  0  0  0  0  0  0  0  0  0  0
   22.0345   10.5549   31.6537 C   0  0  0  0  0  0  0  0  0  0  0  0
   20.2007    9.7980   30.3163 N   0  0  0  0  0  0  0  0  0  0  0  0
   20.1577    8.7953   29.2996 C   0  0  0  0  0  0  0  0  0  0  0  0
   21.2142    9.4910   31.1707 N   0  0  0  0  0  0  0  0  0  0  0  0
   23.0193    7.3099   35.1545 O   0  0  0  0  0  0  0  0  0  0  0  0
   19.1618    6.9526   30.6915 O   0  0  0  0  0  0  0  0  0  0  0  0
  1  9  1  0
  1 13  1  0
  2  7  2  3
  2 19  1  0
  3 11  1  0
  3 16  2  0
  4 19  1  0
  4 23  1  0
  5 18  1  0
  5 23  1  0
  5 30  2  0
  6  8  2  0
  6 11  1  0
  7 15  1  0
  7 20  1  0
  8 25  1  0
  9 22  1  0
 10 18  1  0
 10 26  1  0
 12 13  1  0
 12 28  1  0
 12 31  1  0
 13 17  1  0
 14 28  2  0
 16 25  1  0
 18 24  1  0
 21 23  1  0
 25 26  1  0
 26 29  1  0
 27 28  1  0
 27 29  1  0
M  END
>  <ID>  (1) 
conformer_0

$$$$
