
     RDKit          3D

 38 41  0  0  0  0  0  0  0  0999 V2000
   27.1052   14.2598   36.2450 C   0  0  0  0  0  0  0  0  0  0  0  0
   26.4770   15.5146   36.3794 C   0  0  0  0  0  0  0  0  0  0  0  0
   20.1822    8.2750   30.0622 C   0  0  0  0  0  0  0  0  0  0  0  0
   18.1360    8.1911   32.2839 O   0  0  0  0  0  0  0  0  0  0  0  0
   22.6958   10.6530   33.5856 C   0  0  0  0  0  0  0  0  0  0  0  0
   19.0394    9.0372   32.1268 C   0  0  0  0  0  0  0  0  0  0  0  0
   21.6676    8.4197   34.0851 O   0  0  0  0  0  0  0  0  0  0  0  0
   23.7959    7.4378   34.2108 O   0  0  0  0  0  0  0  0  0  0  0  0
   26.4129    9.9536   34.8060 C   0  0  0  0  0  0  0  0  0  0  0  0
   23.2839    8.9056   36.1307 O   0  0  0  0  0  0  0  0  0  0  0  0
   23.8717    9.8463   33.9353 C   0  0  0  0  0  0  0  0  0  0  0  0
   18.9998    7.7504   28.0171 C   0  0  0  0  0  0  0  0  0  0  0  0
   27.4395    8.8002   34.6989 C   0  0  0  0  0  0  0  0  0  0  0  0
   18.8738   10.2731   32.2917 O   0  0  0  0  0  0  0  0  0  0  0  0
   28.6286    9.4262   34.9490 C   0  0  0  0  0  0  0  0  0  0  0  0
   17.5394    7.9505   27.7499 C   0  0  0  0  0  0  0  0  0  0  0  0
   22.4294    8.4133   27.1683 C   0  0  0  0  0  0  0  0  0  0  0  0
   20.3233    8.4944   31.5853 C   0  0  0  0  0  0  0  0  0  0  0  0
   28.4332   10.7535   35.2952 N   0  0  0  0  0  0  0  0  0  0  0  0
   21.4628   10.2524   29.7484 O   0  0  0  0  0  0  0  0  0  0  0  0
   15.6575    7.5491   26.3505 O   0  0  0  0  0  0  0  0  0  0  0  0
   21.3762    8.7089   32.7197 C   0  0  0  0  0  0  0  0  0  0  0  0
   19.8836    8.4529   27.2208 O   0  0  0  0  0  0  0  0  0  0  0  0
   21.1142    8.7380   27.8180 C   0  0  0  0  0  0  0  0  0  0  0  0
   26.3955   12.0875   35.7084 N   0  0  0  0  0  0  0  0  0  0  0  0
   29.9133    8.7775   34.8941 C   0  0  0  0  0  0  0  0  0  0  0  0
   19.4202    7.4249   29.2633 O   0  0  0  0  0  0  0  0  0  0  0  0
   17.7235    6.7155   25.4512 C   0  0  0  0  0  0  0  0  0  0  0  0
   17.0369    7.7199   26.3572 C   0  0  0  0  0  0  0  0  0  0  0  0
   26.1503   13.3080   35.9345 C   0  0  0  0  0  0  0  0  0  0  0  0
   25.0751   15.3466   36.1643 C   0  0  0  0  0  0  0  0  0  0  0  0
   25.1122   10.1504   34.2654 N   0  0  0  0  0  0  0  0  0  0  0  0
   23.1601    8.5297   34.7116 S   0  0  0  0  0  4  0  0  0  0  0  0
   21.1016    9.0710   29.2469 C   0  0  0  0  0  0  0  0  0  0  0  0
   22.3033   11.5998   34.3805 O   0  0  0  0  0  0  0  0  0  0  0  0
   27.0940   11.0418   35.3215 C   0  0  0  0  0  0  0  0  0  0  0  0
   21.8106   10.0726   32.6885 N   0  0  0  0  0  0  0  0  0  0  0  0
   24.6474   13.8740   35.8533 S   0  0  0  0  0  0  0  0  0  0  0  0
  1  2  1  0
  1 30  1  0
  2 31  1  0
  3 18  1  0
  3 27  1  0
  3 34  1  0
  4  6  2  0
  5 11  1  0
  5 35  2  0
  5 37  1  0
  6 14  1  0
  6 18  1  0
  7 22  1  0
  7 33  1  0
  8 33  1  0
  9 13  1  0
  9 32  1  0
  9 36  1  0
 10 33  1  0
 11 32  1  0
 11 33  1  0
 12 16  1  0
 12 23  1  0
 12 27  1  0
 13 15  1  0
 15 19  1  0
 15 26  1  0
 16 29  1  0
 17 24  1  0
 18 22  1  0
 19 36  2  0
 20 34  1  0
 21 29  1  0
 22 37  1  0
 23 24  1  0
 24 34  1  0
 25 30  1  0
 25 36  1  0
 28 29  1  0
 30 38  1  0
 31 38  1  0
M  END
>  <ID>  (1) 
conformer_0

$$$$
