
     RDKit          3D

 28 33  0  0  0  0  0  0  0  0999 V2000
   29.5418    8.9964   35.1901 C   0  0  0  0  0  0  0  0  0  0  0  0
   18.2281    5.9690   25.0646 C   0  0  0  0  0  0  0  0  0  0  0  0
   21.5931    8.6761   33.2048 C   0  0  0  0  0  0  0  0  0  0  0  0
   20.3838    8.7208   31.1102 C   0  0  0  0  0  0  0  0  0  0  0  0
   19.2889    7.7757   26.4510 C   0  0  0  0  0  0  0  0  0  0  0  0
   29.0457   11.3592   35.2217 C   0  0  0  0  0  0  0  0  0  0  0  0
   22.9246    8.5512   34.9558 N   0  0  0  0  0  0  0  0  0  0  0  0
   18.1137    7.0538   26.0549 C   0  0  0  0  0  0  0  0  0  0  0  0
   28.1957    8.7171   34.9345 C   0  0  0  0  0  0  0  0  0  0  0  0
   29.9636   10.3032   35.3093 C   0  0  0  0  0  0  0  0  0  0  0  0
   24.6451   10.4716   36.0981 O   0  0  0  0  0  0  0  0  0  0  0  0
   20.4267    8.5234   32.4792 C   0  0  0  0  0  0  0  0  0  0  0  0
   19.9785    8.6201   28.8209 C   0  0  0  0  0  0  0  0  0  0  0  0
   19.1766    8.1387   27.7947 C   0  0  0  0  0  0  0  0  0  0  0  0
   27.3008    9.7979   34.8306 C   0  0  0  0  0  0  0  0  0  0  0  0
   19.3009    8.4263   30.1503 C   0  0  0  0  0  0  0  0  0  0  0  0
   18.0391    7.8612   29.7490 C   0  0  0  0  0  0  0  0  0  0  0  0
   22.6534    9.5241   31.3122 C   0  0  0  0  0  0  0  0  0  0  0  0
   24.8496    9.9916   34.9200 C   0  0  0  0  0  0  0  0  0  0  0  0
   21.5178    9.1818   30.5269 C   0  0  0  0  0  0  0  0  0  0  0  0
   21.7197    8.2439   34.4812 N   0  0  0  0  0  0  0  0  0  0  0  0
   27.7248   11.0787   35.0219 C   0  0  0  0  0  0  0  0  0  0  0  0
   23.6573    9.3240   34.0643 C   0  0  0  0  0  0  0  0  0  0  0  0
   21.2997    9.1490   29.0373 C   0  0  0  0  0  0  0  0  0  0  0  0
   26.0194    9.5296   34.4851 N   0  0  0  0  0  0  0  0  0  0  0  0
   17.2683    7.1822   27.0989 N   0  0  0  0  0  0  0  0  0  0  0  0
   17.8878    7.7521   28.2576 N   0  0  0  0  0  0  0  0  0  0  0  0
   22.7108    9.2473   32.7515 C   0  0  0  0  0  0  0  0  0  0  0  0
  1  9  2  0
  1 10  1  0
  2  8  1  0
  3 12  1  0
  3 21  1  0
  3 28  2  0
  4 12  1  0
  4 16  1  0
  4 20  2  0
  5  8  1  0
  5 14  1  0
  6 10  2  0
  6 22  1  0
  7 21  1  0
  7 23  1  0
  8 26  1  0
  9 15  1  0
 11 19  2  0
 13 14  2  0
 13 16  1  0
 13 24  1  0
 14 27  1  0
 15 22  2  0
 15 25  1  0
 16 17  1  0
 17 27  1  0
 18 20  1  0
 18 28  1  0
 19 23  1  0
 19 25  1  0
 20 24  1  0
 23 28  1  0
 26 27  1  0
M  END
>  <ID>  (1) 
conformer_0

$$$$
