
     RDKit          3D

 44 46  0  0  0  0  0  0  0  0999 V2000
   19.4698    7.7877   26.7356 C   0  0  0  0  0  0  0  0  0  0  0  0
   18.2094    8.1529   31.3534 O   0  0  0  0  0  0  0  0  0  0  0  0
   26.5086   10.2071   35.1885 C   0  0  0  0  0  0  0  0  0  0  0  0
   18.8070   13.3160   31.8011 C   0  0  0  0  0  0  0  0  0  0  0  0
   27.0051    8.9143   34.9015 C   0  0  0  0  0  0  0  0  0  0  0  0
   25.1286   10.4422   35.2532 C   0  0  0  0  0  0  0  0  0  0  0  0
   24.2162    9.3394   34.9842 C   0  0  0  0  0  0  0  0  0  0  0  0
   18.8241   10.4829   31.9099 C   0  0  0  0  0  0  0  0  0  0  0  0
   22.2957   11.6224   34.2996 C   0  0  0  0  0  0  0  0  0  0  0  0
   20.8578    8.0287   27.0227 C   0  0  0  0  0  0  0  0  0  0  0  0
   21.4335    8.4502   28.2975 N   0  0  0  0  0  0  0  0  0  0  0  0
   28.3558    8.5881   34.8907 C   0  0  0  0  0  0  0  0  0  0  0  0
   17.2996    8.2249   27.5779 C   0  0  0  0  0  0  0  0  0  0  0  0
   20.1060   13.3050   28.7146 O   0  0  0  0  0  0  0  0  0  0  0  0
   20.0543   12.8137   33.9352 C   0  0  0  0  0  0  0  0  0  0  0  0
   23.0666    8.3024   26.7829 C   0  0  0  0  0  0  0  0  0  0  0  0
   20.9587   10.1219   30.0904 C   0  0  0  0  0  0  0  0  0  0  0  0
   21.5364   12.7749   33.8185 C   0  0  0  0  0  0  0  0  0  0  0  0
   23.1993   11.8544   35.2403 C   0  0  0  0  0  0  0  0  0  0  0  0
   19.8542   10.8506   29.3876 C   0  0  0  0  0  0  0  0  0  0  0  0
   18.8660   12.8848   29.0315 C   0  0  0  0  0  0  0  0  0  0  0  0
   19.0566   11.9115   31.3769 C   0  0  0  0  0  0  0  0  0  0  0  0
   29.7758   11.8093   35.3225 F   0  0  0  0  0  0  0  0  0  0  0  0
   18.9171   11.7857   29.9150 N   0  0  0  0  0  0  0  0  0  0  0  0
   22.7794    8.6749   28.0869 C   0  0  0  0  0  0  0  0  0  0  0  0
   18.8585    9.2768   31.1481 C   0  0  0  0  0  0  0  0  0  0  0  0
   21.8757    7.9728   26.1438 N   0  0  0  0  0  0  0  0  0  0  0  0
   28.8692   10.8393   35.2753 C   0  0  0  0  0  0  0  0  0  0  0  0
   20.5252    8.6530   32.9372 O   0  0  0  0  0  0  0  0  0  0  0  0
   24.3533    8.1643   26.1862 C   0  0  0  0  0  0  0  0  0  0  0  0
   27.5119   11.1758   35.3516 C   0  0  0  0  0  0  0  0  0  0  0  0
   17.7068   10.5724   32.7491 O   0  0  0  0  0  0  0  0  0  0  0  0
   21.0608    8.6479   29.7237 C   0  0  0  0  0  0  0  0  0  0  0  0
   19.5415   13.9074   32.9679 C   0  0  0  0  0  0  0  0  0  0  0  0
   23.6532    8.8177   33.7048 C   0  0  0  0  0  0  0  0  0  0  0  0
   18.4751    7.3089   27.5961 C   0  0  0  0  0  0  0  0  0  0  0  0
   29.3394    9.5479   35.0922 C   0  0  0  0  0  0  0  0  0  0  0  0
   18.5591    6.2980   28.5279 C   0  0  0  0  0  0  0  0  0  0  0  0
   21.9578   10.4516   33.6472 N   0  0  0  0  0  0  0  0  0  0  0  0
   24.4547   11.5791   35.5460 C   0  0  0  0  0  0  0  0  0  0  0  0
   19.4729    5.9395   29.4156 O   0  0  0  0  0  0  0  0  0  0  0  0
   23.5711    8.8900   36.1311 O   0  0  0  0  0  0  0  0  0  0  0  0
   19.8403    9.5415   32.2123 C   0  0  0  0  0  0  0  0  0  0  0  0
   22.1212    9.0890   33.4792 N   0  0  0  0  0  0  0  0  0  0  0  0
  1 10  1  0
  1 36  1  0
  2 26  1  0
  3  5  1  0
  3  6  2  3
  3 31  1  0
  4 22  1  0
  4 34  1  0
  5 12  2  0
  6  7  1  0
  6 40  1  0
  7 35  1  0
  7 42  1  0
  8 22  1  0
  8 26  1  0
  8 32  1  0
  8 43  1  0
  9 18  1  0
  9 19  1  0
  9 39  2  0
 10 11  1  0
 10 27  2  0
 11 25  1  0
 11 33  1  0
 12 37  1  0
 13 36  1  0
 14 21  1  0
 15 18  1  0
 15 34  1  0
 16 25  1  0
 16 27  1  0
 16 30  1  0
 17 20  1  0
 17 33  1  0
 19 40  1  0
 20 24  1  0
 21 24  1  0
 22 24  1  0
 23 28  1  0
 28 31  1  0
 28 37  2  0
 29 43  1  0
 35 44  1  0
 36 38  1  0
 38 41  1  0
 39 44  1  0
M  END
>  <ID>  (1) 
conformer_0

$$$$
