
     RDKit          3D

 46 50  0  0  0  0  0  0  0  0999 V2000
   18.8426    7.9427   29.6234 C   0  0  0  0  0  0  0  0  0  0  0  0
   18.2596    8.3921   32.6362 O   0  0  0  0  0  0  0  0  0  0  0  0
   22.2047    8.2979   27.0529 C   0  0  0  0  0  0  0  0  0  0  0  0
   21.5266    9.4185   32.8130 N   0  0  0  0  0  0  0  0  0  0  0  0
   24.2154    9.5027   35.3355 C   0  0  0  0  0  0  0  0  0  0  0  0
   29.4496    9.5478   34.9558 C   0  0  0  0  0  0  0  0  0  0  0  0
   18.5810    5.6994   25.9132 C   0  0  0  0  0  0  0  0  0  0  0  0
   19.9802    8.0684   28.7119 C   0  0  0  0  0  0  0  0  0  0  0  0
   28.0311    9.9158   35.0815 C   0  0  0  0  0  0  0  0  0  0  0  0
   16.7579   12.9153   33.0631 N   0  0  0  0  0  0  0  0  0  0  0  0
   20.2674   13.5712   31.9845 N   0  0  0  0  0  0  0  0  0  0  0  0
   25.7749   11.3443   35.7341 C   0  0  0  0  0  0  0  0  0  0  0  0
   18.4753   11.4456   32.4024 N   0  0  0  0  0  0  0  0  0  0  0  0
   19.9317    7.5535   27.4290 C   0  0  0  0  0  0  0  0  0  0  0  0
   19.8292   11.2792   32.4055 C   0  0  0  0  0  0  0  0  0  0  0  0
   18.9220   13.7307   32.1557 C   0  0  0  0  0  0  0  0  0  0  0  0
   17.8251    8.9147   29.5505 C   0  0  0  0  0  0  0  0  0  0  0  0
   22.6410    8.1164   34.4000 C   0  0  0  0  0  0  0  0  0  0  0  0
   30.2418   10.5762   35.1511 N   0  0  0  0  0  0  0  0  0  0  0  0
   29.3456   11.7336   35.4182 N   0  0  0  0  0  0  0  0  0  0  0  0
   17.1036   15.1544   32.4008 C   0  0  0  0  0  0  0  0  0  0  0  0
   22.1105    9.1047   31.4920 C   0  0  0  0  0  0  0  0  0  0  0  0
   18.3737   14.9923   31.9414 C   0  0  0  0  0  0  0  0  0  0  0  0
   19.4447    5.7444   29.8345 O   0  0  0  0  0  0  0  0  0  0  0  0
   25.5583   10.0714   35.2633 C   0  0  0  0  0  0  0  0  0  0  0  0
   28.1195   11.2431   35.4335 C   0  0  0  0  0  0  0  0  0  0  0  0
   21.2249    9.5609   30.3853 C   0  0  0  0  0  0  0  0  0  0  0  0
   18.8314    6.8713   30.4099 O   0  0  0  0  0  0  0  0  0  0  0  0
   19.0958   15.9026   31.3041 O   0  0  0  0  0  0  0  0  0  0  0  0
   26.9871   11.9608   35.7777 C   0  0  0  0  0  0  0  0  0  0  0  0
   22.9009    7.1595   35.1820 O   0  0  0  0  0  0  0  0  0  0  0  0
   29.9594    8.2557   34.7793 N   0  0  0  0  0  0  0  0  0  0  0  0
   23.3534    9.7735   36.3853 C   0  0  0  0  0  0  0  0  0  0  0  0
   21.3804    8.4421   33.8462 C   0  0  0  0  0  0  0  0  0  0  0  0
   20.2609    9.9148   32.6236 C   0  0  0  0  0  0  0  0  0  0  0  0
   16.3225   14.1779   32.9988 C   0  0  0  0  0  0  0  0  0  0  0  0
   17.5038    7.7606   26.6472 C   0  0  0  0  0  0  0  0  0  0  0  0
   18.0382   12.6863   32.5329 C   0  0  0  0  0  0  0  0  0  0  0  0
   18.7484    6.8884   26.8462 C   0  0  0  0  0  0  0  0  0  0  0  0
   23.6272    9.0723   34.1617 N   0  0  0  0  0  0  0  0  0  0  0  0
   21.1123    8.7773   29.1531 C   0  0  0  0  0  0  0  0  0  0  0  0
   19.2284    8.9563   32.7580 C   0  0  0  0  0  0  0  0  0  0  0  0
   21.0412    7.7080   26.5688 C   0  0  0  0  0  0  0  0  0  0  0  0
   20.6762   12.3653   32.2899 C   0  0  0  0  0  0  0  0  0  0  0  0
   26.7416    9.3347   34.9458 C   0  0  0  0  0  0  0  0  0  0  0  0
   22.2612    8.8200   28.3460 C   0  0  0  0  0  0  0  0  0  0  0  0
  1  8  1  0
  1 17  1  0
  1 28  1  0
  2 42  2  0
  3 43  1  0
  3 46  2  0
  4 22  1  0
  4 34  1  0
  4 35  1  0
  5 25  1  0
  5 33  1  0
  5 40  1  0
  6  9  1  0
  6 19  1  0
  6 32  2  0
  7 39  1  0
  8 14  2  0
  8 41  1  0
  9 26  2  0
  9 45  1  0
 10 36  1  0
 10 38  2  0
 11 16  1  0
 11 44  1  0
 12 25  1  0
 12 30  2  0
 13 15  1  0
 13 38  1  0
 14 39  1  0
 14 43  1  0
 15 35  1  0
 15 44  2  0
 16 23  1  0
 16 38  1  0
 18 31  2  0
 18 34  1  0
 18 40  1  0
 19 20  1  0
 20 26  1  0
 21 23  2  0
 21 36  1  0
 22 27  1  0
 23 29  1  0
 24 28  1  0
 25 45  2  0
 26 30  1  0
 27 41  1  0
 35 42  2  0
 37 39  1  0
 41 46  1  0
M  END
>  <ID>  (1) 
conformer_0

$$$$
