
     RDKit          3D

 42 46  0  0  0  0  0  0  0  0999 V2000
   29.4000    9.6546   35.0584 C   0  0  0  0  0  0  0  0  0  0  0  0
   23.5754    8.8114   36.1606 O   0  0  0  0  0  0  0  0  0  0  0  0
   21.0346   10.7289   28.6942 O   0  0  0  0  0  0  0  0  0  0  0  0
   21.5665   10.6366   33.0015 C   0  0  0  0  0  0  0  0  0  0  0  0
   18.9100    7.7303   26.3043 C   0  0  0  0  0  0  0  0  0  0  0  0
   21.0762   10.4470   31.7499 C   0  0  0  0  0  0  0  0  0  0  0  0
   26.9431   12.1409   35.8682 C   0  0  0  0  0  0  0  0  0  0  0  0
   30.2091   10.6864   35.2235 C   0  0  0  0  0  0  0  0  0  0  0  0
   26.6637    9.5250   35.1966 N   0  0  0  0  0  0  0  0  0  0  0  0
   28.0914   11.3927   35.6294 C   0  0  0  0  0  0  0  0  0  0  0  0
   27.9645   10.0691   35.2900 C   0  0  0  0  0  0  0  0  0  0  0  0
   29.4036   11.8212   35.5703 N   0  0  0  0  0  0  0  0  0  0  0  0
   16.6458   10.4026   27.9036 C   0  0  0  0  0  0  0  0  0  0  0  0
   17.4424   11.3118   31.8399 C   0  0  0  0  0  0  0  0  0  0  0  0
   17.2707    8.9571   33.2316 N   0  0  0  0  0  0  0  0  0  0  0  0
   21.8643    9.7140   30.7379 C   0  0  0  0  0  0  0  0  0  0  0  0
   18.4829    9.5414   33.0090 C   0  0  0  0  0  0  0  0  0  0  0  0
   24.0664    9.8211   35.5835 C   0  0  0  0  0  0  0  0  0  0  0  0
   23.0330    9.1763   31.2242 C   0  0  0  0  0  0  0  0  0  0  0  0
   25.5475   10.2968   35.5240 C   0  0  0  0  0  0  0  0  0  0  0  0
   21.4811    9.4254   29.1045 C   0  0  0  0  0  0  0  0  0  0  0  0
   18.6052   10.6709   32.2023 C   0  0  0  0  0  0  0  0  0  0  0  0
   16.2360   10.7416   32.0509 N   0  0  0  0  0  0  0  0  0  0  0  0
   17.5395    9.1824   27.8047 C   0  0  0  0  0  0  0  0  0  0  0  0
   22.7763   10.2085   33.4754 C   0  0  0  0  0  0  0  0  0  0  0  0
   17.3922    6.0846   25.2164 C   0  0  0  0  0  0  0  0  0  0  0  0
   23.1862   10.5622   34.7800 N   0  0  0  0  0  0  0  0  0  0  0  0
   19.1980    7.9297   29.1672 C   0  0  0  0  0  0  0  0  0  0  0  0
   19.0715    7.0878   30.4449 C   0  0  0  0  0  0  0  0  0  0  0  0
   19.7022    6.1811   24.5692 O   0  0  0  0  0  0  0  0  0  0  0  0
   22.6140    8.7713   28.5302 O   0  0  0  0  0  0  0  0  0  0  0  0
   19.7832   11.0430   31.5561 N   0  0  0  0  0  0  0  0  0  0  0  0
   19.5086    6.1984   29.4194 O   0  0  0  0  0  0  0  0  0  0  0  0
   18.0672    8.7398   29.0050 C   0  0  0  0  0  0  0  0  0  0  0  0
   17.8193    8.5377   26.6073 C   0  0  0  0  0  0  0  0  0  0  0  0
   29.9061    8.3418   34.7863 C   0  0  0  0  0  0  0  0  0  0  0  0
   18.7054    6.7210   25.2292 C   0  0  0  0  0  0  0  0  0  0  0  0
   23.5057    9.4168   32.5603 C   0  0  0  0  0  0  0  0  0  0  0  0
   20.3169    8.3301   28.2877 C   0  0  0  0  0  0  0  0  0  0  0  0
   25.7118   11.6144   35.8368 N   0  0  0  0  0  0  0  0  0  0  0  0
   20.1437    7.9013   26.9466 C   0  0  0  0  0  0  0  0  0  0  0  0
   16.1581    9.5670   32.7023 C   0  0  0  0  0  0  0  0  0  0  0  0
  1  8  1  0
  1 11  2  0
  1 36  1  0
  2 18  2  0
  3 21  1  0
  4  6  2  0
  4 25  1  0
  5 35  1  0
  5 37  1  0
  5 41  1  0
  6 16  1  0
  6 32  1  0
  7 10  1  0
  7 40  2  0
  8 12  1  0
  9 11  1  0
  9 20  2  0
 10 11  1  0
 10 12  1  0
 13 24  1  0
 14 22  1  0
 14 23  1  0
 15 17  2  0
 15 42  1  0
 16 19  2  0
 16 21  1  0
 17 22  1  0
 18 20  1  0
 18 27  1  0
 19 38  1  0
 20 40  1  0
 21 31  1  0
 21 39  1  0
 22 32  2  3
 23 42  2  0
 24 34  1  0
 24 35  1  0
 25 27  1  0
 25 38  2  0
 26 37  1  0
 28 29  1  0
 28 34  1  0
 28 39  1  0
 29 33  1  0
 30 37  1  0
 39 41  1  0
M  END
>  <ID>  (1) 
conformer_0

$$$$
