
     RDKit          3D

 28 30  0  0  0  0  0  0  0  0999 V2000
   19.6224    7.5664   31.0623 O   0  0  0  0  0  0  0  0  0  0  0  0
   28.1659   10.6525   35.1225 C   0  0  0  0  0  0  0  0  0  0  0  0
   18.9020   11.2345   31.2761 C   0  0  0  0  0  0  0  0  0  0  0  0
   19.7623    8.9945   31.1473 C   0  0  0  0  0  0  0  0  0  0  0  0
   21.2601   10.8570   31.1458 C   0  0  0  0  0  0  0  0  0  0  0  0
   27.7691    9.3818   34.6628 C   0  0  0  0  0  0  0  0  0  0  0  0
   18.5956    7.1930   30.1478 C   0  0  0  0  0  0  0  0  0  0  0  0
   18.6929    9.8553   31.2334 C   0  0  0  0  0  0  0  0  0  0  0  0
   23.4060    9.7356   35.6678 C   0  0  0  0  0  0  0  0  0  0  0  0
   22.4200    7.8092   34.6575 O   0  0  0  0  0  0  0  0  0  0  0  0
   26.8760   11.5860   35.6520 S   0  0  0  0  0  0  0  0  0  0  0  0
   19.9048    8.0553   26.6193 C   0  0  0  0  0  0  0  0  0  0  0  0
   22.9618    9.5573   33.1525 C   0  0  0  0  0  0  0  0  0  0  0  0
   26.3983    9.2142   34.8393 C   0  0  0  0  0  0  0  0  0  0  0  0
   30.4510    9.9779   34.7046 N   0  0  0  0  0  0  0  0  0  0  0  0
   17.7207    7.0660   26.5048 C   0  0  0  0  0  0  0  0  0  0  0  0
   21.0812    9.4836   31.1460 C   0  0  0  0  0  0  0  0  0  0  0  0
   23.0105    9.0496   34.5256 C   0  0  0  0  0  0  0  0  0  0  0  0
   17.6720    7.0110   27.8854 C   0  0  0  0  0  0  0  0  0  0  0  0
   18.8408    7.5387   25.8695 C   0  0  0  0  0  0  0  0  0  0  0  0
   20.1778   11.7475   31.2142 C   0  0  0  0  0  0  0  0  0  0  0  0
   29.5364   11.1323   35.1514 C   0  0  0  0  0  0  0  0  0  0  0  0
   24.5150   10.3562   35.9748 C   0  0  0  0  0  0  0  0  0  0  0  0
   23.1155    8.4613   32.1155 C   0  0  0  0  0  0  0  0  0  0  0  0
   25.8044   10.2772   35.4582 C   0  0  0  0  0  0  0  0  0  0  0  0
   19.8467    7.9921   27.9985 C   0  0  0  0  0  0  0  0  0  0  0  0
   22.0917    8.4165   31.0527 C   0  0  0  0  0  0  0  0  0  0  0  0
   18.7476    7.4272   28.6619 C   0  0  0  0  0  0  0  0  0  0  0  0
  1  4  1  0
  1  7  1  0
  2  6  1  0
  2 11  1  0
  2 22  1  0
  3  8  2  0
  3 21  1  0
  4  8  1  0
  4 17  2  0
  5 17  1  0
  5 21  2  0
  6 14  1  0
  7 28  1  0
  9 18  1  0
  9 23  1  0
 10 18  1  0
 11 25  1  0
 12 20  2  0
 12 26  1  0
 13 18  1  0
 13 24  1  0
 14 25  1  0
 15 22  1  0
 16 19  2  0
 16 20  1  0
 17 27  1  0
 19 28  1  0
 23 25  1  0
 24 27  1  0
 26 28  2  0
M  END
>  <ID>  (1) 
conformer_0

$$$$
