
     RDKit          3D

 44 48  0  0  0  0  0  0  0  0999 V2000
   22.7799    8.9860   32.2911 C   0  0  0  0  0  0  0  0  0  0  0  0
   22.4045    9.5560   30.9770 C   0  0  0  0  0  0  0  0  0  0  0  0
   27.3631    9.1959   34.9542 C   0  0  0  0  0  0  0  0  0  0  0  0
   20.7070   10.1956   29.4160 C   0  0  0  0  0  0  0  0  0  0  0  0
   19.4201    7.1298   26.1613 C   0  0  0  0  0  0  0  0  0  0  0  0
   21.8123    7.7817   26.0172 C   0  0  0  0  0  0  0  0  0  0  0  0
   29.8102    9.4246   34.9426 C   0  0  0  0  0  0  0  0  0  0  0  0
   20.9203   11.9121   32.6384 C   0  0  0  0  0  0  0  0  0  0  0  0
   18.2008    7.0680   26.8289 C   0  0  0  0  0  0  0  0  0  0  0  0
   24.5368   11.7090   35.6265 C   0  0  0  0  0  0  0  0  0  0  0  0
   25.6440   13.8588   35.9469 C   0  0  0  0  0  0  0  0  0  0  0  0
   23.3551   10.8915   35.7472 O   0  0  0  0  0  0  0  0  0  0  0  0
   21.1136   10.1603   30.8023 C   0  0  0  0  0  0  0  0  0  0  0  0
   19.1767    8.2110   28.6166 C   0  0  0  0  0  0  0  0  0  0  0  0
   16.9296    7.6856   28.7486 F   0  0  0  0  0  0  0  0  0  0  0  0
   23.2722    7.3027   35.1119 O   0  0  0  0  0  0  0  0  0  0  0  0
   21.9007    9.3366   33.3455 C   0  0  0  0  0  0  0  0  0  0  0  0
   16.9676   10.3773   30.6362 C   0  0  0  0  0  0  0  0  0  0  0  0
   26.8614   13.2619   35.8396 C   0  0  0  0  0  0  0  0  0  0  0  0
   22.8192    8.5467   26.5521 N   0  0  0  0  0  0  0  0  0  0  0  0
   17.9555   10.6671   32.7976 C   0  0  0  0  0  0  0  0  0  0  0  0
   20.5272    7.7566   26.7083 C   0  0  0  0  0  0  0  0  0  0  0  0
   18.9412   10.7851   31.7688 C   0  0  0  0  0  0  0  0  0  0  0  0
   22.0340    9.0886   34.7363 N   0  0  0  0  0  0  0  0  0  0  0  0
   20.5112    9.5002   33.0134 C   0  0  0  0  0  0  0  0  0  0  0  0
   21.2993    9.1979   28.5866 O   0  0  0  0  0  0  0  0  0  0  0  0
   23.5707    8.8922   25.4930 O   0  0  0  0  0  0  0  0  0  0  0  0
   18.3860   10.8157   30.4577 C   0  0  0  0  0  0  0  0  0  0  0  0
   28.4736   10.0358   35.1002 C   0  0  0  0  0  0  0  0  0  0  0  0
   23.3184   13.7933   35.7416 O   0  0  0  0  0  0  0  0  0  0  0  0
   21.9765    7.0938   24.9929 O   0  0  0  0  0  0  0  0  0  0  0  0
   23.2394    8.5491   35.1913 C   0  0  0  0  0  0  0  0  0  0  0  0
   24.4536   13.1219   35.7590 C   0  0  0  0  0  0  0  0  0  0  0  0
   23.3649    7.8238   32.2434 O   0  0  0  0  0  0  0  0  0  0  0  0
   20.3980   10.6020   32.0523 C   0  0  0  0  0  0  0  0  0  0  0  0
   22.2107   13.5708   34.9720 C   0  0  0  0  0  0  0  0  0  0  0  0
   25.7951   11.0733   35.4579 C   0  0  0  0  0  0  0  0  0  0  0  0
   28.3019   11.3555   35.4030 C   0  0  0  0  0  0  0  0  0  0  0  0
   18.1013    7.6426   28.0757 C   0  0  0  0  0  0  0  0  0  0  0  0
   23.6542    9.5962   36.1921 C   0  0  0  0  0  0  0  0  0  0  0  0
   20.3520    8.3424   27.9524 C   0  0  0  0  0  0  0  0  0  0  0  0
   16.6704   10.7441   32.0708 C   0  0  0  0  0  0  0  0  0  0  0  0
   26.0779    9.7341   35.1515 C   0  0  0  0  0  0  0  0  0  0  0  0
   26.9811   11.8785   35.5727 C   0  0  0  0  0  0  0  0  0  0  0  0
  1  2  1  0
  1 17  1  0
  1 34  1  0
  2 13  1  0
  3 29  2  0
  3 43  1  0
  4 13  1  0
  4 26  1  0
  5  9  2  0
  5 22  1  0
  6 20  1  0
  6 22  1  0
  6 31  2  0
  7 29  1  0
  8 35  1  0
  9 39  1  0
 10 12  1  0
 10 33  2  0
 10 37  1  0
 11 19  2  0
 11 33  1  0
 12 40  1  0
 13 35  1  0
 14 39  2  0
 14 41  1  0
 15 39  1  0
 16 32  2  0
 17 24  2  3
 17 25  1  0
 18 28  1  0
 18 42  1  0
 19 44  1  0
 20 27  1  0
 21 23  1  0
 21 42  1  0
 22 41  2  0
 23 28  1  0
 23 35  1  0
 24 32  1  0
 25 35  1  0
 26 41  1  0
 29 38  1  0
 30 33  1  0
 30 36  1  0
 32 40  1  0
 37 43  2  0
 37 44  1  0
 38 44  2  0
M  END
>  <ID>  (1) 
conformer_0

$$$$
