
     RDKit          3D

 31 33  0  0  0  0  0  0  0  0999 V2000
   19.0518    7.4495   26.4674 N   0  0  0  0  0  0  0  0  0  0  0  0
   23.7385    9.8308   36.5926 O   0  0  0  0  0  0  0  0  0  0  0  0
   28.7445   11.5613   35.3794 C   0  0  0  0  0  0  0  0  0  0  0  0
   25.6822   10.3658   35.3564 C   0  0  0  0  0  0  0  0  0  0  0  0
   21.5441    8.9931   28.7825 C   0  0  0  0  0  0  0  0  0  0  0  0
   20.1075    8.8185   28.4673 C   0  0  0  0  0  0  0  0  0  0  0  0
   17.0594    8.6442   28.1522 O   0  0  0  0  0  0  0  0  0  0  0  0
   22.6734    7.7479   34.4124 O   0  0  0  0  0  0  0  0  0  0  0  0
   27.8957    9.3299   34.8725 C   0  0  0  0  0  0  0  0  0  0  0  0
   21.1729    8.6470   31.2743 C   0  0  0  0  0  0  0  0  0  0  0  0
   17.7471    8.1250   29.1022 C   0  0  0  0  0  0  0  0  0  0  0  0
   21.4498    8.1146   26.5446 C   0  0  0  0  0  0  0  0  0  0  0  0
   19.7782    8.2137   30.8285 C   0  0  0  0  0  0  0  0  0  0  0  0
   26.5807    9.3828   35.0088 C   0  0  0  0  0  0  0  0  0  0  0  0
   30.2368    9.8197   34.8521 O   0  0  0  0  0  0  0  0  0  0  0  0
   21.2723   10.6197   32.7771 C   0  0  0  0  0  0  0  0  0  0  0  0
   22.3819    8.6170   27.6337 C   0  0  0  0  0  0  0  0  0  0  0  0
   22.5118    8.9004   33.9566 C   0  0  0  0  0  0  0  0  0  0  0  0
   30.2304    8.4398   34.5460 C   0  0  0  0  0  0  0  0  0  0  0  0
   22.0361    9.1093   30.1666 C   0  0  0  0  0  0  0  0  0  0  0  0
   18.1490   10.1601   30.4839 C   0  0  0  0  0  0  0  0  0  0  0  0
   27.5072   12.0751   35.6265 C   0  0  0  0  0  0  0  0  0  0  0  0
   24.2380   10.0990   35.4698 C   0  0  0  0  0  0  0  0  0  0  0  0
   19.0043    8.9329   29.6408 C   0  0  0  0  0  0  0  0  0  0  0  0
   20.0635    8.2730   27.0745 C   0  0  0  0  0  0  0  0  0  0  0  0
   17.2826    7.2902   29.9517 O   0  0  0  0  0  0  0  0  0  0  0  0
   28.9647   10.2327   35.0392 C   0  0  0  0  0  0  0  0  0  0  0  0
   20.1886    8.5262   33.3980 O   0  0  0  0  0  0  0  0  0  0  0  0
   23.4369    9.9167   34.3587 N   0  0  0  0  0  0  0  0  0  0  0  0
   26.2385   11.6226   35.6453 C   0  0  0  0  0  0  0  0  0  0  0  0
   21.3725    9.1018   32.8193 C   0  0  0  0  0  0  0  0  0  0  0  0
  1 25  1  0
  2 23  2  0
  3 22  1  0
  3 27  2  0
  4 14  1  0
  4 23  1  0
  4 30  1  0
  5  6  2  0
  5 17  1  0
  5 20  1  0
  6 24  1  0
  6 25  1  0
  7 11  2  0
  8 18  2  0
  9 14  2  0
  9 27  1  0
 10 13  1  0
 10 20  2  0
 10 31  1  0
 11 24  1  0
 11 26  1  0
 12 17  1  0
 12 25  1  0
 13 24  1  0
 15 19  1  0
 15 27  1  0
 16 31  1  0
 18 29  1  0
 18 31  1  0
 21 24  1  0
 22 30  2  0
 23 29  1  0
 28 31  1  0
M  END
>  <ID>  (1) 
conformer_0

$$$$
