
     RDKit          3D

 37 40  0  0  0  0  0  0  0  0999 V2000
   16.5448   12.6590   31.4222 C   0  0  0  0  0  0  0  0  0  0  0  0
   17.8648   12.7111   33.4660 C   0  0  0  0  0  0  0  0  0  0  0  0
   20.6908   10.8516   33.4853 C   0  0  0  0  0  0  0  0  0  0  0  0
   21.5431    9.8545   32.9406 O   0  0  0  0  0  0  0  0  0  0  0  0
   23.5721    9.6142   35.7284 C   0  0  0  0  0  0  0  0  0  0  0  0
   28.0717   11.1861   35.4098 C   0  0  0  0  0  0  0  0  0  0  0  0
   22.5829    9.1481   33.6065 C   0  0  0  0  0  0  0  0  0  0  0  0
   17.7494    8.2344   26.6114 O   0  0  0  0  0  0  0  0  0  0  0  0
   29.2133    9.3756   34.9828 C   0  0  0  0  0  0  0  0  0  0  0  0
   29.3352   10.6770   35.2678 N   0  0  0  0  0  0  0  0  0  0  0  0
   19.5202    7.5171   29.4423 N   0  0  0  0  0  0  0  0  0  0  0  0
   27.9050    8.9954   34.9121 N   0  0  0  0  0  0  0  0  0  0  0  0
   21.2549    9.2758   29.2515 C   0  0  0  0  0  0  0  0  0  0  0  0
   16.4082   12.5762   32.9438 C   0  0  0  0  0  0  0  0  0  0  0  0
   19.2486    6.7932   25.8103 O   0  0  0  0  0  0  0  0  0  0  0  0
   23.8445    8.8314   32.9807 C   0  0  0  0  0  0  0  0  0  0  0  0
   19.9542    8.7076   28.8140 C   0  0  0  0  0  0  0  0  0  0  0  0
   18.2452    7.2767   29.8858 C   0  0  0  0  0  0  0  0  0  0  0  0
   21.4879    8.5239   26.8006 C   0  0  0  0  0  0  0  0  0  0  0  0
   24.9423    8.8042   33.8964 C   0  0  0  0  0  0  0  0  0  0  0  0
   18.9153    7.7464   26.5620 C   0  0  0  0  0  0  0  0  0  0  0  0
   26.0423   11.8447   35.6511 C   0  0  0  0  0  0  0  0  0  0  0  0
   19.6232   11.1340   32.5737 C   0  0  0  0  0  0  0  0  0  0  0  0
   27.1481   10.0781   35.1948 C   0  0  0  0  0  0  0  0  0  0  0  0
   22.3028    8.9236   28.1898 C   0  0  0  0  0  0  0  0  0  0  0  0
   21.7580    9.1921   30.5712 O   0  0  0  0  0  0  0  0  0  0  0  0
   24.7945    9.6618   34.9861 C   0  0  0  0  0  0  0  0  0  0  0  0
   22.5846    8.7336   35.0256 C   0  0  0  0  0  0  0  0  0  0  0  0
   19.9603    8.5067   27.3043 C   0  0  0  0  0  0  0  0  0  0  0  0
   18.0025    7.6219   31.2348 O   0  0  0  0  0  0  0  0  0  0  0  0
   30.2740    8.5127   34.8446 N   0  0  0  0  0  0  0  0  0  0  0  0
   27.3149   12.2404   35.6722 N   0  0  0  0  0  0  0  0  0  0  0  0
   18.6841   12.0240   32.7107 O   0  0  0  0  0  0  0  0  0  0  0  0
   25.9327   10.5401   35.3131 N   0  0  0  0  0  0  0  0  0  0  0  0
   22.8750    7.3317   35.0655 O   0  0  0  0  0  0  0  0  0  0  0  0
   19.8781   10.3208   31.4674 C   0  0  0  0  0  0  0  0  0  0  0  0
   21.0854    9.6970   31.6163 C   0  0  0  0  0  0  0  0  0  0  0  0
  1 14  1  0
  2 14  1  0
  2 33  1  0
  3 23  1  0
  4  7  1  0
  4 37  1  0
  5 27  1  0
  5 28  1  0
  6 10  1  0
  6 24  2  0
  6 32  1  0
  7 16  1  0
  7 28  1  0
  8 21  2  0
  9 10  1  0
  9 12  1  0
  9 31  2  0
 11 17  1  0
 11 18  1  0
 12 24  1  0
 13 17  1  0
 13 25  1  0
 13 26  1  0
 15 21  1  0
 16 20  1  0
 17 29  1  0
 18 30  1  0
 19 25  1  0
 19 29  1  0
 20 27  1  0
 21 29  1  0
 22 32  1  0
 22 34  1  0
 23 33  1  0
 23 36  1  0
 24 34  1  0
 26 37  1  0
 27 34  1  0
 28 35  1  0
 36 37  1  0
M  END
>  <ID>  (1) 
conformer_0

$$$$
