
     RDKit          3D

 31 35  0  0  0  0  0  0  0  0999 V2000
   25.5321    9.9234   34.9038 C   0  0  0  0  0  0  0  0  0  0  0  0
   22.0434    8.6175   33.6187 O   0  0  0  0  0  0  0  0  0  0  0  0
   26.3078    8.8687   34.3860 C   0  0  0  0  0  0  0  0  0  0  0  0
   23.8067    9.5317   32.4253 O   0  0  0  0  0  0  0  0  0  0  0  0
   20.4383    9.2112   31.6863 C   0  0  0  0  0  0  0  0  0  0  0  0
   27.5907   11.1346   35.3617 C   0  0  0  0  0  0  0  0  0  0  0  0
   21.6800    8.9289   32.2947 C   0  0  0  0  0  0  0  0  0  0  0  0
   23.9748    9.8052   34.9336 C   0  0  0  0  0  0  0  0  0  0  0  0
   19.3839   10.7833   33.2335 C   0  0  0  0  0  0  0  0  0  0  0  0
   26.1910   11.0607   35.3153 C   0  0  0  0  0  0  0  0  0  0  0  0
   28.3255   10.0392   34.9623 C   0  0  0  0  0  0  0  0  0  0  0  0
   22.7783    9.1552   31.4734 C   0  0  0  0  0  0  0  0  0  0  0  0
   29.7041   10.0548   35.0549 O   0  0  0  0  0  0  0  0  0  0  0  0
   18.6055    7.2795   29.1383 C   0  0  0  0  0  0  0  0  0  0  0  0
   19.7870    7.9273   29.4559 C   0  0  0  0  0  0  0  0  0  0  0  0
   20.4428    7.8876   27.1529 C   0  0  0  0  0  0  0  0  0  0  0  0
   20.7611    8.1591   28.4428 C   0  0  0  0  0  0  0  0  0  0  0  0
   20.1394   11.6168   31.1542 C   0  0  0  0  0  0  0  0  0  0  0  0
   19.9218    8.3886   30.7224 C   0  0  0  0  0  0  0  0  0  0  0  0
   18.3312    6.9683   27.8052 C   0  0  0  0  0  0  0  0  0  0  0  0
   19.7919   12.8751   31.4972 C   0  0  0  0  0  0  0  0  0  0  0  0
   22.8748    8.9738   27.8500 O   0  0  0  0  0  0  0  0  0  0  0  0
   19.0360   12.0584   33.6081 C   0  0  0  0  0  0  0  0  0  0  0  0
   22.6259    9.0539   30.0901 C   0  0  0  0  0  0  0  0  0  0  0  0
   23.4452    8.9976   33.8005 C   0  0  0  0  0  0  0  0  0  0  0  0
   19.9528   10.5483   32.0248 C   0  0  0  0  0  0  0  0  0  0  0  0
   19.2411    7.2963   26.8070 C   0  0  0  0  0  0  0  0  0  0  0  0
   19.2377   13.1234   32.7493 C   0  0  0  0  0  0  0  0  0  0  0  0
   23.5941    9.3673   36.2741 O   0  0  0  0  0  0  0  0  0  0  0  0
   27.7205    8.9073   34.4768 C   0  0  0  0  0  0  0  0  0  0  0  0
   22.0523    8.7371   28.8498 C   0  0  0  0  0  0  0  0  0  0  0  0
  1  3  1  0
  1  8  1  0
  1 10  2  0
  2  7  1  0
  2 25  1  0
  3 30  1  0
  4 12  1  0
  4 25  1  0
  5  7  1  0
  5 19  1  0
  5 26  1  0
  6 10  1  0
  6 11  1  0
  7 12  1  0
  8 25  1  0
  8 29  1  0
  9 23  2  0
  9 26  1  0
 11 13  1  0
 11 30  2  0
 12 24  2  0
 14 15  2  0
 14 20  1  0
 15 17  1  0
 15 19  1  0
 16 17  2  0
 16 27  1  0
 17 31  1  0
 18 21  1  0
 18 26  2  0
 20 27  2  0
 21 28  2  0
 22 31  1  0
 23 28  1  0
 24 31  2  0
M  END
>  <ID>  (1) 
conformer_0

$$$$
