
     RDKit          3D

 30 33  0  0  0  0  0  0  0  0999 V2000
   19.6474    9.3937   30.2258 N   0  0  0  0  0  0  0  0  0  0  0  0
   22.3308    9.2549   30.4743 C   0  0  0  0  0  0  0  0  0  0  0  0
   18.7799    8.4678   27.1418 C   0  0  0  0  0  0  0  0  0  0  0  0
   17.4054    8.5970   27.1537 C   0  0  0  0  0  0  0  0  0  0  0  0
   29.8483    8.7932   35.0172 C   0  0  0  0  0  0  0  0  0  0  0  0
   24.3649    9.7583   36.6358 O   0  0  0  0  0  0  0  0  0  0  0  0
   19.3760    7.4419   26.4517 C   0  0  0  0  0  0  0  0  0  0  0  0
   28.8810   11.0373   35.1099 C   0  0  0  0  0  0  0  0  0  0  0  0
   27.4300    9.1086   35.0885 C   0  0  0  0  0  0  0  0  0  0  0  0
   22.1770    9.1595   33.0634 C   0  0  0  0  0  0  0  0  0  0  0  0
   19.6136    9.4758   27.7895 C   0  0  0  0  0  0  0  0  0  0  0  0
   26.4892   11.3489   35.2612 C   0  0  0  0  0  0  0  0  0  0  0  0
   28.7000    9.6733   35.0695 C   0  0  0  0  0  0  0  0  0  0  0  0
   18.5672    6.5206   25.7676 C   0  0  0  0  0  0  0  0  0  0  0  0
   23.0100    7.5141   34.8193 O   0  0  0  0  0  0  0  0  0  0  0  0
   23.6414    9.6663   32.8401 C   0  0  0  0  0  0  0  0  0  0  0  0
   20.2090    9.3335   31.4585 C   0  0  0  0  0  0  0  0  0  0  0  0
   23.9785    9.6032   34.3123 C   0  0  0  0  0  0  0  0  0  0  0  0
   19.2793    9.4110   32.6131 C   0  0  0  0  0  0  0  0  0  0  0  0
   21.5715    9.2433   31.6512 C   0  0  0  0  0  0  0  0  0  0  0  0
   19.4278   10.6868   27.4010 O   0  0  0  0  0  0  0  0  0  0  0  0
   24.9193    9.4121   35.4383 C   0  0  0  0  0  0  0  0  0  0  0  0
   27.7663   11.8728   35.1724 C   0  0  0  0  0  0  0  0  0  0  0  0
   21.7351    9.3125   29.1430 C   0  0  0  0  0  0  0  0  0  0  0  0
   26.2818    9.9797   35.2530 C   0  0  0  0  0  0  0  0  0  0  0  0
   17.1811    6.6269   25.8058 C   0  0  0  0  0  0  0  0  0  0  0  0
   19.5891    8.4715   33.5610 O   0  0  0  0  0  0  0  0  0  0  0  0
   20.3517    9.3729   29.0763 C   0  0  0  0  0  0  0  0  0  0  0  0
   16.5899    7.6733   26.5029 C   0  0  0  0  0  0  0  0  0  0  0  0
   22.6177    8.8809   34.5901 C   0  0  0  0  0  0  0  0  0  0  0  0
  1 17  2  0
  1 28  1  0
  2 20  2  0
  2 24  1  0
  3  4  2  0
  3  7  1  0
  3 11  1  0
  4 29  1  0
  5 13  1  0
  6 22  1  0
  7 14  2  0
  8 13  2  0
  8 23  1  0
  9 13  1  0
  9 25  1  0
 10 16  1  0
 10 20  1  0
 10 30  1  0
 11 21  2  0
 11 28  1  0
 12 23  1  0
 12 25  2  0
 14 26  1  0
 15 30  1  0
 16 18  1  0
 17 19  1  0
 17 20  1  0
 18 22  1  0
 18 30  1  0
 19 27  1  0
 22 25  1  0
 24 28  2  0
 26 29  2  0
M  END
>  <ID>  (1) 
conformer_0

$$$$
