
     RDKit          3D

 28 30  0  0  0  0  0  0  0  0999 V2000
   19.5154    7.6884   28.0266 C   0  0  0  0  0  0  0  0  0  0  0  0
   22.7941    7.8334   35.3460 C   0  0  0  0  0  0  0  0  0  0  0  0
   21.9267    9.6756   31.0170 C   0  0  0  0  0  0  0  0  0  0  0  0
   19.1538    7.6550   29.3835 C   0  0  0  0  0  0  0  0  0  0  0  0
   23.2721   10.7310   36.0523 O   0  0  0  0  0  0  0  0  0  0  0  0
   23.7474    9.8181   33.9096 C   0  0  0  0  0  0  0  0  0  0  0  0
   18.7043    7.1153   26.9506 C   0  0  0  0  0  0  0  0  0  0  0  0
   29.0004   11.3118   35.1177 C   0  0  0  0  0  0  0  0  0  0  0  0
   23.7981    8.2647   33.9923 C   0  0  0  0  0  0  0  0  0  0  0  0
   20.6121   11.1121   32.5828 O   0  0  0  0  0  0  0  0  0  0  0  0
   19.9493    8.2502   30.3659 C   0  0  0  0  0  0  0  0  0  0  0  0
   22.4270   10.1076   33.4436 N   0  0  0  0  0  0  0  0  0  0  0  0
   30.6636    9.6815   34.6368 O   0  0  0  0  0  0  0  0  0  0  0  0
   28.4051    8.9917   34.8408 C   0  0  0  0  0  0  0  0  0  0  0  0
   20.3883    8.7467   32.7411 N   0  0  0  0  0  0  0  0  0  0  0  0
   27.0488    9.3570   35.0205 C   0  0  0  0  0  0  0  0  0  0  0  0
   18.6455    7.7583   25.8342 O   0  0  0  0  0  0  0  0  0  0  0  0
   18.1238    5.9185   27.0625 N   0  0  0  0  0  0  0  0  0  0  0  0
   21.1112    8.9404   30.0498 C   0  0  0  0  0  0  0  0  0  0  0  0
   27.6794   11.6366   35.2746 C   0  0  0  0  0  0  0  0  0  0  0  0
   25.3657   11.0729   35.2269 N   0  0  0  0  0  0  0  0  0  0  0  0
   26.6879   10.6766   35.2041 C   0  0  0  0  0  0  0  0  0  0  0  0
   20.7081    8.3636   27.7055 C   0  0  0  0  0  0  0  0  0  0  0  0
   21.3313    9.8826   32.4610 C   0  0  0  0  0  0  0  0  0  0  0  0
   21.4880    8.9771   28.6787 C   0  0  0  0  0  0  0  0  0  0  0  0
   29.3722    9.9971   34.8901 C   0  0  0  0  0  0  0  0  0  0  0  0
   19.5297    8.1913   31.7740 C   0  0  0  0  0  0  0  0  0  0  0  0
   24.1365   10.5265   35.1880 C   0  0  0  0  0  0  0  0  0  0  0  0
  1  4  2  0
  1  7  1  0
  1 23  1  0
  2  9  1  0
  3 19  1  0
  3 24  1  0
  4 11  1  0
  5 28  2  0
  6  9  1  0
  6 12  1  0
  6 28  1  0
  7 17  2  0
  7 18  1  0
  8 20  2  0
  8 26  1  0
 10 24  1  0
 11 19  2  0
 11 27  1  0
 12 24  1  0
 13 26  1  0
 14 16  1  0
 14 26  2  0
 15 24  1  0
 15 27  1  0
 16 22  2  0
 19 25  1  0
 20 22  1  0
 21 22  1  0
 21 28  1  0
 23 25  2  0
M  END
>  <ID>  (1) 
conformer_0

$$$$
