
     RDKit          3D

 30 32  0  0  0  0  0  0  0  0999 V2000
   23.8147   10.4768   33.2842 C   0  0  0  0  0  0  0  0  0  0  0  0
   19.8323    8.1026   29.3649 C   0  0  0  0  0  0  0  0  0  0  0  0
   24.1629    9.4575   35.4426 C   0  0  0  0  0  0  0  0  0  0  0  0
   24.2471   10.0192   36.6178 O   0  0  0  0  0  0  0  0  0  0  0  0
   21.8531    9.4259   29.3053 C   0  0  0  0  0  0  0  0  0  0  0  0
   20.3019    9.7812   31.2004 C   0  0  0  0  0  0  0  0  0  0  0  0
   22.1763    8.9363   28.0379 C   0  0  0  0  0  0  0  0  0  0  0  0
   23.6415    8.2625   35.3381 O   0  0  0  0  0  0  0  0  0  0  0  0
   20.6556    9.0784   29.9413 C   0  0  0  0  0  0  0  0  0  0  0  0
   20.8808    8.5143   33.9028 O   0  0  0  0  0  0  0  0  0  0  0  0
   21.4918    7.7506   25.9999 C   0  0  0  0  0  0  0  0  0  0  0  0
   21.5606    9.2153   33.1611 C   0  0  0  0  0  0  0  0  0  0  0  0
   30.3958    9.7913   35.0397 N   0  0  0  0  0  0  0  0  0  0  0  0
   21.2457    8.1363   27.3931 C   0  0  0  0  0  0  0  0  0  0  0  0
   18.6927    7.3366   30.2221 C   0  0  0  0  0  0  0  0  0  0  0  0
   27.1319   11.3185   34.7713 C   0  0  0  0  0  0  0  0  0  0  0  0
   23.5067    8.2785   32.3583 O   0  0  0  0  0  0  0  0  0  0  0  0
   23.0210    9.3324   33.0395 C   0  0  0  0  0  0  0  0  0  0  0  0
   24.8241   10.3744   34.3925 C   0  0  0  0  0  0  0  0  0  0  0  0
   26.8857    8.9957   34.8064 C   0  0  0  0  0  0  0  0  0  0  0  0
   26.3166   10.2373   34.6809 C   0  0  0  0  0  0  0  0  0  0  0  0
   18.8677    7.7868   31.6917 N   0  0  0  0  0  0  0  0  0  0  0  0
   18.9848    5.9160   30.1513 O   0  0  0  0  0  0  0  0  0  0  0  0
   20.0838    7.7208   28.0441 C   0  0  0  0  0  0  0  0  0  0  0  0
   21.5235    9.8399   32.0303 N   0  0  0  0  0  0  0  0  0  0  0  0
   19.1396    9.2318   31.9612 C   0  0  0  0  0  0  0  0  0  0  0  0
   28.2687    8.8488   34.9629 N   0  0  0  0  0  0  0  0  0  0  0  0
   29.0661    9.9608   35.0089 C   0  0  0  0  0  0  0  0  0  0  0  0
   17.4632    7.6417   29.8497 O   0  0  0  0  0  0  0  0  0  0  0  0
   28.5253   11.2226   34.9414 C   0  0  0  0  0  0  0  0  0  0  0  0
  1 18  1  0
  1 19  1  0
  2  9  1  0
  2 15  1  0
  2 24  1  0
  3  4  2  0
  3  8  1  0
  3 19  1  0
  5  7  2  0
  5  9  1  0
  6  9  1  0
  6 25  1  0
  6 26  1  0
  7 14  1  0
 10 12  2  0
 11 14  1  0
 12 18  1  0
 12 25  1  0
 13 28  2  0
 14 24  2  0
 15 22  1  0
 15 23  1  0
 15 29  1  0
 16 21  2  0
 16 30  1  0
 17 18  1  0
 19 21  1  0
 20 21  1  0
 20 27  2  0
 22 26  1  0
 27 28  1  0
 28 30  1  0
M  END
>  <ID>  (1) 
conformer_0

$$$$
