
     RDKit          3D

 44 47  0  0  0  0  0  0  0  0999 V2000
   19.0017    7.8279   32.0022 O   0  0  0  0  0  0  0  0  0  0  0  0
   17.2659    9.5305   32.1096 C   0  0  0  0  0  0  0  0  0  0  0  0
   20.2930    9.7527   31.9049 C   0  0  0  0  0  0  0  0  0  0  0  0
   21.9321    8.8140   28.3664 C   0  0  0  0  0  0  0  0  0  0  0  0
   20.7967    9.3617   30.5275 C   0  0  0  0  0  0  0  0  0  0  0  0
   24.2664    9.7624   35.5216 C   0  0  0  0  0  0  0  0  0  0  0  0
   25.3823   10.6753   35.1992 C   0  0  0  0  0  0  0  0  0  0  0  0
   22.2464    8.6410   34.3584 C   0  0  0  0  0  0  0  0  0  0  0  0
   18.5077    8.1188   27.8487 C   0  0  0  0  0  0  0  0  0  0  0  0
   20.0908   13.5663   31.7589 C   0  0  0  0  0  0  0  0  0  0  0  0
   20.4448   11.2248   32.2951 C   0  0  0  0  0  0  0  0  0  0  0  0
   18.5168    7.4095   26.6083 C   0  0  0  0  0  0  0  0  0  0  0  0
   17.4609    6.7643   26.0340 O   0  0  0  0  0  0  0  0  0  0  0  0
   29.9770   11.3901   35.7370 N   0  0  0  0  0  0  0  0  0  0  0  0
   16.1185    7.2110   26.2215 C   0  0  0  0  0  0  0  0  0  0  0  0
   21.4311    9.0354   32.9070 C   0  0  0  0  0  0  0  0  0  0  0  0
   20.8316   11.6231   33.5656 C   0  0  0  0  0  0  0  0  0  0  0  0
   26.6802   12.7725   35.9726 C   0  0  0  0  0  0  0  0  0  0  0  0
   19.8025    7.3311   25.9668 C   0  0  0  0  0  0  0  0  0  0  0  0
   20.9404    7.7369   26.3752 C   0  0  0  0  0  0  0  0  0  0  0  0
   16.3397    8.4205   32.0893 O   0  0  0  0  0  0  0  0  0  0  0  0
   20.7179    8.8954   29.0940 C   0  0  0  0  0  0  0  0  0  0  0  0
   23.6368    9.2560   36.5680 O   0  0  0  0  0  0  0  0  0  0  0  0
   29.8161    9.0885   34.9049 C   0  0  0  0  0  0  0  0  0  0  0  0
   17.0319   10.2574   30.7804 C   0  0  0  0  0  0  0  0  0  0  0  0
   29.2665   10.3823   35.3021 C   0  0  0  0  0  0  0  0  0  0  0  0
   23.6805    9.2211   34.1981 C   0  0  0  0  0  0  0  0  0  0  0  0
   20.8745   12.9510   33.9648 C   0  0  0  0  0  0  0  0  0  0  0  0
   26.6575   10.0433   34.9421 C   0  0  0  0  0  0  0  0  0  0  0  0
   20.1050   12.2205   31.3779 C   0  0  0  0  0  0  0  0  0  0  0  0
   26.4742   13.8207   36.6843 C   0  0  0  0  0  0  0  0  0  0  0  0
   22.2646    8.2574   32.1625 O   0  0  0  0  0  0  0  0  0  0  0  0
   27.8844   10.7178   35.3374 C   0  0  0  0  0  0  0  0  0  0  0  0
   22.2111    9.9650   30.7017 C   0  0  0  0  0  0  0  0  0  0  0  0
   22.5298    9.6815   32.0975 C   0  0  0  0  0  0  0  0  0  0  0  0
   29.0917   12.4351   36.0786 C   0  0  0  0  0  0  0  0  0  0  0  0
   16.9910   10.2344   33.2749 O   0  0  0  0  0  0  0  0  0  0  0  0
   19.5440    8.5410   28.4789 C   0  0  0  0  0  0  0  0  0  0  0  0
   24.6051    9.2260   33.2286 O   0  0  0  0  0  0  0  0  0  0  0  0
   22.6700    7.2825   34.9356 O   0  0  0  0  0  0  0  0  0  0  0  0
   20.4677   13.9254   33.0646 C   0  0  0  0  0  0  0  0  0  0  0  0
   21.9494    8.2201   27.0910 C   0  0  0  0  0  0  0  0  0  0  0  0
   27.8333   12.0277   35.8286 C   0  0  0  0  0  0  0  0  0  0  0  0
   18.9109    9.2005   32.1617 C   0  0  0  0  0  0  0  0  0  0  0  0
  1 44  1  0
  2 21  1  0
  2 25  1  0
  2 37  1  0
  2 44  1  0
  3  5  1  0
  3 11  1  0
  3 16  1  0
  3 44  1  0
  4 22  1  0
  4 42  1  0
  5 22  1  0
  5 34  1  0
  6  7  1  0
  6 23  1  0
  6 27  1  0
  7 29  1  0
  8 16  1  0
  8 27  1  0
  8 40  1  0
  9 12  1  0
  9 38  2  0
 10 30  2  0
 10 41  1  0
 11 17  2  0
 11 30  1  0
 12 13  1  0
 12 19  1  0
 13 15  1  0
 14 26  1  0
 14 36  1  0
 16 32  1  0
 16 35  1  0
 17 28  1  0
 18 31  2  0
 18 43  1  0
 19 20  2  0
 20 42  2  0
 22 38  2  0
 24 26  1  0
 26 33  2  0
 27 39  1  0
 28 41  2  0
 29 33  1  0
 33 43  1  0
 34 35  1  0
 36 43  1  0
M  END
>  <ID>  (1) 
conformer_0

$$$$
