
     RDKit          3D

 34 37  0  0  0  0  0  0  0  0999 V2000
   20.4110    7.7369   27.0446 C   0  0  0  0  0  0  0  0  0  0  0  0
   22.4688    8.6040   28.0084 C   0  0  0  0  0  0  0  0  0  0  0  0
   20.9227    8.6317   29.9898 C   0  0  0  0  0  0  0  0  0  0  0  0
   28.8103   10.3608   35.0483 C   0  0  0  0  0  0  0  0  0  0  0  0
   22.3918    7.8591   25.6718 C   0  0  0  0  0  0  0  0  0  0  0  0
   25.3284    9.2913   34.0815 C   0  0  0  0  0  0  0  0  0  0  0  0
   24.1034    9.6599   33.4526 O   0  0  0  0  0  0  0  0  0  0  0  0
   23.2960    9.1492   35.6429 C   0  0  0  0  0  0  0  0  0  0  0  0
   26.2134   11.4095   35.1779 C   0  0  0  0  0  0  0  0  0  0  0  0
   19.6814   13.4044   32.3921 C   0  0  0  0  0  0  0  0  0  0  0  0
   30.0381    9.8434   34.9724 O   0  0  0  0  0  0  0  0  0  0  0  0
   21.7586    9.0708   33.6004 C   0  0  0  0  0  0  0  0  0  0  0  0
   19.6648    7.6466   28.1215 N   0  0  0  0  0  0  0  0  0  0  0  0
   19.4827   10.2400   31.0511 C   0  0  0  0  0  0  0  0  0  0  0  0
   19.1730    5.8165   30.4822 O   0  0  0  0  0  0  0  0  0  0  0  0
   20.6655   12.1540   32.2755 C   0  0  0  0  0  0  0  0  0  0  0  0
   28.5936   11.6716   35.4741 C   0  0  0  0  0  0  0  0  0  0  0  0
   17.6775    7.3830   30.3077 O   0  0  0  0  0  0  0  0  0  0  0  0
   21.7450   11.2486   32.6616 O   0  0  0  0  0  0  0  0  0  0  0  0
   27.2932   12.1676   35.5643 C   0  0  0  0  0  0  0  0  0  0  0  0
   20.7448    9.3696   31.2888 N   0  0  0  0  0  0  0  0  0  0  0  0
   18.4932   12.2711   32.1186 O   0  0  0  0  0  0  0  0  0  0  0  0
   27.6718    9.5881   34.7056 C   0  0  0  0  0  0  0  0  0  0  0  0
   30.0061    8.4615   34.8027 C   0  0  0  0  0  0  0  0  0  0  0  0
   22.0931    8.8739   29.2861 C   0  0  0  0  0  0  0  0  0  0  0  0
   21.0182    8.1593   34.1624 O   0  0  0  0  0  0  0  0  0  0  0  0
   24.0756    9.9474   36.4967 O   0  0  0  0  0  0  0  0  0  0  0  0
   19.4186   11.2212   32.1509 C   0  0  0  0  0  0  0  0  0  0  0  0
   19.8661    7.8451   29.4486 C   0  0  0  0  0  0  0  0  0  0  0  0
   21.7330    8.0753   26.9564 C   0  0  0  0  0  0  0  0  0  0  0  0
   26.3963   10.1337   34.6924 C   0  0  0  0  0  0  0  0  0  0  0  0
   22.9928    9.5230   34.2507 C   0  0  0  0  0  0  0  0  0  0  0  0
   18.8878    7.0464   30.2778 C   0  0  0  0  0  0  0  0  0  0  0  0
   21.4979    9.8724   32.4010 C   0  0  0  0  0  0  0  0  0  0  0  0
  1 13  2  0
  1 30  1  0
  2 25  2  0
  2 30  1  0
  3 21  1  0
  3 25  1  0
  3 29  1  0
  4 11  1  0
  4 17  2  0
  4 23  1  0
  5 30  1  0
  6  7  1  0
  6 31  1  0
  7 32  1  0
  8 27  1  0
  8 32  1  0
  9 20  2  0
  9 31  1  0
 10 16  1  0
 10 22  1  0
 11 24  1  0
 12 26  1  0
 12 32  1  0
 12 34  1  0
 13 29  1  0
 14 21  1  0
 14 28  1  0
 15 33  2  0
 16 19  1  0
 16 28  1  0
 17 20  1  0
 18 33  1  0
 19 34  1  0
 21 34  1  0
 22 28  1  0
 23 31  2  0
 29 33  1  0
M  END
>  <ID>  (1) 
conformer_0

$$$$
