
     RDKit          3D

 33 34  0  0  0  0  0  0  0  0999 V2000
   18.1075    8.0874   25.3697 O   0  0  0  0  0  1  0  0  0  0  0  0
   21.5366   11.2699   33.4182 O   0  0  0  0  0  0  0  0  0  0  0  0
   28.8032   12.0280   35.7839 C   0  0  0  0  0  0  0  0  0  0  0  0
   27.5791    9.8279   34.8185 C   0  0  0  0  0  0  0  0  0  0  0  0
   23.2656   11.9971   35.5406 O   0  0  0  0  0  0  0  0  0  0  0  0
   26.2067    9.9665   34.7671 C   0  0  0  0  0  0  0  0  0  0  0  0
   20.1460    9.0170   32.3552 C   0  0  0  0  0  0  0  0  0  0  0  0
   24.0074   11.1324   34.9440 C   0  0  0  0  0  0  0  0  0  0  0  0
   20.3989    7.2807   25.8952 O   0  0  0  0  0  1  0  0  0  0  0  0
   23.4933    7.6065   34.4977 O   0  0  0  0  0  0  0  0  0  0  0  0
   17.8337    7.8588   29.5940 C   0  0  0  0  0  0  0  0  0  0  0  0
   22.1588   10.0502   33.5005 C   0  0  0  0  0  0  0  0  0  0  0  0
   27.6224   11.9666   35.7717 C   0  0  0  0  0  0  0  0  0  0  0  0
   22.3479    8.9081   31.2095 C   0  0  0  0  0  0  0  0  0  0  0  0
   30.0497    8.9102   34.6683 C   0  0  0  0  0  0  0  0  0  0  0  0
   29.8013   12.5725   36.0534 O   0  0  0  0  0  0  0  0  0  0  0  0
   29.8620   10.2469   35.1756 N   0  0  0  0  0  0  0  0  0  0  0  0
   25.5082   11.0723   35.1694 C   0  0  0  0  0  0  0  0  0  0  0  0
   19.3724    7.8055   30.0875 C   0  0  0  0  0  0  0  0  0  0  0  0
   19.0310    7.5333   26.3893 S   0  0  0  0  0  4  0  0  0  0  0  0
   23.4145    8.7114   35.1561 C   0  0  0  0  0  0  0  0  0  0  0  0
   20.1451    8.3542   28.8230 C   0  0  0  0  0  0  0  0  0  0  0  0
   17.7169    9.4789   29.6099 C   0  0  0  0  0  0  0  0  0  0  0  0
   26.2931   12.0866   35.7209 C   0  0  0  0  0  0  0  0  0  0  0  0
   21.6144    9.0606   32.5591 C   0  0  0  0  0  0  0  0  0  0  0  0
   18.1731    9.7724   28.0605 C   0  0  0  0  0  0  0  0  0  0  0  0
   19.2484    8.7172   27.6033 C   0  0  0  0  0  0  0  0  0  0  0  0
   23.4472    8.8773   36.4499 O   0  0  0  0  0  0  0  0  0  0  0  0
   28.4557   10.8383   35.3178 C   0  0  0  0  0  0  0  0  0  0  0  0
   23.4011    9.9624   34.3062 C   0  0  0  0  0  0  0  0  0  0  0  0
   19.2963    8.5666   31.3295 O   0  0  0  0  0  0  0  0  0  0  0  0
   18.0327    9.5863   31.1601 C   0  0  0  0  0  0  0  0  0  0  0  0
   18.4073    6.1812   26.9286 N   0  0  0  0  0  0  0  0  0  0  0  0
  1 20  1  0
  2 12  1  0
  3 13  2  0
  3 16  1  0
  3 29  1  0
  4  6  1  0
  4 29  2  0
  5  8  1  0
  6 18  2  0
  7 25  1  0
  7 31  1  0
  8 18  1  0
  8 30  1  0
  9 20  1  0
 10 21  2  0
 11 19  1  0
 11 23  1  0
 12 25  1  0
 12 30  1  0
 13 24  2  0
 14 25  1  0
 15 17  1  0
 17 29  1  0
 18 24  1  0
 19 22  1  0
 19 31  1  0
 20 27  1  0
 20 33  1  0
 21 28  1  0
 21 30  1  0
 22 27  1  0
 23 26  1  0
 23 32  1  0
 26 27  1  0
M  END
>  <ID>  (1) 
conformer_0

$$$$
