
     RDKit          3D

 39 42  0  0  0  0  0  0  0  0999 V2000
   18.9717    7.0647   25.3645 N   0  0  0  0  0  0  0  0  0  0  0  0
   25.4599   10.0973   35.0208 C   0  0  0  0  0  0  0  0  0  0  0  0
   28.9136   11.6968   35.4426 C   0  0  0  0  0  0  0  0  0  0  0  0
   22.7139    8.5305   34.0061 C   0  0  0  0  0  0  0  0  0  0  0  0
   19.5868    7.4868   26.4830 C   0  0  0  0  0  0  0  0  0  0  0  0
   23.5598    9.8016   32.1790 C   0  0  0  0  0  0  0  0  0  0  0  0
   18.7188    7.7634   30.0528 C   0  0  0  0  0  0  0  0  0  0  0  0
   17.4159    7.5198   27.9277 C   0  0  0  0  0  0  0  0  0  0  0  0
   30.1569    8.3818   35.0037 N   0  0  0  0  0  0  0  0  0  0  0  0
   26.9710   10.2297   35.1989 C   0  0  0  0  0  0  0  0  0  0  0  0
   20.1115   11.7783   33.4184 C   0  0  0  0  0  0  0  0  0  0  0  0
   29.7531   10.6709   35.2843 N   0  0  0  0  0  0  0  0  0  0  0  0
   17.2819    7.8200   29.4371 C   0  0  0  0  0  0  0  0  0  0  0  0
   18.7383   10.1977   32.1755 C   0  0  0  0  0  0  0  0  0  0  0  0
   26.7166   12.5680   35.5694 O   0  0  0  0  0  0  0  0  0  0  0  0
   19.8826   10.5337   32.8341 C   0  0  0  0  0  0  0  0  0  0  0  0
   24.2765   10.5085   35.7905 C   0  0  0  0  0  0  0  0  0  0  0  0
   29.2550    9.4468   35.1222 C   0  0  0  0  0  0  0  0  0  0  0  0
   23.9226    9.0951   33.3830 C   0  0  0  0  0  0  0  0  0  0  0  0
   27.8955    9.1906   35.0827 C   0  0  0  0  0  0  0  0  0  0  0  0
   22.8140    7.5134   34.7385 O   0  0  0  0  0  0  0  0  0  0  0  0
   20.7870    9.4061   32.8894 C   0  0  0  0  0  0  0  0  0  0  0  0
   18.9781    6.4615   30.6056 O   0  0  0  0  0  0  0  0  0  0  0  0
   19.5837    7.8921   28.7967 C   0  0  0  0  0  0  0  0  0  0  0  0
   17.6365   11.0201   32.2550 C   0  0  0  0  0  0  0  0  0  0  0  0
   23.7004    9.6070   36.5230 O   0  0  0  0  0  0  0  0  0  0  0  0
   23.8207   11.6987   35.7053 O   0  0  0  0  0  0  0  0  0  0  0  0
   17.2239    8.5691   31.5555 C   0  0  0  0  0  0  0  0  0  0  0  0
   21.6364    9.3296   33.9121 O   0  0  0  0  0  0  0  0  0  0  0  0
   17.7775   12.2481   32.9020 N   0  0  0  0  0  0  0  0  0  0  0  0
   18.8806    7.6056   27.6881 C   0  0  0  0  0  0  0  0  0  0  0  0
   18.7916    8.8133   31.3556 N   0  0  0  0  0  0  0  0  0  0  0  0
   27.5254   11.5054   35.3985 C   0  0  0  0  0  0  0  0  0  0  0  0
   20.2114    8.3814   32.0354 O   0  0  0  0  0  0  0  0  0  0  0  0
   25.1330    8.8893   34.1639 C   0  0  0  0  0  0  0  0  0  0  0  0
   19.0300   12.6343   33.4358 C   0  0  0  0  0  0  0  0  0  0  0  0
   20.8780    8.3106   28.7857 N   0  0  0  0  0  0  0  0  0  0  0  0
   21.5204    8.2560   27.5854 C   0  0  0  0  0  0  0  0  0  0  0  0
   20.9039    7.8666   26.4449 N   0  0  0  0  0  0  0  0  0  0  0  0
  1  5  2  0
  2 10  1  0
  2 17  1  0
  2 35  1  0
  3 12  2  0
  3 33  1  0
  4 19  1  0
  4 21  2  0
  4 29  1  0
  5 31  1  0
  5 39  1  0
  6 19  1  0
  7 13  1  0
  7 23  1  0
  7 24  1  0
  7 32  1  0
  8 13  1  0
  8 31  1  0
  9 18  2  0
 10 20  1  0
 10 33  2  0
 11 16  2  0
 11 36  1  0
 12 18  1  0
 14 16  1  0
 14 25  2  0
 14 32  1  0
 15 33  1  0
 16 22  1  0
 17 26  2  0
 17 27  1  0
 18 20  1  0
 19 35  1  0
 22 29  1  0
 22 34  2  0
 24 31  2  0
 24 37  1  0
 25 30  1  0
 28 32  1  0
 30 36  2  0
 37 38  1  0
 38 39  2  0
M  END
>  <ID>  (1) 
conformer_0

$$$$
