
     RDKit          3D

 33 36  0  0  0  0  0  0  0  0999 V2000
   23.8631    9.6409   35.9098 C   0  0  0  0  0  0  0  0  0  0  0  0
   22.3928   12.1220   34.8191 N   0  0  0  0  0  0  0  0  0  0  0  0
   20.1438    9.0641   30.0121 C   0  0  0  0  0  0  0  0  0  0  0  0
   21.8189    8.0757   26.7313 C   0  0  0  0  0  0  0  0  0  0  0  0
   29.0960   11.7410   35.5168 C   0  0  0  0  0  0  0  0  0  0  0  0
   19.3874    7.8502   27.8575 C   0  0  0  0  0  0  0  0  0  0  0  0
   21.6213    8.5929   28.0029 C   0  0  0  0  0  0  0  0  0  0  0  0
   20.2578   10.6167   29.9082 C   0  0  0  0  0  0  0  0  0  0  0  0
   27.7231   11.4529   35.2915 C   0  0  0  0  0  0  0  0  0  0  0  0
   22.9207    7.6048   34.7184 O   0  0  0  0  0  0  0  0  0  0  0  0
   28.4032    9.0764   34.9798 C   0  0  0  0  0  0  0  0  0  0  0  0
   19.6159    7.4126   26.5887 C   0  0  0  0  0  0  0  0  0  0  0  0
   20.7463   11.1212   32.3584 C   0  0  0  0  0  0  0  0  0  0  0  0
   22.3488    9.7885   33.8208 C   0  0  0  0  0  0  0  0  0  0  0  0
   24.9783   10.4558   35.4955 N   0  0  0  0  0  0  0  0  0  0  0  0
   21.3284    9.7740   32.5734 C   0  0  0  0  0  0  0  0  0  0  0  0
   18.1209    7.6489   28.4132 O   0  0  0  0  0  0  0  0  0  0  0  0
   17.0346    6.7590   25.9775 C   0  0  0  0  0  0  0  0  0  0  0  0
   21.4866   12.6049   34.1109 C   0  0  0  0  0  0  0  0  0  0  0  0
   23.4060    8.8947   34.6834 C   0  0  0  0  0  0  0  0  0  0  0  0
   20.8234    7.4946   25.9980 C   0  0  0  0  0  0  0  0  0  0  0  0
   21.0501    7.5426   31.5829 O   0  0  0  0  0  0  0  0  0  0  0  0
   30.0778   10.7381   35.3111 C   0  0  0  0  0  0  0  0  0  0  0  0
   29.7166    9.4354   34.9994 C   0  0  0  0  0  0  0  0  0  0  0  0
   20.7877   12.2139   33.0850 N   0  0  0  0  0  0  0  0  0  0  0  0
   27.3638   10.0866   35.0996 C   0  0  0  0  0  0  0  0  0  0  0  0
   26.0405    9.6031   35.0468 C   0  0  0  0  0  0  0  0  0  0  0  0
   22.4123   11.0400   34.3826 C   0  0  0  0  0  0  0  0  0  0  0  0
   20.3674    8.4807   28.6257 C   0  0  0  0  0  0  0  0  0  0  0  0
   23.1262    8.1818   26.0459 C   0  0  0  0  0  0  0  0  0  0  0  0
   16.9882    7.4914   27.3860 C   0  0  0  0  0  0  0  0  0  0  0  0
   20.8045    8.7947   31.4128 C   0  0  0  0  0  0  0  0  0  0  0  0
   19.9809   11.2105   31.1877 N   0  0  0  0  0  0  0  0  0  0  0  0
  1 15  1  0
  1 20  1  0
  2 19  1  0
  2 28  1  0
  3  8  1  0
  3 29  1  0
  3 32  1  0
  4  7  2  0
  4 21  1  0
  4 30  1  0
  5  9  1  0
  5 23  2  0
  6 12  1  0
  6 17  1  0
  6 29  2  0
  7 29  1  0
  8 33  1  0
  9 26  1  0
 10 20  1  0
 11 24  2  0
 11 26  1  0
 12 21  2  0
 13 16  2  0
 13 25  1  0
 13 33  1  0
 14 16  1  0
 14 20  1  0
 14 28  1  0
 15 27  1  0
 16 32  1  0
 17 31  1  0
 18 31  1  0
 19 25  2  0
 22 32  1  0
 23 24  1  0
 26 27  2  3
M  END
>  <ID>  (1) 
conformer_0

$$$$
