
     RDKit          3D

 26 28  0  0  0  0  0  0  0  0999 V2000
   19.6706    7.5292   31.0454 C   0  0  0  0  0  0  0  0  0  0  0  0
   20.2192    9.5674   30.1553 C   0  0  0  0  0  0  0  0  0  0  0  0
   22.9016    8.3300   34.1128 C   0  0  0  0  0  0  0  0  0  0  0  0
   20.3404    8.8005   31.2965 C   0  0  0  0  0  0  0  0  0  0  0  0
   23.8047    9.3396   35.1386 C   0  0  0  0  0  0  0  0  0  0  0  0
   21.0137    9.3185   32.4523 C   0  0  0  0  0  0  0  0  0  0  0  0
   19.8819    8.8470   27.4869 C   0  0  0  0  0  0  0  0  0  0  0  0
   22.7156    7.1739   34.9220 O   0  0  0  0  0  0  0  0  0  0  0  0
   20.9698   11.4681   31.4643 C   0  0  0  0  0  0  0  0  0  0  0  0
   26.2525   10.0458   35.0261 C   0  0  0  0  0  0  0  0  0  0  0  0
   25.0812    9.3892   34.7513 N   0  0  0  0  0  0  0  0  0  0  0  0
   28.7009   10.1869   34.9623 C   0  0  0  0  0  0  0  0  0  0  0  0
   19.6796    7.6528   26.4371 C   0  0  0  0  0  0  0  0  0  0  0  0
   21.4889    8.5329   33.4974 N   0  0  0  0  0  0  0  0  0  0  0  0
   19.8241    8.8195   29.0181 C   0  0  0  0  0  0  0  0  0  0  0  0
   20.4716   10.9386   30.2432 C   0  0  0  0  0  0  0  0  0  0  0  0
   30.2614    9.5307   34.5936 Cl  0  0  0  0  0  0  0  0  0  0  0  0
   23.4336    9.5573   36.3825 O   0  0  0  0  0  0  0  0  0  0  0  0
   28.6788   11.4859   35.4230 C   0  0  0  0  0  0  0  0  0  0  0  0
   18.4585    6.6640   28.7870 C   0  0  0  0  0  0  0  0  0  0  0  0
   27.5318    9.4307   34.7483 C   0  0  0  0  0  0  0  0  0  0  0  0
   23.7380    8.2371   32.8777 N   0  0  0  0  0  0  0  0  0  0  0  0
   21.2218   10.6693   32.5341 C   0  0  0  0  0  0  0  0  0  0  0  0
   26.2485   11.3444   35.5074 C   0  0  0  0  0  0  0  0  0  0  0  0
   27.4248   12.0535   35.6809 C   0  0  0  0  0  0  0  0  0  0  0  0
   19.3652    7.5316   29.5963 C   0  0  0  0  0  0  0  0  0  0  0  0
  1  4  1  0
  1 26  1  0
  2  4  1  0
  2 15  1  0
  2 16  2  0
  3  5  1  0
  3  8  1  0
  3 14  1  0
  3 22  1  0
  4  6  1  0
  5 11  1  0
  5 18  2  0
  6 14  1  0
  6 23  1  0
  7 13  1  0
  7 15  2  3
  9 16  1  0
  9 23  2  0
 10 11  1  0
 10 21  1  0
 10 24  2  0
 12 17  1  0
 12 19  2  0
 12 21  1  0
 15 26  1  0
 19 25  1  0
 20 26  1  0
 24 25  1  0
M  END
>  <ID>  (1) 
conformer_0

$$$$
