
     RDKit          3D

 44 46  0  0  0  0  0  0  0  0999 V2000
   23.6932    9.5583   34.9807 C   0  0  0  0  0  0  0  0  0  0  0  0
   18.9069   10.8211   31.8107 C   0  0  0  0  0  0  0  0  0  0  0  0
   22.0402    8.6642   33.3693 C   0  0  0  0  0  0  0  0  0  0  0  0
   28.8425   10.8508   35.2522 C   0  0  0  0  0  0  0  0  0  0  0  0
   27.4614    8.9699   34.8396 N   0  0  0  0  0  0  0  0  0  0  0  0
   19.7961   12.3942   33.5310 O   0  0  0  0  0  0  0  0  0  0  0  0
   17.6012    6.0532   25.9005 C   0  0  0  0  0  0  0  0  0  0  0  0
   17.8908    8.6492   28.0419 C   0  0  0  0  0  0  0  0  0  0  0  0
   25.0223    9.1764   34.3586 C   0  0  0  0  0  0  0  0  0  0  0  0
   17.5487    8.3621   26.6135 C   0  0  0  0  0  0  0  0  0  0  0  0
   21.9102   12.7445   34.5753 C   0  0  0  0  0  0  0  0  0  0  0  0
   28.6905    9.4950   35.0848 C   0  0  0  0  0  0  0  0  0  0  0  0
   20.4064   12.5736   30.9849 C   0  0  0  0  0  0  0  0  0  0  0  0
   22.6946    8.3637   34.6766 C   0  0  0  0  0  0  0  0  0  0  0  0
   21.9949    9.2417   29.5525 C   0  0  0  0  0  0  0  0  0  0  0  0
   19.7129    7.2729   30.9640 O   0  0  0  0  0  0  0  0  0  0  0  0
   20.8277    8.2437   33.3336 O   0  0  0  0  0  0  0  0  0  0  0  0
   17.9645   10.3905   32.7495 O   0  0  0  0  0  0  0  0  0  0  0  0
   19.8853    9.7608   31.4174 C   0  0  0  0  0  0  0  0  0  0  0  0
   20.4469    6.9462   24.9588 O   0  0  0  0  0  0  0  0  0  0  0  0
   22.0590   11.4402   34.0153 O   0  0  0  0  0  0  0  0  0  0  0  0
   19.7427    7.3734   26.1369 C   0  0  0  0  0  0  0  0  0  0  0  0
   30.1807   11.4914   35.3180 C   0  0  0  0  0  0  0  0  0  0  0  0
   20.6424   13.2800   34.1537 C   0  0  0  0  0  0  0  0  0  0  0  0
   22.5203    8.7721   28.3356 C   0  0  0  0  0  0  0  0  0  0  0  0
   22.8327    9.1377   32.4753 O   0  0  0  0  0  0  0  0  0  0  0  0
   22.5221    7.7733   26.0477 C   0  0  0  0  0  0  0  0  0  0  0  0
   26.4586   11.1257   34.9811 C   0  0  0  0  0  0  0  0  0  0  0  0
   20.1453   14.2776   34.8290 O   0  0  0  0  0  0  0  0  0  0  0  0
   21.0564    9.8496   30.5962 O   0  0  0  0  0  0  0  0  0  0  0  0
   19.5765   12.1714   32.1315 C   0  0  0  0  0  0  0  0  0  0  0  0
   21.7873    8.1748   27.2055 C   0  0  0  0  0  0  0  0  0  0  0  0
   23.8684    9.5693   36.3804 O   0  0  0  0  0  0  0  0  0  0  0  0
   29.9957    8.4856   35.0937 Cl  0  0  0  0  0  0  0  0  0  0  0  0
   18.3508    7.2307   26.1717 N   0  0  0  0  0  0  0  0  0  0  0  0
   23.2394   10.8223   34.4274 C   0  0  0  0  0  0  0  0  0  0  0  0
   20.4565    7.9663   27.1486 C   0  0  0  0  0  0  0  0  0  0  0  0
   26.3131    9.7839   34.7401 C   0  0  0  0  0  0  0  0  0  0  0  0
   19.1479    8.4766   31.1614 C   0  0  0  0  0  0  0  0  0  0  0  0
   21.8691    7.1952   24.9908 C   0  0  0  0  0  0  0  0  0  0  0  0
   17.0517    9.6879   30.2053 O   0  0  0  0  0  0  0  0  0  0  0  0
   17.8689    8.6555   30.4037 C   0  0  0  0  0  0  0  0  0  0  0  0
   27.6979   11.6627   35.2461 C   0  0  0  0  0  0  0  0  0  0  0  0
   17.8966    7.7676   29.2575 O   0  0  0  0  0  0  0  0  0  0  0  0
  1  9  1  0
  1 14  1  0
  1 33  1  0
  1 36  1  0
  2 18  1  0
  2 19  1  0
  2 31  1  0
  3 14  1  0
  3 17  2  0
  3 26  1  0
  4 12  1  0
  4 23  1  0
  4 43  1  0
  5 12  2  0
  5 38  1  0
  6 24  1  0
  6 31  1  0
  7 35  1  0
  8 10  1  0
  8 44  1  0
  9 38  1  0
 10 35  1  0
 11 21  1  0
 11 24  1  0
 12 34  1  0
 13 31  1  0
 15 25  1  0
 15 30  1  0
 16 39  1  0
 19 30  1  0
 19 39  1  0
 20 22  1  0
 20 40  1  0
 21 36  1  0
 22 35  1  0
 22 37  1  0
 24 29  2  0
 25 32  1  0
 27 32  1  0
 27 40  2  0
 28 38  1  0
 28 43  2  0
 32 37  2  0
 39 42  1  0
 41 42  2  0
 42 44  1  0
M  END
>  <ID>  (1) 
conformer_0

$$$$
