
     RDKit          3D

 34 38  0  0  0  0  0  0  0  0999 V2000
   30.1590    9.8171   35.0592 C   0  0  0  0  0  0  0  0  0  0  0  0
   17.9500    8.3179   29.4081 C   0  0  0  0  0  0  0  0  0  0  0  0
   19.0792    9.1446   26.8552 C   0  0  0  0  0  0  0  0  0  0  0  0
   20.5021    8.6263   27.2415 C   0  0  0  0  0  0  0  0  0  0  0  0
   21.6843    8.2128   35.2922 C   0  0  0  0  0  0  0  0  0  0  0  0
   19.5478   11.3163   28.1175 C   0  0  0  0  0  0  0  0  0  0  0  0
   21.2630    8.5235   33.8674 C   0  0  0  0  0  0  0  0  0  0  0  0
   25.1958   10.0515   34.0338 O   0  0  0  0  0  0  0  0  0  0  0  0
   27.4243   10.3045   35.0802 C   0  0  0  0  0  0  0  0  0  0  0  0
   23.6104    8.2970   33.6214 C   0  0  0  0  0  0  0  0  0  0  0  0
   23.8832    9.5689   34.3801 C   0  0  0  0  0  0  0  0  0  0  0  0
   20.7406    9.0457   28.6996 C   0  0  0  0  0  0  0  0  0  0  0  0
   27.9297    9.0197   34.8939 N   0  0  0  0  0  0  0  0  0  0  0  0
   28.3433   11.2816   35.2779 C   0  0  0  0  0  0  0  0  0  0  0  0
   21.2625    9.0064   31.1204 N   0  0  0  0  0  0  0  0  0  0  0  0
   17.5911    7.6237   28.1437 C   0  0  0  0  0  0  0  0  0  0  0  0
   17.3362    8.0998   30.7369 C   0  0  0  0  0  0  0  0  0  0  0  0
   23.7974    9.3696   35.8570 C   0  0  0  0  0  0  0  0  0  0  0  0
   18.1045    7.9689   26.7450 C   0  0  0  0  0  0  0  0  0  0  0  0
   17.4038   10.4345   28.1020 O   0  0  0  0  0  0  0  0  0  0  0  0
   25.5583   11.6224   35.5731 O   0  0  0  0  0  0  0  0  0  0  0  0
   18.7342   10.0448   28.1114 C   0  0  0  0  0  0  0  0  0  0  0  0
   18.5180    6.6492   26.0896 C   0  0  0  0  0  0  0  0  0  0  0  0
   22.5693    9.5699   31.9177 C   0  0  0  0  0  0  0  0  0  0  0  0
   19.3180    9.0882   29.3923 C   0  0  0  0  0  0  0  0  0  0  0  0
   20.0282    8.4755   33.5975 O   0  0  0  0  0  0  0  0  0  0  0  0
   25.9946   10.6622   34.9492 C   0  0  0  0  0  0  0  0  0  0  0  0
   21.8225    9.1055   29.7026 C   0  0  0  0  0  0  0  0  0  0  0  0
   22.3320    8.5493   32.8754 C   0  0  0  0  0  0  0  0  0  0  0  0
   29.3337    8.7773   34.8970 N   0  0  0  0  0  0  0  0  0  0  0  0
   29.7089   11.0895   35.2393 C   0  0  0  0  0  0  0  0  0  0  0  0
   22.9087    8.1677   36.1205 C   0  0  0  0  0  0  0  0  0  0  0  0
   19.9349    7.1496   30.7841 O   0  0  0  0  0  0  0  0  0  0  0  0
   19.9793    8.3950   30.7600 C   0  0  0  0  0  0  0  0  0  0  0  0
  1 30  2  0
  1 31  1  0
  2 16  1  0
  2 17  1  0
  2 25  1  0
  3  4  1  0
  3 19  1  0
  3 22  1  0
  4 12  1  0
  5  7  1  0
  5 32  1  0
  6 22  1  0
  7 26  2  0
  7 29  1  0
  8 11  1  0
  8 27  1  0
  9 13  2  0
  9 14  1  0
  9 27  1  0
 10 11  1  0
 10 29  1  0
 11 18  1  0
 12 25  1  0
 12 28  1  0
 13 30  1  0
 14 31  2  0
 15 24  1  0
 15 28  1  0
 15 34  1  0
 16 19  1  0
 18 32  1  0
 19 23  1  0
 20 22  1  0
 21 27  2  0
 22 25  1  0
 24 29  1  0
 25 34  1  0
 33 34  1  0
M  END
>  <ID>  (1) 
conformer_0

$$$$
