
     RDKit          3D

 31 33  0  0  0  0  0  0  0  0999 V2000
   18.1834    7.4725   29.2330 C   0  0  0  0  0  0  0  0  0  0  0  0
   24.6311   10.7910   35.0234 C   0  0  0  0  0  0  0  0  0  0  0  0
   19.4219    8.1971   29.6805 N   0  0  0  0  0  0  0  0  0  0  0  0
   21.3865   11.8664   33.5690 C   0  0  0  0  0  0  0  0  0  0  0  0
   20.4415    8.2098   28.6009 C   0  0  0  0  0  0  0  0  0  0  0  0
   22.7394    8.6496   28.0419 C   0  0  0  0  0  0  0  0  0  0  0  0
   26.6806    9.2657   34.9231 C   0  0  0  0  0  0  0  0  0  0  0  0
   21.6922    8.7078   28.9187 N   0  0  0  0  0  0  0  0  0  0  0  0
   23.3883    8.6394   34.0198 N   0  0  0  0  0  0  0  0  0  0  0  0
   18.6501    5.8572   27.3457 O   0  0  0  0  0  0  0  0  0  0  0  0
   21.3704    9.7165   32.4687 C   0  0  0  0  0  0  0  0  0  0  0  0
   22.1309    8.6243   31.9771 O   0  0  0  0  0  0  0  0  0  0  0  0
   18.5062    8.1035   31.8803 O   0  0  0  0  0  0  0  0  0  0  0  0
   20.3108    7.7728   27.2786 C   0  0  0  0  0  0  0  0  0  0  0  0
   28.0575    9.0184   34.9531 C   0  0  0  0  0  0  0  0  0  0  0  0
   19.4169    8.8119   31.0359 C   0  0  0  0  0  0  0  0  0  0  0  0
   17.4513    7.6907   26.9077 N   0  0  0  0  0  0  0  0  0  0  0  0
   27.0631   11.6273   35.1797 C   0  0  0  0  0  0  0  0  0  0  0  0
   26.1510   10.5683   35.0327 C   0  0  0  0  0  0  0  0  0  0  0  0
   20.0799    9.9121   31.9188 C   0  0  0  0  0  0  0  0  0  0  0  0
   28.9387   10.1008   35.0993 C   0  0  0  0  0  0  0  0  0  0  0  0
   19.5387   11.1679   32.1684 C   0  0  0  0  0  0  0  0  0  0  0  0
   22.5401    8.1838   26.7193 C   0  0  0  0  0  0  0  0  0  0  0  0
   18.3033    7.0206   27.7238 C   0  0  0  0  0  0  0  0  0  0  0  0
   23.3960    8.5464   32.5355 C   0  0  0  0  0  0  0  0  0  0  0  0
   21.9309   10.6315   33.3058 C   0  0  0  0  0  0  0  0  0  0  0  0
   28.4342   11.3908   35.2087 C   0  0  0  0  0  0  0  0  0  0  0  0
   23.5177    9.1388   36.4237 O   0  0  0  0  0  0  0  0  0  0  0  0
   23.8988    9.4122   35.1443 C   0  0  0  0  0  0  0  0  0  0  0  0
   21.2886    7.7812   26.3352 C   0  0  0  0  0  0  0  0  0  0  0  0
   20.1727   12.1299   32.9567 C   0  0  0  0  0  0  0  0  0  0  0  0
  1  3  1  0
  1 24  1  0
  2 19  1  0
  2 29  1  0
  3  5  1  0
  3 16  1  0
  4 26  2  0
  4 31  1  0
  5  8  1  0
  5 14  1  0
  6  8  2  0
  6 23  1  0
  7 15  2  0
  7 19  1  0
  9 25  1  0
  9 29  1  0
 10 24  2  0
 11 12  1  0
 11 20  2  0
 11 26  1  0
 12 25  1  0
 13 16  2  0
 14 30  2  0
 15 21  1  0
 16 20  1  0
 17 24  1  0
 18 19  2  0
 18 27  1  0
 20 22  1  0
 21 27  2  0
 22 31  2  0
 23 30  1  0
 28 29  2  0
M  END
>  <ID>  (1) 
conformer_0

$$$$
