
     RDKit          3D

 32 34  0  0  0  0  0  0  0  0999 V2000
   19.0648   11.4030   32.7206 C   0  0  0  0  0  0  0  0  0  0  0  0
   18.3468    6.9362   28.7356 C   0  0  0  0  0  0  0  0  0  0  0  0
   23.4868    9.2117   36.6000 O   0  0  0  0  0  0  0  0  0  0  0  0
   25.5452   11.8190   36.1209 O   0  0  0  0  0  0  0  0  0  0  0  0
   19.0565    7.7513   29.6176 C   0  0  0  0  0  0  0  0  0  0  0  0
   23.9675    9.6883   35.4935 C   0  0  0  0  0  0  0  0  0  0  0  0
   22.6011    8.6330   33.7380 C   0  0  0  0  0  0  0  0  0  0  0  0
   19.5897    7.7741   26.9074 C   0  0  0  0  0  0  0  0  0  0  0  0
   26.6482   11.1645   35.6258 C   0  0  0  0  0  0  0  0  0  0  0  0
   28.9034    9.6741   35.0696 C   0  0  0  0  0  0  0  0  0  0  0  0
   25.1576    9.3056   34.8514 C   0  0  0  0  0  0  0  0  0  0  0  0
   17.8794    6.1971   26.5293 F   0  0  0  0  0  0  0  0  0  0  0  0
   19.8847   10.6528   30.4875 C   0  0  0  0  0  0  0  0  0  0  0  0
   20.2541    8.5942   27.7364 C   0  0  0  0  0  0  0  0  0  0  0  0
   22.8943    9.9321   34.3898 C   0  0  0  0  0  0  0  0  0  0  0  0
   23.0396   11.2054   33.9260 O   0  0  0  0  0  0  0  0  0  0  0  0
   27.6662    9.1108   34.9009 C   0  0  0  0  0  0  0  0  0  0  0  0
   18.6180    6.9749   27.3920 C   0  0  0  0  0  0  0  0  0  0  0  0
   22.2325    9.8379   31.6667 C   0  0  0  0  0  0  0  0  0  0  0  0
   20.5918    9.5860   29.9367 N   0  0  0  0  0  0  0  0  0  0  0  0
   19.5641   11.7259   29.6526 C   0  0  0  0  0  0  0  0  0  0  0  0
   20.0312   10.8628   31.8240 N   0  0  0  0  0  0  0  0  0  0  0  0
   21.9794    9.5797   30.2537 C   0  0  0  0  0  0  0  0  0  0  0  0
   22.4203    7.5816   34.5928 O   0  0  0  0  0  0  0  0  0  0  0  0
   21.1581   10.4045   32.4750 C   0  0  0  0  0  0  0  0  0  0  0  0
   22.8291    8.5979   32.3077 C   0  0  0  0  0  0  0  0  0  0  0  0
   29.0243   11.0012   35.3960 C   0  0  0  0  0  0  0  0  0  0  0  0
   19.8489    7.7647   25.5918 F   0  0  0  0  0  0  0  0  0  0  0  0
   19.9870    8.6353   29.0929 C   0  0  0  0  0  0  0  0  0  0  0  0
   30.0571    8.8229   34.8953 C   0  0  0  0  0  0  0  0  0  0  0  0
   27.8949   11.7664   35.6673 C   0  0  0  0  0  0  0  0  0  0  0  0
   26.4927    9.8711   35.1174 C   0  0  0  0  0  0  0  0  0  0  0  0
  1 22  1  0
  2  5  2  0
  2 18  1  0
  3  6  1  0
  4  9  1  0
  5 29  1  0
  6 11  1  0
  6 15  1  0
  7 15  1  0
  7 24  1  0
  7 26  1  0
  8 14  1  0
  8 18  2  0
  8 28  1  0
  9 31  2  0
  9 32  1  0
 10 17  1  0
 10 27  2  0
 10 30  1  0
 11 32  1  0
 12 18  1  0
 13 20  1  0
 13 21  1  0
 13 22  1  0
 14 29  2  0
 15 16  1  0
 17 32  2  0
 19 23  1  0
 19 25  1  0
 19 26  1  0
 20 23  1  0
 20 29  1  0
 22 25  1  0
 27 31  1  0
M  END
>  <ID>  (1) 
conformer_0

$$$$
