
     RDKit          3D

 27 29  0  0  0  0  0  0  0  0999 V2000
   27.1121    8.9576   34.8994 C   0  0  0  0  0  0  0  0  0  0  0  0
   21.2664    9.0062   29.7581 N   0  0  0  0  0  0  0  0  0  0  0  0
   25.1097   10.5089   35.2965 C   0  0  0  0  0  0  0  0  0  0  0  0
   22.1289    8.3890   27.4815 C   0  0  0  0  0  0  0  0  0  0  0  0
   26.5034   10.2286   35.1416 C   0  0  0  0  0  0  0  0  0  0  0  0
   21.3773    7.7516   26.3775 C   0  0  0  0  0  0  0  0  0  0  0  0
   18.9997    7.9580   32.0188 O   0  0  0  0  0  0  0  0  0  0  0  0
   24.1835    9.5148   35.6454 N   0  0  0  0  0  0  0  0  0  0  0  0
   20.1432   10.9474   30.7135 C   0  0  0  0  0  0  0  0  0  0  0  0
   23.2040    9.0561   34.7132 C   0  0  0  0  0  0  0  0  0  0  0  0
   22.5954    7.9396   34.9763 O   0  0  0  0  0  0  0  0  0  0  0  0
   27.5407   11.1373   35.2074 C   0  0  0  0  0  0  0  0  0  0  0  0
   20.0835    9.4264   30.4912 C   0  0  0  0  0  0  0  0  0  0  0  0
   19.9487    8.0603   28.0220 N   0  0  0  0  0  0  0  0  0  0  0  0
   28.7736   10.4192   35.0997 C   0  0  0  0  0  0  0  0  0  0  0  0
   19.9066    8.7734   31.8303 C   0  0  0  0  0  0  0  0  0  0  0  0
   28.5442    9.1043   34.9273 C   0  0  0  0  0  0  0  0  0  0  0  0
   20.8500    9.4548   32.8258 C   0  0  0  0  0  0  0  0  0  0  0  0
   23.2461    9.5854   33.3426 C   0  0  0  0  0  0  0  0  0  0  0  0
   18.9098    7.0263   25.9770 C   0  0  0  0  0  0  0  0  0  0  0  0
   21.1537    8.5417   28.5068 C   0  0  0  0  0  0  0  0  0  0  0  0
   22.2565    9.0628   32.5030 N   0  0  0  0  0  0  0  0  0  0  0  0
   29.9719   10.9309   35.0766 F   0  0  0  0  0  0  0  0  0  0  0  0
   22.0771    7.4530   25.0262 Cl  0  0  0  0  0  0  0  0  0  0  0  0
   20.0823    7.5767   26.7453 C   0  0  0  0  0  0  0  0  0  0  0  0
   20.6973   11.2057   32.4257 S   0  0  0  0  0  0  0  0  0  0  0  0
   19.2326    6.1439   24.8232 O   0  0  0  0  0  0  0  0  0  0  0  0
  1  5  1  0
  1 17  1  0
  2 13  1  0
  2 21  2  3
  3  5  1  0
  3  8  1  0
  4  6  1  0
  4 21  1  0
  5 12  1  0
  6 24  1  0
  6 25  2  0
  7 16  2  0
  8 10  1  0
  9 13  1  0
  9 26  1  0
 10 11  2  0
 10 19  1  0
 12 15  1  0
 13 16  1  0
 14 21  1  0
 14 25  1  0
 15 17  1  0
 15 23  1  0
 16 18  1  0
 18 22  1  0
 18 26  1  0
 19 22  1  0
 20 25  1  0
 20 27  1  0
M  END
>  <ID>  (1) 
conformer_0

$$$$
