
     RDKit          3D

 26 27  0  0  0  0  0  0  0  0999 V2000
   27.8298   11.7819   35.1090 C   0  0  0  0  0  0  0  0  0  0  0  0
   21.0879    9.4497   31.5212 C   0  0  0  0  0  0  0  0  0  0  0  0
   22.7989    7.4690   34.7947 O   0  0  0  0  0  0  0  0  0  0  0  0
   20.7017   12.5058   33.4518 C   0  0  0  0  0  0  0  0  0  0  0  0
   21.8800    8.9254   32.5310 N   0  0  0  0  0  0  0  0  0  0  0  0
   20.3902   10.6109   31.8641 C   0  0  0  0  0  0  0  0  0  0  0  0
   24.4261    9.1768   35.0261 N   0  0  0  0  0  0  0  0  0  0  0  0
   17.1897    6.9218   26.1274 C   0  0  0  0  0  0  0  0  0  0  0  0
   23.2150    8.6571   34.5147 C   0  0  0  0  0  0  0  0  0  0  0  0
   21.3492    8.2758   27.3757 C   0  0  0  0  0  0  0  0  0  0  0  0
   21.7945   12.1104   34.2442 C   0  0  0  0  0  0  0  0  0  0  0  0
   21.1416    8.9593   30.1701 C   0  0  0  0  0  0  0  0  0  0  0  0
   18.9764    7.8819   27.3372 N   0  0  0  0  0  0  0  0  0  0  0  0
   20.1805   11.6876   32.4585 C   0  0  0  0  0  0  0  0  0  0  0  0
   28.0417   10.2724   34.9264 C   0  0  0  0  0  0  0  0  0  0  0  0
   29.9183    8.4395   34.7786 Cl  0  0  0  0  0  0  0  0  0  0  0  0
   25.5498   10.0384   35.3710 C   0  0  0  0  0  0  0  0  0  0  0  0
   26.8661    9.4167   34.9061 C   0  0  0  0  0  0  0  0  0  0  0  0
   22.3740    9.6073   33.6831 C   0  0  0  0  0  0  0  0  0  0  0  0
   20.1207    8.1804   28.0491 C   0  0  0  0  0  0  0  0  0  0  0  0
   22.4685    8.6893   28.1186 C   0  0  0  0  0  0  0  0  0  0  0  0
   22.3895    9.0148   29.4923 C   0  0  0  0  0  0  0  0  0  0  0  0
   18.7456    7.0049   26.2058 C   0  0  0  0  0  0  0  0  0  0  0  0
   29.4946    9.9375   35.0784 C   0  0  0  0  0  0  0  0  0  0  0  0
   22.3853   10.9066   34.2004 C   0  0  0  0  0  0  0  0  0  0  0  0
   20.0408    8.5099   29.4279 C   0  0  0  0  0  0  0  0  0  0  0  0
  1 15  1  0
  2  5  1  0
  2  6  2  0
  2 12  1  0
  3  9  2  0
  4 11  1  0
  4 14  1  0
  5 19  2  0
  6 14  2  0
  7  9  1  0
  7 17  1  0
  8 23  1  0
  9 19  1  0
 10 20  2  0
 10 21  1  0
 11 25  2  0
 12 22  1  0
 12 26  2  0
 13 20  1  0
 13 23  1  0
 15 18  1  0
 15 24  1  0
 16 24  1  0
 17 18  1  0
 19 25  1  0
 20 26  1  0
 21 22  2  0
M  END
>  <ID>  (1) 
conformer_0

$$$$
