
     RDKit          3D

 39 43  0  0  0  0  0  0  0  0999 V2000
   21.8779    9.5409   29.0600 C   0  0  0  0  0  0  0  0  0  0  0  0
   22.7097    8.5265   26.8424 C   0  0  0  0  0  0  0  0  0  0  0  0
   29.4789    9.3550   34.9322 C   0  0  0  0  0  0  0  0  0  0  0  0
   29.1288   12.6776   36.0144 O   0  0  0  0  0  0  0  0  0  0  0  0
   29.7203   10.6583   35.2903 C   0  0  0  0  0  0  0  0  0  0  0  0
   20.6129   10.5464   32.5423 S   0  0  0  0  0  4  0  0  0  0  0  0
   24.5465   13.1406   35.9179 C   0  0  0  0  0  0  0  0  0  0  0  0
   26.7909   12.6225   35.8560 C   0  0  0  0  0  0  0  0  0  0  0  0
   24.3769   11.8745   35.5409 N   0  0  0  0  0  0  0  0  0  0  0  0
   27.1998    9.9197   35.0962 C   0  0  0  0  0  0  0  0  0  0  0  0
   28.6792   11.6063   35.5965 C   0  0  0  0  0  0  0  0  0  0  0  0
   21.6415    8.7792   27.8996 C   0  0  0  0  0  0  0  0  0  0  0  0
   25.3962   11.0070   35.2601 C   0  0  0  0  0  0  0  0  0  0  0  0
   21.5934    9.1455   32.8482 C   0  0  0  0  0  0  0  0  0  0  0  0
   16.5848    6.5009   25.7080 N   0  0  0  0  0  0  0  0  0  0  0  0
   19.5092    9.3176   29.6115 C   0  0  0  0  0  0  0  0  0  0  0  0
   17.9274    6.4495   25.7344 C   0  0  0  0  0  0  0  0  0  0  0  0
   30.4831    8.4891   34.6545 O   0  0  0  0  0  0  0  0  0  0  0  0
   23.1221    7.1119   34.7972 O   0  0  0  0  0  0  0  0  0  0  0  0
   23.6408    9.2968   35.5428 C   0  0  0  0  0  0  0  0  0  0  0  0
   25.8817   13.5285   36.1055 C   0  0  0  0  0  0  0  0  0  0  0  0
   19.2156   10.2386   32.6376 O   0  0  0  0  0  1  0  0  0  0  0  0
   19.3027    8.5283   28.4716 C   0  0  0  0  0  0  0  0  0  0  0  0
   22.8723    8.4406   34.6521 C   0  0  0  0  0  0  0  0  0  0  0  0
   23.5200    9.1656   36.8417 O   0  0  0  0  0  0  0  0  0  0  0  0
   20.3694    8.2750   27.6512 C   0  0  0  0  0  0  0  0  0  0  0  0
   20.7810    9.8575   29.9405 C   0  0  0  0  0  0  0  0  0  0  0  0
   19.9939    7.5475   26.5628 N   0  0  0  0  0  0  0  0  0  0  0  0
   24.8299    9.6866   34.8025 C   0  0  0  0  0  0  0  0  0  0  0  0
   18.6133    5.7139   24.7701 O   0  0  0  0  0  0  0  0  0  0  0  0
   21.0989   11.5826   33.3501 O   0  0  0  0  0  1  0  0  0  0  0  0
   23.1144    8.9801   33.2458 C   0  0  0  0  0  0  0  0  0  0  0  0
   20.9318   10.7394   30.9668 N   0  0  0  0  0  0  0  0  0  0  0  0
   24.5263    9.5963   33.4218 O   0  0  0  0  0  0  0  0  0  0  0  0
   18.6780    7.2908   26.7217 C   0  0  0  0  0  0  0  0  0  0  0  0
   28.1409    8.9516   34.8507 C   0  0  0  0  0  0  0  0  0  0  0  0
   18.1998    7.8942   27.8742 N   0  0  0  0  0  0  0  0  0  0  0  0
   27.0034   11.2932   35.4647 C   0  0  0  0  0  0  0  0  0  0  0  0
   20.6796    8.2723   33.5472 O   0  0  0  0  0  0  0  0  0  0  0  0
  1 12  2  0
  1 27  1  0
  2 12  1  0
  3  5  2  0
  3 18  1  0
  3 36  1  0
  4 11  2  0
  5 11  1  0
  6 14  1  0
  6 22  1  0
  6 31  1  0
  6 33  1  0
  7  9  1  0
  7 21  1  0
  8 21  2  0
  8 38  1  0
  9 13  2  0
 10 36  2  0
 10 38  1  0
 11 38  1  0
 12 26  1  0
 13 29  1  0
 13 38  1  0
 14 32  1  0
 14 39  2  0
 15 17  1  0
 16 23  1  0
 16 27  2  0
 17 30  2  0
 17 35  1  0
 19 24  1  0
 20 24  1  0
 20 25  1  0
 20 29  1  0
 23 26  2  0
 23 37  1  0
 24 32  1  0
 26 28  1  0
 27 33  1  0
 28 35  2  0
 29 34  1  0
 32 34  1  0
 35 37  1  0
M  END
>  <ID>  (1) 
conformer_0

$$$$
