
     RDKit          3D

 37 39  0  0  0  0  0  0  0  0999 V2000
   17.8206    9.7405   28.9531 C   0  0  0  0  0  0  0  0  0  0  0  0
   18.0820    8.1225   28.6570 C   0  0  0  0  0  0  0  0  0  0  0  0
   25.6392    9.2193   34.6426 C   0  0  0  0  0  0  0  0  0  0  0  0
   18.0211    7.6662   27.1450 C   0  0  0  0  0  0  0  0  0  0  0  0
   21.2318   13.4100   34.5836 C   0  0  0  0  0  0  0  0  0  0  0  0
   21.9410    9.8708   32.3040 N   0  0  0  0  0  0  0  0  0  0  0  0
   19.4197    6.1041   29.7405 O   0  0  0  0  0  1  0  0  0  0  0  0
   20.5046    8.3782   29.5461 C   0  0  0  0  0  0  0  0  0  0  0  0
   24.3664   10.8832   35.7700 C   0  0  0  0  0  0  0  0  0  0  0  0
   28.8826    9.0550   34.9053 C   0  0  0  0  0  0  0  0  0  0  0  0
   16.5161    7.5478   26.7418 C   0  0  0  0  0  0  0  0  0  0  0  0
   19.9141    7.0281   25.8319 O   0  0  0  0  0  0  0  0  0  0  0  0
   30.0692   11.0657   35.1045 C   0  0  0  0  0  0  0  0  0  0  0  0
   30.2187    9.6836   34.6142 C   0  0  0  0  0  0  0  0  0  0  0  0
   23.0685    8.8581   34.3946 C   0  0  0  0  0  0  0  0  0  0  0  0
   22.6231   10.0076   33.4692 N   0  0  0  0  0  0  0  0  0  0  0  0
   28.6887   11.3142   35.4122 C   0  0  0  0  0  0  0  0  0  0  0  0
   20.6859   11.8630   32.8492 C   0  0  0  0  0  0  0  0  0  0  0  0
   18.7354    6.7432   26.1655 C   0  0  0  0  0  0  0  0  0  0  0  0
   25.8291   11.1827   35.8648 C   0  0  0  0  0  0  0  0  0  0  0  0
   21.6125   12.4980   33.6664 C   0  0  0  0  0  0  0  0  0  0  0  0
   20.9078    8.5927   28.2743 O   0  0  0  0  0  0  0  0  0  0  0  0
   22.4719    8.9850   31.3212 C   0  0  0  0  0  0  0  0  0  0  0  0
   22.0163    8.5927   35.2604 O   0  0  0  0  0  0  0  0  0  0  0  0
   19.8954   13.6865   34.7187 C   0  0  0  0  0  0  0  0  0  0  0  0
   21.4548    8.2621   30.5942 C   0  0  0  0  0  0  0  0  0  0  0  0
   23.5821    7.6857   33.7682 O   0  0  0  0  0  0  0  0  0  0  0  0
   18.9601   13.0590   33.8973 C   0  0  0  0  0  0  0  0  0  0  0  0
   18.0188    5.8283   25.5813 O   0  0  0  0  0  0  0  0  0  0  0  0
   18.7805    7.7427   31.3327 O   0  0  0  0  0  1  0  0  0  0  0  0
   21.1448   10.9096   31.8625 C   0  0  0  0  0  0  0  0  0  0  0  0
   19.3393   12.1618   32.9297 C   0  0  0  0  0  0  0  0  0  0  0  0
   27.9581   10.1075   35.1839 C   0  0  0  0  0  0  0  0  0  0  0  0
   19.1265    7.5179   29.8367 S   0  0  0  0  0  4  0  0  0  0  0  0
   20.8706   11.1399   30.6528 O   0  0  0  0  0  0  0  0  0  0  0  0
   26.5583   10.0823   35.3042 C   0  0  0  0  0  0  0  0  0  0  0  0
   24.2962    9.4657   35.2505 C   0  0  0  0  0  0  0  0  0  0  0  0
  1  2  1  0
  2  4  1  0
  2 34  1  0
  3 36  1  0
  3 37  1  0
  4 11  1  0
  4 19  1  0
  5 21  2  0
  5 25  1  0
  6 16  1  0
  6 23  1  0
  6 31  1  0
  7 34  1  0
  8 22  2  0
  8 26  1  0
  8 34  1  0
  9 20  1  0
  9 37  1  0
 10 14  1  0
 10 33  1  0
 12 19  2  0
 13 14  1  0
 13 17  1  0
 15 16  1  0
 15 24  1  0
 15 27  1  0
 15 37  1  0
 17 33  1  0
 18 21  1  0
 18 31  1  0
 18 32  2  0
 19 29  1  0
 20 36  1  0
 23 26  1  0
 25 28  2  0
 28 32  1  0
 30 34  1  0
 31 35  2  0
 33 36  1  0
M  END
>  <ID>  (1) 
conformer_0

$$$$
