
     RDKit          3D

 42 45  0  0  0  0  0  0  0  0999 V2000
   19.6109    8.7616   31.3023 C   0  0  0  0  0  0  0  0  0  0  0  0
   22.5121    9.1099   28.7834 C   0  0  0  0  0  0  0  0  0  0  0  0
   23.9180   10.2252   34.7678 C   0  0  0  0  0  0  0  0  0  0  0  0
   20.9262   10.8857   30.0050 C   0  0  0  0  0  0  0  0  0  0  0  0
   21.3099   10.2136   32.6303 C   0  0  0  0  0  0  0  0  0  0  0  0
   21.3799   12.4383   33.2983 C   0  0  0  0  0  0  0  0  0  0  0  0
   29.1739   11.3727   35.0892 O   0  0  0  0  0  0  0  0  0  0  0  0
   22.2696   11.7936   34.0786 C   0  0  0  0  0  0  0  0  0  0  0  0
   28.3936   10.4438   35.1049 C   0  0  0  0  0  0  0  0  0  0  0  0
   26.1453    9.7513   35.2514 C   0  0  0  0  0  0  0  0  0  0  0  0
   22.1486    7.5653   25.3228 C   0  0  0  0  0  0  0  0  0  0  0  0
   22.9196   13.7688   35.3378 C   0  0  0  0  0  0  0  0  0  0  0  0
   21.8456   14.4207   34.6939 C   0  0  0  0  0  0  0  0  0  0  0  0
   17.1049    9.3645   29.7587 O   0  0  0  0  0  0  0  0  0  0  0  0
   22.9050    7.6913   34.2342 O   0  0  0  0  0  0  0  0  0  0  0  0
   17.6413    7.5283   27.1686 C   0  0  0  0  0  0  0  0  0  0  0  0
   22.6129    8.2189   26.5266 C   0  0  0  0  0  0  0  0  0  0  0  0
   17.6340    8.1602   29.8834 C   0  0  0  0  0  0  0  0  0  0  0  0
   21.6764    9.9148   29.5747 C   0  0  0  0  0  0  0  0  0  0  0  0
   19.8908   13.2989   29.3663 O   0  0  0  0  0  0  0  0  0  0  0  0
   19.6674   12.8568   30.5390 C   0  0  0  0  0  0  0  0  0  0  0  0
   20.9697   11.5660   32.2933 C   0  0  0  0  0  0  0  0  0  0  0  0
   22.0271    8.5489   34.1756 C   0  0  0  0  0  0  0  0  0  0  0  0
   21.7676    8.4764   27.6343 C   0  0  0  0  0  0  0  0  0  0  0  0
   20.6586    9.1568   32.0371 C   0  0  0  0  0  0  0  0  0  0  0  0
   20.5174   11.7403   30.9831 C   0  0  0  0  0  0  0  0  0  0  0  0
   29.8523    8.5631   34.7128 C   0  0  0  0  0  0  0  0  0  0  0  0
   24.8880    9.2591   34.9043 C   0  0  0  0  0  0  0  0  0  0  0  0
   24.1142   11.5218   35.3101 C   0  0  0  0  0  0  0  0  0  0  0  0
   19.3350    6.6002   30.4355 C   0  0  0  0  0  0  0  0  0  0  0  0
   18.7633   13.3110   31.2434 O   0  0  0  0  0  0  0  0  0  0  0  0
   20.8127    8.1329   34.4497 O   0  0  0  0  0  0  0  0  0  0  0  0
   21.0901   13.7584   33.6970 C   0  0  0  0  0  0  0  0  0  0  0  0
   17.8820    7.3678   28.6515 C   0  0  0  0  0  0  0  0  0  0  0  0
   23.1209   12.4172   34.9366 C   0  0  0  0  0  0  0  0  0  0  0  0
   16.1805    7.5344   27.0542 O   0  0  0  0  0  0  0  0  0  0  0  0
   18.6654    7.8603   30.8378 C   0  0  0  0  0  0  0  0  0  0  0  0
   26.9487   10.6591   35.2583 C   0  0  0  0  0  0  0  0  0  0  0  0
   22.3420   10.2107   33.8757 C   0  0  0  0  0  0  0  0  0  0  0  0
   28.8221    9.2788   34.9583 C   0  0  0  0  0  0  0  0  0  0  0  0
   19.0012    6.4111   28.9724 C   0  0  0  0  0  0  0  0  0  0  0  0
   24.0380    8.4497   26.5938 C   0  0  0  0  0  0  0  0  0  0  0  0
  1 25  1  0
  1 37  1  0
  2 19  1  0
  2 24  1  0
  3 28  1  0
  3 29  1  0
  3 39  1  0
  4 19  1  0
  4 26  2  3
  5 22  1  0
  5 25  1  0
  5 39  1  0
  6  8  1  0
  6 22  1  0
  6 33  2  0
  7  9  2  0
  8 35  1  0
  8 39  1  0
  9 38  1  0
  9 40  1  0
 10 28  1  0
 10 38  1  0
 11 17  1  0
 12 13  1  0
 12 35  1  0
 13 33  1  0
 14 18  1  0
 15 23  2  0
 16 34  1  0
 16 36  1  0
 17 24  1  0
 17 42  1  0
 18 34  1  0
 18 37  1  0
 20 21  2  0
 21 26  1  0
 21 31  1  0
 22 26  1  0
 23 32  1  0
 23 39  1  0
 27 40  2  0
 29 35  1  0
 30 37  1  0
 30 41  1  0
 34 41  1  0
M  END
>  <ID>  (1) 
conformer_0

$$$$
