
     RDKit          3D

 36 39  0  0  0  0  0  0  0  0999 V2000
   20.3010    9.2921   31.2063 C   0  0  0  0  0  0  0  0  0  0  0  0
   17.0592   13.0008   32.6146 F   0  0  0  0  0  0  0  0  0  0  0  0
   23.7222    9.4358   36.5421 O   0  0  0  0  0  0  0  0  0  0  0  0
   26.9354    9.6432   35.1010 C   0  0  0  0  0  0  0  0  0  0  0  0
   24.5437    8.8048   33.0562 O   0  0  0  0  0  0  0  0  0  0  0  0
   19.9169    8.3185   28.8988 C   0  0  0  0  0  0  0  0  0  0  0  0
   21.9573   10.1974   34.1667 O   0  0  0  0  0  0  0  0  0  0  0  0
   24.1327    9.8414   35.2197 C   0  0  0  0  0  0  0  0  0  0  0  0
   25.6947   10.3655   35.3366 C   0  0  0  0  0  0  0  0  0  0  0  0
   19.0641   11.8782   33.0651 C   0  0  0  0  0  0  0  0  0  0  0  0
   21.1896   10.6580   33.1524 C   0  0  0  0  0  0  0  0  0  0  0  0
   25.8164   11.7183   35.6737 C   0  0  0  0  0  0  0  0  0  0  0  0
   21.2654   10.0957   31.8420 C   0  0  0  0  0  0  0  0  0  0  0  0
   18.3613   13.0574   32.9946 C   0  0  0  0  0  0  0  0  0  0  0  0
   19.0473    7.2917   29.3013 C   0  0  0  0  0  0  0  0  0  0  0  0
   18.3417    6.5836   28.3859 C   0  0  0  0  0  0  0  0  0  0  0  0
   23.1012   10.8760   34.7079 C   0  0  0  0  0  0  0  0  0  0  0  0
   23.9754    8.6787   34.2228 C   0  0  0  0  0  0  0  0  0  0  0  0
   19.2603    7.9392   26.6333 C   0  0  0  0  0  0  0  0  0  0  0  0
   29.5360    9.6285   34.8444 C   0  0  0  0  0  0  0  0  0  0  0  0
   28.2569   11.6059   35.4533 C   0  0  0  0  0  0  0  0  0  0  0  0
   30.0381    8.4044   34.8112 N   0  0  0  0  0  0  0  0  0  0  0  0
   18.9701   14.2681   33.3007 C   0  0  0  0  0  0  0  0  0  0  0  0
   17.6187    6.1775   26.0403 C   0  0  0  0  0  0  0  0  0  0  0  0
   18.9714    8.8355   31.8160 C   0  0  0  0  0  0  0  0  0  0  0  0
   19.9869    8.6305   27.5447 C   0  0  0  0  0  0  0  0  0  0  0  0
   20.3080   14.2591   33.6417 C   0  0  0  0  0  0  0  0  0  0  0  0
   20.7071    8.9977   29.8744 C   0  0  0  0  0  0  0  0  0  0  0  0
   20.4223   11.8625   33.3486 C   0  0  0  0  0  0  0  0  0  0  0  0
   27.0808   12.3199   35.7309 C   0  0  0  0  0  0  0  0  0  0  0  0
   21.9500    9.5947   29.6914 C   0  0  0  0  0  0  0  0  0  0  0  0
   21.0248   13.0705   33.6737 C   0  0  0  0  0  0  0  0  0  0  0  0
   28.2318   10.2333   35.1374 C   0  0  0  0  0  0  0  0  0  0  0  0
   18.4364    6.9285   27.0425 C   0  0  0  0  0  0  0  0  0  0  0  0
   22.3215   10.2591   30.9322 C   0  0  0  0  0  0  0  0  0  0  0  0
   23.0619    7.7451   34.4937 O   0  0  0  0  0  0  0  0  0  0  0  0
  1 13  1  0
  1 25  1  0
  1 28  2  0
  2 14  1  0
  3  8  1  0
  4  9  2  0
  4 33  1  0
  5 18  2  0
  6 15  1  0
  6 26  1  0
  6 28  1  0
  7 11  1  0
  7 17  1  0
  8  9  1  0
  8 17  1  0
  8 18  1  0
  9 12  1  0
 10 14  2  0
 10 29  1  0
 11 13  1  0
 11 29  1  0
 12 30  2  0
 13 35  1  0
 14 23  1  0
 15 16  2  0
 16 34  1  0
 18 36  1  0
 19 26  2  0
 19 34  1  0
 20 22  2  0
 20 33  1  0
 21 30  1  0
 21 33  2  0
 23 27  2  0
 24 34  1  0
 27 32  1  0
 28 31  1  0
 29 32  2  0
 31 35  1  0
M  END
>  <ID>  (1) 
conformer_0

$$$$
