
     RDKit          3D

 28 29  0  0  0  0  0  0  0  0999 V2000
   20.4400    8.0979   31.3799 C   0  0  0  0  0  0  0  0  0  0  0  0
   23.9686    8.0188   34.1882 C   0  0  0  0  0  0  0  0  0  0  0  0
   18.0198    7.5779   25.8573 C   0  0  0  0  0  0  0  0  0  0  0  0
   23.3497    9.9455   32.8237 C   0  0  0  0  0  0  0  0  0  0  0  0
   18.3395    6.3202   26.4884 C   0  0  0  0  0  0  0  0  0  0  0  0
   21.2791   11.2127   33.3094 O   0  0  0  0  0  0  0  0  0  0  0  0
   20.4460    8.3041   26.6660 O   0  0  0  0  0  0  0  0  0  0  0  0
   24.3576   10.1947   35.2607 N   0  0  0  0  0  0  0  0  0  0  0  0
   21.2398   10.0678   30.4416 C   0  0  0  0  0  0  0  0  0  0  0  0
   28.0596    9.8787   34.9824 C   0  0  0  0  0  0  0  0  0  0  0  0
   26.7231    9.6137   34.9176 C   0  0  0  0  0  0  0  0  0  0  0  0
   23.0895    7.4701   35.1841 O   0  0  0  0  0  0  0  0  0  0  0  0
   23.9979    9.4863   34.1004 C   0  0  0  0  0  0  0  0  0  0  0  0
   29.0114    8.9137   34.6113 O   0  0  0  0  0  0  0  0  0  0  0  0
   21.2273    8.8931   34.0018 O   0  0  0  0  0  0  0  0  0  0  0  0
   28.4431   11.1276   35.5136 C   0  0  0  0  0  0  0  0  0  0  0  0
   18.2769    7.5659   27.4155 C   0  0  0  0  0  0  0  0  0  0  0  0
   21.1199    9.3044   31.5526 C   0  0  0  0  0  0  0  0  0  0  0  0
   20.7094    9.7111   29.1723 C   0  0  0  0  0  0  0  0  0  0  0  0
   29.8558   11.5569   35.5723 C   0  0  0  0  0  0  0  0  0  0  0  0
   21.7353    9.7802   32.9624 C   0  0  0  0  0  0  0  0  0  0  0  0
   19.8614    7.7217   30.1349 C   0  0  0  0  0  0  0  0  0  0  0  0
   20.0565    8.5073   29.0125 C   0  0  0  0  0  0  0  0  0  0  0  0
   25.7722   10.5001   35.3951 C   0  0  0  0  0  0  0  0  0  0  0  0
   26.1391   11.7116   35.9626 C   0  0  0  0  0  0  0  0  0  0  0  0
   30.3505    9.2066   34.3050 C   0  0  0  0  0  0  0  0  0  0  0  0
   19.5978    8.0828   27.7101 C   0  0  0  0  0  0  0  0  0  0  0  0
   27.4748   12.0413   35.9791 C   0  0  0  0  0  0  0  0  0  0  0  0
  1 18  1  0
  1 22  1  0
  2 12  1  0
  2 13  1  0
  3  5  1  0
  4 13  1  0
  4 21  1  0
  5 17  1  0
  6 21  1  0
  7 27  1  0
  8 13  1  0
  8 24  1  0
  9 18  2  0
  9 19  1  0
 10 11  2  0
 10 14  1  0
 10 16  1  0
 11 24  1  0
 14 26  1  0
 15 21  1  0
 16 20  1  0
 16 28  1  0
 17 27  1  0
 18 21  1  0
 19 23  1  0
 22 23  2  0
 23 27  1  0
 24 25  1  0
 25 28  2  0
M  END
>  <ID>  (1) 
conformer_0

$$$$
