
     RDKit          3D

 31 33  0  0  0  0  0  0  0  0999 V2000
   27.4141   10.9174   35.1409 C   0  0  0  0  0  0  0  0  0  0  0  0
   17.4638    7.4268   24.1013 C   0  0  0  0  0  0  0  0  0  0  0  0
   16.7815    7.4648   25.3245 C   0  0  0  0  0  0  0  0  0  0  0  0
   30.0566   11.4149   35.7448 C   0  0  0  0  0  0  0  0  0  0  0  0
   20.0843    8.1278   29.9550 C   0  0  0  0  0  0  0  0  0  0  0  0
   27.7834   12.2036   35.6130 C   0  0  0  0  0  0  0  0  0  0  0  0
   23.4739   10.1563   33.0803 C   0  0  0  0  0  0  0  0  0  0  0  0
   21.6591    9.5849   31.1952 N   0  0  0  0  0  0  0  0  0  0  0  0
   20.1405    7.1818   30.8751 O   0  0  0  0  0  0  0  0  0  0  0  0
   20.8161    9.3800   30.1621 C   0  0  0  0  0  0  0  0  0  0  0  0
   29.1012   12.3815   35.9752 C   0  0  0  0  0  0  0  0  0  0  0  0
   21.2301    8.9902   33.5055 O   0  0  0  0  0  1  0  0  0  0  0  0
   21.2882   11.4247   32.8170 O   0  0  0  0  0  1  0  0  0  0  0  0
   18.6538    6.7242   28.5284 O   0  0  0  0  0  0  0  0  0  0  0  0
   17.6232    7.6250   26.5264 C   0  0  0  0  0  0  0  0  0  0  0  0
   26.1010   10.6664   34.7265 C   0  0  0  0  0  0  0  0  0  0  0  0
   24.1688    9.3204   35.2027 C   0  0  0  0  0  0  0  0  0  0  0  0
   29.6950   10.1940   35.2154 C   0  0  0  0  0  0  0  0  0  0  0  0
   25.5490    9.4716   35.2482 N   0  0  0  0  0  0  0  0  0  0  0  0
   17.8168    6.5706   27.3825 C   0  0  0  0  0  0  0  0  0  0  0  0
   19.0969    8.9673   27.9054 C   0  0  0  0  0  0  0  0  0  0  0  0
   28.3630    9.9406   35.1039 N   0  0  0  0  0  0  0  0  0  0  0  0
   23.4757    8.2868   35.5514 O   0  0  0  0  0  0  0  0  0  0  0  0
   23.5792   10.4152   34.4874 C   0  0  0  0  0  0  0  0  0  0  0  0
   23.0843   11.5291   35.3379 C   0  0  0  0  0  0  0  0  0  0  0  0
   19.2731    7.9374   28.8107 C   0  0  0  0  0  0  0  0  0  0  0  0
   18.2908    8.8157   26.7876 C   0  0  0  0  0  0  0  0  0  0  0  0
   19.7837   10.1842   28.1192 C   0  0  0  0  0  0  0  0  0  0  0  0
   21.8446   10.0432   32.6576 S   0  0  0  0  0  4  0  0  0  0  0  0
   15.5122    7.2314   25.5112 O   0  0  0  0  0  0  0  0  0  0  0  0
   20.6393   10.3586   29.2122 C   0  0  0  0  0  0  0  0  0  0  0  0
  1  6  2  0
  1 16  1  0
  1 22  1  0
  2  3  1  0
  3 15  1  0
  3 30  1  0
  4 11  2  0
  4 18  1  0
  5  9  1  0
  5 10  1  0
  5 26  2  0
  6 11  1  0
  7 24  1  0
  7 29  1  0
  8 10  1  0
  8 29  1  0
 10 31  2  0
 12 29  1  0
 13 29  1  0
 14 20  1  0
 14 26  1  0
 15 20  2  0
 15 27  1  0
 16 19  1  0
 17 19  1  0
 17 23  2  0
 17 24  1  0
 18 22  2  0
 21 26  1  0
 21 27  2  0
 21 28  1  0
 24 25  1  0
 28 31  1  0
M  END
>  <ID>  (1) 
conformer_0

$$$$
