
     RDKit          3D

 36 39  0  0  0  0  0  0  0  0999 V2000
   19.4019    8.4144   30.5947 O   0  0  0  0  0  0  0  0  0  0  0  0
   22.1268    8.7328   28.5920 N   0  0  0  0  0  0  0  0  0  0  0  0
   27.1827   11.4028   35.0545 C   0  0  0  0  0  0  0  0  0  0  0  0
   29.7826    8.2108   35.1085 N   0  0  0  0  0  0  0  0  0  0  0  0
   23.1231    8.5772   27.5224 C   0  0  0  0  0  0  0  0  0  0  0  0
   23.4788    8.9656   33.4369 O   0  0  0  0  0  0  0  0  0  0  0  0
   25.1791   10.0795   34.7035 N   0  0  0  0  0  0  0  0  0  0  0  0
   16.9109   10.0356   31.7118 C   0  0  0  0  0  0  0  0  0  0  0  0
   19.8363    9.3093   31.6274 C   0  0  0  0  0  0  0  0  0  0  0  0
   18.3352    7.6235   27.3412 C   0  0  0  0  0  0  0  0  0  0  0  0
   28.8914    9.2690   35.0546 C   0  0  0  0  0  0  0  0  0  0  0  0
   16.9789    7.3806   26.9507 N   0  0  0  0  0  0  0  0  0  0  0  0
   29.4197   10.5190   35.2025 C   0  0  0  0  0  0  0  0  0  0  0  0
   24.7857    9.4154   33.4882 C   0  0  0  0  0  0  0  0  0  0  0  0
   19.3962    7.5327   26.3646 C   0  0  0  0  0  0  0  0  0  0  0  0
   23.6189   11.4422   35.8933 O   0  0  0  0  0  0  0  0  0  0  0  0
   19.8006    8.0772   29.2591 C   0  0  0  0  0  0  0  0  0  0  0  0
   20.8061    8.4076   28.2244 C   0  0  0  0  0  0  0  0  0  0  0  0
   22.5575    9.1934   29.8246 C   0  0  0  0  0  0  0  0  0  0  0  0
   27.5133    9.0548   34.8790 C   0  0  0  0  0  0  0  0  0  0  0  0
   26.6302   10.1628   34.8986 C   0  0  0  0  0  0  0  0  0  0  0  0
   28.5652   11.5834   35.2245 C   0  0  0  0  0  0  0  0  0  0  0  0
   17.9507   10.6795   32.3902 N   0  0  0  0  0  0  0  0  0  0  0  0
   19.2471   10.3615   32.3841 C   0  0  0  0  0  0  0  0  0  0  0  0
   16.5561    8.6415   32.1972 C   0  0  0  0  0  0  0  0  0  0  0  0
   21.5782   10.2758   32.8197 C   0  0  0  0  0  0  0  0  0  0  0  0
   16.8143    6.3081   26.0457 O   0  0  0  0  0  0  0  0  0  0  0  0
   21.2171    9.3040   31.8724 C   0  0  0  0  0  0  0  0  0  0  0  0
   20.6806    8.0225   26.8255 C   0  0  0  0  0  0  0  0  0  0  0  0
   20.2994   12.1538   33.6872 O   0  0  0  0  0  0  0  0  0  0  0  0
   20.3475   11.0164   33.0489 C   0  0  0  0  0  0  0  0  0  0  0  0
   22.9429   10.2697   33.3227 C   0  0  0  0  0  0  0  0  0  0  0  0
   23.6633    9.2347   36.3832 O   0  0  0  0  0  0  0  0  0  0  0  0
   22.1079    8.6007   31.0067 C   0  0  0  0  0  0  0  0  0  0  0  0
   24.1170   10.2581   35.7128 C   0  0  0  0  0  0  0  0  0  0  0  0
   18.7102    7.2725   28.6932 C   0  0  0  0  0  0  0  0  0  0  0  0
  1  9  1  0
  1 17  1  0
  2  5  1  0
  2 18  1  0
  2 19  1  0
  3 21  2  0
  3 22  1  0
  4 11  1  0
  6 14  1  0
  6 32  1  0
  7 14  1  0
  7 21  1  0
  7 35  1  0
  8 23  1  0
  8 25  1  0
  9 24  1  0
  9 28  2  0
 10 12  1  0
 10 15  1  0
 10 36  1  0
 11 13  1  0
 11 20  2  0
 12 27  1  0
 13 22  2  0
 15 29  1  0
 16 35  2  0
 17 18  1  0
 17 36  1  0
 18 29  2  0
 19 34  1  0
 20 21  1  0
 23 24  1  0
 24 31  2  0
 26 28  1  0
 26 31  1  0
 26 32  1  0
 28 34  1  0
 30 31  1  0
 33 35  1  0
M  END
>  <ID>  (1) 
conformer_0

$$$$
