
     RDKit          3D

 42 45  0  0  0  0  0  0  0  0999 V2000
   22.7998   11.0263   34.7319 C   0  0  0  0  0  0  0  0  0  0  0  0
   20.5104    8.9216   30.2317 C   0  0  0  0  0  0  0  0  0  0  0  0
   27.5797   12.5794   35.6667 O   0  0  0  0  0  0  0  0  0  0  0  0
   23.9369    9.9554   35.0311 C   0  0  0  0  0  0  0  0  0  0  0  0
   18.7068    7.6358   29.1453 C   0  0  0  0  0  0  0  0  0  0  0  0
   29.2119    9.5417   35.0035 C   0  0  0  0  0  0  0  0  0  0  0  0
   21.6211    7.6880   25.7896 O   0  0  0  0  0  0  0  0  0  0  0  0
   17.1963   12.5438   33.9129 N   0  0  0  0  0  0  0  0  0  0  0  0
   17.9624   10.9398   30.0064 C   0  0  0  0  0  0  0  0  0  0  0  0
   28.9739   10.8461   35.2744 N   0  0  0  0  0  0  0  0  0  0  0  0
   28.1811    8.6700   34.8627 N   0  0  0  0  0  0  0  0  0  0  0  0
   18.2586   11.1088   32.3746 C   0  0  0  0  0  0  0  0  0  0  0  0
   17.9530    7.2265   28.1152 C   0  0  0  0  0  0  0  0  0  0  0  0
   16.5173    6.1393   25.5223 N   0  0  0  0  0  0  0  0  0  0  0  0
   18.1232    7.3659   26.7592 C   0  0  0  0  0  0  0  0  0  0  0  0
   17.1408   13.2375   31.6941 C   0  0  0  0  0  0  0  0  0  0  0  0
   21.8448    9.2137   29.7432 C   0  0  0  0  0  0  0  0  0  0  0  0
   17.0471   13.1764   30.3403 C   0  0  0  0  0  0  0  0  0  0  0  0
   21.9867    8.8442   28.3752 C   0  0  0  0  0  0  0  0  0  0  0  0
   19.5680    9.4689   31.0730 C   0  0  0  0  0  0  0  0  0  0  0  0
   22.5896    9.3687   32.7754 C   0  0  0  0  0  0  0  0  0  0  0  0
   19.9309    8.2114   29.0692 C   0  0  0  0  0  0  0  0  0  0  0  0
   22.9420    7.9657   25.9186 C   0  0  0  0  0  0  0  0  0  0  0  0
   24.2475    7.8989   33.5403 O   0  0  0  0  0  0  0  0  0  0  0  0
   27.6987   11.3513   35.4196 C   0  0  0  0  0  0  0  0  0  0  0  0
   22.2371    7.9361   34.7467 O   0  0  0  0  0  0  0  0  0  0  0  0
   20.3990    8.9864   31.5867 N   0  0  0  0  0  0  0  0  0  0  0  0
   20.5688    7.7820   26.6401 C   0  0  0  0  0  0  0  0  0  0  0  0
   21.2499    9.0699   32.5392 C   0  0  0  0  0  0  0  0  0  0  0  0
   17.5610   12.2703   32.5448 C   0  0  0  0  0  0  0  0  0  0  0  0
   18.5840   10.4660   31.2110 C   0  0  0  0  0  0  0  0  0  0  0  0
   30.4784    9.1347   34.8404 N   0  0  0  0  0  0  0  0  0  0  0  0
   24.8332   12.1728   35.9965 C   0  0  0  0  0  0  0  0  0  0  0  0
   23.7797    9.3255   36.3879 O   0  0  0  0  0  0  0  0  0  0  0  0
   16.8371    7.4209   26.0177 C   0  0  0  0  0  0  0  0  0  0  0  0
   17.4053   12.0408   29.6445 C   0  0  0  0  0  0  0  0  0  0  0  0
   26.5857   10.4705   35.2549 C   0  0  0  0  0  0  0  0  0  0  0  0
   26.9301    9.1830   34.9748 N   0  0  0  0  0  0  0  0  0  0  0  0
   19.3384    7.4529   26.1258 C   0  0  0  0  0  0  0  0  0  0  0  0
   25.1856   10.9560   35.3057 C   0  0  0  0  0  0  0  0  0  0  0  0
   23.2034    8.6280   34.0641 C   0  0  0  0  0  0  0  0  0  0  0  0
   20.7773    8.2125   27.9382 C   0  0  0  0  0  0  0  0  0  0  0  0
  1  4  1  0
  2 17  1  0
  2 20  1  0
  2 22  1  0
  3 25  2  0
  4 34  1  0
  4 40  1  0
  4 41  1  0
  5 13  2  0
  5 22  1  0
  6 10  1  0
  6 11  1  0
  6 32  2  0
  7 23  1  0
  7 28  1  0
  8 30  1  0
  9 31  1  0
  9 36  2  0
 10 25  1  0
 11 38  1  0
 12 30  2  0
 12 31  1  0
 13 15  1  0
 14 35  1  0
 15 35  1  0
 15 39  1  0
 16 18  2  0
 16 30  1  0
 17 19  1  0
 18 36  1  0
 19 42  1  0
 20 27  1  0
 20 31  1  0
 21 29  1  0
 21 41  1  0
 22 42  2  0
 24 41  1  0
 25 37  1  0
 26 41  1  0
 27 29  1  0
 28 39  2  0
 28 42  1  0
 33 40  1  0
 37 38  2  0
 37 40  1  0
M  END
>  <ID>  (1) 
conformer_0

$$$$
