
     RDKit          3D

 33 37  0  0  0  0  0  0  0  0999 V2000
   22.0837    8.8940   29.7225 O   0  0  0  0  0  0  0  0  0  0  0  0
   29.5987    8.6769   35.0018 C   0  0  0  0  0  0  0  0  0  0  0  0
   21.5399    8.6272   33.5887 C   0  0  0  0  0  0  0  0  0  0  0  0
   19.5790    7.9077   29.6246 C   0  0  0  0  0  0  0  0  0  0  0  0
   20.5014    8.1275   34.2287 O   0  0  0  0  0  0  0  0  0  0  0  0
   28.4457    9.6068   35.0719 C   0  0  0  0  0  0  0  0  0  0  0  0
   23.2611    7.5187   34.7514 O   0  0  0  0  0  0  0  0  0  0  0  0
   18.0515   12.5487   33.2787 C   0  0  0  0  0  0  0  0  0  0  0  0
   19.6999   10.9336   32.6106 C   0  0  0  0  0  0  0  0  0  0  0  0
   23.5650    9.8571   34.6164 C   0  0  0  0  0  0  0  0  0  0  0  0
   27.6341   11.8253   35.2482 C   0  0  0  0  0  0  0  0  0  0  0  0
   19.0657   13.4938   33.4614 C   0  0  0  0  0  0  0  0  0  0  0  0
   23.6660    8.7635   27.3202 O   0  0  0  0  0  0  0  0  0  0  0  0
   27.1658    9.1028   35.1353 C   0  0  0  0  0  0  0  0  0  0  0  0
   24.6388    9.6323   35.5681 C   0  0  0  0  0  0  0  0  0  0  0  0
   21.6796    8.4073   28.4408 C   0  0  0  0  0  0  0  0  0  0  0  0
   20.3857    7.9343   28.3826 C   0  0  0  0  0  0  0  0  0  0  0  0
   21.4930    9.2705   32.3429 N   0  0  0  0  0  0  0  0  0  0  0  0
   20.7057   11.9077   32.8136 C   0  0  0  0  0  0  0  0  0  0  0  0
   18.3788   11.2797   32.8815 C   0  0  0  0  0  0  0  0  0  0  0  0
   22.8330    8.6583   34.3204 C   0  0  0  0  0  0  0  0  0  0  0  0
   20.6641    7.4195   26.0406 C   0  0  0  0  0  0  0  0  0  0  0  0
   19.9082    7.4586   27.1784 C   0  0  0  0  0  0  0  0  0  0  0  0
   18.5930    6.9886   27.1401 C   0  0  0  0  0  0  0  0  0  0  0  0
   21.9559    7.8390   26.0824 C   0  0  0  0  0  0  0  0  0  0  0  0
   20.0374    8.4472   30.8963 C   0  0  0  0  0  0  0  0  0  0  0  0
   28.7167   10.9558   35.1106 C   0  0  0  0  0  0  0  0  0  0  0  0
   19.9601    9.5292   32.0882 C   0  0  0  0  0  0  0  0  0  0  0  0
   22.4568    8.3286   27.2824 C   0  0  0  0  0  0  0  0  0  0  0  0
   20.3772   13.1818   33.2294 C   0  0  0  0  0  0  0  0  0  0  0  0
   21.5775    8.5443   30.9738 C   0  0  0  0  0  0  0  0  0  0  0  0
   26.0479   10.0584   35.3012 C   0  0  0  0  0  0  0  0  0  0  0  0
   26.3513   11.3860   35.3456 C   0  0  0  0  0  0  0  0  0  0  0  0
  1 16  1  0
  1 31  1  0
  2  6  1  0
  3  5  2  0
  3 18  1  0
  3 21  1  0
  4 17  1  0
  4 26  1  0
  6 14  2  0
  6 27  1  0
  7 21  1  0
  8 12  2  0
  8 20  1  0
  9 19  1  0
  9 20  2  0
  9 28  1  0
 10 15  1  0
 10 21  1  0
 11 27  2  0
 11 33  1  0
 12 30  1  0
 13 29  1  0
 14 32  1  0
 15 32  1  0
 16 17  2  0
 16 29  1  0
 17 23  1  0
 18 28  1  0
 18 31  1  0
 19 30  2  0
 22 23  2  0
 22 25  1  0
 23 24  1  0
 25 29  2  0
 26 28  1  0
 26 31  1  0
 32 33  2  0
M  END
>  <ID>  (1) 
conformer_0

$$$$
