
     RDKit          3D

 30 32  0  0  0  0  0  0  0  0999 V2000
   20.5915    7.8110   26.3171 N   0  0  0  0  0  0  0  0  0  0  0  0
   30.2839    9.1529   34.7011 N   0  0  0  0  0  0  0  0  0  0  0  0
   25.4780   10.2198   35.2873 C   0  0  0  0  0  0  0  0  0  0  0  0
   19.8708   10.4250   31.7443 C   0  0  0  0  0  0  0  0  0  0  0  0
   23.0279    7.5720   34.6696 O   0  0  0  0  0  0  0  0  0  0  0  0
   21.9097    8.6889   28.1307 C   0  0  0  0  0  0  0  0  0  0  0  0
   29.2610    9.9952   34.9942 C   0  0  0  0  0  0  0  0  0  0  0  0
   21.8451    9.7586   33.1574 C   0  0  0  0  0  0  0  0  0  0  0  0
   23.0489    8.4206   27.3777 C   0  0  0  0  0  0  0  0  0  0  0  0
   20.6991    8.4079   27.5561 C   0  0  0  0  0  0  0  0  0  0  0  0
   21.0569   11.9924   33.4546 C   0  0  0  0  0  0  0  0  0  0  0  0
   27.9050    9.4068   34.8743 C   0  0  0  0  0  0  0  0  0  0  0  0
   22.9498    7.8641   26.1117 C   0  0  0  0  0  0  0  0  0  0  0  0
   24.9717    8.9492   34.7994 N   0  0  0  0  0  0  0  0  0  0  0  0
   19.6278    8.8008   28.3502 O   0  0  0  0  0  0  0  0  0  0  0  0
   23.5934    8.7192   34.5395 C   0  0  0  0  0  0  0  0  0  0  0  0
   17.5141    7.2846   30.7440 O   0  0  0  0  0  0  0  0  0  0  0  0
   22.0361   12.1708   34.4513 C   0  0  0  0  0  0  0  0  0  0  0  0
   21.7195    7.5398   25.6304 C   0  0  0  0  0  0  0  0  0  0  0  0
   22.8832   11.1272   34.8228 C   0  0  0  0  0  0  0  0  0  0  0  0
   29.4314   11.2010   35.3045 O   0  0  0  0  0  0  0  0  0  0  0  0
   26.8563   10.4901   34.7104 C   0  0  0  0  0  0  0  0  0  0  0  0
   19.7634    7.9904   30.6883 C   0  0  0  0  0  0  0  0  0  0  0  0
   21.6965    9.1878   29.4748 C   0  0  0  0  0  0  0  0  0  0  0  0
   18.9755    6.3143   29.2653 O   0  0  0  0  0  0  0  0  0  0  0  0
   19.3739    8.9011   31.9096 C   0  0  0  0  0  0  0  0  0  0  0  0
   18.6225    7.1328   30.1562 C   0  0  0  0  0  0  0  0  0  0  0  0
   20.9286   10.7316   32.7967 C   0  0  0  0  0  0  0  0  0  0  0  0
   20.2115    8.9931   29.6625 N   0  0  0  0  0  0  0  0  0  0  0  0
   22.7669    9.8702   34.1444 C   0  0  0  0  0  0  0  0  0  0  0  0
  1 10  2  0
  1 19  1  0
  2  7  1  0
  3 14  1  0
  3 22  1  0
  4 26  1  0
  4 28  1  0
  5 16  2  0
  6  9  2  0
  6 10  1  0
  6 24  1  0
  7 12  1  0
  7 21  2  0
  8 28  2  0
  8 30  1  0
  9 13  1  0
 10 15  1  0
 11 18  2  0
 11 28  1  0
 12 22  1  0
 13 19  2  0
 14 16  1  0
 15 29  1  0
 16 30  1  0
 17 27  2  0
 18 20  1  0
 20 30  2  0
 23 26  1  0
 23 27  1  0
 23 29  1  0
 24 29  1  0
 25 27  1  0
M  END
>  <ID>  (1) 
conformer_0

$$$$
