
     RDKit          3D

 34 35  0  0  0  0  0  0  0  0999 V2000
   22.3159    8.4900   34.4323 C   0  0  0  0  0  0  0  0  0  0  0  0
   19.7005    7.9668   26.9841 C   0  0  0  0  0  0  0  0  0  0  0  0
   28.3007   12.1793   35.5332 C   0  0  0  0  0  0  0  0  0  0  0  0
   21.9578    8.2221   33.0400 C   0  0  0  0  0  0  0  0  0  0  0  0
   29.4998    9.5715   35.0391 C   0  0  0  0  0  0  0  0  0  0  0  0
   30.2804   10.6265   35.4868 N   0  0  0  0  0  0  0  0  0  0  0  0
   21.2524    9.0947   28.6173 C   0  0  0  0  0  0  0  0  0  0  0  0
   19.2461    8.3659   29.6258 C   0  0  0  0  0  0  0  0  0  0  0  0
   21.3920    9.4155   32.3646 C   0  0  0  0  0  0  0  0  0  0  0  0
   24.0476    9.8341   35.6352 C   0  0  0  0  0  0  0  0  0  0  0  0
   23.2668   10.6612   33.5599 O   0  0  0  0  0  0  0  0  0  0  0  0
   18.4279    7.1124   26.9326 C   0  0  0  0  0  0  0  0  0  0  0  0
   19.3145    8.4893   32.8441 O   0  0  0  0  0  0  0  0  0  0  0  0
   20.1351    8.0428   30.6930 O   0  0  0  0  0  0  0  0  0  0  0  0
   22.9550    7.3987   34.9709 O   0  0  0  0  0  0  0  0  0  0  0  0
   24.8103   11.0656   35.6260 C   0  0  0  0  0  0  0  0  0  0  0  0
   26.9698   12.2041   35.4451 N   0  0  0  0  0  0  0  0  0  0  0  0
   28.2027    9.7417   34.9594 N   0  0  0  0  0  0  0  0  0  0  0  0
   18.1793    8.9411   29.9515 O   0  0  0  0  0  0  0  0  0  0  0  0
   22.9916    9.8336   34.5523 C   0  0  0  0  0  0  0  0  0  0  0  0
   22.2604    9.5978   31.1058 C   0  0  0  0  0  0  0  0  0  0  0  0
   30.1094    8.4165   34.7945 N   0  0  0  0  0  0  0  0  0  0  0  0
   18.1297    6.6164   25.5228 C   0  0  0  0  0  0  0  0  0  0  0  0
   24.1977   12.1751   36.1168 O   0  0  0  0  0  0  0  0  0  0  0  0
   22.3791    8.6364   27.7281 C   0  0  0  0  0  0  0  0  0  0  0  0
   17.1717    7.8340   27.4069 C   0  0  0  0  0  0  0  0  0  0  0  0
   26.1987   11.1155   35.2050 C   0  0  0  0  0  0  0  0  0  0  0  0
   23.6621    9.1776   36.7267 O   0  0  0  0  0  0  0  0  0  0  0  0
   29.6140   11.8211   35.7201 C   0  0  0  0  0  0  0  0  0  0  0  0
   21.5186    9.9264   29.8169 C   0  0  0  0  0  0  0  0  0  0  0  0
   26.2087    8.7995   34.2785 C   0  0  0  0  0  0  0  0  0  0  0  0
   26.8999    9.9252   34.8293 C   0  0  0  0  0  0  0  0  0  0  0  0
   20.0965    8.8157   31.8716 C   0  0  0  0  0  0  0  0  0  0  0  0
   19.8757    8.7151   28.2953 C   0  0  0  0  0  0  0  0  0  0  0  0
  1  4  1  0
  1 15  1  0
  1 20  1  0
  2 12  1  0
  2 34  1  0
  3 17  1  0
  3 29  1  0
  4  9  1  0
  5  6  1  0
  5 18  1  0
  5 22  2  0
  6 29  2  0
  7 25  1  0
  7 30  1  0
  7 34  1  0
  8 14  1  0
  8 19  2  0
  8 34  1  0
  9 21  1  0
  9 33  1  0
 10 16  1  0
 10 20  1  0
 10 28  1  0
 11 20  1  0
 12 23  1  0
 12 26  1  0
 13 33  2  0
 14 33  1  0
 16 24  1  0
 16 27  2  3
 17 27  1  0
 18 32  1  0
 21 30  1  0
 27 32  1  0
 31 32  1  0
M  END
>  <ID>  (1) 
conformer_0

$$$$
