
     RDKit          3D

 37 39  0  0  0  0  0  0  0  0999 V2000
   21.1125    8.3240   28.1333 C   0  0  0  0  0  0  0  0  0  0  0  0
   24.1142    9.7479   34.4907 C   0  0  0  0  0  0  0  0  0  0  0  0
   23.3825    9.1449   36.7463 O   0  0  0  0  0  0  0  0  0  0  0  0
   20.8630    9.2545   31.7856 N   0  0  0  0  0  0  0  0  0  0  0  0
   26.5811    9.6698   34.7862 C   0  0  0  0  0  0  0  0  0  0  0  0
   18.4711    9.8687   31.6784 O   0  0  0  0  0  0  0  0  0  0  0  0
   18.5113    7.7625   28.8480 C   0  0  0  0  0  0  0  0  0  0  0  0
   27.7994   11.6878   35.1035 C   0  0  0  0  0  0  0  0  0  0  0  0
   20.2453    7.8001   27.1807 C   0  0  0  0  0  0  0  0  0  0  0  0
   20.7285    8.5783   29.4728 C   0  0  0  0  0  0  0  0  0  0  0  0
   17.9573    7.0372   26.4818 C   0  0  0  0  0  0  0  0  0  0  0  0
   19.7606   10.1307   31.8617 C   0  0  0  0  0  0  0  0  0  0  0  0
   23.1330    7.4446   34.1017 O   0  0  0  0  0  0  0  0  0  0  0  0
   20.1862   13.7962   31.6289 C   0  0  0  0  0  0  0  0  0  0  0  0
   25.3518    9.0578   34.4887 O   0  0  0  0  0  0  0  0  0  0  0  0
   21.5611    9.1752   30.5595 C   0  0  0  0  0  0  0  0  0  0  0  0
   26.6278   11.0180   34.9454 C   0  0  0  0  0  0  0  0  0  0  0  0
   22.6485    8.3063   33.1600 C   0  0  0  0  0  0  0  0  0  0  0  0
   20.6162   14.1269   32.8960 C   0  0  0  0  0  0  0  0  0  0  0  0
   20.4865   11.8327   33.4959 C   0  0  0  0  0  0  0  0  0  0  0  0
   27.7857    8.9087   34.8287 C   0  0  0  0  0  0  0  0  0  0  0  0
   20.2174    8.2018   33.7090 O   0  0  0  0  0  0  0  0  0  0  0  0
   28.9968   10.9854   35.1459 C   0  0  0  0  0  0  0  0  0  0  0  0
   19.4447    8.2449   29.7517 C   0  0  0  0  0  0  0  0  0  0  0  0
   22.7262    8.6180   27.5476 Cl  0  0  0  0  0  0  0  0  0  0  0  0
   30.1282    8.9076   34.9978 N   0  0  0  0  0  0  0  0  0  0  0  0
   18.1737    5.6454   25.9346 C   0  0  0  0  0  0  0  0  0  0  0  0
   19.8949   12.5267   31.2841 N   0  0  0  0  0  0  0  0  0  0  0  0
   16.5305    7.4132   26.6084 C   0  0  0  0  0  0  0  0  0  0  0  0
   20.0474   11.5395   32.2423 C   0  0  0  0  0  0  0  0  0  0  0  0
   23.3300    9.6440   33.2775 C   0  0  0  0  0  0  0  0  0  0  0  0
   18.9343    7.5174   27.5177 C   0  0  0  0  0  0  0  0  0  0  0  0
   20.7954   13.1203   33.8251 C   0  0  0  0  0  0  0  0  0  0  0  0
   22.6162    9.8077   30.4763 O   0  0  0  0  0  0  0  0  0  0  0  0
   28.9776    9.6136   34.9955 C   0  0  0  0  0  0  0  0  0  0  0  0
   23.7061   10.2240   35.8265 C   0  0  0  0  0  0  0  0  0  0  0  0
   21.1896    8.4252   32.8664 C   0  0  0  0  0  0  0  0  0  0  0  0
  1  9  1  0
  1 10  1  0
  1 25  1  0
  2 15  1  0
  2 31  1  0
  2 36  1  0
  3 36  1  0
  4 12  1  0
  4 16  1  0
  4 37  1  0
  5 15  1  0
  5 17  2  0
  5 21  1  0
  6 12  2  0
  7 24  1  0
  7 32  1  0
  8 17  1  0
  8 23  1  0
  9 32  2  0
 10 16  1  0
 10 24  2  0
 11 27  1  0
 11 29  1  0
 11 32  1  0
 12 30  1  0
 13 18  1  0
 14 19  2  0
 14 28  1  0
 16 34  2  0
 18 31  1  0
 18 37  1  0
 19 33  1  0
 20 30  1  0
 20 33  2  0
 21 35  1  0
 22 37  2  0
 23 35  2  0
 26 35  1  0
 28 30  2  0
M  END
>  <ID>  (1) 
conformer_0

$$$$
