
     RDKit          3D

 36 38  0  0  0  0  0  0  0  0999 V2000
   23.9879    8.9033   33.2030 C   0  0  0  0  0  0  0  0  0  0  0  0
   17.1364    9.0683   32.2142 C   0  0  0  0  0  0  0  0  0  0  0  0
   16.2392    8.2235   31.9854 O   0  0  0  0  0  0  0  0  0  0  0  0
   24.2432    8.9888   34.6582 N   0  0  0  0  0  0  0  0  0  0  0  0
   29.1763   12.1228   35.5439 O   0  0  0  0  0  0  0  0  0  0  0  0
   22.3780    7.3010   35.5438 Cl  0  0  0  0  0  0  0  0  0  0  0  0
   19.0727    7.3967   26.9257 C   0  0  0  0  0  0  0  0  0  0  0  0
   22.2846    7.8417   26.0414 C   0  0  0  0  0  0  0  0  0  0  0  0
   21.4535   11.4570   33.4939 C   0  0  0  0  0  0  0  0  0  0  0  0
   19.6701    9.2125   30.9657 C   0  0  0  0  0  0  0  0  0  0  0  0
   19.7556    8.4492   28.7743 C   0  0  0  0  0  0  0  0  0  0  0  0
   19.1973   12.9293   32.9851 C   0  0  0  0  0  0  0  0  0  0  0  0
   18.4110    8.9570   31.5652 N   0  0  0  0  0  0  0  0  0  0  0  0
   21.9671    9.1818   29.3220 C   0  0  0  0  0  0  0  0  0  0  0  0
   26.6502    9.5683   34.7985 C   0  0  0  0  0  0  0  0  0  0  0  0
   29.8881    9.9901   34.9176 C   0  0  0  0  0  0  0  0  0  0  0  0
   18.5259    8.0173   29.0266 N   0  0  0  0  0  0  0  0  0  0  0  0
   26.4925   11.5969   35.7260 C   0  0  0  0  0  0  0  0  0  0  0  0
   20.6183    9.5950   32.0392 C   0  0  0  0  0  0  0  0  0  0  0  0
   22.6046    8.4375   32.8247 C   0  0  0  0  0  0  0  0  0  0  0  0
   21.9529    9.1826   31.8119 C   0  0  0  0  0  0  0  0  0  0  0  0
   19.3396   11.6915   32.4975 C   0  0  0  0  0  0  0  0  0  0  0  0
   18.0761    7.3248   27.9767 C   0  0  0  0  0  0  0  0  0  0  0  0
   20.5111    9.0384   29.7619 N   0  0  0  0  0  0  0  0  0  0  0  0
   20.2324    8.0079   27.4992 C   0  0  0  0  0  0  0  0  0  0  0  0
   25.2988    9.8096   34.9858 C   0  0  0  0  0  0  0  0  0  0  0  0
   23.1456    8.8089   35.4986 C   0  0  0  0  0  0  0  0  0  0  0  0
   20.4515   10.9095   32.7027 C   0  0  0  0  0  0  0  0  0  0  0  0
   27.3949   10.6686   35.2536 C   0  0  0  0  0  0  0  0  0  0  0  0
   20.2317   13.4554   33.8014 C   0  0  0  0  0  0  0  0  0  0  0  0
   29.6686    8.4894   34.9491 C   0  0  0  0  0  0  0  0  0  0  0  0
   21.2180    8.4490   26.7050 O   0  0  0  0  0  0  0  0  0  0  0  0
   25.1572   11.0716   35.5502 C   0  0  0  0  0  0  0  0  0  0  0  0
   21.3593   12.7142   34.0448 C   0  0  0  0  0  0  0  0  0  0  0  0
   28.8061   10.9782   35.1476 C   0  0  0  0  0  0  0  0  0  0  0  0
   16.9445    9.8922   33.1521 O   0  0  0  0  0  0  0  0  0  0  0  0
  1  4  1  0
  1 20  1  0
  2  3  2  0
  2 13  1  0
  2 36  1  0
  4 26  1  0
  4 27  1  0
  5 35  2  0
  6 27  1  0
  7 23  1  0
  7 25  1  0
  8 32  1  0
  9 28  2  0
  9 34  1  0
 10 13  2  3
 10 19  1  0
 10 24  1  0
 11 17  2  0
 11 24  1  0
 11 25  1  0
 12 22  2  0
 12 30  1  0
 14 24  1  0
 15 26  1  0
 15 29  1  0
 16 31  1  0
 16 35  1  0
 17 23  1  0
 18 29  1  0
 18 33  1  0
 19 21  1  0
 19 28  1  0
 20 21  1  0
 22 28  1  0
 25 32  1  0
 26 33  1  0
 29 35  1  0
 30 34  2  0
M  END
>  <ID>  (1) 
conformer_0

$$$$
