
     RDKit          3D

 36 39  0  0  0  0  0  0  0  0999 V2000
   27.3514   11.4215   35.5205 C   0  0  0  0  0  0  0  0  0  0  0  0
   22.9034    8.5412   27.5625 C   0  0  0  0  0  0  0  0  0  0  0  0
   19.3509    7.7988   28.3932 N   0  0  0  0  0  0  0  0  0  0  0  0
   20.0662    8.4517   30.6754 C   0  0  0  0  0  0  0  0  0  0  0  0
   27.4805    9.0971   35.0015 C   0  0  0  0  0  0  0  0  0  0  0  0
   17.2141   11.8030   31.1434 O   0  0  0  0  0  0  0  0  0  0  0  0
   18.8673   12.8307   28.4059 O   0  0  0  0  0  0  0  0  0  0  0  0
   24.1962    9.8690   33.0831 C   0  0  0  0  0  0  0  0  0  0  0  0
   18.7066   10.2881   29.8435 N   0  0  0  0  0  0  0  0  0  0  0  0
   18.0823    7.4299   27.6682 C   0  0  0  0  0  0  0  0  0  0  0  0
   29.8143   11.1910   35.3749 C   0  0  0  0  0  0  0  0  0  0  0  0
   17.6623   11.1520   30.1063 C   0  0  0  0  0  0  0  0  0  0  0  0
   26.7042   10.2467   35.3337 C   0  0  0  0  0  0  0  0  0  0  0  0
   23.1217    8.5603   36.2047 O   0  0  0  0  0  0  0  0  0  0  0  0
   21.2060    8.2313   31.4476 C   0  0  0  0  0  0  0  0  0  0  0  0
   22.9590    9.3623   32.7283 C   0  0  0  0  0  0  0  0  0  0  0  0
   19.4124    7.4097   29.8039 C   0  0  0  0  0  0  0  0  0  0  0  0
   23.3269    8.7362   34.9480 C   0  0  0  0  0  0  0  0  0  0  0  0
   19.5851   10.3029   32.0434 C   0  0  0  0  0  0  0  0  0  0  0  0
   21.7073    8.5932   28.2326 C   0  0  0  0  0  0  0  0  0  0  0  0
   22.4202    8.6305   33.8051 C   0  0  0  0  0  0  0  0  0  0  0  0
   25.2311   10.1864   35.3813 C   0  0  0  0  0  0  0  0  0  0  0  0
   20.6066   10.0164   32.8863 C   0  0  0  0  0  0  0  0  0  0  0  0
   28.8614    8.9620   34.9649 C   0  0  0  0  0  0  0  0  0  0  0  0
   24.5677   11.0761   36.0666 O   0  0  0  0  0  0  0  0  0  0  0  0
   16.9257   11.4113   28.7824 C   0  0  0  0  0  0  0  0  0  0  0  0
   18.0756   11.7162   27.7857 C   0  0  0  0  0  0  0  0  0  0  0  0
   29.8944    9.8109   35.1025 C   0  0  0  0  0  0  0  0  0  0  0  0
   21.5874    9.0847   32.5321 C   0  0  0  0  0  0  0  0  0  0  0  0
   19.4123    9.6935   30.8521 C   0  0  0  0  0  0  0  0  0  0  0  0
   22.9753    7.9811   26.2433 C   0  0  0  0  0  0  0  0  0  0  0  0
   20.6120    7.5800   26.3331 C   0  0  0  0  0  0  0  0  0  0  0  0
   24.5288    9.3094   34.5041 N   0  0  0  0  0  0  0  0  0  0  0  0
   20.5520    8.0066   27.6584 C   0  0  0  0  0  0  0  0  0  0  0  0
   28.6138   11.8377   35.5253 C   0  0  0  0  0  0  0  0  0  0  0  0
   21.8293    7.5126   25.6554 C   0  0  0  0  0  0  0  0  0  0  0  0
  1 13  1  0
  1 35  2  0
  2 20  2  0
  2 31  1  0
  3 10  1  0
  3 17  1  0
  3 34  1  0
  4 15  2  0
  4 17  1  0
  4 30  1  0
  5 13  2  0
  5 24  1  0
  6 12  2  0
  7 27  1  0
  8 16  1  0
  8 33  1  0
  9 12  1  0
  9 30  1  0
 11 28  1  0
 11 35  1  0
 12 26  1  0
 13 22  1  0
 14 18  2  0
 15 29  1  0
 16 21  1  0
 16 29  1  0
 18 21  1  0
 18 33  1  0
 19 23  2  0
 19 30  1  0
 20 34  1  0
 22 25  2  0
 22 33  1  0
 23 29  1  0
 24 28  2  0
 26 27  1  0
 31 36  2  0
 32 34  2  0
 32 36  1  0
M  END
>  <ID>  (1) 
conformer_0

$$$$
