
     RDKit          3D

 30 31  0  0  0  0  0  0  0  0999 V2000
   19.0914    8.3142   27.6573 C   0  0  0  0  0  0  0  0  0  0  0  0
   23.3286    8.9807   34.9576 C   0  0  0  0  0  0  0  0  0  0  0  0
   19.4561   13.1793   31.8493 C   0  0  0  0  0  0  0  0  0  0  0  0
   29.7543   10.2768   35.1115 C   0  0  0  0  0  0  0  0  0  0  0  0
   23.3355    8.9425   33.4917 N   0  0  0  0  0  0  0  0  0  0  0  0
   24.5196    9.7885   35.4275 C   0  0  0  0  0  0  0  0  0  0  0  0
   22.0850    9.2168   32.8528 C   0  0  0  0  0  0  0  0  0  0  0  0
   25.6341    9.4503   34.5557 C   0  0  0  0  0  0  0  0  0  0  0  0
   19.2794    7.2250   30.2399 C   0  0  0  0  0  0  0  0  0  0  0  0
   19.4262   13.9826   30.5340 C   0  0  0  0  0  0  0  0  0  0  0  0
   21.1681   10.2942   30.6510 C   0  0  0  0  0  0  0  0  0  0  0  0
   27.0256    9.7246   34.7849 C   0  0  0  0  0  0  0  0  0  0  0  0
   18.6446    6.5123   29.2244 C   0  0  0  0  0  0  0  0  0  0  0  0
   27.4832   11.0125   34.8820 C   0  0  0  0  0  0  0  0  0  0  0  0
   21.5161   10.3027   33.3671 O   0  0  0  0  0  0  0  0  0  0  0  0
   20.7962    8.9631   30.8544 C   0  0  0  0  0  0  0  0  0  0  0  0
   27.9702    8.6607   34.8816 C   0  0  0  0  0  0  0  0  0  0  0  0
   18.9901    8.8872   26.3903 O   0  0  0  0  0  0  0  0  0  0  0  0
   18.6158    7.0342   27.9293 C   0  0  0  0  0  0  0  0  0  0  0  0
   20.3321   11.3574   30.4729 C   0  0  0  0  0  0  0  0  0  0  0  0
   29.3469    8.9723   35.0504 C   0  0  0  0  0  0  0  0  0  0  0  0
   22.9376    7.8189   35.5148 O   0  0  0  0  0  0  0  0  0  0  0  0
   20.3903   14.7666   30.3008 O   0  0  0  0  0  0  0  0  0  0  0  0
   18.1595    6.2457   26.9022 O   0  0  0  0  0  0  0  0  0  0  0  0
   19.6950    8.9822   28.6635 C   0  0  0  0  0  0  0  0  0  0  0  0
   19.8976    8.4187   29.9045 C   0  0  0  0  0  0  0  0  0  0  0  0
   18.3762   13.8171   29.8184 O   0  0  0  0  0  0  0  0  0  0  0  0
   21.3809    8.2924   31.9565 C   0  0  0  0  0  0  0  0  0  0  0  0
   19.2633   11.7130   31.4219 C   0  0  0  0  0  0  0  0  0  0  0  0
   28.8087   11.3101   35.0323 C   0  0  0  0  0  0  0  0  0  0  0  0
  1 18  1  0
  1 19  2  0
  1 25  1  0
  2  5  1  0
  2  6  1  0
  2 22  2  0
  3 10  1  0
  3 29  1  0
  4 21  2  0
  4 30  1  0
  5  7  1  0
  6  8  1  0
  7 15  2  0
  7 28  1  0
  8 12  1  0
  9 13  2  0
  9 26  1  0
 10 23  2  0
 10 27  1  0
 11 16  1  0
 11 20  1  0
 12 14  1  0
 12 17  2  0
 13 19  1  0
 14 30  2  0
 16 26  1  0
 16 28  1  0
 17 21  1  0
 19 24  1  0
 20 29  1  0
 25 26  2  0
M  END
>  <ID>  (1) 
conformer_0

$$$$
