
     RDKit          3D

 36 40  0  0  0  0  0  0  0  0999 V2000
   20.9291    9.9206   31.2280 C   0  0  0  0  0  0  0  0  0  0  0  0
   27.7710    9.4194   35.0494 C   0  0  0  0  0  0  0  0  0  0  0  0
   18.2509    7.0698   26.5254 C   0  0  0  0  0  0  0  0  0  0  0  0
   23.4069    7.8352   34.6690 O   0  0  0  0  0  0  0  0  0  0  0  0
   18.4435    5.7853   26.2847 F   0  0  0  0  0  0  0  0  0  0  0  0
   21.4527    9.7318   32.5391 C   0  0  0  0  0  0  0  0  0  0  0  0
   22.7600    8.7951   34.2172 C   0  0  0  0  0  0  0  0  0  0  0  0
   17.0367    7.1993   27.0931 F   0  0  0  0  0  0  0  0  0  0  0  0
   20.3951   11.2241   31.0195 C   0  0  0  0  0  0  0  0  0  0  0  0
   30.2269   12.5187   35.8131 F   0  0  0  0  0  0  0  0  0  0  0  0
   29.3999   11.5297   35.6493 C   0  0  0  0  0  0  0  0  0  0  0  0
   19.1743    7.5384   31.1603 F   0  0  0  0  0  0  0  0  0  0  0  0
   21.5553    8.5898   27.6464 C   0  0  0  0  0  0  0  0  0  0  0  0
   29.9842   10.3498   35.3146 C   0  0  0  0  0  0  0  0  0  0  0  0
   25.7817   10.8609   35.6521 C   0  0  0  0  0  0  0  0  0  0  0  0
   20.8566    9.0232   30.0500 C   0  0  0  0  0  0  0  0  0  0  0  0
   20.5410   12.1995   31.9927 C   0  0  0  0  0  0  0  0  0  0  0  0
   29.8291    8.1704   34.7350 F   0  0  0  0  0  0  0  0  0  0  0  0
   19.1299    7.6787   28.7454 C   0  0  0  0  0  0  0  0  0  0  0  0
   21.7828    8.4964   33.1897 N   0  0  0  0  0  0  0  0  0  0  0  0
   24.8033    9.9795   35.5135 N   0  0  0  0  0  0  0  0  0  0  0  0
   25.2203   12.0351   35.9460 N   0  0  0  0  0  0  0  0  0  0  0  0
   28.0498   11.7018   35.7312 C   0  0  0  0  0  0  0  0  0  0  0  0
   20.5646    8.0441   26.8545 C   0  0  0  0  0  0  0  0  0  0  0  0
   23.5984   10.6271   35.4567 C   0  0  0  0  0  0  0  0  0  0  0  0
   23.8669   11.8553   35.8193 N   0  0  0  0  0  0  0  0  0  0  0  0
   19.3340    7.6055   27.4248 C   0  0  0  0  0  0  0  0  0  0  0  0
   18.1739    7.6970   25.3520 F   0  0  0  0  0  0  0  0  0  0  0  0
   21.7005    9.0294   28.9026 C   0  0  0  0  0  0  0  0  0  0  0  0
   21.2368   11.9815   33.1905 C   0  0  0  0  0  0  0  0  0  0  0  0
   19.7334    8.1119   29.8833 C   0  0  0  0  0  0  0  0  0  0  0  0
   20.6512    7.8886   33.8418 C   0  0  0  0  0  0  0  0  0  0  0  0
   21.7637   10.7065   33.4400 C   0  0  0  0  0  0  0  0  0  0  0  0
   29.1678    9.3124   35.0361 C   0  0  0  0  0  0  0  0  0  0  0  0
   22.6395   10.2035   34.5250 C   0  0  0  0  0  0  0  0  0  0  0  0
   27.1946   10.6498   35.4955 C   0  0  0  0  0  0  0  0  0  0  0  0
  1  6  1  0
  1  9  1  0
  1 16  1  0
  2 34  1  0
  2 36  1  0
  3  5  1  0
  3  8  1  0
  3 27  1  0
  3 28  1  0
  4  7  2  0
  6 20  1  0
  6 33  1  0
  7 20  1  0
  7 35  1  0
  9 17  2  0
 10 11  1  0
 11 14  1  0
 11 23  2  0
 12 31  1  0
 13 24  1  0
 13 29  2  0
 14 34  2  0
 15 21  1  0
 15 22  1  0
 15 36  2  3
 16 29  1  0
 16 31  1  0
 17 30  1  0
 18 34  1  0
 19 27  2  0
 19 31  1  0
 20 32  1  0
 21 25  2  0
 22 26  1  0
 23 36  1  0
 24 27  1  0
 25 26  1  0
 25 35  1  0
 30 33  2  0
 33 35  1  0
M  END
>  <ID>  (1) 
conformer_0

$$$$
