
     RDKit          3D

 34 39  0  0  0  0  0  0  0  0999 V2000
   20.4517    8.9371   32.4190 C   0  0  0  0  0  0  0  0  0  0  0  0
   22.8707    8.3856   27.2347 C   0  0  0  0  0  0  0  0  0  0  0  0
   24.0283    9.6516   35.4799 C   0  0  0  0  0  0  0  0  0  0  0  0
   17.3590    7.6077   29.7620 O   0  0  0  0  0  0  0  0  0  0  0  0
   18.0868    7.6184   28.4760 C   0  0  0  0  0  0  0  0  0  0  0  0
   20.2707    7.7912   26.5569 C   0  0  0  0  0  0  0  0  0  0  0  0
   21.8924    8.8003   34.3413 O   0  0  0  0  0  0  0  0  0  0  0  0
   27.4525    9.3081   34.7863 N   0  0  0  0  0  0  0  0  0  0  0  0
   22.3091    9.2326   29.3921 C   0  0  0  0  0  0  0  0  0  0  0  0
   29.0649   10.9351   35.4335 C   0  0  0  0  0  0  0  0  0  0  0  0
   19.2985    8.4554   28.7356 C   0  0  0  0  0  0  0  0  0  0  0  0
   30.3802   11.3417   35.5861 O   0  0  0  0  0  0  0  0  0  0  0  0
   21.8728    9.0378   32.9546 C   0  0  0  0  0  0  0  0  0  0  0  0
   23.9777    8.0499   33.7722 O   0  0  0  0  0  0  0  0  0  0  0  0
   26.4161   10.2602   34.8737 C   0  0  0  0  0  0  0  0  0  0  0  0
   24.3388    9.3845   33.2092 C   0  0  0  0  0  0  0  0  0  0  0  0
   23.8342    9.6315   36.8464 O   0  0  0  0  0  0  0  0  0  0  0  0
   21.5383    9.6533   30.3735 N   0  0  0  0  0  0  0  0  0  0  0  0
   22.6090    7.8323   26.0113 C   0  0  0  0  0  0  0  0  0  0  0  0
   18.1439    8.1540   30.7753 C   0  0  0  0  0  0  0  0  0  0  0  0
   28.7567    9.6501   35.0753 C   0  0  0  0  0  0  0  0  0  0  0  0
   21.8221    8.6389   28.1562 C   0  0  0  0  0  0  0  0  0  0  0  0
   20.4097    9.1525   30.9294 C   0  0  0  0  0  0  0  0  0  0  0  0
   19.4777    8.6651   33.2202 O   0  0  0  0  0  0  0  0  0  0  0  0
   21.3089    7.5328   25.6799 C   0  0  0  0  0  0  0  0  0  0  0  0
   28.2628   13.1350   36.0813 C   0  0  0  0  0  0  0  0  0  0  0  0
   19.3712    8.5947   30.1577 N   0  0  0  0  0  0  0  0  0  0  0  0
   29.7650    8.6327   34.9802 C   0  0  0  0  0  0  0  0  0  0  0  0
   23.1808    8.5089   34.8977 C   0  0  0  0  0  0  0  0  0  0  0  0
   23.0486    9.7708   32.7054 O   0  0  0  0  0  0  0  0  0  0  0  0
   28.0345   11.8536   35.6159 C   0  0  0  0  0  0  0  0  0  0  0  0
   26.7498   11.5030   35.3271 N   0  0  0  0  0  0  0  0  0  0  0  0
   20.4830    8.3043   27.8443 C   0  0  0  0  0  0  0  0  0  0  0  0
   25.0042    9.9916   34.4264 C   0  0  0  0  0  0  0  0  0  0  0  0
  1 13  1  0
  1 23  1  0
  1 24  1  0
  2 19  2  0
  2 22  1  0
  3 17  1  0
  3 29  1  0
  3 34  1  0
  4  5  1  0
  4 20  1  0
  5 11  1  0
  6 25  2  0
  6 33  1  0
  7 13  1  0
  7 29  1  0
  8 15  2  0
  8 21  1  0
  9 18  1  0
  9 22  2  0
 10 12  1  0
 10 21  2  0
 10 31  1  0
 11 27  1  0
 11 33  1  0
 13 30  1  0
 14 16  1  0
 14 29  1  0
 15 32  1  0
 15 34  1  0
 16 30  1  0
 16 34  1  0
 18 23  2  0
 19 25  1  0
 20 27  1  0
 21 28  1  0
 22 33  1  0
 23 27  1  0
 26 31  1  0
 31 32  2  0
M  END
>  <ID>  (1) 
conformer_0

$$$$
