
     RDKit          3D

 37 40  0  0  0  0  0  0  0  0999 V2000
   19.5005    6.9444   25.7211 Cl  0  0  0  0  0  0  0  0  0  0  0  0
   22.7367    7.8473   35.3686 O   0  0  0  0  0  0  0  0  0  0  0  0
   29.8135    8.3077   34.9374 N   0  0  0  0  0  0  0  0  0  0  0  0
   22.4600    9.8631   32.5043 O   0  0  0  0  0  0  0  0  0  0  0  0
   15.8646   11.1583   27.9996 C   0  0  0  0  0  0  0  0  0  0  0  0
   24.4723    9.8462   36.6469 O   0  0  0  0  0  0  0  0  0  0  0  0
   21.5842    8.8761   33.0042 C   0  0  0  0  0  0  0  0  0  0  0  0
   26.5655   10.2279   34.9421 C   0  0  0  0  0  0  0  0  0  0  0  0
   25.2644    8.5688   33.6206 C   0  0  0  0  0  0  0  0  0  0  0  0
   24.1085    9.8925   35.3339 C   0  0  0  0  0  0  0  0  0  0  0  0
   20.4234    8.9830   28.5630 C   0  0  0  0  0  0  0  0  0  0  0  0
   29.1048    9.4615   35.0953 C   0  0  0  0  0  0  0  0  0  0  0  0
   26.8372   11.6031   34.9163 C   0  0  0  0  0  0  0  0  0  0  0  0
   17.9273   10.1221   28.8797 C   0  0  0  0  0  0  0  0  0  0  0  0
   16.3516   10.9815   30.4174 O   0  0  0  0  0  0  0  0  0  0  0  0
   19.8115    9.0012   29.8659 C   0  0  0  0  0  0  0  0  0  0  0  0
   16.7038   10.8855   29.1247 C   0  0  0  0  0  0  0  0  0  0  0  0
   20.3632    8.6534   32.2690 C   0  0  0  0  0  0  0  0  0  0  0  0
   22.2011    7.5049   25.1344 O   0  0  0  0  0  0  0  0  0  0  0  0
   20.2505    8.0396   26.3348 C   0  0  0  0  0  0  0  0  0  0  0  0
   27.6852    9.4129   34.9480 C   0  0  0  0  0  0  0  0  0  0  0  0
   22.9036    9.0399   33.3540 C   0  0  0  0  0  0  0  0  0  0  0  0
   21.8680    8.7851   28.6069 C   0  0  0  0  0  0  0  0  0  0  0  0
   22.9674    9.0890   34.8734 C   0  0  0  0  0  0  0  0  0  0  0  0
   28.0385   12.1026   35.4222 C   0  0  0  0  0  0  0  0  0  0  0  0
   29.8731   10.5327   35.3974 N   0  0  0  0  0  0  0  0  0  0  0  0
   18.5601   10.8337   26.6832 O   0  0  0  0  0  0  0  0  0  0  0  0
   29.3511   11.7620   35.5595 C   0  0  0  0  0  0  0  0  0  0  0  0
   23.9899    8.2375   32.9872 O   0  0  0  0  0  0  0  0  0  0  0  0
   22.5038    8.3632   27.3582 C   0  0  0  0  0  0  0  0  0  0  0  0
   20.5376    8.4565   30.9243 N   0  0  0  0  0  0  0  0  0  0  0  0
   21.6515    7.8976   26.2746 C   0  0  0  0  0  0  0  0  0  0  0  0
   19.2416    8.4662   32.7790 O   0  0  0  0  0  0  0  0  0  0  0  0
   18.4337    9.8080   27.5236 C   0  0  0  0  0  0  0  0  0  0  0  0
   18.4538    9.4288   30.0575 C   0  0  0  0  0  0  0  0  0  0  0  0
   19.5542    8.8191   27.3824 C   0  0  0  0  0  0  0  0  0  0  0  0
   25.2597    9.7836   34.4045 C   0  0  0  0  0  0  0  0  0  0  0  0
  1 20  1  0
  2 24  1  0
  3 12  2  0
  4 22  1  0
  5 17  1  0
  6 10  1  0
  7 18  1  0
  7 22  1  0
  8 13  1  0
  8 21  2  0
  8 37  1  0
  9 29  1  0
  9 37  1  0
 10 24  1  0
 10 37  1  0
 11 16  1  0
 11 23  2  0
 11 36  1  0
 12 21  1  0
 12 26  1  0
 13 25  1  0
 14 17  1  0
 14 34  1  0
 14 35  1  0
 15 17  1  0
 16 31  1  0
 16 35  1  0
 18 31  1  0
 18 33  2  0
 19 32  1  0
 20 32  1  0
 20 36  1  0
 22 24  1  0
 22 29  1  0
 23 30  1  0
 25 28  1  0
 26 28  2  0
 27 34  1  0
 30 32  2  0
 34 36  1  0
M  END
>  <ID>  (1) 
conformer_0

$$$$
