
     RDKit          3D

 46 51  0  0  0  0  0  0  0  0999 V2000
   27.9735    9.4719   34.9234 C   0  0  0  0  0  0  0  0  0  0  0  0
   19.1786    8.9102   30.5705 N   0  0  0  0  0  0  0  0  0  0  0  0
   18.3881   14.0949   30.2044 O   0  0  0  0  0  0  0  0  0  0  0  0
   23.3129    7.2956   34.2342 O   0  0  0  0  0  0  0  0  0  0  0  0
   18.2510    6.4425   26.2842 C   0  0  0  0  0  0  0  0  0  0  0  0
   20.5809    9.0763   28.6329 C   0  0  0  0  0  0  0  0  0  0  0  0
   17.2658    7.5750   28.6980 C   0  0  0  0  0  0  0  0  0  0  0  0
   19.0796    7.3009   27.1362 C   0  0  0  0  0  0  0  0  0  0  0  0
   18.3829    8.0743   31.3887 C   0  0  0  0  0  0  0  0  0  0  0  0
   20.0060   12.1275   32.2190 C   0  0  0  0  0  0  0  0  0  0  0  0
   22.7977   10.7734   34.6556 O   0  0  0  0  0  0  0  0  0  0  0  0
   22.4845    8.3869   34.5627 C   0  0  0  0  0  0  0  0  0  0  0  0
   22.3201   13.0530   35.0110 C   0  0  0  0  0  0  0  0  0  0  0  0
   21.1814   10.2904   29.3228 C   0  0  0  0  0  0  0  0  0  0  0  0
   19.9558    9.9132   31.3834 C   0  0  0  0  0  0  0  0  0  0  0  0
   21.3291   12.5022   34.1375 C   0  0  0  0  0  0  0  0  0  0  0  0
   20.0841   10.9131   30.1967 C   0  0  0  0  0  0  0  0  0  0  0  0
   23.6550    9.3121   36.4978 O   0  0  0  0  0  0  0  0  0  0  0  0
   24.9342    9.3875   34.5205 C   0  0  0  0  0  0  0  0  0  0  0  0
   24.8451   11.6788   35.5751 C   0  0  0  0  0  0  0  0  0  0  0  0
   21.5472   11.1832   33.7779 N   0  0  0  0  0  0  0  0  0  0  0  0
   19.5991   12.2262   30.7968 C   0  0  0  0  0  0  0  0  0  0  0  0
   29.3425    9.5122   35.1025 C   0  0  0  0  0  0  0  0  0  0  0  0
   18.6237    7.8328   28.3552 C   0  0  0  0  0  0  0  0  0  0  0  0
   20.5273   10.8894   32.5450 C   0  0  0  0  0  0  0  0  0  0  0  0
   23.3843   11.9659   35.2547 C   0  0  0  0  0  0  0  0  0  0  0  0
   29.2093   11.6774   35.8308 C   0  0  0  0  0  0  0  0  0  0  0  0
   21.0809    8.5062   27.4439 C   0  0  0  0  0  0  0  0  0  0  0  0
   25.6730   10.6409   34.9221 C   0  0  0  0  0  0  0  0  0  0  0  0
   19.5179   14.0146   33.5342 O   0  0  0  0  0  0  0  0  0  0  0  0
   30.1409    8.4022   34.8744 N   0  0  0  0  0  0  0  0  0  0  0  0
   27.8329   11.6722   35.6433 C   0  0  0  0  0  0  0  0  0  0  0  0
   27.1507   10.5843   35.1914 N   0  0  0  0  0  0  0  0  0  0  0  0
   29.9607   10.5991   35.5353 N   0  0  0  0  0  0  0  0  0  0  0  0
   29.8349   12.8129   36.3367 C   0  0  0  0  0  0  0  0  0  0  0  0
   22.4939   14.2561   35.1994 O   0  0  0  0  0  0  0  0  0  0  0  0
   25.3770   12.6838   36.2730 O   0  0  0  0  0  0  0  0  0  0  0  0
   22.3427    8.8354   27.0382 F   0  0  0  0  0  0  0  0  0  0  0  0
   19.4166    8.5929   29.1801 C   0  0  0  0  0  0  0  0  0  0  0  0
   20.3485    7.6381   26.6774 C   0  0  0  0  0  0  0  0  0  0  0  0
   20.2393   12.9969   33.3014 C   0  0  0  0  0  0  0  0  0  0  0  0
   23.5046    9.4994   35.1254 C   0  0  0  0  0  0  0  0  0  0  0  0
   24.9668    9.1873   33.1709 O   0  0  0  0  0  0  0  0  0  0  0  0
   19.3294   13.3144   29.8662 C   0  0  0  0  0  0  0  0  0  0  0  0
   19.9865   13.2994   28.8071 O   0  0  0  0  0  0  0  0  0  0  0  0
   18.6273    8.2408   32.7191 O   0  0  0  0  0  0  0  0  0  0  0  0
  1 23  1  0
  1 33  1  0
  2  9  1  0
  2 15  1  0
  2 39  1  0
  3 44  2  0
  4 12  1  0
  5  8  1  0
  6 14  1  0
  6 28  1  0
  6 39  1  0
  7 24  1  0
  8 24  2  0
  8 40  1  0
  9 46  1  0
 10 22  1  0
 10 25  1  0
 10 41  1  0
 11 26  1  0
 11 42  1  0
 12 42  1  0
 13 16  1  0
 13 26  1  0
 13 36  2  0
 14 17  1  0
 15 17  1  0
 15 25  1  0
 16 21  1  0
 16 41  1  0
 17 22  1  0
 18 42  1  0
 19 29  1  0
 19 42  1  0
 19 43  1  0
 20 26  1  0
 20 29  1  0
 20 37  1  0
 21 25  1  0
 22 44  1  0
 23 31  2  0
 23 34  1  0
 24 39  1  0
 27 32  1  0
 27 34  2  0
 27 35  1  0
 28 38  1  0
 28 40  2  0
 29 33  1  0
 30 41  2  0
 32 33  1  0
 44 45  1  0
M  END
>  <ID>  (1) 
conformer_0

$$$$
