
     RDKit          3D

 33 34  0  0  0  0  0  0  0  0999 V2000
   17.5645    9.3557   32.5285 C   0  0  0  0  0  0  0  0  0  0  0  0
   27.1317   10.5297   34.3419 C   0  0  0  0  0  0  0  0  0  0  0  0
   28.3784   10.7706   34.9693 C   0  0  0  0  0  0  0  0  0  0  0  0
   19.9510    7.4247   29.0428 O   0  0  0  0  0  0  0  0  0  0  0  0
   17.0843   11.9093   33.5000 C   0  0  0  0  0  0  0  0  0  0  0  0
   19.0278    7.6220   25.6306 C   0  0  0  0  0  0  0  0  0  0  0  0
   16.0627   10.9350   33.5359 C   0  0  0  0  0  0  0  0  0  0  0  0
   30.5724    9.8539   34.5041 N   0  0  0  0  0  0  0  0  0  0  0  0
   20.5708    8.6371   28.5022 C   0  0  0  0  0  0  0  0  0  0  0  0
   16.8339    6.4727   25.6636 C   0  0  0  0  0  0  0  0  0  0  0  0
   18.8443    7.0976   28.2129 C   0  0  0  0  0  0  0  0  0  0  0  0
   16.3255    9.6507   33.0496 C   0  0  0  0  0  0  0  0  0  0  0  0
   18.3722    6.2488   25.3815 C   0  0  0  0  0  0  0  0  0  0  0  0
   21.3200    9.0200   33.8646 C   0  0  0  0  0  0  0  0  0  0  0  0
   29.3680    9.6479   34.9501 C   0  0  0  0  0  0  0  0  0  0  0  0
   25.9432   10.2086   35.0731 C   0  0  0  0  0  0  0  0  0  0  0  0
   23.5877    9.0272   34.8186 C   0  0  0  0  0  0  0  0  0  0  0  0
   18.7805    8.0473   27.0650 C   0  0  0  0  0  0  0  0  0  0  0  0
   21.7081   10.5671   29.4179 O   0  0  0  0  0  0  0  0  0  0  0  0
   24.9570    9.4757   34.4689 N   0  0  0  0  0  0  0  0  0  0  0  0
   23.3013    9.6117   32.3572 C   0  0  0  0  0  0  0  0  0  0  0  0
   23.1032    9.4953   36.1600 C   0  0  0  0  0  0  0  0  0  0  0  0
   19.6768    9.1454   27.4135 C   0  0  0  0  0  0  0  0  0  0  0  0
   25.7230   10.5946   36.2052 O   0  0  0  0  0  0  0  0  0  0  0  0
   20.3738    8.7326   32.8455 C   0  0  0  0  0  0  0  0  0  0  0  0
   22.6159    9.5950   33.6635 C   0  0  0  0  0  0  0  0  0  0  0  0
   20.8103    9.6633   29.5816 C   0  0  0  0  0  0  0  0  0  0  0  0
   18.6018   10.3247   32.5182 C   0  0  0  0  0  0  0  0  0  0  0  0
   19.9681    9.9443   32.0187 C   0  0  0  0  0  0  0  0  0  0  0  0
   23.3640    7.6012   34.7319 O   0  0  0  0  0  0  0  0  0  0  0  0
   28.9929    8.4143   35.3139 N   0  0  0  0  0  0  0  0  0  0  0  0
   19.9745    9.5671   30.6425 N   0  0  0  0  0  0  0  0  0  0  0  0
   18.3442   11.6113   32.9955 C   0  0  0  0  0  0  0  0  0  0  0  0
  1 12  2  0
  1 28  1  0
  2  3  1  0
  2 16  1  0
  3 15  1  0
  4  9  1  0
  4 11  1  0
  5  7  2  0
  5 33  1  0
  6 13  1  0
  6 18  1  0
  7 12  1  0
  8 15  2  0
  9 23  1  0
  9 27  1  0
 10 13  1  0
 11 18  1  0
 14 25  1  0
 14 26  1  0
 15 31  1  0
 16 20  1  0
 16 24  2  0
 17 20  1  0
 17 22  1  0
 17 26  1  0
 17 30  1  0
 18 23  1  0
 19 27  2  0
 21 26  1  0
 25 29  1  0
 27 32  1  0
 28 29  1  0
 28 33  2  0
 29 32  1  0
M  END
>  <ID>  (1) 
conformer_0

$$$$
