
     RDKit          3D

 26 29  0  0  0  0  0  0  0  0999 V2000
   18.4019    6.9843   26.6605 C   0  0  0  0  0  0  0  0  0  0  0  0
   22.5779    8.6314   34.8881 C   0  0  0  0  0  0  0  0  0  0  0  0
   29.6191   10.8857   35.3243 C   0  0  0  0  0  0  0  0  0  0  0  0
   18.9989    7.4311   27.9183 C   0  0  0  0  0  0  0  0  0  0  0  0
   24.6689    9.7928   35.0382 O   0  0  0  0  0  0  0  0  0  0  0  0
   19.8364    8.6277   32.4735 O   0  0  0  0  0  0  0  0  0  0  0  0
   25.8742    9.1525   34.6661 C   0  0  0  0  0  0  0  0  0  0  0  0
   20.2798    8.6067   29.3627 C   0  0  0  0  0  0  0  0  0  0  0  0
   17.1516    6.9945   26.5905 O   0  0  0  0  0  0  0  0  0  0  0  0
   27.1396    9.7510   34.9860 C   0  0  0  0  0  0  0  0  0  0  0  0
   19.0211    8.0937   31.5494 C   0  0  0  0  0  0  0  0  0  0  0  0
   19.2767    7.9793   30.1324 C   0  0  0  0  0  0  0  0  0  0  0  0
   29.5498    9.5288   35.1150 C   0  0  0  0  0  0  0  0  0  0  0  0
   18.4843    7.2532   29.2274 C   0  0  0  0  0  0  0  0  0  0  0  0
   22.1054    9.8716   30.7538 C   0  0  0  0  0  0  0  0  0  0  0  0
   20.1251    8.2519   28.0196 C   0  0  0  0  0  0  0  0  0  0  0  0
   21.3970    8.3829   34.1987 C   0  0  0  0  0  0  0  0  0  0  0  0
   21.1748    8.8220   32.9161 C   0  0  0  0  0  0  0  0  0  0  0  0
   22.2207    9.4547   32.1963 C   0  0  0  0  0  0  0  0  0  0  0  0
   19.1853    6.7908   25.6626 O   0  0  0  0  0  0  0  0  0  0  0  0
   21.2533    9.5201   29.7688 N   0  0  0  0  0  0  0  0  0  0  0  0
   23.5423    9.3533   34.2206 C   0  0  0  0  0  0  0  0  0  0  0  0
   28.4738   11.6922   35.3687 C   0  0  0  0  0  0  0  0  0  0  0  0
   28.3080    8.9223   34.9298 C   0  0  0  0  0  0  0  0  0  0  0  0
   27.2266   11.1042   35.2441 C   0  0  0  0  0  0  0  0  0  0  0  0
   23.4072    9.7069   32.8635 C   0  0  0  0  0  0  0  0  0  0  0  0
  1  4  1  0
  1  9  2  0
  1 20  1  0
  2 17  2  0
  2 22  1  0
  3 13  2  0
  3 23  1  0
  4 14  1  0
  4 16  1  0
  5  7  1  0
  5 22  1  0
  6 11  1  0
  6 18  1  0
  7 10  1  0
  8 12  1  0
  8 16  1  0
  8 21  1  0
 10 24  2  0
 10 25  1  0
 11 12  2  0
 12 14  1  0
 13 24  1  0
 15 19  1  0
 15 21  2  0
 17 18  1  0
 18 19  2  0
 19 26  1  0
 22 26  2  0
 23 25  2  0
M  END
>  <ID>  (1) 
conformer_0

$$$$
