
     RDKit          3D

 28 30  0  0  0  0  0  0  0  0999 V2000
   24.2910    9.5550   35.4929 C   0  0  0  0  0  0  0  0  0  0  0  0
   19.8641   10.5377   32.7914 C   0  0  0  0  0  0  0  0  0  0  0  0
   19.4946   11.8910   32.7980 C   0  0  0  0  0  0  0  0  0  0  0  0
   20.3372    8.2152   28.0936 C   0  0  0  0  0  0  0  0  0  0  0  0
   19.1184    6.9507   25.5799 N   0  0  0  0  0  0  0  0  0  0  0  0
   21.6153   11.7109   33.6885 C   0  0  0  0  0  0  0  0  0  0  0  0
   18.3586    7.7474   29.1687 C   0  0  0  0  0  0  0  0  0  0  0  0
   19.0092    7.6618   27.9180 C   0  0  0  0  0  0  0  0  0  0  0  0
   27.6869    9.4942   34.7441 C   0  0  0  0  0  0  0  0  0  0  0  0
   26.4362    9.9828   34.6546 C   0  0  0  0  0  0  0  0  0  0  0  0
   29.5909   11.0035   35.2783 C   0  0  0  0  0  0  0  0  0  0  0  0
   24.1816    9.2722   34.0602 C   0  0  0  0  0  0  0  0  0  0  0  0
   20.4708    8.6504   29.4517 C   0  0  0  0  0  0  0  0  0  0  0  0
   21.7762    9.2125   33.6600 N   0  0  0  0  0  0  0  0  0  0  0  0
   29.9111    8.5721   34.7957 C   0  0  0  0  0  0  0  0  0  0  0  0
   23.0155    8.7046   33.3079 C   0  0  0  0  0  0  0  0  0  0  0  0
   21.1599   10.4278   33.4065 C   0  0  0  0  0  0  0  0  0  0  0  0
   17.1145    7.0119   26.6337 O   0  0  0  0  0  0  0  0  0  0  0  0
   23.4696    9.0905   36.3913 O   0  0  0  0  0  0  0  0  0  0  0  0
   25.5660    9.9679   35.8001 N   0  0  0  0  0  0  0  0  0  0  0  0
   25.5531    9.4985   33.5380 C   0  0  0  0  0  0  0  0  0  0  0  0
   28.9997    9.6941   34.9372 C   0  0  0  0  0  0  0  0  0  0  0  0
   23.1557    7.9430   32.3157 O   0  0  0  0  0  0  0  0  0  0  0  0
   18.7948    8.6497   31.3796 C   0  0  0  0  0  0  0  0  0  0  0  0
   19.0621    9.5413   32.2931 C   0  0  0  0  0  0  0  0  0  0  0  0
   18.3601    7.1699   26.6702 C   0  0  0  0  0  0  0  0  0  0  0  0
   20.5889   12.6189   33.3555 C   0  0  0  0  0  0  0  0  0  0  0  0
   19.2103    8.3574   30.0769 C   0  0  0  0  0  0  0  0  0  0  0  0
  1 12  1  0
  1 19  2  0
  1 20  1  0
  2  3  1  0
  2 17  2  0
  2 25  1  0
  3 27  1  0
  4  8  1  0
  4 13  1  0
  5 26  1  0
  6 17  1  0
  6 27  1  0
  7  8  1  0
  7 28  1  0
  8 26  1  0
  9 10  1  0
  9 22  2  3
 10 20  1  0
 10 21  1  0
 11 22  1  0
 12 16  1  0
 12 21  1  0
 13 28  1  0
 14 16  1  0
 14 17  1  0
 15 22  1  0
 16 23  2  0
 18 26  2  0
 24 25  2  3
 24 28  1  0
M  END
>  <ID>  (1) 
conformer_0

$$$$
