
     RDKit          3D

 29 30  0  0  0  0  0  0  0  0999 V2000
   28.8347    9.5029   35.0396 C   0  0  0  0  0  0  0  0  0  0  0  0
   20.0722    8.6389   29.8124 C   0  0  0  0  0  0  0  0  0  0  0  0
   28.9068   10.9132   35.2712 C   0  0  0  0  0  0  0  0  0  0  0  0
   27.4871    9.1749   34.9357 N   0  0  0  0  0  0  0  0  0  0  0  0
   18.5462    7.5676   28.1918 N   0  0  0  0  0  0  0  0  0  0  0  0
   18.9871    6.1853   24.8241 C   0  0  0  0  0  0  0  0  0  0  0  0
   19.4588    9.0431   32.1886 C   0  0  0  0  0  0  0  0  0  0  0  0
   24.3614   11.4674   35.0936 O   0  0  0  0  0  0  0  0  0  0  0  0
   29.8409    8.7090   35.0430 N   0  0  0  0  0  0  0  0  0  0  0  0
   23.0708    9.6007   33.2111 C   0  0  0  0  0  0  0  0  0  0  0  0
   23.7388    9.2210   36.5261 O   0  0  0  0  0  0  0  0  0  0  0  0
   18.0325    6.5821   25.9731 C   0  0  0  0  0  0  0  0  0  0  0  0
   23.3593    8.6939   34.2752 C   0  0  0  0  0  0  0  0  0  0  0  0
   25.1631   10.3403   34.9194 C   0  0  0  0  0  0  0  0  0  0  0  0
   20.6274    9.2820   32.8055 C   0  0  0  0  0  0  0  0  0  0  0  0
   18.6263    6.4567   27.3061 C   0  0  0  0  0  0  0  0  0  0  0  0
   22.3854    7.8656   34.7226 O   0  0  0  0  0  0  0  0  0  0  0  0
   19.6378    8.3329   28.4446 C   0  0  0  0  0  0  0  0  0  0  0  0
   29.9797   11.5152   35.5246 O   0  0  0  0  0  0  0  0  0  0  0  0
   27.5943   11.3813   35.3029 N   0  0  0  0  0  0  0  0  0  0  0  0
   21.4078    8.8201   30.0067 C   0  0  0  0  0  0  0  0  0  0  0  0
   16.6412    7.1131   25.8259 C   0  0  0  0  0  0  0  0  0  0  0  0
   21.9470    9.3073   32.3675 C   0  0  0  0  0  0  0  0  0  0  0  0
   26.6670   10.3258   35.0988 C   0  0  0  0  0  0  0  0  0  0  0  0
   17.5716    8.7475   30.7348 C   0  0  0  0  0  0  0  0  0  0  0  0
   20.3297    8.8759   27.4504 O   0  0  0  0  0  0  0  0  0  0  0  0
   24.4170    9.1100   35.3019 C   0  0  0  0  0  0  0  0  0  0  0  0
   19.1254    8.7866   30.8881 C   0  0  0  0  0  0  0  0  0  0  0  0
   22.2099    9.0938   31.0185 C   0  0  0  0  0  0  0  0  0  0  0  0
  1  3  1  0
  1  4  1  0
  1  9  2  0
  2 18  1  0
  2 21  1  0
  2 28  2  0
  3 19  2  0
  3 20  1  0
  4 24  2  0
  5 16  1  0
  5 18  1  0
  6 12  1  0
  7 15  2  0
  7 28  1  0
  8 14  1  0
 10 13  1  0
 10 23  1  0
 11 27  1  0
 12 16  1  0
 12 22  1  0
 13 17  1  0
 13 27  1  0
 14 24  1  0
 14 27  1  0
 15 23  1  0
 18 26  2  0
 20 24  1  0
 21 29  2  0
 23 29  1  0
 25 28  1  0
M  END
>  <ID>  (1) 
conformer_0

$$$$
