
     RDKit          3D

 34 35  0  0  0  0  0  0  0  0999 V2000
   17.5853   10.4548   31.6476 C   0  0  0  0  0  0  0  0  0  0  0  0
   26.5602   10.1637   34.6486 C   0  0  0  0  0  0  0  0  0  0  0  0
   20.7717    8.8209   32.9804 C   0  0  0  0  0  0  0  0  0  0  0  0
   26.7751   11.4249   35.0872 N   0  0  0  0  0  0  0  0  0  0  0  0
   29.0941   10.9326   35.3345 C   0  0  0  0  0  0  0  0  0  0  0  0
   20.5132    8.3565   27.9474 C   0  0  0  0  0  0  0  0  0  0  0  0
   24.2185    9.4693   35.1164 C   0  0  0  0  0  0  0  0  0  0  0  0
   21.4941    9.0536   28.7556 C   0  0  0  0  0  0  0  0  0  0  0  0
   23.1340    8.6238   34.5841 N   0  0  0  0  0  0  0  0  0  0  0  0
   24.1994    9.8711   36.3340 O   0  0  0  0  0  0  0  0  0  0  0  0
   22.1733    8.1273   26.1033 O   0  0  0  0  0  0  0  0  0  0  0  0
   18.6297    7.1382   26.4912 C   0  0  0  0  0  0  0  0  0  0  0  0
   19.7519    9.2966   32.1304 C   0  0  0  0  0  0  0  0  0  0  0  0
   22.0796    8.6158   32.4357 C   0  0  0  0  0  0  0  0  0  0  0  0
   16.7673    9.3685   31.4160 F   0  0  0  0  0  0  0  0  0  0  0  0
   18.0409   10.9635   30.2969 C   0  0  0  0  0  0  0  0  0  0  0  0
   23.0142    7.4266   35.2694 O   0  0  0  0  0  0  0  0  0  0  0  0
   19.9275    7.3431   25.7681 C   0  0  0  0  0  0  0  0  0  0  0  0
   25.2211    9.7985   34.1211 C   0  0  0  0  0  0  0  0  0  0  0  0
   29.9567    8.6742   34.9477 C   0  0  0  0  0  0  0  0  0  0  0  0
   28.0338   11.8077   35.4078 C   0  0  0  0  0  0  0  0  0  0  0  0
   22.2534    8.6560   31.0749 C   0  0  0  0  0  0  0  0  0  0  0  0
   20.9282    8.0370   26.5803 C   0  0  0  0  0  0  0  0  0  0  0  0
   17.7733    8.1753   27.1326 C   0  0  0  0  0  0  0  0  0  0  0  0
   18.5985    9.9736   32.5886 N   0  0  0  0  0  0  0  0  0  0  0  0
   16.9449   11.6388   32.2381 C   0  0  0  0  0  0  0  0  0  0  0  0
   19.9648    9.2210   30.7876 C   0  0  0  0  0  0  0  0  0  0  0  0
   20.3988    8.5809   34.2755 O   0  0  0  0  0  0  0  0  0  0  0  0
   23.2486    8.3989   33.2194 C   0  0  0  0  0  0  0  0  0  0  0  0
   27.5798    9.2351   34.6820 N   0  0  0  0  0  0  0  0  0  0  0  0
   21.1932    8.9615   30.2321 C   0  0  0  0  0  0  0  0  0  0  0  0
   18.0015    5.8779   25.9290 C   0  0  0  0  0  0  0  0  0  0  0  0
   28.8605    9.6141   35.0017 C   0  0  0  0  0  0  0  0  0  0  0  0
   30.4312   11.3428   35.5235 N   0  0  0  0  0  0  0  0  0  0  0  0
  1 15  1  0
  1 16  1  0
  1 25  1  0
  1 26  1  0
  2  4  2  0
  2 19  1  0
  2 30  1  0
  3 13  1  0
  3 14  2  0
  3 28  1  0
  4 21  1  0
  5 21  2  0
  5 33  1  0
  5 34  1  0
  6  8  1  0
  6 23  2  3
  7  9  1  0
  7 10  2  0
  7 19  1  0
  8 31  1  0
  9 17  1  0
  9 29  1  0
 11 23  1  0
 12 18  1  0
 12 24  1  0
 12 32  1  0
 13 25  2  3
 13 27  1  0
 14 22  1  0
 14 29  1  0
 18 23  1  0
 20 33  1  0
 22 31  1  0
 27 31  2  0
 30 33  2  0
M  END
>  <ID>  (1) 
conformer_0

$$$$
