
     RDKit          3D

 44 49  0  0  0  0  0  0  0  0999 V2000
   23.8757   11.0060   34.9177 C   0  0  0  0  0  0  0  0  0  0  0  0
   20.1940    8.2345   31.3140 C   0  0  0  0  0  0  0  0  0  0  0  0
   22.5271   13.0376   34.9507 C   0  0  0  0  0  0  0  0  0  0  0  0
   29.4992   12.8247   36.1722 O   0  0  0  0  0  0  0  0  0  0  0  0
   18.8220    6.6236   26.6241 C   0  0  0  0  0  0  0  0  0  0  0  0
   18.8507    7.1545   29.3355 C   0  0  0  0  0  0  0  0  0  0  0  0
   24.3689   11.8191   36.0254 O   0  0  0  0  0  0  0  0  0  0  0  0
   21.5666   13.9610   34.7597 C   0  0  0  0  0  0  0  0  0  0  0  0
   16.6971   12.7152   30.1622 C   0  0  0  0  0  0  0  0  0  0  0  0
   22.8250    9.0829   28.1368 O   0  0  0  0  0  0  0  0  0  0  0  0
   28.9327   11.6918   35.7631 C   0  0  0  0  0  0  0  0  0  0  0  0
   21.9454    9.1118   29.0974 C   0  0  0  0  0  0  0  0  0  0  0  0
   21.2823   11.4735   33.4391 C   0  0  0  0  0  0  0  0  0  0  0  0
   21.8475    9.2533   32.6260 N   0  0  0  0  0  0  0  0  0  0  0  0
   27.5439   11.5913   35.5121 C   0  0  0  0  0  0  0  0  0  0  0  0
   20.4496   13.7088   33.9604 C   0  0  0  0  0  0  0  0  0  0  0  0
   17.8003   11.0067   31.4521 O   0  0  0  0  0  0  0  0  0  0  0  0
   20.9052   10.2677   32.5780 C   0  0  0  0  0  0  0  0  0  0  0  0
   20.3579    7.8193   27.7473 C   0  0  0  0  0  0  0  0  0  0  0  0
   29.9962    8.3443   34.8977 F   0  0  0  0  0  0  0  0  0  0  0  0
   23.0908    7.5163   34.5370 O   0  0  0  0  0  0  0  0  0  0  0  0
   17.1995   11.4096   30.2581 C   0  0  0  0  0  0  0  0  0  0  0  0
   26.9764   10.3775   35.1302 C   0  0  0  0  0  0  0  0  0  0  0  0
   30.8912   12.7093   36.5865 C   0  0  0  0  0  0  0  0  0  0  0  0
   21.5431    8.1308   31.7889 C   0  0  0  0  0  0  0  0  0  0  0  0
   25.4665   10.1538   34.8559 C   0  0  0  0  0  0  0  0  0  0  0  0
   18.3418    9.7272   31.5465 O   0  0  0  0  0  0  0  0  0  0  0  0
   29.1792    9.4309   35.1382 C   0  0  0  0  0  0  0  0  0  0  0  0
   22.5382   11.7756   34.3956 C   0  0  0  0  0  0  0  0  0  0  0  0
   29.7585   10.5951   35.5680 C   0  0  0  0  0  0  0  0  0  0  0  0
   20.7310    8.2630   28.9542 N   0  0  0  0  0  0  0  0  0  0  0  0
   23.2519    9.4140   32.8702 C   0  0  0  0  0  0  0  0  0  0  0  0
   23.7230    8.6674   34.0949 C   0  0  0  0  0  0  0  0  0  0  0  0
   27.8081    9.2872   34.9135 C   0  0  0  0  0  0  0  0  0  0  0  0
   23.6770    9.1955   36.4918 O   0  0  0  0  0  0  0  0  0  0  0  0
   20.3578   12.4862   33.3388 C   0  0  0  0  0  0  0  0  0  0  0  0
   20.7234    7.8110   26.4303 O   0  0  0  0  0  0  0  0  0  0  0  0
   19.1305    7.0562   27.8881 C   0  0  0  0  0  0  0  0  0  0  0  0
   19.7032    7.0740   25.7248 N   0  0  0  0  0  0  0  0  0  0  0  0
   17.7476    5.7371   26.1789 C   0  0  0  0  0  0  0  0  0  0  0  0
   19.7382    9.6114   31.8249 C   0  0  0  0  0  0  0  0  0  0  0  0
   24.0576    9.6396   35.2272 C   0  0  0  0  0  0  0  0  0  0  0  0
   17.0680   10.5292   29.1153 C   0  0  0  0  0  0  0  0  0  0  0  0
   19.8384    7.8723   29.9264 C   0  0  0  0  0  0  0  0  0  0  0  0
  1  7  1  0
  1 29  1  0
  1 42  1  0
  2 25  1  0
  2 41  1  0
  2 44  1  0
  3  8  2  0
  3 29  1  0
  4 11  1  0
  4 24  1  0
  5 38  2  0
  5 39  1  0
  5 40  1  0
  6 38  1  0
  6 44  1  0
  8 16  1  0
  9 22  1  0
 10 12  1  0
 11 15  2  0
 11 30  1  0
 12 31  1  0
 13 18  1  0
 13 29  2  0
 13 36  1  0
 14 18  1  0
 14 25  1  0
 14 32  1  0
 15 23  1  0
 16 36  2  0
 17 22  1  0
 17 27  1  0
 18 41  2  0
 19 31  1  0
 19 37  1  0
 19 38  1  0
 20 28  1  0
 21 33  1  0
 22 43  1  0
 23 26  1  0
 23 34  2  0
 26 42  1  0
 27 41  1  0
 28 30  2  0
 28 34  1  0
 31 44  1  0
 32 33  1  0
 33 42  1  0
 35 42  1  0
 37 39  1  0
M  END
>  <ID>  (1) 
conformer_0

$$$$
