
     RDKit          3D

 28 30  0  0  0  0  0  0  0  0999 V2000
   19.3985    7.4061   26.0536 C   0  0  0  0  0  0  0  0  0  0  0  0
   26.0537   12.0987   35.6855 O   0  0  0  0  0  0  0  0  0  0  0  0
   22.2367    9.2235   33.4471 C   0  0  0  0  0  0  0  0  0  0  0  0
   27.9446    9.1480   34.8031 C   0  0  0  0  0  0  0  0  0  0  0  0
   27.2084   11.3932   35.4039 C   0  0  0  0  0  0  0  0  0  0  0  0
   29.3054    9.5316   34.8987 C   0  0  0  0  0  0  0  0  0  0  0  0
   25.3089    9.8938   35.4394 C   0  0  0  0  0  0  0  0  0  0  0  0
   20.3591    8.9983   31.0792 C   0  0  0  0  0  0  0  0  0  0  0  0
   23.4314    7.9425   35.4590 O   0  0  0  0  0  0  0  0  0  0  0  0
   20.0372    8.1415   27.2608 C   0  0  0  0  0  0  0  0  0  0  0  0
   24.9320   11.3026   35.7334 C   0  0  0  0  0  0  0  0  0  0  0  0
   17.9853    8.4748   30.6816 S   0  0  0  0  0  0  0  0  0  0  0  0
   18.2811    6.4494   26.2695 C   0  0  0  0  0  0  0  0  0  0  0  0
   19.0780    7.8776   28.4150 C   0  0  0  0  0  0  0  0  0  0  0  0
   23.7852   11.6665   36.1208 O   0  0  0  0  0  0  0  0  0  0  0  0
   21.1881    8.5715   33.7253 O   0  0  0  0  0  0  0  0  0  0  0  0
   29.6129   10.8359   35.2507 C   0  0  0  0  0  0  0  0  0  0  0  0
   26.8505   10.0207   35.1672 C   0  0  0  0  0  0  0  0  0  0  0  0
   30.2609    8.4958   34.6529 C   0  0  0  0  0  0  0  0  0  0  0  0
   21.7026    9.5100   31.0547 C   0  0  0  0  0  0  0  0  0  0  0  0
   22.1962    9.2429   29.6448 C   0  0  0  0  0  0  0  0  0  0  0  0
   23.8694    9.2230   35.3405 C   0  0  0  0  0  0  0  0  0  0  0  0
   23.0948    9.8937   34.3918 N   0  0  0  0  0  0  0  0  0  0  0  0
   28.5596   11.7868   35.4441 C   0  0  0  0  0  0  0  0  0  0  0  0
   17.5653    6.0138   25.0569 C   0  0  0  0  0  0  0  0  0  0  0  0
   20.9781    9.0657   28.6942 C   0  0  0  0  0  0  0  0  0  0  0  0
   19.7396    8.6761   29.6369 C   0  0  0  0  0  0  0  0  0  0  0  0
   22.7171    9.3790   32.0766 C   0  0  0  0  0  0  0  0  0  0  0  0
  1 10  1  0
  1 13  2  3
  2  5  1  0
  2 11  1  0
  3 16  2  0
  3 23  1  0
  3 28  1  0
  4  6  2  0
  4 18  1  0
  5 18  2  0
  5 24  1  0
  6 17  1  0
  6 19  1  0
  7 11  1  0
  7 18  1  0
  7 22  1  0
  8 20  1  0
  8 27  1  0
  9 22  2  0
 10 14  1  0
 11 15  2  0
 12 27  1  0
 13 25  1  0
 14 27  1  0
 17 24  2  0
 20 21  1  0
 20 28  1  0
 21 26  1  0
 22 23  1  0
 26 27  1  0
M  END
>  <ID>  (1) 
conformer_0

$$$$
