
     RDKit          3D

 57 64  0  0  0  0  0  0  0  0999 V2000
   28.9954    8.6025   34.8212 C   0  0  0  0  0  0  0  0  0  0  0  0
   22.1816   13.3176   34.8117 N   0  0  0  0  0  0  0  0  0  0  0  0
   21.1790    9.1845   30.3625 C   0  0  0  0  0  0  0  0  0  0  0  0
   23.4124    9.4294   34.8883 C   0  0  0  0  0  0  0  0  0  0  0  0
   27.1159   10.2034   35.1773 C   0  0  0  0  0  0  0  0  0  0  0  0
   19.7338    7.2412   31.0796 N   0  0  0  0  0  0  0  0  0  0  0  0
   18.1251    7.0232   25.0183 C   0  0  0  0  0  0  0  0  0  0  0  0
   25.3806   11.8891   35.5167 C   0  0  0  0  0  0  0  0  0  0  0  0
   18.0268    9.2695   28.7038 C   0  0  0  0  0  0  0  0  0  0  0  0
   19.3032    7.3307   25.6974 C   0  0  0  0  0  0  0  0  0  0  0  0
   21.0496   13.2894   33.9026 C   0  0  0  0  0  0  0  0  0  0  0  0
   20.6422   14.4396   33.1998 C   0  0  0  0  0  0  0  0  0  0  0  0
   19.9547   16.7000   31.7474 C   0  0  0  0  0  0  0  0  0  0  0  0
   18.3411   12.8803   30.7739 O   0  0  0  0  0  0  0  0  0  0  0  0
   30.3788   11.8022   35.4995 O   0  0  0  0  0  0  0  0  0  0  0  0
   27.6849   12.4909   35.8819 C   0  0  0  0  0  0  0  0  0  0  0  0
   18.0870    8.4536   27.4166 C   0  0  0  0  0  0  0  0  0  0  0  0
   24.0745   12.4696   35.5237 N   0  0  0  0  0  0  0  0  0  0  0  0
   23.4191   13.7423   35.5160 C   0  0  0  0  0  0  0  0  0  0  0  0
   20.8940    7.1522   31.8905 C   0  0  0  0  0  0  0  0  0  0  0  0
   18.4268    8.9491   32.0645 O   0  0  0  0  0  0  0  0  0  0  0  0
   21.2256   15.6860   33.4584 C   0  0  0  0  0  0  0  0  0  0  0  0
   20.6102    8.5413   27.5308 C   0  0  0  0  0  0  0  0  0  0  0  0
   16.8950    8.1161   26.7812 C   0  0  0  0  0  0  0  0  0  0  0  0
   16.9149    7.4604   25.5474 C   0  0  0  0  0  0  0  0  0  0  0  0
   23.3270    8.8927   36.2492 O   0  0  0  0  0  0  0  0  0  0  0  0
   20.5100    9.0257   28.9608 C   0  0  0  0  0  0  0  0  0  0  0  0
   28.1001   11.1967   35.4868 C   0  0  0  0  0  0  0  0  0  0  0  0
   19.0801   13.0614   31.8452 C   0  0  0  0  0  0  0  0  0  0  0  0
   22.8559   11.9168   34.9664 C   0  0  0  0  0  0  0  0  0  0  0  0
   20.8994   16.8011   32.7377 C   0  0  0  0  0  0  0  0  0  0  0  0
   21.8098    9.1587   32.9215 O   0  0  0  0  0  0  0  0  0  0  0  0
   19.0175    8.3391   31.1419 C   0  0  0  0  0  0  0  0  0  0  0  0
   23.6524   14.7775   35.9353 O   0  0  0  0  0  0  0  0  0  0  0  0
   27.6059    8.9393   34.8873 C   0  0  0  0  0  0  0  0  0  0  0  0
   23.3467    7.5222   33.4687 O   0  0  0  0  0  0  0  0  0  0  0  0
   26.3604   12.7446   35.9211 C   0  0  0  0  0  0  0  0  0  0  0  0
   20.3544   12.1804   33.6261 C   0  0  0  0  0  0  0  0  0  0  0  0
   19.6762   14.3574   32.1636 C   0  0  0  0  0  0  0  0  0  0  0  0
   13.6668    7.6983   25.9170 C   0  0  0  0  0  0  0  0  0  0  0  0
   25.7932   10.5807   35.1552 C   0  0  0  0  0  0  0  0  0  0  0  0
   19.3174    8.0896   26.8739 C   0  0  0  0  0  0  0  0  0  0  0  0
   22.6389    8.5321   33.8298 C   0  0  0  0  0  0  0  0  0  0  0  0
   19.3110    6.1313   30.3201 C   0  0  0  0  0  0  0  0  0  0  0  0
   24.8737    9.5206   34.6278 C   0  0  0  0  0  0  0  0  0  0  0  0
   29.9463    9.6074   35.0522 C   0  0  0  0  0  0  0  0  0  0  0  0
   19.2125    6.0552   29.1385 O   0  0  0  0  0  0  0  0  0  0  0  0
   19.3044    5.0798   31.0444 O   0  0  0  0  0  0  0  0  0  0  0  0
   22.7453   10.6784   34.6373 C   0  0  0  0  0  0  0  0  0  0  0  0
   19.3486   10.0103   28.9579 C   0  0  0  0  0  0  0  0  0  0  0  0
   15.8095    7.2636   24.7685 O   0  0  0  0  0  0  0  0  0  0  0  0
   19.3947   12.0381   32.6867 N   0  0  0  0  0  0  0  0  0  0  0  0
   29.4818   10.8872   35.3641 C   0  0  0  0  0  0  0  0  0  0  0  0
   14.5615    6.8472   24.8638 C   0  0  0  0  0  0  0  0  0  0  0  0
   21.8414    8.1321   26.7982 C   0  0  0  0  0  0  0  0  0  0  0  0
   21.4634    8.5790   31.7185 C   0  0  0  0  0  0  0  0  0  0  0  0
   19.3472   15.4984   31.4491 C   0  0  0  0  0  0  0  0  0  0  0  0
  1 35  1  0
  1 46  1  0
  2 11  1  0
  2 19  1  0
  2 30  1  0
  3 27  1  0
  3 56  1  0
  4 26  1  0
  4 43  1  0
  4 45  1  0
  4 49  1  0
  5 28  1  0
  5 35  2  0
  5 41  1  0
  6 20  1  0
  6 33  1  0
  6 44  1  0
  7 10  2  0
  7 25  1  0
  8 18  1  0
  8 37  1  0
  8 41  2  0
  9 17  1  0
  9 50  1  0
 10 42  1  0
 11 12  1  0
 11 38  2  0
 12 22  2  0
 12 39  1  0
 13 31  2  0
 13 57  1  0
 14 29  2  0
 15 53  1  0
 16 28  1  0
 16 37  2  0
 17 24  1  0
 17 42  2  0
 18 19  1  0
 18 30  1  0
 19 34  2  0
 20 56  1  0
 21 33  2  0
 22 31  1  0
 23 27  1  0
 23 42  1  0
 23 55  1  0
 24 25  2  0
 25 51  1  0
 27 50  1  0
 28 53  1  0
 29 39  1  0
 29 52  1  0
 30 49  1  0
 32 43  1  0
 32 56  1  0
 36 43  2  0
 38 52  1  0
 39 57  2  0
 40 54  1  0
 41 45  1  0
 44 47  2  0
 44 48  1  0
 46 53  2  0
 51 54  1  0
M  END
>  <ID>  (1) 
conformer_0

$$$$
