
     RDKit          3D

 43 46  0  0  0  0  0  0  0  0999 V2000
   26.4796    9.7181   34.9658 C   0  0  0  0  0  0  0  0  0  0  0  0
   30.3233    9.4977   34.8807 C   0  0  0  0  0  0  0  0  0  0  0  0
   22.4867    8.9307   28.6435 C   0  0  0  0  0  0  0  0  0  0  0  0
   19.8583   10.5021   30.8616 C   0  0  0  0  0  0  0  0  0  0  0  0
   22.5066    8.3992   27.3591 C   0  0  0  0  0  0  0  0  0  0  0  0
   18.0956    7.0596   29.1757 C   0  0  0  0  0  0  0  0  0  0  0  0
   28.9461    9.9529   35.0567 C   0  0  0  0  0  0  0  0  0  0  0  0
   22.9627   11.0818   34.0720 O   0  0  0  0  0  0  0  0  0  0  0  0
   21.2229   12.9137   34.1811 C   0  0  0  0  0  0  0  0  0  0  0  0
   21.2696    9.0018   29.3403 N   0  0  0  0  0  0  0  0  0  0  0  0
   26.2671   11.0137   35.3308 C   0  0  0  0  0  0  0  0  0  0  0  0
   23.5197    8.7795   32.7924 C   0  0  0  0  0  0  0  0  0  0  0  0
   17.0510    7.3629   25.4952 C   0  0  0  0  0  0  0  0  0  0  0  0
   24.1031    7.5785   32.6078 O   0  0  0  0  0  0  0  0  0  0  0  0
   23.5768    8.3529   26.5371 O   0  0  0  0  0  0  0  0  0  0  0  0
   21.9969   10.9570   33.0651 C   0  0  0  0  0  0  0  0  0  0  0  0
   20.9085   11.8072   33.3220 O   0  0  0  0  0  0  0  0  0  0  0  0
   18.9892    8.0083   29.6550 C   0  0  0  0  0  0  0  0  0  0  0  0
   24.2373   12.3487   35.9638 O   0  0  0  0  0  0  0  0  0  0  0  0
   18.0311    6.7866   27.8248 C   0  0  0  0  0  0  0  0  0  0  0  0
   22.7401    7.7747   34.8152 O   0  0  0  0  0  0  0  0  0  0  0  0
   21.2623    9.9245   30.5277 C   0  0  0  0  0  0  0  0  0  0  0  0
   16.8189    8.7230   30.5472 O   0  0  0  0  0  1  0  0  0  0  0  0
   23.5914    9.6027   36.4263 O   0  0  0  0  0  0  0  0  0  0  0  0
   18.1396    8.5998   31.0667 S   0  0  0  0  0  4  0  0  0  0  0  0
   28.7168   11.3226   35.3907 C   0  0  0  0  0  0  0  0  0  0  0  0
   18.9672    7.3857   26.9847 C   0  0  0  0  0  0  0  0  0  0  0  0
   17.5710    9.8964   32.3082 C   0  0  0  0  0  0  0  0  0  0  0  0
   21.3165    7.9063   26.7855 C   0  0  0  0  0  0  0  0  0  0  0  0
   18.9291    7.9000   32.0749 O   0  0  0  0  0  1  0  0  0  0  0  0
   27.7946    9.1663   34.8708 C   0  0  0  0  0  0  0  0  0  0  0  0
   25.1694    9.0223   34.7029 C   0  0  0  0  0  0  0  0  0  0  0  0
   18.4881    7.5673   25.6987 O   0  0  0  0  0  0  0  0  0  0  0  0
   30.3662    8.0750   34.7989 N   0  0  0  0  0  0  0  0  0  0  0  0
   21.3008    7.4831   25.5385 O   0  0  0  0  0  0  0  0  0  0  0  0
   24.8281   11.3523   35.4091 C   0  0  0  0  0  0  0  0  0  0  0  0
   20.1482    7.8478   27.5509 C   0  0  0  0  0  0  0  0  0  0  0  0
   22.9011    9.0543   34.1857 C   0  0  0  0  0  0  0  0  0  0  0  0
   18.8204   10.8400   32.0958 C   0  0  0  0  0  0  0  0  0  0  0  0
   27.3942   11.8142   35.5180 C   0  0  0  0  0  0  0  0  0  0  0  0
   23.8984   10.0705   35.0154 C   0  0  0  0  0  0  0  0  0  0  0  0
   20.1746    8.3082   28.8944 C   0  0  0  0  0  0  0  0  0  0  0  0
   21.9603   10.2735   31.8307 O   0  0  0  0  0  0  0  0  0  0  0  0
  1 11  2  0
  1 31  1  0
  1 32  1  0
  2  7  1  0
  2 34  1  0
  3  5  2  0
  3 10  1  0
  4 22  1  0
  4 39  1  0
  5 15  1  0
  5 29  1  0
  6 18  1  0
  6 20  2  0
  7 26  1  0
  7 31  2  0
  8 16  1  0
  8 41  1  0
  9 17  1  0
 10 22  1  0
 10 42  1  0
 11 36  1  0
 11 40  1  0
 12 14  1  0
 12 38  1  0
 13 33  1  0
 16 17  1  0
 16 43  1  0
 18 25  1  0
 18 42  1  0
 19 36  2  0
 20 27  1  0
 21 38  1  0
 22 43  1  0
 23 25  1  0
 24 41  1  0
 25 28  1  0
 25 30  1  0
 26 40  2  0
 27 33  1  0
 27 37  1  0
 28 39  1  0
 29 35  1  0
 29 37  2  0
 36 41  1  0
 37 42  1  0
 38 41  1  0
M  END
>  <ID>  (1) 
conformer_0

$$$$
