
     RDKit          3D

 33 35  0  0  0  0  0  0  0  0999 V2000
   22.3471    8.2197   34.9313 C   0  0  0  0  0  0  0  0  0  0  0  0
   23.3651    9.1547   35.5606 C   0  0  0  0  0  0  0  0  0  0  0  0
   16.6354    9.4219   32.5025 C   0  0  0  0  0  0  0  0  0  0  0  0
   22.0988    8.7604   27.9461 C   0  0  0  0  0  0  0  0  0  0  0  0
   25.7090    9.9677   35.0605 C   0  0  0  0  0  0  0  0  0  0  0  0
   17.9879   11.4456   32.5914 C   0  0  0  0  0  0  0  0  0  0  0  0
   21.3441    9.1393   32.9249 C   0  0  0  0  0  0  0  0  0  0  0  0
   20.5420    8.5048   29.6317 C   0  0  0  0  0  0  0  0  0  0  0  0
   30.3968   11.0200   35.3372 N   0  0  0  0  0  0  0  0  0  0  0  0
   20.8055    8.2770   31.9617 N   0  0  0  0  0  0  0  0  0  0  0  0
   17.5135    7.5975   31.3723 O   0  0  0  0  0  0  0  0  0  0  0  0
   26.4732   12.1833   35.4825 C   0  0  0  0  0  0  0  0  0  0  0  0
   29.9874    8.8345   35.0628 N   0  0  0  0  0  0  0  0  0  0  0  0
   22.5694    8.2574   33.5179 C   0  0  0  0  0  0  0  0  0  0  0  0
   16.8013   10.7577   32.8891 C   0  0  0  0  0  0  0  0  0  0  0  0
   27.0417    9.5566   34.9128 C   0  0  0  0  0  0  0  0  0  0  0  0
   27.7871   11.8086   35.4128 C   0  0  0  0  0  0  0  0  0  0  0  0
   22.7784    9.3688   32.7179 C   0  0  0  0  0  0  0  0  0  0  0  0
   17.6886    8.7953   31.8190 C   0  0  0  0  0  0  0  0  0  0  0  0
   21.0166    7.5083   26.2276 O   0  0  0  0  0  0  0  0  0  0  0  0
   21.0439    7.9457   27.4879 C   0  0  0  0  0  0  0  0  0  0  0  0
   18.9088    9.4626   31.5599 C   0  0  0  0  0  0  0  0  0  0  0  0
   29.5024   10.1143   35.1563 C   0  0  0  0  0  0  0  0  0  0  0  0
   19.9599    8.6758   30.9501 C   0  0  0  0  0  0  0  0  0  0  0  0
   21.7532    9.1336   29.2975 C   0  0  0  0  0  0  0  0  0  0  0  0
   22.2421    7.5599   25.4921 C   0  0  0  0  0  0  0  0  0  0  0  0
   19.2257    5.8202   29.7353 O   0  0  0  0  0  0  0  0  0  0  0  0
   19.1242    6.7729   28.6090 C   0  0  0  0  0  0  0  0  0  0  0  0
   28.0930   10.4699   35.1835 C   0  0  0  0  0  0  0  0  0  0  0  0
   24.6328    9.0461   34.9148 N   0  0  0  0  0  0  0  0  0  0  0  0
   25.4746   11.2722   35.3620 N   0  0  0  0  0  0  0  0  0  0  0  0
   19.0104   10.7819   31.9148 C   0  0  0  0  0  0  0  0  0  0  0  0
   20.1777    7.7339   28.5785 N   0  0  0  0  0  0  0  0  0  0  0  0
  1  2  1  0
  1 14  1  0
  2 30  1  0
  3 15  2  0
  3 19  1  0
  4 21  1  0
  4 25  1  0
  5 16  1  0
  5 30  1  0
  5 31  2  0
  6 15  1  0
  6 32  2  0
  7 10  1  0
  7 18  1  0
  8 24  1  0
  8 25  1  0
  8 33  1  0
  9 23  2  0
 10 24  1  0
 11 19  1  0
 12 17  2  0
 12 31  1  0
 13 23  1  0
 14 18  1  0
 16 29  2  0
 17 29  1  0
 19 22  2  0
 20 21  1  0
 20 26  1  0
 21 33  1  0
 22 24  1  0
 22 32  1  0
 23 29  1  0
 27 28  1  0
 28 33  1  0
M  END
>  <ID>  (1) 
conformer_0

$$$$
