
     RDKit          3D

 33 36  0  0  0  0  0  0  0  0999 V2000
   22.8138    8.4087   27.2326 C   0  0  0  0  0  0  0  0  0  0  0  0
   20.7813   11.4363   31.5809 C   0  0  0  0  0  0  0  0  0  0  0  0
   20.6625    8.7275   28.4823 C   0  0  0  0  0  0  0  0  0  0  0  0
   17.7183    6.3259   26.0475 C   0  0  0  0  0  0  0  0  0  0  0  0
   20.6700    9.5614   30.0495 C   0  0  0  0  0  0  0  0  0  0  0  0
   19.9209    8.1440   27.3685 C   0  0  0  0  0  0  0  0  0  0  0  0
   28.9267   10.8407   35.1532 C   0  0  0  0  0  0  0  0  0  0  0  0
   28.6031    9.5023   35.0161 C   0  0  0  0  0  0  0  0  0  0  0  0
   20.8814    9.0618   32.4652 C   0  0  0  0  0  0  0  0  0  0  0  0
   27.8585   11.7512   35.2046 C   0  0  0  0  0  0  0  0  0  0  0  0
   19.1254   11.7329   33.2496 O   0  0  0  0  0  0  0  0  0  0  0  0
   20.6802    7.7767   26.2131 C   0  0  0  0  0  0  0  0  0  0  0  0
   18.4739    8.2157   29.1968 C   0  0  0  0  0  0  0  0  0  0  0  0
   24.6561    9.6836   34.7358 C   0  0  0  0  0  0  0  0  0  0  0  0
   26.1584    9.9840   34.9662 C   0  0  0  0  0  0  0  0  0  0  0  0
   26.5269   11.3282   35.1217 C   0  0  0  0  0  0  0  0  0  0  0  0
   29.6755    8.5448   35.0265 N   0  0  0  0  0  0  0  0  0  0  0  0
   20.8674   10.0046   31.3691 C   0  0  0  0  0  0  0  0  0  0  0  0
   20.3355   11.8802   32.9407 C   0  0  0  0  0  0  0  0  0  0  0  0
   20.0022    8.1500   32.4893 O   0  0  0  0  0  0  0  0  0  0  0  0
   18.6143    7.7832   27.8535 C   0  0  0  0  0  0  0  0  0  0  0  0
   22.0235    8.0479   26.0799 C   0  0  0  0  0  0  0  0  0  0  0  0
   22.0835    9.2062   33.3516 C   0  0  0  0  0  0  0  0  0  0  0  0
   17.5380    7.7603   30.0201 N   0  0  0  0  0  0  0  0  0  0  0  0
   17.4767    7.5598   26.9404 C   0  0  0  0  0  0  0  0  0  0  0  0
   19.6751    8.8171   29.5680 N   0  0  0  0  0  0  0  0  0  0  0  0
   21.1681   12.5470   33.6098 O   0  0  0  0  0  0  0  0  0  0  0  0
   23.1074    9.9461   32.8498 C   0  0  0  0  0  0  0  0  0  0  0  0
   22.2911    8.6863   34.6601 C   0  0  0  0  0  0  0  0  0  0  0  0
   27.2851    9.0273   34.8863 C   0  0  0  0  0  0  0  0  0  0  0  0
   24.2213   10.2235   33.5080 C   0  0  0  0  0  0  0  0  0  0  0  0
   23.5402    8.9209   35.3589 C   0  0  0  0  0  0  0  0  0  0  0  0
   22.1206    8.7262   28.3750 C   0  0  0  0  0  0  0  0  0  0  0  0
  1 22  1  0
  1 33  2  0
  2 18  1  0
  2 19  1  0
  3  6  1  0
  3 26  1  0
  3 33  1  0
  4 25  1  0
  5 18  1  0
  5 26  1  0
  6 12  2  0
  6 21  1  0
  7  8  2  0
  7 10  1  0
  8 17  1  0
  8 30  1  0
  9 18  1  0
  9 20  2  0
  9 23  1  0
 10 16  2  0
 11 19  2  0
 12 22  1  0
 13 21  1  0
 13 24  2  0
 13 26  1  0
 14 15  1  0
 14 31  2  0
 14 32  1  0
 15 16  1  0
 15 30  2  0
 19 27  1  0
 21 25  1  0
 23 28  2  0
 23 29  1  0
 28 31  1  0
 29 32  2  0
M  END
>  <ID>  (1) 
conformer_0

$$$$
