
     RDKit          3D

 24 25  0  0  0  0  0  0  0  0999 V2000
   19.0928    7.5423   28.1128 C   0  0  0  0  0  0  0  0  0  0  0  0
   20.3597    8.9586   32.5731 C   0  0  0  0  0  0  0  0  0  0  0  0
   27.2835    8.7847   34.5982 C   0  0  0  0  0  0  0  0  0  0  0  0
   21.5277    9.9531   32.6139 C   0  0  0  0  0  0  0  0  0  0  0  0
   20.7660    9.2060   28.7467 C   0  0  0  0  0  0  0  0  0  0  0  0
   20.9967    8.1053   26.6513 C   0  0  0  0  0  0  0  0  0  0  0  0
   22.5364    9.9017   33.8424 C   0  0  0  0  0  0  0  0  0  0  0  0
   18.4790    7.6260   29.4968 C   0  0  0  0  0  0  0  0  0  0  0  0
   19.8737    8.6939   31.2074 C   0  0  0  0  0  0  0  0  0  0  0  0
   18.8899    7.7387   30.8575 N   0  0  0  0  0  0  0  0  0  0  0  0
   23.7494    9.9374   36.1855 O   0  0  0  0  0  0  0  0  0  0  0  0
   27.9754   11.4281   35.1998 C   0  0  0  0  0  0  0  0  0  0  0  0
   28.6348    9.0985   34.8503 C   0  0  0  0  0  0  0  0  0  0  0  0
   22.3417    7.7816   35.0122 C   0  0  0  0  0  0  0  0  0  0  0  0
   20.8289    8.9140   30.1536 C   0  0  0  0  0  0  0  0  0  0  0  0
   18.5334    6.9226   27.1581 O   0  0  0  0  0  0  0  0  0  0  0  0
   24.9535    9.5354   34.1482 C   0  0  0  0  0  0  0  0  0  0  0  0
   26.3111    9.8229   34.6093 C   0  0  0  0  0  0  0  0  0  0  0  0
   20.1795    8.2977   27.8374 N   0  0  0  0  0  0  0  0  0  0  0  0
   23.8199   10.2254   34.8054 C   0  0  0  0  0  0  0  0  0  0  0  0
   22.6061    8.4713   33.7333 O   0  0  0  0  0  0  0  0  0  0  0  0
   28.9380   10.4205   35.0985 C   0  0  0  0  0  0  0  0  0  0  0  0
   30.2610   10.7608   35.2017 N   0  0  0  0  0  0  0  0  0  0  0  0
   26.6782   11.0907   34.9618 C   0  0  0  0  0  0  0  0  0  0  0  0
  1  8  1  0
  1 16  2  0
  1 19  1  0
  2  4  1  0
  2  9  1  0
  3 13  2  0
  3 18  1  0
  4  7  1  0
  5 15  1  0
  5 19  1  0
  6 19  1  0
  7 20  1  0
  7 21  1  0
  8 10  1  0
  9 10  1  0
  9 15  1  0
 11 20  1  0
 12 22  2  0
 12 24  1  0
 13 22  1  0
 14 21  1  0
 17 18  1  0
 17 20  1  0
 18 24  2  0
 22 23  1  0
M  END
>  <ID>  (1) 
conformer_0

$$$$
