
     RDKit          3D

 44 48  0  0  0  0  0  0  0  0999 V2000
   19.5216   13.4324   33.0951 C   0  0  0  0  0  0  0  0  0  0  0  0
   24.2887    9.3589   34.4265 C   0  0  0  0  0  0  0  0  0  0  0  0
   20.8526    9.7288   30.0420 C   0  0  0  0  0  0  0  0  0  0  0  0
   22.5607   13.4674   35.2872 N   0  0  0  0  0  0  0  0  0  0  0  0
   19.3656    6.4185   29.8786 O   0  0  0  0  0  0  0  0  0  0  0  0
   21.0492    8.8334   28.8891 C   0  0  0  0  0  0  0  0  0  0  0  0
   17.6903    7.8634   28.8678 C   0  0  0  0  0  0  0  0  0  0  0  0
   16.9875    7.7698   27.5994 C   0  0  0  0  0  0  0  0  0  0  0  0
   22.8312    8.9859   34.4391 C   0  0  0  0  0  0  0  0  0  0  0  0
   30.6345   11.2341   35.4040 O   0  0  0  0  0  0  0  0  0  0  0  0
   24.1977   11.6374   35.1871 N   0  0  0  0  0  0  0  0  0  0  0  0
   28.3964   11.9492   35.7622 C   0  0  0  0  0  0  0  0  0  0  0  0
   18.3386   10.2867   30.1226 C   0  0  0  0  0  0  0  0  0  0  0  0
   21.8209    7.2842   24.9717 C   0  0  0  0  0  0  0  0  0  0  0  0
   29.3247   10.9721   35.4247 C   0  0  0  0  0  0  0  0  0  0  0  0
   20.3799    7.5558   26.9643 C   0  0  0  0  0  0  0  0  0  0  0  0
   17.3294    9.4224   30.7357 N   0  0  0  0  0  0  0  0  0  0  0  0
   24.9028   10.3241   35.4233 C   0  0  0  0  0  0  0  0  0  0  0  0
   22.2201    9.1317   32.0482 C   0  0  0  0  0  0  0  0  0  0  0  0
   23.8027   12.9434   35.5152 C   0  0  0  0  0  0  0  0  0  0  0  0
   22.0478    9.4758   33.3862 N   0  0  0  0  0  0  0  0  0  0  0  0
   19.0184    7.3218   29.0073 C   0  0  0  0  0  0  0  0  0  0  0  0
   22.5165    7.9511   31.8268 O   0  0  0  0  0  0  0  0  0  0  0  0
   26.5257   10.4322   35.4060 C   0  0  0  0  0  0  0  0  0  0  0  0
   24.7026   13.6415   36.0017 O   0  0  0  0  0  0  0  0  0  0  0  0
   28.8937    9.7150   35.1016 C   0  0  0  0  0  0  0  0  0  0  0  0
   22.6243    8.3317   27.0453 C   0  0  0  0  0  0  0  0  0  0  0  0
   21.3805   12.1142   33.5711 C   0  0  0  0  0  0  0  0  0  0  0  0
   17.0067    8.1416   30.0386 N   0  0  0  0  0  0  0  0  0  0  0  0
   19.8632   11.4647   31.6500 C   0  0  0  0  0  0  0  0  0  0  0  0
   20.3039   14.0330   34.1144 C   0  0  0  0  0  0  0  0  0  0  0  0
   21.6067    7.7212   26.3539 C   0  0  0  0  0  0  0  0  0  0  0  0
   22.0656   10.0120   30.9021 C   0  0  0  0  0  0  0  0  0  0  0  0
   29.8676    8.7820   34.7844 F   0  0  0  0  0  0  0  0  0  0  0  0
   24.5935    9.8913   36.7456 O   0  0  0  0  0  0  0  0  0  0  0  0
   20.2350   12.2492   32.7063 C   0  0  0  0  0  0  0  0  0  0  0  0
   21.5382   13.1866   34.4022 C   0  0  0  0  0  0  0  0  0  0  0  0
   20.1560    7.9277   28.2642 C   0  0  0  0  0  0  0  0  0  0  0  0
   27.5184    9.4192   35.0865 C   0  0  0  0  0  0  0  0  0  0  0  0
   27.0699   11.6322   35.7612 C   0  0  0  0  0  0  0  0  0  0  0  0
   22.4914    7.7641   34.9296 O   0  0  0  0  0  0  0  0  0  0  0  0
   25.0638    8.6952   33.5950 O   0  0  0  0  0  0  0  0  0  0  0  0
   22.3371    8.8938   28.2823 C   0  0  0  0  0  0  0  0  0  0  0  0
   19.7488   10.4920   30.6033 C   0  0  0  0  0  0  0  0  0  0  0  0
  1 31  1  0
  1 36  1  0
  2  9  1  0
  2 18  1  0
  2 42  1  0
  3  6  1  0
  3 33  1  0
  3 44  1  0
  4 20  1  0
  4 37  2  0
  5 22  1  0
  6 38  1  0
  6 43  1  0
  7  8  1  0
  7 22  1  0
  7 29  1  0
  9 21  1  0
  9 41  2  0
 10 15  1  0
 11 18  1  0
 11 20  1  0
 12 15  1  0
 12 40  1  0
 13 17  1  0
 13 44  1  0
 14 32  1  0
 15 26  2  0
 16 32  2  0
 16 38  1  0
 17 29  2  0
 18 24  1  0
 18 35  1  0
 19 21  1  0
 19 23  2  0
 19 33  1  0
 20 25  2  0
 22 38  1  0
 24 39  1  0
 24 40  2  0
 26 34  1  0
 26 39  1  0
 27 32  1  0
 27 43  2  0
 28 36  1  0
 28 37  1  0
 30 36  2  0
 30 44  2  0
 31 37  1  0
M  END
>  <ID>  (1) 
conformer_0

$$$$
