
     RDKit          3D

 27 30  0  0  0  0  0  0  0  0999 V2000
   18.4394    7.1898   28.1937 C   0  0  0  0  0  0  0  0  0  0  0  0
   20.7203    8.5239   33.3489 S   0  0  0  0  0  0  0  0  0  0  0  0
   20.7059    8.4960   28.9058 C   0  0  0  0  0  0  0  0  0  0  0  0
   21.2324    8.7021   32.0339 N   0  0  0  0  0  0  0  0  0  0  0  0
   23.6617    9.2025   35.3709 C   0  0  0  0  0  0  0  0  0  0  0  0
   29.7884   10.8673   35.2877 N   0  0  0  0  0  0  0  0  0  0  0  0
   30.0688    8.5588   34.8967 N   0  0  0  0  0  0  0  0  0  0  0  0
   19.3098    7.5569   27.1770 C   0  0  0  0  0  0  0  0  0  0  0  0
   20.1238    8.2763   31.3003 C   0  0  0  0  0  0  0  0  0  0  0  0
   19.0205    7.2972   25.8473 O   0  0  0  0  0  0  0  0  0  0  0  0
   20.4578    8.2455   27.5604 C   0  0  0  0  0  0  0  0  0  0  0  0
   29.2136    9.6889   35.1011 C   0  0  0  0  0  0  0  0  0  0  0  0
   22.5024    9.1970   31.8540 C   0  0  0  0  0  0  0  0  0  0  0  0
   23.4665    9.3437   32.9892 C   0  0  0  0  0  0  0  0  0  0  0  0
   18.1994    6.1979   25.5328 C   0  0  0  0  0  0  0  0  0  0  0  0
   28.9643   11.8953   35.5723 C   0  0  0  0  0  0  0  0  0  0  0  0
   27.1097   10.5438   35.5023 C   0  0  0  0  0  0  0  0  0  0  0  0
   24.9582    9.5240   34.8275 N   0  0  0  0  0  0  0  0  0  0  0  0
   24.8604    9.6225   33.3742 C   0  0  0  0  0  0  0  0  0  0  0  0
   27.6438   11.8179   35.6454 N   0  0  0  0  0  0  0  0  0  0  0  0
   21.6495    8.3509   34.3133 C   0  0  0  0  0  0  0  0  0  0  0  0
   19.8602    8.0932   29.8881 C   0  0  0  0  0  0  0  0  0  0  0  0
   25.6337   10.3837   35.7175 C   0  0  0  0  0  0  0  0  0  0  0  0
   18.6803    7.4754   29.5441 C   0  0  0  0  0  0  0  0  0  0  0  0
   22.9226    9.6192   30.7413 O   0  0  0  0  0  0  0  0  0  0  0  0
   22.8365    9.0120   34.2507 C   0  0  0  0  0  0  0  0  0  0  0  0
   27.8844    9.4868   35.1219 N   0  0  0  0  0  0  0  0  0  0  0  0
  1  8  2  0
  1 24  1  0
  2  4  1  0
  2 21  1  0
  3 11  2  0
  3 22  1  0
  4  9  1  0
  4 13  1  0
  5 18  1  0
  5 26  1  0
  6 12  1  0
  6 16  1  0
  7 12  2  0
  8 10  1  0
  8 11  1  0
  9 22  1  0
 10 15  1  0
 12 27  1  0
 13 14  1  0
 13 25  2  0
 14 19  1  0
 14 26  2  0
 16 20  2  0
 17 20  1  0
 17 23  1  0
 17 27  2  0
 18 19  1  0
 18 23  1  0
 21 26  1  0
 22 24  2  0
M  END
>  <ID>  (1) 
conformer_0

$$$$
