
     RDKit          3D

 31 33  0  0  0  0  0  0  0  0999 V2000
   21.1023    9.2029   30.7095 N   0  0  0  0  0  0  0  0  0  0  0  0
   24.3288    9.9208   32.8843 C   0  0  0  0  0  0  0  0  0  0  0  0
   18.4620    6.8716   27.9993 C   0  0  0  0  0  0  0  0  0  0  0  0
   29.4506    9.9268   34.9069 C   0  0  0  0  0  0  0  0  0  0  0  0
   21.6578    8.4555   28.5107 O   0  0  0  0  0  0  0  0  0  0  0  0
   18.8870    5.5810   27.5824 O   0  0  0  0  0  0  0  0  0  0  0  0
   22.0739    9.6304   34.3684 C   0  0  0  0  0  0  0  0  0  0  0  0
   20.4628    8.8778   29.2775 C   0  0  0  0  0  0  0  0  0  0  0  0
   18.5757    9.9849   27.8776 O   0  0  0  0  0  0  0  0  0  0  0  0
   23.2713    7.6251   34.4631 O   0  0  0  0  0  0  0  0  0  0  0  0
   21.8657    9.4080   32.9210 C   0  0  0  0  0  0  0  0  0  0  0  0
   22.6106    9.1659   30.7432 C   0  0  0  0  0  0  0  0  0  0  0  0
   23.4528    9.1679   36.3410 O   0  0  0  0  0  0  0  0  0  0  0  0
   28.9789   11.2135   35.1002 C   0  0  0  0  0  0  0  0  0  0  0  0
   23.3583    8.9827   34.9408 C   0  0  0  0  0  0  0  0  0  0  0  0
   30.7629    9.7275   34.7086 O   0  0  0  0  0  0  0  0  0  0  0  0
   18.8082    7.3594   25.6566 C   0  0  0  0  0  0  0  0  0  0  0  0
   19.5470    9.0832   27.9786 C   0  0  0  0  0  0  0  0  0  0  0  0
   24.6034    9.6384   34.2935 C   0  0  0  0  0  0  0  0  0  0  0  0
   18.5610    7.0177   29.4963 C   0  0  0  0  0  0  0  0  0  0  0  0
   17.5403    7.4264   30.1246 O   0  0  0  0  0  0  0  0  0  0  0  0
   23.0967    9.4158   32.1354 C   0  0  0  0  0  0  0  0  0  0  0  0
   27.6174   11.4126   35.2695 C   0  0  0  0  0  0  0  0  0  0  0  0
   26.7296   10.3621   35.1097 C   0  0  0  0  0  0  0  0  0  0  0  0
   19.5027    6.4943   30.1780 O   0  0  0  0  0  0  0  0  0  0  0  0
   19.5973    9.8362   32.3874 O   0  0  0  0  0  0  0  0  0  0  0  0
   27.1994    9.0807   34.9623 C   0  0  0  0  0  0  0  0  0  0  0  0
   25.3342   10.5941   34.9885 O   0  0  0  0  0  0  0  0  0  0  0  0
   20.7398    9.4680   32.0529 C   0  0  0  0  0  0  0  0  0  0  0  0
   28.5936    8.8628   34.8488 C   0  0  0  0  0  0  0  0  0  0  0  0
   19.3283    7.8361   27.0572 C   0  0  0  0  0  0  0  0  0  0  0  0
  1  8  1  0
  1 12  1  0
  1 29  1  0
  2 19  1  0
  2 22  1  0
  3  6  1  0
  3 20  1  0
  3 31  1  0
  4 14  2  0
  4 16  1  0
  4 30  1  0
  5  8  2  0
  7 11  1  0
  7 15  1  0
  8 18  1  0
  9 18  1  0
 10 15  1  0
 11 22  1  0
 11 29  1  0
 12 22  1  0
 13 15  1  0
 14 23  1  0
 15 19  1  0
 17 31  1  0
 18 31  1  0
 19 28  1  0
 20 21  2  0
 20 25  1  0
 23 24  2  0
 24 27  1  0
 24 28  1  0
 26 29  2  0
 27 30  2  0
M  END
>  <ID>  (1) 
conformer_0

$$$$
