
     RDKit          3D

 39 45  0  0  0  0  0  0  0  0999 V2000
   28.3416   11.6147   35.6411 C   0  0  0  0  0  0  0  0  0  0  0  0
   21.8151    8.7479   29.3022 C   0  0  0  0  0  0  0  0  0  0  0  0
   21.9227   11.9975   34.3136 C   0  0  0  0  0  0  0  0  0  0  0  0
   29.5273   13.3094   36.8353 C   0  0  0  0  0  0  0  0  0  0  0  0
   27.1150   12.2298   35.9292 C   0  0  0  0  0  0  0  0  0  0  0  0
   25.7902   10.3938   35.1935 C   0  0  0  0  0  0  0  0  0  0  0  0
   28.3317   13.9657   37.1133 C   0  0  0  0  0  0  0  0  0  0  0  0
   19.0102    9.3088   31.4203 C   0  0  0  0  0  0  0  0  0  0  0  0
   22.8430    8.4524   32.1979 C   0  0  0  0  0  0  0  0  0  0  0  0
   19.5692    8.4611   28.9395 C   0  0  0  0  0  0  0  0  0  0  0  0
   20.8384    8.4145   28.3066 C   0  0  0  0  0  0  0  0  0  0  0  0
   17.8501    5.6287   25.7895 O   0  0  0  0  0  1  0  0  0  0  0  0
   23.8835    9.4914   36.4574 O   0  0  0  0  0  0  0  0  0  0  0  0
   23.0990    9.9317   34.2522 C   0  0  0  0  0  0  0  0  0  0  0  0
   27.1366   13.4340   36.6644 C   0  0  0  0  0  0  0  0  0  0  0  0
   26.5423    9.4741   34.8687 O   0  0  0  0  0  0  0  0  0  0  0  0
   21.1341    8.9447   30.5656 C   0  0  0  0  0  0  0  0  0  0  0  0
   22.3396    8.1407   26.4015 C   0  0  0  0  0  0  0  0  0  0  0  0
   24.4845    8.0357   33.6404 O   0  0  0  0  0  0  0  0  0  0  0  0
   18.5029    8.1038   28.2265 C   0  0  0  0  0  0  0  0  0  0  0  0
   17.2840    6.8885   26.2939 S   0  0  0  0  0  4  0  0  0  0  0  0
   21.0863    9.9199   32.8568 C   0  0  0  0  0  0  0  0  0  0  0  0
   22.3376    7.7051   34.5700 O   0  0  0  0  0  0  0  0  0  0  0  0
   18.6644    7.5729   26.9132 C   0  0  0  0  0  0  0  0  0  0  0  0
   23.2156    8.4653   33.7161 C   0  0  0  0  0  0  0  0  0  0  0  0
   19.6586    9.8550   32.6250 C   0  0  0  0  0  0  0  0  0  0  0  0
   29.5552   12.1528   36.0961 C   0  0  0  0  0  0  0  0  0  0  0  0
   24.1119   10.4319   35.2360 C   0  0  0  0  0  0  0  0  0  0  0  0
   15.7253    6.7862   25.5961 C   0  0  0  0  0  0  0  0  0  0  0  0
   19.7388    8.8767   30.3146 C   0  0  0  0  0  0  0  0  0  0  0  0
   21.6796    9.1350   31.8383 C   0  0  0  0  0  0  0  0  0  0  0  0
   19.9192    7.6258   26.2834 C   0  0  0  0  0  0  0  0  0  0  0  0
   21.0460    8.0654   26.9785 C   0  0  0  0  0  0  0  0  0  0  0  0
   23.0099   12.5960   35.0454 C   0  0  0  0  0  0  0  0  0  0  0  0
   16.2564    7.4903   27.0953 O   0  0  0  0  0  1  0  0  0  0  0  0
   22.5945    8.0847   25.1392 N   0  0  0  0  0  0  0  0  0  0  0  0
   24.1696   11.8687   35.3938 C   0  0  0  0  0  0  0  0  0  0  0  0
   21.9837   10.6199   33.8226 C   0  0  0  0  0  0  0  0  0  0  0  0
   25.9157   11.7666   35.5196 N   0  0  0  0  0  0  0  0  0  0  0  0
  1  5  1  0
  1 27  1  0
  2 11  1  0
  2 17  1  0
  3 34  2  0
  3 38  1  0
  4  7  1  0
  4 27  2  0
  5 15  2  0
  5 39  1  0
  6 16  2  0
  6 28  1  0
  6 39  1  0
  7 15  1  0
  8 26  1  0
  8 30  2  0
  9 25  1  0
  9 31  2  0
 10 11  2  0
 10 20  1  0
 10 30  1  0
 11 33  1  0
 12 21  1  0
 13 28  1  0
 14 25  1  0
 14 28  1  0
 14 38  2  0
 17 30  1  0
 17 31  1  0
 18 33  1  0
 18 36  2  0
 19 25  1  0
 20 24  2  0
 21 24  1  0
 21 29  1  0
 21 35  1  0
 22 26  2  0
 22 31  1  0
 22 38  1  0
 23 25  1  0
 24 32  1  0
 28 37  1  0
 32 33  2  0
 34 37  1  0
 37 39  1  0
M  END
>  <ID>  (1) 
conformer_0

$$$$
