
     RDKit          3D

 42 44  0  0  0  0  0  0  0  0999 V2000
   19.9551   13.9778   30.2132 C   0  0  0  0  0  0  0  0  0  0  0  0
   29.4736    8.9507   34.9235 C   0  0  0  0  0  0  0  0  0  0  0  0
   23.5091    9.5502   35.8887 C   0  0  0  0  0  0  0  0  0  0  0  0
   16.7491    8.3812   24.9862 C   0  0  0  0  0  0  0  0  0  0  0  0
   19.6209   12.0507   32.3368 C   0  0  0  0  0  0  0  0  0  0  0  0
   19.4307   14.6359   32.9384 C   0  0  0  0  0  0  0  0  0  0  0  0
   27.1717    8.3857   34.5167 C   0  0  0  0  0  0  0  0  0  0  0  0
   23.1745    9.3809   34.4799 C   0  0  0  0  0  0  0  0  0  0  0  0
   22.2424    8.2598   34.2575 C   0  0  0  0  0  0  0  0  0  0  0  0
   17.7445    7.4471   26.0152 S   0  0  0  0  0  3  0  0  0  0  0  0
   28.1858    9.3246   34.8511 C   0  0  0  0  0  0  0  0  0  0  0  0
   18.5736    6.8848   30.3676 C   0  0  0  0  0  0  0  0  0  0  0  0
   19.7655   12.5808   29.9207 C   0  0  0  0  0  0  0  0  0  0  0  0
   19.7186   15.3597   30.6628 C   0  0  0  0  0  0  0  0  0  0  0  0
   22.6576    7.1860   34.9612 O   0  0  0  0  0  0  0  0  0  0  0  0
   20.8858    8.3779   33.8159 C   0  0  0  0  0  0  0  0  0  0  0  0
   25.4397   11.9657   36.4405 O   0  0  0  0  0  0  0  0  0  0  0  0
   25.5435   10.9108   35.8094 C   0  0  0  0  0  0  0  0  0  0  0  0
   22.4535   10.1696   32.3004 C   0  0  0  0  0  0  0  0  0  0  0  0
   30.4128    9.8947   35.1908 C   0  0  0  0  0  0  0  0  0  0  0  0
   24.8749    9.7618   36.2240 O   0  0  0  0  0  0  0  0  0  0  0  0
   19.8129    9.2379   28.6376 S   0  0  0  0  0  0  0  0  0  0  0  0
   17.3606   10.5698   24.2734 O   0  0  0  0  0  0  0  0  0  0  0  0
   18.0519    9.9418   26.4522 C   0  0  0  0  0  0  0  0  0  0  0  0
   21.1061    9.8399   32.0441 C   0  0  0  0  0  0  0  0  0  0  0  0
   18.6666    6.9917   28.8915 C   0  0  0  0  0  0  0  0  0  0  0  0
   17.1981    9.8156   25.2392 C   0  0  0  0  0  0  0  0  0  0  0  0
   19.6866   11.5211   30.9447 C   0  0  0  0  0  0  0  0  0  0  0  0
   20.3850    8.9226   32.7426 N   0  0  0  0  0  0  0  0  0  0  0  0
   18.6508    8.3507   28.2519 C   0  0  0  0  0  0  0  0  0  0  0  0
   20.4833   10.3280   30.7683 C   0  0  0  0  0  0  0  0  0  0  0  0
   27.7639   10.6512   35.0032 C   0  0  0  0  0  0  0  0  0  0  0  0
   20.0457    9.2625   30.0480 N   0  0  0  0  0  0  0  0  0  0  0  0
   26.3898   10.9292   34.6299 C   0  0  0  0  0  0  0  0  0  0  0  0
   18.8703   13.2923   32.4889 C   0  0  0  0  0  0  0  0  0  0  0  0
   19.2715    6.9274   25.4945 C   0  0  0  0  0  0  0  0  0  0  0  0
   28.7822   11.5386   35.3705 C   0  0  0  0  0  0  0  0  0  0  0  0
   18.0413    8.6149   27.0702 N   0  0  0  0  0  0  0  0  0  0  0  0
   23.0967   10.4525   33.5359 C   0  0  0  0  0  0  0  0  0  0  0  0
   30.0785   11.1711   35.4142 N   0  0  0  0  0  0  0  0  0  0  0  0
   17.0224    6.2570   26.2176 O   0  0  0  0  0  1  0  0  0  0  0  0
   19.0157   15.6424   31.9231 O   0  0  0  0  0  0  0  0  0  0  0  0
  1 13  2  0
  1 14  2  0
  2 11  2  0
  2 20  1  0
  3  8  1  0
  3 21  1  0
  4 27  1  0
  5 28  1  0
  5 35  1  0
  6 35  1  0
  6 42  1  0
  7 11  1  0
  8  9  1  0
  8 39  1  0
  9 15  1  0
  9 16  1  0
 10 36  1  0
 10 38  1  0
 10 41  2  0
 11 32  1  0
 12 26  1  0
 13 28  1  0
 14 42  1  0
 16 29  1  0
 17 18  2  0
 18 21  1  0
 18 34  1  0
 19 25  1  0
 19 39  1  0
 20 40  2  0
 22 30  1  0
 22 33  1  0
 23 27  2  0
 24 27  1  0
 24 38  1  0
 25 29  2  0
 25 31  1  0
 26 30  1  0
 28 31  1  0
 30 38  1  0
 31 33  1  0
 32 34  1  0
 32 37  2  0
 37 40  1  0
M  END
>  <ID>  (1) 
conformer_0

$$$$
