
     RDKit          3D

 33 34  0  0  0  0  0  0  0  0999 V2000
   18.1444    7.6233   27.8514 C   0  0  0  0  0  0  0  0  0  0  0  0
   26.1670    9.4444   34.5480 C   0  0  0  0  0  0  0  0  0  0  0  0
   18.5515    6.8213   26.8548 O   0  0  0  0  0  0  0  0  0  0  0  0
   22.9113   10.9713   34.6236 C   0  0  0  0  0  0  0  0  0  0  0  0
   22.2242    8.6918   32.4027 O   0  0  0  0  0  0  0  0  0  0  0  0
   20.9030    8.6343   28.3525 C   0  0  0  0  0  0  0  0  0  0  0  0
   29.2778   11.2496   35.2855 C   0  0  0  0  0  0  0  0  0  0  0  0
   21.8058    8.7090   33.6672 C   0  0  0  0  0  0  0  0  0  0  0  0
   23.6405    7.4180   34.3801 O   0  0  0  0  0  0  0  0  0  0  0  0
   25.2139   10.2350   35.0749 C   0  0  0  0  0  3  0  0  0  0  0  0
   21.9717    9.6062   30.2069 C   0  0  0  0  0  0  0  0  0  0  0  0
   21.0485    8.1037   26.9445 C   0  0  0  0  0  0  0  0  0  0  0  0
   20.6478    8.3254   34.1735 O   0  0  0  0  0  0  0  0  0  0  0  0
   27.8773   10.9978   35.1879 C   0  0  0  0  0  0  0  0  0  0  0  0
   18.5348   11.5465   28.1626 O   0  0  0  0  0  0  0  0  0  0  0  0
   26.9200   11.9262   35.5764 C   0  0  0  0  0  0  0  0  0  0  0  0
   23.0191    8.5357   34.6213 C   0  0  0  0  0  0  0  0  0  0  0  0
   19.4637    9.6132   30.4585 O   0  0  0  0  0  0  0  0  0  0  0  0
   23.6799    9.8049   35.1637 C   0  0  0  0  0  0  0  0  0  0  0  0
   30.0011    8.8055   34.8648 O   0  0  0  0  0  0  0  0  0  0  0  0
   19.7368    9.1048   29.1410 C   0  0  0  0  0  0  0  0  0  0  0  0
   18.4392    8.9327   28.3681 C   0  0  0  0  0  0  0  0  0  0  0  0
   21.4372    8.6358   31.2251 C   0  0  0  0  0  0  0  0  0  0  0  0
   22.1075    8.8372   28.9610 O   0  0  0  0  0  0  0  0  0  0  0  0
   20.0059    8.8775   31.5518 C   0  0  0  0  0  0  0  0  0  0  0  0
   25.5864   11.5252   35.6038 S   0  0  0  0  0  3  0  0  0  0  0  0
   16.4894   10.2973   27.5105 O   0  0  0  0  0  0  0  0  0  0  0  0
   27.4497    9.7113   34.7923 C   0  0  0  0  0  0  0  0  0  0  0  0
   23.5668    9.5762   36.6190 O   0  0  0  0  0  0  0  0  0  0  0  0
   19.1515    7.9889   31.9854 O   0  0  0  0  0  0  0  0  0  0  0  0
   30.1255   10.2026   35.1122 N   0  0  0  0  0  0  0  0  0  0  0  0
   18.5177   10.1958   26.0695 O   0  0  0  0  0  0  0  0  0  0  0  0
   17.9708   10.3213   27.4720 S   0  0  0  0  0  4  0  0  0  0  0  0
  1  3  1  0
  1 22  1  0
  2 10  1  0
  2 28  1  0
  4 19  1  0
  5  8  1  0
  5 23  1  0
  6 12  1  0
  6 21  2  0
  6 24  1  0
  7 14  1  0
  7 31  2  3
  8 13  2  0
  8 17  1  0
  9 17  1  0
 10 19  1  0
 10 26  2  0
 11 23  1  0
 11 24  1  0
 14 16  1  0
 14 28  2  0
 15 33  1  0
 16 26  1  0
 17 19  1  0
 18 21  1  0
 18 25  1  0
 19 29  1  0
 20 31  1  0
 21 22  1  0
 22 33  1  0
 23 25  1  0
 25 30  1  0
 27 33  1  0
 32 33  1  0
M  END
>  <ID>  (1) 
conformer_0

$$$$
