
     RDKit          3D

 41 43  0  0  0  0  0  0  0  0999 V2000
   28.8893   10.9405   35.3036 C   0  0  0  0  0  0  0  0  0  0  0  0
   17.5610   10.8350   30.7485 S   0  0  0  0  0  4  0  0  0  0  0  0
   20.2509    8.3158   27.6583 C   0  0  0  0  0  0  0  0  0  0  0  0
   29.4884   12.1657   35.7879 C   0  0  0  0  0  0  0  0  0  0  0  0
   23.0206    8.4800   27.2713 C   0  0  0  0  0  0  0  0  0  0  0  0
   16.9419   11.7371   29.8187 O   0  0  0  0  0  1  0  0  0  0  0  0
   21.9800    8.1603   34.6291 C   0  0  0  0  0  0  0  0  0  0  0  0
   20.9965   10.9474   31.8020 C   0  0  0  0  0  0  0  0  0  0  0  0
   21.9060   10.1181   32.3496 C   0  0  0  0  0  0  0  0  0  0  0  0
   22.8452    9.3627   34.4429 C   0  0  0  0  0  0  0  0  0  0  0  0
   26.6673   11.9818   35.6253 C   0  0  0  0  0  0  0  0  0  0  0  0
   21.0695    9.0362   28.5615 C   0  0  0  0  0  0  0  0  0  0  0  0
   29.9547    8.6093   34.9195 N   0  0  0  0  0  0  0  0  0  0  0  0
   22.1876    7.9346   26.2828 C   0  0  0  0  0  0  0  0  0  0  0  0
   17.4293   11.4325   32.3345 C   0  0  0  0  0  0  0  0  0  0  0  0
   29.8008    9.9878   35.0111 C   0  0  0  0  0  0  0  0  0  0  0  0
   26.7601    9.7094   34.7186 C   0  0  0  0  0  0  0  0  0  0  0  0
   27.4380   10.8601   35.2337 C   0  0  0  0  0  0  0  0  0  0  0  0
   21.6949   11.7637   33.7811 C   0  0  0  0  0  0  0  0  0  0  0  0
   18.9712    6.5161   29.8301 C   0  0  0  0  0  0  0  0  0  0  0  0
   21.9896   12.4801   34.7511 O   0  0  0  0  0  0  0  0  0  0  0  0
   22.2288   10.4451   33.6145 N   0  0  0  0  0  0  0  0  0  0  0  0
   18.8796    5.3385   30.3200 O   0  0  0  0  0  0  0  0  0  0  0  0
   25.2405   11.8445   35.6702 C   0  0  0  0  0  0  0  0  0  0  0  0
   19.0237   10.9114   30.3822 N   0  0  0  0  0  0  0  0  0  0  0  0
   25.2937    9.6595   34.7876 N   0  0  0  0  0  0  0  0  0  0  0  0
   18.5969    6.6937   28.3707 C   0  0  0  0  0  0  0  0  0  0  0  0
   24.7383   10.4830   35.8058 C   0  0  0  0  0  0  0  0  0  0  0  0
   24.2209    8.9059   34.0219 C   0  0  0  0  0  0  0  0  0  0  0  0
   20.2673   10.6279   30.5554 C   0  0  0  0  0  0  0  0  0  0  0  0
   20.8064    7.8456   26.5095 C   0  0  0  0  0  0  0  0  0  0  0  0
   20.9005   12.0441   32.6742 C   0  0  0  0  0  0  0  0  0  0  0  0
   20.6674    9.8496   29.6276 C   0  0  0  0  0  0  0  0  0  0  0  0
   24.1104    7.9237   33.0269 O   0  0  0  0  0  0  0  0  0  0  0  0
   18.8773    8.0376   27.9128 O   0  0  0  0  0  0  0  0  0  0  0  0
   22.7510    7.0286   35.1247 O   0  0  0  0  0  0  0  0  0  0  0  0
   22.4907    8.9883   28.4036 C   0  0  0  0  0  0  0  0  0  0  0  0
   17.0192    9.5087   30.7232 O   0  0  0  0  0  1  0  0  0  0  0  0
   23.9741    9.9765   36.6737 O   0  0  0  0  0  0  0  0  0  0  0  0
   22.7124    7.6267   25.1106 O   0  0  0  0  0  0  0  0  0  0  0  0
   19.5601    7.3138   30.5853 O   0  0  0  0  0  0  0  0  0  0  0  0
  1  4  1  0
  1 16  1  0
  1 18  2  3
  2  6  1  0
  2 15  1  0
  2 25  1  0
  2 38  1  0
  3 12  1  0
  3 31  1  0
  3 35  1  0
  5 14  1  0
  5 37  2  0
  7 10  1  0
  7 36  1  0
  8  9  1  0
  8 30  1  0
  8 32  1  0
  9 22  1  0
 10 22  1  0
 10 29  1  0
 11 18  1  0
 11 24  1  0
 12 33  2  0
 12 37  1  0
 13 16  1  0
 14 31  2  0
 14 40  1  0
 17 18  1  0
 17 26  1  0
 19 21  2  0
 19 22  1  0
 19 32  1  0
 20 23  2  0
 20 27  1  0
 20 41  1  0
 24 28  1  0
 25 30  1  0
 26 28  1  0
 26 29  1  0
 27 35  1  0
 28 39  2  0
 29 34  2  0
 30 33  2  0
M  END
>  <ID>  (1) 
conformer_0

$$$$
