
     RDKit          3D

 29 36  0  0  0  0  0  0  0  0999 V2000
   32.4194   26.4367    2.3580 C   0  0  0  0  0  0  0  0  0  0  0  0
   31.4194   27.5367    2.3580 C   0  0  0  0  0  0  0  0  0  0  0  0
   32.2194   25.5367    1.2580 C   0  0  0  0  0  0  0  0  0  0  0  0
   30.5194   27.5367    1.1580 C   0  0  0  0  0  0  0  0  0  0  0  0
   30.9194   27.1367   -0.1420 C   0  0  0  0  0  0  0  0  0  0  0  0
   32.7194   25.8367    3.6580 C   0  0  0  0  0  0  0  0  0  0  0  0
   33.5194   24.6367    3.3580 C   0  0  0  0  0  0  0  0  0  0  0  0
   33.2194   23.5367    2.5580 C   0  0  0  0  0  0  0  0  0  0  0  0
   32.4194   26.5367    4.8580 C   0  0  0  0  0  0  0  0  0  0  0  0
   30.9194   28.1367    3.5580 C   0  0  0  0  0  0  0  0  0  0  0  0
   31.1194   27.5367    4.8580 C   0  0  0  0  0  0  0  0  0  0  0  0
   32.6194   24.1367    1.2580 C   0  0  0  0  0  0  0  0  0  0  0  0
   34.7194   24.3367    4.1580 C   0  0  0  0  0  0  0  0  0  0  0  0
   29.2194   28.1367    1.5580 C   0  0  0  0  0  0  0  0  0  0  0  0
   28.0194   27.3367    1.1580 C   0  0  0  0  0  0  0  0  0  0  0  0
   30.1194   26.2367    0.4580 C   0  0  0  0  0  0  0  0  0  0  0  0
   33.5194   23.9367    4.9580 C   0  0  0  0  0  0  0  0  0  0  0  0
   28.7194   26.1367    0.3580 O   0  0  0  0  0  0  0  0  0  0  0  0
   26.8194   28.0367    0.7580 C   0  0  0  0  0  0  0  0  0  0  0  0
   28.5194   27.5367    2.6580 C   0  0  0  0  0  0  0  0  0  0  0  0
   25.6194   28.0367    1.2580 O   0  0  0  0  0  0  0  0  0  0  0  0
   30.2194   24.8367    0.7580 O   0  0  0  0  0  0  0  0  0  0  0  0
   30.2194   23.8367    1.6580 C   0  0  0  0  0  0  0  0  0  0  0  0
   31.3194   23.2367    1.4580 O   0  0  0  0  0  0  0  0  0  0  0  0
   29.4194   23.6367    2.5580 O   0  0  0  0  0  0  0  0  0  0  0  0
   31.4194   25.9367    2.4580 C   0  0  0  0  0  0  0  0  0  0  0  0
   29.0194   29.4367    0.8580 C   0  0  0  0  0  0  0  0  0  0  0  0
   27.1194   28.8367   -0.4420 C   0  0  0  0  0  0  0  0  0  0  0  0
   28.4194   29.5367   -0.4420 C   0  0  0  0  0  0  0  0  0  0  0  0
  2  1  1  0
  3  1  1  0
  4  2  1  0
  5  4  1  0
  6  1  1  0
  7  6  1  0
  8  7  1  0
  9  6  1  0
 10  2  1  0
 11  9  1  0
 11 10  1  0
 12  3  1  0
 12  8  1  0
 13  7  1  0
 14  4  1  0
 15 14  1  0
 16  4  1  0
 16  5  1  0
 17  7  1  0
 17 13  1  0
 18 15  1  0
 18 16  1  0
 19 15  1  0
 20 14  1  0
 20 15  1  0
 21 19  1  0
 22 16  1  0
 23 22  1  0
 24 12  1  0
 24 23  1  0
 25 23  2  0
 26  1  1  0
 27 14  1  0
 28 19  1  0
 29 27  1  0
 29 28  1  0
M  END
>  <ID>  (1) 
conformer_0

$$$$
