
     RDKit          3D

 28 36  0  0  0  0  0  0  0  0999 V2000
   32.4194   26.4367    2.3580 C   0  0  0  0  0  0  0  0  0  0  0  0
   31.4194   27.5367    2.3580 C   0  0  0  0  0  0  0  0  0  0  0  0
   32.2194   25.5367    1.2580 C   0  0  0  0  0  0  0  0  0  0  0  0
   30.3194   27.3367    1.3580 C   0  0  0  0  0  0  0  0  0  0  0  0
   30.7194   27.0367   -0.0420 C   0  0  0  0  0  0  0  0  0  0  0  0
   32.8194   25.8367    3.6580 C   0  0  0  0  0  0  0  0  0  0  0  0
   33.7194   24.7367    3.2580 C   0  0  0  0  0  0  0  0  0  0  0  0
   33.2194   23.6367    2.4580 C   0  0  0  0  0  0  0  0  0  0  0  0
   32.8194   26.5367    4.8580 C   0  0  0  0  0  0  0  0  0  0  0  0
   31.0194   27.8367    3.7580 C   0  0  0  0  0  0  0  0  0  0  0  0
   32.5194   24.2367    1.1580 C   0  0  0  0  0  0  0  0  0  0  0  0
   31.8194   27.8367    4.9580 C   0  0  0  0  0  0  0  0  0  0  0  0
   34.7194   24.4367    4.2580 C   0  0  0  0  0  0  0  0  0  0  0  0
   29.0194   28.0367    1.5580 C   0  0  0  0  0  0  0  0  0  0  0  0
   28.3194   28.1367    0.2580 C   0  0  0  0  0  0  0  0  0  0  0  0
   28.6194   28.3367    2.8580 C   0  0  0  0  0  0  0  0  0  0  0  0
   29.9194   26.0367    0.6580 C   0  0  0  0  0  0  0  0  0  0  0  0
   34.6194   24.8367    5.6580 C   0  0  0  0  0  0  0  0  0  0  0  0
   33.4194   25.6367    6.0580 C   0  0  0  0  0  0  0  0  0  0  0  0
   29.0194   28.6367   -0.9420 C   0  0  0  0  0  0  0  0  0  0  0  0
   27.0194   28.4367    0.3580 O   0  0  0  0  0  0  0  0  0  0  0  0
   28.5194   27.3367   -0.9420 C   0  0  0  0  0  0  0  0  0  0  0  0
   31.6194   25.7367    2.5580 C   0  0  0  0  0  0  0  0  0  0  0  0
   27.5194   29.2367    3.0580 O   0  0  0  0  0  0  0  0  0  0  0  0
   29.6194   28.5367    3.9580 C   0  0  0  0  0  0  0  0  0  0  0  0
   31.8194   23.3367    2.2580 O   0  0  0  0  0  0  0  0  0  0  0  0
   28.2194   27.1367    2.3580 C   0  0  0  0  0  0  0  0  0  0  0  0
   28.4194   25.9367    1.5580 O   0  0  0  0  0  0  0  0  0  0  0  0
  2  1  1  0
  3  1  1  0
  4  2  1  0
  5  4  1  0
  6  1  1  0
  7  6  1  0
  8  7  1  0
  9  6  1  0
 10  2  1  0
 11  3  1  0
 11  8  1  0
 12  9  1  0
 12 10  1  0
 13  7  1  0
 14  4  1  0
 15 14  1  0
 16 14  1  0
 17  4  1  0
 17  5  1  0
 18 13  2  0
 19  9  1  0
 19 18  1  0
 20 15  1  0
 21 15  1  0
 22 15  1  0
 22 20  1  0
 23  1  1  0
 24 16  1  0
 25 10  1  0
 25 16  1  0
 26  8  1  0
 26 11  1  0
 27 14  1  0
 27 16  1  0
 28 17  1  0
 28 27  1  0
M  END
>  <ID>  (1) 
conformer_0

$$$$
