
     RDKit          3D

 24 29  0  0  0  0  0  0  0  0999 V2000
   32.4194   26.4367    2.3580 C   0  0  0  0  0  0  0  0  0  0  0  0
   31.4194   27.5367    2.3580 C   0  0  0  0  0  0  0  0  0  0  0  0
   32.2194   25.5367    1.2580 C   0  0  0  0  0  0  0  0  0  0  0  0
   30.3194   27.3367    1.3580 C   0  0  0  0  0  0  0  0  0  0  0  0
   30.7194   27.0367   -0.0420 C   0  0  0  0  0  0  0  0  0  0  0  0
   32.8194   25.8367    3.6580 C   0  0  0  0  0  0  0  0  0  0  0  0
   33.7194   24.7367    3.2580 C   0  0  0  0  0  0  0  0  0  0  0  0
   33.1194   23.6367    2.4580 C   0  0  0  0  0  0  0  0  0  0  0  0
   32.5194   26.6367    4.7580 C   0  0  0  0  0  0  0  0  0  0  0  0
   31.0194   28.1367    3.6580 C   0  0  0  0  0  0  0  0  0  0  0  0
   31.2194   27.2367    4.9580 C   0  0  0  0  0  0  0  0  0  0  0  0
   32.5194   24.1367    1.2580 C   0  0  0  0  0  0  0  0  0  0  0  0
   34.8194   24.3367    4.1580 C   0  0  0  0  0  0  0  0  0  0  0  0
   29.2194   28.3367    1.3580 C   0  0  0  0  0  0  0  0  0  0  0  0
   28.2194   28.3367    0.2580 C   0  0  0  0  0  0  0  0  0  0  0  0
   28.6194   28.6367    2.6580 C   0  0  0  0  0  0  0  0  0  0  0  0
   30.1194   27.7367   -1.1420 C   0  0  0  0  0  0  0  0  0  0  0  0
   28.8194   28.3367   -1.1420 C   0  0  0  0  0  0  0  0  0  0  0  0
   34.7194   24.7367    5.5580 C   0  0  0  0  0  0  0  0  0  0  0  0
   33.3194   24.5367    6.0580 C   0  0  0  0  0  0  0  0  0  0  0  0
   32.4194   25.0367    5.0580 C   0  0  0  0  0  0  0  0  0  0  0  0
   31.1194   24.7367    1.0580 C   0  0  0  0  0  0  0  0  0  0  0  0
   28.4194   29.0367   -2.2420 O   0  0  0  0  0  0  0  0  0  0  0  0
   29.0194   29.9367   -3.0420 C   0  0  0  0  0  0  0  0  0  0  0  0
  2  1  1  0
  3  1  1  0
  4  2  1  0
  5  4  1  0
  6  1  1  0
  7  6  1  0
  8  7  1  0
  9  6  1  0
 10  2  1  0
 11  9  1  0
 11 10  1  0
 12  3  1  0
 12  8  1  0
 13  7  1  0
 14  4  1  0
 15 14  1  0
 16 14  1  0
 17  5  1  0
 18 15  1  0
 18 17  2  0
 19 13  1  0
 20 19  1  0
 21  6  1  0
 21  9  1  0
 21 20  1  0
 22  3  1  0
 22 12  1  0
 23 18  1  0
 24 23  1  0
M  END
>  <ID>  (1) 
conformer_0

$$$$
