
     RDKit          3D

 17 20  0  0  0  0  0  0  0  0999 V2000
   32.8093   25.7831    4.0600 C   0  0  0  0  0  0  0  0  0  0  0  0
   32.7093   26.1831    2.6600 C   0  0  0  0  0  0  0  0  0  0  0  0
   32.5093   25.0831    1.6600 C   0  0  0  0  0  0  0  0  0  0  0  0
   31.8093   25.4831    0.4600 C   0  0  0  0  0  0  0  0  0  0  0  0
   31.9093   27.3831    2.2600 C   0  0  0  0  0  0  0  0  0  0  0  0
   30.6093   27.3831    1.5600 C   0  0  0  0  0  0  0  0  0  0  0  0
   30.4093   25.9831    1.0600 C   0  0  0  0  0  0  0  0  0  0  0  0
   32.0093   27.9831    0.9600 C   0  0  0  0  0  0  0  0  0  0  0  0
   33.2093   24.3831    4.3600 C   0  0  0  0  0  0  0  0  0  0  0  0
   33.0093   23.6831    1.8600 C   0  0  0  0  0  0  0  0  0  0  0  0
   33.7093   23.4831    3.1600 C   0  0  0  0  0  0  0  0  0  0  0  0
   29.6093   28.3831    1.6600 C   0  0  0  0  0  0  0  0  0  0  0  0
   28.2093   27.8831    1.5600 N   0  0  0  0  0  0  0  0  0  0  0  0
   27.5093   28.1831    0.5600 C   0  0  0  0  0  0  0  0  0  0  0  0
   26.1093   28.3831    1.0600 C   0  0  0  0  0  0  0  0  0  0  0  0
   26.3093   29.0831    2.3600 N   0  0  0  0  0  0  0  0  0  0  0  0
   27.5093   28.5831    2.7600 C   0  0  0  0  0  0  0  0  0  0  0  0
  2  1  1  0
  3  2  1  0
  4  3  1  0
  5  2  1  0
  6  5  1  0
  7  4  1  0
  7  6  1  0
  8  5  1  0
  8  6  1  0
  9  1  2  0
 10  3  1  0
 11  9  1  0
 11 10  1  0
 12  6  1  0
 13 12  1  0
 14 13  1  0
 15 14  1  0
 16 15  1  0
 17 13  1  0
 17 16  1  0
M  END
>  <ID>  (1) 
conformer_0

$$$$
