
     RDKit          3D

 21 25  0  0  0  0  0  0  0  0999 V2000
   32.4194   26.4367    2.3580 C   0  0  0  0  0  0  0  0  0  0  0  0
   31.4194   27.5367    2.3580 C   0  0  0  0  0  0  0  0  0  0  0  0
   32.2194   25.5367    1.2580 C   0  0  0  0  0  0  0  0  0  0  0  0
   30.3194   27.3367    1.3580 C   0  0  0  0  0  0  0  0  0  0  0  0
   30.7194   27.0367   -0.0420 C   0  0  0  0  0  0  0  0  0  0  0  0
   32.8194   25.8367    3.6580 C   0  0  0  0  0  0  0  0  0  0  0  0
   33.7194   24.7367    3.2580 C   0  0  0  0  0  0  0  0  0  0  0  0
   33.1194   23.6367    2.4580 C   0  0  0  0  0  0  0  0  0  0  0  0
   32.5194   26.6367    4.7580 C   0  0  0  0  0  0  0  0  0  0  0  0
   31.0194   28.1367    3.6580 C   0  0  0  0  0  0  0  0  0  0  0  0
   34.9194   24.3367    4.0580 C   0  0  0  0  0  0  0  0  0  0  0  0
   31.6194   27.7367    4.9580 C   0  0  0  0  0  0  0  0  0  0  0  0
   32.4194   24.1367    1.2580 C   0  0  0  0  0  0  0  0  0  0  0  0
   29.2194   28.3367    1.4580 C   0  0  0  0  0  0  0  0  0  0  0  0
   29.8194   27.7367   -0.9420 C   0  0  0  0  0  0  0  0  0  0  0  0
   33.8194   24.0367    4.8580 C   0  0  0  0  0  0  0  0  0  0  0  0
   28.4194   28.1367   -0.7420 C   0  0  0  0  0  0  0  0  0  0  0  0
   28.0194   27.9367    0.6580 C   0  0  0  0  0  0  0  0  0  0  0  0
   31.0194   24.8367    1.1580 C   0  0  0  0  0  0  0  0  0  0  0  0
   27.9194   28.8367   -1.8420 O   0  0  0  0  0  0  0  0  0  0  0  0
   28.9194   29.1367   -2.8420 C   0  0  0  0  0  0  0  0  0  0  0  0
  2  1  2  0
  3  1  1  0
  4  2  1  0
  5  4  1  0
  6  1  1  0
  7  6  1  0
  8  7  1  0
  9  6  2  0
 10  2  1  0
 11  7  1  0
 12  9  1  0
 12 10  2  0
 13  3  1  0
 13  8  1  0
 14  4  1  0
 15  5  1  0
 16  7  1  0
 16 11  1  0
 17 15  2  0
 18 14  1  0
 18 17  1  0
 19  3  1  0
 19 13  1  0
 20 17  1  0
 21 20  1  0
M  END
>  <ID>  (1) 
conformer_0

$$$$
