
     RDKit          3D

 26 31  0  0  0  0  0  0  0  0999 V2000
   32.4194   26.4367    2.3580 C   0  0  0  0  0  0  0  0  0  0  0  0
   31.4194   27.5367    2.3580 C   0  0  0  0  0  0  0  0  0  0  0  0
   32.2194   25.5367    1.2580 C   0  0  0  0  0  0  0  0  0  0  0  0
   30.3194   27.3367    1.3580 C   0  0  0  0  0  0  0  0  0  0  0  0
   30.7194   27.0367   -0.0420 C   0  0  0  0  0  0  0  0  0  0  0  0
   32.8194   25.8367    3.6580 C   0  0  0  0  0  0  0  0  0  0  0  0
   33.7194   24.7367    3.2580 C   0  0  0  0  0  0  0  0  0  0  0  0
   33.2194   23.6367    2.4580 C   0  0  0  0  0  0  0  0  0  0  0  0
   30.9194   27.6367    3.7580 C   0  0  0  0  0  0  0  0  0  0  0  0
   32.6194   26.3367    4.9580 C   0  0  0  0  0  0  0  0  0  0  0  0
   34.9194   24.3367    4.0580 C   0  0  0  0  0  0  0  0  0  0  0  0
   33.6194   25.7367    5.8580 C   0  0  0  0  0  0  0  0  0  0  0  0
   34.7194   24.7367    5.6580 C   0  0  0  0  0  0  0  0  0  0  0  0
   32.5194   24.0367    1.2580 C   0  0  0  0  0  0  0  0  0  0  0  0
   29.0194   27.5367    2.0580 C   0  0  0  0  0  0  0  0  0  0  0  0
   28.6194   28.4367    3.1580 C   0  0  0  0  0  0  0  0  0  0  0  0
   27.9194   27.1367    1.1580 C   0  0  0  0  0  0  0  0  0  0  0  0
   29.7194   28.4367    4.1580 C   0  0  0  0  0  0  0  0  0  0  0  0
   30.0194   26.0367    0.5580 C   0  0  0  0  0  0  0  0  0  0  0  0
   30.1194   24.7367    1.1580 O   0  0  0  0  0  0  0  0  0  0  0  0
   30.1194   23.9367    1.7580 C   0  0  0  0  0  0  0  0  0  0  0  0
   29.8194   23.1367    2.6580 O   0  0  0  0  0  0  0  0  0  0  0  0
   31.6194   25.8367    2.5580 C   0  0  0  0  0  0  0  0  0  0  0  0
   26.8194   27.8367    1.0580 O   0  0  0  0  0  0  0  0  0  0  0  0
   28.7194   23.7367    2.2580 C   0  0  0  0  0  0  0  0  0  0  0  0
   28.0194   26.1367    2.0580 C   0  0  0  0  0  0  0  0  0  0  0  0
  2  1  1  0
  3  1  1  0
  4  2  1  0
  5  4  1  0
  6  1  1  0
  7  6  1  0
  8  7  1  0
  9  2  1  0
 10  6  1  0
 11  7  1  0
 12 10  1  0
 13 11  1  0
 13 12  1  0
 14  3  1  0
 14  8  1  0
 15  4  1  0
 16 15  1  0
 17 15  1  0
 18  9  1  0
 18 16  1  0
 19  4  1  0
 19  5  1  0
 20 19  1  0
 21 20  1  0
 22 21  1  0
 23  1  1  0
 24 17  1  0
 25 21  1  0
 25 22  1  0
 26 15  1  0
 26 17  1  0
M  END
>  <ID>  (1) 
conformer_0

$$$$
