
     RDKit          3D

 22 26  0  0  0  0  0  0  0  0999 V2000
   32.4194   26.4367    2.3580 C   0  0  0  0  0  0  0  0  0  0  0  0
   31.4194   27.5367    2.3580 C   0  0  0  0  0  0  0  0  0  0  0  0
   32.2194   25.5367    1.2580 C   0  0  0  0  0  0  0  0  0  0  0  0
   30.3194   27.3367    1.3580 C   0  0  0  0  0  0  0  0  0  0  0  0
   30.7194   27.0367   -0.0420 C   0  0  0  0  0  0  0  0  0  0  0  0
   32.8194   25.8367    3.6580 C   0  0  0  0  0  0  0  0  0  0  0  0
   33.7194   24.7367    3.2580 C   0  0  0  0  0  0  0  0  0  0  0  0
   33.3194   23.5367    2.5580 C   0  0  0  0  0  0  0  0  0  0  0  0
   32.1194   26.4367    4.7580 C   0  0  0  0  0  0  0  0  0  0  0  0
   31.1194   28.3367    3.5580 C   0  0  0  0  0  0  0  0  0  0  0  0
   31.4194   27.7367    4.8580 C   0  0  0  0  0  0  0  0  0  0  0  0
   32.6194   24.1367    1.2580 C   0  0  0  0  0  0  0  0  0  0  0  0
   34.7194   24.5367    4.3580 C   0  0  0  0  0  0  0  0  0  0  0  0
   29.7194   27.5367   -1.0420 C   0  0  0  0  0  0  0  0  0  0  0  0
   29.3194   28.4367    1.5580 C   0  0  0  0  0  0  0  0  0  0  0  0
   28.4194   28.1367   -0.6420 C   0  0  0  0  0  0  0  0  0  0  0  0
   27.9194   28.1367    0.7580 C   0  0  0  0  0  0  0  0  0  0  0  0
   34.2194   25.0367    5.6580 C   0  0  0  0  0  0  0  0  0  0  0  0
   27.9194   28.9367   -1.6420 O   0  0  0  0  0  0  0  0  0  0  0  0
   28.6194   28.8367   -2.8420 C   0  0  0  0  0  0  0  0  0  0  0  0
   33.6194   23.7367    5.4580 C   0  0  0  0  0  0  0  0  0  0  0  0
   31.1194   24.7367    1.2580 C   0  0  0  0  0  0  0  0  0  0  0  0
  2  1  1  0
  3  1  1  0
  4  2  1  0
  5  4  1  0
  6  1  1  0
  7  6  1  0
  8  7  1  0
  9  6  1  0
 10  2  1  0
 11  9  1  0
 11 10  1  0
 12  3  1  0
 12  8  1  0
 13  7  1  0
 14  5  1  0
 15  4  1  0
 16 14  1  0
 17 15  1  0
 17 16  1  0
 18 13  1  0
 19 16  1  0
 20 19  1  0
 21 13  1  0
 21 18  1  0
 22  3  1  0
 22 12  1  0
M  END
>  <ID>  (1) 
conformer_0

$$$$
