
     RDKit          3D

 10 11  0  0  0  0  0  0  0  0999 V2000
   33.0862   25.3355    4.0009 C   0  0  0  0  0  0  0  0  0  0  0  0
   32.7862   26.0355    2.8009 C   0  0  0  0  0  0  0  0  0  0  0  0
   32.4862   25.2355    1.6009 C   0  0  0  0  0  0  0  0  0  0  0  0
   31.7862   25.8355    0.6009 C   0  0  0  0  0  0  0  0  0  0  0  0
   31.7862   27.3355    0.6009 C   0  0  0  0  0  0  0  0  0  0  0  0
   32.6862   23.8355    1.8009 C   0  0  0  0  0  0  0  0  0  0  0  0
   31.3862   27.9355    1.9009 C   0  0  0  0  0  0  0  0  0  0  0  0
   31.7862   27.1355    3.1009 C   0  0  0  0  0  0  0  0  0  0  0  0
   34.0862   24.2355    3.9009 C   0  0  0  0  0  0  0  0  0  0  0  0
   33.4862   23.2355    2.9009 C   0  0  0  0  0  0  0  0  0  0  0  0
  2  1  1  0
  3  2  1  0
  4  3  1  0
  5  4  1  0
  6  3  1  0
  7  5  1  0
  8  2  1  0
  8  7  1  0
  9  1  1  0
 10  6  2  0
 10  9  1  0
M  END
>  <ID>  (1) 
conformer_0

$$$$
