
     RDKit          3D

 23 28  0  0  0  0  0  0  0  0999 V2000
   32.4194   26.4367    2.3580 C   0  0  0  0  0  0  0  0  0  0  0  0
   31.4194   27.5367    2.3580 C   0  0  0  0  0  0  0  0  0  0  0  0
   32.2194   25.5367    1.2580 C   0  0  0  0  0  0  0  0  0  0  0  0
   30.3194   27.3367    1.3580 C   0  0  0  0  0  0  0  0  0  0  0  0
   30.7194   27.0367   -0.0420 C   0  0  0  0  0  0  0  0  0  0  0  0
   32.8194   25.8367    3.6580 C   0  0  0  0  0  0  0  0  0  0  0  0
   33.7194   24.7367    3.2580 C   0  0  0  0  0  0  0  0  0  0  0  0
   33.2194   23.6367    2.4580 C   0  0  0  0  0  0  0  0  0  0  0  0
   31.0194   27.8367    3.7580 C   0  0  0  0  0  0  0  0  0  0  0  0
   32.4194   26.2367    4.9580 C   0  0  0  0  0  0  0  0  0  0  0  0
   32.4194   24.1367    1.2580 C   0  0  0  0  0  0  0  0  0  0  0  0
   34.8194   24.3367    4.1580 C   0  0  0  0  0  0  0  0  0  0  0  0
   31.7194   27.6367    4.9580 C   0  0  0  0  0  0  0  0  0  0  0  0
   29.0194   28.0367    1.5580 C   0  0  0  0  0  0  0  0  0  0  0  0
   28.0194   28.2367    0.4580 C   0  0  0  0  0  0  0  0  0  0  0  0
   28.6194   28.3367    2.9580 C   0  0  0  0  0  0  0  0  0  0  0  0
   34.8194   24.8367    5.5580 C   0  0  0  0  0  0  0  0  0  0  0  0
   33.6194   25.6367    5.8580 C   0  0  0  0  0  0  0  0  0  0  0  0
   29.8194   27.5367   -1.0420 C   0  0  0  0  0  0  0  0  0  0  0  0
   28.7194   28.4367   -0.8420 C   0  0  0  0  0  0  0  0  0  0  0  0
   30.0194   29.0367    1.2580 C   0  0  0  0  0  0  0  0  0  0  0  0
   27.9194   29.0367   -1.7420 O   0  0  0  0  0  0  0  0  0  0  0  0
   31.1194   24.7367    1.2580 C   0  0  0  0  0  0  0  0  0  0  0  0
  2  1  1  0
  3  1  1  0
  4  2  1  0
  5  4  1  0
  6  1  1  0
  7  6  1  0
  8  7  1  0
  9  2  1  0
 10  6  1  0
 11  3  1  0
 11  8  1  0
 12  7  1  0
 13  9  1  0
 13 10  1  0
 14  4  1  0
 15 14  1  0
 16 14  1  0
 17 12  1  0
 18 10  1  0
 18 17  1  0
 19  5  1  0
 20 15  1  0
 20 19  1  0
 21  4  1  0
 21 14  1  0
 22 20  1  0
 23  3  1  0
 23 11  1  0
M  END
>  <ID>  (1) 
conformer_0

$$$$
