
     RDKit          3D

 24 29  0  0  0  0  0  0  0  0999 V2000
   32.4194   26.4367    2.3580 C   0  0  0  0  0  0  0  0  0  0  0  0
   31.4194   27.5367    2.3580 C   0  0  0  0  0  0  0  0  0  0  0  0
   32.2194   25.5367    1.2580 C   0  0  0  0  0  0  0  0  0  0  0  0
   30.3194   27.3367    1.3580 C   0  0  0  0  0  0  0  0  0  0  0  0
   30.7194   27.0367   -0.0420 C   0  0  0  0  0  0  0  0  0  0  0  0
   32.8194   25.8367    3.6580 C   0  0  0  0  0  0  0  0  0  0  0  0
   33.7194   24.7367    3.2580 C   0  0  0  0  0  0  0  0  0  0  0  0
   33.2194   23.6367    2.4580 C   0  0  0  0  0  0  0  0  0  0  0  0
   31.0194   27.8367    3.7580 C   0  0  0  0  0  0  0  0  0  0  0  0
   32.4194   26.2367    4.9580 C   0  0  0  0  0  0  0  0  0  0  0  0
   32.4194   24.1367    1.2580 C   0  0  0  0  0  0  0  0  0  0  0  0
   34.8194   24.3367    4.1580 C   0  0  0  0  0  0  0  0  0  0  0  0
   31.7194   27.6367    4.9580 C   0  0  0  0  0  0  0  0  0  0  0  0
   29.0194   28.0367    1.5580 C   0  0  0  0  0  0  0  0  0  0  0  0
   28.0194   28.2367    0.4580 C   0  0  0  0  0  0  0  0  0  0  0  0
   28.5194   28.0367    2.9580 C   0  0  0  0  0  0  0  0  0  0  0  0
   30.0194   27.6367   -1.1420 C   0  0  0  0  0  0  0  0  0  0  0  0
   28.5194   27.7367   -0.8420 C   0  0  0  0  0  0  0  0  0  0  0  0
   34.7194   25.0367    5.4580 C   0  0  0  0  0  0  0  0  0  0  0  0
   33.6194   25.8367    5.9580 C   0  0  0  0  0  0  0  0  0  0  0  0
   30.0194   28.9367    1.1580 C   0  0  0  0  0  0  0  0  0  0  0  0
   31.0194   24.6367    1.2580 C   0  0  0  0  0  0  0  0  0  0  0  0
   26.7194   28.2367    0.7580 O   0  0  0  0  0  0  0  0  0  0  0  0
   30.3194   24.0367    2.1580 O   0  0  0  0  0  0  0  0  0  0  0  0
  2  1  1  0
  3  1  1  0
  4  2  1  0
  5  4  1  0
  6  1  1  0
  7  6  1  0
  8  7  1  0
  9  2  1  0
 10  6  1  0
 11  3  1  0
 11  8  1  0
 12  7  1  0
 13  9  1  0
 13 10  1  0
 14  4  1  0
 15 14  1  0
 16 14  1  0
 17  5  1  0
 18 15  1  0
 18 17  1  0
 19 12  1  0
 20 10  1  0
 20 19  2  0
 21  4  1  0
 21 14  1  0
 22  3  1  0
 22 11  1  0
 23 15  1  0
 24 22  1  0
M  END
>  <ID>  (1) 
conformer_0

$$$$
