
     RDKit          3D

 28 33  0  0  0  0  0  0  0  0999 V2000
   32.4194   26.4367    2.3580 C   0  0  0  0  0  0  0  0  0  0  0  0
   31.4194   27.5367    2.3580 C   0  0  0  0  0  0  0  0  0  0  0  0
   32.2194   25.5367    1.2580 C   0  0  0  0  0  0  0  0  0  0  0  0
   30.3194   27.3367    1.3580 C   0  0  0  0  0  0  0  0  0  0  0  0
   30.7194   27.0367   -0.0420 C   0  0  0  0  0  0  0  0  0  0  0  0
   32.8194   25.8367    3.6580 C   0  0  0  0  0  0  0  0  0  0  0  0
   33.7194   24.7367    3.2580 C   0  0  0  0  0  0  0  0  0  0  0  0
   33.2194   23.6367    2.4580 C   0  0  0  0  0  0  0  0  0  0  0  0
   32.8194   26.5367    4.8580 C   0  0  0  0  0  0  0  0  0  0  0  0
   31.0194   27.8367    3.7580 C   0  0  0  0  0  0  0  0  0  0  0  0
   32.5194   24.2367    1.1580 C   0  0  0  0  0  0  0  0  0  0  0  0
   31.8194   27.8367    4.9580 C   0  0  0  0  0  0  0  0  0  0  0  0
   34.7194   24.4367    4.2580 C   0  0  0  0  0  0  0  0  0  0  0  0
   29.0194   28.0367    1.5580 C   0  0  0  0  0  0  0  0  0  0  0  0
   28.7194   28.4367    2.9580 C   0  0  0  0  0  0  0  0  0  0  0  0
   27.8194   27.5367    0.8580 C   0  0  0  0  0  0  0  0  0  0  0  0
   30.0194   26.0367    0.6580 C   0  0  0  0  0  0  0  0  0  0  0  0
   34.6194   24.7367    5.6580 C   0  0  0  0  0  0  0  0  0  0  0  0
   33.6194   25.7367    5.9580 C   0  0  0  0  0  0  0  0  0  0  0  0
   30.1194   24.7367    1.0580 O   0  0  0  0  0  0  0  0  0  0  0  0
   30.2194   23.9367    1.9580 C   0  0  0  0  0  0  0  0  0  0  0  0
   29.3194   24.0367    2.6580 O   0  0  0  0  0  0  0  0  0  0  0  0
   31.3194   23.3367    1.3580 O   0  0  0  0  0  0  0  0  0  0  0  0
   27.3194   28.7367    3.1580 C   0  0  0  0  0  0  0  0  0  0  0  0
   26.7194   29.4367    2.0580 C   0  0  0  0  0  0  0  0  0  0  0  0
   26.5194   28.2367    0.9580 C   0  0  0  0  0  0  0  0  0  0  0  0
   26.1194   30.4367    1.6580 O   0  0  0  0  0  0  0  0  0  0  0  0
   31.6194   25.9367    2.5580 C   0  0  0  0  0  0  0  0  0  0  0  0
  2  1  1  0
  3  1  1  0
  4  2  1  0
  5  4  1  0
  6  1  1  0
  7  6  1  0
  8  7  1  0
  9  6  1  0
 10  2  1  0
 11  3  1  0
 11  8  1  0
 12  9  1  0
 12 10  1  0
 13  7  1  0
 14  4  1  0
 15 14  1  0
 16 14  1  0
 17  4  1  0
 17  5  1  0
 18 13  1  0
 19  9  1  0
 19 18  1  0
 20 17  1  0
 21 20  1  0
 22 21  2  0
 23 11  1  0
 23 21  1  0
 24 15  1  0
 25 24  1  0
 26 16  1  0
 26 25  1  0
 27 25  2  0
 28  1  1  0
M  END
>  <ID>  (1) 
conformer_0

$$$$
