
     RDKit          3D

 21 25  0  0  0  0  0  0  0  0999 V2000
   32.4194   26.4367    2.3580 C   0  0  0  0  0  0  0  0  0  0  0  0
   31.4194   27.5367    2.3580 C   0  0  0  0  0  0  0  0  0  0  0  0
   32.2194   25.5367    1.2580 C   0  0  0  0  0  0  0  0  0  0  0  0
   30.3194   27.3367    1.3580 C   0  0  0  0  0  0  0  0  0  0  0  0
   30.7194   27.0367   -0.0420 C   0  0  0  0  0  0  0  0  0  0  0  0
   32.8194   25.8367    3.6580 C   0  0  0  0  0  0  0  0  0  0  0  0
   33.7194   24.7367    3.2580 C   0  0  0  0  0  0  0  0  0  0  0  0
   33.2194   23.6367    2.4580 C   0  0  0  0  0  0  0  0  0  0  0  0
   31.0194   27.8367    3.7580 C   0  0  0  0  0  0  0  0  0  0  0  0
   32.6194   26.3367    4.9580 C   0  0  0  0  0  0  0  0  0  0  0  0
   31.4194   27.3367    5.0580 C   0  0  0  0  0  0  0  0  0  0  0  0
   32.5194   24.1367    1.2580 C   0  0  0  0  0  0  0  0  0  0  0  0
   34.8194   24.5367    4.2580 C   0  0  0  0  0  0  0  0  0  0  0  0
   29.3194   28.4367    1.4580 C   0  0  0  0  0  0  0  0  0  0  0  0
   29.8194   27.5367   -0.9420 C   0  0  0  0  0  0  0  0  0  0  0  0
   28.4194   27.5367   -0.7420 C   0  0  0  0  0  0  0  0  0  0  0  0
   28.0194   27.8367    0.6580 C   0  0  0  0  0  0  0  0  0  0  0  0
   34.5194   24.8367    5.6580 C   0  0  0  0  0  0  0  0  0  0  0  0
   33.6194   25.9367    6.0580 C   0  0  0  0  0  0  0  0  0  0  0  0
   31.0194   24.7367    1.1580 C   0  0  0  0  0  0  0  0  0  0  0  0
   30.3194   23.8367    1.0580 O   0  0  0  0  0  0  0  0  0  0  0  0
  2  1  2  0
  3  1  1  0
  4  2  1  0
  5  4  1  0
  6  1  1  0
  7  6  1  0
  8  7  1  0
  9  2  1  0
 10  6  2  0
 11  9  2  0
 11 10  1  0
 12  3  1  0
 12  8  1  0
 13  7  1  0
 14  4  1  0
 15  5  1  0
 16 15  1  0
 17 14  1  0
 17 16  1  0
 18 13  1  0
 19 10  1  0
 19 18  1  0
 20  3  1  0
 20 12  1  0
 21 20  1  0
M  END
>  <ID>  (1) 
conformer_0

$$$$
