
     RDKit          3D

 29 35  0  0  0  0  0  0  0  0999 V2000
   32.4194   26.4367    2.3580 C   0  0  0  0  0  0  0  0  0  0  0  0
   31.4194   27.5367    2.3580 C   0  0  0  0  0  0  0  0  0  0  0  0
   32.2194   25.5367    1.2580 C   0  0  0  0  0  0  0  0  0  0  0  0
   30.3194   27.3367    1.3580 C   0  0  0  0  0  0  0  0  0  0  0  0
   30.7194   27.0367   -0.0420 C   0  0  0  0  0  0  0  0  0  0  0  0
   32.8194   25.8367    3.6580 C   0  0  0  0  0  0  0  0  0  0  0  0
   33.7194   24.7367    3.2580 C   0  0  0  0  0  0  0  0  0  0  0  0
   33.2194   23.6367    2.4580 C   0  0  0  0  0  0  0  0  0  0  0  0
   30.9194   27.6367    3.7580 C   0  0  0  0  0  0  0  0  0  0  0  0
   32.6194   26.3367    4.9580 C   0  0  0  0  0  0  0  0  0  0  0  0
   32.6194   24.1367    1.1580 C   0  0  0  0  0  0  0  0  0  0  0  0
   34.9194   24.3367    4.0580 C   0  0  0  0  0  0  0  0  0  0  0  0
   31.4194   27.3367    5.0580 C   0  0  0  0  0  0  0  0  0  0  0  0
   29.5194   26.2367    1.9580 C   0  0  0  0  0  0  0  0  0  0  0  0
   34.7194   24.7367    5.4580 C   0  0  0  0  0  0  0  0  0  0  0  0
   29.8194   24.9367    1.3580 C   0  0  0  0  0  0  0  0  0  0  0  0
   33.5194   25.4367    5.9580 C   0  0  0  0  0  0  0  0  0  0  0  0
   30.3194   25.3367    2.7580 C   0  0  0  0  0  0  0  0  0  0  0  0
   31.6194   25.8367    2.7580 C   0  0  0  0  0  0  0  0  0  0  0  0
   28.9194   23.9367    1.3580 O   0  0  0  0  0  0  0  0  0  0  0  0
   30.4194   27.8367   -1.2420 C   0  0  0  0  0  0  0  0  0  0  0  0
   29.1194   28.4367   -1.1420 C   0  0  0  0  0  0  0  0  0  0  0  0
   28.1194   27.9367   -0.1420 C   0  0  0  0  0  0  0  0  0  0  0  0
   27.0194   28.9367   -0.1420 C   0  0  0  0  0  0  0  0  0  0  0  0
   28.4194   28.9367   -2.1420 O   0  0  0  0  0  0  0  0  0  0  0  0
   27.6194   30.1367   -2.0420 C   0  0  0  0  0  0  0  0  0  0  0  0
   27.3194   30.7367   -3.0420 O   0  0  0  0  0  0  0  0  0  0  0  0
   27.4194   30.3367   -0.6420 C   0  0  0  0  0  0  0  0  0  0  0  0
   31.8194   23.4367    2.1580 O   0  0  0  0  0  0  0  0  0  0  0  0
  2  1  1  0
  3  1  1  0
  4  2  1  0
  5  4  1  0
  6  1  1  0
  7  6  1  0
  8  7  1  0
  9  2  1  0
 10  6  1  0
 11  3  1  0
 11  8  1  0
 12  7  1  0
 13  9  1  0
 13 10  1  0
 14  4  1  0
 15 12  1  0
 16 14  1  0
 17 10  1  0
 17 15  1  0
 18 14  1  0
 18 16  1  0
 19  1  1  0
 19 18  1  0
 20 16  1  0
 21  5  1  0
 22 21  1  0
 23 22  1  0
 24 23  1  0
 25 22  1  0
 26 25  1  0
 27 26  2  0
 28 24  1  0
 28 26  1  0
 29  8  1  0
 29 11  1  0
M  END
>  <ID>  (1) 
conformer_0

$$$$
