
     RDKit          3D

 28 34  0  0  0  0  0  0  0  0999 V2000
   32.4194   26.4367    2.3580 C   0  0  0  0  0  0  0  0  0  0  0  0
   31.4194   27.5367    2.3580 C   0  0  0  0  0  0  0  0  0  0  0  0
   32.2194   25.5367    1.2580 C   0  0  0  0  0  0  0  0  0  0  0  0
   30.3194   27.3367    1.3580 C   0  0  0  0  0  0  0  0  0  0  0  0
   30.7194   27.0367   -0.0420 C   0  0  0  0  0  0  0  0  0  0  0  0
   32.8194   25.8367    3.6580 C   0  0  0  0  0  0  0  0  0  0  0  0
   33.8194   24.7367    3.4580 C   0  0  0  0  0  0  0  0  0  0  0  0
   32.7194   26.5367    4.8580 C   0  0  0  0  0  0  0  0  0  0  0  0
   31.0194   27.8367    3.7580 C   0  0  0  0  0  0  0  0  0  0  0  0
   32.5194   24.1367    1.3580 C   0  0  0  0  0  0  0  0  0  0  0  0
   32.4194   24.3367    3.7580 C   0  0  0  0  0  0  0  0  0  0  0  0
   32.0194   24.0367    5.1580 C   0  0  0  0  0  0  0  0  0  0  0  0
   31.8194   23.6367    2.6580 C   0  0  0  0  0  0  0  0  0  0  0  0
   28.9194   27.3367    1.7580 C   0  0  0  0  0  0  0  0  0  0  0  0
   28.5194   28.0367    2.9580 C   0  0  0  0  0  0  0  0  0  0  0  0
   27.8194   27.4367    0.7580 C   0  0  0  0  0  0  0  0  0  0  0  0
   29.6194   28.3367    3.9580 C   0  0  0  0  0  0  0  0  0  0  0  0
   33.5194   25.9367    5.9580 C   0  0  0  0  0  0  0  0  0  0  0  0
   32.9194   24.4367    6.2580 C   0  0  0  0  0  0  0  0  0  0  0  0
   30.8194   25.8367    0.6580 C   0  0  0  0  0  0  0  0  0  0  0  0
   31.0194   22.6367    2.6580 O   0  0  0  0  0  0  0  0  0  0  0  0
   29.9194   24.7367    0.9580 O   0  0  0  0  0  0  0  0  0  0  0  0
   26.7194   28.4367    0.8580 C   0  0  0  0  0  0  0  0  0  0  0  0
   26.2194   28.8367    2.1580 C   0  0  0  0  0  0  0  0  0  0  0  0
   27.3194   28.8367    3.1580 C   0  0  0  0  0  0  0  0  0  0  0  0
   26.3194   29.0367   -0.2420 O   0  0  0  0  0  0  0  0  0  0  0  0
   26.8194   29.6367   -1.3420 C   0  0  0  0  0  0  0  0  0  0  0  0
   26.5194   30.1367   -2.3420 O   0  0  0  0  0  0  0  0  0  0  0  0
  2  1  1  0
  3  1  1  0
  4  2  1  0
  5  4  1  0
  6  1  1  0
  7  6  1  0
  8  6  1  0
  9  2  1  0
 10  3  1  0
 11  6  1  0
 11  7  1  0
 12 11  1  0
 13 10  1  0
 13 11  1  0
 14  4  1  0
 15 14  1  0
 16 14  1  0
 17  9  1  0
 17 15  1  0
 18  8  1  0
 19 12  1  0
 19 18  1  0
 20  3  1  0
 20  4  1  0
 20  5  1  0
 21 13  2  0
 22 20  1  0
 23 16  1  0
 24 23  1  0
 25 15  2  0
 25 24  1  0
 26 23  1  0
 27 26  1  0
 28 27  2  0
M  END
>  <ID>  (1) 
conformer_0

$$$$
