
     RDKit          3D

 20 24  0  0  0  0  0  0  0  0999 V2000
   32.8093   25.7831    4.0600 C   0  0  0  0  0  0  0  0  0  0  0  0
   32.7093   26.1831    2.6600 C   0  0  0  0  0  0  0  0  0  0  0  0
   32.5093   25.0831    1.6600 C   0  0  0  0  0  0  0  0  0  0  0  0
   31.8093   25.4831    0.4600 C   0  0  0  0  0  0  0  0  0  0  0  0
   31.9093   27.3831    2.2600 C   0  0  0  0  0  0  0  0  0  0  0  0
   30.6093   27.3831    1.5600 C   0  0  0  0  0  0  0  0  0  0  0  0
   30.4093   25.9831    1.0600 C   0  0  0  0  0  0  0  0  0  0  0  0
   31.9093   27.8831    0.9600 C   0  0  0  0  0  0  0  0  0  0  0  0
   33.7093   24.6831    4.3600 C   0  0  0  0  0  0  0  0  0  0  0  0
   32.9093   23.7831    2.1600 C   0  0  0  0  0  0  0  0  0  0  0  0
   34.0093   23.7831    3.1600 C   0  0  0  0  0  0  0  0  0  0  0  0
   34.6093   22.4831    3.5600 C   0  0  0  0  0  0  0  0  0  0  0  0
   29.6093   28.3831    1.6600 C   0  0  0  0  0  0  0  0  0  0  0  0
   34.8093   22.0831    4.9600 C   0  0  0  0  0  0  0  0  0  0  0  0
   35.4093   23.1831    5.6600 C   0  0  0  0  0  0  0  0  0  0  0  0
   34.7093   24.4831    5.5600 C   0  0  0  0  0  0  0  0  0  0  0  0
   34.3093   25.2831    6.7600 C   0  0  0  0  0  0  0  0  0  0  0  0
   31.5093   23.9831    2.5600 C   0  0  0  0  0  0  0  0  0  0  0  0
   30.3093   23.4831    1.8600 C   0  0  0  0  0  0  0  0  0  0  0  0
   31.8093   28.1831   -0.2400 O   0  0  0  0  0  0  0  0  0  0  0  0
  2  1  1  0
  3  2  1  0
  4  3  1  0
  5  2  1  0
  6  5  1  0
  7  4  1  0
  7  6  1  0
  8  5  1  0
  8  6  1  0
  9  1  1  0
 10  3  1  0
 11  9  1  0
 11 10  1  0
 12 11  1  0
 13  6  1  0
 14 12  1  0
 15 14  1  0
 16  9  1  0
 16 15  1  0
 17 16  1  0
 18  3  1  0
 18 10  1  0
 19 18  1  0
 20  8  2  0
M  END
>  <ID>  (1) 
conformer_0

$$$$
