
     RDKit          3D

 24 30  0  0  0  0  0  0  0  0999 V2000
   32.4194   26.4367    2.3580 C   0  0  0  0  0  0  0  0  0  0  0  0
   31.4194   27.5367    2.3580 C   0  0  0  0  0  0  0  0  0  0  0  0
   32.2194   25.5367    1.2580 C   0  0  0  0  0  0  0  0  0  0  0  0
   30.3194   27.3367    1.3580 C   0  0  0  0  0  0  0  0  0  0  0  0
   30.7194   27.0367   -0.0420 C   0  0  0  0  0  0  0  0  0  0  0  0
   32.8194   25.8367    3.6580 C   0  0  0  0  0  0  0  0  0  0  0  0
   33.8194   24.7367    3.4580 C   0  0  0  0  0  0  0  0  0  0  0  0
   32.7194   26.5367    4.8580 C   0  0  0  0  0  0  0  0  0  0  0  0
   31.0194   27.8367    3.7580 C   0  0  0  0  0  0  0  0  0  0  0  0
   32.5194   24.1367    1.3580 C   0  0  0  0  0  0  0  0  0  0  0  0
   32.4194   24.3367    3.7580 C   0  0  0  0  0  0  0  0  0  0  0  0
   31.7194   27.7367    4.9580 C   0  0  0  0  0  0  0  0  0  0  0  0
   31.9194   23.5367    2.6580 C   0  0  0  0  0  0  0  0  0  0  0  0
   28.9194   27.5367    1.5580 C   0  0  0  0  0  0  0  0  0  0  0  0
   28.2194   27.7367    0.2580 C   0  0  0  0  0  0  0  0  0  0  0  0
   28.5194   28.1367    2.8580 C   0  0  0  0  0  0  0  0  0  0  0  0
   30.7194   25.8367    0.7580 C   0  0  0  0  0  0  0  0  0  0  0  0
   28.7194   28.4367   -0.8420 C   0  0  0  0  0  0  0  0  0  0  0  0
   28.0194   28.9367   -1.7420 O   0  0  0  0  0  0  0  0  0  0  0  0
   28.4194   27.2367   -0.7420 O   0  0  0  0  0  0  0  0  0  0  0  0
   30.1194   24.5367    1.0580 O   0  0  0  0  0  0  0  0  0  0  0  0
   28.1194   29.5367   -2.9420 C   0  0  0  0  0  0  0  0  0  0  0  0
   29.1194   30.6367   -3.1420 C   0  0  0  0  0  0  0  0  0  0  0  0
   28.9194   26.7367    2.4580 C   0  0  0  0  0  0  0  0  0  0  0  0
  2  1  1  0
  3  1  1  0
  4  2  1  0
  5  4  1  0
  6  1  1  0
  7  6  1  0
  8  6  1  0
  9  2  1  0
 10  3  1  0
 11  6  1  0
 11  7  1  0
 12  8  1  0
 12  9  1  0
 13 10  1  0
 13 11  1  0
 14  4  1  0
 15 14  1  0
 16 14  1  0
 17  3  1  0
 17  4  1  0
 17  5  1  0
 18 15  1  0
 19 18  1  0
 20 15  1  0
 20 18  1  0
 21 17  1  0
 22 19  1  0
 23 22  1  0
 24 14  1  0
 24 16  1  0
M  END
>  <ID>  (1) 
conformer_0

$$$$
