
     RDKit          3D

 24 29  0  0  0  0  0  0  0  0999 V2000
   32.4194   26.4367    2.3580 C   0  0  0  0  0  0  0  0  0  0  0  0
   31.4194   27.5367    2.3580 C   0  0  0  0  0  0  0  0  0  0  0  0
   32.2194   25.5367    1.2580 C   0  0  0  0  0  0  0  0  0  0  0  0
   30.3194   27.3367    1.3580 C   0  0  0  0  0  0  0  0  0  0  0  0
   30.7194   27.0367   -0.0420 C   0  0  0  0  0  0  0  0  0  0  0  0
   32.8194   25.8367    3.6580 C   0  0  0  0  0  0  0  0  0  0  0  0
   33.7194   24.7367    3.2580 C   0  0  0  0  0  0  0  0  0  0  0  0
   33.2194   23.6367    2.4580 C   0  0  0  0  0  0  0  0  0  0  0  0
   30.9194   27.6367    3.7580 C   0  0  0  0  0  0  0  0  0  0  0  0
   32.6194   26.3367    4.9580 C   0  0  0  0  0  0  0  0  0  0  0  0
   34.9194   24.4367    4.0580 C   0  0  0  0  0  0  0  0  0  0  0  0
   33.5194   25.6367    5.8580 C   0  0  0  0  0  0  0  0  0  0  0  0
   34.7194   24.9367    5.5580 C   0  0  0  0  0  0  0  0  0  0  0  0
   32.4194   24.1367    1.1580 C   0  0  0  0  0  0  0  0  0  0  0  0
   29.1194   28.0367    1.7580 C   0  0  0  0  0  0  0  0  0  0  0  0
   28.5194   28.2367    3.0580 C   0  0  0  0  0  0  0  0  0  0  0  0
   28.1194   28.1367    0.6580 C   0  0  0  0  0  0  0  0  0  0  0  0
   29.7194   28.2367    4.1580 C   0  0  0  0  0  0  0  0  0  0  0  0
   29.9194   26.0367    0.6580 C   0  0  0  0  0  0  0  0  0  0  0  0
   28.5194   28.2367   -0.7420 C   0  0  0  0  0  0  0  0  0  0  0  0
   27.9194   28.9367   -1.6420 O   0  0  0  0  0  0  0  0  0  0  0  0
   29.8194   27.6367   -1.0420 O   0  0  0  0  0  0  0  0  0  0  0  0
   31.6194   25.8367    2.5580 C   0  0  0  0  0  0  0  0  0  0  0  0
   31.9194   23.3367    2.1580 O   0  0  0  0  0  0  0  0  0  0  0  0
  2  1  1  0
  3  1  1  0
  4  2  1  0
  5  4  1  0
  6  1  1  0
  7  6  1  0
  8  7  1  0
  9  2  1  0
 10  6  1  0
 11  7  1  0
 12 10  1  0
 13 11  1  0
 13 12  1  0
 14  3  1  0
 14  8  1  0
 15  4  1  0
 16 15  1  0
 17 15  1  0
 18  9  1  0
 18 16  1  0
 19  4  1  0
 19  5  1  0
 20 17  1  0
 21 20  2  0
 22  5  1  0
 22 20  1  0
 23  1  1  0
 24  8  1  0
 24 14  1  0
M  END
>  <ID>  (1) 
conformer_0

$$$$
