
     RDKit          3D

 25 30  0  0  0  0  0  0  0  0999 V2000
   32.4194   26.4367    2.3580 C   0  0  0  0  0  0  0  0  0  0  0  0
   31.4194   27.5367    2.3580 C   0  0  0  0  0  0  0  0  0  0  0  0
   32.2194   25.5367    1.2580 C   0  0  0  0  0  0  0  0  0  0  0  0
   30.5194   27.5367    1.1580 C   0  0  0  0  0  0  0  0  0  0  0  0
   30.9194   27.1367   -0.1420 C   0  0  0  0  0  0  0  0  0  0  0  0
   32.7194   25.8367    3.6580 C   0  0  0  0  0  0  0  0  0  0  0  0
   33.5194   24.6367    3.3580 C   0  0  0  0  0  0  0  0  0  0  0  0
   33.2194   23.5367    2.5580 C   0  0  0  0  0  0  0  0  0  0  0  0
   32.4194   26.5367    4.8580 C   0  0  0  0  0  0  0  0  0  0  0  0
   30.9194   28.1367    3.5580 C   0  0  0  0  0  0  0  0  0  0  0  0
   31.1194   27.5367    4.8580 C   0  0  0  0  0  0  0  0  0  0  0  0
   32.5194   24.1367    1.2580 C   0  0  0  0  0  0  0  0  0  0  0  0
   34.7194   24.4367    4.1580 C   0  0  0  0  0  0  0  0  0  0  0  0
   29.3194   28.3367    1.4580 C   0  0  0  0  0  0  0  0  0  0  0  0
   28.5194   28.2367    2.6580 C   0  0  0  0  0  0  0  0  0  0  0  0
   28.8194   29.0367    0.2580 C   0  0  0  0  0  0  0  0  0  0  0  0
   29.0194   28.3367   -1.0420 C   0  0  0  0  0  0  0  0  0  0  0  0
   30.4194   27.9367   -1.2420 C   0  0  0  0  0  0  0  0  0  0  0  0
   28.6194   29.3367   -2.0420 O   0  0  0  0  0  0  0  0  0  0  0  0
   33.5194   24.0367    4.9580 C   0  0  0  0  0  0  0  0  0  0  0  0
   30.9194   24.8367    1.0580 C   0  0  0  0  0  0  0  0  0  0  0  0
   30.2194   24.3367    2.0580 O   0  0  0  0  0  0  0  0  0  0  0  0
   28.9194   24.0367    1.9580 C   0  0  0  0  0  0  0  0  0  0  0  0
   28.1194   24.9367    1.9580 O   0  0  0  0  0  0  0  0  0  0  0  0
   27.8194   23.5367    2.3580 C   0  0  0  0  0  0  0  0  0  0  0  0
  2  1  1  0
  3  1  1  0
  4  2  1  0
  5  4  1  0
  6  1  1  0
  7  6  1  0
  8  7  1  0
  9  6  1  0
 10  2  1  0
 11  9  1  0
 11 10  1  0
 12  3  1  0
 12  8  1  0
 13  7  1  0
 14  4  1  0
 15 14  1  0
 16 14  1  0
 17 16  1  0
 18  5  1  0
 18 17  1  0
 19 17  1  0
 20  7  1  0
 20 13  1  0
 21  3  1  0
 21 12  1  0
 22 21  1  0
 23 22  1  0
 24 23  1  0
 25 23  1  0
 25 24  1  0
M  END
>  <ID>  (1) 
conformer_0

$$$$
