
     RDKit          3D

 25 29  0  0  0  0  0  0  0  0999 V2000
   32.4194   26.4367    2.3580 C   0  0  0  0  0  0  0  0  0  0  0  0
   31.4194   27.5367    2.3580 C   0  0  0  0  0  0  0  0  0  0  0  0
   32.2194   25.5367    1.2580 C   0  0  0  0  0  0  0  0  0  0  0  0
   30.3194   27.3367    1.3580 C   0  0  0  0  0  0  0  0  0  0  0  0
   30.7194   27.0367   -0.0420 C   0  0  0  0  0  0  0  0  0  0  0  0
   32.8194   25.8367    3.6580 C   0  0  0  0  0  0  0  0  0  0  0  0
   33.7194   24.7367    3.2580 C   0  0  0  0  0  0  0  0  0  0  0  0
   33.0194   23.6367    2.5580 C   0  0  0  0  0  0  0  0  0  0  0  0
   32.5194   24.1367    1.2580 C   0  0  0  0  0  0  0  0  0  0  0  0
   30.9194   27.9367    3.6580 C   0  0  0  0  0  0  0  0  0  0  0  0
   32.5194   26.4367    4.9580 C   0  0  0  0  0  0  0  0  0  0  0  0
   31.7194   27.7367    4.8580 C   0  0  0  0  0  0  0  0  0  0  0  0
   34.9194   24.4367    4.0580 C   0  0  0  0  0  0  0  0  0  0  0  0
   29.2194   28.3367    1.4580 C   0  0  0  0  0  0  0  0  0  0  0  0
   28.2194   27.8367    0.4580 C   0  0  0  0  0  0  0  0  0  0  0  0
   30.0194   26.1367    0.6580 C   0  0  0  0  0  0  0  0  0  0  0  0
   28.6194   28.6367    2.7580 C   0  0  0  0  0  0  0  0  0  0  0  0
   33.8194   24.2367    4.9580 C   0  0  0  0  0  0  0  0  0  0  0  0
   28.5194   28.1367   -0.9420 C   0  0  0  0  0  0  0  0  0  0  0  0
   27.0194   28.1367    0.8580 O   0  0  0  0  0  0  0  0  0  0  0  0
   29.7194   28.8367   -1.3420 C   0  0  0  0  0  0  0  0  0  0  0  0
   30.8194   27.8367   -1.1420 O   0  0  0  0  0  0  0  0  0  0  0  0
   29.8194   29.2367   -2.5420 O   0  0  0  0  0  0  0  0  0  0  0  0
   31.7194   25.9367    2.5580 C   0  0  0  0  0  0  0  0  0  0  0  0
   31.9194   23.0367    3.2580 O   0  0  0  0  0  0  0  0  0  0  0  0
  2  1  1  0
  3  1  1  0
  4  2  1  0
  5  4  1  0
  6  1  1  0
  7  6  1  0
  8  7  1  0
  9  3  1  0
  9  8  1  0
 10  2  1  0
 11  6  1  0
 12 10  1  0
 12 11  1  0
 13  7  1  0
 14  4  1  0
 15 14  1  0
 16  4  1  0
 16  5  1  0
 17 14  1  0
 18  7  1  0
 18 13  1  0
 19 15  1  0
 20 15  1  0
 21 19  1  0
 22  5  1  0
 22 21  1  0
 23 21  1  0
 24  1  1  0
 25  8  1  0
M  END
>  <ID>  (1) 
conformer_0

$$$$
