
     RDKit          3D

 15 19  0  0  0  0  0  0  0  0999 V2000
   33.1339   25.5837    3.0886 C   0  0  0  0  0  0  0  0  0  0  0  0
   31.8339   25.5837    2.3886 C   0  0  0  0  0  0  0  0  0  0  0  0
   31.8339   24.8837    1.0886 C   0  0  0  0  0  0  0  0  0  0  0  0
   30.9339   23.7837    0.9886 C   0  0  0  0  0  0  0  0  0  0  0  0
   30.6339   25.2837    3.0886 C   0  0  0  0  0  0  0  0  0  0  0  0
   29.4339   25.2837    2.1886 C   0  0  0  0  0  0  0  0  0  0  0  0
   29.5339   25.9837    0.8886 C   0  0  0  0  0  0  0  0  0  0  0  0
   31.8339   26.2837    1.0886 C   0  0  0  0  0  0  0  0  0  0  0  0
   30.5339   27.0837    0.7886 C   0  0  0  0  0  0  0  0  0  0  0  0
   33.2339   25.2837    4.4886 C   0  0  0  0  0  0  0  0  0  0  0  0
   30.7339   24.5837    4.3886 C   0  0  0  0  0  0  0  0  0  0  0  0
   29.9339   23.8837    2.1886 C   0  0  0  0  0  0  0  0  0  0  0  0
   31.9339   24.7837    5.1886 C   0  0  0  0  0  0  0  0  0  0  0  0
   32.1339   23.9837    6.3886 C   0  0  0  0  0  0  0  0  0  0  0  0
   32.7339   24.5837    7.4886 O   0  0  0  0  0  0  0  0  0  0  0  0
  2  1  1  0
  3  2  1  0
  4  3  1  0
  5  2  1  0
  6  5  1  0
  7  6  1  0
  8  2  1  0
  8  3  1  0
  9  7  1  0
  9  8  1  0
 10  1  2  0
 11  5  1  0
 12  4  1  0
 12  5  1  0
 12  6  1  0
 13 10  1  0
 13 11  1  0
 14 13  1  0
 15 14  1  0
M  END
>  <ID>  (1) 
conformer_0

$$$$
