
     RDKit          3D

 31 35  0  0  0  0  0  0  0  0999 V2000
   32.4194   26.4367    2.3580 C   0  0  0  0  0  0  0  0  0  0  0  0
   31.4194   27.5367    2.3580 C   0  0  0  0  0  0  0  0  0  0  0  0
   32.2194   25.5367    1.2580 C   0  0  0  0  0  0  0  0  0  0  0  0
   30.3194   27.3367    1.3580 C   0  0  0  0  0  0  0  0  0  0  0  0
   30.7194   27.0367   -0.0420 C   0  0  0  0  0  0  0  0  0  0  0  0
   32.8194   25.8367    3.6580 C   0  0  0  0  0  0  0  0  0  0  0  0
   33.7194   24.7367    3.2580 C   0  0  0  0  0  0  0  0  0  0  0  0
   33.2194   23.6367    2.4580 C   0  0  0  0  0  0  0  0  0  0  0  0
   31.0194   27.8367    3.7580 C   0  0  0  0  0  0  0  0  0  0  0  0
   32.6194   26.3367    4.9580 C   0  0  0  0  0  0  0  0  0  0  0  0
   31.4194   27.3367    5.0580 C   0  0  0  0  0  0  0  0  0  0  0  0
   32.5194   24.1367    1.2580 C   0  0  0  0  0  0  0  0  0  0  0  0
   34.8194   24.5367    4.2580 C   0  0  0  0  0  0  0  0  0  0  0  0
   29.4194   28.5367    1.3580 C   0  0  0  0  0  0  0  0  0  0  0  0
   29.9194   27.8367   -0.9420 C   0  0  0  0  0  0  0  0  0  0  0  0
   35.5194   23.2367    4.3580 C   0  0  0  0  0  0  0  0  0  0  0  0
   34.5194   22.1367    4.1580 C   0  0  0  0  0  0  0  0  0  0  0  0
   33.2194   22.1367    4.4580 C   0  0  0  0  0  0  0  0  0  0  0  0
   32.5194   21.5367    5.5580 C   0  0  0  0  0  0  0  0  0  0  0  0
   32.9194   21.7367    6.9580 C   0  0  0  0  0  0  0  0  0  0  0  0
   32.7194   20.7367    8.0580 C   0  0  0  0  0  0  0  0  0  0  0  0
   33.4194   21.2367    9.2580 C   0  0  0  0  0  0  0  0  0  0  0  0
   33.7194   22.6367    9.0580 C   0  0  0  0  0  0  0  0  0  0  0  0
   33.4194   23.0367    7.6580 C   0  0  0  0  0  0  0  0  0  0  0  0
   28.1194   28.5367    0.6580 C   0  0  0  0  0  0  0  0  0  0  0  0
   28.4194   27.9367   -0.6420 C   0  0  0  0  0  0  0  0  0  0  0  0
   28.1194   28.8367   -1.7420 O   0  0  0  0  0  0  0  0  0  0  0  0
   26.9194   29.6367   -1.3420 C   0  0  0  0  0  0  0  0  0  0  0  0
   34.4194   23.5367    6.6580 C   0  0  0  0  0  0  0  0  0  0  0  0
   31.8194   25.8367    2.6580 C   0  0  0  0  0  0  0  0  0  0  0  0
   31.8194   23.3367    2.4580 O   0  0  0  0  0  0  0  0  0  0  0  0
  2  1  1  0
  3  1  1  0
  4  2  1  0
  5  4  1  0
  7  6  1  0
  8  7  1  0
  9  2  1  0
 10  6  1  0
 11  9  1  0
 11 10  1  0
 12  3  1  0
 12  8  1  0
 13  7  1  0
 14  4  1  0
 15  5  1  0
 16 13  1  0
 17 16  1  0
 18 17  1  0
 19 18  1  0
 20 19  1  0
 21 20  1  0
 22 21  1  0
 23 22  1  0
 24 20  1  0
 24 23  1  0
 25 14  1  0
 26 15  1  0
 26 25  1  0
 27 26  1  0
 28 27  1  0
 29 24  1  0
 30  1  1  0
 30  6  1  0
 31  8  1  0
 31 12  1  0
M  END
>  <ID>  (1) 
conformer_0

$$$$
