
     RDKit          3D

 24 29  0  0  0  0  0  0  0  0999 V2000
   32.4194   26.4367    2.3580 C   0  0  0  0  0  0  0  0  0  0  0  0
   31.4194   27.5367    2.3580 C   0  0  0  0  0  0  0  0  0  0  0  0
   32.2194   25.5367    1.2580 C   0  0  0  0  0  0  0  0  0  0  0  0
   30.3194   27.3367    1.3580 C   0  0  0  0  0  0  0  0  0  0  0  0
   30.7194   27.0367   -0.0420 C   0  0  0  0  0  0  0  0  0  0  0  0
   32.8194   25.8367    3.6580 C   0  0  0  0  0  0  0  0  0  0  0  0
   33.8194   24.7367    3.4580 C   0  0  0  0  0  0  0  0  0  0  0  0
   32.7194   26.5367    4.8580 C   0  0  0  0  0  0  0  0  0  0  0  0
   31.0194   27.8367    3.7580 C   0  0  0  0  0  0  0  0  0  0  0  0
   32.5194   24.1367    1.4580 C   0  0  0  0  0  0  0  0  0  0  0  0
   31.3194   27.2367    5.0580 C   0  0  0  0  0  0  0  0  0  0  0  0
   34.7194   24.4367    4.5580 C   0  0  0  0  0  0  0  0  0  0  0  0
   34.3194   24.6367    5.9580 C   0  0  0  0  0  0  0  0  0  0  0  0
   29.7194   27.5367   -1.0420 C   0  0  0  0  0  0  0  0  0  0  0  0
   29.3194   28.4367    1.3580 C   0  0  0  0  0  0  0  0  0  0  0  0
   28.0194   28.2367    0.7580 C   0  0  0  0  0  0  0  0  0  0  0  0
   33.6194   25.9367    5.9580 C   0  0  0  0  0  0  0  0  0  0  0  0
   28.3194   27.6367   -0.5420 C   0  0  0  0  0  0  0  0  0  0  0  0
   29.0194   29.0367    2.6580 C   0  0  0  0  0  0  0  0  0  0  0  0
   26.9194   27.6367    1.3580 O   0  0  0  0  0  0  0  0  0  0  0  0
   33.4194   23.6367    2.4580 C   0  0  0  0  0  0  0  0  0  0  0  0
   31.0194   24.7367    1.0580 C   0  0  0  0  0  0  0  0  0  0  0  0
   30.2194   23.7367    1.2580 O   0  0  0  0  0  0  0  0  0  0  0  0
   29.2194   29.5367    0.4580 C   0  0  0  0  0  0  0  0  0  0  0  0
  2  1  1  0
  3  1  1  0
  4  2  1  0
  5  4  1  0
  6  1  1  0
  7  6  1  0
  8  6  1  0
  9  2  1  0
 10  3  1  0
 11  8  1  0
 11  9  1  0
 12  7  1  0
 13 12  1  0
 14  5  1  0
 15  4  1  0
 16 15  1  0
 17  8  1  0
 17 13  1  0
 18 14  1  0
 18 16  1  0
 19 15  1  0
 20 16  1  0
 21  7  1  0
 21 10  1  0
 22  3  1  0
 22 10  1  0
 23 22  1  0
 24 15  1  0
 24 16  1  0
M  END
>  <ID>  (1) 
conformer_0

$$$$
