
     RDKit          3D

 27 33  0  0  0  0  0  0  0  0999 V2000
   32.4194   26.4367    2.3580 C   0  0  0  0  0  0  0  0  0  0  0  0
   31.4194   27.5367    2.3580 C   0  0  0  0  0  0  0  0  0  0  0  0
   32.2194   25.5367    1.2580 C   0  0  0  0  0  0  0  0  0  0  0  0
   30.3194   27.3367    1.3580 C   0  0  0  0  0  0  0  0  0  0  0  0
   30.7194   27.0367   -0.0420 C   0  0  0  0  0  0  0  0  0  0  0  0
   32.8194   25.8367    3.6580 C   0  0  0  0  0  0  0  0  0  0  0  0
   33.7194   24.7367    3.2580 C   0  0  0  0  0  0  0  0  0  0  0  0
   33.2194   23.6367    2.4580 C   0  0  0  0  0  0  0  0  0  0  0  0
   32.8194   26.5367    4.8580 C   0  0  0  0  0  0  0  0  0  0  0  0
   30.9194   28.0367    3.6580 C   0  0  0  0  0  0  0  0  0  0  0  0
   31.6194   25.7367    4.5580 C   0  0  0  0  0  0  0  0  0  0  0  0
   32.5194   24.1367    1.1580 C   0  0  0  0  0  0  0  0  0  0  0  0
   34.9194   24.3367    4.0580 C   0  0  0  0  0  0  0  0  0  0  0  0
   29.2194   28.3367    1.5580 C   0  0  0  0  0  0  0  0  0  0  0  0
   28.5194   28.2367    2.8580 C   0  0  0  0  0  0  0  0  0  0  0  0
   28.2194   28.1367    0.4580 C   0  0  0  0  0  0  0  0  0  0  0  0
   29.9194   26.1367    0.7580 C   0  0  0  0  0  0  0  0  0  0  0  0
   26.9194   28.6367    0.8580 C   0  0  0  0  0  0  0  0  0  0  0  0
   27.2194   28.7367    3.2580 C   0  0  0  0  0  0  0  0  0  0  0  0
   26.5194   29.2367    2.1580 C   0  0  0  0  0  0  0  0  0  0  0  0
   26.3194   29.3367   -0.2420 O   0  0  0  0  0  0  0  0  0  0  0  0
   25.5194   30.3367    1.9580 C   0  0  0  0  0  0  0  0  0  0  0  0
   30.0194   24.9367    1.3580 O   0  0  0  0  0  0  0  0  0  0  0  0
   30.1194   23.8367    1.7580 C   0  0  0  0  0  0  0  0  0  0  0  0
   31.2194   23.2367    1.3580 O   0  0  0  0  0  0  0  0  0  0  0  0
   32.2194   25.0367    0.0580 O   0  0  0  0  0  0  0  0  0  0  0  0
   31.9194   27.9367    4.7580 C   0  0  0  0  0  0  0  0  0  0  0  0
  2  1  1  0
  3  1  1  0
  4  2  1  0
  5  4  1  0
  6  1  1  0
  7  6  1  0
  8  7  1  0
  9  6  1  0
 10  2  1  0
 11  6  1  0
 11  9  1  0
 12  3  1  0
 12  8  1  0
 13  7  1  0
 14  4  1  0
 15 14  1  0
 16 14  1  0
 17  4  1  0
 17  5  1  0
 18 16  1  0
 19 15  1  0
 20 18  1  0
 20 19  1  0
 21 18  1  0
 22 20  1  0
 23 17  1  0
 24 23  1  0
 25 12  1  0
 25 24  1  0
 26  3  1  0
 26 12  1  0
 27  9  1  0
 27 10  1  0
M  END
>  <ID>  (1) 
conformer_0

$$$$
