
     RDKit          3D

 22 23  0  0  0  0  0  0  0  0999 V2000
    3.3633   27.2843   23.5750 N   0  0  0  0  0  0  0  0  0  0  0  0
    6.2041   24.2185   28.5168 C   0  0  0  0  0  0  0  0  0  0  0  0
    3.7207   28.1183   25.7569 O   0  0  0  0  0  0  0  0  0  0  0  0
    7.3119   25.9594   23.3181 C   0  0  0  0  0  0  0  0  0  0  0  0
    8.4406   24.6922   24.9942 C   0  0  0  0  0  0  0  0  0  0  0  0
    8.0247   24.7946   23.7082 C   0  0  0  0  0  0  0  0  0  0  0  0
    8.7824   24.3558   27.7224 O   0  0  0  0  0  0  0  0  0  0  0  0
    9.8058   23.7192   26.7846 C   0  0  0  0  0  0  0  0  0  0  0  0
    8.4964   23.5334   28.8245 C   0  0  0  0  0  0  0  0  0  0  0  0
    9.7187   21.9102   22.2795 O   0  0  0  0  0  0  0  0  0  0  0  0
    9.3117   23.7168   25.3994 C   0  0  0  0  0  0  0  0  0  0  0  0
    5.9519   26.3018   23.5228 C   0  0  0  0  0  0  0  0  0  0  0  0
    9.2999   22.8375   23.1903 C   0  0  0  0  0  0  0  0  0  0  0  0
    5.4813   26.9504   24.6544 C   0  0  0  0  0  0  0  0  0  0  0  0
    9.3134   22.2602   28.8488 C   0  0  0  0  0  0  0  0  0  0  0  0
    3.8059   26.5396   22.5025 C   0  0  0  0  0  0  0  0  0  0  0  0
    8.4178   23.8217   22.7706 C   0  0  0  0  0  0  0  0  0  0  0  0
    9.7221   22.7523   24.4513 N   0  0  0  0  0  0  0  0  0  0  0  0
    4.1885   27.4565   24.6811 C   0  0  0  0  0  0  0  0  0  0  0  0
    7.2396   23.7150   29.4178 N   0  0  0  0  0  0  0  0  0  0  0  0
    5.0784   26.0572   22.4613 C   0  0  0  0  0  0  0  0  0  0  0  0
    8.4151   21.1970   29.0745 O   0  0  0  0  0  0  0  0  0  0  0  0
  1 16  1  0
  1 19  1  0
  2 20  1  0
  3 19  2  0
  4  6  1  0
  4 12  1  0
  5  6  2  0
  5 11  1  0
  6 17  1  0
  7  8  1  0
  7  9  1  0
  8 11  1  0
  9 15  1  0
  9 20  1  0
 10 13  2  0
 11 18  2  0
 12 14  2  0
 12 21  1  0
 13 17  1  0
 13 18  1  0
 14 19  1  0
 15 22  1  0
 16 21  2  0
M  END
>  <ID>  (1) 
conformer_0

$$$$
