
     RDKit          3D

 28 30  0  0  0  0  0  0  0  0999 V2000
    5.4459   23.8540   29.7368 O   0  0  0  0  0  0  0  0  0  0  0  0
    8.6892   23.1085   27.5873 O   0  0  0  0  0  0  0  0  0  0  0  0
    5.4168   28.4533   27.7107 C   0  0  0  0  0  0  0  0  0  0  0  0
    6.2469   25.7913   23.1579 C   0  0  0  0  0  0  0  0  0  0  0  0
    4.8138   27.5243   24.1504 C   0  0  0  0  0  0  0  0  0  0  0  0
    7.6496   24.8054   26.4041 N   0  0  0  0  0  0  0  0  0  0  0  0
    9.4110   23.2108   25.3524 N   0  0  0  0  0  0  0  0  0  0  0  0
    8.6323   23.7002   26.4177 C   0  0  0  0  0  0  0  0  0  0  0  0
    6.4381   24.8393   27.3121 C   0  0  0  0  0  0  0  0  0  0  0  0
    8.3763   24.8489   24.0657 C   0  0  0  0  0  0  0  0  0  0  0  0
    8.0175   25.6734   25.2507 C   0  0  0  0  0  0  0  0  0  0  0  0
    9.3145   23.7329   24.0673 C   0  0  0  0  0  0  0  0  0  0  0  0
    6.0589   26.9592   23.9595 C   0  0  0  0  0  0  0  0  0  0  0  0
    3.9184   25.9008   22.6489 C   0  0  0  0  0  0  0  0  0  0  0  0
    7.5105   24.9969   22.9458 C   0  0  0  0  0  0  0  0  0  0  0  0
    9.7342   22.8768   23.0152 C   0  0  0  0  0  0  0  0  0  0  0  0
    5.6915   27.1869   27.2287 C   0  0  0  0  0  0  0  0  0  0  0  0
    5.1336   25.3149   22.4861 C   0  0  0  0  0  0  0  0  0  0  0  0
    5.3597   25.0932   31.5878 O   0  0  0  0  0  0  0  0  0  0  0  0
    5.3078   28.5705   29.0897 C   0  0  0  0  0  0  0  0  0  0  0  0
    5.5859   26.1599   29.4117 C   0  0  0  0  0  0  0  0  0  0  0  0
   10.1344   21.6128   23.5072 O   0  0  0  0  0  0  0  0  0  0  0  0
    3.7057   26.9542   23.5268 C   0  0  0  0  0  0  0  0  0  0  0  0
    2.7961   25.5434   21.7891 F   0  0  0  0  0  0  0  0  0  0  0  0
    5.4562   24.9966   30.2956 C   0  0  0  0  0  0  0  0  0  0  0  0
    5.8900   26.0504   28.0391 C   0  0  0  0  0  0  0  0  0  0  0  0
    2.4737   27.4267   23.7460 F   0  0  0  0  0  0  0  0  0  0  0  0
    5.3964   27.4190   29.8970 C   0  0  0  0  0  0  0  0  0  0  0  0
  1 25  2  0
  2  8  2  0
  3 17  2  0
  3 20  1  0
  4 13  1  0
  4 15  1  0
  4 18  2  0
  5 13  2  0
  5 23  1  0
  6  8  1  0
  6  9  1  0
  6 11  1  0
  7  8  1  0
  7 12  1  0
  9 26  1  0
 10 11  1  0
 10 12  1  0
 10 15  1  0
 12 16  1  0
 14 18  1  0
 14 23  2  0
 14 24  1  0
 16 22  1  0
 17 26  1  0
 19 25  1  0
 20 28  2  0
 21 25  1  0
 21 26  2  0
 21 28  1  0
 23 27  1  0
M  END
>  <ID>  (1) 
conformer_0

$$$$
