
     RDKit          3D

 26 27  0  0  0  0  0  0  0  0999 V2000
    8.9950   23.2600   24.2335 O   0  0  0  0  0  0  0  0  0  0  0  0
    4.8181   25.5611   29.0111 C   0  0  0  0  0  0  0  0  0  0  0  0
    5.9173   26.3654   25.6385 C   0  0  0  0  0  0  0  0  0  0  0  0
    6.8965   24.0254   29.0584 C   0  0  0  0  0  0  0  0  0  0  0  0
    7.6580   25.3002   23.9197 C   0  0  0  0  0  0  0  0  0  0  0  0
    5.7268   26.6903   23.1257 C   0  0  0  0  0  0  0  0  0  0  0  0
    4.0752   27.6477   27.6708 C   0  0  0  0  0  0  0  0  0  0  0  0
   12.0988   22.3796   28.0012 C   0  0  0  0  0  0  0  0  0  0  0  0
    5.9644   24.9584   28.1688 C   0  0  0  0  0  0  0  0  0  0  0  0
    6.5976   26.2921   24.2853 C   0  0  0  0  0  0  0  0  0  0  0  0
   10.0365   22.9466   26.9484 C   0  0  0  0  0  0  0  0  0  0  0  0
   10.6280   22.7295   28.3971 C   0  0  0  0  0  0  0  0  0  0  0  0
    4.9239   27.1568   26.5545 C   0  0  0  0  0  0  0  0  0  0  0  0
    8.4182   24.2891   24.7662 C   0  0  0  0  0  0  0  0  0  0  0  0
    3.8711   26.6756   28.7934 C   0  0  0  0  0  0  0  0  0  0  0  0
   12.9379   23.3220   28.1946 O   0  0  0  0  0  0  0  0  0  0  0  0
    7.3079   24.9039   22.5126 C   0  0  0  0  0  0  0  0  0  0  0  0
    4.2253   26.8794   23.0997 C   0  0  0  0  0  0  0  0  0  0  0  0
    6.2705   25.9166   21.9426 C   0  0  0  0  0  0  0  0  0  0  0  0
    8.5912   23.3983   27.1121 C   0  0  0  0  0  0  0  0  0  0  0  0
    8.3244   24.4310   26.1716 O   0  0  0  0  0  0  0  0  0  0  0  0
    8.0149   23.1981   28.4879 C   0  0  0  0  0  0  0  0  0  0  0  0
    3.6321   27.7314   23.7683 O   0  0  0  0  0  0  0  0  0  0  0  0
    7.9437   21.7965   28.7546 O   0  0  0  0  0  0  0  0  0  0  0  0
   12.2897   21.3654   27.2429 O   0  0  0  0  0  0  0  0  0  0  0  0
    3.6252   26.2979   22.1468 O   0  0  0  0  0  0  0  0  0  0  0  0
  1 14  2  0
  2  9  1  0
  2 15  2  0
  3 10  1  0
  3 13  2  0
  4  9  1  0
  4 22  1  0
  5 10  1  0
  5 14  1  0
  5 17  1  0
  6 10  1  0
  6 18  1  0
  6 19  1  0
  7 13  2  0
  7 15  1  0
  8 12  1  0
  8 16  2  0
  8 25  1  0
 11 12  1  0
 11 20  1  0
 14 21  1  0
 17 19  1  0
 18 23  2  0
 18 26  1  0
 20 21  1  0
 20 22  1  0
 22 24  1  0
M  END
>  <ID>  (1) 
conformer_0

$$$$
