
     RDKit          3D

 24 26  0  0  0  0  0  0  0  0999 V2000
    4.5011   26.9338   23.8491 C   0  0  0  0  0  0  0  0  0  0  0  0
    5.3764   24.4780   29.8649 C   0  0  0  0  0  0  0  0  0  0  0  0
    9.9215   22.4687   28.3382 O   0  0  0  0  0  0  0  0  0  0  0  0
    3.6512   24.2821   21.8466 O   0  0  0  0  0  0  0  0  0  0  0  0
    4.1397   28.0566   24.4084 O   0  0  0  0  0  0  0  0  0  0  0  0
    5.5742   26.0009   24.1253 C   0  0  0  0  0  0  0  0  0  0  0  0
    9.8064   22.1917   23.6863 N   0  0  0  0  0  0  0  0  0  0  0  0
    7.8556   23.7809   29.2850 C   0  0  0  0  0  0  0  0  0  0  0  0
    6.8043   24.3953   22.5889 C   0  0  0  0  0  0  0  0  0  0  0  0
    5.9351   25.8822   26.5957 N   0  0  0  0  0  0  0  0  0  0  0  0
    6.3086   25.6993   25.3084 C   0  0  0  0  0  0  0  0  0  0  0  0
    7.7578   24.7204   26.6937 C   0  0  0  0  0  0  0  0  0  0  0  0
    6.7097   25.0506   27.3800 N   0  0  0  0  0  0  0  0  0  0  0  0
    8.5603   22.6476   28.3448 C   0  0  0  0  0  0  0  0  0  0  0  0
    8.2730   24.3667   24.4321 C   0  0  0  0  0  0  0  0  0  0  0  0
    9.5719   22.7947   21.5692 O   0  0  0  0  0  0  0  0  0  0  0  0
    7.4854   24.9298   25.3750 C   0  0  0  0  0  0  0  0  0  0  0  0
    4.9121   26.6266   27.4033 C   0  0  0  0  0  0  0  0  0  0  0  0
    3.7291   26.4584   22.7827 N   0  0  0  0  0  0  0  0  0  0  0  0
    6.3932   24.3663   28.7431 C   0  0  0  0  0  0  0  0  0  0  0  0
    5.6740   25.1183   22.9996 C   0  0  0  0  0  0  0  0  0  0  0  0
    8.1217   23.9047   23.1847 C   0  0  0  0  0  0  0  0  0  0  0  0
    4.3306   25.2377   22.3840 C   0  0  0  0  0  0  0  0  0  0  0  0
    9.1613   22.9374   22.7353 C   0  0  0  0  0  0  0  0  0  0  0  0
  1  5  2  0
  1  6  1  0
  1 19  1  0
  2 20  1  0
  3 14  1  0
  4 23  2  0
  6 11  1  0
  6 21  1  0
  7 24  1  0
  8 14  1  0
  8 20  1  0
  9 21  1  0
  9 22  2  0
 10 11  1  0
 10 13  1  0
 10 18  1  0
 11 17  2  0
 12 13  1  0
 12 17  1  0
 13 20  1  0
 15 17  1  0
 15 22  1  0
 16 24  2  0
 19 23  1  0
 21 23  1  0
 22 24  1  0
M  END
>  <ID>  (1) 
conformer_0

$$$$
