
     RDKit          3D

 31 34  0  0  0  0  0  0  0  0999 V2000
    9.5867   24.0111   27.2321 C   0  0  0  0  0  0  0  0  0  0  0  0
    4.2921   27.5180   24.2105 C   0  0  0  0  0  0  0  0  0  0  0  0
    5.4875   25.4101   28.8868 C   0  0  0  0  0  0  0  0  0  0  0  0
    6.4426   26.2064   23.7414 C   0  0  0  0  0  0  0  0  0  0  0  0
    9.2983   21.2572   21.5303 O   0  0  0  0  0  0  0  0  0  0  0  0
    5.9913   25.4098   22.6371 C   0  0  0  0  0  0  0  0  0  0  0  0
    3.6736   26.4353   22.2998 N   0  0  0  0  0  0  0  0  0  0  0  0
    8.7448   25.3342   23.3500 C   0  0  0  0  0  0  0  0  0  0  0  0
    5.5333   26.9841   24.4809 C   0  0  0  0  0  0  0  0  0  0  0  0
    6.8462   24.3289   22.1617 C   0  0  0  0  0  0  0  0  0  0  0  0
    4.3822   25.5143   29.7329 O   0  0  0  0  0  0  0  0  0  0  0  0
    8.3997   24.6389   27.5182 N   0  0  0  0  0  0  0  0  0  0  0  0
    9.6726   21.9126   22.5234 C   0  0  0  0  0  0  0  0  0  0  0  0
    7.3860   27.6830   25.9554 C   0  0  0  0  0  0  0  0  0  0  0  0
    8.2775   24.0771   22.7544 C   0  0  0  0  0  0  0  0  0  0  0  0
   10.4110   21.2506   23.4151 O   0  0  0  0  0  0  0  0  0  0  0  0
    9.6397   22.9565   28.1229 N   0  0  0  0  0  0  0  0  0  0  0  0
    4.7406   25.7010   22.1445 C   0  0  0  0  0  0  0  0  0  0  0  0
    5.8399   26.6116   28.1651 C   0  0  0  0  0  0  0  0  0  0  0  0
    5.1494   27.1156   26.9528 C   0  0  0  0  0  0  0  0  0  0  0  0
    3.3948   27.3716   23.2682 F   0  0  0  0  0  0  0  0  0  0  0  0
    7.8322   26.1426   24.0763 C   0  0  0  0  0  0  0  0  0  0  0  0
    9.8598   25.7949   23.1072 O   0  0  0  0  0  0  0  0  0  0  0  0
    5.9897   27.3396   25.7991 C   0  0  0  0  0  0  0  0  0  0  0  0
    8.3643   27.0791   25.0411 C   0  0  0  0  0  0  0  0  0  0  0  0
    6.0989   24.4227   30.9309 C   0  0  0  0  0  0  0  0  0  0  0  0
    8.6149   23.1245   29.1820 C   0  0  0  0  0  0  0  0  0  0  0  0
    4.5997   24.6059   30.8543 C   0  0  0  0  0  0  0  0  0  0  0  0
    6.5344   24.6316   29.4614 N   0  0  0  0  0  0  0  0  0  0  0  0
    9.5270   23.2265   22.7452 N   0  0  0  0  0  0  0  0  0  0  0  0
    7.7446   24.2205   28.7181 C   0  0  0  0  0  0  0  0  0  0  0  0
  1 12  1  0
  1 17  1  0
  2  9  2  3
  2 21  1  0
  3 11  1  0
  3 19  1  0
  3 29  1  0
  4  6  1  0
  4  9  1  0
  4 22  2  0
  5 13  2  0
  6 10  2  0
  6 18  1  0
  7 18  2  0
  8 15  1  0
  8 22  1  0
  8 23  2  0
  9 24  1  0
 10 15  1  0
 11 28  1  0
 12 31  2  0
 13 16  1  0
 13 30  1  0
 14 24  1  0
 14 25  2  0
 15 30  1  0
 17 27  1  0
 19 20  1  0
 20 24  1  0
 22 25  1  0
 26 28  1  0
 26 29  1  0
 27 31  1  0
 29 31  1  0
M  END
>  <ID>  (1) 
conformer_0

$$$$
