
     RDKit          3D

 25 27  0  0  0  0  0  0  0  0999 V2000
    5.3968   25.1945   30.1586 C   0  0  0  0  0  0  0  0  0  0  0  0
   10.4568   22.5477   21.9197 O   0  0  0  0  0  0  0  0  0  0  0  0
    6.0268   25.6946   23.6540 C   0  0  0  0  0  0  0  0  0  0  0  0
    6.2200   25.7961   27.3468 C   0  0  0  0  0  0  0  0  0  0  0  0
    6.6615   24.7676   28.1184 N   0  0  0  0  0  0  0  0  0  0  0  0
    7.2559   24.8202   23.4995 C   0  0  0  0  0  0  0  0  0  0  0  0
    4.9877   28.1332   23.8546 C   0  0  0  0  0  0  0  0  0  0  0  0
    7.4522   24.0007   30.2587 C   0  0  0  0  0  0  0  0  0  0  0  0
    5.0448   25.5466   22.5223 C   0  0  0  0  0  0  0  0  0  0  0  0
    6.5678   23.7135   31.5153 N   0  0  0  0  0  0  0  0  0  0  0  0
    7.2818   24.0950   22.3078 C   0  0  0  0  0  0  0  0  0  0  0  0
    2.6798   27.7037   24.0914 O   0  0  0  0  0  0  0  0  0  0  0  0
    5.9611   26.2529   25.0219 C   0  0  0  0  0  0  0  0  0  0  0  0
    5.8686   27.6859   25.0033 O   0  0  0  0  0  0  0  0  0  0  0  0
    5.4910   24.5398   31.5278 C   0  0  0  0  0  0  0  0  0  0  0  0
    9.8276   21.6092   23.3471 O   0  0  0  0  0  0  0  0  0  0  0  0
    4.3427   24.4298   32.2886 O   0  0  0  0  0  0  0  0  0  0  0  0
    8.3703   24.6078   24.3676 C   0  0  0  0  0  0  0  0  0  0  0  0
    9.3539   22.8485   22.8916 C   0  0  0  0  0  0  0  0  0  0  0  0
    9.3368   23.7412   24.1324 C   0  0  0  0  0  0  0  0  0  0  0  0
    6.6812   25.5966   26.0434 N   0  0  0  0  0  0  0  0  0  0  0  0
    6.5032   24.6523   29.3974 C   0  0  0  0  0  0  0  0  0  0  0  0
    8.2058   23.1909   22.0408 C   0  0  0  0  0  0  0  0  0  0  0  0
    3.8175   27.2387   23.6615 C   0  0  0  0  0  0  0  0  0  0  0  0
    3.8439   26.4111   22.5590 O   0  0  0  0  0  0  0  0  0  0  0  0
  1 15  1  0
  1 22  1  0
  2 19  1  0
  3  6  2  3
  3  9  1  0
  3 13  1  0
  4  5  1  0
  4 21  1  0
  5 22  1  0
  6 11  1  0
  6 18  1  0
  7 14  1  0
  7 24  1  0
  8 10  1  0
  8 22  1  0
  9 25  1  0
 10 15  1  0
 11 23  2  0
 12 24  2  0
 13 14  1  0
 13 21  1  0
 15 17  2  0
 16 19  1  0
 18 20  2  0
 19 20  1  0
 19 23  1  0
 24 25  1  0
M  END
>  <ID>  (1) 
conformer_0

$$$$
