
     RDKit          3D

 30 34  0  0  0  0  0  0  0  0999 V2000
    6.9625   25.0340   30.0158 N   0  0  0  0  0  0  0  0  0  0  0  0
    9.7332   28.3204   26.1696 C   0  0  0  0  0  0  0  0  0  0  0  0
    4.5506   26.8007   23.3009 C   0  0  0  0  0  0  0  0  0  0  0  0
    7.8160   23.9094   22.1841 C   0  0  0  0  0  0  0  0  0  0  0  0
    9.6749   26.8756   25.8838 C   0  0  0  0  0  0  0  0  0  0  0  0
    6.9008   24.9644   22.3353 C   0  0  0  0  0  0  0  0  0  0  0  0
    3.5543   27.6280   23.7933 N   0  0  0  0  0  0  0  0  0  0  0  0
    8.6332   24.3804   26.9610 C   0  0  0  0  0  0  0  0  0  0  0  0
    7.9964   25.5523   24.3979 C   0  0  0  0  0  0  0  0  0  0  0  0
    7.5490   27.7483   25.3069 N   0  0  0  0  0  0  0  0  0  0  0  0
    6.8913   24.5515   28.7715 C   0  0  0  0  0  0  0  0  0  0  0  0
    5.5765   24.1618   28.3669 C   0  0  0  0  0  0  0  0  0  0  0  0
   10.2014   21.7031   23.7470 O   0  0  0  0  0  0  0  0  0  0  0  0
    7.9689   24.4697   27.9699 C   0  0  0  0  0  0  0  0  0  0  0  0
    8.3330   28.8591   25.9000 C   0  0  0  0  0  0  0  0  0  0  0  0
   10.3459   23.2495   25.9739 O   0  0  0  0  0  0  0  0  0  0  0  0
    8.7266   23.5432   23.2188 C   0  0  0  0  0  0  0  0  0  0  0  0
    6.2005   27.6731   24.8748 C   0  0  0  0  0  0  0  0  0  0  0  0
    4.8184   24.3236   29.5073 C   0  0  0  0  0  0  0  0  0  0  0  0
    5.8613   26.7165   23.8571 C   0  0  0  0  0  0  0  0  0  0  0  0
    3.8626   28.4590   24.8744 N   0  0  0  0  0  0  0  0  0  0  0  0
    9.7184   21.8789   21.6885 O   0  0  0  0  0  0  0  0  0  0  0  0
    6.8997   25.7534   23.5046 C   0  0  0  0  0  0  0  0  0  0  0  0
    9.5792   22.3724   22.8913 C   0  0  0  0  0  0  0  0  0  0  0  0
    5.2202   25.0768   31.9152 C   0  0  0  0  0  0  0  0  0  0  0  0
    5.6656   24.8250   30.4951 N   0  0  0  0  0  0  0  0  0  0  0  0
    5.1564   28.4517   25.4135 C   0  0  0  0  0  0  0  0  0  0  0  0
    8.7068   24.2978   24.4125 C   0  0  0  0  0  0  0  0  0  0  0  0
    9.2384   23.9619   25.7891 C   0  0  0  0  0  0  0  0  0  0  0  0
    8.3932   26.6491   25.2362 C   0  0  0  0  0  0  0  0  0  0  0  0
  1 11  1  0
  1 26  1  0
  2  5  1  0
  2 15  1  0
  3  7  2  0
  3 20  1  0
  4  6  1  0
  4 17  2  0
  5 30  1  0
  6 23  2  0
  7 21  1  0
  8 14  3  0
  8 29  1  0
  9 23  1  0
  9 28  1  0
  9 30  1  0
 10 15  1  0
 10 18  1  0
 10 30  1  0
 11 12  1  0
 11 14  1  0
 12 19  1  0
 13 24  2  0
 16 29  1  0
 17 24  1  0
 17 28  1  0
 18 20  2  0
 18 27  1  0
 19 26  1  0
 20 23  1  0
 21 27  2  0
 22 24  1  0
 25 26  1  0
 28 29  1  0
M  END
>  <ID>  (1) 
conformer_0

$$$$
