
     RDKit          3D

 31 34  0  0  0  0  0  0  0  0999 V2000
    4.3575   26.9237   23.8760 C   0  0  0  0  0  0  0  0  0  0  0  0
    4.4460   28.0356   24.8339 C   0  0  0  0  0  0  0  0  0  0  0  0
    5.7545   27.8561   25.4065 C   0  0  0  0  0  0  0  0  0  0  0  0
    5.6401   24.7650   28.0801 C   0  0  0  0  0  0  0  0  0  0  0  0
    8.3645   25.0810   22.9367 C   0  0  0  0  0  0  0  0  0  0  0  0
    6.9565   25.5879   26.1359 C   0  0  0  0  0  0  0  0  0  0  0  0
    5.2980   25.9343   24.2460 C   0  0  0  0  0  0  0  0  0  0  0  0
    8.6064   22.9579   28.8907 C   0  0  0  0  0  0  0  0  0  0  0  0
    6.2089   24.7075   31.7503 C   0  0  0  0  0  0  0  0  0  0  0  0
    4.7979   24.5650   31.6416 C   0  0  0  0  0  0  0  0  0  0  0  0
    9.8594   22.2298   23.8953 O   0  0  0  0  0  0  0  0  0  0  0  0
    3.7081   29.0936   25.3530 N   0  0  0  0  0  0  0  0  0  0  0  0
    4.4585   24.5489   30.2485 C   0  0  0  0  0  0  0  0  0  0  0  0
    5.7140   30.0023   26.2643 C   0  0  0  0  0  0  0  0  0  0  0  0
    6.1843   26.4581   25.3104 C   0  0  0  0  0  0  0  0  0  0  0  0
    5.6779   24.6950   29.5072 C   0  0  0  0  0  0  0  0  0  0  0  0
    3.7018   25.5212   22.1117 C   0  0  0  0  0  0  0  0  0  0  0  0
    5.2532   24.7341   23.6704 C   0  0  0  0  0  0  0  0  0  0  0  0
    6.7086   24.7831   30.4173 C   0  0  0  0  0  0  0  0  0  0  0  0
    8.9829   24.1673   25.2606 C   0  0  0  0  0  0  0  0  0  0  0  0
    8.9750   23.6973   26.7071 C   0  0  0  0  0  0  0  0  0  0  0  0
    9.6090   22.8548   22.7437 C   0  0  0  0  0  0  0  0  0  0  0  0
   10.1324   22.0636   21.7541 O   0  0  0  0  0  0  0  0  0  0  0  0
    4.4730   24.4799   22.5796 C   0  0  0  0  0  0  0  0  0  0  0  0
    4.3433   30.0366   26.1132 C   0  0  0  0  0  0  0  0  0  0  0  0
    6.8790   24.7458   27.3049 N   0  0  0  0  0  0  0  0  0  0  0  0
    6.4100   28.8799   25.8905 C   0  0  0  0  0  0  0  0  0  0  0  0
    8.0728   24.3117   24.1354 O   0  0  0  0  0  0  0  0  0  0  0  0
    9.4195   24.2915   22.1206 C   0  0  0  0  0  0  0  0  0  0  0  0
    7.9589   23.9231   27.8371 N   0  0  0  0  0  0  0  0  0  0  0  0
    3.6647   26.7175   22.7354 N   0  0  0  0  0  0  0  0  0  0  0  0
  1  2  1  0
  1  7  1  0
  1 31  1  0
  2  3  1  0
  2 12  1  0
  3 15  1  0
  3 27  1  0
  4 16  2  3
  4 26  1  0
  5 28  1  0
  5 29  1  0
  6 15  1  0
  6 26  1  0
  7 15  1  0
  7 18  2  0
  8 30  1  0
  9 10  1  0
  9 19  1  0
 10 13  1  0
 11 22  2  0
 12 25  2  0
 13 16  1  0
 14 25  1  0
 14 27  2  0
 16 19  1  0
 17 24  1  0
 17 31  2  0
 18 24  1  0
 20 21  1  0
 20 28  1  0
 21 30  1  0
 22 23  1  0
 22 29  1  0
 26 30  1  0
M  END
>  <ID>  (1) 
conformer_0

$$$$
