
     RDKit          3D

 21 22  0  0  0  0  0  0  0  0999 V2000
    4.6789   26.2602   22.6072 C   0  0  0  0  0  0  0  0  0  0  0  0
    6.7767   25.0742   23.3579 C   0  0  0  0  0  0  0  0  0  0  0  0
    7.5556   25.1824   25.6655 N   0  0  0  0  0  0  0  0  0  0  0  0
    3.1091   28.0960   25.2302 C   0  0  0  0  0  0  0  0  0  0  0  0
    5.2039   26.8220   24.6513 C   0  0  0  0  0  0  0  0  0  0  0  0
    6.9984   24.5952   22.0969 C   0  0  0  0  0  0  0  0  0  0  0  0
    9.7697   22.1590   22.4264 C   0  0  0  0  0  0  0  0  0  0  0  0
    5.6634   24.1903   31.5376 C   0  0  0  0  0  0  0  0  0  0  0  0
    7.6597   24.5879   24.3723 C   0  0  0  0  0  0  0  0  0  0  0  0
    5.7316   24.3268   29.0044 C   0  0  0  0  0  0  0  0  0  0  0  0
    8.5987   23.6101   24.0957 C   0  0  0  0  0  0  0  0  0  0  0  0
    5.6472   26.0210   23.5918 C   0  0  0  0  0  0  0  0  0  0  0  0
    6.9422   24.5002   28.0213 C   0  0  0  0  0  0  0  0  0  0  0  0
    3.6925   27.0917   23.0594 N   0  0  0  0  0  0  0  0  0  0  0  0
    8.7741   23.1364   22.7926 C   0  0  0  0  0  0  0  0  0  0  0  0
    8.0802   25.2887   28.6803 C   0  0  0  0  0  0  0  0  0  0  0  0
   10.3182   21.4937   23.5493 O   0  0  0  0  0  0  0  0  0  0  0  0
    6.5406   24.9053   26.6577 C   0  0  0  0  0  0  0  0  0  0  0  0
    4.0130   27.3856   24.3267 N   0  0  0  0  0  0  0  0  0  0  0  0
    5.9902   25.0899   30.3535 C   0  0  0  0  0  0  0  0  0  0  0  0
    7.9589   23.6545   21.8028 C   0  0  0  0  0  0  0  0  0  0  0  0
  1 12  1  0
  1 14  1  0
  2  6  2  0
  2  9  1  0
  2 12  1  0
  3  9  1  0
  3 18  1  0
  4 19  1  0
  5 12  1  0
  5 19  1  0
  6 21  1  0
  7 15  1  0
  7 17  1  0
  8 20  1  0
  9 11  2  0
 10 13  1  0
 10 20  1  0
 11 15  1  0
 13 16  1  0
 13 18  1  0
 14 19  1  0
 15 21  2  0
M  END
>  <ID>  (1) 
conformer_0

$$$$
