
     RDKit          3D

 25 27  0  0  0  0  0  0  0  0999 V2000
    6.4227   24.0672   28.7971 C   0  0  0  0  0  0  0  0  0  0  0  0
   10.7903   22.8867   27.7205 C   0  0  0  0  0  0  0  0  0  0  0  0
    5.4498   25.7840   26.9827 C   0  0  0  0  0  0  0  0  0  0  0  0
    4.3697   26.8069   23.3249 C   0  0  0  0  0  0  0  0  0  0  0  0
    9.4130   22.7947   23.5143 C   0  0  0  0  0  0  0  0  0  0  0  0
   10.0435   23.9496   26.8645 C   0  0  0  0  0  0  0  0  0  0  0  0
    3.2102   27.8946   25.0019 C   0  0  0  0  0  0  0  0  0  0  0  0
    9.1752   23.7119   25.6223 C   0  0  0  0  0  0  0  0  0  0  0  0
   10.0718   22.0858   28.4244 O   0  0  0  0  0  0  0  0  0  0  0  0
   12.0431   23.0499   27.9312 O   0  0  0  0  0  0  0  0  0  0  0  0
    3.2981   27.6143   23.5149 O   0  0  0  0  0  0  0  0  0  0  0  0
    8.3415   23.7338   23.4586 C   0  0  0  0  0  0  0  0  0  0  0  0
    4.5422   24.6508   30.2744 F   0  0  0  0  0  0  0  0  0  0  0  0
    6.9992   24.1703   27.5794 C   0  0  0  0  0  0  0  0  0  0  0  0
    9.9387   22.7614   24.7629 N   0  0  0  0  0  0  0  0  0  0  0  0
    4.9059   26.1373   22.1893 C   0  0  0  0  0  0  0  0  0  0  0  0
    6.4908   24.9946   26.5693 C   0  0  0  0  0  0  0  0  0  0  0  0
    6.0622   25.3535   22.7034 C   0  0  0  0  0  0  0  0  0  0  0  0
    6.9803   24.9609   25.1660 C   0  0  0  0  0  0  0  0  0  0  0  0
    8.1414   24.2015   24.7944 C   0  0  0  0  0  0  0  0  0  0  0  0
    4.8045   25.7466   28.1478 C   0  0  0  0  0  0  0  0  0  0  0  0
    6.1404   25.5770   24.1394 C   0  0  0  0  0  0  0  0  0  0  0  0
    5.2788   24.8200   29.0624 C   0  0  0  0  0  0  0  0  0  0  0  0
    9.8346   21.8876   22.6153 O   0  0  0  0  0  0  0  0  0  0  0  0
    5.1608   26.4740   24.3728 C   0  0  0  0  0  0  0  0  0  0  0  0
  1 14  2  0
  1 23  1  0
  2  6  1  0
  2  9  2  0
  2 10  1  0
  3 17  1  0
  3 21  2  0
  4 11  1  0
  4 16  1  0
  4 25  1  0
  5 12  1  0
  5 15  1  0
  5 24  2  0
  6  8  1  0
  7 11  1  0
  8 15  1  0
  8 20  1  0
 12 20  1  0
 13 23  1  0
 14 17  1  0
 16 18  1  0
 17 19  2  3
 18 22  1  0
 19 20  1  0
 19 22  1  0
 21 23  1  0
 22 25  2  0
M  END
>  <ID>  (1) 
conformer_0

$$$$
