
     RDKit          3D

 28 30  0  0  0  0  0  0  0  0999 V2000
    4.3948   25.7513   22.3247 C   0  0  0  0  0  0  0  0  0  0  0  0
    3.8561   26.7233   23.1576 C   0  0  0  0  0  0  0  0  0  0  0  0
    6.0552   25.6281   27.4114 C   0  0  0  0  0  0  0  0  0  0  0  0
    9.6623   22.1946   22.5106 C   0  0  0  0  0  0  0  0  0  0  0  0
    9.2684   23.3331   24.7553 N   0  0  0  0  0  0  0  0  0  0  0  0
    4.5768   26.9747   24.3432 C   0  0  0  0  0  0  0  0  0  0  0  0
   10.6298   21.4878   23.0104 N   0  0  0  0  0  0  0  0  0  0  0  0
   10.4689   23.7206   27.7048 C   0  0  0  0  0  0  0  0  0  0  0  0
    2.9401   28.4702   25.0531 O   0  0  0  0  0  0  0  0  0  0  0  0
    9.0099   21.8443   21.5240 O   0  0  0  0  0  0  0  0  0  0  0  0
    8.2902   24.1241   25.2675 C   0  0  0  0  0  0  0  0  0  0  0  0
    9.0765   23.1635   23.3777 C   0  0  0  0  0  0  0  0  0  0  0  0
    8.2205   24.1388   26.6574 N   0  0  0  0  0  0  0  0  0  0  0  0
    8.5835   22.2845   28.5326 C   0  0  0  0  0  0  0  0  0  0  0  0
    4.6046   24.8200   30.3894 F   0  0  0  0  0  0  0  0  0  0  0  0
    5.7335   26.3681   24.5660 C   0  0  0  0  0  0  0  0  0  0  0  0
    5.0846   26.6888   27.5514 C   0  0  0  0  0  0  0  0  0  0  0  0
    4.5650   25.6464   29.6100 C   0  0  0  0  0  0  0  0  0  0  0  0
    6.1646   24.6208   28.3420 C   0  0  0  0  0  0  0  0  0  0  0  0
    5.3317   24.7178   29.4199 C   0  0  0  0  0  0  0  0  0  0  0  0
    4.0236   27.8878   25.3627 C   0  0  0  0  0  0  0  0  0  0  0  0
    8.9677   23.3264   27.5289 C   0  0  0  0  0  0  0  0  0  0  0  0
    4.7386   27.8145   26.5977 N   0  0  0  0  0  0  0  0  0  0  0  0
    8.0617   23.9854   22.9904 C   0  0  0  0  0  0  0  0  0  0  0  0
    7.4576   24.6142   24.0531 C   0  0  0  0  0  0  0  0  0  0  0  0
    4.4042   26.6910   28.7429 C   0  0  0  0  0  0  0  0  0  0  0  0
    6.2540   25.3887   23.7534 C   0  0  0  0  0  0  0  0  0  0  0  0
    5.5586   25.1464   22.6008 N   0  0  0  0  0  0  0  0  0  0  0  0
  1  2  1  0
  1 28  2  0
  2  6  1  0
  3 17  2  0
  3 19  1  0
  4  7  1  0
  4 10  2  0
  4 12  1  0
  5 11  1  0
  5 12  1  0
  6 16  2  0
  6 21  1  0
  8 22  1  0
  9 21  2  0
 11 13  2  3
 11 25  1  0
 12 24  1  0
 13 22  1  0
 14 22  1  0
 15 18  1  0
 16 27  1  0
 17 23  1  0
 17 26  1  0
 18 20  1  0
 18 26  2  0
 19 20  2  0
 21 23  1  0
 24 25  1  0
 25 27  1  0
 27 28  1  0
M  END
>  <ID>  (1) 
conformer_0

$$$$
