
     RDKit          3D

 21 22  0  0  0  0  0  0  0  0999 V2000
    9.3757   23.0690   24.9658 N   0  0  0  0  0  0  0  0  0  0  0  0
    4.4482   26.8923   27.0113 C   0  0  0  0  0  0  0  0  0  0  0  0
    9.8795   21.9677   23.0747 O   0  0  0  0  0  0  0  0  0  0  0  0
    4.2706   27.4499   24.6980 C   0  0  0  0  0  0  0  0  0  0  0  0
    7.2137   24.6290   23.5524 C   0  0  0  0  0  0  0  0  0  0  0  0
    6.9428   24.9044   24.9007 C   0  0  0  0  0  0  0  0  0  0  0  0
    3.9731   27.7573   26.0122 C   0  0  0  0  0  0  0  0  0  0  0  0
    5.1066   26.3613   24.3743 C   0  0  0  0  0  0  0  0  0  0  0  0
    8.5750   23.1655   28.6459 C   0  0  0  0  0  0  0  0  0  0  0  0
    7.7438   24.3041   28.2040 C   0  0  0  0  0  0  0  0  0  0  0  0
    6.2600   24.1491   28.6571 C   0  0  0  0  0  0  0  0  0  0  0  0
    3.9821   26.0674   21.9427 Cl  0  0  0  0  0  0  0  0  0  0  0  0
    5.8456   25.6598   25.3662 C   0  0  0  0  0  0  0  0  0  0  0  0
    5.4393   24.7756   27.6911 O   0  0  0  0  0  0  0  0  0  0  0  0
    5.2874   25.9025   23.0391 C   0  0  0  0  0  0  0  0  0  0  0  0
    6.3286   25.1843   22.6193 N   0  0  0  0  0  0  0  0  0  0  0  0
    5.3060   25.8085   26.7040 C   0  0  0  0  0  0  0  0  0  0  0  0
    3.8373   27.0930   28.6483 Cl  0  0  0  0  0  0  0  0  0  0  0  0
    8.1154   21.8990   28.2815 N   0  0  0  0  0  0  0  0  0  0  0  0
    8.2906   23.7595   22.9493 C   0  0  0  0  0  0  0  0  0  0  0  0
    9.2044   22.9244   23.6487 C   0  0  0  0  0  0  0  0  0  0  0  0
  1 21  1  0
  2  7  1  0
  2 17  2  0
  2 18  1  0
  3 21  2  0
  4  7  2  0
  4  8  1  0
  5  6  1  0
  5 16  2  0
  5 20  1  0
  6 13  2  0
  8 13  1  0
  8 15  1  0
  9 10  1  0
  9 19  1  0
 10 11  1  0
 11 14  1  0
 12 15  1  0
 13 17  1  0
 14 17  1  0
 15 16  1  0
 20 21  1  0
M  END
>  <ID>  (1) 
conformer_0

$$$$
