
     RDKit          3D

 31 34  0  0  0  0  0  0  0  0999 V2000
    4.0338   23.7240   22.8621 C   0  0  0  0  0  0  0  0  0  0  0  0
    5.2738   28.0759   24.7736 C   0  0  0  0  0  0  0  0  0  0  0  0
    7.9669   24.8000   23.0860 C   0  0  0  0  0  0  0  0  0  0  0  0
    8.2845   23.3144   28.6352 C   0  0  0  0  0  0  0  0  0  0  0  0
    6.6182   24.5955   29.6979 C   0  0  0  0  0  0  0  0  0  0  0  0
    5.7078   26.0070   27.8925 C   0  0  0  0  0  0  0  0  0  0  0  0
    5.7336   27.2061   26.9593 C   0  0  0  0  0  0  0  0  0  0  0  0
    5.0820   30.9134   27.1075 C   0  0  0  0  0  0  0  0  0  0  0  0
   10.0170   21.8222   22.3382 O   0  0  0  0  0  0  0  0  0  0  0  0
    6.9537   25.7709   22.6818 O   0  0  0  0  0  0  0  0  0  0  0  0
    7.6646   23.6313   29.9040 O   0  0  0  0  0  0  0  0  0  0  0  0
    5.3516   29.5580   26.5693 C   0  0  0  0  0  0  0  0  0  0  0  0
    9.2206   24.1093   24.9915 C   0  0  0  0  0  0  0  0  0  0  0  0
    5.2646   24.1954   30.0179 O   0  0  0  0  0  0  0  0  0  0  0  0
    8.4945   21.9928   28.3956 N   0  0  0  0  0  0  0  0  0  0  0  0
    5.2357   24.0926   23.4486 C   0  0  0  0  0  0  0  0  0  0  0  0
    9.6811   22.9983   24.3430 C   0  0  0  0  0  0  0  0  0  0  0  0
    5.1598   29.3498   25.2220 C   0  0  0  0  0  0  0  0  0  0  0  0
    3.2246   24.7225   22.2774 C   0  0  0  0  0  0  0  0  0  0  0  0
    4.4434   24.9413   30.9707 C   0  0  0  0  0  0  0  0  0  0  0  0
    4.6730   26.4552   22.9901 C   0  0  0  0  0  0  0  0  0  0  0  0
    5.6857   28.5253   27.4173 C   0  0  0  0  0  0  0  0  0  0  0  0
    8.4304   25.0068   24.4034 C   0  0  0  0  0  0  0  0  0  0  0  0
    3.4989   26.0657   22.3943 C   0  0  0  0  0  0  0  0  0  0  0  0
    7.6866   24.1636   27.6405 C   0  0  0  0  0  0  0  0  0  0  0  0
    5.6602   27.0390   25.5988 N   0  0  0  0  0  0  0  0  0  0  0  0
    5.6362   25.4255   23.1901 C   0  0  0  0  0  0  0  0  0  0  0  0
    4.8876   27.8466   23.3403 C   0  0  0  0  0  0  0  0  0  0  0  0
    9.3841   22.8357   22.9959 C   0  0  0  0  0  0  0  0  0  0  0  0
    6.7128   25.0030   28.2885 N   0  0  0  0  0  0  0  0  0  0  0  0
    8.4855   23.7121   22.3220 C   0  0  0  0  0  0  0  0  0  0  0  0
  1 16  1  0
  1 19  2  0
  2 18  2  0
  2 26  1  0
  2 28  1  0
  3 10  1  0
  3 23  2  0
  3 31  1  0
  4 11  1  0
  4 15  1  0
  4 25  1  0
  5 11  1  0
  5 14  1  0
  5 30  1  0
  6  7  1  0
  6 30  1  0
  7 22  2  0
  7 26  1  0
  8 12  1  0
  9 29  1  0
 10 27  1  0
 12 18  1  0
 12 22  1  0
 13 17  2  0
 13 23  1  0
 14 20  1  0
 16 27  1  0
 17 29  1  0
 19 24  1  0
 21 24  2  0
 21 27  1  0
 21 28  1  0
 25 30  1  0
 29 31  2  0
M  END
>  <ID>  (1) 
conformer_0

$$$$
