
     RDKit          3D

 30 33  0  0  0  0  0  0  0  0999 V2000
    9.0580   24.1577   25.0997 C   0  0  0  0  0  0  0  0  0  0  0  0
    9.5659   23.5435   26.4852 C   0  0  0  0  0  0  0  0  0  0  0  0
    5.7265   25.2076   23.2117 C   0  0  0  0  0  0  0  0  0  0  0  0
    8.0895   24.4273   23.9193 C   0  0  0  0  0  0  0  0  0  0  0  0
    8.1417   26.6680   25.7661 N   0  0  0  0  0  0  0  0  0  0  0  0
    6.8899   25.3155   23.9736 C   0  0  0  0  0  0  0  0  0  0  0  0
    3.8793   28.6037   25.7060 C   0  0  0  0  0  0  0  0  0  0  0  0
    7.5018   25.7992   26.3056 C   0  0  0  0  0  0  0  0  0  0  0  0
    9.2492   22.0488   28.3778 O   0  0  0  0  0  0  0  0  0  0  0  0
    7.2942   25.0836   27.5274 C   0  0  0  0  0  0  0  0  0  0  0  0
    9.4781   22.7522   22.7577 C   0  0  0  0  0  0  0  0  0  0  0  0
    4.8859   24.5841   30.5722 C   0  0  0  0  0  0  0  0  0  0  0  0
    7.7197   23.2858   30.5929 O   0  0  0  0  0  0  0  0  0  0  0  0
   10.2229   22.5944   21.5777 N   0  0  0  0  0  0  0  0  0  0  0  0
    7.9634   24.0813   28.2919 C   0  0  0  0  0  0  0  0  0  0  0  0
    7.2691   23.9921   29.5383 C   0  0  0  0  0  0  0  0  0  0  0  0
    7.0452   26.3038   25.1541 C   0  0  0  0  0  0  0  0  0  0  0  0
    6.0221   27.5085   24.9946 N   0  0  0  0  0  0  0  0  0  0  0  0
    8.9994   23.2181   27.8497 C   0  0  0  0  0  0  0  0  0  0  0  0
    3.1323   28.1376   24.2949 O   0  0  0  0  0  0  0  0  0  0  0  0
    6.0416   24.6716   29.5557 C   0  0  0  0  0  0  0  0  0  0  0  0
    5.3505   28.8255   25.3888 C   0  0  0  0  0  0  0  0  0  0  0  0
    5.8282   25.5309   28.2445 S   0  0  0  0  0  0  0  0  0  0  0  0
    5.0875   27.1430   24.1926 C   0  0  0  0  0  0  0  0  0  0  0  0
    3.5280   26.3264   22.7363 C   0  0  0  0  0  0  0  0  0  0  0  0
    9.8394   21.8891   23.5777 O   0  0  0  0  0  0  0  0  0  0  0  0
    4.4924   25.2268   22.6678 C   0  0  0  0  0  0  0  0  0  0  0  0
    8.4757   23.6703   22.7882 N   0  0  0  0  0  0  0  0  0  0  0  0
    3.9341   27.2523   23.7142 C   0  0  0  0  0  0  0  0  0  0  0  0
    3.7581   23.9186   21.9942 Cl  0  0  0  0  0  0  0  0  0  0  0  0
  1  2  2  0
  1  4  2  0
  2 19  1  0
  3  6  2  0
  3 27  2  0
  4  6  1  0
  4 28  1  0
  5  8  2  0
  6 17  1  0
  7 20  1  0
  7 22  1  0
  8 10  1  0
  8 17  1  0
  9 19  1  0
 10 15  1  0
 10 23  1  0
 11 14  1  0
 11 26  2  0
 11 28  1  0
 12 21  1  0
 13 16  1  0
 15 16  1  0
 15 19  1  0
 16 21  2  0
 17 18  1  0
 18 22  1  0
 18 24  1  0
 20 29  1  0
 21 23  1  0
 24 29  2  0
 25 27  1  0
 25 29  1  0
 27 30  1  0
M  END
>  <ID>  (1) 
conformer_0

$$$$
