
     RDKit          3D

 25 29  0  0  0  0  0  0  0  0999 V2000
    5.9929   24.0909   29.3065 C   0  0  0  0  0  0  0  0  0  0  0  0
    4.4513   27.2111   28.1602 C   0  0  0  0  0  0  0  0  0  0  0  0
    8.4882   21.7915   28.3829 O   0  0  0  0  0  0  0  0  0  0  0  0
   10.0014   21.6803   23.6711 O   0  0  0  0  0  0  0  0  0  0  0  0
    6.8245   25.0267   24.7581 C   0  0  0  0  0  0  0  0  0  0  0  0
    5.5007   25.4343   29.3926 O   0  0  0  0  0  0  0  0  0  0  0  0
    4.0837   27.3689   23.8777 C   0  0  0  0  0  0  0  0  0  0  0  0
    3.6722   26.9109   22.6616 C   0  0  0  0  0  0  0  0  0  0  0  0
    8.6061   23.4716   26.1727 C   0  0  0  0  0  0  0  0  0  0  0  0
    5.7206   25.6060   24.0417 C   0  0  0  0  0  0  0  0  0  0  0  0
    6.7609   25.0446   26.1572 N   0  0  0  0  0  0  0  0  0  0  0  0
    7.1995   23.9609   28.3531 C   0  0  0  0  0  0  0  0  0  0  0  0
    7.8551   24.3939   24.1304 C   0  0  0  0  0  0  0  0  0  0  0  0
    8.7368   23.5307   24.7059 C   0  0  0  0  0  0  0  0  0  0  0  0
    7.5733   24.1405   26.8739 C   0  0  0  0  0  0  0  0  0  0  0  0
    8.2554   23.1249   29.0860 C   0  0  0  0  0  0  0  0  0  0  0  0
    5.3680   26.0754   28.1476 C   0  0  0  0  0  0  0  0  0  0  0  0
    4.9619   26.6248   24.6460 C   0  0  0  0  0  0  0  0  0  0  0  0
    5.2858   25.1663   22.8125 C   0  0  0  0  0  0  0  0  0  0  0  0
    5.0468   26.7832   26.0162 C   0  0  0  0  0  0  0  0  0  0  0  0
    9.5424   22.8101   23.5825 C   0  0  0  0  0  0  0  0  0  0  0  0
    4.2301   25.7481   22.1703 C   0  0  0  0  0  0  0  0  0  0  0  0
    9.5342   23.3525   22.3597 O   0  0  0  0  0  0  0  0  0  0  0  0
    5.8089   25.8721   26.8238 C   0  0  0  0  0  0  0  0  0  0  0  0
    4.2742   27.6838   26.8391 C   0  0  0  0  0  0  0  0  0  0  0  0
  1  6  1  0
  1 12  1  0
  2 17  1  0
  2 25  1  0
  3 16  1  0
  4 21  2  0
  5 10  1  0
  5 11  1  0
  5 13  1  0
  6 17  1  0
  7  8  2  0
  7 18  1  0
  8 22  1  0
  9 14  1  0
  9 15  2  0
 10 18  1  0
 10 19  1  0
 11 15  1  0
 11 24  1  0
 12 15  1  0
 12 16  1  0
 13 14  2  0
 14 21  1  0
 17 24  2  0
 18 20  2  0
 19 22  2  0
 20 24  1  0
 20 25  1  0
 21 23  1  0
M  END
>  <ID>  (1) 
conformer_0

$$$$
