
     RDKit          3D

 24 26  0  0  0  0  0  0  0  0999 V2000
    7.3728   25.6747   28.6234 C   0  0  0  0  0  0  0  0  0  0  0  0
    9.1190   23.3739   23.1591 C   0  0  0  0  0  0  0  0  0  0  0  0
   10.8192   22.2398   28.1586 O   0  0  0  0  0  1  0  0  0  0  0  0
    5.8268   25.2905   22.4582 C   0  0  0  0  0  0  0  0  0  0  0  0
    6.4652   25.6241   29.8295 C   0  0  0  0  0  0  0  0  0  0  0  0
    9.6914   22.3577   22.3229 C   0  0  0  0  0  0  0  0  0  0  0  0
    4.3067   26.9644   23.9228 C   0  0  0  0  0  0  0  0  0  0  0  0
    8.6396   24.7387   26.3713 C   0  0  0  0  0  0  0  0  0  0  0  0
    6.5783   24.2059   30.2432 O   0  0  0  0  0  0  0  0  0  0  0  0
    8.4067   24.5764   28.7717 C   0  0  0  0  0  0  0  0  0  0  0  0
    6.2860   25.5008   23.7681 C   0  0  0  0  0  0  0  0  0  0  0  0
    9.3784   23.3921   24.5086 C   0  0  0  0  0  0  0  0  0  0  0  0
    8.8285   23.6112   27.5381 C   0  0  0  0  0  0  0  0  0  0  0  0
    5.4377   26.3730   24.5269 C   0  0  0  0  0  0  0  0  0  0  0  0
    8.4953   24.3811   24.9914 C   0  0  0  0  0  0  0  0  0  0  0  0
    3.5287   27.9304   24.4547 N   0  0  0  0  0  0  0  0  0  0  0  0
    7.6145   24.8333   23.9880 C   0  0  0  0  0  0  0  0  0  0  0  0
    4.5447   25.5204   22.1462 C   0  0  0  0  0  0  0  0  0  0  0  0
    3.8927   26.5207   22.7317 N   0  0  0  0  0  0  0  0  0  0  0  0
   10.3473   21.3813   23.1860 O   0  0  0  0  0  0  0  0  0  0  0  0
    8.8343   21.4590   29.2554 O   0  0  0  0  0  0  0  0  0  0  0  0
    8.0889   24.1696   22.8564 N   0  0  0  0  0  0  0  0  0  0  0  0
    8.0190   23.8337   30.0621 C   0  0  0  0  0  0  0  0  0  0  0  0
    9.4735   22.3294   28.3751 P   0  0  0  0  0  4  0  0  0  0  0  0
  1  5  1  0
  1 10  1  0
  2  6  1  0
  2 12  1  0
  2 22  1  0
  3 24  2  0
  4 11  1  0
  4 18  1  0
  5  9  1  0
  6 20  1  0
  7 14  1  0
  7 16  2  0
  7 19  1  0
  8 13  1  0
  8 15  1  0
  9 23  1  0
 10 13  1  0
 10 23  1  0
 11 14  2  0
 11 17  1  0
 12 15  1  0
 13 24  1  0
 15 17  1  0
 17 22  1  0
 18 19  1  0
 21 24  1  0
M  END
>  <ID>  (1) 
conformer_0

$$$$
