
     RDKit          3D

 26 29  0  0  0  0  0  0  0  0999 V2000
   10.4767   21.2637   23.3024 O   0  0  0  0  0  0  0  0  0  0  0  0
    4.9947   25.9285   22.4237 C   0  0  0  0  0  0  0  0  0  0  0  0
    9.0147   23.0488   27.9455 C   0  0  0  0  0  0  0  0  0  0  0  0
    5.9851   25.4043   23.2035 C   0  0  0  0  0  0  0  0  0  0  0  0
    7.0579   24.9432   25.2220 N   0  0  0  0  0  0  0  0  0  0  0  0
    9.0165   23.0581   22.7155 C   0  0  0  0  0  0  0  0  0  0  0  0
    4.0373   26.8647   22.8881 N   0  0  0  0  0  0  0  0  0  0  0  0
    6.4491   24.2256   28.8690 C   0  0  0  0  0  0  0  0  0  0  0  0
    7.4183   24.5406   26.5391 C   0  0  0  0  0  0  0  0  0  0  0  0
    5.9832   25.7102   24.5996 C   0  0  0  0  0  0  0  0  0  0  0  0
    7.7885   24.2585   24.2126 C   0  0  0  0  0  0  0  0  0  0  0  0
    5.0880   26.7695   26.5146 F   0  0  0  0  0  0  0  0  0  0  0  0
    6.5573   24.8114   27.6264 C   0  0  0  0  0  0  0  0  0  0  0  0
    3.1920   28.1018   24.6337 O   0  0  0  0  0  0  0  0  0  0  0  0
    4.0750   27.2320   24.2124 C   0  0  0  0  0  0  0  0  0  0  0  0
    8.3322   21.8113   28.2989 N   0  0  0  0  0  0  0  0  0  0  0  0
    4.8887   24.5415   30.9487 C   0  0  0  0  0  0  0  0  0  0  0  0
    8.9081   23.3978   24.0468 C   0  0  0  0  0  0  0  0  0  0  0  0
    7.1180   24.5258   22.9300 C   0  0  0  0  0  0  0  0  0  0  0  0
    8.7122   23.7800   26.7392 C   0  0  0  0  0  0  0  0  0  0  0  0
    4.7710   25.8959   28.7519 O   0  0  0  0  0  0  0  0  0  0  0  0
    7.9651   23.7137   21.9857 C   0  0  0  0  0  0  0  0  0  0  0  0
    5.0389   26.6142   25.1038 C   0  0  0  0  0  0  0  0  0  0  0  0
    5.3765   24.8244   29.5571 C   0  0  0  0  0  0  0  0  0  0  0  0
    5.5519   25.8230   27.4820 C   0  0  0  0  0  0  0  0  0  0  0  0
   10.0202   22.1451   22.2202 C   0  0  0  0  0  0  0  0  0  0  0  0
  1 26  1  0
  2  4  2  0
  2  7  1  0
  3 16  1  0
  3 20  1  0
  4 10  1  0
  4 19  1  0
  5  9  1  0
  5 10  1  0
  5 11  1  0
  6 18  1  0
  6 22  1  0
  6 26  1  0
  7 15  1  0
  8 13  1  0
  8 24  1  0
  9 13  1  0
  9 20  2  3
 10 23  2  0
 11 18  1  0
 11 19  2  0
 12 23  1  0
 13 25  1  0
 14 15  2  0
 15 23  1  0
 17 24  1  0
 19 22  1  0
 21 24  1  0
 21 25  1  0
M  END
>  <ID>  (1) 
conformer_0

$$$$
