
     RDKit          3D

 22 23  0  0  0  0  0  0  0  0999 V2000
    8.3343   23.6890   23.4568 C   0  0  0  0  0  0  0  0  0  0  0  0
    7.0094   24.6568   29.0765 C   0  0  0  0  0  0  0  0  0  0  0  0
    3.2502   27.9334   25.7370 C   0  0  0  0  0  0  0  0  0  0  0  0
    7.7721   24.3622   24.6324 N   0  0  0  0  0  0  0  0  0  0  0  0
    7.5566   24.1804   22.4124 C   0  0  0  0  0  0  0  0  0  0  0  0
    5.0328   26.7224   25.0127 C   0  0  0  0  0  0  0  0  0  0  0  0
    4.8664   24.6143   30.5148 C   0  0  0  0  0  0  0  0  0  0  0  0
    9.5246   22.6459   22.6164 C   0  0  0  0  0  0  0  0  0  0  0  0
   10.5031   22.2125   21.8212 N   0  0  0  0  0  0  0  0  0  0  0  0
    4.3800   27.1650   23.8350 C   0  0  0  0  0  0  0  0  0  0  0  0
    6.7831   25.1886   24.2114 C   0  0  0  0  0  0  0  0  0  0  0  0
    9.2282   23.6267   26.9223 C   0  0  0  0  0  0  0  0  0  0  0  0
    8.6136   22.7618   27.9908 N   0  0  0  0  0  0  0  0  0  0  0  0
    4.6068   26.7764   27.5014 C   0  0  0  0  0  0  0  0  0  0  0  0
    8.0743   23.5891   29.0985 C   0  0  0  0  0  0  0  0  0  0  0  0
    5.5240   24.5084   29.1499 C   0  0  0  0  0  0  0  0  0  0  0  0
    8.2259   24.1273   25.9975 C   0  0  0  0  0  0  0  0  0  0  0  0
    6.5897   25.1043   22.8755 N   0  0  0  0  0  0  0  0  0  0  0  0
    4.3543   27.1488   26.1639 C   0  0  0  0  0  0  0  0  0  0  0  0
    3.2492   27.9527   24.2677 C   0  0  0  0  0  0  0  0  0  0  0  0
    6.1183   26.0038   25.0650 N   0  0  0  0  0  0  0  0  0  0  0  0
    9.3801   22.7696   23.7230 O   0  0  0  0  0  0  0  0  0  0  0  0
  1  4  1  0
  1  5  1  0
  1 22  1  0
  2 15  1  0
  2 16  1  0
  3 19  1  0
  3 20  1  0
  4 11  1  0
  4 17  1  0
  5 18  1  0
  6 10  1  0
  6 19  2  0
  6 21  1  0
  7 16  1  0
  8  9  1  0
  8 22  1  0
 10 20  1  0
 11 18  1  0
 11 21  2  3
 12 13  1  0
 12 17  1  0
 13 15  1  0
 14 19  1  0
M  END
>  <ID>  (1) 
conformer_0

$$$$
