
     RDKit          3D

 31 34  0  0  0  0  0  0  0  0999 V2000
    6.0565   24.8550   27.5039 O   0  0  0  0  0  0  0  0  0  0  0  0
    3.0222   28.1232   25.0610 C   0  0  0  0  0  0  0  0  0  0  0  0
    8.7157   23.7184   25.8771 C   0  0  0  0  0  0  0  0  0  0  0  0
    9.4669   21.9135   31.7743 C   0  0  0  0  0  0  0  0  0  0  0  0
    6.6986   23.8316   28.3012 C   0  0  0  0  0  0  0  0  0  0  0  0
    9.3968   22.9445   24.9424 C   0  0  0  0  0  0  0  0  0  0  0  0
    6.1941   25.9592   22.3875 C   0  0  0  0  0  0  0  0  0  0  0  0
    3.2266   27.7110   23.8500 N   0  0  0  0  0  0  0  0  0  0  0  0
    5.6508   25.7924   28.3018 C   0  0  0  0  0  0  0  0  0  0  0  0
    4.8941   26.9263   25.1253 C   0  0  0  0  0  0  0  0  0  0  0  0
    7.3014   23.1149   31.7961 O   0  0  0  0  0  0  0  0  0  0  0  0
    4.4053   27.8752   28.4364 C   0  0  0  0  0  0  0  0  0  0  0  0
    8.1852   23.8957   28.3695 C   0  0  0  0  0  0  0  0  0  0  0  0
    4.0565   27.6685   25.9246 C   0  0  0  0  0  0  0  0  0  0  0  0
    9.1654   21.8251   29.3193 N   0  0  0  0  0  0  0  0  0  0  0  0
    3.8009   25.9948   21.7759 N   0  0  0  0  0  0  0  0  0  0  0  0
    9.7927   21.1547   30.5010 C   0  0  0  0  0  0  0  0  0  0  0  0
   10.0092   22.5439   22.6343 O   0  0  0  0  0  0  0  0  0  0  0  0
    5.1468   26.7940   28.9257 C   0  0  0  0  0  0  0  0  0  0  0  0
    7.9483   24.8082   25.4279 C   0  0  0  0  0  0  0  0  0  0  0  0
   10.3569   21.3579   23.1886 O   0  0  0  0  0  0  0  0  0  0  0  0
    3.9899   28.0710   27.2179 C   0  0  0  0  0  0  0  0  0  0  0  0
    9.2700   23.2763   23.6295 C   0  0  0  0  0  0  0  0  0  0  0  0
    8.8242   23.3537   27.2134 N   0  0  0  0  0  0  0  0  0  0  0  0
    8.7737   23.2506   29.7308 C   0  0  0  0  0  0  0  0  0  0  0  0
    8.7192   23.1891   31.3288 C   0  0  0  0  0  0  0  0  0  0  0  0
    7.8618   25.1134   24.0725 C   0  0  0  0  0  0  0  0  0  0  0  0
    4.3532   26.9305   23.9119 C   0  0  0  0  0  0  0  0  0  0  0  0
    7.1485   26.3377   23.5539 C   0  0  0  0  0  0  0  0  0  0  0  0
    8.4970   24.2986   23.1743 C   0  0  0  0  0  0  0  0  0  0  0  0
    4.7754   26.1500   22.6972 C   0  0  0  0  0  0  0  0  0  0  0  0
  1  5  1  0
  1  9  1  0
  2  8  1  0
  2 14  1  0
  3  6  1  0
  3 20  1  0
  3 24  2  0
  4 17  1  0
  4 26  1  0
  5 13  1  0
  6 23  2  0
  7 29  1  0
  7 31  1  0
  8 28  1  0
  9 19  1  0
 10 14  1  0
 10 28  1  0
 11 26  1  0
 12 19  2  0
 12 22  1  0
 13 24  1  0
 13 25  1  0
 14 22  1  0
 15 17  1  0
 15 25  1  0
 16 31  1  0
 18 21  1  0
 18 23  1  0
 20 27  1  0
 23 30  1  0
 25 26  1  0
 27 29  1  0
 27 30  2  0
 28 31  1  0
M  END
>  <ID>  (1) 
conformer_0

$$$$
