
     RDKit          3D

 22 23  0  0  0  0  0  0  0  0999 V2000
    8.5888   25.2994   25.4182 C   0  0  0  0  0  0  0  0  0  0  0  0
    7.4735   26.0613   24.8260 C   0  0  0  0  0  0  0  0  0  0  0  0
    5.0586   27.0031   23.8258 C   0  0  0  0  0  0  0  0  0  0  0  0
    2.9174   27.9894   24.0429 O   0  0  0  0  0  1  0  0  0  0  0  0
   10.3596   23.1003   25.7174 O   0  0  0  0  0  0  0  0  0  0  0  0
    8.9951   24.3955   24.1918 C   0  0  0  0  0  0  0  0  0  0  0  0
    5.6620   25.8896   23.2784 C   0  0  0  0  0  0  0  0  0  0  0  0
    5.8223   24.4786   29.7368 C   0  0  0  0  0  0  0  0  0  0  0  0
    6.1754   24.8024   28.2776 C   0  0  0  0  0  0  0  0  0  0  0  0
    8.9589   22.3293   28.6617 C   0  0  0  0  0  0  0  0  0  0  0  0
    7.5199   24.1317   27.9161 C   0  0  0  0  0  0  0  0  0  0  0  0
    5.7338   27.7448   24.7843 C   0  0  0  0  0  0  0  0  0  0  0  0
    9.6867   23.1115   24.6036 C   0  0  0  0  0  0  0  0  0  0  0  0
    6.8911   25.4568   23.7194 C   0  0  0  0  0  0  0  0  0  0  0  0
    3.4009   26.8568   22.2071 O   0  0  0  0  0  1  0  0  0  0  0  0
    7.8421   23.1338   28.8791 N   0  0  0  0  0  0  0  0  0  0  0  0
    7.7740   24.3952   23.1865 C   0  0  0  0  0  0  0  0  0  0  0  0
    9.8072   22.2037   23.6617 O   0  0  0  0  0  0  0  0  0  0  0  0
    3.7631   27.3774   23.3484 N   0  0  0  0  0  0  0  0  0  0  0  0
    4.4375   24.6079   30.0375 N   0  0  0  0  0  0  0  0  0  0  0  0
    6.9788   27.2807   25.2688 C   0  0  0  0  0  0  0  0  0  0  0  0
    8.0922   24.6408   26.6879 O   0  0  0  0  0  0  0  0  0  0  0  0
  1  2  1  0
  1  6  1  0
  1 22  1  0
  2 14  2  0
  2 21  1  0
  3  7  2  0
  3 12  1  0
  3 19  1  0
  4 19  1  0
  5 13  2  0
  6 13  1  0
  6 17  1  0
  7 14  1  0
  8  9  1  0
  8 20  1  0
  9 11  1  0
 10 16  1  0
 11 16  2  3
 11 22  1  0
 12 21  2  0
 13 18  1  0
 14 17  1  0
 15 19  1  0
M  END
>  <ID>  (1) 
conformer_0

$$$$
