
     RDKit          3D

 28 31  0  0  0  0  0  0  0  0999 V2000
   10.3460   21.8892   21.5852 O   0  0  0  0  0  0  0  0  0  0  0  0
    5.8675   25.8739   24.3879 C   0  0  0  0  0  0  0  0  0  0  0  0
    7.7772   24.0823   27.2759 C   0  0  0  0  0  0  0  0  0  0  0  0
    6.1764   24.7248   29.6003 C   0  0  0  0  0  0  0  0  0  0  0  0
    4.6294   26.0077   22.2670 C   0  0  0  0  0  0  0  0  0  0  0  0
    9.4154   23.0078   23.5119 C   0  0  0  0  0  0  0  0  0  0  0  0
    6.7897   25.2063   25.3156 C   0  0  0  0  0  0  0  0  0  0  0  0
    8.3634   22.0103   28.5906 O   0  0  0  0  0  0  0  0  0  0  0  0
    7.9480   24.4120   24.9515 C   0  0  0  0  0  0  0  0  0  0  0  0
   10.7263   23.0022   27.3469 C   0  0  0  0  0  0  0  0  0  0  0  0
    3.8565   27.2150   24.0056 C   0  0  0  0  0  0  0  0  0  0  0  0
    9.8049   23.1661   26.2623 N   0  0  0  0  0  0  0  0  0  0  0  0
    3.6924   26.7792   22.7438 N   0  0  0  0  0  0  0  0  0  0  0  0
    7.8645   24.5046   22.5159 C   0  0  0  0  0  0  0  0  0  0  0  0
    2.9452   28.0551   24.4544 O   0  0  0  0  0  0  0  0  0  0  0  0
    6.6919   24.9558   26.9047 C   0  0  0  0  0  0  0  0  0  0  0  0
    7.9517   23.3759   28.5544 C   0  0  0  0  0  0  0  0  0  0  0  0
   10.0776   21.9917   24.1158 O   0  0  0  0  0  0  0  0  0  0  0  0
    7.3221   23.7765   29.7341 O   0  0  0  0  0  0  0  0  0  0  0  0
    5.7675   25.1128   28.2220 C   0  0  0  0  0  0  0  0  0  0  0  0
    3.9298   24.6005   30.2621 O   0  0  0  0  0  0  0  0  0  0  0  0
    5.7635   25.6431   22.9724 C   0  0  0  0  0  0  0  0  0  0  0  0
    4.8895   26.7905   24.7967 N   0  0  0  0  0  0  0  0  0  0  0  0
    8.3785   24.0395   23.7084 C   0  0  0  0  0  0  0  0  0  0  0  0
    8.6188   23.8453   26.1171 C   0  0  0  0  0  0  0  0  0  0  0  0
    5.2713   24.6019   30.8122 C   0  0  0  0  0  0  0  0  0  0  0  0
    9.4789   22.7083   22.0436 C   0  0  0  0  0  0  0  0  0  0  0  0
    6.7674   25.0741   22.2059 C   0  0  0  0  0  0  0  0  0  0  0  0
  1 27  2  0
  2  7  1  0
  2 22  1  0
  2 23  2  0
  3 16  1  0
  3 17  1  0
  3 25  2  0
  4 19  1  0
  4 20  1  0
  4 26  1  0
  5 13  2  0
  5 22  1  0
  6 18  1  0
  6 24  1  0
  6 27  1  0
  7  9  1  0
  7 16  1  0
  8 17  2  0
  9 24  2  0
  9 25  1  0
 10 12  1  0
 11 13  1  0
 11 15  2  0
 11 23  1  0
 12 25  1  0
 14 24  1  0
 14 28  2  0
 16 20  2  0
 17 19  1  0
 21 26  1  0
 22 28  1  0
M  END
>  <ID>  (1) 
conformer_0

$$$$
