
     RDKit          3D

 29 32  0  0  0  0  0  0  0  0999 V2000
    5.6410   25.5076   28.1903 C   0  0  0  0  0  0  0  0  0  0  0  0
   10.0630   22.0716   23.3988 O   0  0  0  0  0  0  0  0  0  0  0  0
    7.5800   24.5877   23.3579 C   0  0  0  0  0  0  0  0  0  0  0  0
    7.3268   24.7531   24.6919 C   0  0  0  0  0  0  0  0  0  0  0  0
    4.8347   25.4538   29.6197 C   0  0  0  0  0  0  0  0  0  0  0  0
    4.5061   27.0826   24.9850 C   0  0  0  0  0  0  0  0  0  0  0  0
    3.5834   27.5257   23.9739 C   0  0  0  0  0  0  0  0  0  0  0  0
    4.6652   27.7460   26.3182 C   0  0  0  0  0  0  0  0  0  0  0  0
   11.4639   22.6437   28.8669 C   0  0  0  0  0  0  0  0  0  0  0  0
    3.5917   26.9392   22.7472 N   0  0  0  0  0  0  0  0  0  0  0  0
    8.4899   23.7755   22.8639 C   0  0  0  0  0  0  0  0  0  0  0  0
    5.4381   26.1630   24.5240 C   0  0  0  0  0  0  0  0  0  0  0  0
    6.3322   26.3072   21.9384 C   0  0  0  0  0  0  0  0  0  0  0  0
    8.8984   21.7849   28.8132 O   0  0  0  0  0  0  0  0  0  0  0  0
    6.5182   25.1928   26.8343 C   0  0  0  0  0  0  0  0  0  0  0  0
    9.2357   23.0360   23.8143 C   0  0  0  0  0  0  0  0  0  0  0  0
   10.5205   23.3274   27.8850 C   0  0  0  0  0  0  0  0  0  0  0  0
    2.6564   28.2560   24.2997 O   0  0  0  0  0  0  0  0  0  0  0  0
    9.0924   23.2065   25.1532 C   0  0  0  0  0  0  0  0  0  0  0  0
    4.8939   26.9400   27.6799 C   0  0  0  0  0  0  0  0  0  0  0  0
    7.6755   24.3279   26.9385 C   0  0  0  0  0  0  0  0  0  0  0  0
    5.5433   25.8474   23.1065 C   0  0  0  0  0  0  0  0  0  0  0  0
   11.5498   21.2116   28.7671 O   0  0  0  0  0  0  0  0  0  0  0  0
    4.1851   25.6170   22.5905 C   0  0  0  0  0  0  0  0  0  0  0  0
    8.1891   23.8548   28.1178 N   0  0  0  0  0  0  0  0  0  0  0  0
    5.1933   24.3018   30.3726 C   0  0  0  0  0  0  0  0  0  0  0  0
    8.1427   24.0372   25.6463 C   0  0  0  0  0  0  0  0  0  0  0  0
    9.1197   22.8713   28.1808 C   0  0  0  0  0  0  0  0  0  0  0  0
    6.3294   25.4938   25.4133 C   0  0  0  0  0  0  0  0  0  0  0  0
  1  5  1  0
  1 15  1  0
  1 20  2  0
  2 16  1  0
  3  4  1  0
  3 11  2  0
  4 27  1  0
  4 29  2  0
  5 26  1  0
  6  7  1  0
  6  8  1  0
  6 12  1  0
  7 10  1  0
  7 18  2  0
  8 20  1  0
  9 17  1  0
  9 23  1  0
 10 24  1  0
 11 16  1  0
 12 22  1  0
 12 29  1  0
 13 22  1  0
 14 28  2  0
 15 21  1  0
 15 29  1  0
 16 19  2  0
 17 28  1  0
 19 27  1  0
 21 25  1  0
 21 27  2  0
 22 24  1  0
 25 28  1  0
M  END
>  <ID>  (1) 
conformer_0

$$$$
