
     RDKit          3D

 23 27  0  0  0  0  0  0  0  0999 V2000
    6.4653   25.2994   25.6639 N   0  0  0  0  0  0  0  0  0  0  0  0
    8.4443   23.8017   25.6518 C   0  0  0  0  0  0  0  0  0  0  0  0
    3.8676   26.7352   22.7813 C   0  0  0  0  0  0  0  0  0  0  0  0
    3.7933   27.3203   24.0316 C   0  0  0  0  0  0  0  0  0  0  0  0
    8.1510   23.7360   22.9265 N   0  0  0  0  0  0  0  0  0  0  0  0
    5.1660   25.4583   27.8091 C   0  0  0  0  0  0  0  0  0  0  0  0
    7.1118   24.5973   23.5181 C   0  0  0  0  0  0  0  0  0  0  0  0
    6.2373   25.0644   26.9996 C   0  0  0  0  0  0  0  0  0  0  0  0
    6.5008   24.0082   29.0143 N   0  0  0  0  0  0  0  0  0  0  0  0
    7.4539   24.5285   24.9739 C   0  0  0  0  0  0  0  0  0  0  0  0
    2.8351   28.1720   24.3096 O   0  0  0  0  0  0  0  0  0  0  0  0
    9.9824   22.1744   22.8539 N   0  0  0  0  0  0  0  0  0  0  0  0
    9.1960   23.0555   23.5176 C   0  0  0  0  0  0  0  0  0  0  0  0
    5.6160   25.9812   24.7710 C   0  0  0  0  0  0  0  0  0  0  0  0
    9.4008   23.1335   24.8538 N   0  0  0  0  0  0  0  0  0  0  0  0
    7.0583   24.2074   27.7286 C   0  0  0  0  0  0  0  0  0  0  0  0
    4.3221   24.7355   30.2091 C   0  0  0  0  0  0  0  0  0  0  0  0
    4.9218   25.7989   22.5280 C   0  0  0  0  0  0  0  0  0  0  0  0
    8.6907   22.4647   27.9605 N   0  0  0  0  0  0  0  0  0  0  0  0
    5.8374   25.4763   23.4953 C   0  0  0  0  0  0  0  0  0  0  0  0
    4.6999   26.9593   25.0115 C   0  0  0  0  0  0  0  0  0  0  0  0
    8.2537   23.5933   27.1201 C   0  0  0  0  0  0  0  0  0  0  0  0
    5.3105   24.7461   29.0603 C   0  0  0  0  0  0  0  0  0  0  0  0
  1  8  1  0
  1 10  1  0
  1 14  1  0
  2 10  2  0
  2 15  1  0
  2 22  1  0
  3  4  2  0
  3 18  1  0
  4 11  1  0
  4 21  1  0
  5  7  2  0
  5 13  1  0
  6  8  1  0
  6 23  1  0
  7 10  1  0
  7 20  1  0
  8 16  2  0
  9 16  1  0
  9 23  1  0
 12 13  2  0
 13 15  1  0
 14 20  1  0
 14 21  2  0
 16 22  1  0
 17 23  1  0
 18 20  2  0
 19 22  1  0
M  END
>  <ID>  (1) 
conformer_0

$$$$
