
     RDKit          3D

 31 33  0  0  0  0  0  0  0  0999 V2000
   10.2826   22.5882   27.6432 O   0  0  0  0  0  0  0  0  0  0  0  0
    5.1975   27.4655   24.9242 C   0  0  0  0  0  0  0  0  0  0  0  0
    9.2145   23.3595   27.6438 C   0  0  0  0  0  0  0  0  0  0  0  0
    7.6721   24.0990   22.1789 C   0  0  0  0  0  0  0  0  0  0  0  0
    9.5819   22.7347   22.8605 C   0  0  0  0  0  0  0  0  0  0  0  0
    9.9718   22.0010   23.7443 O   0  0  0  0  0  0  0  0  0  0  0  0
    6.1238   24.5504   28.6443 C   0  0  0  0  0  0  0  0  0  0  0  0
    7.1833   23.7398   28.9421 C   0  0  0  0  0  0  0  0  0  0  0  0
    4.3160   26.5404   23.1415 S   0  0  0  0  0  4  0  0  0  0  0  0
    3.7192   25.3804   22.1162 Cl  0  0  0  0  0  0  0  0  0  0  0  0
    3.3641   27.4603   23.6342 N   0  0  0  0  0  0  0  0  0  0  0  0
    8.2524   28.9535   26.0530 C   0  0  0  0  0  0  0  0  0  0  0  0
    9.0933   24.2261   26.6032 C   0  0  0  0  0  0  0  0  0  0  0  0
    8.0829   26.0576   24.0759 C   0  0  0  0  0  0  0  0  0  0  0  0
    8.7135   23.8950   23.0950 C   0  0  0  0  0  0  0  0  0  0  0  0
    4.2122   25.8600   29.9257 C   0  0  0  0  0  0  0  0  0  0  0  0
    6.7455   25.0955   22.3885 C   0  0  0  0  0  0  0  0  0  0  0  0
    8.7674   24.8020   24.1881 C   0  0  0  0  0  0  0  0  0  0  0  0
    5.2667   27.0629   27.5210 C   0  0  0  0  0  0  0  0  0  0  0  0
    5.3849   24.0699   30.8524 O   0  0  0  0  0  0  0  0  0  0  0  0
    6.7905   25.9878   23.4386 C   0  0  0  0  0  0  0  0  0  0  0  0
    5.5498   26.6597   23.8536 C   0  0  0  0  0  0  0  0  0  0  0  0
    8.2710   23.2361   28.6674 C   0  0  0  0  0  0  0  0  0  0  0  0
    9.0840   28.2885   25.0887 C   0  0  0  0  0  0  0  0  0  0  0  0
    9.3053   24.5055   25.4320 C   0  0  0  0  0  0  0  0  0  0  0  0
    3.9155   28.0097   24.7316 C   0  0  0  0  0  0  0  0  0  0  0  0
    6.9867   28.6362   26.4474 C   0  0  0  0  0  0  0  0  0  0  0  0
    5.9271   27.7429   26.1796 C   0  0  0  0  0  0  0  0  0  0  0  0
    5.2116   24.7983   29.8314 C   0  0  0  0  0  0  0  0  0  0  0  0
    9.9262   22.3258   21.6186 N   0  0  0  0  0  0  0  0  0  0  0  0
    8.7901   27.2162   24.4031 C   0  0  0  0  0  0  0  0  0  0  0  0
  1  3  1  0
  2 22  1  0
  2 26  1  0
  2 28  1  0
  3 13  1  0
  3 23  1  0
  4 15  1  0
  4 17  2  0
  5  6  2  0
  5 15  1  0
  5 30  1  0
  7  8  1  0
  7 29  1  0
  8 23  2  3
  9 10  1  0
  9 11  1  0
  9 22  1  0
 11 26  1  0
 12 24  1  0
 12 27  2  0
 13 25  1  0
 14 18  1  0
 14 21  1  0
 14 31  2  0
 15 18  1  0
 16 29  1  0
 17 21  1  0
 18 25  1  0
 19 28  1  0
 20 29  2  0
 21 22  2  0
 24 31  2  0
 27 28  1  0
M  END
>  <ID>  (1) 
conformer_0

$$$$
