
     RDKit          3D

 27 29  0  0  0  0  0  0  0  0999 V2000
    5.5315   25.2247   22.4085 N   0  0  0  0  0  0  0  0  0  0  0  0
   11.9759   21.5954   27.2743 O   0  0  0  0  0  0  0  0  0  0  0  0
    5.8297   26.7299   24.2058 C   0  0  0  0  0  0  0  0  0  0  0  0
    4.9468   25.2723   29.8147 C   0  0  0  0  0  0  0  0  0  0  0  0
    8.0002   23.9265   22.8385 C   0  0  0  0  0  0  0  0  0  0  0  0
    4.0610   24.5902   30.9119 C   0  0  0  0  0  0  0  0  0  0  0  0
   11.3239   22.2094   28.5240 C   0  0  0  0  0  0  0  0  0  0  0  0
    4.3311   25.7417   22.1920 C   0  0  0  0  0  0  0  0  0  0  0  0
    5.4020   24.2903   28.6638 C   0  0  0  0  0  0  0  0  0  0  0  0
    9.2609   24.1288   24.8445 C   0  0  0  0  0  0  0  0  0  0  0  0
    8.9826   23.8215   26.2283 C   0  0  0  0  0  0  0  0  0  0  0  0
    8.7706   26.1557   23.5708 C   0  0  0  0  0  0  0  0  0  0  0  0
    9.6132   25.5589   24.6462 C   0  0  0  0  0  0  0  0  0  0  0  0
    9.8412   22.2268   23.5736 O   0  0  0  0  0  0  0  0  0  0  0  0
    7.6878   25.2719   23.2951 C   0  0  0  0  0  0  0  0  0  0  0  0
    7.7882   23.7210   28.3223 C   0  0  0  0  0  0  0  0  0  0  0  0
    6.6888   23.8184   29.0877 O   0  0  0  0  0  0  0  0  0  0  0  0
    6.3357   25.7707   23.3282 C   0  0  0  0  0  0  0  0  0  0  0  0
    7.8009   24.1341   26.9881 C   0  0  0  0  0  0  0  0  0  0  0  0
    3.8996   28.1427   24.8543 C   0  0  0  0  0  0  0  0  0  0  0  0
    9.1608   23.3260   23.6887 C   0  0  0  0  0  0  0  0  0  0  0  0
   10.0523   22.8468   28.0922 C   0  0  0  0  0  0  0  0  0  0  0  0
    2.4668   28.2047   24.3111 O   0  0  0  0  0  0  0  0  0  0  0  0
   10.0228   23.2119   26.8171 C   0  0  0  0  0  0  0  0  0  0  0  0
    3.8057   26.6725   22.9498 N   0  0  0  0  0  0  0  0  0  0  0  0
    4.5573   27.1495   24.0088 C   0  0  0  0  0  0  0  0  0  0  0  0
    8.9227   23.1180   28.8790 C   0  0  0  0  0  0  0  0  0  0  0  0
  1  8  2  0
  1 18  1  0
  2  7  1  0
  3 18  2  0
  3 26  1  0
  4  6  1  0
  4  9  1  0
  5 15  1  0
  5 21  1  0
  7 22  1  0
  8 25  1  0
  9 17  1  0
 10 11  1  0
 10 13  1  0
 10 21  1  0
 11 19  1  0
 11 24  2  0
 12 13  1  0
 12 15  1  0
 14 21  1  0
 15 18  1  0
 16 17  1  0
 16 19  2  0
 16 27  1  0
 20 23  1  0
 20 26  1  0
 22 24  1  0
 22 27  2  0
 25 26  2  0
M  END
>  <ID>  (1) 
conformer_0

$$$$
