
     RDKit          3D

 28 30  0  0  0  0  0  0  0  0999 V2000
    6.2414   24.7281   31.3694 C   0  0  0  0  0  0  0  0  0  0  0  0
    9.9686   23.5747   26.3714 C   0  0  0  0  0  0  0  0  0  0  0  0
    9.1681   22.8140   22.6382 C   0  0  0  0  0  0  0  0  0  0  0  0
    6.8412   24.5519   29.0399 C   0  0  0  0  0  0  0  0  0  0  0  0
    6.7346   25.6141   25.7280 N   0  0  0  0  0  0  0  0  0  0  0  0
    5.4902   24.6917   28.6971 C   0  0  0  0  0  0  0  0  0  0  0  0
   11.1594   22.4476   28.6237 C   0  0  0  0  0  0  0  0  0  0  0  0
    9.9826   21.9041   23.3998 O   0  0  0  0  0  0  0  0  0  0  0  0
    2.9799   28.0330   24.3334 O   0  0  0  0  0  0  0  0  0  0  0  0
    4.8950   26.8268   24.8326 N   0  0  0  0  0  0  0  0  0  0  0  0
    4.5560   24.8570   29.6520 C   0  0  0  0  0  0  0  0  0  0  0  0
    7.7816   24.5378   27.9960 N   0  0  0  0  0  0  0  0  0  0  0  0
    7.7565   24.7955   25.3222 C   0  0  0  0  0  0  0  0  0  0  0  0
    8.9210   23.8951   27.4530 C   0  0  0  0  0  0  0  0  0  0  0  0
    5.7854   25.3559   22.3268 C   0  0  0  0  0  0  0  0  0  0  0  0
    5.9508   25.9726   24.6792 C   0  0  0  0  0  0  0  0  0  0  0  0
    9.7708   22.2534   29.1330 C   0  0  0  0  0  0  0  0  0  0  0  0
    3.9150   27.3156   23.9550 C   0  0  0  0  0  0  0  0  0  0  0  0
    8.6785   22.5642   28.1716 C   0  0  0  0  0  0  0  0  0  0  0  0
    7.2007   24.5677   30.3833 C   0  0  0  0  0  0  0  0  0  0  0  0
    8.8420   24.1244   25.9278 C   0  0  0  0  0  0  0  0  0  0  0  0
    3.9344   26.8326   22.6859 N   0  0  0  0  0  0  0  0  0  0  0  0
    4.8894   24.8624   31.0058 C   0  0  0  0  0  0  0  0  0  0  0  0
    7.6453   24.6374   23.8832 C   0  0  0  0  0  0  0  0  0  0  0  0
    8.6805   23.9120   23.2437 C   0  0  0  0  0  0  0  0  0  0  0  0
   11.6276   21.4980   27.6989 O   0  0  0  0  0  0  0  0  0  0  0  0
    4.4815   25.7216   22.1806 C   0  0  0  0  0  0  0  0  0  0  0  0
    6.4663   25.3473   23.5375 C   0  0  0  0  0  0  0  0  0  0  0  0
  1 20  2  0
  1 23  1  0
  2 14  1  0
  2 21  1  0
  3  8  1  0
  3 25  1  0
  4  6  2  0
  4 12  1  0
  4 20  1  0
  5 13  1  0
  5 16  1  0
  6 11  1  0
  7 17  1  0
  7 26  1  0
  9 18  2  0
 10 16  2  0
 10 18  1  0
 11 23  2  0
 12 14  1  0
 13 21  1  0
 13 24  2  0
 14 19  1  0
 15 27  1  0
 15 28  1  0
 16 28  1  0
 17 19  1  0
 18 22  1  0
 22 27  1  0
 24 25  1  0
 24 28  1  0
M  END
>  <ID>  (1) 
conformer_0

$$$$
