
     RDKit          3D

 31 34  0  0  0  0  0  0  0  0999 V2000
    5.2938   24.8474   28.2628 O   0  0  0  0  0  0  0  0  0  0  0  0
   10.4586   22.4454   28.8690 C   0  0  0  0  0  0  0  0  0  0  0  0
    3.8183   27.3105   23.1850 C   0  0  0  0  0  0  0  0  0  0  0  0
    9.1926   23.4497   23.8048 C   0  0  0  0  0  0  0  0  0  0  0  0
    5.2531   26.3513   24.8270 C   0  0  0  0  0  0  0  0  0  0  0  0
   10.4635   21.4933   23.4444 O   0  0  0  0  0  0  0  0  0  0  0  0
    5.6603   24.3658   30.5678 C   0  0  0  0  0  0  0  0  0  0  0  0
    3.4429   29.4227   25.3500 N   0  0  0  0  0  0  0  0  0  0  0  0
    5.2197   25.6941   26.1184 C   0  0  0  0  0  0  0  0  0  0  0  0
    4.5161   26.5770   22.2533 C   0  0  0  0  0  0  0  0  0  0  0  0
    4.2467   27.3039   24.5157 C   0  0  0  0  0  0  0  0  0  0  0  0
    3.6990   28.1078   25.6331 C   0  0  0  0  0  0  0  0  0  0  0  0
    7.5398   24.1964   28.5331 C   0  0  0  0  0  0  0  0  0  0  0  0
    3.7707   27.8942   27.0739 C   0  0  0  0  0  0  0  0  0  0  0  0
    9.0495   22.2141   21.7310 C   0  0  0  0  0  0  0  0  0  0  0  0
    9.0430   23.3372   28.4567 C   0  0  0  0  0  0  0  0  0  0  0  0
    4.9905   28.0350   27.8142 O   0  0  0  0  0  0  0  0  0  0  0  0
    6.1691   25.8984   23.8635 C   0  0  0  0  0  0  0  0  0  0  0  0
    7.6031   24.0714   22.1486 C   0  0  0  0  0  0  0  0  0  0  0  0
    9.9442   24.6800   28.1933 C   0  0  0  0  0  0  0  0  0  0  0  0
    5.6626   25.9305   22.5825 N   0  0  0  0  0  0  0  0  0  0  0  0
    8.1541   24.3169   23.4185 C   0  0  0  0  0  0  0  0  0  0  0  0
    7.5973   25.4550   24.2991 C   0  0  0  0  0  0  0  0  0  0  0  0
    7.8569   25.0118   25.7582 C   0  0  0  0  0  0  0  0  0  0  0  0
    8.3275   22.0102   28.2648 O   0  0  0  0  0  0  0  0  0  0  0  0
    9.6050   22.3848   22.9870 C   0  0  0  0  0  0  0  0  0  0  0  0
    8.0691   23.0759   21.3132 C   0  0  0  0  0  0  0  0  0  0  0  0
    8.4400   26.7036   24.1534 O   0  0  0  0  0  0  0  0  0  0  0  0
    7.2685   24.7033   27.1288 C   0  0  0  0  0  0  0  0  0  0  0  0
    6.1967   24.3070   29.1633 C   0  0  0  0  0  0  0  0  0  0  0  0
    5.9476   25.2244   27.1433 N   0  0  0  0  0  0  0  0  0  0  0  0
  1 30  1  0
  1 31  1  0
  2 16  1  0
  3 10  1  0
  3 11  2  0
  4 22  2  0
  4 26  1  0
  5  9  1  0
  5 11  1  0
  5 18  1  0
  6 26  1  0
  7 30  1  0
  8 12  1  0
  9 31  1  0
 10 21  2  0
 11 12  1  0
 12 14  1  0
 13 16  1  0
 13 29  1  0
 13 30  1  0
 14 17  1  0
 15 26  2  0
 15 27  1  0
 16 20  1  0
 16 25  1  0
 18 21  1  0
 18 23  1  0
 19 22  1  0
 19 27  2  0
 22 23  1  0
 23 24  1  0
 23 28  1  0
 24 29  2  0
 29 31  1  0
M  END
>  <ID>  (1) 
conformer_0

$$$$
