
     RDKit          3D

 32 34  0  0  0  0  0  0  0  0999 V2000
   10.0907   21.8306   23.5262 O   0  0  0  0  0  0  0  0  0  0  0  0
    7.4460   25.7285   24.9782 C   0  0  0  0  0  0  0  0  0  0  0  0
    4.3623   27.5662   24.9812 N   0  0  0  0  0  0  0  0  0  0  0  0
   10.6376   21.7625   28.3862 O   0  0  0  0  0  0  0  0  0  0  0  0
    6.1139   25.5523   22.5806 C   0  0  0  0  0  0  0  0  0  0  0  0
    4.1005   26.6839   22.9451 C   0  0  0  0  0  0  0  0  0  0  0  0
    4.7682   24.9558   30.8795 C   0  0  0  0  0  0  0  0  0  0  0  0
    8.8240   26.4011   25.1187 C   0  0  0  0  0  0  0  0  0  0  0  0
    6.0645   25.5732   27.0326 N   0  0  0  0  0  0  0  0  0  0  0  0
    3.7072   26.2023   21.7528 N   0  0  0  0  0  0  0  0  0  0  0  0
    8.9064   23.7672   24.2707 C   0  0  0  0  0  0  0  0  0  0  0  0
    8.9821   23.8132   27.1893 C   0  0  0  0  0  0  0  0  0  0  0  0
    8.8985   22.7827   22.0186 O   0  0  0  0  0  0  0  0  0  0  0  0
   12.4023   23.1023   28.6942 O   0  0  0  0  0  0  0  0  0  0  0  0
    8.6681   23.5163   29.7623 C   0  0  0  0  0  0  0  0  0  0  0  0
    4.1616   25.8470   29.9874 C   0  0  0  0  0  0  0  0  0  0  0  0
   10.4370   24.1989   27.8451 C   0  0  0  0  0  0  0  0  0  0  0  0
    5.3564   26.2703   23.4898 C   0  0  0  0  0  0  0  0  0  0  0  0
    5.4322   26.7185   24.7896 C   0  0  0  0  0  0  0  0  0  0  0  0
    6.8959   27.5763   26.5124 O   0  0  0  0  0  0  0  0  0  0  0  0
    6.4486   26.4357   25.9266 C   0  0  0  0  0  0  0  0  0  0  0  0
    7.8119   23.9776   28.5364 N   0  0  0  0  0  0  0  0  0  0  0  0
   11.2023   22.8905   28.2917 C   0  0  0  0  0  0  0  0  0  0  0  0
    7.2604   24.8351   22.7875 C   0  0  0  0  0  0  0  0  0  0  0  0
    9.3399   23.5651   25.6633 C   0  0  0  0  0  0  0  0  0  0  0  0
    6.5024   24.5124   29.1993 C   0  0  0  0  0  0  0  0  0  0  0  0
    7.8264   24.7494   24.0496 C   0  0  0  0  0  0  0  0  0  0  0  0
    5.7886   25.3607   28.3295 C   0  0  0  0  0  0  0  0  0  0  0  0
    9.3119   22.8201   23.2647 C   0  0  0  0  0  0  0  0  0  0  0  0
    3.5103   27.4931   23.7679 N   0  0  0  0  0  0  0  0  0  0  0  0
    5.9588   24.2999   30.4900 C   0  0  0  0  0  0  0  0  0  0  0  0
    4.6783   26.0354   28.7600 C   0  0  0  0  0  0  0  0  0  0  0  0
  1 29  2  0
  2  8  1  0
  2 21  1  0
  2 27  1  0
  3 19  1  0
  3 30  1  0
  4 23  2  0
  5 18  1  0
  5 24  2  0
  6 10  2  0
  6 18  1  0
  6 30  1  0
  7 16  2  0
  7 31  1  0
  9 21  1  0
  9 28  1  0
 11 25  1  0
 11 27  1  0
 11 29  1  0
 12 17  1  0
 12 25  1  0
 13 29  1  0
 14 23  1  0
 15 22  1  0
 16 32  1  0
 17 23  1  0
 18 19  2  0
 19 21  1  0
 20 21  1  0
 22 26  1  0
 24 27  1  0
 26 28  1  0
 26 31  2  0
 28 32  2  0
M  END
>  <ID>  (1) 
conformer_0

$$$$
