
     RDKit          3D

 22 24  0  0  0  0  0  0  0  0999 V2000
    3.7748   26.9074   23.0771 C   0  0  0  0  0  0  0  0  0  0  0  0
    8.5310   23.6529   23.6831 C   0  0  0  0  0  0  0  0  0  0  0  0
    5.4234   26.5161   24.7752 C   0  0  0  0  0  0  0  0  0  0  0  0
    8.9003   23.5249   25.0840 C   0  0  0  0  0  0  0  0  0  0  0  0
    5.5383   25.3171   23.1054 C   0  0  0  0  0  0  0  0  0  0  0  0
    9.5382   22.9057   21.5991 O   0  0  0  0  0  0  0  0  0  0  0  0
    9.9991   21.7805   23.4266 O   0  0  0  0  0  0  0  0  0  0  0  0
    7.9579   23.9863   25.9904 C   0  0  0  0  0  0  0  0  0  0  0  0
    6.2363   24.0121   29.1812 O   0  0  0  0  0  0  0  0  0  0  0  0
    6.8282   24.7632   25.6991 C   0  0  0  0  0  0  0  0  0  0  0  0
    9.3858   22.7408   22.8326 C   0  0  0  0  0  0  0  0  0  0  0  0
    6.2976   25.2768   24.3188 C   0  0  0  0  0  0  0  0  0  0  0  0
    3.8009   28.2848   25.0190 O   0  0  0  0  0  0  0  0  0  0  0  0
    6.1279   24.9611   26.9225 C   0  0  0  0  0  0  0  0  0  0  0  0
    8.8905   22.9023   28.0711 C   0  0  0  0  0  0  0  0  0  0  0  0
    4.4592   24.7311   30.7795 C   0  0  0  0  0  0  0  0  0  0  0  0
    5.0125   24.8439   29.4198 C   0  0  0  0  0  0  0  0  0  0  0  0
    4.5263   25.8127   22.4860 C   0  0  0  0  0  0  0  0  0  0  0  0
    4.3588   27.2307   24.3259 C   0  0  0  0  0  0  0  0  0  0  0  0
    6.7876   24.2291   27.9090 C   0  0  0  0  0  0  0  0  0  0  0  0
    7.9413   23.6809   27.3461 N   0  0  0  0  0  0  0  0  0  0  0  0
    7.3677   24.4984   23.4015 C   0  0  0  0  0  0  0  0  0  0  0  0
  1 18  1  0
  1 19  1  0
  2  4  1  0
  2 11  1  0
  2 22  2  0
  3 12  1  0
  3 19  2  0
  4  8  2  0
  5 12  1  0
  5 18  2  0
  6 11  2  0
  7 11  1  0
  8 10  1  0
  8 21  1  0
  9 17  1  0
  9 20  1  0
 10 12  1  0
 10 14  1  0
 12 22  1  0
 13 19  1  0
 14 20  1  0
 15 21  1  0
 16 17  1  0
 20 21  1  0
M  END
>  <ID>  (1) 
conformer_0

$$$$
