
     RDKit          3D

 25 26  0  0  0  0  0  0  0  0999 V2000
    6.3093   25.0715   23.4345 C   0  0  0  0  0  0  0  0  0  0  0  0
    9.2621   22.8314   22.9852 C   0  0  0  0  0  0  0  0  0  0  0  0
    7.4023   24.7015   25.4428 C   0  0  0  0  0  0  0  0  0  0  0  0
    9.9721   22.2236   23.8854 O   0  0  0  0  0  0  0  0  0  0  0  0
    4.6920   26.4812   28.4840 C   0  0  0  0  0  0  0  0  0  0  0  0
    8.2780   24.0077   24.7397 C   0  0  0  0  0  0  0  0  0  0  0  0
    7.2789   24.3667   22.7685 N   0  0  0  0  0  0  0  0  0  0  0  0
    4.2401   27.4983   23.7684 C   0  0  0  0  0  0  0  0  0  0  0  0
    4.9474   28.2190   24.8442 C   0  0  0  0  0  0  0  0  0  0  0  0
    6.4258   25.3334   24.7686 N   0  0  0  0  0  0  0  0  0  0  0  0
    6.4917   24.9892   27.8553 C   0  0  0  0  0  0  0  0  0  0  0  0
    9.0407   22.7464   28.2863 C   0  0  0  0  0  0  0  0  0  0  0  0
    5.1972   24.5879   29.8752 C   0  0  0  0  0  0  0  0  0  0  0  0
    6.2113   24.2243   28.9883 C   0  0  0  0  0  0  0  0  0  0  0  0
    8.0004   21.7484   28.3101 O   0  0  0  0  0  0  0  0  0  0  0  0
    5.6892   26.1230   27.6355 C   0  0  0  0  0  0  0  0  0  0  0  0
    8.8114   23.8440   27.3013 C   0  0  0  0  0  0  0  0  0  0  0  0
    8.2733   23.7474   23.4711 C   0  0  0  0  0  0  0  0  0  0  0  0
    4.4302   25.7418   29.6351 C   0  0  0  0  0  0  0  0  0  0  0  0
    9.3527   22.3904   21.7818 O   0  0  0  0  0  0  0  0  0  0  0  0
    4.9737   26.9368   22.7121 N   0  0  0  0  0  0  0  0  0  0  0  0
    5.0801   25.4472   22.6365 C   0  0  0  0  0  0  0  0  0  0  0  0
    3.0188   27.5392   23.6643 O   0  0  0  0  0  0  0  0  0  0  0  0
    7.5867   24.6492   26.9531 C   0  0  0  0  0  0  0  0  0  0  0  0
   10.1003   24.3823   26.8507 O   0  0  0  0  0  0  0  0  0  0  0  0
  1  7  2  0
  1 10  1  0
  1 22  1  0
  2  4  2  0
  2 18  1  0
  2 20  1  0
  3  6  1  0
  3 10  2  0
  3 24  1  0
  5 16  2  0
  5 19  1  0
  6 18  2  0
  7 18  1  0
  8  9  1  0
  8 21  1  0
  8 23  2  0
 11 14  2  0
 11 16  1  0
 11 24  1  0
 12 15  1  0
 12 17  1  0
 13 14  1  0
 13 19  2  0
 17 24  1  0
 17 25  1  0
 21 22  1  0
M  END
>  <ID>  (1) 
conformer_0

$$$$
