
     RDKit          3D

 21 23  0  0  0  0  0  0  0  0999 V2000
    8.3601   23.7996   25.7057 C   0  0  0  0  0  0  0  0  0  0  0  0
    4.8410   26.4489   24.4429 C   0  0  0  0  0  0  0  0  0  0  0  0
    8.0550   22.5303   28.3169 O   0  0  0  0  0  0  0  0  0  0  0  0
    4.1284   26.2164   22.1255 O   0  0  0  0  0  0  0  0  0  0  0  0
    8.0513   24.4682   24.4523 C   0  0  0  0  0  0  0  0  0  0  0  0
    6.3860   25.5723   22.8487 C   0  0  0  0  0  0  0  0  0  0  0  0
    9.3169   22.8269   25.3018 N   0  0  0  0  0  0  0  0  0  0  0  0
   10.0712   21.8408   23.3420 O   0  0  0  0  0  0  0  0  0  0  0  0
    5.9311   23.9991   28.5908 C   0  0  0  0  0  0  0  0  0  0  0  0
    8.6928   23.7926   23.3687 C   0  0  0  0  0  0  0  0  0  0  0  0
    6.6485   25.5303   26.5803 C   0  0  0  0  0  0  0  0  0  0  0  0
    6.9302   25.3244   24.1786 C   0  0  0  0  0  0  0  0  0  0  0  0
    3.0553   27.9208   23.9522 O   0  0  0  0  0  0  0  0  0  0  0  0
    4.1895   27.7095   24.8107 C   0  0  0  0  0  0  0  0  0  0  0  0
    5.7189   25.0485   29.7004 C   0  0  0  0  0  0  0  0  0  0  0  0
    5.9849   25.8470   25.2080 C   0  0  0  0  0  0  0  0  0  0  0  0
    4.3753   24.7254   30.4027 C   0  0  0  0  0  0  0  0  0  0  0  0
    7.4065   23.7910   28.2120 C   0  0  0  0  0  0  0  0  0  0  0  0
    7.5935   24.3501   26.8641 C   0  0  0  0  0  0  0  0  0  0  0  0
    5.0651   26.2340   22.9946 C   0  0  0  0  0  0  0  0  0  0  0  0
    9.5080   22.7697   23.9708 C   0  0  0  0  0  0  0  0  0  0  0  0
  1  5  1  0
  1  7  1  0
  1 19  2  0
  2 14  1  0
  2 16  1  0
  2 20  1  0
  3 18  1  0
  4 20  2  0
  5 10  1  0
  5 12  1  0
  6 12  1  0
  6 20  1  0
  7 21  1  0
  8 21  2  0
  9 15  1  0
  9 18  1  0
 10 21  1  0
 11 16  1  0
 11 19  1  0
 12 16  2  0
 13 14  1  0
 15 17  1  0
 18 19  1  0
M  END
>  <ID>  (1) 
conformer_0

$$$$
