
     RDKit          3D

 40 44  0  0  0  0  0  0  0  0999 V2000
    5.6002   26.4623   27.4695 C   0  0  0  0  0  0  0  0  0  0  0  0
    5.1312   24.8235   22.4916 C   0  0  0  0  0  0  0  0  0  0  0  0
    8.7990   22.9670   28.4133 C   0  0  0  0  0  0  0  0  0  0  0  0
    8.2621   26.9303   26.4247 N   0  0  0  0  0  0  0  0  0  0  0  0
    8.0932   24.4517   22.2538 C   0  0  0  0  0  0  0  0  0  0  0  0
    5.1052   23.4546   28.6769 O   0  0  0  0  0  0  0  0  0  0  0  0
    9.3103   24.2567   22.8872 C   0  0  0  0  0  0  0  0  0  0  0  0
    7.3277   25.1549   23.1817 C   0  0  0  0  0  0  0  0  0  0  0  0
    3.5982   28.2268   24.1766 C   0  0  0  0  0  0  0  0  0  0  0  0
    5.1975   27.3286   26.4921 C   0  0  0  0  0  0  0  0  0  0  0  0
    9.2949   26.5986   23.2437 C   0  0  0  0  0  0  0  0  0  0  0  0
    8.4769   21.6118   28.6765 O   0  0  0  0  0  0  0  0  0  0  0  0
    8.3231   26.3437   25.0776 C   0  0  0  0  0  0  0  0  0  0  0  0
   10.2003   22.0173   22.6118 N   0  0  0  0  0  0  0  0  0  0  0  0
    9.0948   25.2952   24.1641 C   0  0  0  0  0  0  0  0  0  0  0  0
    3.3569   26.3225   22.9206 C   0  0  0  0  0  0  0  0  0  0  0  0
    5.9974   25.4910   23.2710 C   0  0  0  0  0  0  0  0  0  0  0  0
   11.0533   22.5769   27.7728 O   0  0  0  0  0  0  0  0  0  0  0  0
    8.9519   29.2164   26.4417 O   0  0  0  0  0  0  0  0  0  0  0  0
    9.8492   23.1334   27.3769 C   0  0  0  0  0  0  0  0  0  0  0  0
    5.4660   26.6081   24.0821 C   0  0  0  0  0  0  0  0  0  0  0  0
    2.3165   28.3623   24.1731 O   0  0  0  0  0  0  0  0  0  0  0  0
    7.4423   23.7555   28.4221 C   0  0  0  0  0  0  0  0  0  0  0  0
    9.8713   23.0738   23.3418 C   0  0  0  0  0  0  0  0  0  0  0  0
    9.7938   24.3861   25.1780 C   0  0  0  0  0  0  0  0  0  0  0  0
    6.0434   27.3789   25.2277 C   0  0  0  0  0  0  0  0  0  0  0  0
    5.0561   26.3294   28.7085 C   0  0  0  0  0  0  0  0  0  0  0  0
    5.6614   25.4456   29.7134 C   0  0  0  0  0  0  0  0  0  0  0  0
   10.1627   25.5392   27.6791 O   0  0  0  0  0  0  0  0  0  0  0  0
    3.4267   28.0018   28.0059 C   0  0  0  0  0  0  0  0  0  0  0  0
    3.8931   27.1305   28.9527 C   0  0  0  0  0  0  0  0  0  0  0  0
    8.3167   28.2562   28.5111 C   0  0  0  0  0  0  0  0  0  0  0  0
    8.5392   27.5583   24.1496 C   0  0  0  0  0  0  0  0  0  0  0  0
    4.0491   28.1254   26.7865 C   0  0  0  0  0  0  0  0  0  0  0  0
    4.1894   27.0260   23.7484 C   0  0  0  0  0  0  0  0  0  0  0  0
    6.1660   24.2318   29.0418 N   0  0  0  0  0  0  0  0  0  0  0  0
    8.5054   28.2073   26.9936 C   0  0  0  0  0  0  0  0  0  0  0  0
    9.8986   24.4704   26.6553 C   0  0  0  0  0  0  0  0  0  0  0  0
    3.8181   25.2009   22.3087 C   0  0  0  0  0  0  0  0  0  0  0  0
   10.1524   23.1388   24.6490 N   0  0  0  0  0  0  0  0  0  0  0  0
  1 10  2  0
  1 27  1  0
  2 17  2  0
  2 39  1  0
  3 12  1  0
  3 20  1  0
  3 23  1  0
  4 13  1  0
  4 37  1  0
  5  7  1  0
  5  8  1  0
  6 36  1  0
  7 15  1  0
  7 24  1  0
  8 17  1  0
  9 22  1  0
  9 35  1  0
 10 26  1  0
 10 34  1  0
 11 15  1  0
 11 33  1  0
 13 15  1  0
 13 33  1  0
 14 24  2  0
 15 25  1  0
 16 35  1  0
 16 39  2  0
 17 21  1  0
 18 20  1  0
 19 37  2  0
 20 38  1  0
 21 26  1  0
 21 35  2  0
 23 36  1  0
 24 40  1  0
 25 38  1  0
 25 40  1  0
 27 28  1  0
 27 31  2  0
 28 36  1  0
 29 38  1  0
 30 31  1  0
 30 34  2  0
 32 37  1  0
M  END
>  <ID>  (1) 
conformer_0

$$$$
