
     RDKit          3D

 19 20  0  0  0  0  0  0  0  0999 V2000
    8.6655   24.3298   23.7720 O   0  0  0  0  0  0  0  0  0  0  0  0
    6.9672   24.8110   26.2859 C   0  0  0  0  0  0  0  0  0  0  0  0
    7.1193   23.8351   28.8039 C   0  0  0  0  0  0  0  0  0  0  0  0
    3.8251   27.0067   23.0011 O   0  0  0  0  0  0  0  0  0  0  0  0
    6.6646   25.2724   24.7692 C   0  0  0  0  0  0  0  0  0  0  0  0
    6.9726   25.1705   22.3635 C   0  0  0  0  0  0  0  0  0  0  0  0
    9.0755   23.1348   23.1871 C   0  0  0  0  0  0  0  0  0  0  0  0
    9.1168   21.9971   28.3558 O   0  0  0  0  0  0  0  0  0  0  0  0
   10.0303   23.1996   26.6589 O   0  0  0  0  0  0  0  0  0  0  0  0
    5.8202   25.5602   27.3913 C   0  0  0  0  0  0  0  0  0  0  0  0
    5.7007   24.5249   28.6723 C   0  0  0  0  0  0  0  0  0  0  0  0
    5.5163   26.0245   24.5054 C   0  0  0  0  0  0  0  0  0  0  0  0
    7.8197   23.8113   27.3197 C   0  0  0  0  0  0  0  0  0  0  0  0
    4.9122   24.5035   29.9859 C   0  0  0  0  0  0  0  0  0  0  0  0
    7.4340   24.9092   23.6412 C   0  0  0  0  0  0  0  0  0  0  0  0
    3.4251   27.6710   24.2449 C   0  0  0  0  0  0  0  0  0  0  0  0
    5.0386   26.3100   23.2186 C   0  0  0  0  0  0  0  0  0  0  0  0
    9.1018   22.9830   27.5068 C   0  0  0  0  0  0  0  0  0  0  0  0
    5.7920   25.8798   22.1430 C   0  0  0  0  0  0  0  0  0  0  0  0
  1  7  1  0
  1 15  1  0
  2  5  1  0
  2 10  1  0
  2 13  1  0
  3 11  1  0
  3 13  1  0
  4 16  1  0
  4 17  1  0
  5 12  2  0
  5 15  1  0
  6 15  2  0
  6 19  1  0
  8 18  2  0
  9 18  1  0
 10 11  1  0
 11 14  1  0
 12 17  1  0
 13 18  1  0
 17 19  2  0
M  END
>  <ID>  (1) 
conformer_0

$$$$
