
     RDKit          3D

 33 36  0  0  0  0  0  0  0  0999 V2000
    4.8723   25.1285   30.1996 C   0  0  0  0  0  0  0  0  0  0  0  0
    8.7657   25.4485   23.0383 C   0  0  0  0  0  0  0  0  0  0  0  0
    4.4911   26.7002   28.4692 C   0  0  0  0  0  0  0  0  0  0  0  0
    3.1882   28.1757   24.0821 O   0  0  0  0  0  0  0  0  0  0  0  0
    4.0115   27.9533   26.4426 C   0  0  0  0  0  0  0  0  0  0  0  0
    5.0601   24.7231   22.4423 C   0  0  0  0  0  0  0  0  0  0  0  0
    6.4632   25.3469   28.5158 C   0  0  0  0  0  0  0  0  0  0  0  0
    6.0568   26.8737   26.6940 N   0  0  0  0  0  0  0  0  0  0  0  0
    9.9309   20.8801   30.1936 C   0  0  0  0  0  0  0  0  0  0  0  0
    5.6877   26.3304   27.8668 C   0  0  0  0  0  0  0  0  0  0  0  0
    4.0842   26.1037   29.6456 C   0  0  0  0  0  0  0  0  0  0  0  0
    5.1130   27.3280   25.8402 N   0  0  0  0  0  0  0  0  0  0  0  0
    6.0453   24.7431   29.6283 N   0  0  0  0  0  0  0  0  0  0  0  0
   10.2314   21.9935   29.1255 C   0  0  0  0  0  0  0  0  0  0  0  0
   10.0272   24.1760   27.1140 C   0  0  0  0  0  0  0  0  0  0  0  0
    8.7674   21.2823   30.9695 O   0  0  0  0  0  0  0  0  0  0  0  0
    7.8787   26.3046   24.1095 C   0  0  0  0  0  0  0  0  0  0  0  0
    3.9847   27.1844   23.7090 C   0  0  0  0  0  0  0  0  0  0  0  0
    8.8952   22.7396   28.9252 C   0  0  0  0  0  0  0  0  0  0  0  0
    3.7046   27.6799   27.7031 C   0  0  0  0  0  0  0  0  0  0  0  0
   10.1466   21.7354   23.2300 O   0  0  0  0  0  0  0  0  0  0  0  0
    3.8517   25.3152   22.1455 C   0  0  0  0  0  0  0  0  0  0  0  0
    9.6651   22.9037   22.4174 C   0  0  0  0  0  0  0  0  0  0  0  0
    8.8274   23.2437   27.5138 C   0  0  0  0  0  0  0  0  0  0  0  0
    9.5794   24.8191   25.6650 C   0  0  0  0  0  0  0  0  0  0  0  0
    6.3499   26.1829   23.9801 C   0  0  0  0  0  0  0  0  0  0  0  0
    3.4559   26.4804   22.7020 C   0  0  0  0  0  0  0  0  0  0  0  0
    9.4671   23.6377   24.7126 C   0  0  0  0  0  0  0  0  0  0  0  0
    5.2145   26.9663   24.4570 C   0  0  0  0  0  0  0  0  0  0  0  0
    9.3003   23.9957   23.3152 C   0  0  0  0  0  0  0  0  0  0  0  0
    8.4690   25.8121   25.4003 N   0  0  0  0  0  0  0  0  0  0  0  0
   11.3169   21.5852   28.2830 O   0  0  0  0  0  0  0  0  0  0  0  0
    6.0131   25.1182   23.2100 C   0  0  0  0  0  0  0  0  0  0  0  0
  1 11  2  0
  1 13  1  0
  2 17  1  0
  2 30  1  0
  3 10  2  0
  3 11  1  0
  3 20  1  0
  4 18  1  0
  5 12  1  0
  5 20  2  0
  6 22  1  0
  6 33  2  0
  7 10  1  0
  7 13  2  0
  8 10  1  0
  8 12  1  0
  9 14  1  0
  9 16  1  0
 12 29  1  0
 14 19  1  0
 14 32  1  0
 15 24  1  0
 15 25  1  0
 17 26  1  0
 17 31  1  0
 18 27  2  0
 18 29  1  0
 19 24  1  0
 21 23  1  0
 22 27  1  0
 23 30  1  0
 25 28  1  0
 25 31  1  0
 26 29  1  0
 26 33  1  0
 28 30  1  0
M  END
>  <ID>  (1) 
conformer_0

$$$$
