
     RDKit          3D

 33 36  0  0  0  0  0  0  0  0999 V2000
    9.7032   25.4733   25.0876 N   0  0  0  0  0  0  0  0  0  0  0  0
    9.9742   22.2179   24.1268 O   0  0  0  0  0  0  0  0  0  0  0  0
    3.3565   28.0874   25.4883 O   0  0  0  0  0  0  0  0  0  0  0  0
    2.7835   23.8427   22.4964 C   0  0  0  0  0  0  0  0  0  0  0  0
    4.1184   28.4960   26.5120 C   0  0  0  0  0  0  0  0  0  0  0  0
    8.7607   24.0307   23.2914 C   0  0  0  0  0  0  0  0  0  0  0  0
    5.4772   29.3808   24.6384 C   0  0  0  0  0  0  0  0  0  0  0  0
    8.0406   23.9708   22.1161 C   0  0  0  0  0  0  0  0  0  0  0  0
    6.1563   27.3376   25.9474 N   0  0  0  0  0  0  0  0  0  0  0  0
    8.9334   23.8685   28.0613 C   0  0  0  0  0  0  0  0  0  0  0  0
   10.0081   22.1950   21.9294 O   0  0  0  0  0  0  0  0  0  0  0  0
    4.1950   28.2762   27.9234 C   0  0  0  0  0  0  0  0  0  0  0  0
    7.9890   23.2205   28.7970 C   0  0  0  0  0  0  0  0  0  0  0  0
    5.9803   25.0014   22.7194 C   0  0  0  0  0  0  0  0  0  0  0  0
    5.1671   28.5695   23.5625 O   0  0  0  0  0  0  0  0  0  0  0  0
    8.5369   24.8906   27.2326 C   0  0  0  0  0  0  0  0  0  0  0  0
    3.8198   25.8182   21.9833 C   0  0  0  0  0  0  0  0  0  0  0  0
    6.3639   24.8694   28.2545 C   0  0  0  0  0  0  0  0  0  0  0  0
    9.5719   25.4991   26.4355 C   0  0  0  0  0  0  0  0  0  0  0  0
    4.6507   24.9633   22.5117 N   0  0  0  0  0  0  0  0  0  0  0  0
    5.6185   28.6274   25.9870 C   0  0  0  0  0  0  0  0  0  0  0  0
    6.8813   26.1356   26.0189 C   0  0  0  0  0  0  0  0  0  0  0  0
    8.6258   24.9904   24.3639 C   0  0  0  0  0  0  0  0  0  0  0  0
    4.0416   23.7336   23.0091 C   0  0  0  0  0  0  0  0  0  0  0  0
    2.5808   25.2037   21.8349 C   0  0  0  0  0  0  0  0  0  0  0  0
    8.3191   21.9799   29.2992 N   0  0  0  0  0  0  0  0  0  0  0  0
    4.9727   25.5330   28.9280 C   0  0  0  0  0  0  0  0  0  0  0  0
    7.1835   25.3498   27.1833 C   0  0  0  0  0  0  0  0  0  0  0  0
    9.6987   22.7838   23.1141 C   0  0  0  0  0  0  0  0  0  0  0  0
    6.7294   23.7459   28.9946 C   0  0  0  0  0  0  0  0  0  0  0  0
    7.3375   25.5916   24.7451 C   0  0  0  0  0  0  0  0  0  0  0  0
    6.8452   24.3729   21.7922 C   0  0  0  0  0  0  0  0  0  0  0  0
    6.4057   25.5840   23.8318 C   0  0  0  0  0  0  0  0  0  0  0  0
  1 19  2  0
  1 23  1  0
  2 29  2  0
  3  5  1  0
  4 24  1  0
  4 25  1  0
  5 12  1  0
  5 21  1  0
  6  8  1  0
  6 23  1  0
  6 29  1  0
  7 15  1  0
  7 21  1  0
  8 32  2  0
  9 21  1  0
  9 22  1  0
 10 13  1  0
 10 16  2  0
 11 29  1  0
 13 26  1  0
 13 30  2  0
 14 20  1  0
 14 32  1  0
 14 33  1  0
 16 19  1  0
 16 28  1  0
 17 20  1  0
 17 25  1  0
 18 27  1  0
 18 28  1  0
 18 30  1  0
 20 24  1  0
 22 28  1  0
 22 31  1  0
 23 31  1  0
 31 33  1  0
M  END
>  <ID>  (1) 
conformer_0

$$$$
