
     RDKit          3D

 30 33  0  0  0  0  0  0  0  0999 V2000
    3.7908   27.2267   22.9599 N   0  0  0  0  0  0  0  0  0  0  0  0
    4.9862   26.4934   23.1114 C   0  0  0  0  0  0  0  0  0  0  0  0
    8.5184   23.9585   24.5553 C   0  0  0  0  0  0  0  0  0  0  0  0
   10.4797   22.9780   28.3207 C   0  0  0  0  0  0  0  0  0  0  0  0
    7.7547   24.2921   22.3564 N   0  0  0  0  0  0  0  0  0  0  0  0
    6.7468   25.1141   22.8013 C   0  0  0  0  0  0  0  0  0  0  0  0
    3.9573   27.9685   26.9526 C   0  0  0  0  0  0  0  0  0  0  0  0
    9.7270   21.1227   21.2109 O   0  0  0  0  0  0  0  0  0  0  0  0
    9.6003   22.6925   22.8103 C   0  0  0  0  0  0  0  0  0  0  0  0
    4.4726   26.6166   27.3526 O   0  0  0  0  0  0  0  0  0  0  0  0
    4.0891   24.6928   30.5975 C   0  0  0  0  0  0  0  0  0  0  0  0
    8.9506   23.1521   28.1102 C   0  0  0  0  0  0  0  0  0  0  0  0
    9.2875   23.5387   25.6776 C   0  0  0  0  0  0  0  0  0  0  0  0
    8.2223   22.0671   28.6181 N   0  0  0  0  0  0  0  0  0  0  0  0
    9.6537   22.5007   21.4399 N   0  0  0  0  0  0  0  0  0  0  0  0
    5.7152   25.8163   22.1422 N   0  0  0  0  0  0  0  0  0  0  0  0
    4.7818   24.6816   31.8809 C   0  0  0  0  0  0  0  0  0  0  0  0
    3.1483   27.6931   24.2130 C   0  0  0  0  0  0  0  0  0  0  0  0
    7.4161   24.7567   25.0549 C   0  0  0  0  0  0  0  0  0  0  0  0
    3.9936   28.1456   25.4620 C   0  0  0  0  0  0  0  0  0  0  0  0
    4.9317   25.3263   29.5181 C   0  0  0  0  0  0  0  0  0  0  0  0
    6.5983   25.3978   24.1387 C   0  0  0  0  0  0  0  0  0  0  0  0
    8.6084   23.6842   23.2305 C   0  0  0  0  0  0  0  0  0  0  0  0
   10.1207   21.8924   23.5691 O   0  0  0  0  0  0  0  0  0  0  0  0
    5.5640   26.2683   24.2718 C   0  0  0  0  0  0  0  0  0  0  0  0
    6.4656   25.0719   27.5166 C   0  0  0  0  0  0  0  0  0  0  0  0
    6.0791   24.6511   28.8837 C   0  0  0  0  0  0  0  0  0  0  0  0
    8.5663   23.7848   26.8480 C   0  0  0  0  0  0  0  0  0  0  0  0
    7.3863   24.6396   26.4839 C   0  0  0  0  0  0  0  0  0  0  0  0
    4.4295   26.4684   28.7928 C   0  0  0  0  0  0  0  0  0  0  0  0
  1  2  2  0
  1 18  1  0
  2 16  1  0
  2 25  1  0
  3 13  1  0
  3 19  1  0
  3 23  2  0
  4 12  1  0
  5  6  1  0
  5 23  1  0
  6 16  1  0
  6 22  2  0
  7 10  1  0
  7 20  1  0
  8 15  1  0
  9 15  1  0
  9 23  1  0
  9 24  2  0
 10 30  1  0
 11 17  1  0
 11 21  1  0
 12 14  1  0
 12 28  1  0
 13 28  1  0
 18 20  1  0
 19 22  1  0
 19 29  2  0
 21 27  1  0
 21 30  1  0
 22 25  1  0
 26 27  2  0
 26 29  1  0
 28 29  1  0
M  END
>  <ID>  (1) 
conformer_0

$$$$
