
     RDKit          3D

 15 14  0  0  0  0  0  0  0  0999 V2000
    8.1132   23.6737   28.4308 C   0  0  0  0  0  0  0  0  0  0  0  0
    8.7856   23.9208   26.0287 C   0  0  0  0  0  0  0  0  0  0  0  0
    3.3501   27.7332   23.8980 N   0  0  0  0  0  0  0  0  0  0  0  0
    5.5304   24.9771   22.7029 C   0  0  0  0  0  0  0  0  0  0  0  0
    9.6537   22.5258   24.0852 O   0  0  0  0  0  0  0  0  0  0  0  0
    4.5462   27.2170   23.2544 C   0  0  0  0  0  0  0  0  0  0  0  0
    6.6859   24.2317   29.1289 C   0  0  0  0  0  0  0  0  0  0  0  0
    8.8844   23.4816   24.6677 N   0  0  0  0  0  0  0  0  0  0  0  0
    8.1798   22.2301   28.9023 N   0  0  0  0  0  0  0  0  0  0  0  0
    7.7681   23.8940   23.8069 C   0  0  0  0  0  0  0  0  0  0  0  0
    5.0264   24.6092   29.8681 C   0  0  0  0  0  0  0  0  0  0  0  0
    9.3315   23.3916   27.2153 C   0  0  0  0  0  0  0  0  0  0  0  0
    4.3572   25.7181   23.0077 C   0  0  0  0  0  0  0  0  0  0  0  0
    6.7917   25.6933   22.3959 C   0  0  0  0  0  0  0  0  0  0  0  0
    7.9701   24.7534   22.6970 C   0  0  0  0  0  0  0  0  0  0  0  0
  1  7  1  0
  1  9  1  0
  1 12  1  0
  2  8  1  0
  2 12  1  0
  3  6  1  0
  4 13  2  3
  4 14  1  0
  5  8  1  0
  6 13  1  0
  7 11  1  0
  8 10  1  0
 10 15  1  0
 14 15  1  0
M  END
>  <ID>  (1) 
conformer_0

$$$$
