
     RDKit          3D

 24 26  0  0  0  0  0  0  0  0999 V2000
    5.6215   25.3061   29.7250 C   0  0  0  0  0  0  0  0  0  0  0  0
    3.6638   27.7292   24.1808 N   0  0  0  0  0  0  0  0  0  0  0  0
    9.8810   21.8528   23.5064 O   0  0  0  0  0  0  0  0  0  0  0  0
    9.2839   22.7993   22.8264 C   0  0  0  0  0  0  0  0  0  0  0  0
    6.8011   25.1457   23.1271 N   0  0  0  0  0  0  0  0  0  0  0  0
    5.3007   27.3000   25.7936 N   0  0  0  0  0  0  0  0  0  0  0  0
    5.9856   25.5097   22.0941 C   0  0  0  0  0  0  0  0  0  0  0  0
    5.3595   23.9892   29.3786 N   0  0  0  0  0  0  0  0  0  0  0  0
    5.5909   26.5486   24.6190 C   0  0  0  0  0  0  0  0  0  0  0  0
    7.4755   25.0089   25.4030 C   0  0  0  0  0  0  0  0  0  0  0  0
    6.6188   25.5921   24.3763 C   0  0  0  0  0  0  0  0  0  0  0  0
    4.8724   26.3742   22.3319 C   0  0  0  0  0  0  0  0  0  0  0  0
    9.7852   23.7005   25.6895 Cl  0  0  0  0  0  0  0  0  0  0  0  0
    4.0084   27.8917   25.6051 C   0  0  0  0  0  0  0  0  0  0  0  0
    7.3992   25.0190   26.7794 C   0  0  0  0  0  0  0  0  0  0  0  0
    8.4798   24.2025   24.7564 C   0  0  0  0  0  0  0  0  0  0  0  0
    8.3079   23.9185   23.3568 C   0  0  0  0  0  0  0  0  0  0  0  0
    6.6314   25.8048   28.9089 C   0  0  0  0  0  0  0  0  0  0  0  0
    6.0885   23.7131   28.2827 C   0  0  0  0  0  0  0  0  0  0  0  0
    6.8122   24.8371   27.9543 N   0  0  0  0  0  0  0  0  0  0  0  0
    4.7046   26.8719   23.6335 C   0  0  0  0  0  0  0  0  0  0  0  0
    9.5504   22.7976   21.5669 O   0  0  0  0  0  0  0  0  0  0  0  0
    3.2499   28.1623   26.8904 C   0  0  0  0  0  0  0  0  0  0  0  0
    4.7867   26.0787   30.7339 C   0  0  0  0  0  0  0  0  0  0  0  0
  1  8  1  0
  1 18  1  0
  1 24  1  0
  2 14  2  0
  2 21  1  0
  3  4  2  0
  4 17  1  0
  4 22  1  0
  5  7  1  0
  5 11  2  0
  6  9  1  0
  6 14  1  0
  7 12  2  0
  8 19  1  0
  9 11  1  0
  9 21  2  0
 10 11  1  0
 10 15  1  0
 10 16  1  0
 12 21  1  0
 13 16  1  0
 14 23  1  0
 15 20  1  0
 16 17  1  0
 18 20  1  0
 19 20  1  0
M  END
>  <ID>  (1) 
conformer_0

$$$$
