
     RDKit          3D

 29 33  0  0  0  0  0  0  0  0999 V2000
   10.7902   22.9408   27.9991 C   0  0  0  0  0  0  0  0  0  0  0  0
    9.3959   22.7217   22.8580 C   0  0  0  0  0  0  0  0  0  0  0  0
    9.4835   22.9125   24.1972 N   0  0  0  0  0  0  0  0  0  0  0  0
    7.5864   24.4285   22.2718 C   0  0  0  0  0  0  0  0  0  0  0  0
    3.4944   28.0568   26.7590 O   0  0  0  0  0  0  0  0  0  0  0  0
    4.5342   25.7122   21.7617 O   0  0  0  0  0  0  0  0  0  0  0  0
    8.8291   23.7764   25.0247 C   0  0  0  0  0  0  0  0  0  0  0  0
    6.6642   25.0371   27.0972 C   0  0  0  0  0  0  0  0  0  0  0  0
    3.5726   24.6687   22.1705 C   0  0  0  0  0  0  0  0  0  0  0  0
    4.2111   27.5493   23.2642 C   0  0  0  0  0  0  0  0  0  0  0  0
    7.7280   24.6004   24.6539 C   0  0  0  0  0  0  0  0  0  0  0  0
    8.5077   23.4834   22.0303 C   0  0  0  0  0  0  0  0  0  0  0  0
    4.1587   27.6552   25.7781 C   0  0  0  0  0  0  0  0  0  0  0  0
    5.1563   26.6265   26.0127 C   0  0  0  0  0  0  0  0  0  0  0  0
    9.2180   23.7967   26.3830 O   0  0  0  0  0  0  0  0  0  0  0  0
    4.9353   26.4009   22.8708 C   0  0  0  0  0  0  0  0  0  0  0  0
    5.9692   25.8612   23.6691 C   0  0  0  0  0  0  0  0  0  0  0  0
    6.6657   24.2751   28.3136 N   0  0  0  0  0  0  0  0  0  0  0  0
    5.5956   24.5957   29.1883 C   0  0  0  0  0  0  0  0  0  0  0  0
    7.1097   24.9730   23.3890 N   0  0  0  0  0  0  0  0  0  0  0  0
    5.0462   24.0537   30.1325 O   0  0  0  0  0  0  0  0  0  0  0  0
   10.1528   21.7781   22.3293 O   0  0  0  0  0  0  0  0  0  0  0  0
    5.9478   26.0356   25.0852 C   0  0  0  0  0  0  0  0  0  0  0  0
    3.8723   28.1133   24.4681 N   0  0  0  0  0  0  0  0  0  0  0  0
    6.9712   25.1813   25.6755 N   0  0  0  0  0  0  0  0  0  0  0  0
    8.5633   22.1004   28.3459 N   0  0  0  0  0  0  0  0  0  0  0  0
    4.8732   25.7470   28.5921 C   0  0  0  0  0  0  0  0  0  0  0  0
    5.4835   25.9704   27.2941 C   0  0  0  0  0  0  0  0  0  0  0  0
    9.3196   23.0577   27.5640 C   0  0  0  0  0  0  0  0  0  0  0  0
  1 29  1  0
  2  3  1  0
  2 12  1  0
  2 22  2  0
  3  7  2  0
  4 12  2  0
  4 20  1  0
  5 13  2  0
  6  9  1  0
  6 16  1  0
  7 11  1  0
  7 15  1  0
  8 18  1  0
  8 25  1  0
  8 28  2  0
 10 16  1  0
 10 24  2  0
 11 20  1  0
 11 25  1  0
 13 14  1  0
 13 24  1  0
 14 23  1  0
 14 28  1  0
 15 29  1  0
 16 17  1  0
 17 20  1  0
 17 23  2  0
 18 19  1  0
 19 21  2  0
 19 27  1  0
 23 25  1  0
 26 29  1  0
 27 28  1  0
M  END
>  <ID>  (1) 
conformer_0

$$$$
