
     RDKit          3D

 31 33  0  0  0  0  0  0  0  0999 V2000
    8.3587   23.8478   27.4176 N   0  0  0  0  0  0  0  0  0  0  0  0
    9.7652   22.7821   24.3319 C   0  0  0  0  0  0  0  0  0  0  0  0
    7.9696   23.9103   28.7504 C   0  0  0  0  0  0  0  0  0  0  0  0
    4.8811   26.5682   23.2983 C   0  0  0  0  0  0  0  0  0  0  0  0
    9.9351   21.9003   31.6027 C   0  0  0  0  0  0  0  0  0  0  0  0
    7.2251   25.2144   25.4346 C   0  0  0  0  0  0  0  0  0  0  0  0
    5.1792   26.5727   24.6938 C   0  0  0  0  0  0  0  0  0  0  0  0
    9.3945   22.6523   23.0124 C   0  0  0  0  0  0  0  0  0  0  0  0
    3.7727   27.2348   22.8556 N   0  0  0  0  0  0  0  0  0  0  0  0
    6.2453   25.9169   25.2139 C   0  0  0  0  0  0  0  0  0  0  0  0
    8.8374   21.1845   29.5668 O   0  0  0  0  0  0  0  0  0  0  0  0
    9.2581   22.1625   30.2822 C   0  0  0  0  0  0  0  0  0  0  0  0
    4.3873   27.2854   25.6139 C   0  0  0  0  0  0  0  0  0  0  0  0
    3.4237   27.5214   27.7966 C   0  0  0  0  0  0  0  0  0  0  0  0
    9.4357   23.8748   26.5253 C   0  0  0  0  0  0  0  0  0  0  0  0
    3.2988   27.9321   25.0238 C   0  0  0  0  0  0  0  0  0  0  0  0
    6.7066   25.0460   22.6212 N   0  0  0  0  0  0  0  0  0  0  0  0
   11.2695   23.1573   28.5634 C   0  0  0  0  0  0  0  0  0  0  0  0
    7.6875   24.3016   23.2654 C   0  0  0  0  0  0  0  0  0  0  0  0
    3.0122   27.9251   23.7175 N   0  0  0  0  0  0  0  0  0  0  0  0
    6.4744   24.3058   28.9217 C   0  0  0  0  0  0  0  0  0  0  0  0
    8.0225   24.3749   24.6452 C   0  0  0  0  0  0  0  0  0  0  0  0
    9.0914   23.6652   25.1495 C   0  0  0  0  0  0  0  0  0  0  0  0
   12.0152   21.8831   28.3318 C   0  0  0  0  0  0  0  0  0  0  0  0
    8.7424   23.5529   30.0219 C   0  0  0  0  0  0  0  0  0  0  0  0
    5.7036   25.8526   22.3906 N   0  0  0  0  0  0  0  0  0  0  0  0
   12.3957   21.1952   29.3884 O   0  0  0  0  0  0  0  0  0  0  0  0
    8.3724   23.4088   22.4968 C   0  0  0  0  0  0  0  0  0  0  0  0
    4.7299   27.3108   27.0938 C   0  0  0  0  0  0  0  0  0  0  0  0
   12.3152   21.4634   27.2117 N   0  0  0  0  0  0  0  0  0  0  0  0
   10.7731   23.8437   27.1686 C   0  0  0  0  0  0  0  0  0  0  0  0
  1  3  1  0
  1 15  2  3
  2  8  2  0
  2 23  1  0
  3 21  1  0
  3 25  1  0
  4  7  1  0
  4  9  2  0
  4 26  1  0
  5 12  1  0
  6 10  2  0
  6 22  1  0
  7 10  2  0
  7 13  1  0
  8 28  1  0
  9 20  1  0
 11 12  2  0
 12 25  1  0
 13 16  1  0
 13 29  1  0
 14 29  1  0
 15 23  1  0
 15 31  1  0
 16 20  2  0
 17 19  1  0
 17 26  1  0
 18 24  1  0
 18 31  1  0
 19 22  1  0
 19 28  2  0
 22 23  2  0
 24 27  2  0
 24 30  1  0
M  END
>  <ID>  (1) 
conformer_0

$$$$
