
     RDKit          3D

 24 26  0  0  0  0  0  0  0  0999 V2000
    4.1941   27.0072   23.1445 N   0  0  0  0  0  0  0  0  0  0  0  0
    8.0894   24.1215   25.3983 N   0  0  0  0  0  0  0  0  0  0  0  0
    8.7534   21.9313   29.1228 N   0  0  0  0  0  0  0  0  0  0  0  0
    8.7481   23.4518   23.1518 N   0  0  0  0  0  0  0  0  0  0  0  0
    9.9441   21.4808   22.7215 O   0  0  0  0  0  0  0  0  0  0  0  0
    9.2625   22.9622   30.0923 C   0  0  0  0  0  0  0  0  0  0  0  0
    5.3579   26.4590   25.1541 C   0  0  0  0  0  0  0  0  0  0  0  0
    6.8460   25.0278   27.6135 C   0  0  0  0  0  0  0  0  0  0  0  0
    6.3459   25.5767   25.0614 C   0  0  0  0  0  0  0  0  0  0  0  0
    8.3137   24.1568   29.8340 C   0  0  0  0  0  0  0  0  0  0  0  0
    7.5858   23.9032   28.5102 C   0  0  0  0  0  0  0  0  0  0  0  0
    8.2427   22.6195   27.9835 C   0  0  0  0  0  0  0  0  0  0  0  0
    9.6554   22.4354   23.5377 C   0  0  0  0  0  0  0  0  0  0  0  0
    6.8605   25.1035   21.4861 S   0  0  0  0  0  0  0  0  0  0  0  0
    3.2832   27.4473   27.5491 C   0  0  0  0  0  0  0  0  0  0  0  0
    4.4114   27.1737   24.5267 C   0  0  0  0  0  0  0  0  0  0  0  0
    7.9351   24.1901   24.0638 C   0  0  0  0  0  0  0  0  0  0  0  0
   10.2701   22.5023   24.7308 N   0  0  0  0  0  0  0  0  0  0  0  0
    3.6167   28.1030   25.1922 N   0  0  0  0  0  0  0  0  0  0  0  0
    7.1350   24.8973   26.0487 C   0  0  0  0  0  0  0  0  0  0  0  0
    6.8239   25.1038   23.8121 C   0  0  0  0  0  0  0  0  0  0  0  0
    5.0530   26.2550   22.4716 C   0  0  0  0  0  0  0  0  0  0  0  0
    3.8977   28.4701   26.5517 C   0  0  0  0  0  0  0  0  0  0  0  0
    6.1721   25.5335   22.6672 C   0  0  0  0  0  0  0  0  0  0  0  0
  1 16  1  0
  1 22  2  0
  2 17  1  0
  2 20  1  0
  3  6  1  0
  3 12  1  0
  4 13  1  0
  4 17  2  3
  5 13  2  0
  6 10  1  0
  7  9  2  0
  7 16  1  0
  8 11  1  0
  8 20  1  0
  9 20  1  0
  9 21  1  0
 10 11  1  0
 11 12  1  0
 13 18  1  0
 14 24  2  0
 15 23  1  0
 16 19  2  3
 17 21  1  0
 19 23  1  0
 21 24  1  0
 22 24  1  0
M  END
>  <ID>  (1) 
conformer_0

$$$$
