
     RDKit          3D

 36 42  0  0  0  0  0  0  0  0999 V2000
    4.6883   25.6840   22.8477 C   0  0  0  0  0  0  0  0  0  0  0  0
   10.2724   21.2711   30.2271 C   0  0  0  0  0  0  0  0  0  0  0  0
    9.2844   21.6541   29.2008 N   0  0  0  0  0  0  0  0  0  0  0  0
    9.7920   20.0599   30.9836 C   0  0  0  0  0  0  0  0  0  0  0  0
   11.7154   21.6358   29.7560 C   0  0  0  0  0  0  0  0  0  0  0  0
    4.9088   24.3732   29.6881 O   0  0  0  0  0  0  0  0  0  0  0  0
    4.3471   27.6264   24.1716 C   0  0  0  0  0  0  0  0  0  0  0  0
    4.5636   28.6532   26.4793 C   0  0  0  0  0  0  0  0  0  0  0  0
    9.6293   23.1433   24.0960 N   0  0  0  0  0  0  0  0  0  0  0  0
    5.9544   25.4307   27.8553 C   0  0  0  0  0  0  0  0  0  0  0  0
    4.7448   27.3925   28.8058 C   0  0  0  0  0  0  0  0  0  0  0  0
    6.9138   25.0713   26.8944 C   0  0  0  0  0  0  0  0  0  0  0  0
    9.5536   22.9955   28.6461 C   0  0  0  0  0  0  0  0  0  0  0  0
    8.9745   23.9465   24.9065 C   0  0  0  0  0  0  0  0  0  0  0  0
    5.9311   25.9542   24.7898 C   0  0  0  0  0  0  0  0  0  0  0  0
    4.1007   24.7982   22.0537 O   0  0  0  0  0  0  0  0  0  0  0  0
    3.1976   27.3452   22.1893 O   0  0  0  0  0  0  0  0  0  0  0  0
    9.0844   23.0444   22.8832 C   0  0  0  0  0  0  0  0  0  0  0  0
    5.2571   26.6671   27.7225 C   0  0  0  0  0  0  0  0  0  0  0  0
    4.0936   29.2829   27.4881 C   0  0  0  0  0  0  0  0  0  0  0  0
    6.9078   25.3614   25.5493 N   0  0  0  0  0  0  0  0  0  0  0  0
    4.2224   28.6366   28.7092 C   0  0  0  0  0  0  0  0  0  0  0  0
    4.0343   26.9326   23.0400 C   0  0  0  0  0  0  0  0  0  0  0  0
    7.1106   23.7018   29.2067 C   0  0  0  0  0  0  0  0  0  0  0  0
    5.8803   25.3362   23.5160 C   0  0  0  0  0  0  0  0  0  0  0  0
    7.7882   24.5797   24.6833 C   0  0  0  0  0  0  0  0  0  0  0  0
    7.9884   24.2769   27.2417 C   0  0  0  0  0  0  0  0  0  0  0  0
    8.1956   23.6276   28.3627 C   0  0  0  0  0  0  0  0  0  0  0  0
    5.1533   26.9868   25.1551 C   0  0  0  0  0  0  0  0  0  0  0  0
    6.0049   24.5089   28.9422 C   0  0  0  0  0  0  0  0  0  0  0  0
   11.5944   21.6339   28.1582 O   0  0  0  0  0  0  0  0  0  0  0  0
    7.1663   24.5067   23.4402 C   0  0  0  0  0  0  0  0  0  0  0  0
    5.0767   27.3628   26.5014 C   0  0  0  0  0  0  0  0  0  0  0  0
    7.9280   23.6905   22.5375 N   0  0  0  0  0  0  0  0  0  0  0  0
   10.8554   22.9270   27.8748 C   0  0  0  0  0  0  0  0  0  0  0  0
    9.7975   22.2234   21.9493 N   0  0  0  0  0  0  0  0  0  0  0  0
  1 16  1  0
  1 23  1  0
  1 25  1  0
  2  3  1  0
  2  4  1  0
  2  5  1  0
  3 13  1  0
  5 31  1  0
  6 30  1  0
  7 23  1  0
  7 29  1  0
  8 20  2  0
  8 33  1  0
  9 14  1  0
  9 18  1  0
 10 12  1  0
 10 19  1  0
 10 30  1  0
 11 19  1  0
 11 22  2  0
 12 21  1  0
 12 27  1  0
 13 28  1  0
 13 35  1  0
 14 26  2  0
 15 21  1  0
 15 25  1  0
 15 29  2  0
 17 23  2  0
 18 34  1  0
 18 36  2  0
 19 33  1  0
 20 22  1  0
 21 26  1  0
 24 28  1  0
 24 30  2  0
 25 32  1  0
 26 32  1  0
 27 28  2  0
 29 33  1  0
 31 35  1  0
 32 34  2  0
M  END
>  <ID>  (1) 
conformer_0

$$$$
