
     RDKit          3D

 27 30  0  0  0  0  0  0  0  0999 V2000
    9.4945   24.1012   27.4077 O   0  0  0  0  0  0  0  0  0  0  0  0
    6.7993   26.4458   24.0509 C   0  0  0  0  0  0  0  0  0  0  0  0
   10.0960   21.7195   21.3913 O   0  0  0  0  0  0  0  0  0  0  0  0
    6.2581   25.9099   21.6717 C   0  0  0  0  0  0  0  0  0  0  0  0
    4.2742   27.8416   26.4635 C   0  0  0  0  0  0  0  0  0  0  0  0
    8.4474   23.9528   23.8835 C   0  0  0  0  0  0  0  0  0  0  0  0
    8.7632   23.2125   22.6828 C   0  0  0  0  0  0  0  0  0  0  0  0
    6.4203   24.2984   28.9612 C   0  0  0  0  0  0  0  0  0  0  0  0
    3.2266   27.7075   23.6598 O   0  0  0  0  0  0  0  0  0  0  0  0
    6.4663   25.0094   27.7849 C   0  0  0  0  0  0  0  0  0  0  0  0
    4.4354   25.4209   23.0902 O   0  0  0  0  0  0  0  0  0  0  0  0
    4.6624   25.8079   28.9921 C   0  0  0  0  0  0  0  0  0  0  0  0
    7.9783   23.7337   21.6726 C   0  0  0  0  0  0  0  0  0  0  0  0
    4.9623   24.3088   30.9800 Cl  0  0  0  0  0  0  0  0  0  0  0  0
    7.5277   25.0166   23.5216 C   0  0  0  0  0  0  0  0  0  0  0  0
    8.6152   24.1859   26.4568 C   0  0  0  0  0  0  0  0  0  0  0  0
    5.4326   26.5557   23.0881 C   0  0  0  0  0  0  0  0  0  0  0  0
    9.7410   22.1424   22.5197 C   0  0  0  0  0  0  0  0  0  0  0  0
    5.3289   24.7809   29.7054 C   0  0  0  0  0  0  0  0  0  0  0  0
    4.9711   28.4043   25.1217 C   0  0  0  0  0  0  0  0  0  0  0  0
   10.2545   21.6104   23.5333 O   0  0  0  0  0  0  0  0  0  0  0  0
    4.5348   27.6790   23.8882 C   0  0  0  0  0  0  0  0  0  0  0  0
    7.1760   24.8799   22.2491 N   0  0  0  0  0  0  0  0  0  0  0  0
    5.3014   25.9526   27.8005 C   0  0  0  0  0  0  0  0  0  0  0  0
    7.3841   24.8109   26.7762 C   0  0  0  0  0  0  0  0  0  0  0  0
    8.9320   23.6767   25.1541 O   0  0  0  0  0  0  0  0  0  0  0  0
    4.9508   26.6355   26.8105 O   0  0  0  0  0  0  0  0  0  0  0  0
  1 16  2  0
  2 15  1  0
  2 17  1  0
  3 18  2  0
  4 17  1  0
  4 23  1  0
  5 20  1  0
  5 27  1  0
  6  7  1  0
  6 15  2  0
  6 26  1  0
  7 13  1  0
  7 18  1  0
  8 10  1  0
  8 19  1  0
  9 22  1  0
 10 24  2  0
 10 25  1  0
 11 17  1  0
 12 19  1  0
 12 24  1  0
 13 23  1  0
 14 19  1  0
 15 23  1  0
 16 25  1  0
 16 26  1  0
 17 22  1  0
 18 21  1  0
 20 22  1  0
 24 27  1  0
M  END
>  <ID>  (1) 
conformer_0

$$$$
