
     RDKit          3D

 40 44  0  0  0  0  0  0  0  0999 V2000
    5.6253   24.1187   22.2983 C   0  0  0  0  0  0  0  0  0  0  0  0
    4.3379   28.2453   23.8581 O   0  0  0  0  0  0  0  0  0  0  0  0
    3.3328   26.2363   22.9683 C   0  0  0  0  0  0  0  0  0  0  0  0
    9.3247   21.9778   29.5829 P   0  0  0  0  0  4  0  0  0  0  0  0
    9.0223   24.4125   28.2293 C   0  0  0  0  0  0  0  0  0  0  0  0
    3.7537   26.6383   29.1805 C   0  0  0  0  0  0  0  0  0  0  0  0
    5.2805   25.0735   30.3010 C   0  0  0  0  0  0  0  0  0  0  0  0
    3.6583   27.4700   28.0804 C   0  0  0  0  0  0  0  0  0  0  0  0
    9.2466   25.2472   27.1484 O   0  0  0  0  0  0  0  0  0  0  0  0
    8.6049   28.2450   25.3656 C   0  0  0  0  0  0  0  0  0  0  0  0
    9.7693   22.7514   23.1886 N   0  0  0  0  0  0  0  0  0  0  0  0
    9.5261   23.7256   25.2802 C   0  0  0  0  0  0  0  0  0  0  0  0
    4.8713   27.5144   27.3885 C   0  0  0  0  0  0  0  0  0  0  0  0
    6.3398   25.2897   22.5214 C   0  0  0  0  0  0  0  0  0  0  0  0
    9.2625   23.6736   23.9454 C   0  0  0  0  0  0  0  0  0  0  0  0
    8.0801   24.7665   29.4056 C   0  0  0  0  0  0  0  0  0  0  0  0
    4.2690   24.0083   22.3104 C   0  0  0  0  0  0  0  0  0  0  0  0
    4.4797   26.9873   23.2034 C   0  0  0  0  0  0  0  0  0  0  0  0
    5.0979   28.2582   26.1778 C   0  0  0  0  0  0  0  0  0  0  0  0
    9.3860   21.1646   21.6910 O   0  0  0  0  0  0  0  0  0  0  0  0
    5.0516   26.1238   29.1819 N   0  0  0  0  0  0  0  0  0  0  0  0
    9.9838   22.1890   22.0811 C   0  0  0  0  0  0  0  0  0  0  0  0
    8.6519   25.7019   24.7280 C   0  0  0  0  0  0  0  0  0  0  0  0
    8.9596   22.2709   30.9365 O   0  0  0  0  0  0  0  0  0  0  0  0
    7.5007   29.0751   25.6856 C   0  0  0  0  0  0  0  0  0  0  0  0
    8.5306   24.8732   23.6523 N   0  0  0  0  0  0  0  0  0  0  0  0
    8.5166   27.0550   24.7151 C   0  0  0  0  0  0  0  0  0  0  0  0
    2.8956   28.7339   25.5804 O   0  0  0  0  0  0  0  0  0  0  0  0
    5.7540   26.6668   28.0290 C   0  0  0  0  0  0  0  0  0  0  0  0
    6.5917   24.3303   29.9755 C   0  0  0  0  0  0  0  0  0  0  0  0
    3.3243   24.9557   22.5249 C   0  0  0  0  0  0  0  0  0  0  0  0
    6.2083   28.9907   25.8662 C   0  0  0  0  0  0  0  0  0  0  0  0
    9.9619   28.5421   25.9879 C   0  0  0  0  0  0  0  0  0  0  0  0
    9.1328   22.8185   28.1670 C   0  0  0  0  0  0  0  0  0  0  0  0
    5.7431   26.5129   22.8822 C   0  0  0  0  0  0  0  0  0  0  0  0
   11.0759   22.6077   21.3187 N   0  0  0  0  0  0  0  0  0  0  0  0
    9.1479   24.9311   25.7760 N   0  0  0  0  0  0  0  0  0  0  0  0
    4.0442   28.3975   25.2028 C   0  0  0  0  0  0  0  0  0  0  0  0
    9.8421   20.7145   29.4941 O   0  0  0  0  0  1  0  0  0  0  0  0
    7.8006   25.1136   22.4400 C   0  0  0  0  0  0  0  0  0  0  0  0
  1 14  2  0
  1 17  1  0
  2 18  1  0
  2 38  1  0
  3 18  2  0
  3 31  1  0
  4 24  1  0
  4 34  1  0
  4 39  2  0
  5  9  1  0
  5 16  1  0
  5 34  1  0
  6  8  1  0
  6 21  1  0
  7 21  1  0
  7 30  1  0
  8 13  1  0
  9 37  1  0
 10 25  1  0
 10 27  1  0
 10 33  1  0
 11 15  2  3
 11 22  1  0
 12 15  1  0
 12 37  1  0
 13 19  1  0
 13 29  1  0
 14 35  1  0
 14 40  1  0
 15 26  1  0
 16 30  1  0
 17 31  2  0
 18 35  1  0
 19 32  1  0
 19 38  1  0
 20 22  2  0
 21 29  1  0
 22 36  1  0
 23 26  1  0
 23 27  2  0
 23 37  1  0
 25 32  1  0
 26 40  1  0
 28 38  2  0
M  END
>  <ID>  (1) 
conformer_0

$$$$
