
     RDKit          3D

 27 28  0  0  0  0  0  0  0  0999 V2000
   10.0320   23.0659   25.2240 O   0  0  0  0  0  0  0  0  0  0  0  0
    5.7180   27.4693   25.0801 C   0  0  0  0  0  0  0  0  0  0  0  0
    3.9103   27.0919   23.5166 C   0  0  0  0  0  0  0  0  0  0  0  0
    5.9546   24.6495   29.3579 C   0  0  0  0  0  0  0  0  0  0  0  0
    3.4893   28.2020   25.5380 C   0  0  0  0  0  0  0  0  0  0  0  0
    6.9738   25.4586   23.1349 C   0  0  0  0  0  0  0  0  0  0  0  0
    5.2690   25.2767   28.2912 C   0  0  0  0  0  0  0  0  0  0  0  0
    7.3632   24.6324   22.1019 C   0  0  0  0  0  0  0  0  0  0  0  0
    8.2283   23.6278   21.9971 C   0  0  0  0  0  0  0  0  0  0  0  0
    9.9184   22.0854   22.5099 C   0  0  0  0  0  0  0  0  0  0  0  0
    3.4479   26.3056   22.0770 Cl  0  0  0  0  0  0  0  0  0  0  0  0
    5.3041   26.9721   23.8589 N   0  0  0  0  0  0  0  0  0  0  0  0
    8.3248   24.5098   24.8020 C   0  0  0  0  0  0  0  0  0  0  0  0
    9.0939   23.5564   24.3025 C   0  0  0  0  0  0  0  0  0  0  0  0
    3.0593   27.7278   24.2954 N   0  0  0  0  0  0  0  0  0  0  0  0
   10.4504   21.1750   23.4112 O   0  0  0  0  0  0  0  0  0  0  0  0
    5.2332   24.2068   30.4721 O   0  0  0  0  0  0  0  0  0  0  0  0
    4.2040   25.0278   30.9660 C   0  0  0  0  0  0  0  0  0  0  0  0
    9.0342   23.1196   22.9479 C   0  0  0  0  0  0  0  0  0  0  0  0
    6.0708   26.4804   22.8141 O   0  0  0  0  0  0  0  0  0  0  0  0
    7.4637   25.3619   24.4666 C   0  0  0  0  0  0  0  0  0  0  0  0
    8.7325   23.5646   27.2875 C   0  0  0  0  0  0  0  0  0  0  0  0
    8.0693   24.7159   28.1065 C   0  0  0  0  0  0  0  0  0  0  0  0
    4.8353   28.0729   25.9674 C   0  0  0  0  0  0  0  0  0  0  0  0
    7.2476   24.2232   29.2272 N   0  0  0  0  0  0  0  0  0  0  0  0
    8.5138   22.3841   28.0263 O   0  0  0  0  0  0  0  0  0  0  0  0
    9.9908   23.8049   26.5174 C   0  0  0  0  0  0  0  0  0  0  0  0
  1 14  1  0
  1 27  1  0
  2 12  1  0
  2 24  2  0
  3 11  1  0
  3 12  1  0
  3 15  2  0
  4  7  1  0
  4 17  1  0
  4 25  1  0
  5 15  1  0
  5 24  1  0
  6  8  1  0
  6 20  1  0
  6 21  1  0
  8  9  2  0
  9 19  1  0
 10 16  1  0
 10 19  1  0
 12 20  1  0
 13 14  1  0
 13 21  2  0
 14 19  2  0
 17 18  1  0
 22 23  1  0
 22 26  1  0
 22 27  1  0
 23 25  1  0
M  END
>  <ID>  (1) 
conformer_0

$$$$
