
     RDKit          3D

 19 21  0  0  0  0  0  0  0  0999 V2000
    9.3800   23.6222   24.1089 C   0  0  0  0  0  0  0  0  0  0  0  0
   10.2564   21.8447   22.8955 O   0  0  0  0  0  0  0  0  0  0  0  0
    6.1047   25.3105   23.8095 C   0  0  0  0  0  0  0  0  0  0  0  0
    5.3213   25.7464   22.7258 C   0  0  0  0  0  0  0  0  0  0  0  0
    4.0973   27.2503   24.1663 C   0  0  0  0  0  0  0  0  0  0  0  0
    4.3656   27.6308   26.7107 Cl  0  0  0  0  0  0  0  0  0  0  0  0
    8.9275   22.6675   27.5524 O   0  0  0  0  0  0  0  0  0  0  0  0
    8.0974   23.9881   24.6239 C   0  0  0  0  0  0  0  0  0  0  0  0
    7.0993   24.0097   28.3211 C   0  0  0  0  0  0  0  0  0  0  0  0
    4.3150   26.7041   22.8905 C   0  0  0  0  0  0  0  0  0  0  0  0
    7.6202   24.1299   25.9922 C   0  0  0  0  0  0  0  0  0  0  0  0
    6.1675   24.8624   27.6488 C   0  0  0  0  0  0  0  0  0  0  0  0
    4.8124   26.7715   25.2353 C   0  0  0  0  0  0  0  0  0  0  0  0
    7.2068   24.4465   23.5456 C   0  0  0  0  0  0  0  0  0  0  0  0
    5.1797   25.3953   28.3636 O   0  0  0  0  0  0  0  0  0  0  0  0
    5.7902   25.7026   25.1364 C   0  0  0  0  0  0  0  0  0  0  0  0
    7.9791   23.5532   27.3027 C   0  0  0  0  0  0  0  0  0  0  0  0
    6.4593   24.9702   26.2271 C   0  0  0  0  0  0  0  0  0  0  0  0
    9.6046   22.2547   23.9614 N   0  0  0  0  0  0  0  0  0  0  0  0
  1  8  1  0
  1 19  1  0
  2 19  1  0
  3  4  2  0
  3 14  1  0
  3 16  1  0
  4 10  1  0
  5 10  2  0
  5 13  1  0
  6 13  1  0
  7 17  1  0
  8 11  1  0
  8 14  1  0
  9 12  1  0
  9 17  1  0
 11 17  2  0
 11 18  1  0
 12 15  1  0
 12 18  2  0
 13 16  2  0
 16 18  1  0
M  END
>  <ID>  (1) 
conformer_0

$$$$
