
     RDKit          3D

 39 43  0  0  0  0  0  0  0  0999 V2000
    9.7426   27.8607   24.5101 C   0  0  0  0  0  0  0  0  0  0  0  0
    3.5982   26.9078   23.3253 N   0  0  0  0  0  0  0  0  0  0  0  0
    5.3108   26.3823   29.9384 C   0  0  0  0  0  0  0  0  0  0  0  0
    8.8097   22.5791   22.2912 C   0  0  0  0  0  0  0  0  0  0  0  0
    8.5245   22.9365   28.2320 C   0  0  0  0  0  0  0  0  0  0  0  0
   10.5284   21.4682   23.5537 O   0  0  0  0  0  0  0  0  0  0  0  0
    9.5921   26.4355   24.8408 N   0  0  0  0  0  0  0  0  0  0  0  0
    5.4492   26.5835   24.7904 C   0  0  0  0  0  0  0  0  0  0  0  0
   11.1034   26.5500   26.8121 C   0  0  0  0  0  0  0  0  0  0  0  0
    2.4874   28.5138   25.4434 N   0  0  0  0  0  0  0  0  0  0  0  0
    6.2268   26.2833   23.6851 C   0  0  0  0  0  0  0  0  0  0  0  0
    7.5733   26.6908   23.7363 O   0  0  0  0  0  0  0  0  0  0  0  0
    9.6406   23.7489   27.5793 C   0  0  0  0  0  0  0  0  0  0  0  0
    9.9652   25.9658   26.1274 C   0  0  0  0  0  0  0  0  0  0  0  0
    9.8586   23.7412   23.9052 C   0  0  0  0  0  0  0  0  0  0  0  0
    6.3811   24.3691   30.7346 C   0  0  0  0  0  0  0  0  0  0  0  0
    3.5681   25.6055   21.3505 O   0  0  0  0  0  0  0  0  0  0  0  0
    5.8012   26.1926   26.3120 Cl  0  0  0  0  0  0  0  0  0  0  0  0
    8.1413   23.8707   22.4039 C   0  0  0  0  0  0  0  0  0  0  0  0
    4.2357   26.0955   22.4208 C   0  0  0  0  0  0  0  0  0  0  0  0
    7.2978   23.4610   30.3085 N   0  0  0  0  0  0  0  0  0  0  0  0
    7.6058   23.7857   29.0334 C   0  0  0  0  0  0  0  0  0  0  0  0
    8.5822   21.5925   21.5029 O   0  0  0  0  0  0  0  0  0  0  0  0
    6.9709   24.9414   28.6600 C   0  0  0  0  0  0  0  0  0  0  0  0
   11.4316   27.8350   26.4578 O   0  0  0  0  0  0  0  0  0  0  0  0
    5.5881   25.8218   22.5449 C   0  0  0  0  0  0  0  0  0  0  0  0
    8.7182   21.7122   28.7174 O   0  0  0  0  0  0  0  0  0  0  0  0
    5.6725   24.4045   31.9414 C   0  0  0  0  0  0  0  0  0  0  0  0
    4.7376   25.4778   32.0981 C   0  0  0  0  0  0  0  0  0  0  0  0
    3.8263   28.2304   25.5077 C   0  0  0  0  0  0  0  0  0  0  0  0
    8.6087   25.8516   24.0883 C   0  0  0  0  0  0  0  0  0  0  0  0
   11.8297   25.9186   27.6212 O   0  0  0  0  0  0  0  0  0  0  0  0
    9.8310   22.5199   23.2840 C   0  0  0  0  0  0  0  0  0  0  0  0
    6.1884   25.3307   29.7151 C   0  0  0  0  0  0  0  0  0  0  0  0
    9.0730   24.9177   26.6964 C   0  0  0  0  0  0  0  0  0  0  0  0
   10.6287   28.5588   25.5095 C   0  0  0  0  0  0  0  0  0  0  0  0
    4.6055   26.4276   31.1159 C   0  0  0  0  0  0  0  0  0  0  0  0
    4.2546   27.2319   24.5135 C   0  0  0  0  0  0  0  0  0  0  0  0
    8.7886   24.5678   23.4789 C   0  0  0  0  0  0  0  0  0  0  0  0
  1  7  1  0
  1 36  1  0
  2 20  1  0
  2 38  2  0
  3 34  2  0
  3 37  1  0
  4 19  1  0
  4 23  2  0
  4 33  1  0
  5 13  1  0
  5 22  1  0
  5 27  1  0
  6 33  1  0
  7 14  1  0
  7 31  1  0
  8 11  1  0
  8 18  1  0
  8 38  1  0
  9 14  1  0
  9 25  1  0
  9 32  2  0
 10 30  1  0
 11 12  1  0
 11 26  1  0
 12 31  1  0
 13 35  1  0
 14 35  1  0
 15 33  1  0
 15 39  1  0
 16 21  1  0
 16 28  2  0
 16 34  1  0
 17 20  2  0
 19 39  1  0
 20 26  1  0
 21 22  1  0
 22 24  1  0
 24 34  1  0
 25 36  1  0
 28 29  1  0
 29 37  2  0
 30 38  1  0
 31 39  1  0
M  END
>  <ID>  (1) 
conformer_0

$$$$
