
     RDKit          3D

 27 28  0  0  0  0  0  0  0  0999 V2000
    8.6594   22.1196   21.6682 O   0  0  0  0  0  0  0  0  0  0  0  0
    9.8637   23.5330   27.4989 C   0  0  0  0  0  0  0  0  0  0  0  0
    3.6987   27.2987   27.8366 O   0  0  0  0  0  0  0  0  0  0  0  0
    4.6159   27.1581   23.9126 C   0  0  0  0  0  0  0  0  0  0  0  0
    6.7044   25.6847   24.8046 C   0  0  0  0  0  0  0  0  0  0  0  0
    5.5570   26.8049   22.9853 N   0  0  0  0  0  0  0  0  0  0  0  0
    9.3911   22.5556   22.5936 C   0  0  0  0  0  0  0  0  0  0  0  0
    9.1726   23.9730   22.9458 C   0  0  0  0  0  0  0  0  0  0  0  0
    4.7157   26.8792   25.1822 N   0  0  0  0  0  0  0  0  0  0  0  0
    5.4925   25.6907   27.1384 C   0  0  0  0  0  0  0  0  0  0  0  0
    9.0416   20.8534   29.8741 O   0  0  0  0  0  0  0  0  0  0  0  0
    9.6445   23.7050   26.1738 N   0  0  0  0  0  0  0  0  0  0  0  0
    6.5267   26.1309   23.4495 C   0  0  0  0  0  0  0  0  0  0  0  0
    9.4725   22.0626   29.6625 C   0  0  0  0  0  0  0  0  0  0  0  0
    5.6305   24.5418   29.1549 C   0  0  0  0  0  0  0  0  0  0  0  0
    4.5795   26.3047   28.0274 C   0  0  0  0  0  0  0  0  0  0  0  0
   10.0908   21.7774   23.2808 O   0  0  0  0  0  0  0  0  0  0  0  0
    6.0847   24.6360   27.8052 C   0  0  0  0  0  0  0  0  0  0  0  0
    8.8229   22.7041   28.3361 C   0  0  0  0  0  0  0  0  0  0  0  0
    7.8429   24.8623   25.0748 C   0  0  0  0  0  0  0  0  0  0  0  0
    8.8301   24.2035   25.3666 C   0  0  0  0  0  0  0  0  0  0  0  0
    4.6521   25.6206   29.3257 O   0  0  0  0  0  0  0  0  0  0  0  0
    2.6517   28.0764   24.4862 N   0  0  0  0  0  0  0  0  0  0  0  0
    3.4624   27.8943   23.4475 N   0  0  0  0  0  0  0  0  0  0  0  0
   10.1307   22.7879   30.4435 O   0  0  0  0  0  0  0  0  0  0  0  0
    8.6383   24.3031   24.1671 C   0  0  0  0  0  0  0  0  0  0  0  0
    5.6531   26.0839   25.7407 C   0  0  0  0  0  0  0  0  0  0  0  0
  1  7  2  0
  2 12  1  0
  2 19  1  0
  3 16  2  0
  4  6  1  0
  4  9  2  0
  4 24  1  0
  5 13  1  0
  5 20  2  0
  5 27  1  0
  6 13  1  0
  7  8  1  0
  7 17  1  0
  8 26  1  0
  9 27  1  0
 10 16  1  0
 10 18  1  0
 10 27  1  0
 11 14  2  0
 12 21  1  0
 14 19  1  0
 14 25  1  0
 15 18  1  0
 15 22  1  0
 16 22  1  0
 20 21  2  0
 21 26  1  0
 23 24  1  0
M  END
>  <ID>  (1) 
conformer_0

$$$$
