
     RDKit          3D

 26 28  0  0  0  0  0  0  0  0999 V2000
    9.3822   23.1644   25.5231 C   0  0  0  0  0  0  0  0  0  0  0  0
    9.4011   22.7654   22.8952 C   0  0  0  0  0  0  0  0  0  0  0  0
    7.0289   24.4044   28.2769 C   0  0  0  0  0  0  0  0  0  0  0  0
    4.0069   26.1926   22.3016 C   0  0  0  0  0  0  0  0  0  0  0  0
    3.3875   27.1023   23.0225 N   0  0  0  0  0  0  0  0  0  0  0  0
    7.1173   26.3030   25.1492 N   0  0  0  0  0  0  0  0  0  0  0  0
    3.8583   24.6914   31.1895 C   0  0  0  0  0  0  0  0  0  0  0  0
    8.1201   24.6028   23.9668 C   0  0  0  0  0  0  0  0  0  0  0  0
    7.2335   24.8481   29.7508 C   0  0  0  0  0  0  0  0  0  0  0  0
    6.0716   24.2038   30.4427 O   0  0  0  0  0  0  0  0  0  0  0  0
    9.2678   23.5975   24.1124 C   0  0  0  0  0  0  0  0  0  0  0  0
    5.1564   25.6113   22.2371 N   0  0  0  0  0  0  0  0  0  0  0  0
   10.5022   22.6264   26.0442 O   0  0  0  0  0  0  0  0  0  0  0  0
    8.2812   23.7647   27.7039 C   0  0  0  0  0  0  0  0  0  0  0  0
    7.3171   24.8307   22.9430 N   0  0  0  0  0  0  0  0  0  0  0  0
    7.9163   25.2322   25.1136 N   0  0  0  0  0  0  0  0  0  0  0  0
    3.9447   27.6415   24.1268 C   0  0  0  0  0  0  0  0  0  0  0  0
    9.7562   25.3652   26.7174 O   0  0  0  0  0  0  0  0  0  0  0  0
    8.5250   22.4181   27.9706 O   0  0  0  0  0  0  0  0  0  0  0  0
   10.2125   21.6468   23.3999 O   0  0  0  0  0  0  0  0  0  0  0  0
    6.1281   26.4234   24.2449 C   0  0  0  0  0  0  0  0  0  0  0  0
    8.7518   24.3978   26.3504 C   0  0  0  0  0  0  0  0  0  0  0  0
    4.8926   25.0806   30.0571 C   0  0  0  0  0  0  0  0  0  0  0  0
    5.1406   27.2637   24.4924 C   0  0  0  0  0  0  0  0  0  0  0  0
    6.2087   25.5856   23.0899 C   0  0  0  0  0  0  0  0  0  0  0  0
    3.2804   28.4965   24.8800 N   0  0  0  0  0  0  0  0  0  0  0  0
  1 11  1  0
  1 13  1  0
  1 22  1  0
  2 11  1  0
  2 20  1  0
  3  9  1  0
  3 14  1  0
  4  5  1  0
  4 12  2  0
  5 17  1  0
  6 16  1  0
  6 21  1  0
  7 23  1  0
  8 11  1  0
  8 15  2  0
  8 16  1  0
  9 10  1  0
 10 23  1  0
 12 25  1  0
 14 19  1  0
 14 22  1  0
 15 25  1  0
 16 22  1  0
 17 24  1  0
 17 26  2  0
 18 22  1  0
 21 24  2  0
 21 25  1  0
M  END
>  <ID>  (1) 
conformer_0

$$$$
