
     RDKit          3D

 23 24  0  0  0  0  0  0  0  0999 V2000
    6.5551   26.5938   24.5491 C   0  0  0  0  0  0  0  0  0  0  0  0
    8.7129   23.8009   24.6462 C   0  0  0  0  0  0  0  0  0  0  0  0
    7.0241   24.4559   27.9853 C   0  0  0  0  0  0  0  0  0  0  0  0
    3.4376   27.1637   22.8075 O   0  0  0  0  0  0  0  0  0  0  0  0
    6.3634   23.9701   30.6797 O   0  0  0  0  0  0  0  0  0  0  0  0
    3.5166   28.5776   25.1582 N   0  0  0  0  0  0  0  0  0  0  0  0
    5.6603   24.7623   29.9404 C   0  0  0  0  0  0  0  0  0  0  0  0
    9.0798   22.9961   26.8901 O   0  0  0  0  0  0  0  0  0  0  0  0
    8.7122   24.1117   26.1540 C   0  0  0  0  0  0  0  0  0  0  0  0
    4.6136   26.6560   23.1312 C   0  0  0  0  0  0  0  0  0  0  0  0
    4.3388   24.9295   30.4490 C   0  0  0  0  0  0  0  0  0  0  0  0
    6.4429   25.1589   22.6312 C   0  0  0  0  0  0  0  0  0  0  0  0
    7.1477   25.6205   23.7316 C   0  0  0  0  0  0  0  0  0  0  0  0
    8.4673   25.0302   23.8571 C   0  0  0  0  0  0  0  0  0  0  0  0
    6.0225   25.3142   28.6513 O   0  0  0  0  0  0  0  0  0  0  0  0
    7.1632   27.1119   25.7303 C   0  0  0  0  0  0  0  0  0  0  0  0
    5.1825   25.6568   22.3396 C   0  0  0  0  0  0  0  0  0  0  0  0
    9.8184   21.9965   23.4829 O   0  0  0  0  0  0  0  0  0  0  0  0
    9.8732   22.9191   24.4706 N   0  0  0  0  0  0  0  0  0  0  0  0
    4.7287   28.1782   25.1350 C   0  0  0  0  0  0  0  0  0  0  0  0
    7.8208   25.0435   26.8469 C   0  0  0  0  0  0  0  0  0  0  0  0
    7.7305   26.4652   26.7368 C   0  0  0  0  0  0  0  0  0  0  0  0
    5.2954   27.1516   24.2821 C   0  0  0  0  0  0  0  0  0  0  0  0
  1 13  2  0
  1 16  1  0
  1 23  1  0
  2  9  1  0
  2 14  1  0
  2 19  1  0
  3 15  1  0
  3 21  2  3
  4 10  1  0
  5  7  2  0
  6 20  2  0
  7 11  1  0
  7 15  1  0
  8  9  1  0
  9 21  1  0
 10 17  1  0
 10 23  2  0
 12 13  1  0
 12 17  2  0
 13 14  1  0
 16 22  2  0
 18 19  1  0
 20 23  1  0
 21 22  1  0
M  END
>  <ID>  (1) 
conformer_0

$$$$
