
     RDKit          3D

 24 25  0  0  0  0  0  0  0  0999 V2000
    3.9474   26.1145   22.4698 C   0  0  0  0  0  0  0  0  0  0  0  0
    8.8341   22.9826   28.1586 C   0  0  0  0  0  0  0  0  0  0  0  0
    4.5980   26.4407   23.7232 N   0  0  0  0  0  0  0  0  0  0  0  0
    5.0204   26.4595   28.3526 C   0  0  0  0  0  0  0  0  0  0  0  0
    9.7535   22.9065   27.1480 N   0  0  0  0  0  0  0  0  0  0  0  0
    5.7599   25.9627   24.2387 C   0  0  0  0  0  0  0  0  0  0  0  0
    8.1198   24.2699   28.2486 C   0  0  0  0  0  0  0  0  0  0  0  0
    7.7691   24.2383   24.0416 C   0  0  0  0  0  0  0  0  0  0  0  0
    8.3856   21.8648   28.6086 N   0  0  0  0  0  0  0  0  0  0  0  0
    9.9599   22.0338   23.8962 O   0  0  0  0  0  0  0  0  0  0  0  0
    4.2505   27.1374   27.2137 C   0  0  0  0  0  0  0  0  0  0  0  0
    5.8509   26.3116   25.4928 N   0  0  0  0  0  0  0  0  0  0  0  0
    9.9240   22.2058   21.6609 O   0  0  0  0  0  0  0  0  0  0  0  0
    5.5759   24.8044   28.3878 C   0  0  0  0  0  0  0  0  0  0  0  0
    7.9180   24.2001   21.7844 C   0  0  0  0  0  0  0  0  0  0  0  0
   10.0321   24.1448   26.4080 C   0  0  0  0  0  0  0  0  0  0  0  0
    4.7016   26.9233   25.8053 C   0  0  0  0  0  3  0  0  0  0  0  0
    6.8407   25.1276   22.1311 C   0  0  0  0  0  0  0  0  0  0  0  0
    8.4495   23.6329   22.9871 C   0  0  0  0  0  0  0  0  0  0  0  0
    9.5031   22.5803   22.8635 C   0  0  0  0  0  0  0  0  0  0  0  0
    6.8910   24.1860   29.1715 C   0  0  0  0  0  0  0  0  0  0  0  0
    3.3615   28.2842   27.5453 C   0  0  0  0  0  0  0  0  0  0  0  0
    6.7882   25.1438   23.5643 C   0  0  0  0  0  0  0  0  0  0  0  0
    3.9767   27.1764   24.6860 N   0  0  0  0  0  0  0  0  0  0  0  0
  1  3  1  0
  2  5  1  0
  2  7  1  0
  2  9  2  0
  3  6  1  0
  3 24  1  0
  4 11  1  0
  4 14  1  0
  5 16  1  0
  6 12  2  0
  6 23  1  0
  7 21  1  0
  8 19  1  0
  8 23  1  0
 10 20  2  0
 11 17  1  0
 11 22  1  0
 12 17  1  0
 13 20  1  0
 14 21  1  0
 15 18  1  0
 15 19  1  0
 17 24  1  0
 18 23  1  0
 19 20  1  0
M  END
>  <ID>  (1) 
conformer_0

$$$$
