
     RDKit          3D

 23 26  0  0  0  0  0  0  0  0999 V2000
    8.2145   23.6331   23.0161 C   0  0  0  0  0  0  0  0  0  0  0  0
    9.3355   21.9842   21.5336 O   0  0  0  0  0  0  0  0  0  0  0  0
    7.8260   24.2422   24.2394 C   0  0  0  0  0  0  0  0  0  0  0  0
    6.5286   25.3218   24.0658 C   0  0  0  0  0  0  0  0  0  0  0  0
    5.0801   27.0190   25.7301 C   0  0  0  0  0  0  0  0  0  0  0  0
    4.4526   26.8422   23.5600 C   0  0  0  0  0  0  0  0  0  0  0  0
    8.3725   23.9350   25.4793 N   0  0  0  0  0  0  0  0  0  0  0  0
    5.7036   26.7762   26.8603 N   0  0  0  0  0  0  0  0  0  0  0  0
    4.3104   26.4076   22.2067 N   0  0  0  0  0  0  0  0  0  0  0  0
    6.3542   25.0767   22.6794 C   0  0  0  0  0  0  0  0  0  0  0  0
    5.0758   24.7063   29.7801 C   0  0  0  0  0  0  0  0  0  0  0  0
    5.8835   25.8642   27.8759 C   0  0  0  0  0  0  0  0  0  0  0  0
    7.3936   24.4558   29.0714 C   0  0  0  0  0  0  0  0  0  0  0  0
    3.6200   27.7988   24.1272 N   0  0  0  0  0  0  0  0  0  0  0  0
    9.9765   22.0505   23.6288 O   0  0  0  0  0  0  0  0  0  0  0  0
    5.3274   25.5305   21.7859 C   0  0  0  0  0  0  0  0  0  0  0  0
    9.2169   22.6058   22.6937 C   0  0  0  0  0  0  0  0  0  0  0  0
    5.4267   26.3335   24.4468 N   0  0  0  0  0  0  0  0  0  0  0  0
    7.1624   25.3173   28.0516 C   0  0  0  0  0  0  0  0  0  0  0  0
    6.3539   24.1452   29.9854 C   0  0  0  0  0  0  0  0  0  0  0  0
    4.8437   25.5594   28.7152 N   0  0  0  0  0  0  0  0  0  0  0  0
    7.3255   24.1994   22.0698 C   0  0  0  0  0  0  0  0  0  0  0  0
    4.0281   27.9162   25.4783 C   0  0  0  0  0  0  0  0  0  0  0  0
  1  3  2  0
  1 17  1  0
  1 22  1  0
  2 17  2  0
  3  4  1  0
  3  7  1  0
  4 10  1  0
  4 18  1  0
  5  8  2  3
  5 18  1  0
  5 23  1  0
  6  9  2  0
  6 14  1  0
  6 18  1  0
  8 12  1  0
  9 16  1  0
 10 16  2  0
 10 22  1  0
 11 20  2  0
 11 21  1  0
 12 19  1  0
 12 21  2  0
 13 19  2  0
 13 20  1  0
 14 23  1  0
 15 17  1  0
M  END
>  <ID>  (1) 
conformer_0

$$$$
