
     RDKit          3D

 27 29  0  0  0  0  0  0  0  0999 V2000
    7.5227   24.5183   23.9275 C   0  0  0  0  0  0  0  0  0  0  0  0
    9.4891   22.6102   23.3899 C   0  0  0  0  0  0  0  0  0  0  0  0
    6.3764   25.4831   23.7648 C   0  0  0  0  0  0  0  0  0  0  0  0
    5.7816   26.4225   24.5714 C   0  0  0  0  0  0  0  0  0  0  0  0
    8.3114   23.8795   25.0009 C   0  0  0  0  0  0  0  0  0  0  0  0
   10.0049   21.2603   21.8493 O   0  0  0  0  0  0  0  0  0  0  0  0
    2.5234   27.9069   24.8703 F   0  0  0  0  0  0  0  0  0  0  0  0
    8.7273   23.1421   22.3472 C   0  0  0  0  0  0  0  0  0  0  0  0
    3.7474   27.6972   25.3231 C   0  0  0  0  0  0  0  0  0  0  0  0
    7.8466   24.0316   22.6520 C   0  0  0  0  0  0  0  0  0  0  0  0
    8.9078   23.0874   27.2140 C   0  0  0  0  0  0  0  0  0  0  0  0
    3.7731   26.9532   26.4611 F   0  0  0  0  0  0  0  0  0  0  0  0
    3.9430   26.7291   23.0141 C   0  0  0  0  0  0  0  0  0  0  0  0
    4.3808   28.8181   25.6914 F   0  0  0  0  0  0  0  0  0  0  0  0
    6.5749   24.1804   28.9952 C   0  0  0  0  0  0  0  0  0  0  0  0
   10.4092   21.6465   23.1373 O   0  0  0  0  0  0  0  0  0  0  0  0
    4.5427   26.9544   24.2817 C   0  0  0  0  0  0  0  0  0  0  0  0
    9.3545   21.7406   29.3080 C   0  0  0  0  0  0  0  0  0  0  0  0
    6.9812   25.0656   26.7138 C   0  0  0  0  0  0  0  0  0  0  0  0
    9.3044   23.0609   24.6390 N   0  0  0  0  0  0  0  0  0  0  0  0
    5.6997   24.4307   30.1905 C   0  0  0  0  0  0  0  0  0  0  0  0
    8.0093   24.0097   26.4384 C   0  0  0  0  0  0  0  0  0  0  0  0
    8.3428   22.4524   28.4434 N   0  0  0  0  0  0  0  0  0  0  0  0
    4.6283   25.8797   22.1477 C   0  0  0  0  0  0  0  0  0  0  0  0
    7.9919   23.7562   29.2760 C   0  0  0  0  0  0  0  0  0  0  0  0
    6.3000   25.2844   28.0198 C   0  0  0  0  0  0  0  0  0  0  0  0
    5.7566   25.3555   22.5132 C   0  0  0  0  0  0  0  0  0  0  0  0
  1  3  1  0
  1  5  1  0
  1 10  1  0
  2  8  1  0
  2 16  1  0
  2 20  1  0
  3  4  1  0
  3 27  1  0
  4 17  2  0
  5 20  2  0
  5 22  1  0
  6 16  1  0
  7  9  1  0
  8 10  2  0
  9 12  1  0
  9 14  1  0
  9 17  1  0
 11 22  1  0
 11 23  1  0
 13 17  1  0
 13 24  1  0
 15 21  1  0
 15 25  1  0
 15 26  1  0
 18 23  1  0
 19 22  1  0
 19 26  1  0
 23 25  1  0
 24 27  2  0
M  END
>  <ID>  (1) 
conformer_0

$$$$
