
     RDKit          3D

 19 20  0  0  0  0  0  0  0  0999 V2000
    9.3861   23.2906   25.0781 O   0  0  0  0  0  0  0  0  0  0  0  0
    6.7896   25.2052   25.8500 C   0  0  0  0  0  0  0  0  0  0  0  0
    6.9843   25.2935   24.4160 N   0  0  0  0  0  0  0  0  0  0  0  0
    5.6886   25.9585   26.5498 C   0  0  0  0  0  0  0  0  0  0  0  0
    4.5837   28.1729   23.7087 O   0  0  0  0  0  0  0  0  0  0  0  0
    7.7765   24.3772   23.6346 C   0  0  0  0  0  0  0  0  0  0  0  0
    5.7658   24.5229   28.6940 C   0  0  0  0  0  0  0  0  0  0  0  0
    3.6933   27.5529   27.7186 C   0  0  0  0  0  0  0  0  0  0  0  0
    6.2314   26.3417   23.6440 C   0  0  0  0  0  0  0  0  0  0  0  0
    8.8554   23.4313   23.9303 C   0  0  0  0  0  0  0  0  0  0  0  0
    5.2468   25.6678   27.9127 C   0  0  0  0  0  0  0  0  0  0  0  0
    4.9667   24.3594   29.9862 C   0  0  0  0  0  0  0  0  0  0  0  0
    9.4379   22.6667   22.9079 N   0  0  0  0  0  0  0  0  0  0  0  0
   10.1353   21.5839   23.1923 O   0  0  0  0  0  0  0  0  0  0  0  0
    4.0803   27.7826   26.4028 C   0  0  0  0  0  0  0  0  0  0  0  0
    7.3025   24.2724   21.8846 S   0  0  0  0  0  0  0  0  0  0  0  0
    5.0313   26.9747   25.8034 C   0  0  0  0  0  0  0  0  0  0  0  0
    5.3195   27.1972   24.3723 C   0  0  0  0  0  0  0  0  0  0  0  0
    4.2597   26.5158   28.4520 C   0  0  0  0  0  0  0  0  0  0  0  0
  1 10  2  0
  2  3  1  0
  2  4  1  0
  3  6  1  0
  3  9  1  0
  4 11  2  0
  4 17  1  0
  5 18  1  0
  6 10  1  0
  6 16  2  0
  7 11  1  0
  7 12  1  0
  8 15  1  0
  8 19  2  0
  9 18  2  0
 10 13  1  0
 11 19  1  0
 13 14  1  0
 15 17  2  0
 17 18  1  0
M  END
>  <ID>  (1) 
conformer_0

$$$$
