
     RDKit          3D

 23 26  0  0  0  0  0  0  0  0999 V2000
    4.2213   27.7540   24.7905 C   0  0  0  0  0  0  0  0  0  0  0  0
    5.2660   25.5304   27.9405 C   0  0  0  0  0  0  0  0  0  0  0  0
    6.4422   23.9042   29.2725 C   0  0  0  0  0  0  0  0  0  0  0  0
   10.2065   21.9663   22.3956 O   0  0  0  0  0  0  0  0  0  0  0  0
    3.3473   26.8632   22.6892 C   0  0  0  0  0  0  0  0  0  0  0  0
   10.6209   21.0419   23.4007 O   0  0  0  0  0  0  0  0  0  0  0  0
    9.2574   23.1736   24.3041 C   0  0  0  0  0  0  0  0  0  0  0  0
    7.3307   24.5933   23.9198 C   0  0  0  0  0  0  0  0  0  0  0  0
    4.3675   25.9282   22.6184 C   0  0  0  0  0  0  0  0  0  0  0  0
    9.2276   22.8712   22.9299 C   0  0  0  0  0  0  0  0  0  0  0  0
    6.1947   25.3980   26.9000 C   0  0  0  0  0  0  0  0  0  0  0  0
    3.3475   27.7637   23.7752 C   0  0  0  0  0  0  0  0  0  0  0  0
    6.0178   26.0423   25.6284 C   0  0  0  0  0  0  0  0  0  0  0  0
    6.2712   25.4552   24.3360 C   0  0  0  0  0  0  0  0  0  0  0  0
    7.3723   24.2640   22.5617 C   0  0  0  0  0  0  0  0  0  0  0  0
    7.3065   24.5415   27.1173 C   0  0  0  0  0  0  0  0  0  0  0  0
    5.3408   25.7181   23.3657 C   0  0  0  0  0  0  0  0  0  0  0  0
    8.2866   24.0556   24.8063 C   0  0  0  0  0  0  0  0  0  0  0  0
    7.4411   23.8393   28.3042 C   0  0  0  0  0  0  0  0  0  0  0  0
    8.2949   24.3831   26.1643 O   0  0  0  0  0  0  0  0  0  0  0  0
    5.1805   27.2369   25.5484 C   0  0  0  0  0  0  0  0  0  0  0  0
    8.2991   23.3892   22.0494 C   0  0  0  0  0  0  0  0  0  0  0  0
    5.3361   24.7674   29.0976 C   0  0  0  0  0  0  0  0  0  0  0  0
  1 12  2  0
  1 21  2  0
  2 11  1  0
  2 23  2  0
  3 19  1  0
  3 23  1  0
  4  6  1  0
  4 10  1  0
  5  9  1  0
  5 12  1  0
  7 10  1  0
  7 18  2  0
  8 14  1  0
  8 15  2  0
  8 18  1  0
  9 17  2  0
 10 22  2  0
 11 13  1  0
 11 16  1  0
 13 14  1  0
 13 21  1  0
 14 17  2  0
 15 22  1  0
 16 19  2  0
 16 20  1  0
 18 20  1  0
M  END
>  <ID>  (1) 
conformer_0

$$$$
