
     RDKit          3D

 29 32  0  0  0  0  0  0  0  0999 V2000
    7.5251   26.1650   22.7526 C   0  0  0  0  0  0  0  0  0  0  0  0
    3.9619   25.1340   22.3878 C   0  0  0  0  0  0  0  0  0  0  0  0
    5.9131   25.1628   28.3866 C   0  0  0  0  0  0  0  0  0  0  0  0
    9.1931   23.8013   22.7144 C   0  0  0  0  0  0  0  0  0  0  0  0
    5.1775   24.7674   31.7856 C   0  0  0  0  0  0  0  0  0  0  0  0
    7.9018   24.4302   26.5910 C   0  0  0  0  0  0  0  0  0  0  0  0
    6.7330   24.1139   28.6461 N   0  0  0  0  0  0  0  0  0  0  0  0
    6.0720   25.8993   27.2339 C   0  0  0  0  0  0  0  0  0  0  0  0
   10.1156   22.6922   27.8314 O   0  0  0  0  0  0  0  0  0  0  0  0
    4.5997   24.3865   30.4345 C   0  0  0  0  0  0  0  0  0  0  0  0
    8.1904   25.7369   24.1012 C   0  0  0  0  0  0  0  0  0  0  0  0
    3.3112   24.1420   21.6868 O   0  0  0  0  0  0  0  0  0  0  0  0
    8.5360   24.2463   24.0615 C   0  0  0  0  0  0  0  0  0  0  0  0
    7.7786   23.7785   27.8407 C   0  0  0  0  0  0  0  0  0  0  0  0
    9.6687   22.3654   22.7076 C   0  0  0  0  0  0  0  0  0  0  0  0
    7.1166   25.5628   26.3832 C   0  0  0  0  0  0  0  0  0  0  0  0
    5.9968   26.2131   22.9707 C   0  0  0  0  0  0  0  0  0  0  0  0
    5.8704   28.2867   24.4020 O   0  0  0  0  0  0  0  0  0  0  0  0
    7.4613   26.5036   25.2104 C   0  0  0  0  0  0  0  0  0  0  0  0
    8.7623   22.7583   28.3033 C   0  0  0  0  0  0  0  0  0  0  0  0
    5.2522   27.2518   23.5889 C   0  0  0  0  0  0  0  0  0  0  0  0
    5.3268   25.0973   22.4748 C   0  0  0  0  0  0  0  0  0  0  0  0
    6.9010   27.9388   25.4323 C   0  0  0  0  0  0  0  0  0  0  0  0
    8.7369   23.8166   25.4710 C   0  0  0  0  0  0  0  0  0  0  0  0
    3.8811   27.3114   23.5015 C   0  0  0  0  0  0  0  0  0  0  0  0
   10.2043   21.7968   23.7029 O   0  0  0  0  0  0  0  0  0  0  0  0
    3.2313   26.2127   22.9055 C   0  0  0  0  0  0  0  0  0  0  0  0
    4.7816   25.6724   29.4225 S   0  0  0  0  0  0  0  0  0  0  0  0
    9.5250   21.6217   21.6562 O   0  0  0  0  0  0  0  0  0  0  0  0
  1 11  1  0
  1 17  1  0
  2 12  1  0
  2 22  2  0
  2 27  1  0
  3  7  2  0
  3  8  1  0
  3 28  1  0
  4 13  1  0
  4 15  1  0
  5 10  1  0
  6 14  1  0
  6 16  1  0
  6 24  2  0
  7 14  1  0
  8 16  2  0
  9 20  1  0
 10 28  1  0
 11 13  1  0
 11 19  1  0
 13 24  1  0
 14 20  1  0
 15 26  2  0
 15 29  1  0
 16 19  1  0
 17 21  1  0
 17 22  1  0
 18 21  1  0
 18 23  1  0
 19 23  1  0
 21 25  2  0
 25 27  1  0
M  END
>  <ID>  (1) 
conformer_0

$$$$
