
     RDKit          3D

 19 19  0  0  0  0  0  0  0  0999 V2000
    7.8248   23.9999   22.2504 C   0  0  0  0  0  0  0  0  0  0  0  0
    6.9971   23.4223   29.0099 O   0  0  0  0  0  0  0  0  0  0  0  0
    9.8398   21.9909   23.0735 O   0  0  0  0  0  0  0  0  0  0  0  0
    9.9941   23.0046   25.0407 O   0  0  0  0  0  0  0  0  0  0  0  0
    3.6346   27.6228   23.8119 N   0  0  0  0  0  0  0  0  0  0  0  0
    8.5885   21.8076   29.3228 O   0  0  0  0  0  0  0  0  0  0  0  0
    7.5482   24.9755   25.8768 C   0  0  0  0  0  0  0  0  0  0  0  0
    9.0443   23.6252   27.8227 C   0  0  0  0  0  0  0  0  0  0  0  0
    9.3932   22.9127   23.8939 C   0  0  0  0  0  0  0  0  0  0  0  0
    8.2025   22.9721   28.8415 C   0  0  0  0  0  0  0  0  0  0  0  0
    8.2920   23.8200   23.5820 C   0  0  0  0  0  0  0  0  0  0  0  0
    8.2173   24.6311   27.1138 O   0  0  0  0  0  0  0  0  0  0  0  0
    7.5182   24.6899   24.4058 C   0  0  0  0  0  0  0  0  0  0  0  0
    4.6130   26.8780   23.2770 C   0  0  0  0  0  0  0  0  0  0  0  0
    3.5417   27.7575   24.9377 C   0  0  0  0  0  0  0  0  0  0  0  0
    6.5863   25.3494   23.5737 C   0  0  0  0  0  0  0  0  0  0  0  0
    3.3093   28.0625   26.1978 N   0  0  0  0  0  0  0  0  0  0  0  0
    5.5853   26.2189   23.7444 C   0  0  0  0  0  0  0  0  0  0  0  0
    6.7905   24.9287   22.2417 C   0  0  0  0  0  0  0  0  0  0  0  0
  1 11  1  0
  1 19  1  0
  2 10  2  0
  3  9  2  0
  4  9  1  0
  5 14  1  0
  5 15  1  0
  6 10  1  0
  7 12  1  0
  7 13  1  0
  8 10  1  0
  8 12  1  0
  9 11  1  0
 11 13  1  0
 13 16  2  0
 14 18  2  3
 15 17  1  0
 16 18  1  0
 16 19  1  0
M  END
>  <ID>  (1) 
conformer_0

$$$$
