
     RDKit          3D

 22 25  0  0  0  0  0  0  0  0999 V2000
    4.8710   26.4854   26.8388 C   0  0  0  0  0  0  0  0  0  0  0  0
    8.5890   23.3481   26.4382 C   0  0  0  0  0  0  0  0  0  0  0  0
    5.7225   25.8453   24.6567 N   0  0  0  0  0  0  0  0  0  0  0  0
    9.7951   21.9048   23.7018 O   0  0  0  0  0  0  0  0  0  0  0  0
    4.6806   26.3791   22.5602 C   0  0  0  0  0  0  0  0  0  0  0  0
    8.1184   22.4158   29.1528 O   0  0  0  0  0  0  0  0  0  0  0  0
    3.7867   27.2030   23.2470 N   0  0  0  0  0  0  0  0  0  0  0  0
    7.7170   24.5438   24.6028 C   0  0  0  0  0  0  0  0  0  0  0  0
    6.6557   24.8119   26.7345 C   0  0  0  0  0  0  0  0  0  0  0  0
    5.6732   25.4515   27.5075 C   0  0  0  0  0  0  0  0  0  0  0  0
    7.5509   23.8534   27.2866 C   0  0  0  0  0  0  0  0  0  0  0  0
    3.0230   28.1570   25.1842 O   0  0  0  0  0  0  0  0  0  0  0  0
    3.8505   27.3565   24.6010 C   0  0  0  0  0  0  0  0  0  0  0  0
    9.4864   23.8917   22.7810 O   0  0  0  0  0  0  0  0  0  0  0  0
    9.4214   23.0636   23.8540 C   0  0  0  0  0  0  0  0  0  0  0  0
    8.6263   23.6236   25.0150 C   0  0  0  0  0  0  0  0  0  0  0  0
    4.7942   26.6064   25.3949 C   0  0  0  0  0  0  0  0  0  0  0  0
    5.4957   25.0703   28.8734 C   0  0  0  0  0  0  0  0  0  0  0  0
    6.3568   24.0239   29.3948 C   0  0  0  0  0  0  0  0  0  0  0  0
    7.3495   23.4372   28.6269 C   0  0  0  0  0  0  0  0  0  0  0  0
    5.6376   25.7530   23.2478 C   0  0  0  0  0  0  0  0  0  0  0  0
    6.7194   25.0882   25.3500 C   0  0  0  0  0  0  0  0  0  0  0  0
  1 10  1  0
  1 17  2  0
  2 11  1  0
  2 16  2  0
  3 17  1  0
  3 21  1  0
  3 22  1  0
  4 15  2  0
  5  7  1  0
  5 21  2  0
  6 20  1  0
  7 13  1  0
  8 16  1  0
  8 22  2  0
  9 10  2  0
  9 11  1  0
  9 22  1  0
 10 18  1  0
 11 20  1  0
 12 13  2  0
 13 17  1  0
 14 15  1  0
 15 16  1  0
 18 19  1  0
 19 20  2  0
M  END
>  <ID>  (1) 
conformer_0

$$$$
