
     RDKit          3D

 21 22  0  0  0  0  0  0  0  0999 V2000
    9.1577   22.8349   23.5010 C   0  0  0  0  0  0  0  0  0  0  0  0
    6.4932   24.2802   28.4260 C   0  0  0  0  0  0  0  0  0  0  0  0
    9.9929   21.7819   23.3734 O   0  0  0  0  0  0  0  0  0  0  0  0
    8.4589   23.3286   22.3637 C   0  0  0  0  0  0  0  0  0  0  0  0
    6.7546   25.3225   27.2565 C   0  0  0  0  0  0  0  0  0  0  0  0
    7.4748   24.3220   22.5929 C   0  0  0  0  0  0  0  0  0  0  0  0
    7.7000   23.3505   28.2621 O   0  0  0  0  0  0  0  0  0  0  0  0
    5.2344   26.3174   23.0918 C   0  0  0  0  0  0  0  0  0  0  0  0
    5.5221   25.8562   21.8466 N   0  0  0  0  0  0  0  0  0  0  0  0
    3.6868   27.8071   24.3690 C   0  0  0  0  0  0  0  0  0  0  0  0
    4.1126   27.1650   23.1597 C   0  0  0  0  0  0  0  0  0  0  0  0
    7.6439   24.8742   26.2417 N   0  0  0  0  0  0  0  0  0  0  0  0
    8.9322   23.3888   24.7355 C   0  0  0  0  0  0  0  0  0  0  0  0
    5.5743   26.6220   25.3692 C   0  0  0  0  0  0  0  0  0  0  0  0
    6.6877   26.6012   27.9153 O   0  0  0  0  0  0  0  0  0  0  0  0
    5.0206   24.3264   30.6922 C   0  0  0  0  0  0  0  0  0  0  0  0
    7.1394   24.8868   23.8730 C   0  0  0  0  0  0  0  0  0  0  0  0
    5.3631   24.9042   29.3441 C   0  0  0  0  0  0  0  0  0  0  0  0
    4.4880   27.5117   25.4887 C   0  0  0  0  0  0  0  0  0  0  0  0
    6.0463   25.9128   24.2207 C   0  0  0  0  0  0  0  0  0  0  0  0
    7.9320   24.3724   24.9529 C   0  0  0  0  0  0  0  0  0  0  0  0
  1  3  1  0
  1  4  2  0
  1 13  1  0
  2  5  1  0
  2  7  1  0
  2 18  2  3
  4  6  1  0
  5 12  1  0
  5 15  2  0
  6 17  2  0
  8  9  1  0
  8 11  2  0
  8 20  1  0
 10 11  1  0
 10 19  1  0
 12 21  1  0
 13 21  2  0
 14 19  2  0
 14 20  1  0
 16 18  1  0
 17 20  1  0
 17 21  1  0
M  END
>  <ID>  (1) 
conformer_0

$$$$
