
     RDKit          3D

 23 25  0  0  0  0  0  0  0  0999 V2000
    6.8867   24.9190   21.8568 C   0  0  0  0  0  0  0  0  0  0  0  0
    4.6986   26.0250   29.1228 C   0  0  0  0  0  0  0  0  0  0  0  0
    6.1955   25.7519   22.5857 C   0  0  0  0  0  0  0  0  0  0  0  0
    5.0173   26.8818   26.0149 C   0  0  0  0  0  0  0  0  0  0  0  0
    5.5377   24.0759   29.7147 N   0  0  0  0  0  0  0  0  0  0  0  0
    5.6706   25.6605   28.1647 C   0  0  0  0  0  0  0  0  0  0  0  0
    6.2399   25.8739   23.9939 C   0  0  0  0  0  0  0  0  0  0  0  0
    5.3604   26.5863   21.9488 N   0  0  0  0  0  0  0  0  0  0  0  0
    3.6142   27.4920   23.8051 S   0  0  0  0  0  0  0  0  0  0  0  0
   10.0599   22.1643   24.0929 O   0  0  0  0  0  0  0  0  0  0  0  0
    3.7219   28.0584   27.8540 C   0  0  0  0  0  0  0  0  0  0  0  0
    7.8117   23.9737   21.9925 C   0  0  0  0  0  0  0  0  0  0  0  0
    6.2790   24.4400   28.6082 C   0  0  0  0  0  0  0  0  0  0  0  0
    5.9343   26.1102   26.8465 C   0  0  0  0  0  0  0  0  0  0  0  0
    9.4109   22.4762   23.0625 C   0  0  0  0  0  0  0  0  0  0  0  0
    5.1545   26.7359   24.5524 C   0  0  0  0  0  0  0  0  0  0  0  0
    3.7835   27.5791   26.5345 C   0  0  0  0  0  0  0  0  0  0  0  0
    7.2363   25.1525   24.6527 C   0  0  0  0  0  0  0  0  0  0  0  0
    8.1159   24.2045   24.3424 C   0  0  0  0  0  0  0  0  0  0  0  0
    9.5767   21.7073   21.9919 O   0  0  0  0  0  0  0  0  0  0  0  0
    4.6762   25.0966   30.1050 N   0  0  0  0  0  0  0  0  0  0  0  0
    8.4356   23.5656   23.1480 C   0  0  0  0  0  0  0  0  0  0  0  0
    3.8843   27.1813   29.0150 C   0  0  0  0  0  0  0  0  0  0  0  0
  1  3  2  0
  1 12  1  0
  2  6  1  0
  2 21  1  0
  2 23  2  0
  3  7  1  0
  3  8  1  0
  4 14  1  0
  4 16  1  0
  4 17  1  0
  5 13  1  0
  5 21  1  0
  6 13  1  0
  6 14  1  0
  7 16  2  3
  7 18  1  0
  9 16  1  0
 10 15  2  0
 11 17  1  0
 11 23  1  0
 12 22  2  0
 15 20  1  0
 15 22  1  0
 18 19  2  0
 19 22  1  0
M  END
>  <ID>  (1) 
conformer_0

$$$$
