
     RDKit          3D

 24 26  0  0  0  0  0  0  0  0999 V2000
    7.2062   23.7527   29.0757 O   0  0  0  0  0  0  0  0  0  0  0  0
    8.6200   23.4540   27.1139 C   0  0  0  0  0  0  0  0  0  0  0  0
    7.0575   25.0087   22.5126 C   0  0  0  0  0  0  0  0  0  0  0  0
    8.3564   21.7830   28.8154 O   0  0  0  0  0  0  0  0  0  0  0  0
    7.5926   24.8380   25.2862 C   0  0  0  0  0  0  0  0  0  0  0  0
    5.6287   26.3700   25.7064 C   0  0  0  0  0  0  0  0  0  0  0  0
    3.6219   27.7262   26.1126 C   0  0  0  0  0  0  0  0  0  0  0  0
    6.5010   25.6859   24.8071 C   0  0  0  0  0  0  0  0  0  0  0  0
    6.2661   25.7808   23.4071 C   0  0  0  0  0  0  0  0  0  0  0  0
    4.8835   26.8407   27.9890 C   0  0  0  0  0  0  0  0  0  0  0  0
    8.1066   24.1158   23.0592 C   0  0  0  0  0  0  0  0  0  0  0  0
    5.7799   26.3026   27.1083 C   0  0  0  0  0  0  0  0  0  0  0  0
    4.2914   27.2979   23.7790 C   0  0  0  0  0  0  0  0  0  0  0  0
    3.7788   27.5652   27.5018 C   0  0  0  0  0  0  0  0  0  0  0  0
    5.1978   26.6434   22.9125 N   0  0  0  0  0  0  0  0  0  0  0  0
    9.3983   22.5569   21.5716 O   0  0  0  0  0  0  0  0  0  0  0  0
    9.9999   21.9473   23.6218 O   0  0  0  0  0  0  0  0  0  0  0  0
    8.2844   24.1525   24.3735 C   0  0  0  0  0  0  0  0  0  0  0  0
    9.3118   22.7955   22.7815 C   0  0  0  0  0  0  0  0  0  0  0  0
    8.1302   23.0031   28.4195 C   0  0  0  0  0  0  0  0  0  0  0  0
    3.2780   27.9016   23.3921 O   0  0  0  0  0  0  0  0  0  0  0  0
    7.9707   24.6658   26.6396 N   0  0  0  0  0  0  0  0  0  0  0  0
    4.5265   27.1368   25.2108 C   0  0  0  0  0  0  0  0  0  0  0  0
   10.1262   23.2637   26.9021 C   0  0  0  0  0  0  0  0  0  0  0  0
  1 20  2  0
  2 20  1  0
  2 22  1  0
  2 24  1  0
  3  9  2  0
  3 11  1  0
  4 20  1  0
  5  8  2  0
  5 18  1  0
  5 22  1  0
  6  8  1  0
  6 12  1  0
  6 23  1  0
  7 14  1  0
  7 23  2  0
  8  9  1  0
  9 15  1  0
 10 12  2  0
 10 14  1  0
 11 18  2  0
 11 19  1  0
 13 15  1  0
 13 21  2  0
 13 23  1  0
 16 19  2  0
 17 19  1  0
M  END
>  <ID>  (1) 
conformer_0

$$$$
