
     RDKit          3D

 31 32  0  0  0  0  0  0  0  0999 V2000
    9.3980   23.2321   24.5836 C   0  0  0  0  0  0  0  0  0  0  0  0
    9.9322   22.0266   22.6590 O   0  0  0  0  0  0  0  0  0  0  0  0
    9.5007   22.3076   28.1230 O   0  0  0  0  0  0  0  0  0  0  0  0
    7.5166   24.7811   23.1324 C   0  0  0  0  0  0  0  0  0  0  0  0
    3.5542   26.2714   22.9222 C   0  0  0  0  0  0  0  0  0  0  0  0
    8.1011   25.2114   24.3679 C   0  0  0  0  0  0  0  0  0  0  0  0
    9.1483   21.9778   29.4802 C   0  0  0  0  0  0  0  0  0  0  0  0
    9.1978   23.0102   23.2543 C   0  0  0  0  0  0  0  0  0  0  0  0
    8.5051   24.4027   26.5811 N   0  0  0  0  0  0  0  0  0  0  0  0
    4.4648   24.6537   30.7533 C   0  0  0  0  0  0  0  0  0  0  0  0
    8.6194   26.2128   28.1188 O   0  0  0  0  0  1  0  0  0  0  0  0
    8.6001   23.3439   27.5709 C   0  0  0  0  0  0  0  0  0  0  0  0
    2.9383   24.0947   22.1607 F   0  0  0  0  0  0  0  0  0  0  0  0
    4.5497   27.1976   23.1471 C   0  0  0  0  0  0  0  0  0  0  0  0
    8.7104   24.2857   25.2104 C   0  0  0  0  0  0  0  0  0  0  0  0
    8.2258   23.7119   22.5146 C   0  0  0  0  0  0  0  0  0  0  0  0
    6.2367   25.4395   22.8629 C   0  0  0  0  0  0  0  0  0  0  0  0
    5.3361   26.8426   27.9139 C   0  0  0  0  0  0  0  0  0  0  0  0
    2.2273   26.5105   22.9719 F   0  0  0  0  0  0  0  0  0  0  0  0
    5.8758   26.7985   23.1068 C   0  0  0  0  0  0  0  0  0  0  0  0
    7.7380   28.5107   26.2071 C   0  0  0  0  0  0  0  0  0  0  0  0
    7.9082   27.0517   25.9992 N   0  0  0  0  0  0  0  0  0  0  0  0
    6.2007   25.6189   27.1479 C   0  0  0  0  0  0  0  0  0  0  0  0
    5.2325   24.5996   22.4997 C   0  0  0  0  0  0  0  0  0  0  0  0
    9.7599   20.8426   30.0694 C   0  0  0  0  0  0  0  0  0  0  0  0
    8.0843   26.6790   24.6227 C   0  0  0  0  0  0  0  0  0  0  0  0
    4.2847   26.0247   28.7367 C   0  0  0  0  0  0  0  0  0  0  0  0
    4.6318   26.0171   30.2152 C   0  0  0  0  0  0  0  0  0  0  0  0
    7.8753   25.8671   27.0427 S   0  0  0  0  0  3  0  0  0  0  0  0
    3.9373   25.0156   22.5666 C   0  0  0  0  0  0  0  0  0  0  0  0
    9.1609   29.1437   26.1173 C   0  0  0  0  0  0  0  0  0  0  0  0
  1  8  2  0
  1 15  1  0
  2  8  1  0
  3  7  1  0
  3 12  1  0
  4  6  1  0
  4 16  1  0
  4 17  1  0
  5 14  2  0
  5 19  1  0
  5 30  1  0
  6 15  1  0
  6 26  1  0
  7 25  1  0
  8 16  1  0
  9 12  1  0
  9 15  1  0
 10 28  1  0
 11 29  2  0
 13 30  1  0
 14 20  1  0
 17 20  2  0
 17 24  1  0
 18 23  1  0
 18 27  1  0
 21 22  1  0
 21 31  1  0
 22 26  1  0
 22 29  1  0
 23 29  1  0
 24 30  2  0
 27 28  1  0
M  END
>  <ID>  (1) 
conformer_0

$$$$
