
     RDKit          3D

 24 26  0  0  0  0  0  0  0  0999 V2000
    4.8722   26.5887   24.2726 C   0  0  0  0  0  0  0  0  0  0  0  0
    7.5177   24.3939   28.6681 O   0  0  0  0  0  0  0  0  0  0  0  0
    2.9799   28.0534   24.7136 O   0  0  0  0  0  0  0  0  0  0  0  0
    4.4699   26.6937   22.9554 C   0  0  0  0  0  0  0  0  0  0  0  0
    4.0317   27.3836   25.2464 C   0  0  0  0  0  0  0  0  0  0  0  0
    6.4196   25.5233   26.0134 N   0  0  0  0  0  0  0  0  0  0  0  0
    6.0076   25.7621   24.6342 C   0  0  0  0  0  0  0  0  0  0  0  0
    5.9685   25.7603   27.3106 C   0  0  0  0  0  0  0  0  0  0  0  0
    3.1080   27.7587   27.5401 C   0  0  0  0  0  0  0  0  0  0  0  0
    6.7543   25.1252   23.5477 C   0  0  0  0  0  0  0  0  0  0  0  0
    7.8979   24.1694   23.5931 C   0  0  0  0  0  0  0  0  0  0  0  0
    5.2100   26.0892   21.9400 N   0  0  0  0  0  0  0  0  0  0  0  0
    4.2374   27.3866   26.6414 N   0  0  0  0  0  0  0  0  0  0  0  0
    9.3323   22.5754   22.6707 C   0  0  0  0  0  0  0  0  0  0  0  0
    6.0797   24.4038   31.0871 C   0  0  0  0  0  0  0  0  0  0  0  0
    5.4001   27.1209   27.4279 O   0  0  0  0  0  0  0  0  0  0  0  0
    8.8743   23.5798   24.5545 C   0  0  0  0  0  0  0  0  0  0  0  0
    5.4650   25.0245   29.8159 C   0  0  0  0  0  0  0  0  0  0  0  0
    9.6716   22.5968   23.9797 N   0  0  0  0  0  0  0  0  0  0  0  0
    6.2631   25.3912   22.2855 C   0  0  0  0  0  0  0  0  0  0  0  0
    6.3662   25.1441   28.5955 C   0  0  0  0  0  0  0  0  0  0  0  0
    9.9275   21.7586   21.7513 N   0  0  0  0  0  0  0  0  0  0  0  0
    9.2903   23.8157   26.1578 S   0  0  0  0  0  0  0  0  0  0  0  0
    8.2983   23.4698   22.4409 N   0  0  0  0  0  0  0  0  0  0  0  0
  1  4  2  0
  1  5  1  0
  1  7  1  0
  2 21  1  0
  3  5  2  0
  4 12  1  0
  5 13  1  0
  6  7  1  0
  6  8  1  0
  7 10  2  0
  8 16  1  0
  8 21  1  0
  9 13  1  0
 10 11  1  0
 10 20  1  0
 11 17  1  0
 11 24  1  0
 12 20  2  0
 13 16  1  0
 14 19  1  0
 14 22  2  0
 14 24  1  0
 15 18  1  0
 17 19  1  0
 17 23  2  0
 18 21  1  0
M  END
>  <ID>  (1) 
conformer_0

$$$$
