
     RDKit          3D

 35 39  0  0  0  0  0  0  0  0999 V2000
    5.0518   27.7232   23.0130 N   0  0  0  0  0  0  0  0  0  0  0  0
    3.7077   25.3486   21.8556 C   0  0  0  0  0  0  0  0  0  0  0  0
    8.3569   24.1964   22.5943 N   0  0  0  0  0  0  0  0  0  0  0  0
    8.0859   23.5573   28.3362 C   0  0  0  0  0  0  0  0  0  0  0  0
    9.8703   22.2639   22.1585 N   0  0  0  0  0  0  0  0  0  0  0  0
    9.4517   24.2662   25.0014 C   0  0  0  0  0  0  0  0  0  0  0  0
    8.6524   24.5950   27.4220 C   0  0  0  0  0  0  0  0  0  0  0  0
    3.8895   23.2810   22.9250 C   0  0  0  0  0  0  0  0  0  0  0  0
    7.4765   28.1669   27.1616 C   0  0  0  0  0  0  0  0  0  0  0  0
    3.8609   28.5418   24.8272 O   0  0  0  0  0  0  0  0  0  0  0  0
    4.9061   24.1025   23.3819 C   0  0  0  0  0  0  0  0  0  0  0  0
    9.6750   24.1739   26.4275 C   0  0  0  0  0  0  0  0  0  0  0  0
    3.1045   24.0456   21.9982 C   0  0  0  0  0  0  0  0  0  0  0  0
    7.1261   27.2227   24.5160 C   0  0  0  0  0  0  0  0  0  0  0  0
    9.7318   23.2001   24.2030 O   0  0  0  0  0  0  0  0  0  0  0  0
    6.8952   26.3461   23.4589 C   0  0  0  0  0  0  0  0  0  0  0  0
    8.4157   26.7876   25.1985 C   0  0  0  0  0  0  0  0  0  0  0  0
    4.9034   24.4686   30.1312 F   0  0  0  0  0  0  0  0  0  0  0  0
   10.2070   22.0827   28.5953 O   0  0  0  0  0  0  0  0  0  0  0  0
    6.0612   28.3402   26.5473 C   0  0  0  0  0  0  0  0  0  0  0  0
    8.7808   25.4491   24.4922 C   0  0  0  0  0  0  0  0  0  0  0  0
    7.9012   25.2861   23.3838 N   0  0  0  0  0  0  0  0  0  0  0  0
    8.1651   21.3230   28.8079 O   0  0  0  0  0  0  0  0  0  0  0  0
    8.9639   22.3451   28.6138 C   0  0  0  0  0  0  0  0  0  0  0  0
    4.9036   28.1950   24.2872 C   0  0  0  0  0  0  0  0  0  0  0  0
    8.6878   28.0769   26.1226 C   0  0  0  0  0  0  0  0  0  0  0  0
    5.5948   25.3956   28.1778 F   0  0  0  0  0  0  0  0  0  0  0  0
    4.7840   25.3424   22.6550 C   0  0  0  0  0  0  0  0  0  0  0  0
    7.1588   24.0100   29.4310 C   0  0  0  0  0  0  0  0  0  0  0  0
   10.8759   24.0824   26.8521 O   0  0  0  0  0  0  0  0  0  0  0  0
    6.1143   28.1073   25.0768 C   0  0  0  0  0  0  0  0  0  0  0  0
    5.6348   26.5043   22.7749 C   0  0  0  0  0  0  0  0  0  0  0  0
    5.2461   23.2490   28.3100 F   0  0  0  0  0  0  0  0  0  0  0  0
    9.2702   23.2255   22.9439 C   0  0  0  0  0  0  0  0  0  0  0  0
    5.6528   24.3106   28.9758 C   0  0  0  0  0  0  0  0  0  0  0  0
  1 25  1  0
  1 32  1  0
  2 13  1  0
  2 28  1  0
  3 22  1  0
  3 34  1  0
  4  7  1  0
  4 24  1  0
  4 29  1  0
  5 34  2  0
  6 12  1  0
  6 15  1  0
  6 21  1  0
  7 12  1  0
  8 11  1  0
  8 13  1  0
  9 20  1  0
  9 26  1  0
 10 25  2  0
 11 28  1  0
 12 30  2  0
 14 16  2  0
 14 17  1  0
 14 31  1  0
 15 34  1  0
 16 22  1  0
 16 32  1  0
 17 21  1  0
 17 26  1  0
 18 35  1  0
 19 24  2  0
 20 31  1  0
 21 22  1  0
 23 24  1  0
 25 31  1  0
 27 35  1  0
 28 32  1  0
 29 35  1  0
 33 35  1  0
M  END
>  <ID>  (1) 
conformer_0

$$$$
