
     RDKit          3D

 19 20  0  0  0  0  0  0  0  0999 V2000
    6.5409   25.0547   27.0705 C   0  0  0  0  0  0  0  0  0  0  0  0
    5.5168   25.9246   27.3323 C   0  0  0  0  0  0  0  0  0  0  0  0
    4.9036   25.8003   28.5462 C   0  0  0  0  0  0  0  0  0  0  0  0
    5.0211   24.3974   30.6370 C   0  0  0  0  0  0  0  0  0  0  0  0
    5.2980   26.7754   24.7513 C   0  0  0  0  0  0  0  0  0  0  0  0
    6.0707   25.7075   24.0860 N   0  0  0  0  0  0  0  0  0  0  0  0
    5.4721   24.7553   29.2490 C   0  0  0  0  0  0  0  0  0  0  0  0
    9.9701   21.8076   23.3965 O   0  0  0  0  0  0  0  0  0  0  0  0
    7.4626   24.9688   25.9507 C   0  0  0  0  0  0  0  0  0  0  0  0
    3.9567   27.1388   22.7005 C   0  0  0  0  0  0  0  0  0  0  0  0
    8.9971   23.1540   25.3299 O   0  0  0  0  0  0  0  0  0  0  0  0
    6.6671   24.0360   28.4009 S   0  0  0  0  0  0  0  0  0  0  0  0
    8.5102   23.6535   24.1524 C   0  0  0  0  0  0  0  0  0  0  0  0
    4.3262   25.7094   22.3944 C   0  0  0  0  0  0  0  0  0  0  0  0
    3.0753   27.9596   24.6647 O   0  0  0  0  0  0  0  0  0  0  0  0
    9.1761   23.0048   23.0452 C   0  0  0  0  0  0  0  0  0  0  0  0
    5.7953   25.5338   22.6509 C   0  0  0  0  0  0  0  0  0  0  0  0
    4.1944   27.4815   24.1041 C   0  0  0  0  0  0  0  0  0  0  0  0
    7.2791   24.6883   24.4645 C   0  0  0  0  0  0  0  0  0  0  0  0
  1  2  2  0
  1  9  1  0
  1 12  1  0
  2  3  1  0
  3  7  1  0
  4  7  1  0
  5  6  1  0
  5 18  1  0
  6 17  1  0
  6 19  1  0
  7 12  1  0
  8 16  1  0
  9 19  1  0
 10 14  1  0
 10 18  1  0
 11 13  1  0
 13 16  2  3
 13 19  1  0
 14 17  1  0
 15 18  1  0
M  END
>  <ID>  (1) 
conformer_0

$$$$
