
     RDKit          3D

 21 21  0  0  0  0  0  0  0  0999 V2000
    9.2318   23.0667   23.8781 C   0  0  0  0  0  0  0  0  0  0  0  0
    7.5324   24.8306   24.7166 C   0  0  0  0  0  0  0  0  0  0  0  0
    6.3527   24.9195   22.1838 C   0  0  0  0  0  0  0  0  0  0  0  0
    9.6286   22.1246   22.9960 O   0  0  0  0  0  0  0  0  0  0  0  0
    3.5188   25.2659   22.2724 C   0  0  0  0  0  0  0  0  0  0  0  0
    8.0848   24.9188   26.1262 C   0  0  0  0  0  0  0  0  0  0  0  0
    7.1094   25.4174   27.1945 C   0  0  0  0  0  0  0  0  0  0  0  0
    6.4151   25.5829   24.4460 C   0  0  0  0  0  0  0  0  0  0  0  0
    9.8991   23.0515   24.9864 O   0  0  0  0  0  0  0  0  0  0  0  0
    9.3264   25.8858   26.1079 C   0  0  0  0  0  0  0  0  0  0  0  0
    8.6031   23.9676   28.7732 N   0  0  0  0  0  0  0  0  0  0  0  0
    7.4794   24.9766   28.6365 C   0  0  0  0  0  0  0  0  0  0  0  0
    5.4283   23.7524   28.4404 O   0  0  0  0  0  0  0  0  0  0  0  0
    5.7619   25.6071   23.2460 C   0  0  0  0  0  0  0  0  0  0  0  0
    6.1853   24.5184   29.2906 C   0  0  0  0  0  0  0  0  0  0  0  0
    7.5190   24.1379   22.3878 C   0  0  0  0  0  0  0  0  0  0  0  0
    4.4257   27.7032   23.5834 C   0  0  0  0  0  0  0  0  0  0  0  0
    5.4902   25.6168   30.0251 C   0  0  0  0  0  0  0  0  0  0  0  0
    8.0966   24.0243   23.6551 C   0  0  0  0  0  0  0  0  0  0  0  0
    4.4098   26.2730   23.0792 C   0  0  0  0  0  0  0  0  0  0  0  0
    2.9921   27.8604   24.0292 O   0  0  0  0  0  0  0  0  0  0  0  0
  1  4  2  0
  1  9  1  0
  1 19  1  0
  2  6  1  0
  2  8  2  0
  2 19  1  0
  3 14  2  0
  3 16  1  0
  5 20  1  0
  6  7  1  0
  6 10  1  0
  7 12  1  0
  8 14  1  0
 11 12  1  0
 12 15  1  0
 13 15  1  0
 14 20  1  0
 15 18  1  0
 16 19  2  0
 17 20  1  0
 17 21  1  0
M  END
>  <ID>  (1) 
conformer_0

$$$$
