
     RDKit          3D

 18 19  0  0  0  0  0  0  0  0999 V2000
    7.6970   23.9498   29.4129 C   0  0  0  0  0  0  0  0  0  0  0  0
    7.1351   25.1191   24.9426 C   0  0  0  0  0  0  0  0  0  0  0  0
    3.3509   27.8745   24.4680 N   0  0  0  0  0  0  0  0  0  0  0  0
    8.4590   23.3901   28.1933 C   0  0  0  0  0  0  0  0  0  0  0  0
    8.0023   24.5152   25.9223 C   0  0  0  0  0  0  0  0  0  0  0  0
    8.9128   23.6369   25.2007 N   0  0  0  0  0  0  0  0  0  0  0  0
    6.7525   24.9602   22.5869 C   0  0  0  0  0  0  0  0  0  0  0  0
    6.2331   24.0565   28.8646 N   0  0  0  0  0  0  0  0  0  0  0  0
    4.3953   27.6478   23.6855 C   0  0  0  0  0  0  0  0  0  0  0  0
    8.2181   24.5808   27.2649 N   0  0  0  0  0  0  0  0  0  0  0  0
    5.7276   25.8868   22.6385 C   0  0  0  0  0  0  0  0  0  0  0  0
    5.4081   26.4967   23.8307 C   0  0  0  0  0  0  0  0  0  0  0  0
    6.0982   26.0784   24.9865 C   0  0  0  0  0  0  0  0  0  0  0  0
    7.4657   24.5822   23.7240 C   0  0  0  0  0  0  0  0  0  0  0  0
    3.5767   27.9788   25.9345 C   0  0  0  0  0  0  0  0  0  0  0  0
    8.5807   23.6311   23.8430 C   0  0  0  0  0  0  0  0  0  0  0  0
   10.0314   22.9762   25.6933 O   0  0  0  0  0  0  0  0  0  0  0  0
    9.4017   22.7552   22.8613 C   0  0  0  0  0  0  0  0  0  0  0  0
  1  4  1  0
  1  8  1  0
  2  5  2  0
  2 13  1  0
  2 14  1  0
  3  9  1  0
  3 15  1  0
  4 10  1  0
  5  6  1  0
  5 10  1  0
  6 16  1  0
  6 17  1  0
  7 11  1  0
  7 14  2  0
  9 12  1  0
 11 12  2  0
 12 13  1  0
 14 16  1  0
 16 18  1  0
M  END
>  <ID>  (1) 
conformer_0

$$$$
