
     RDKit          3D

 33 37  0  0  0  0  0  0  0  0999 V2000
    9.2303   23.0775   22.6186 C   0  0  0  0  0  0  0  0  0  0  0  0
    9.7428   20.9095   21.6254 O   0  0  0  0  0  0  0  0  0  0  0  0
    5.4321   25.5563   29.2636 C   0  0  0  0  0  0  0  0  0  0  0  0
    3.3704   28.0759   23.9324 O   0  0  0  0  0  0  0  0  0  0  0  0
    8.5432   22.8550   28.5297 C   0  0  0  0  0  0  0  0  0  0  0  0
    6.0601   25.6098   27.9750 C   0  0  0  0  0  0  0  0  0  0  0  0
    8.0386   28.5909   26.3559 C   0  0  0  0  0  0  0  0  0  0  0  0
    4.4644   25.4946   30.3540 C   0  0  0  0  0  0  0  0  0  0  0  0
    7.2862   24.4879   22.1667 C   0  0  0  0  0  0  0  0  0  0  0  0
    6.2512   24.3005   29.8846 N   0  0  0  0  0  0  0  0  0  0  0  0
    6.2416   26.8998   27.2955 C   0  0  0  0  0  0  0  0  0  0  0  0
    6.6255   29.2850   25.9574 C   0  0  0  0  0  0  0  0  0  0  0  0
    8.2987   27.6480   25.1854 C   0  0  0  0  0  0  0  0  0  0  0  0
    5.3188   26.7510   23.3447 C   0  0  0  0  0  0  0  0  0  0  0  0
    4.7352   27.9408   24.0270 C   0  0  0  0  0  0  0  0  0  0  0  0
    5.8921   26.9990   25.8680 C   0  0  0  0  0  0  0  0  0  0  0  0
    5.2929   24.4006   31.1547 C   0  0  0  0  0  0  0  0  0  0  0  0
    7.0201   24.5743   27.6939 C   0  0  0  0  0  0  0  0  0  0  0  0
    3.4442   25.7357   22.1867 C   0  0  0  0  0  0  0  0  0  0  0  0
    7.3964   23.8571   28.9424 C   0  0  0  0  0  0  0  0  0  0  0  0
    4.2929   29.2857   25.9817 O   0  0  0  0  0  0  0  0  0  0  0  0
   10.1311   21.9919   22.3524 C   0  0  0  0  0  0  0  0  0  0  0  0
    9.5452   23.9104   23.6714 C   0  0  0  0  0  0  0  0  0  0  0  0
    9.0104   21.8451   29.5264 C   0  0  0  0  0  0  0  0  0  0  0  0
    7.0423   26.8223   24.9954 C   0  0  0  0  0  0  0  0  0  0  0  0
    9.6783   23.6296   28.0310 C   0  0  0  0  0  0  0  0  0  0  0  0
    7.6058   25.3315   23.2321 C   0  0  0  0  0  0  0  0  0  0  0  0
    5.3456   28.4315   25.3863 C   0  0  0  0  0  0  0  0  0  0  0  0
    8.0887   23.3538   21.8871 C   0  0  0  0  0  0  0  0  0  0  0  0
    8.7583   25.0041   23.9454 C   0  0  0  0  0  0  0  0  0  0  0  0
    4.6153   25.5506   23.0790 O   0  0  0  0  0  0  0  0  0  0  0  0
   10.0115   23.3608   26.6805 N   0  0  0  0  0  0  0  0  0  0  0  0
    6.7503   26.5287   23.5617 C   0  0  0  0  0  0  0  0  0  0  0  0
  1 22  1  0
  1 23  2  0
  1 29  1  0
  2 22  1  0
  3  6  1  0
  3  8  1  0
  3 10  1  0
  4 15  1  0
  5 20  1  0
  5 24  1  0
  5 26  1  0
  6 11  1  0
  6 18  1  0
  7 12  1  0
  7 13  1  0
  8 17  1  0
  9 27  1  0
  9 29  2  0
 10 17  1  0
 10 20  1  0
 11 16  1  0
 12 28  1  0
 13 25  1  0
 14 15  1  0
 14 31  1  0
 14 33  1  0
 15 28  1  0
 16 25  1  0
 16 28  1  0
 18 20  1  0
 19 31  1  0
 21 28  1  0
 23 30  1  0
 25 33  1  0
 26 32  1  0
 27 30  2  0
 27 33  1  0
M  END
>  <ID>  (1) 
conformer_0

$$$$
