
     RDKit          3D

 25 27  0  0  0  0  0  0  0  0999 V2000
    3.7066   27.0789   22.6184 O   0  0  0  0  0  0  0  0  0  0  0  0
    5.4036   25.8680   26.6594 C   0  0  0  0  0  0  0  0  0  0  0  0
    9.0815   23.4941   26.1305 C   0  0  0  0  0  0  0  0  0  0  0  0
    4.4299   26.2087   28.8392 C   0  0  0  0  0  0  0  0  0  0  0  0
    4.6915   25.9971   22.4816 C   0  0  0  0  0  0  0  0  0  0  0  0
    5.4752   26.2971   25.3320 O   0  0  0  0  0  0  0  0  0  0  0  0
    3.9429   27.4514   23.9735 C   0  0  0  0  0  0  0  0  0  0  0  0
    6.6801   25.1728   23.7050 C   0  0  0  0  0  0  0  0  0  0  0  0
    7.5283   24.8286   24.7283 C   0  0  0  0  0  0  0  0  0  0  0  0
    9.7845   22.3236   23.1525 C   0  0  0  0  0  0  0  0  0  0  0  0
    6.1095   24.8320   27.1881 C   0  0  0  0  0  0  0  0  0  0  0  0
    5.3523   26.0829   23.9082 C   0  0  0  0  0  0  0  0  0  0  0  0
    8.0723   22.2602   28.2528 O   0  0  0  0  0  0  0  0  0  0  0  0
   10.0310   23.2487   28.3460 O   0  0  0  0  0  0  0  0  0  0  0  0
    8.9071   23.1327   27.6421 C   0  0  0  0  0  0  0  0  0  0  0  0
    3.7084   27.7164   26.9262 C   0  0  0  0  0  0  0  0  0  0  0  0
    4.5154   26.5923   27.5152 C   0  0  0  0  0  0  0  0  0  0  0  0
    6.0057   24.4723   28.5124 C   0  0  0  0  0  0  0  0  0  0  0  0
    8.5017   23.8780   24.6743 C   0  0  0  0  0  0  0  0  0  0  0  0
    3.6547   27.9720   25.4412 C   0  0  0  0  0  0  0  0  0  0  0  0
   10.3723   22.1769   21.8925 N   0  0  0  0  0  0  0  0  0  0  0  0
    8.0374   23.7757   22.2997 C   0  0  0  0  0  0  0  0  0  0  0  0
    5.1462   25.1629   29.3608 C   0  0  0  0  0  0  0  0  0  0  0  0
    8.7923   23.3337   23.3598 C   0  0  0  0  0  0  0  0  0  0  0  0
    6.9646   24.6724   22.4535 C   0  0  0  0  0  0  0  0  0  0  0  0
  1  5  1  0
  1  7  1  0
  2  6  1  0
  2 11  2  0
  2 17  1  0
  3 15  1  0
  3 19  1  0
  4 17  1  0
  4 23  2  0
  5 12  1  0
  6 12  1  0
  7 20  1  0
  8  9  2  0
  8 12  1  0
  8 25  1  0
  9 19  1  0
 10 21  1  0
 10 24  1  0
 11 18  1  0
 13 15  2  0
 14 15  1  0
 16 17  2  0
 16 20  1  0
 18 23  1  0
 19 24  2  0
 22 24  1  0
 22 25  2  0
M  END
>  <ID>  (1) 
conformer_0

$$$$
