
     RDKit          3D

 28 34  0  0  0  0  0  0  0  0999 V2000
    7.2661   24.8495   24.2666 C   0  0  0  0  0  0  0  0  0  0  0  0
    3.7102   27.8229   26.6752 C   0  0  0  0  0  0  0  0  0  0  0  0
    5.7273   26.1959   22.9772 C   0  0  0  0  0  0  0  0  0  0  0  0
    4.2309   27.6000   24.2863 C   0  0  0  0  0  0  0  0  0  0  0  0
    6.9984   25.1540   25.6537 C   0  0  0  0  0  0  0  0  0  0  0  0
    7.8610   24.0708   29.1293 C   0  0  0  0  0  0  0  0  0  0  0  0
    9.2320   22.9034   23.2829 C   0  0  0  0  0  0  0  0  0  0  0  0
    6.2580   25.3948   28.1145 C   0  0  0  0  0  0  0  0  0  0  0  0
    6.1433   25.8542   24.3835 C   0  0  0  0  0  0  0  0  0  0  0  0
    8.1614   24.1854   24.8943 C   0  0  0  0  0  0  0  0  0  0  0  0
    8.3376   23.5581   22.3930 N   0  0  0  0  0  0  0  0  0  0  0  0
    8.2001   24.1834   27.7121 C   0  0  0  0  0  0  0  0  0  0  0  0
    6.4494   25.4565   22.1039 N   0  0  0  0  0  0  0  0  0  0  0  0
    6.6699   24.8625   29.3582 C   0  0  0  0  0  0  0  0  0  0  0  0
    4.6921   27.1634   22.9394 N   0  0  0  0  0  0  0  0  0  0  0  0
    3.4422   27.8161   28.0376 N   0  0  0  0  0  0  0  0  0  0  0  0
    8.1952   23.3850   31.4807 C   0  0  0  0  0  0  0  0  0  0  0  0
    3.4499   28.2361   25.3591 N   0  0  0  0  0  0  0  0  0  0  0  0
    4.2513   26.7656   28.7867 C   0  0  0  0  0  0  0  0  0  0  0  0
   10.0739   22.8699   25.5471 O   0  0  0  0  0  0  0  0  0  0  0  0
    8.4740   23.2486   30.0287 O   0  0  0  0  0  0  0  0  0  0  0  0
    7.1626   24.9392   27.0631 C   0  0  0  0  0  0  0  0  0  0  0  0
    7.4040   24.5650   22.8309 N   0  0  0  0  0  0  0  0  0  0  0  0
    9.1588   23.2909   24.6208 C   0  0  0  0  0  0  0  0  0  0  0  0
    4.8274   26.8309   26.5067 C   0  0  0  0  0  0  0  0  0  0  0  0
   10.0880   21.9368   22.9288 O   0  0  0  0  0  0  0  0  0  0  0  0
    5.1844   26.2617   27.7903 C   0  0  0  0  0  0  0  0  0  0  0  0
    5.1245   26.7246   25.1131 C   0  0  0  0  0  0  0  0  0  0  0  0
  1  5  1  0
  1  9  1  0
  1 10  1  0
  1 23  1  0
  2 16  1  0
  2 18  2  0
  2 25  1  0
  3  9  2  0
  3 13  1  0
  3 15  1  0
  4 15  2  0
  4 18  1  0
  4 28  1  0
  5 22  1  0
  6 12  1  0
  6 14  1  0
  6 21  1  0
  7 11  1  0
  7 24  1  0
  7 26  2  0
  8 14  1  0
  8 22  1  0
  8 27  2  0
  9 28  1  0
 10 24  2  0
 11 23  1  0
 12 22  1  0
 13 23  1  0
 16 19  1  0
 17 21  1  0
 19 27  1  0
 20 24  1  0
 25 27  1  0
 25 28  2  0
M  END
>  <ID>  (1) 
conformer_0

$$$$
