
     RDKit          3D

 30 33  0  0  0  0  0  0  0  0999 V2000
    9.1826   23.7055   25.7117 C   0  0  0  0  0  0  0  0  0  0  0  0
    7.6624   24.6715   29.4392 C   0  0  0  0  0  0  0  0  0  0  0  0
    7.2742   25.2238   25.7757 C   0  0  0  0  0  0  0  0  0  0  0  0
    5.1296   26.1208   32.3557 O   0  0  0  0  0  0  0  0  0  0  0  0
    5.3739   24.9467   31.4719 S   0  0  0  0  0  4  0  0  0  0  0  0
    3.8682   24.3680   31.0046 C   0  0  0  0  0  0  0  0  0  0  0  0
    8.0841   24.5901   27.9693 C   0  0  0  0  0  0  0  0  0  0  0  0
    5.2864   26.7422   25.0697 C   0  0  0  0  0  0  0  0  0  0  0  0
    9.2398   23.9502   27.2188 C   0  0  0  0  0  0  0  0  0  0  0  0
    9.4131   22.7966   22.6784 C   0  0  0  0  0  0  0  0  0  0  0  0
    6.4050   25.4743   29.9538 C   0  0  0  0  0  0  0  0  0  0  0  0
    9.9227   22.7751   27.8722 C   0  0  0  0  0  0  0  0  0  0  0  0
    7.7053   24.4919   23.6455 C   0  0  0  0  0  0  0  0  0  0  0  0
    5.4591   25.8923   22.9841 C   0  0  0  0  0  0  0  0  0  0  0  0
    6.3509   25.8547   25.0181 C   0  0  0  0  0  0  0  0  0  0  0  0
    6.5579   25.3136   23.5979 C   0  0  0  0  0  0  0  0  0  0  0  0
    9.1646   21.9284   28.4676 O   0  0  0  0  0  0  0  0  0  0  0  0
    5.0923   25.6486   21.7979 O   0  0  0  0  0  0  0  0  0  0  0  0
   11.1383   22.6088   27.5743 O   0  0  0  0  0  0  0  0  0  0  0  0
    8.1252   24.4399   24.9977 C   0  0  0  0  0  0  0  0  0  0  0  0
    2.7377   28.0605   24.2000 O   0  0  0  0  0  0  0  0  0  0  0  0
    6.2579   23.7711   32.2521 N   0  0  0  0  0  0  0  0  0  0  0  0
    8.4353   23.8083   22.6933 O   0  0  0  0  0  0  0  0  0  0  0  0
    7.1338   25.3462   27.1601 N   0  0  0  0  0  0  0  0  0  0  0  0
    3.5204   27.3722   23.3726 C   0  0  0  0  0  0  0  0  0  0  0  0
    5.3042   25.6837   28.8444 C   0  0  0  0  0  0  0  0  0  0  0  0
    9.7152   22.0192   23.6007 O   0  0  0  0  0  0  0  0  0  0  0  0
    5.9010   26.0301   27.5772 C   0  0  0  0  0  0  0  0  0  0  0  0
    4.6894   26.7457   23.8124 C   0  0  0  0  0  0  0  0  0  0  0  0
   10.1842   22.6445   21.6241 O   0  0  0  0  0  0  0  0  0  0  0  0
  1  9  1  0
  1 20  1  0
  2  7  2  0
  2 11  1  0
  3 15  2  0
  3 20  1  0
  3 24  1  0
  4  5  1  0
  5  6  1  0
  5 11  1  0
  5 22  1  0
  7  9  1  0
  7 24  1  0
  8 15  1  0
  8 29  1  0
  9 12  1  0
 10 23  1  0
 10 27  2  0
 10 30  1  0
 11 26  1  0
 12 17  2  0
 12 19  1  0
 13 16  1  0
 13 20  2  0
 13 23  1  0
 14 16  1  0
 14 18  2  0
 14 29  1  0
 15 16  1  0
 21 25  1  0
 24 28  1  0
 25 29  2  3
 26 28  1  0
M  END
>  <ID>  (1) 
conformer_0

$$$$
