
     RDKit          3D

 32 34  0  0  0  0  0  0  0  0999 V2000
   10.0174   22.3894   21.6408 O   0  0  0  0  0  0  0  0  0  0  0  0
    4.9535   25.4729   28.9387 C   0  0  0  0  0  0  0  0  0  0  0  0
    6.7384   26.3332   23.8208 C   0  0  0  0  0  0  0  0  0  0  0  0
    8.2602   21.5703   28.6510 O   0  0  0  0  0  0  0  0  0  0  0  0
   10.7851   25.1539   27.4893 C   0  0  0  0  0  0  0  0  0  0  0  0
    3.2855   27.5094   23.4631 O   0  0  0  0  0  0  0  0  0  0  0  0
   10.0222   21.9770   23.7728 O   0  0  0  0  0  0  0  0  0  0  0  0
    8.6620   24.6806   24.3456 C   0  0  0  0  0  0  0  0  0  0  0  0
    4.7683   26.5848   27.9790 C   0  0  0  0  0  0  0  0  0  0  0  0
    9.9217   23.1412   28.9916 N   0  0  0  0  0  0  0  0  0  0  0  0
    5.5295   27.0033   24.3976 C   0  0  0  0  0  0  0  0  0  0  0  0
    4.3248   28.9268   27.3877 C   0  0  0  0  0  0  0  0  0  0  0  0
    9.5763   22.7142   22.8360 C   0  0  0  0  0  0  0  0  0  0  0  0
   10.0009   25.4384   26.2942 C   0  0  0  0  0  0  0  0  0  0  0  0
    8.6343   23.8013   23.1183 C   0  0  0  0  0  0  0  0  0  0  0  0
    8.1338   26.0331   24.2827 C   0  0  0  0  0  0  0  0  0  0  0  0
    8.9747   27.0862   24.8343 C   0  0  0  0  0  0  0  0  0  0  0  0
    4.4191   27.8802   28.3301 C   0  0  0  0  0  0  0  0  0  0  0  0
    4.8900   25.8341   22.4771 C   0  0  0  0  0  0  0  0  0  0  0  0
    7.7754   23.8155   21.9720 O   0  0  0  0  0  0  0  0  0  0  0  0
    9.1153   23.0978   26.6320 C   0  0  0  0  0  0  0  0  0  0  0  0
    4.6622   28.6593   26.0679 C   0  0  0  0  0  0  0  0  0  0  0  0
    6.2940   25.7450   22.6205 N   0  0  0  0  0  0  0  0  0  0  0  0
    9.2051   23.8510   30.1220 C   0  0  0  0  0  0  0  0  0  0  0  0
    5.0875   27.3420   25.7144 C   0  0  0  0  0  0  0  0  0  0  0  0
    9.2640   24.3810   25.6381 C   0  0  0  0  0  0  0  0  0  0  0  0
    4.4630   26.8303   23.4342 C   0  0  0  0  0  0  0  0  0  0  0  0
    8.9485   22.6106   28.0915 C   0  0  0  0  0  0  0  0  0  0  0  0
    9.9182   26.7597   25.8122 C   0  0  0  0  0  0  0  0  0  0  0  0
    9.8703   22.4801   30.3178 C   0  0  0  0  0  0  0  0  0  0  0  0
    5.0674   26.3252   26.6847 C   0  0  0  0  0  0  0  0  0  0  0  0
    4.0430   24.8802   21.9611 O   0  0  0  0  0  0  0  0  0  0  0  0
  1 13  2  0
  2  9  1  0
  3 11  1  0
  3 16  1  0
  3 23  1  0
  4 28  2  0
  5 14  1  0
  6 27  1  0
  7 13  1  0
  8 15  1  0
  8 16  1  0
  8 26  1  0
  9 18  2  0
  9 31  1  0
 10 28  1  0
 10 30  1  0
 11 25  1  0
 11 27  1  0
 12 18  1  0
 12 22  2  0
 13 15  1  0
 14 26  1  0
 14 29  1  0
 15 20  1  0
 16 17  1  0
 17 29  2  0
 19 23  1  0
 19 27  1  0
 19 32  2  0
 21 26  1  0
 21 28  1  0
 22 25  1  0
 24 30  1  0
 25 31  2  0
M  END
>  <ID>  (1) 
conformer_0

$$$$
