
     RDKit          3D

 25 26  0  0  0  0  0  0  0  0999 V2000
    5.8496   25.0570   22.5761 C   0  0  0  0  0  0  0  0  0  0  0  0
    6.1248   26.4657   24.4558 O   0  0  0  0  0  0  0  0  0  0  0  0
    6.5398   25.7363   26.6420 C   0  0  0  0  0  0  0  0  0  0  0  0
    7.0406   24.0745   28.3506 C   0  0  0  0  0  0  0  0  0  0  0  0
    7.9944   23.5363   27.5036 C   0  0  0  0  0  0  0  0  0  0  0  0
    8.2052   24.0532   26.1901 C   0  0  0  0  0  0  0  0  0  0  0  0
    8.8772   23.6812   23.8435 O   0  0  0  0  0  0  0  0  0  0  0  0
    4.2660   28.0440   24.5058 C   0  0  0  0  0  0  0  0  0  0  0  0
    2.8973   27.9041   24.0716 O   0  0  0  0  0  0  0  0  0  0  0  0
    5.3695   28.3722   25.5965 C   0  0  0  0  0  0  0  0  0  0  0  0
    5.1904   25.6592   28.6816 O   0  0  0  0  0  0  0  0  0  0  0  0
    8.7259   22.4513   27.9816 O   0  0  0  0  0  0  0  0  0  0  0  0
   10.0706   21.5773   23.4377 O   0  0  0  0  0  0  0  0  0  0  0  0
    5.1276   25.2049   29.9887 C   0  0  0  0  0  0  0  0  0  0  0  0
    9.1211   23.4778   25.1741 C   0  0  0  0  0  0  0  0  0  0  0  0
    6.2739   25.1495   27.9261 C   0  0  0  0  0  0  0  0  0  0  0  0
    7.4886   25.1435   25.9281 C   0  0  0  0  0  0  0  0  0  0  0  0
    4.6044   25.9318   22.6939 C   0  0  0  0  0  0  0  0  0  0  0  0
    6.8952   25.6309   23.5031 C   0  0  0  0  0  0  0  0  0  0  0  0
   10.2084   22.8797   25.6128 N   0  0  0  0  0  0  0  0  0  0  0  0
    4.2782   24.3829   30.7452 C   0  0  0  0  0  0  0  0  0  0  0  0
    3.7082   26.1488   21.8041 O   0  0  0  0  0  0  0  0  0  0  0  0
    4.9674   26.9135   23.7352 C   0  0  0  0  0  0  0  0  0  0  0  0
    5.8724   26.9401   25.9656 C   0  0  0  0  0  0  0  0  0  0  0  0
    9.7188   22.8550   23.0045 C   0  0  0  0  0  0  0  0  0  0  0  0
  1 18  1  0
  1 19  1  0
  2 19  1  0
  2 23  1  0
  3 16  2  0
  3 17  1  0
  3 24  1  0
  4  5  2  0
  4 16  1  0
  5  6  1  0
  5 12  1  0
  6 15  1  0
  6 17  2  0
  7 15  1  0
  7 25  1  0
  8  9  1  0
  8 10  1  0
  8 23  1  0
 10 24  1  0
 11 14  1  0
 11 16  1  0
 13 25  1  0
 14 21  1  0
 15 20  2  0
 18 22  2  0
 18 23  1  0
M  END
>  <ID>  (1) 
conformer_0

$$$$
