
     RDKit          3D

 24 24  0  0  0  0  0  0  0  0999 V2000
   10.5013   21.1905   23.4170 O   0  0  0  0  0  0  0  0  0  0  0  0
    3.9390   26.2529   22.2023 S   0  0  0  0  0  0  0  0  0  0  0  0
    3.6548   28.4568   26.4982 N   0  0  0  0  0  0  0  0  0  0  0  0
    5.4414   24.5054   30.4950 C   0  0  0  0  0  0  0  0  0  0  0  0
    9.7312   22.2061   21.5967 O   0  0  0  0  0  0  0  0  0  0  0  0
    9.2700   23.0875   23.7644 N   0  0  0  0  0  0  0  0  0  0  0  0
    8.7347   24.1586   26.5215 C   0  0  0  0  0  0  0  0  0  0  0  0
   10.1877   24.1295   26.0259 C   0  0  0  0  0  0  0  0  0  0  0  0
    4.4207   26.1079   28.8041 C   0  0  0  0  0  0  0  0  0  0  0  0
    7.3739   24.6477   24.4357 C   0  0  0  0  0  0  0  0  0  0  0  0
    7.4667   24.6589   25.8821 C   0  0  0  0  0  0  0  0  0  0  0  0
    5.3072   24.9256   29.0501 C   0  0  0  0  0  0  0  0  0  0  0  0
    4.3190   26.6701   23.4187 C   0  0  0  0  0  0  0  0  0  0  0  0
    7.7752   24.1092   22.2881 N   0  0  0  0  0  0  0  0  0  0  0  0
    3.5116   27.6212   24.1051 N   0  0  0  0  0  0  0  0  0  0  0  0
    5.4115   26.1219   23.9392 C   0  0  0  0  0  0  0  0  0  0  0  0
    3.5794   27.9561   25.2760 C   0  0  0  0  0  0  0  0  0  0  0  0
    8.1957   23.9227   23.5361 C   0  0  0  0  0  0  0  0  0  0  0  0
    9.8008   22.1785   22.8507 C   0  0  0  0  0  0  0  0  0  0  0  0
    6.4322   25.2941   23.6096 C   0  0  0  0  0  0  0  0  0  0  0  0
    6.4738   25.0318   26.7809 N   0  0  0  0  0  0  0  0  0  0  0  0
    6.6946   24.9489   22.2988 C   0  0  0  0  0  0  0  0  0  0  0  0
    8.7474   23.7279   28.0210 C   0  0  0  0  0  0  0  0  0  0  0  0
    6.1514   24.4305   28.0236 C   0  0  0  0  0  0  0  0  0  0  0  0
  1 19  2  0
  2 13  2  0
  3 17  1  0
  4 12  1  0
  5 19  1  0
  6 18  2  3
  6 19  1  0
  7  8  1  0
  7 11  1  0
  7 23  1  0
  9 12  1  0
 10 11  1  0
 10 18  1  0
 10 20  1  0
 11 21  1  0
 12 24  1  0
 13 15  1  0
 13 16  1  0
 14 18  1  0
 14 22  1  0
 15 17  1  0
 16 20  2  3
 20 22  1  0
 21 24  2  3
M  END
>  <ID>  (1) 
conformer_0

$$$$
