
     RDKit          3D

 28 31  0  0  0  0  0  0  0  0999 V2000
    6.3303   25.0059   29.8136 C   0  0  0  0  0  0  0  0  0  0  0  0
    9.4999   21.8669   21.5985 O   0  0  0  0  0  0  0  0  0  0  0  0
    9.9146   23.2052   27.2478 C   0  0  0  0  0  0  0  0  0  0  0  0
    5.6211   26.3759   24.6118 C   0  0  0  0  0  0  0  0  0  0  0  0
    6.6408   24.9529   26.8286 N   0  0  0  0  0  0  0  0  0  0  0  0
    8.3393   24.2077   25.5599 C   0  0  0  0  0  0  0  0  0  0  0  0
    4.8607   24.7987   29.3430 C   0  0  0  0  0  0  0  0  0  0  0  0
    8.6042   23.5097   23.1098 C   0  0  0  0  0  0  0  0  0  0  0  0
    2.7852   28.0153   23.9862 O   0  0  0  0  0  0  0  0  0  0  0  0
    7.6866   24.1779   22.4267 N   0  0  0  0  0  0  0  0  0  0  0  0
    5.9734   25.7276   21.9808 C   0  0  0  0  0  0  0  0  0  0  0  0
    4.5630   29.0351   24.9469 N   0  0  0  0  0  0  0  0  0  0  0  0
   10.1701   21.8968   23.6486 O   0  0  0  0  0  0  0  0  0  0  0  0
    3.9712   28.0913   24.2002 C   0  0  0  0  0  0  0  0  0  0  0  0
   11.0093   23.6939   26.7912 O   0  0  0  0  0  0  0  0  0  0  0  0
    8.6667   23.8481   26.9215 C   0  0  0  0  0  0  0  0  0  0  0  0
    6.5453   25.4266   24.3155 C   0  0  0  0  0  0  0  0  0  0  0  0
    5.8117   24.7833   31.3267 C   0  0  0  0  0  0  0  0  0  0  0  0
    6.7658   25.0954   22.9502 C   0  0  0  0  0  0  0  0  0  0  0  0
    4.8851   27.0225   23.6824 C   0  0  0  0  0  0  0  0  0  0  0  0
    7.0985   24.8895   25.5520 C   0  0  0  0  0  0  0  0  0  0  0  0
    5.0227   26.6844   22.3554 C   0  0  0  0  0  0  0  0  0  0  0  0
    4.3235   24.6480   30.7839 C   0  0  0  0  0  0  0  0  0  0  0  0
    7.5252   24.3344   27.6928 C   0  0  0  0  0  0  0  0  0  0  0  0
    7.1917   24.0031   29.0536 C   0  0  0  0  0  0  0  0  0  0  0  0
    9.9012   22.2153   28.0839 O   0  0  0  0  0  0  0  0  0  0  0  0
    9.4574   22.4694   22.6966 C   0  0  0  0  0  0  0  0  0  0  0  0
    8.7515   23.8115   24.3871 C   0  0  0  0  0  0  0  0  0  0  0  0
  1  7  1  0
  1 18  1  0
  1 25  1  0
  2 27  2  0
  3 15  2  0
  3 16  1  0
  3 26  1  0
  4 17  2  0
  4 20  1  0
  5 21  1  0
  5 24  1  0
  6 16  1  0
  6 21  1  0
  6 28  1  0
  7 23  1  0
  8 10  2  0
  8 27  1  0
  8 28  1  0
  9 14  2  0
 10 19  1  0
 11 19  2  0
 11 22  1  0
 12 14  1  0
 13 27  1  0
 14 20  1  0
 16 24  1  0
 17 19  1  0
 17 21  1  0
 18 23  1  0
 20 22  2  0
 24 25  1  0
M  END
>  <ID>  (1) 
conformer_0

$$$$
