
     RDKit          3D

 24 26  0  0  0  0  0  0  0  0999 V2000
    8.5617   22.7451   29.2563 C   0  0  0  0  0  0  0  0  0  0  0  0
   12.4691   22.5986   27.6540 O   0  0  0  0  0  0  0  0  0  0  0  0
    4.5624   27.3501   26.8308 C   0  0  0  0  0  0  0  0  0  0  0  0
    3.8932   27.5116   23.2498 N   0  0  0  0  0  0  0  0  0  0  0  0
    8.9936   23.3477   24.1744 C   0  0  0  0  0  0  0  0  0  0  0  0
    4.9645   26.6662   23.2116 C   0  0  0  0  0  0  0  0  0  0  0  0
    5.4813   26.0987   21.9864 C   0  0  0  0  0  0  0  0  0  0  0  0
    6.6742   25.4490   24.4306 C   0  0  0  0  0  0  0  0  0  0  0  0
    9.0405   23.6709   26.8011 C   0  0  0  0  0  0  0  0  0  0  0  0
    4.5461   27.2313   25.3562 C   0  0  0  0  0  0  0  0  0  0  0  0
    9.9392   22.5988   28.7358 C   0  0  0  0  0  0  0  0  0  0  0  0
   11.9139   21.3696   28.0320 C   0  0  0  0  0  0  0  0  0  0  0  0
    9.8380   22.5979   27.2661 N   0  0  0  0  0  0  0  0  0  0  0  0
    7.4880   24.9234   25.5199 C   0  0  0  0  0  0  0  0  0  0  0  0
    3.6423   27.8621   24.5315 O   0  0  0  0  0  0  0  0  0  0  0  0
    9.8100   22.3497   23.9504 O   0  0  0  0  0  0  0  0  0  0  0  0
    8.5800   23.9138   25.4146 C   0  0  0  0  0  0  0  0  0  0  0  0
    5.1296   26.1503   27.5643 C   0  0  0  0  0  0  0  0  0  0  0  0
    7.2393   24.8950   23.1919 C   0  0  0  0  0  0  0  0  0  0  0  0
    6.5087   25.1708   21.9802 C   0  0  0  0  0  0  0  0  0  0  0  0
    8.3397   23.9280   23.0068 C   0  0  0  0  0  0  0  0  0  0  0  0
    3.2597   27.8584   27.4538 C   0  0  0  0  0  0  0  0  0  0  0  0
   10.7810   21.3664   29.0718 C   0  0  0  0  0  0  0  0  0  0  0  0
    5.4563   26.4227   24.4762 C   0  0  0  0  0  0  0  0  0  0  0  0
  1 11  1  0
  2 12  1  0
  3 10  1  0
  3 18  1  0
  3 22  1  0
  4  6  1  0
  4 15  1  0
  5 16  1  0
  5 17  1  0
  5 21  2  0
  6  7  2  0
  6 24  1  0
  7 20  1  0
  8 14  1  0
  8 19  1  0
  8 24  2  0
  9 13  1  0
  9 17  1  0
 10 15  1  0
 10 24  1  0
 11 13  1  0
 11 23  1  0
 12 23  1  0
 14 17  2  0
 19 20  2  0
 19 21  1  0
M  END
>  <ID>  (1) 
conformer_0

$$$$
