
     RDKit          3D

 14 14  0  0  0  0  0  0  0  0999 V2000
    4.3397   26.3056   27.6660 O   0  0  0  0  0  0  0  0  0  0  0  0
    6.1265   24.9080   26.5327 C   0  0  0  0  0  0  0  0  0  0  0  0
    9.2505   23.1600   24.6225 C   0  0  0  0  0  0  0  0  0  0  0  0
    6.3513   25.6112   22.3686 C   0  0  0  0  0  0  0  0  0  0  0  0
    5.2268   25.9539   24.4369 C   0  0  0  0  0  0  0  0  0  0  0  0
    5.2983   25.2728   27.6361 C   0  0  0  0  0  0  0  0  0  0  0  0
    7.2161   24.5805   24.3703 C   0  0  0  0  0  0  0  0  0  0  0  0
    8.0853   23.7690   24.9830 N   0  0  0  0  0  0  0  0  0  0  0  0
    5.3438   24.4451   28.9438 C   0  0  0  0  0  0  0  0  0  0  0  0
    6.1747   25.1625   25.1230 C   0  0  0  0  0  0  0  0  0  0  0  0
    9.3869   22.2807   23.5381 N   0  0  0  0  0  0  0  0  0  0  0  0
    7.2872   24.8322   23.0310 C   0  0  0  0  0  0  0  0  0  0  0  0
   10.2586   23.2065   25.4324 O   0  0  0  0  0  0  0  0  0  0  0  0
    5.3073   26.1707   23.0753 C   0  0  0  0  0  0  0  0  0  0  0  0
  1  6  1  0
  2  6  2  3
  2 10  1  0
  3  8  1  0
  3 11  1  0
  3 13  2  0
  4 12  2  0
  4 14  1  0
  5 10  1  0
  5 14  2  0
  6  9  1  0
  7  8  2  3
  7 10  1  0
  7 12  1  0
M  END
>  <ID>  (1) 
conformer_0

$$$$
