
     RDKit          3D

 30 31  0  0  0  0  0  0  0  0999 V2000
    8.0361   23.7797   28.5089 C   0  0  0  0  0  0  0  0  0  0  0  0
    8.8949   22.5645   28.3575 C   0  0  0  0  0  0  0  0  0  0  0  0
    6.5892   23.7755   28.8426 C   0  0  0  0  0  0  0  0  0  0  0  0
   11.9922   20.6588   29.0050 O   0  0  0  0  0  0  0  0  0  0  0  0
    7.1770   25.1512   25.3979 N   0  0  0  0  0  0  0  0  0  0  0  0
    9.4960   25.1929   23.3630 C   0  0  0  0  0  0  0  0  0  0  0  0
    3.8618   28.4545   25.7491 N   0  0  0  0  0  0  0  0  0  0  0  0
    9.4446   20.9148   30.0345 N   0  0  0  0  0  0  0  0  0  0  0  0
    4.2498   24.7386   30.3666 C   0  0  0  0  0  0  0  0  0  0  0  0
    5.0607   25.7199   29.5216 C   0  0  0  0  0  0  0  0  0  0  0  0
   10.0108   22.0918   29.2851 C   0  0  0  0  0  0  0  0  0  0  0  0
    9.9674   21.9126   23.5240 O   0  0  0  0  0  0  0  0  0  0  0  0
   11.4207   21.7715   28.7094 C   0  0  0  0  0  0  0  0  0  0  0  0
    8.7762   24.9047   28.7623 O   0  0  0  0  0  0  0  0  0  0  0  0
    7.2055   24.8816   24.0926 C   0  0  0  0  0  0  0  0  0  0  0  0
    2.8833   27.9111   23.7102 O   0  0  0  0  0  0  0  0  0  0  0  0
    3.7698   27.7754   24.5075 C   0  0  0  0  0  0  0  0  0  0  0  0
    5.3668   26.7277   25.7669 C   0  0  0  0  0  0  0  0  0  0  0  0
    8.3708   23.2485   22.4320 C   0  0  0  0  0  0  0  0  0  0  0  0
    4.3592   26.0265   22.2172 N   0  0  0  0  0  0  0  0  0  0  0  0
    6.4161   25.8581   26.2220 C   0  0  0  0  0  0  0  0  0  0  0  0
    5.7318   24.9781   28.3687 C   0  0  0  0  0  0  0  0  0  0  0  0
    5.1927   25.9857   23.3150 C   0  0  0  0  0  0  0  0  0  0  0  0
    4.8341   26.7598   24.4832 C   0  0  0  0  0  0  0  0  0  0  0  0
    9.6642   22.4755   22.2755 C   0  0  0  0  0  0  0  0  0  0  0  0
    8.4261   24.1639   23.5446 C   0  0  0  0  0  0  0  0  0  0  0  0
    6.5872   25.8670   27.5778 O   0  0  0  0  0  0  0  0  0  0  0  0
    4.7567   27.7687   26.6468 C   0  0  0  0  0  0  0  0  0  0  0  0
    6.2561   25.2375   23.1810 N   0  0  0  0  0  0  0  0  0  0  0  0
   11.9953   22.7148   28.0339 O   0  0  0  0  0  0  0  0  0  0  0  0
  1  2  1  0
  1  3  1  0
  1 14  1  0
  2 11  1  0
  3 22  1  0
  4 13  2  0
  5 15  1  0
  5 21  2  0
  6 26  1  0
  7 17  1  0
  7 28  1  0
  8 11  1  0
  9 10  1  0
 10 22  1  0
 11 13  1  0
 12 25  1  0
 13 30  1  0
 15 26  1  0
 15 29  2  0
 16 17  2  0
 17 24  1  0
 18 21  1  0
 18 24  2  0
 18 28  1  0
 19 25  1  0
 19 26  1  0
 20 23  2  0
 21 27  1  0
 22 27  1  0
 23 24  1  0
 23 29  1  0
M  END
>  <ID>  (1) 
conformer_0

$$$$
