
     RDKit          3D

 42 48  0  0  0  0  0  0  0  0999 V2000
    3.8442   24.1002   33.1736 C   0  0  0  0  0  0  0  0  0  0  0  0
    6.0231   24.0219   32.1742 C   0  0  0  0  0  0  0  0  0  0  0  0
    9.6392   22.4403   23.6537 C   0  0  0  0  0  0  0  0  0  0  0  0
   11.2296   20.8252   28.4443 O   0  0  0  0  0  0  0  0  0  0  0  0
    5.5325   24.6043   31.0063 C   0  0  0  0  0  0  0  0  0  0  0  0
    5.7156   25.7895   28.9018 C   0  0  0  0  0  0  0  0  0  0  0  0
    6.2733   25.4096   27.6719 C   0  0  0  0  0  0  0  0  0  0  0  0
    9.3230   22.2278   28.8737 C   0  0  0  0  0  0  0  0  0  0  0  0
    4.1667   24.9027   30.9894 C   0  0  0  0  0  0  0  0  0  0  0  0
    5.1877   23.7866   33.2223 C   0  0  0  0  0  0  0  0  0  0  0  0
    7.9993   25.5909   26.0076 N   0  0  0  0  0  0  0  0  0  0  0  0
    4.4349   29.1333   25.9452 C   0  0  0  0  0  0  0  0  0  0  0  0
    9.1926   23.4813   24.5313 C   0  0  0  0  0  0  0  0  0  0  0  0
    3.0689   24.5832   22.0280 C   0  0  0  0  0  0  0  0  0  0  0  0
    6.3558   24.9235   29.9062 C   0  0  0  0  0  0  0  0  0  0  0  0
    8.3978   24.4677   26.7823 C   0  0  0  0  0  0  0  0  0  0  0  0
    9.7976   28.8721   25.2355 C   0  0  0  0  0  0  0  0  0  0  0  0
    5.3656   25.5378   22.4078 C   0  0  0  0  0  0  0  0  0  0  0  0
    8.4829   23.4164   21.8682 C   0  0  0  0  0  0  0  0  0  0  0  0
   10.4466   21.5296   24.0328 O   0  0  0  0  0  0  0  0  0  0  0  0
    4.2057   27.5169   24.2679 C   0  0  0  0  0  0  0  0  0  0  0  0
    6.3050   26.2002   23.0013 C   0  0  0  0  0  0  0  0  0  0  0  0
    8.6337   24.5776   23.8917 C   0  0  0  0  0  0  0  0  0  0  0  0
    9.9337   26.4297   24.9908 O   0  0  0  0  0  0  0  0  0  0  0  0
    8.5751   25.8421   24.7671 C   0  0  0  0  0  0  0  0  0  0  0  0
    9.1923   23.4652   26.0057 C   0  0  0  0  0  0  0  0  0  0  0  0
    9.2232   22.4292   22.3630 N   0  0  0  0  0  0  0  0  0  0  0  0
    3.9979   25.6463   22.6283 C   0  0  0  0  0  0  0  0  0  0  0  0
    8.0539   27.2073   24.1877 N   0  0  0  0  0  0  0  0  0  0  0  0
   10.8153   22.0223   29.1562 C   0  0  0  0  0  0  0  0  0  0  0  0
    3.4432   28.4075   25.2184 O   0  0  0  0  0  0  0  0  0  0  0  0
    8.2177   24.4576   22.6352 N   0  0  0  0  0  0  0  0  0  0  0  0
    5.6649   28.7442   25.4983 N   0  0  0  0  0  0  0  0  0  0  0  0
    6.6567   27.1656   23.8983 C   0  0  0  0  0  0  0  0  0  0  0  0
    8.8529   23.5124   29.5419 C   0  0  0  0  0  0  0  0  0  0  0  0
    7.4689   24.6096   27.9369 C   0  0  0  0  0  0  0  0  0  0  0  0
    7.4452   24.1676   29.3084 C   0  0  0  0  0  0  0  0  0  0  0  0
    5.5379   27.8008   24.5458 C   0  0  0  0  0  0  0  0  0  0  0  0
    3.4993   26.7025   23.4078 C   0  0  0  0  0  0  0  0  0  0  0  0
    9.5441   27.7446   24.2744 C   0  0  0  0  0  0  0  0  0  0  0  0
    8.6287   21.1112   29.3966 O   0  0  0  0  0  0  0  0  0  0  0  0
    3.3390   24.6656   32.0111 C   0  0  0  0  0  0  0  0  0  0  0  0
  1 10  1  0
  1 42  1  0
  2  5  1  0
  2 10  2  0
  3 13  1  0
  3 20  2  0
  3 27  1  0
  4 30  1  0
  5  9  1  0
  5 15  1  0
  6  7  1  0
  6 15  1  0
  7 36  1  0
  8 30  1  0
  8 35  1  0
  8 41  1  0
  9 42  2  0
 11 16  2  0
 11 25  1  0
 12 31  1  0
 12 33  1  0
 13 23  1  0
 13 26  2  0
 14 28  1  0
 15 37  1  0
 16 26  1  0
 16 36  1  0
 17 40  1  0
 18 22  2  0
 18 28  1  0
 19 27  1  0
 19 32  2  0
 21 31  1  0
 21 38  2  0
 21 39  1  0
 22 34  1  0
 23 25  1  0
 23 32  1  0
 24 25  1  0
 24 40  1  0
 25 29  1  0
 28 39  1  0
 29 34  1  0
 29 40  1  0
 33 38  1  0
 34 38  1  0
 35 37  1  0
 36 37  2  0
M  END
>  <ID>  (1) 
conformer_0

$$$$
