
     RDKit          3D

 16 17  0  0  0  0  0  0  0  0999 V2000
    8.3569   23.7035   26.6903 C   0  0  0  0  0  0  0  0  0  0  0  0
    7.0475   24.8145   26.7803 C   0  0  0  0  0  0  0  0  0  0  0  0
    9.8579   23.6680   26.8712 O   0  0  0  0  0  0  0  0  0  0  0  0
    8.0213   23.0039   28.0087 O   0  0  0  0  0  0  0  0  0  0  0  0
    7.4525   24.5343   24.4572 C   0  0  0  0  0  0  0  0  0  0  0  0
    3.4747   27.6499   23.9999 C   0  0  0  0  0  0  0  0  0  0  0  0
    5.5780   25.9609   24.8917 N   0  0  0  0  0  0  0  0  0  0  0  0
    7.3422   24.8508   23.1250 C   0  0  0  0  0  0  0  0  0  0  0  0
    6.6000   25.1497   25.3752 C   0  0  0  0  0  0  0  0  0  0  0  0
    9.3851   23.2112   24.1957 C   0  0  0  0  0  0  0  0  0  0  0  0
    6.3070   25.6428   22.6387 C   0  0  0  0  0  0  0  0  0  0  0  0
    8.3669   23.5811   25.0458 N   0  0  0  0  0  0  0  0  0  0  0  0
    5.9197   24.6828   27.8283 C   0  0  0  0  0  0  0  0  0  0  0  0
    5.4193   26.1914   23.5731 C   0  0  0  0  0  0  0  0  0  0  0  0
    4.3571   26.9880   23.0834 N   0  0  0  0  0  0  0  0  0  0  0  0
    9.8765   22.1101   23.7554 N   0  0  0  0  0  0  0  0  0  0  0  0
  1  2  1  0
  1  3  1  0
  1  4  1  0
  1 12  1  0
  2  9  1  0
  2 13  1  0
  5  8  2  0
  5  9  1  0
  5 12  1  0
  6 15  1  0
  7  9  1  0
  7 14  2  0
  8 11  1  0
 10 12  1  0
 10 16  2  0
 11 14  1  0
 14 15  1  0
M  END
>  <ID>  (1) 
conformer_0

$$$$
