
     RDKit          3D

 26 28  0  0  0  0  0  0  0  0999 V2000
    4.5995   24.9265   30.2586 C   0  0  0  0  0  0  0  0  0  0  0  0
    9.9905   23.5587   26.5574 C   0  0  0  0  0  0  0  0  0  0  0  0
    7.5809   24.5151   23.8041 C   0  0  0  0  0  0  0  0  0  0  0  0
    4.8754   26.8122   25.4073 C   0  0  0  0  0  0  0  0  0  0  0  0
    8.5933   23.3493   27.3514 C   0  0  0  0  0  0  0  0  0  0  0  0
    3.8106   25.9067   21.5373 O   0  0  0  0  0  0  0  0  0  0  0  0
    5.0301   25.3396   28.7952 C   0  0  0  0  0  0  0  0  0  0  0  0
    4.1659   26.6856   28.9669 C   0  0  0  0  0  0  0  0  0  0  0  0
    8.0290   23.7617   22.7135 N   0  0  0  0  0  0  0  0  0  0  0  0
    8.3338   24.4748   24.9102 N   0  0  0  0  0  0  0  0  0  0  0  0
    9.0999   22.9629   22.9079 C   0  0  0  0  0  0  0  0  0  0  0  0
    5.4118   25.7021   23.3265 C   0  0  0  0  0  0  0  0  0  0  0  0
    8.5457   21.8114   29.0491 O   0  0  0  0  0  0  0  0  0  0  0  0
    9.3560   23.6241   25.0570 C   0  0  0  0  0  0  0  0  0  0  0  0
    8.2753   24.0055   29.5621 O   0  0  0  0  0  0  0  0  0  0  0  0
    3.9036   27.5725   24.7612 C   0  0  0  0  0  0  0  0  0  0  0  0
    9.5334   22.2147   21.8424 O   0  0  0  0  0  0  0  0  0  0  0  0
    4.2629   26.2912   22.7673 C   0  0  0  0  0  0  0  0  0  0  0  0
    8.5806   23.0524   28.7742 C   0  0  0  0  0  0  0  0  0  0  0  0
    5.5339   25.5942   27.3797 C   0  0  0  0  0  0  0  0  0  0  0  0
    3.5492   27.2602   23.4449 C   0  0  0  0  0  0  0  0  0  0  0  0
    9.7740   22.8203   24.0405 N   0  0  0  0  0  0  0  0  0  0  0  0
    4.9083   26.7955   26.7805 O   0  0  0  0  0  0  0  0  0  0  0  0
    6.3628   25.3076   23.8270 C   0  0  0  0  0  0  0  0  0  0  0  0
    4.0120   26.4050   30.4590 C   0  0  0  0  0  0  0  0  0  0  0  0
    5.7093   25.9854   24.6126 C   0  0  0  0  0  3  0  0  0  0  0  0
  1  7  1  0
  1 25  1  0
  2  5  1  0
  2 14  1  0
  3  9  2  0
  3 10  1  0
  3 24  1  0
  4 16  1  0
  4 23  1  0
  4 26  2  0
  5 19  1  0
  6 18  1  0
  7  8  1  0
  7 20  1  0
  8 25  1  0
  9 11  1  0
 10 14  2  0
 11 17  2  0
 11 22  1  0
 12 18  2  0
 12 24  2  0
 13 19  2  0
 14 22  1  0
 15 19  1  0
 16 21  2  0
 18 21  1  0
 20 23  1  0
 24 26  1  0
M  END
>  <ID>  (1) 
conformer_0

$$$$
