
     RDKit          3D

 32 35  0  0  0  0  0  0  0  0999 V2000
    8.0325   25.1370   25.1851 C   0  0  0  0  0  0  0  0  0  0  0  0
    4.5287   28.4180   26.9314 C   0  0  0  0  0  0  0  0  0  0  0  0
    3.7449   28.6185   28.0713 C   0  0  0  0  0  0  0  0  0  0  0  0
    8.0542   23.4387   29.6587 C   0  0  0  0  0  0  0  0  0  0  0  0
    4.3355   26.5584   21.8911 C   0  0  0  0  0  0  0  0  0  0  0  0
    6.2424   25.3981   22.7654 C   0  0  0  0  0  0  0  0  0  0  0  0
    4.0787   24.4640   23.0780 C   0  0  0  0  0  0  0  0  0  0  0  0
   10.2168   21.7202   22.8785 O   0  0  0  0  0  0  0  0  0  0  0  0
    8.6396   22.3938   28.8111 C   0  0  0  0  0  0  0  0  0  0  0  0
   10.1807   26.5706   27.2074 C   0  0  0  0  0  0  0  0  0  0  0  0
    5.7673   27.8860   27.0319 C   0  0  0  0  0  0  0  0  0  0  0  0
    5.7119   26.4819   22.0735 C   0  0  0  0  0  0  0  0  0  0  0  0
    4.2383   28.2356   29.3507 C   0  0  0  0  0  0  0  0  0  0  0  0
    8.2319   24.6191   23.9555 C   0  0  0  0  0  0  0  0  0  0  0  0
    9.7604   22.4029   28.0700 N   0  0  0  0  0  0  0  0  0  0  0  0
    8.0868   25.7976   28.1773 C   0  0  0  0  0  0  0  0  0  0  0  0
    9.1482   25.6179   27.2192 C   0  0  0  0  0  0  0  0  0  0  0  0
    9.1973   23.5428   23.9861 C   0  0  0  0  0  0  0  0  0  0  0  0
    6.3031   27.5791   28.3464 C   0  0  0  0  0  0  0  0  0  0  0  0
    9.9608   27.8478   27.7523 C   0  0  0  0  0  0  0  0  0  0  0  0
    8.7088   28.1442   28.3137 C   0  0  0  0  0  0  0  0  0  0  0  0
    9.0672   24.7156   26.0103 C   0  0  0  0  0  0  0  0  0  0  0  0
    7.4671   24.6889   29.0315 C   0  0  0  0  0  0  0  0  0  0  0  0
    7.7014   25.2948   22.8235 C   0  0  0  0  0  0  0  0  0  0  0  0
    9.3871   22.6692   22.8209 C   0  0  0  0  0  0  0  0  0  0  0  0
    3.5167   25.5391   22.3937 C   0  0  0  0  0  0  0  0  0  0  0  0
    8.5825   22.7250   21.8055 O   0  0  0  0  0  0  0  0  0  0  0  0
    5.4261   24.4060   23.2849 C   0  0  0  0  0  0  0  0  0  0  0  0
    8.3014   21.1988   29.1826 O   0  0  0  0  0  0  0  0  0  0  0  0
    5.5071   27.6844   29.4647 C   0  0  0  0  0  0  0  0  0  0  0  0
    7.6768   27.1644   28.4070 C   0  0  0  0  0  0  0  0  0  0  0  0
    9.7260   23.6191   25.2926 N   0  0  0  0  0  0  0  0  0  0  0  0
  1 14  1  0
  1 22  1  0
  2  3  2  0
  2 11  1  0
  3 13  1  0
  4  9  1  0
  4 23  1  0
  5 12  2  0
  5 26  1  0
  6 12  1  0
  6 24  1  0
  6 28  2  0
  7 26  2  0
  7 28  1  0
  8 25  2  0
  9 15  1  0
  9 29  2  0
 10 17  1  0
 10 20  1  0
 11 19  2  0
 13 30  2  0
 14 18  1  0
 14 24  1  0
 16 17  1  0
 16 23  1  0
 16 31  1  0
 17 22  1  0
 18 25  1  0
 18 32  1  0
 19 30  1  0
 19 31  1  0
 20 21  2  0
 21 31  1  0
 22 32  1  0
 25 27  1  0
M  END
>  <ID>  (1) 
conformer_0

$$$$
