
     RDKit          3D

 32 34  0  0  0  0  0  0  0  0999 V2000
    7.6358   27.8350   27.2466 S   0  0  0  0  0  4  0  0  0  0  0  0
    4.1741   27.0607   23.4779 C   0  0  0  0  0  0  0  0  0  0  0  0
    9.3596   22.9165   22.8220 C   0  0  0  0  0  0  0  0  0  0  0  0
    3.7295   25.2970   21.9072 O   0  0  0  0  0  0  0  0  0  0  0  0
    4.6674   26.8111   29.6531 C   0  0  0  0  0  0  0  0  0  0  0  0
    8.3447   25.9718   25.1224 C   0  0  0  0  0  0  0  0  0  0  0  0
    9.6713   23.7069   26.2097 C   0  0  0  0  0  0  0  0  0  0  0  0
    7.9750   22.1881   28.5703 O   0  0  0  0  0  0  0  0  0  0  0  0
    4.5943   25.9446   22.7120 C   0  0  0  0  0  0  0  0  0  0  0  0
    2.9515   27.6043   23.3432 O   0  0  0  0  0  0  0  0  0  0  0  0
    9.4459   23.6156   24.9780 C   0  0  0  0  0  0  0  0  0  0  0  0
    8.3237   27.0326   25.9907 N   0  0  0  0  0  0  0  0  0  0  0  0
    5.8726   25.4198   22.8395 C   0  0  0  0  0  0  0  0  0  0  0  0
    7.9251   24.8120   27.8493 C   0  0  0  0  0  0  0  0  0  0  0  0
    6.5863   26.9257   28.2527 C   0  0  0  0  0  0  0  0  0  0  0  0
    8.7188   28.2599   28.0791 O   0  0  0  0  0  1  0  0  0  0  0  0
    9.6068   27.8633   25.6501 C   0  0  0  0  0  0  0  0  0  0  0  0
    6.8375   25.5381   28.5193 C   0  0  0  0  0  0  0  0  0  0  0  0
    6.2126   27.0479   24.4870 C   0  0  0  0  0  0  0  0  0  0  0  0
    8.8004   24.0619   23.8244 C   0  0  0  0  0  0  0  0  0  0  0  0
    8.3499   23.5123   28.2634 C   0  0  0  0  0  0  0  0  0  0  0  0
    7.9816   25.3026   24.1136 C   0  0  0  0  0  0  0  0  0  0  0  0
    4.1727   24.8403   30.8771 F   0  0  0  0  0  0  0  0  0  0  0  0
    6.0208   24.8798   29.3834 C   0  0  0  0  0  0  0  0  0  0  0  0
    9.8786   21.7662   23.2693 O   0  0  0  0  0  0  0  0  0  0  0  0
    9.5239   23.1666   21.6061 O   0  0  0  0  0  0  0  0  0  0  0  0
    6.9273   28.9743   26.6703 O   0  0  0  0  0  1  0  0  0  0  0  0
    6.7057   25.9336   23.8154 C   0  0  0  0  0  0  0  0  0  0  0  0
    5.0252   27.6115   24.4142 C   0  0  0  0  0  0  0  0  0  0  0  0
    4.9474   25.5013   29.9669 C   0  0  0  0  0  0  0  0  0  0  0  0
    5.4613   27.5265   28.7924 C   0  0  0  0  0  0  0  0  0  0  0  0
    9.7261   23.3230   27.5600 C   0  0  0  0  0  0  0  0  0  0  0  0
  1 12  1  0
  1 15  1  0
  1 16  1  0
  1 27  1  0
  2  9  2  0
  2 10  1  0
  2 29  1  0
  3 20  1  0
  3 25  2  0
  3 26  1  0
  4  9  1  0
  5 30  1  0
  5 31  2  0
  6 12  1  0
  6 22  1  0
  7 11  1  0
  7 32  1  0
  8 21  1  0
  9 13  1  0
 11 20  2  0
 12 17  1  0
 13 28  1  0
 14 18  1  0
 14 21  1  0
 15 18  2  0
 15 31  1  0
 18 24  1  0
 19 28  1  0
 19 29  2  0
 20 22  1  0
 21 32  1  0
 22 28  2  3
 23 30  1  0
 24 30  2  0
M  END
>  <ID>  (1) 
conformer_0

$$$$
