
     RDKit          3D

 33 36  0  0  0  0  0  0  0  0999 V2000
    6.6780   25.5005   21.9897 C   0  0  0  0  0  0  0  0  0  0  0  0
    9.4204   23.4139   25.5582 N   0  0  0  0  0  0  0  0  0  0  0  0
    9.1111   24.6256   26.3468 C   0  0  0  0  0  0  0  0  0  0  0  0
    9.9431   22.2836   23.5670 N   0  0  0  0  0  0  0  0  0  0  0  0
    8.7866   23.0976   28.4232 C   0  0  0  0  0  0  0  0  0  0  0  0
    8.6463   26.9447   25.5038 O   0  0  0  0  0  0  0  0  0  0  0  0
    9.6818   23.4025   29.3160 O   0  0  0  0  0  0  0  0  0  0  0  0
    5.5199   25.9701   21.3520 N   0  0  0  0  0  0  0  0  0  0  0  0
   11.4185   25.2147   26.7076 O   0  0  0  0  0  0  0  0  0  0  0  0
    9.7706   20.9972   21.7099 O   0  0  0  0  0  0  0  0  0  0  0  0
    9.8022   22.3063   22.1927 C   0  0  0  0  0  0  0  0  0  0  0  0
    8.2657   21.8955   28.4903 N   0  0  0  0  0  0  0  0  0  0  0  0
    7.9767   25.1920   24.0236 C   0  0  0  0  0  0  0  0  0  0  0  0
    4.4075   24.8842   30.3070 O   0  0  0  0  0  0  0  0  0  0  0  0
    4.6846   26.9001   23.3416 C   0  0  0  0  0  0  0  0  0  0  0  0
    5.7312   27.0833   25.3515 C   0  0  0  0  0  0  0  0  0  0  0  0
    6.8596   25.8606   23.3346 C   0  0  0  0  0  0  0  0  0  0  0  0
    8.1507   24.0788   27.5312 C   0  0  0  0  0  0  0  0  0  0  0  0
    5.5084   24.3185   29.5859 N   0  0  0  0  0  0  0  0  0  0  0  0
    4.4498   27.7441   25.5260 C   0  0  0  0  0  0  0  0  0  0  0  0
    5.4716   26.5276   29.0974 C   0  0  0  0  0  0  0  0  0  0  0  0
    5.8469   26.5648   24.0140 C   0  0  0  0  0  0  0  0  0  0  0  0
    4.5217   26.5371   22.0383 N   0  0  0  0  0  0  0  0  0  0  0  0
    4.4225   26.2999   29.9663 C   0  0  0  0  0  0  0  0  0  0  0  0
    3.7888   27.6016   24.2420 C   0  0  0  0  0  0  0  0  0  0  0  0
    2.6190   27.9677   23.9905 O   0  0  0  0  0  0  0  0  0  0  0  0
    9.3368   23.3170   24.1971 C   0  0  0  0  0  0  0  0  0  0  0  0
    8.4196   25.5673   25.3713 C   0  0  0  0  0  0  0  0  0  0  0  0
   10.0700   26.2422   28.0557 O   0  0  0  0  0  0  0  0  0  0  0  0
    7.3022   25.2167   27.9992 C   0  0  0  0  0  0  0  0  0  0  0  0
    8.5957   24.1267   23.4127 O   0  0  0  0  0  0  0  0  0  0  0  0
    6.1573   25.3451   28.8713 C   0  0  0  0  0  0  0  0  0  0  0  0
   10.2388   25.3494   27.0844 C   0  0  0  0  0  0  0  0  0  0  0  0
  1  8  2  0
  1 17  1  0
  2  3  1  0
  2 27  2  0
  3 18  1  0
  3 28  1  0
  3 33  1  0
  4 11  1  0
  4 27  1  0
  5  7  2  0
  5 12  1  0
  5 18  1  0
  6 28  1  0
  8 23  1  0
  9 33  2  0
 10 11  1  0
 13 17  1  0
 13 28  1  0
 13 31  1  0
 14 19  1  0
 14 24  1  0
 15 22  1  0
 15 23  2  0
 15 25  1  0
 16 20  1  0
 16 22  1  0
 17 22  1  0
 18 30  1  0
 19 32  1  0
 20 25  1  0
 21 24  1  0
 21 32  1  0
 25 26  2  0
 27 31  1  0
 29 33  1  0
 30 32  2  3
M  END
>  <ID>  (1) 
conformer_0

$$$$
