
     RDKit          3D

 21 24  0  0  0  0  0  0  0  0999 V2000
    9.0575   20.8536   29.6721 O   0  0  0  0  0  0  0  0  0  0  0  0
    9.9425   21.9609   29.4257 C   0  0  0  0  0  0  0  0  0  0  0  0
    5.0611   25.5780   22.7992 C   0  0  0  0  0  0  0  0  0  0  0  0
    6.7714   25.4924   26.0055 C   0  0  0  0  0  0  0  0  0  0  0  0
   11.1636   21.8689   28.5614 C   0  0  0  0  0  0  0  0  0  0  0  0
    5.0637   26.6008   24.9384 N   0  0  0  0  0  0  0  0  0  0  0  0
    3.9556   26.3706   22.4732 C   0  0  0  0  0  0  0  0  0  0  0  0
    3.9800   27.4586   24.5349 C   0  0  0  0  0  0  0  0  0  0  0  0
    9.5931   23.3683   27.4283 C   0  0  0  0  0  0  0  0  0  0  0  0
    9.7381   22.9605   24.5497 O   0  0  0  0  0  0  0  0  0  0  0  0
    8.7633   23.7747   25.0818 C   0  0  0  0  0  0  0  0  0  0  0  0
    7.6650   24.9179   26.8712 C   0  0  0  0  0  0  0  0  0  0  0  0
    7.8325   24.3421   24.1693 C   0  0  0  0  0  0  0  0  0  0  0  0
    6.7853   25.1185   24.6154 C   0  0  0  0  0  0  0  0  0  0  0  0
    5.6561   25.7146   24.0078 C   0  0  0  0  0  0  0  0  0  0  0  0
    3.4510   27.3355   23.3061 N   0  0  0  0  0  0  0  0  0  0  0  0
    3.5227   28.3701   25.4653 N   0  0  0  0  0  0  0  0  0  0  0  0
    9.0258   23.0262   28.7783 C   0  0  0  0  0  0  0  0  0  0  0  0
    8.6823   24.0196   26.4570 C   0  0  0  0  0  0  0  0  0  0  0  0
    5.7486   26.4759   26.2717 O   0  0  0  0  0  0  0  0  0  0  0  0
   10.8282   22.6119   27.2742 N   0  0  0  0  0  0  0  0  0  0  0  0
  1  2  1  0
  2  5  1  0
  2 18  1  0
  3  7  1  0
  3 15  2  0
  4 12  1  0
  4 14  2  0
  4 20  1  0
  5 21  1  0
  6  8  1  0
  6 15  1  0
  6 20  1  0
  7 16  2  0
  8 16  1  0
  8 17  2  0
  9 18  1  0
  9 19  1  0
  9 21  1  0
 10 11  1  0
 11 13  2  0
 11 19  1  0
 12 19  2  0
 13 14  1  0
 14 15  1  0
M  END
>  <ID>  (1) 
conformer_0

$$$$
