
     RDKit          3D

 28 31  0  0  0  0  0  0  0  0999 V2000
    4.9845   25.9457   22.1322 O   0  0  0  0  0  0  0  0  0  0  0  0
    8.8233   23.0529   22.2349 O   0  0  0  0  0  0  0  0  0  0  0  0
    3.2046   27.4096   23.4944 C   0  0  0  0  0  0  0  0  0  0  0  0
    7.4117   25.3784   27.2188 C   0  0  0  0  0  0  0  0  0  0  0  0
   10.1028   23.1120   25.5934 O   0  0  0  0  0  0  0  0  0  0  0  0
    4.6924   26.1693   28.8559 C   0  0  0  0  0  0  0  0  0  0  0  0
    7.7643   23.8988   28.9381 N   0  0  0  0  0  0  0  0  0  0  0  0
    5.2047   28.0272   26.3332 O   0  0  0  0  0  0  0  0  0  0  0  0
    9.8052   22.3689   22.4749 C   0  0  0  0  0  0  0  0  0  0  0  0
    6.1621   25.4216   22.6805 C   0  0  0  0  0  0  0  0  0  0  0  0
    7.3557   25.3530   24.6601 C   0  0  0  0  0  0  0  0  0  0  0  0
    4.7161   27.7060   25.2200 C   0  0  0  0  0  0  0  0  0  0  0  0
    5.8637   25.3254   29.2331 C   0  0  0  0  0  0  0  0  0  0  0  0
    9.2597   22.2903   28.1393 O   0  0  0  0  0  0  0  0  0  0  0  0
    5.6632   24.3443   30.3315 C   0  0  0  0  0  0  0  0  0  0  0  0
    8.6821   23.4825   27.9252 C   0  0  0  0  0  0  0  0  0  0  0  0
    7.2571   25.2880   28.7061 C   0  0  0  0  0  0  0  0  0  0  0  0
    4.3700   26.8047   23.0511 C   0  0  0  0  0  0  0  0  0  0  0  0
    4.3608   24.5206   31.0355 C   0  0  0  0  0  0  0  0  0  0  0  0
    5.3095   26.8729   24.2602 C   0  0  0  0  0  0  0  0  0  0  0  0
    8.4238   24.2992   26.7299 C   0  0  0  0  0  0  0  0  0  0  0  0
    6.3293   25.9117   23.9800 C   0  0  0  0  0  0  0  0  0  0  0  0
    7.0158   24.5145   22.0993 C   0  0  0  0  0  0  0  0  0  0  0  0
    3.5502   28.1012   24.6977 N   0  0  0  0  0  0  0  0  0  0  0  0
    8.9746   23.7091   25.4065 C   0  0  0  0  0  0  0  0  0  0  0  0
    8.1479   24.3332   24.2510 C   0  0  0  0  0  0  0  0  0  0  0  0
    8.0289   23.9549   22.8778 C   0  0  0  0  0  0  0  0  0  0  0  0
   10.2129   21.5468   23.4419 O   0  0  0  0  0  0  0  0  0  0  0  0
  1 10  1  0
  1 18  1  0
  2  9  1  0
  2 27  1  0
  3 18  1  0
  3 24  1  0
  4 17  1  0
  4 21  1  0
  5 25  1  0
  6 13  1  0
  7 16  1  0
  7 17  1  0
  8 12  2  0
  9 28  1  0
 10 22  2  0
 10 23  1  0
 11 22  1  0
 11 26  2  0
 12 20  1  0
 12 24  1  0
 13 15  1  0
 13 17  1  0
 14 16  2  0
 15 19  1  0
 16 21  1  0
 18 20  2  0
 20 22  1  0
 21 25  1  0
 23 27  2  0
 25 26  1  0
 26 27  1  0
M  END
>  <ID>  (1) 
conformer_0

$$$$
