
     RDKit          3D

 27 29  0  0  0  0  0  0  0  0999 V2000
  -19.0187   20.1502   69.0376 C   0  0  0  0  0  0  0  0  0  0  0  0
  -20.3084   19.9230   68.3240 C   0  0  0  0  0  0  0  0  0  0  0  0
  -14.3868   23.5991   66.7273 C   0  0  0  0  0  0  0  0  0  0  0  0
  -17.1901   19.3477   73.1486 C   0  0  0  0  0  0  0  0  0  0  0  0
  -17.3678   18.2910   74.1510 C   0  0  0  0  0  0  0  0  0  0  0  0
  -13.9269   24.5448   65.9324 C   0  0  0  0  0  0  0  0  0  0  0  0
  -18.1338   20.5477   67.7113 C   0  0  0  0  0  0  0  0  0  0  0  0
  -16.7194   21.1860   69.3830 C   0  0  0  0  0  0  0  0  0  0  0  0
  -16.3358   23.8093   63.4223 C   0  0  0  0  0  0  0  0  0  0  0  0
  -17.7238   20.5119   71.0177 C   0  0  0  0  0  0  0  0  0  0  0  0
  -17.7215   22.6293   64.9218 O   0  0  0  0  0  0  0  0  0  0  0  0
  -17.2430   23.1415   64.7196 C   0  0  0  0  0  0  0  0  0  0  0  0
  -17.5161   21.6745   68.1813 C   0  0  0  0  0  0  0  0  0  0  0  0
  -16.7071   21.6554   74.3767 C   0  0  0  0  0  0  0  0  0  0  0  0
  -12.3359   22.7511   66.6681 C   0  0  0  0  0  0  0  0  0  0  0  0
  -17.1225   16.9545   74.2731 O   0  0  0  0  0  0  0  0  0  0  0  0
  -13.8892   22.3937   66.9922 C   0  0  0  0  0  0  0  0  0  0  0  0
  -17.7969   20.9607   72.2812 O   0  0  0  0  0  0  0  0  0  0  0  0
  -16.4993   21.3004   76.3221 O   0  0  0  0  0  0  0  0  0  0  0  0
  -14.6880   21.0407   68.1630 O   0  0  0  0  0  0  0  0  0  0  0  0
  -15.7449   18.7397   75.5464 O   0  0  0  0  0  0  0  0  0  0  0  0
  -15.2271   22.0311   74.1593 O   0  0  0  0  0  0  0  0  0  0  0  0
  -16.8358   20.0853   74.6862 C   0  0  0  0  0  0  0  0  0  0  0  0
  -16.1685   23.0181   68.7386 C   0  0  0  0  0  0  0  0  0  0  0  0
  -12.3840   23.9407   65.8592 C   0  0  0  0  0  0  0  0  0  0  0  0
  -15.8898   20.3631   70.2043 O   0  0  0  0  0  0  0  0  0  0  0  0
  -15.9347   21.7335   67.7984 C   0  0  0  0  0  0  0  0  0  0  0  0
  2  1  1  0
  5  4  1  0
  6  3  2  0
  7  1  1  0
  9  6  1  0
 12  9  1  0
 12 11  2  0
 13  7  1  0
 13  8  1  0
 16  5  1  0
 17  3  1  0
 17 15  1  0
 18  4  1  0
 18 10  1  0
 19 14  1  0
 20 17  1  0
 22 14  1  0
 23  4  1  0
 23  5  1  0
 23 14  1  0
 23 21  1  0
 25  6  1  0
 25 15  2  0
 26  8  1  0
 26 10  1  0
 27  8  1  0
 27 13  1  0
 27 20  1  0
 27 24  1  0
M  END
>  <ID>  (1) 
conformer_0

$$$$
