
     RDKit          3D

 28 32  0  0  0  0  0  0  0  0999 V2000
  -11.8506   23.5072   65.8740 C   0  0  0  0  0  0  0  0  0  0  0  0
  -19.3495   20.1182   68.3704 C   0  0  0  0  0  0  0  0  0  0  0  0
  -17.1895   18.3531   73.6531 C   0  0  0  0  0  0  0  0  0  0  0  0
  -20.2786   19.8878   68.8884 C   0  0  0  0  0  0  0  0  0  0  0  0
  -13.0142   24.5560   66.1798 C   0  0  0  0  0  0  0  0  0  0  0  0
  -17.5775   19.3976   72.8547 C   0  0  2  0  0  0  0  0  0  0  0  0
  -16.0222   21.9365   67.7390 C   0  0  1  0  0  0  0  0  0  0  0  0
  -17.5735   21.0492   67.2835 C   0  0  2  0  0  0  0  0  0  0  0  0
  -17.0082   23.6609   63.6138 C   0  0  0  0  0  0  0  0  0  0  0  0
  -16.8778   22.0375   69.4477 C   0  0  1  0  0  0  0  0  0  0  0  0
  -16.3966   21.5454   74.1432 C   0  0  0  0  0  0  0  0  0  0  0  0
  -13.6738   22.2657   67.0576 C   0  0  0  0  0  0  0  0  0  0  0  0
  -17.5933   23.2084   64.7922 C   0  0  1  0  0  0  0  0  0  0  0  0
  -12.2389   22.2010   66.3004 C   0  0  0  0  0  0  0  0  0  0  0  0
  -18.1291   21.1006   68.6379 C   0  0  2  0  0  0  0  0  0  0  0  0
  -18.1199   22.6974   65.0752 O   0  0  0  0  0  0  0  0  0  0  0  0
  -14.8352   21.1082   68.2659 O   0  0  0  0  0  0  0  0  0  0  0  0
  -16.2920   17.3367   75.0429 O   0  0  0  0  0  0  0  0  0  0  0  0
  -17.7848   20.5253   71.2882 O   0  0  0  0  0  0  0  0  0  0  0  0
  -18.3251   17.1174   73.2104 O   0  0  0  0  0  0  0  0  0  0  0  0
  -15.0389   22.2148   74.0855 O   0  0  0  0  0  0  0  0  0  0  0  0
  -15.8641   19.6271   75.7644 O   0  0  0  0  0  0  0  0  0  0  0  0
  -16.5751   19.7949   74.3430 C   0  0  2  0  0  0  0  0  0  0  0  0
  -17.3057   22.8991   68.1209 C   0  0  1  0  0  0  0  0  0  0  0  0
  -13.8831   23.8158   66.9374 C   0  0  0  0  0  0  0  0  0  0  0  0
  -18.2822   20.6391   70.6512 C   0  0  0  0  0  0  0  0  0  0  0  0
  -17.0243   21.3741   72.9927 O   0  0  0  0  0  0  0  0  0  0  0  0
  -15.6957   23.2923   68.7766 C   0  0  2  0  0  0  0  0  0  0  0  0
  4  2  2  3
  5  1  2  0
  6  3  1  0
  8  7  1  0
  8 13  1  6
 13  9  1  6
 14  1  1  0
 14 12  1  0
 15  2  1  1
 15  8  1  0
 15 10  1  0
 16 13  1  0
  7 17  1  1
 17 12  1  0
 18  3  1  0
  6 19  1  6
 20  3  1  0
 21 11  1  0
 23  3  1  0
 23  6  1  0
 23 11  1  0
 23 22  1  1
 24  7  1  6
 24 10  1  0
 25  5  1  0
 25 12  2  0
 10 26  1  1
 26 19  1  0
 27 11  1  0
 28  7  1  0
 28 10  1  0
 28 24  1  6
M  END
>  <ID>  (1) 
conformer_0

$$$$
