
     RDKit          3D

 24 24  0  0  0  0  0  0  0  0999 V2000
  -19.9177   20.2410   68.2060 C   0  0  0  0  0  0  0  0  0  0  0  0
  -17.3326   17.9610   73.8360 C   0  0  0  0  0  0  0  0  0  0  0  0
  -12.1395   23.2509   66.5680 C   0  0  0  0  0  0  0  0  0  0  0  0
  -19.1556   20.2346   68.8886 C   0  0  0  0  0  0  0  0  0  0  0  0
  -16.5523   19.8428   74.7427 C   0  0  1  0  0  0  0  0  0  0  0  0
  -18.1229   20.9252   68.0398 C   0  0  2  0  0  0  0  0  0  0  0  0
  -12.9045   24.3855   66.2504 C   0  0  0  0  0  0  0  0  0  0  0  0
  -15.5925   21.6193   68.0821 C   0  0  1  0  0  0  0  0  0  0  0  0
  -16.9969   21.8263   69.4496 C   0  0  0  0  0  0  0  0  0  0  0  0
  -17.2503   23.2681   64.1384 C   0  0  0  0  0  0  0  0  0  0  0  0
  -17.4279   22.1480   68.4934 C   0  0  2  0  0  0  0  0  0  0  0  0
  -13.6702   22.4517   67.0144 C   0  0  1  0  0  0  0  0  0  0  0  0
  -17.6108   22.4367   65.0518 O   0  0  0  0  0  0  0  0  0  0  0  0
  -16.3304   21.4649   74.2136 C   0  0  0  0  0  0  0  0  0  0  0  0
  -16.0659   17.5858   74.8427 O   0  0  0  0  0  0  0  0  0  0  0  0
  -17.3193   20.4817   71.8325 O   0  0  0  0  0  0  0  0  0  0  0  0
  -14.1646   24.1115   66.6930 C   0  0  0  0  0  0  0  0  0  0  0  0
  -15.0989   22.2248   74.0163 O   0  0  0  0  0  0  0  0  0  0  0  0
  -18.4427   16.6405   73.7603 O   0  0  0  0  0  0  0  0  0  0  0  0
  -16.2419   20.6224   76.2551 O   0  0  0  0  0  0  0  0  0  0  0  0
  -16.5342   23.7149   63.1204 C   0  0  0  0  0  0  0  0  0  0  0  0
  -17.2707   19.3344   73.0878 C   0  0  1  0  0  0  0  0  0  0  0  0
  -18.2048   20.5564   70.8181 C   0  0  0  0  0  0  0  0  0  0  0  0
  -16.0632   23.5343   68.1464 C   0  0  0  0  0  0  0  0  0  0  0  0
  4  1  2  3
  6  4  1  0
  7  3  1  0
 11  6  1  0
 11  8  1  0
 11  9  1  1
 12  3  1  1
 12  8  1  0
  6 13  1  6
 13 10  1  0
 14  5  1  0
 15  2  1  0
 17  7  2  0
 17 12  1  0
 18 14  1  0
 19  2  1  0
  5 20  1  1
 21 10  1  0
 22  2  1  0
 22  5  1  0
 22 16  1  6
 23  4  1  0
 23 16  1  0
  8 24  1  1
M  END
>  <ID>  (1) 
conformer_0

$$$$
