
     RDKit          3D

 26 28  0  0  0  0  0  0  0  0999 V2000
  -12.0926   23.3311   66.1115 C   0  0  0  0  0  0  0  0  0  0  0  0
  -18.9326   20.4393   68.4269 C   0  0  0  0  0  0  0  0  0  0  0  0
  -17.6425   19.5775   72.2932 C   0  0  0  0  0  0  0  0  0  0  0  0
  -20.0989   20.0156   68.6115 C   0  0  0  0  0  0  0  0  0  0  0  0
  -17.5261   18.3256   73.7160 C   0  0  0  0  0  0  0  0  0  0  0  0
  -12.8064   22.6373   67.0581 C   0  0  0  0  0  0  0  0  0  0  0  0
  -16.2111   21.3248   68.9575 C   0  0  1  0  0  0  0  0  0  0  0  0
  -17.9670   20.7601   70.2793 C   0  0  0  0  0  0  0  0  0  0  0  0
  -17.9767   21.1685   68.1075 C   0  0  1  0  0  0  0  0  0  0  0  0
  -17.2498   23.5270   64.3778 C   0  0  0  0  0  0  0  0  0  0  0  0
  -14.5787   23.4062   66.6811 C   0  0  0  0  0  0  0  0  0  0  0  0
  -16.8497   19.1780   74.4839 C   0  0  2  0  0  0  0  0  0  0  0  0
  -17.6182   22.8757   65.1988 O   0  0  0  0  0  0  0  0  0  0  0  0
  -15.0025   21.2210   67.4992 O   0  0  0  0  0  0  0  0  0  0  0  0
  -17.2955   20.5862   72.0398 O   0  0  0  0  0  0  0  0  0  0  0  0
  -16.0339   20.4440   76.4932 O   0  0  0  0  0  0  0  0  0  0  0  0
  -14.2653   22.2634   66.8574 C   0  0  0  0  0  0  0  0  0  0  0  0
  -18.1762   16.9732   73.5937 O   0  0  0  0  0  0  0  0  0  0  0  0
  -14.5713   22.6193   74.1456 O   0  0  0  0  0  0  0  0  0  0  0  0
  -16.6830   22.0358   66.9591 C   0  0  1  0  0  0  0  0  0  0  0  0
  -15.9797   18.1296   75.4711 O   0  0  0  0  0  0  0  0  0  0  0  0
  -16.6699   20.6297   74.9221 C   0  0  1  0  0  0  0  0  0  0  0  0
  -16.9631   22.7371   68.3787 C   0  0  2  0  0  0  0  0  0  0  0  0
  -14.4014   24.0375   65.4160 C   0  0  0  0  0  0  0  0  0  0  0  0
  -12.8413   24.1696   65.2714 C   0  0  0  0  0  0  0  0  0  0  0  0
  -15.9336   22.0624   74.4200 C   0  0  0  0  0  0  0  0  0  0  0  0
  4  2  2  3
  5  3  2  3
  6  1  2  0
  8  2  1  0
  9  2  1  6
  9  7  1  0
 12  5  1  0
 13 10  1  0
  7 14  1  6
 15  3  1  0
 15  8  1  0
 17  6  1  0
 17 11  2  0
 17 14  1  0
 18  5  1  0
 20  9  1  0
 20 13  1  6
 12 21  1  1
 22 12  1  0
 22 16  1  1
 23  7  1  1
 23  9  1  0
 23 20  1  0
 24 11  1  0
 25  1  1  0
 25 24  2  0
 26 19  1  0
 26 22  1  0
M  END
>  <ID>  (1) 
conformer_0

$$$$
