
     RDKit          3D

 25 26  0  0  0  0  0  0  0  0999 V2000
  -19.0902   20.1126   69.0389 C   0  0  0  0  0  0  0  0  0  0  0  0
  -13.3258   24.5785   66.4342 C   0  0  0  0  0  0  0  0  0  0  0  0
  -16.5567   20.3293   74.5467 C   0  0  0  0  0  0  0  0  0  0  0  0
  -16.1997   21.6942   74.1910 C   0  0  0  0  0  0  0  0  0  0  0  0
  -18.3128   20.5320   68.2526 C   0  0  0  0  0  0  0  0  0  0  0  0
  -17.6709   20.8314   70.5247 C   0  0  0  0  0  0  0  0  0  0  0  0
  -17.6278   22.0066   68.2588 C   0  0  0  0  0  0  0  0  0  0  0  0
  -14.1802   23.7162   66.7156 C   0  0  0  0  0  0  0  0  0  0  0  0
  -17.2564   18.4923   74.1029 C   0  0  0  0  0  0  0  0  0  0  0  0
  -13.2793   22.3569   67.0053 C   0  0  0  0  0  0  0  0  0  0  0  0
  -20.4570   20.0959   68.0296 C   0  0  0  0  0  0  0  0  0  0  0  0
  -17.6281   19.5298   72.8598 C   0  0  0  0  0  0  0  0  0  0  0  0
  -17.8303   22.8772   65.3581 O   0  0  0  0  0  0  0  0  0  0  0  0
  -17.0906   20.8879   71.9359 O   0  0  0  0  0  0  0  0  0  0  0  0
  -14.3474   20.9783   67.4853 O   0  0  0  0  0  0  0  0  0  0  0  0
  -14.5773   22.1500   73.8740 O   0  0  0  0  0  0  0  0  0  0  0  0
  -16.3567   20.9044   76.2608 O   0  0  0  0  0  0  0  0  0  0  0  0
  -16.8748   23.6541   64.1265 C   0  0  0  0  0  0  0  0  0  0  0  0
  -18.2342   16.9266   73.4491 O   0  0  0  0  0  0  0  0  0  0  0  0
  -15.9682   21.4471   68.7581 C   0  0  0  0  0  0  0  0  0  0  0  0
  -15.9098   18.2728   75.3146 O   0  0  0  0  0  0  0  0  0  0  0  0
  -12.0902   23.4447   66.5198 C   0  0  0  0  0  0  0  0  0  0  0  0
  -17.2506   22.4074   67.7506 C   0  0  0  0  0  0  0  0  0  0  0  0
  -16.0583   23.3479   68.4206 C   0  0  0  0  0  0  0  0  0  0  0  0
  -15.8951   23.8336   63.1838 C   0  0  0  0  0  0  0  0  0  0  0  0
  4  3  1  0
  5  1  1  0
  6  1  1  0
  7  5  1  0
  8  2  1  0
  9  3  1  0
 10  8  1  0
 11  1  1  0
 12  9  1  0
 14  6  1  0
 14 12  1  0
 15 10  1  0
 16  4  1  0
 17  3  1  0
 18  8  1  0
 18 13  1  0
 19  9  1  0
 20  7  1  0
 21  9  1  0
 22  2  2  0
 22 10  1  0
 23  7  1  0
 24 10  1  0
 24 20  1  0
 24 23  1  0
 25 18  1  0
M  END
>  <ID>  (1) 
conformer_0

$$$$
