
     RDKit          3D

 32 36  0  0  0  0  0  0  0  0999 V2000
  -16.6117   19.7242   75.0146 C   0  0  0  0  0  0  0  0  0  0  0  0
  -14.3146   23.8469   66.7960 C   0  0  0  0  0  0  0  0  0  0  0  0
  -19.4568   20.0052   69.3498 C   0  0  0  0  0  0  0  0  0  0  0  0
  -16.8917   22.7592   67.5226 C   0  0  0  0  0  0  0  0  0  0  0  0
  -16.3863   20.6960   73.8153 C   0  0  0  0  0  0  0  0  0  0  0  0
  -18.9187   20.5787   67.9616 C   0  0  0  0  0  0  0  0  0  0  0  0
  -17.6516   20.5958   68.2214 C   0  0  0  0  0  0  0  0  0  0  0  0
  -13.6401   24.5590   65.8704 C   0  0  0  0  0  0  0  0  0  0  0  0
  -16.6744   22.3837   69.8489 C   0  0  0  0  0  0  0  0  0  0  0  0
  -17.4948   23.2370   64.1713 C   0  0  0  0  0  0  0  0  0  0  0  0
  -16.2602   22.1531   74.2741 C   0  0  0  0  0  0  0  0  0  0  0  0
  -18.4762   22.7683   64.5161 O   0  0  0  0  0  0  0  0  0  0  0  0
  -13.9960   22.5151   67.0446 C   0  0  0  0  0  0  0  0  0  0  0  0
  -16.6872   23.7424   63.3028 C   0  0  0  0  0  0  0  0  0  0  0  0
  -17.5191   20.5252   72.3806 O   0  0  0  0  0  0  0  0  0  0  0  0
  -14.9938   22.1097   74.1299 O   0  0  0  0  0  0  0  0  0  0  0  0
  -15.7881   19.6709   75.8523 O   0  0  0  0  0  0  0  0  0  0  0  0
  -18.1762   17.3446   72.8119 O   0  0  0  0  0  0  0  0  0  0  0  0
  -20.5541   19.7621   68.3093 C   0  0  0  0  0  0  0  0  0  0  0  0
  -12.1836   23.9102   65.9893 C   0  0  0  0  0  0  0  0  0  0  0  0
  -16.5871   20.8485   70.6041 O   0  0  0  0  0  0  0  0  0  0  0  0
  -17.6343   20.0139   71.7951 C   0  0  0  0  0  0  0  0  0  0  0  0
  -18.1111   20.7517   69.8699 C   0  0  0  0  0  0  0  0  0  0  0  0
  -16.1915   17.4013   75.1762 O   0  0  0  0  0  0  0  0  0  0  0  0
  -16.8732   22.5093   65.9316 O   0  0  0  0  0  0  0  0  0  0  0  0
  -14.9245   21.2733   68.0891 O   0  0  0  0  0  0  0  0  0  0  0  0
  -15.7383   23.9078   68.0839 C   0  0  0  0  0  0  0  0  0  0  0  0
  -12.5107   22.6079   66.7441 C   0  0  0  0  0  0  0  0  0  0  0  0
  -17.1923   18.9378   73.4305 C   0  0  0  0  0  0  0  0  0  0  0  0
  -17.2073   17.8206   73.9465 C   0  0  0  0  0  0  0  0  0  0  0  0
  -15.8156   21.4715   68.6657 C   0  0  0  0  0  0  0  0  0  0  0  0
  -17.0499   22.6275   68.3386 C   0  0  0  0  0  0  0  0  0  0  0  0
  5  1  1  0
  6  3  1  0
  7  6  1  0
  8  2  2  0
 11  5  1  0
 12 10  2  0
 13  2  1  0
 14 10  1  0
 15  5  1  0
 16 11  1  0
 17  1  1  0
 19  3  1  0
 19  6  1  0
 20  8  1  0
 21  9  1  0
 22 15  1  0
 23  3  1  0
 23  7  1  0
 23 21  1  0
 23 22  1  0
 25  4  1  0
 25 10  1  0
 26 13  1  0
 27  2  1  0
 27  4  1  0
 28 13  1  0
 28 20  2  0
 29  1  1  0
 30 18  1  0
 30 24  1  0
 30 29  1  0
 31  9  1  0
 31 26  1  0
 32  4  1  0
 32  9  1  0
 32 31  1  0
M  END
>  <ID>  (1) 
conformer_0

$$$$
