
     RDKit          3D

 30 31  0  0  0  0  0  0  0  0999 V2000
  -19.2676   20.2463   68.6342 C   0  0  0  0  0  0  0  0  0  0  0  0
  -14.2626   23.5443   66.7784 C   0  0  0  0  0  0  0  0  0  0  0  0
  -17.7736   17.8692   73.5492 C   0  0  0  0  0  0  0  0  0  0  0  0
  -18.0201   20.9822   68.4749 C   0  0  0  0  0  0  0  0  0  0  0  0
  -17.6242   20.0113   73.0698 C   0  0  2  0  0  0  0  0  0  0  0  0
  -17.2247   21.9329   69.6301 C   0  0  2  0  0  0  0  0  0  0  0  0
  -13.7380   24.4861   66.1403 C   0  0  0  0  0  0  0  0  0  0  0  0
  -20.4307   19.9970   68.4084 C   0  0  0  0  0  0  0  0  0  0  0  0
  -18.2663   20.9613   70.5621 C   0  0  0  0  0  0  0  0  0  0  0  0
  -17.6144   23.2594   64.6669 C   0  0  1  0  0  0  0  0  0  0  0  0
  -16.8285   18.9502   74.2220 C   0  0  1  0  0  0  0  0  0  0  0  0
  -17.7458   22.8062   65.7881 O   0  0  0  0  0  0  0  0  0  0  0  0
  -12.2592   23.9967   65.9883 C   0  0  0  0  0  0  0  0  0  0  0  0
  -16.8559   23.0864   63.4482 C   0  0  0  0  0  0  0  0  0  0  0  0
  -14.3835   22.1477   73.8342 O   0  0  0  0  0  0  0  0  0  0  0  0
  -17.9917   20.5909   71.4023 O   0  0  0  0  0  0  0  0  0  0  0  0
  -15.9626   19.9220   75.8721 O   0  0  0  0  0  0  0  0  0  0  0  0
  -14.7759   20.7726   67.7563 O   0  0  0  0  0  0  0  0  0  0  0  0
  -18.3859   16.5960   73.7947 O   0  0  0  0  0  0  0  0  0  0  0  0
  -17.2163   22.7388   68.4975 C   0  0  2  0  0  0  0  0  0  0  0  0
  -13.8001   22.0861   66.8883 C   0  0  0  0  0  0  0  0  0  0  0  0
  -16.3654   20.7340   74.5109 C   0  0  1  0  0  0  0  0  0  0  0  0
  -18.5892   24.0563   64.1057 O   0  0  0  0  0  0  0  0  0  0  0  0
  -16.1193   17.6962   75.0165 O   0  0  0  0  0  0  0  0  0  0  0  0
  -15.7939   21.1302   68.2385 C   0  0  0  0  0  0  0  0  0  0  0  0
  -12.3033   22.6870   66.4710 C   0  0  0  0  0  0  0  0  0  0  0  0
  -17.0834   22.6599   67.1806 C   0  0  2  0  0  0  0  0  0  0  0  0
  -15.9336   23.6594   67.9879 C   0  0  2  0  0  0  0  0  0  0  0  0
  -16.8448   21.1532   72.6923 O   0  0  0  0  0  0  0  0  0  0  0  0
  -15.6027   22.1988   74.0866 C   0  0  0  0  0  0  0  0  0  0  0  0
  4  1  1  0
  6  4  1  6
  7  2  2  0
  8  1  2  3
  9  6  1  0
 11  3  1  0
 11  5  1  0
 12 10  1  0
 13  7  1  0
 10 14  1  6
 16  5  1  0
 16  9  1  0
 19  3  1  0
 20  6  1  1
 21  2  1  0
 22 11  1  0
 22 17  1  1
 23 10  1  0
 11 24  1  6
 25  6  1  0
 25 18  1  0
 26 13  2  0
 26 21  1  0
 27 12  1  6
 27 20  1  0
 28  2  1  1
 28 20  1  0
 28 27  1  0
  5 29  1  1
 30 15  1  0
 30 22  1  0
M  END
>  <ID>  (1) 
conformer_0

$$$$
