
     RDKit          3D

 29 30  0  0  0  0  0  0  0  0999 V2000
  -16.8076   19.3608   74.5020 C   0  0  0  0  0  0  0  0  0  0  0  0
  -13.5098   24.3809   66.0818 C   0  0  0  0  0  0  0  0  0  0  0  0
  -20.2687   19.9687   68.2161 C   0  0  0  0  0  0  0  0  0  0  0  0
  -19.3300   19.9100   69.0139 C   0  0  0  0  0  0  0  0  0  0  0  0
  -16.5153   20.7676   74.5516 C   0  0  0  0  0  0  0  0  0  0  0  0
  -17.4680   20.7698   68.0629 C   0  0  0  0  0  0  0  0  0  0  0  0
  -14.3482   23.6178   66.8251 C   0  0  0  0  0  0  0  0  0  0  0  0
  -17.1709   21.5477   69.9765 C   0  0  0  0  0  0  0  0  0  0  0  0
  -15.8168   21.3541   67.9731 C   0  0  0  0  0  0  0  0  0  0  0  0
  -17.3455   22.5289   65.2346 O   0  0  0  0  0  0  0  0  0  0  0  0
  -13.8299   22.1968   67.0357 C   0  0  0  0  0  0  0  0  0  0  0  0
  -17.1649   23.3405   64.6146 C   0  0  0  0  0  0  0  0  0  0  0  0
  -15.8415   22.0883   74.0763 C   0  0  0  0  0  0  0  0  0  0  0  0
  -18.5579   21.1931   68.2837 C   0  0  0  0  0  0  0  0  0  0  0  0
  -12.1487   23.7460   65.9338 C   0  0  0  0  0  0  0  0  0  0  0  0
  -16.4396   21.1384   72.4032 O   0  0  0  0  0  0  0  0  0  0  0  0
  -14.6408   22.1435   73.9850 O   0  0  0  0  0  0  0  0  0  0  0  0
  -15.7840   18.8684   75.5735 O   0  0  0  0  0  0  0  0  0  0  0  0
  -18.4385   17.4649   73.6219 O   0  0  0  0  0  0  0  0  0  0  0  0
  -16.8498   23.4411   63.0102 C   0  0  0  0  0  0  0  0  0  0  0  0
  -14.6782   21.0946   67.9160 O   0  0  0  0  0  0  0  0  0  0  0  0
  -17.0098   22.5043   68.7773 C   0  0  0  0  0  0  0  0  0  0  0  0
  -17.4917   18.2739   73.5518 C   0  0  0  0  0  0  0  0  0  0  0  0
  -16.4920   21.0322   76.2109 O   0  0  0  0  0  0  0  0  0  0  0  0
  -12.2335   22.4330   66.5828 C   0  0  0  0  0  0  0  0  0  0  0  0
  -17.4110   19.7631   72.5742 C   0  0  0  0  0  0  0  0  0  0  0  0
  -18.3212   20.5052   70.6381 C   0  0  0  0  0  0  0  0  0  0  0  0
  -15.9516   23.1372   68.3453 C   0  0  0  0  0  0  0  0  0  0  0  0
  -17.7961   20.4036   71.4193 O   0  0  0  0  0  0  0  0  0  0  0  0
  4  3  1  0
  5  1  1  0
  7  2  2  0
  9  6  1  0
 11  7  1  0
 12  7  1  0
 12 10  1  0
 13  5  1  0
 14  4  1  0
 14  6  1  0
 15  2  1  0
 17 13  1  0
 18  1  1  0
 20 12  1  0
 21  9  1  0
 21 11  1  0
 22  6  1  0
 22  8  1  0
 23  1  1  0
 23 19  1  0
 24  5  1  0
 25 11  2  0
 25 15  1  0
 26 16  2  0
 26 23  1  0
 27  8  1  0
 28  9  1  0
 28 22  1  0
 29 26  1  0
 29 27  1  0
M  END
>  <ID>  (1) 
conformer_0

$$$$
