
     RDKit          3D

 27 28  0  0  0  0  0  0  0  0999 V2000
  -20.7802   20.4212   67.9309 C   0  0  0  0  0  0  0  0  0  0  0  0
  -14.3181   23.8377   66.9574 C   0  0  0  0  0  0  0  0  0  0  0  0
  -17.4561   19.8631   72.6517 C   0  0  0  0  0  0  0  0  0  0  0  0
  -19.6500   20.0829   68.6784 C   0  0  0  0  0  0  0  0  0  0  0  0
  -16.9246   18.7272   74.1884 C   0  0  0  0  0  0  0  0  0  0  0  0
  -18.6192   20.8359   68.6081 C   0  0  0  0  0  0  0  0  0  0  0  0
  -17.8188   21.0103   70.6053 C   0  0  0  0  0  0  0  0  0  0  0  0
  -13.7131   24.7538   66.2655 C   0  0  0  0  0  0  0  0  0  0  0  0
  -16.9167   21.8693   69.5059 C   0  0  0  0  0  0  0  0  0  0  0  0
  -17.3145   23.1339   63.8784 C   0  0  0  0  0  0  0  0  0  0  0  0
  -16.3582   20.3340   74.5585 C   0  0  0  0  0  0  0  0  0  0  0  0
  -16.2421   23.7156   62.9187 C   0  0  0  0  0  0  0  0  0  0  0  0
  -17.8656   22.2817   64.7429 O   0  0  0  0  0  0  0  0  0  0  0  0
  -13.7974   22.3858   67.1239 C   0  0  0  0  0  0  0  0  0  0  0  0
  -14.8517   22.3200   74.0915 O   0  0  0  0  0  0  0  0  0  0  0  0
  -17.1296   22.6281   68.3239 C   0  0  0  0  0  0  0  0  0  0  0  0
  -17.0379   20.8577   71.9968 O   0  0  0  0  0  0  0  0  0  0  0  0
  -15.7772   19.4836   75.7414 O   0  0  0  0  0  0  0  0  0  0  0  0
  -12.3968   22.7178   66.4643 C   0  0  0  0  0  0  0  0  0  0  0  0
  -18.3153   17.0517   73.0903 O   0  0  0  0  0  0  0  0  0  0  0  0
  -16.3040   17.2686   74.9071 O   0  0  0  0  0  0  0  0  0  0  0  0
  -17.3999   18.0952   72.9465 C   0  0  0  0  0  0  0  0  0  0  0  0
  -15.9216   23.4788   68.2610 C   0  0  0  0  0  0  0  0  0  0  0  0
  -12.3548   24.0463   65.8802 C   0  0  0  0  0  0  0  0  0  0  0  0
  -15.5996   21.4700   68.2911 C   0  0  0  0  0  0  0  0  0  0  0  0
  -16.1188   21.8654   74.1059 C   0  0  0  0  0  0  0  0  0  0  0  0
  -17.3676   20.7996   67.8974 C   0  0  0  0  0  0  0  0  0  0  0  0
  4  1  1  0
  6  4  1  0
  8  2  2  0
  9  7  1  0
 11  5  1  0
 12 10  1  0
 13 10  1  0
 14  2  1  0
 16  9  1  0
 17  3  1  0
 17  7  1  0
 18 11  1  0
 19 14  1  0
 21  5  1  0
 22  3  1  0
 22  5  1  0
 22 20  1  0
 23  2  1  0
 23 16  1  0
 24  8  1  0
 24 19  2  0
 25  9  1  0
 26 11  1  0
 26 15  1  0
 27  6  1  0
 27 13  1  0
 27 16  1  0
 27 25  1  0
M  END
>  <ID>  (1) 
conformer_0

$$$$
