
     RDKit          3D

 31 33  0  0  0  0  0  0  0  0999 V2000
  -17.6601   17.8352   73.5432 C   0  0  0  0  0  0  0  0  0  0  0  0
  -19.5793   20.0438   68.9127 C   0  0  0  0  0  0  0  0  0  0  0  0
  -20.3571   20.1225   68.0936 C   0  0  0  0  0  0  0  0  0  0  0  0
  -11.8441   22.8484   66.3990 C   0  0  0  0  0  0  0  0  0  0  0  0
  -17.8914   20.9893   67.6501 C   0  0  0  0  0  0  0  0  0  0  0  0
  -16.5848   20.5229   74.6832 C   0  0  2  0  0  0  0  0  0  0  0  0
  -15.4401   21.2773   68.1125 C   0  0  0  0  0  0  0  0  0  0  0  0
  -13.6976   24.5818   66.5678 C   0  0  0  0  0  0  0  0  0  0  0  0
  -17.6219   19.7988   72.8107 C   0  0  2  0  0  0  0  0  0  0  0  0
  -17.4426   23.2427   64.2803 C   0  0  0  0  0  0  0  0  0  0  0  0
  -18.0620   20.7149   68.7509 C   0  0  1  0  0  0  0  0  0  0  0  0
  -13.2028   22.3169   67.0550 C   0  0  0  0  0  0  0  0  0  0  0  0
  -18.2107   22.2570   64.8617 O   0  0  0  0  0  0  0  0  0  0  0  0
  -17.6087   20.9472   71.1365 O   0  0  0  0  0  0  0  0  0  0  0  0
  -16.5331   21.8337   74.1926 C   0  0  1  0  0  0  0  0  0  0  0  0
  -15.1102   21.9561   74.1930 O   0  0  0  0  0  0  0  0  0  0  0  0
  -15.7233   19.7671   75.6845 O   0  0  0  0  0  0  0  0  0  0  0  0
  -18.5326   16.8053   74.0240 O   0  0  0  0  0  0  0  0  0  0  0  0
  -14.1802   23.4697   67.0763 C   0  0  0  0  0  0  0  0  0  0  0  0
  -17.0293   22.4581   68.5451 C   0  0  1  0  0  0  0  0  0  0  0  0
  -13.2642   21.0919   67.3277 O   0  0  0  0  0  0  0  0  0  0  0  0
  -16.9588   18.8616   74.2972 C   0  0  1  0  0  0  0  0  0  0  0  0
  -16.8146   23.5029   63.3213 C   0  0  0  0  0  0  0  0  0  0  0  0
  -17.0194   22.5974   66.7295 C   0  0  0  0  0  0  0  0  0  0  0  0
  -16.1705   17.6184   75.0906 O   0  0  0  0  0  0  0  0  0  0  0  0
  -15.8237   23.4226   68.2695 C   0  0  0  0  0  0  0  0  0  0  0  0
  -16.8767   21.6013   69.4579 C   0  0  2  0  0  0  0  0  0  0  0  0
  -18.0208   20.7295   70.8448 C   0  0  1  0  0  0  0  0  0  0  0  0
  -12.3444   24.3207   66.0039 C   0  0  0  0  0  0  0  0  0  0  0  0
  -17.0864   21.1631   72.7349 O   0  0  0  0  0  0  0  0  0  0  0  0
  -17.1379   23.0518   66.0029 O   0  0  0  0  0  0  0  0  0  0  0  0
  3  2  2  3
 11  2  1  0
 11  5  1  6
 12  4  2  0
 13 10  2  0
 15  6  1  0
 15 16  1  6
  6 17  1  6
 18  1  1  0
 19  8  2  0
 19 12  1  0
 20  5  1  0
 21 12  1  0
 22  1  1  0
 22  6  1  0
 22  9  1  0
 23 10  1  0
 20 24  1  1
 22 25  1  6
 26 19  1  0
 26 20  1  0
 27  7  1  6
 27 11  1  0
 27 20  1  0
 28  9  1  0
 28 14  1  1
 28 27  1  0
 29  4  1  0
 29  8  1  0
  9 30  1  1
 30 15  1  0
 31 10  1  0
 31 24  1  0
M  END
>  <ID>  (1) 
conformer_0

$$$$
