
     RDKit          3D

 28 29  0  0  0  0  0  0  0  0999 V2000
  -16.9925   18.6680   74.3177 C   0  0  2  0  0  0  0  0  0  0  0  0
  -19.2210   20.1723   68.3541 C   0  0  0  0  0  0  0  0  0  0  0  0
  -12.8141   24.1797   66.1605 C   0  0  0  0  0  0  0  0  0  0  0  0
  -17.8298   21.3321   69.9663 C   0  0  1  0  0  0  0  0  0  0  0  0
  -17.2788   21.4858   74.2573 C   0  0  0  0  0  0  0  0  0  0  0  0
  -16.3934   23.3492   68.3015 C   0  0  0  0  0  0  0  0  0  0  0  0
  -13.9107   23.7866   66.6118 C   0  0  2  0  0  0  0  0  0  0  0  0
  -18.0861   21.2094   68.2467 C   0  0  2  0  0  0  0  0  0  0  0  0
  -16.8501   23.3899   63.9031 C   0  0  0  0  0  0  0  0  0  0  0  0
  -16.9853   22.3191   68.8528 C   0  0  2  0  0  0  0  0  0  0  0  0
  -13.4082   22.1328   66.9217 C   0  0  0  0  0  0  0  0  0  0  0  0
  -15.8148   23.4995   63.0288 C   0  0  0  0  0  0  0  0  0  0  0  0
  -17.5144   18.2717   73.1895 C   0  0  1  0  0  0  0  0  0  0  0  0
  -17.6097   22.2149   64.3941 O   0  0  0  0  0  0  0  0  0  0  0  0
  -15.7893   19.2615   76.0128 O   0  0  0  0  0  0  0  0  0  0  0  0
  -17.3253   20.4845   72.3222 O   0  0  0  0  0  0  0  0  0  0  0  0
  -18.5147   16.9761   73.4657 O   0  0  0  0  0  0  0  0  0  0  0  0
  -16.5133   20.1905   74.9235 C   0  0  0  0  0  0  0  0  0  0  0  0
  -16.3125   17.2156   74.9234 O   0  0  0  0  0  0  0  0  0  0  0  0
  -11.9539   23.0404   66.6393 C   0  0  0  0  0  0  0  0  0  0  0  0
  -16.4359   24.6395   65.2413 O   0  0  0  0  0  0  0  0  0  0  0  0
  -20.3699   20.1548   68.1587 C   0  0  0  0  0  0  0  0  0  0  0  0
  -15.8169   21.1957   68.2835 C   0  0  0  0  0  0  0  0  0  0  0  0
  -12.9913   20.9114   67.0255 F   0  0  0  0  0  0  0  0  0  0  0  0
  -18.3484   21.4827   70.7924 O   0  0  0  0  0  0  0  0  0  0  0  0
  -16.3493   21.4343   76.1461 O   0  0  0  0  0  0  0  0  0  0  0  0
  -17.7117   20.0589   72.4470 C   0  0  1  0  0  0  0  0  0  0  0  0
  -16.0075   20.5304   69.9074 O   0  0  0  0  0  0  0  0  0  0  0  0
  7  3  1  0
  7  6  1  1
  8  2  1  1
  8  4  1  0
 10  4  1  0
 10  6  1  1
 10  8  1  0
 11  7  1  0
 12  9  1  0
 13  1  1  0
 14  9  2  0
 13 17  1  1
 18  1  1  0
 18  5  1  0
 18 15  1  0
  1 19  1  6
 20  3  1  0
 20 11  2  0
 21  7  1  0
 21  9  1  0
 22  2  2  3
 23 10  1  0
 24 11  1  0
  4 25  1  1
 26 18  1  0
 27  4  1  0
 27 13  1  0
 27 16  1  1
 28 23  1  0
M  END
>  <ID>  (1) 
conformer_0

$$$$
