
     RDKit          3D

 30 31  0  0  0  0  0  0  0  0999 V2000
  -14.2718   23.8785   66.9293 C   0  0  0  0  0  0  0  0  0  0  0  0
  -19.3112   19.9635   68.7801 C   0  0  0  0  0  0  0  0  0  0  0  0
  -20.4973   19.9630   68.4454 C   0  0  0  0  0  0  0  0  0  0  0  0
  -17.7117   17.9174   73.2874 C   0  0  0  0  0  0  0  0  0  0  0  0
  -16.8796   18.7226   74.2225 C   0  0  0  0  0  0  0  0  0  0  0  0
  -17.9762   20.6373   70.4416 C   0  0  0  0  0  0  0  0  0  0  0  0
  -17.2531   21.0387   68.3444 C   0  0  0  0  0  0  0  0  0  0  0  0
  -13.3348   24.7698   66.6295 C   0  0  0  0  0  0  0  0  0  0  0  0
  -18.2038   23.1067   63.4955 C   0  0  0  0  0  0  0  0  0  0  0  0
  -15.7220   21.5267   67.9496 C   0  0  0  0  0  0  0  0  0  0  0  0
  -16.4241   20.4030   74.4245 C   0  0  0  0  0  0  0  0  0  0  0  0
  -18.4701   21.0939   67.8674 C   0  0  0  0  0  0  0  0  0  0  0  0
  -17.8328   23.3751   64.4404 O   0  0  0  0  0  0  0  0  0  0  0  0
  -16.1310   20.2157   75.9087 O   0  0  0  0  0  0  0  0  0  0  0  0
  -14.8290   22.3568   74.1103 O   0  0  0  0  0  0  0  0  0  0  0  0
  -13.9601   22.5378   66.8240 C   0  0  0  0  0  0  0  0  0  0  0  0
  -18.1254   20.7123   71.1561 O   0  0  0  0  0  0  0  0  0  0  0  0
  -12.3970   22.7013   66.7774 C   0  0  0  0  0  0  0  0  0  0  0  0
  -18.3056   16.5332   73.8639 O   0  0  0  0  0  0  0  0  0  0  0  0
  -17.4667   19.8755   72.7697 C   0  0  0  0  0  0  0  0  0  0  0  0
  -16.1925   17.5982   75.1768 O   0  0  0  0  0  0  0  0  0  0  0  0
  -17.2279   22.9815   68.2338 C   0  0  0  0  0  0  0  0  0  0  0  0
  -15.1202   21.9021   66.7836 O   0  0  0  0  0  0  0  0  0  0  0  0
  -16.2009   22.0141   74.0778 C   0  0  0  0  0  0  0  0  0  0  0  0
  -16.4309   23.9245   63.8575 C   0  0  0  0  0  0  0  0  0  0  0  0
  -11.9484   23.9905   66.3319 C   0  0  0  0  0  0  0  0  0  0  0  0
  -16.1478   23.4929   62.8198 C   0  0  0  0  0  0  0  0  0  0  0  0
  -16.8195   20.9004   72.4474 O   0  0  0  0  0  0  0  0  0  0  0  0
  -17.1973   21.8370   69.4218 C   0  0  0  0  0  0  0  0  0  0  0  0
  -15.7059   23.3948   68.5329 C   0  0  0  0  0  0  0  0  0  0  0  0
  3  2  1  0
  5  4  1  0
  8  1  2  0
 10  7  1  0
 11  5  1  0
 12  2  1  0
 12  7  1  0
 13  9  1  0
 14 11  1  0
 16  1  1  0
 17  6  1  0
 18 16  1  0
 19  4  1  0
 20  5  1  0
 20 17  1  0
 21  5  1  0
 23 10  1  0
 23 16  1  0
 24 11  1  0
 24 15  1  0
 25  1  1  0
 25 13  1  0
 26  8  1  0
 26 18  2  0
 27 25  1  0
 28 20  2  0
 29  6  1  0
 29  7  1  0
 29 22  1  0
 30 10  1  0
 30 22  1  0
M  END
>  <ID>  (1) 
conformer_0

$$$$
