
     RDKit          3D

 32 33  0  0  0  0  0  0  0  0999 V2000
  -13.6954   24.6150   66.6137 C   0  0  0  0  0  0  0  0  0  0  0  0
  -17.5689   19.5833   72.7430 C   0  0  0  0  0  0  0  0  0  0  0  0
  -17.8975   20.3504   68.0511 C   0  0  0  0  0  0  0  0  0  0  0  0
  -18.0480   21.6384   68.4505 C   0  0  1  0  0  0  0  0  0  0  0  0
  -16.6122   20.9283   74.7096 C   0  0  2  0  0  0  0  0  0  0  0  0
  -15.3259   21.4614   68.4420 C   0  0  0  0  0  0  0  0  0  0  0  0
  -12.5303   24.4671   65.7544 C   0  0  0  0  0  0  0  0  0  0  0  0
  -17.2968   21.4869   69.7927 C   0  0  0  0  0  0  0  0  0  0  0  0
  -20.2314   19.9466   68.1941 C   0  0  0  0  0  0  0  0  0  0  0  0
  -16.1516   23.6834   63.6891 C   0  0  0  0  0  0  0  0  0  0  0  0
  -11.6875   23.3901   66.2992 C   0  0  0  0  0  0  0  0  0  0  0  0
  -16.2527   21.9593   74.0781 C   0  0  0  0  0  0  0  0  0  0  0  0
  -14.8374   22.3866   74.1139 O   0  0  0  0  0  0  0  0  0  0  0  0
  -17.3760   19.8502   71.2271 O   0  0  0  0  0  0  0  0  0  0  0  0
  -16.2489   17.2925   74.5735 O   0  0  0  0  0  0  0  0  0  0  0  0
  -18.1317   23.1643   65.4383 O   0  0  0  0  0  0  0  0  0  0  0  0
  -14.2780   21.1481   67.3907 O   0  0  0  0  0  0  0  0  0  0  0  0
  -17.1658   23.4725   64.6540 C   0  0  0  0  0  0  0  0  0  0  0  0
  -16.8829   23.1065   68.2697 C   0  0  0  0  0  0  0  0  0  0  0  0
  -13.9626   22.3309   66.7367 C   0  0  0  0  0  0  0  0  0  0  0  0
  -16.3148   21.3189   76.4532 O   0  0  0  0  0  0  0  0  0  0  0  0
  -18.3798   17.0661   73.0861 O   0  0  0  0  0  0  0  0  0  0  0  0
  -16.6247   19.3126   74.2963 C   0  0  0  0  0  0  0  0  0  0  0  0
  -17.6374   18.2211   73.2936 C   0  0  2  0  0  0  0  0  0  0  0  0
  -14.2521   23.4242   66.5206 C   0  0  0  0  0  0  0  0  0  0  0  0
  -12.4417   22.2356   66.6836 C   0  0  0  0  0  0  0  0  0  0  0  0
  -15.6296   23.2806   68.4728 C   0  0  2  0  0  0  0  0  0  0  0  0
  -17.0895   21.2695   72.3334 O   0  0  0  0  0  0  0  0  0  0  0  0
  -16.8925   21.9757   67.6328 C   0  0  2  0  0  0  0  0  0  0  0  0
  -15.8050   19.1540   75.6813 O   0  0  0  0  0  0  0  0  0  0  0  0
  -18.3800   20.2092   70.5911 C   0  0  2  0  0  0  0  0  0  0  0  0
  -19.4037   19.9909   69.1393 C   0  0  0  0  0  0  0  0  0  0  0  0
  4  3  1  6
  7  1  1  0
  8  4  1  0
 10  1  1  0
 11  7  1  0
 12  5  1  0
 13 12  1  0
 14  2  1  0
 18 10  1  0
 18 16  1  0
 20 17  1  0
  5 21  1  1
 23  5  1  0
 23 15  1  0
 24  2  1  0
 24 22  1  1
 24 23  1  0
 25  1  1  0
 25 20  1  0
 26 11  1  0
 27  6  1  0
 27 19  1  0
 27 26  1  6
 28  2  2  0
 29  4  1  0
 29  6  1  1
 29 19  1  0
 30 23  1  0
 31  8  1  0
 31 14  1  6
 32  3  1  0
 32  9  2  3
 32 31  1  0
M  END
>  <ID>  (1) 
conformer_0

$$$$
