
     RDKit          3D

 30 34  0  0  0  0  0  0  0  0999 V2000
  -20.1651   20.1513   69.2969 C   0  0  0  0  0  0  0  0  0  0  0  0
  -16.6682   19.5090   74.6276 C   0  0  0  0  0  0  0  0  0  0  0  0
  -13.9456   23.7773   67.1989 C   0  0  0  0  0  0  0  0  0  0  0  0
  -18.5606   20.5903   68.9133 C   0  0  0  0  0  0  0  0  0  0  0  0
  -16.8707   20.9693   73.6865 C   0  0  0  0  0  0  0  0  0  0  0  0
  -15.3989   21.1359   67.9937 C   0  0  0  0  0  0  0  0  0  0  0  0
  -14.1573   24.5206   66.2231 C   0  0  0  0  0  0  0  0  0  0  0  0
  -17.7440   20.9052   67.6022 C   0  0  0  0  0  0  0  0  0  0  0  0
  -16.8237   21.3916   69.2839 C   0  0  1  0  0  0  0  0  0  0  0  0
  -17.3089   23.3761   63.8733 C   0  0  0  0  0  0  0  0  0  0  0  0
  -16.3529   22.1774   74.1585 C   0  0  0  0  0  0  0  0  0  0  0  0
  -12.4457   22.6376   66.7868 C   0  0  2  0  0  0  0  0  0  0  0  0
  -18.0038   22.4355   64.8660 O   0  0  0  0  0  0  0  0  0  0  0  0
  -16.3830   23.7445   62.9415 C   0  0  0  0  0  0  0  0  0  0  0  0
  -14.9296   22.5760   74.1161 O   0  0  0  0  0  0  0  0  0  0  0  0
  -17.6271   22.3563   68.4382 C   0  0  2  0  0  0  0  0  0  0  0  0
  -16.0041   20.2764   75.8263 O   0  0  0  0  0  0  0  0  0  0  0  0
  -17.5654   21.0156   71.9345 O   0  0  0  0  0  0  0  0  0  0  0  0
  -18.3063   16.6015   73.8229 O   0  0  0  0  0  0  0  0  0  0  0  0
  -16.1281   20.5409   70.0743 O   0  0  0  0  0  0  0  0  0  0  0  0
  -16.0520   17.8388   75.1440 O   0  0  0  0  0  0  0  0  0  0  0  0
  -17.8268   20.7909   70.8623 C   0  0  0  0  0  0  0  0  0  0  0  0
  -17.2700   22.5856   66.5721 C   0  0  2  0  0  0  0  0  0  0  0  0
  -11.8552   23.5902   65.9472 C   0  0  0  0  0  0  0  0  0  0  0  0
  -13.7983   22.3640   67.0289 C   0  0  2  0  0  0  0  0  0  0  0  0
  -16.2146   23.2829   67.9872 C   0  0  0  0  0  0  0  0  0  0  0  0
  -17.4203   19.1115   72.8047 C   0  0  0  0  0  0  0  0  0  0  0  0
  -17.3644   17.9074   73.8630 C   0  0  0  0  0  0  0  0  0  0  0  0
  -19.8266   20.1211   67.8984 C   0  0  0  0  0  0  0  0  0  0  0  0
  -12.9592   24.4500   65.3411 C   0  0  0  0  0  0  0  0  0  0  0  0
  4  1  1  0
  5  2  2  3
  7  3  2  0
  8  4  1  0
  9  4  1  0
  9  6  1  6
 11  5  1  0
 12  3  1  0
 13 10  1  0
 14 10  1  0
 15 11  1  0
 16  8  1  6
 16  9  1  0
 17  2  1  0
 18  5  1  0
 20  9  1  0
 22 18  1  0
 22 20  1  0
 23 13  1  6
 23 16  1  0
 12 24  1  6
 25  3  1  0
 25  6  1  1
 25 12  1  0
 26 16  1  0
 26 23  1  0
 28  2  1  0
 28 19  1  0
 28 21  1  0
 28 27  1  0
 29  1  1  0
 29  4  1  0
 30  7  1  0
 30 24  2  0
M  END
>  <ID>  (1) 
conformer_0

$$$$
