
     RDKit          3D

 27 27  0  0  0  0  0  0  0  0999 V2000
  -17.3765   17.5463   73.7395 C   0  0  0  0  0  0  0  0  0  0  0  0
  -19.2067   20.2686   68.8594 C   0  0  0  0  0  0  0  0  0  0  0  0
  -14.1290   23.9818   66.2955 C   0  0  1  0  0  0  0  0  0  0  0  0
  -17.1858   18.6108   73.1025 C   0  0  0  0  0  0  0  0  0  0  0  0
  -17.1574   22.0816   68.3912 C   0  0  0  0  0  0  0  0  0  0  0  0
  -17.6616   21.8440   69.6936 C   0  0  1  0  0  0  0  0  0  0  0  0
  -17.9863   20.5115   68.1365 C   0  0  0  0  0  0  0  0  0  0  0  0
  -12.9437   24.3837   65.9233 C   0  0  0  0  0  0  0  0  0  0  0  0
  -18.2302   20.8438   71.2205 C   0  0  0  0  0  0  0  0  0  0  0  0
  -16.5958   19.8230   73.9380 C   0  0  1  0  0  0  0  0  0  0  0  0
  -16.3182   23.7206   63.3521 C   0  0  0  0  0  0  0  0  0  0  0  0
  -13.7337   22.4014   66.9007 C   0  0  1  0  0  0  0  0  0  0  0  0
  -17.6299   22.4772   64.8521 O   0  0  0  0  0  0  0  0  0  0  0  0
  -17.3102   23.3698   64.2203 C   0  0  0  0  0  0  0  0  0  0  0  0
  -15.5316   19.6004   74.9619 O   0  0  0  0  0  0  0  0  0  0  0  0
  -17.4316   20.9613   71.8448 O   0  0  0  0  0  0  0  0  0  0  0  0
  -18.6032   17.7406   72.8538 O   0  0  0  0  0  0  0  0  0  0  0  0
  -20.2899   19.9199   68.6304 C   0  0  0  0  0  0  0  0  0  0  0  0
  -16.6900   21.1721   73.6814 C   0  0  2  0  0  0  0  0  0  0  0  0
  -16.1410   17.2356   74.8211 O   0  0  0  0  0  0  0  0  0  0  0  0
  -14.6701   22.2303   73.8256 O   0  0  0  0  0  0  0  0  0  0  0  0
  -12.2479   23.0512   66.3144 C   0  0  0  0  0  0  0  0  0  0  0  0
  -15.7567   21.2871   68.6025 C   0  0  0  0  0  0  0  0  0  0  0  0
  -14.5990   21.4045   67.9373 O   0  0  0  0  0  0  0  0  0  0  0  0
  -16.0405   23.3151   68.4592 C   0  0  0  0  0  0  0  0  0  0  0  0
  -15.5633   22.5446   74.0076 C   0  0  0  0  0  0  0  0  0  0  0  0
  -16.6978   22.2097   67.3200 C   0  0  0  0  0  0  0  0  0  0  0  0
  4  1  1  0
  6  5  1  0
  7  2  1  0
  6  7  1  6
  8  3  1  0
  9  6  1  0
 10  4  1  0
  3 11  1  6
 12  3  1  0
 14 11  1  0
 14 13  2  0
 10 15  1  6
 16  9  1  0
 17  1  1  0
 18  2  2  3
 19 10  1  0
 19 16  1  0
 20  1  1  0
 22  8  2  0
 22 12  1  0
 23  5  1  0
 12 24  1  1
 24 23  1  0
 25  5  1  0
 19 26  1  6
 26 21  1  0
 27  5  1  0
M  END
>  <ID>  (1) 
conformer_0

$$$$
