
     RDKit          3D

 28 29  0  0  0  0  0  0  0  0999 V2000
  -12.0983   23.2782   66.2519 C   0  0  0  0  0  0  0  0  0  0  0  0
  -17.6248   18.9517   73.1304 C   0  0  0  0  0  0  0  0  0  0  0  0
  -20.3813   19.9945   68.2999 C   0  0  0  0  0  0  0  0  0  0  0  0
  -19.2318   20.1699   68.8143 C   0  0  0  0  0  0  0  0  0  0  0  0
  -17.1564   18.4008   73.8503 C   0  0  0  0  0  0  0  0  0  0  0  0
  -18.1201   20.5543   68.0294 C   0  0  0  0  0  0  0  0  0  0  0  0
  -17.4016   21.7473   69.6573 C   0  0  0  0  0  0  0  0  0  0  0  0
  -13.2647   24.2451   65.9453 C   0  0  0  0  0  0  0  0  0  0  0  0
  -16.4182   24.0064   63.0811 C   0  0  0  0  0  0  0  0  0  0  0  0
  -15.8476   21.5104   67.9499 C   0  0  2  0  0  0  0  0  0  0  0  0
  -17.2192   23.6780   64.4544 C   0  0  0  0  0  0  0  0  0  0  0  0
  -16.5270   20.0068   74.6374 C   0  0  2  0  0  0  0  0  0  0  0  0
  -16.6535   20.7905   72.7015 O   0  0  0  0  0  0  0  0  0  0  0  0
  -13.3230   22.1149   66.9242 C   0  0  1  0  0  0  0  0  0  0  0  0
  -18.6222   23.2748   64.4415 O   0  0  0  0  0  0  0  0  0  0  0  0
  -16.2224   17.1811   74.7809 O   0  0  0  0  0  0  0  0  0  0  0  0
  -17.4641   21.9074   68.4877 C   0  0  2  0  0  0  0  0  0  0  0  0
  -14.8218   22.2892   74.1782 O   0  0  0  0  0  0  0  0  0  0  0  0
  -18.6215   17.1459   73.2765 O   0  0  0  0  0  0  0  0  0  0  0  0
  -14.1610   23.5100   66.6151 C   0  0  1  0  0  0  0  0  0  0  0  0
  -16.3521   21.3489   76.3474 O   0  0  0  0  0  0  0  0  0  0  0  0
  -16.1956   21.6632   74.4029 C   0  0  0  0  0  0  0  0  0  0  0  0
  -14.0849   20.8237   67.6837 O   0  0  0  0  0  0  0  0  0  0  0  0
  -16.4730   23.2098   68.1643 C   0  0  0  0  0  0  0  0  0  0  0  0
  -18.0471   20.9262   71.4245 O   0  0  0  0  0  0  0  0  0  0  0  0
  -17.1065   22.7499   65.4951 O   0  0  0  0  0  0  0  0  0  0  0  0
  -17.9140   20.6776   71.2859 C   0  0  1  0  0  0  0  0  0  0  0  0
  -15.6719   19.1296   75.7641 O   0  0  0  0  0  0  0  0  0  0  0  0
  4  3  2  3
  5  2  1  0
  6  4  1  0
  8  1  2  0
 11  9  1  0
 12  5  1  0
 14  1  1  0
 14 10  1  0
 15 11  1  0
 16  5  1  0
 17  6  1  6
 17  7  1  0
 17 10  1  0
 19  5  1  0
 20  8  1  0
 20 11  1  6
 20 14  1  0
 22 12  1  0
 22 13  1  0
 22 18  1  0
 22 21  1  0
 14 23  1  6
 10 24  1  1
 24 17  1  0
 26 11  1  0
 27  7  1  0
 27 13  1  0
 27 25  1  1
 12 28  1  6
M  END
>  <ID>  (1) 
conformer_0

$$$$
