
     RDKit          3D

 26 29  0  0  0  0  0  0  0  0999 V2000
  -13.9776   23.9462   66.5940 C   0  0  0  0  0  0  0  0  0  0  0  0
  -19.5826   20.0404   68.8129 C   0  0  0  0  0  0  0  0  0  0  0  0
  -16.6636   19.8404   74.6745 C   0  0  0  0  0  0  0  0  0  0  0  0
  -18.1671   20.6301   68.1581 C   0  0  0  0  0  0  0  0  0  0  0  0
  -17.4012   19.4976   72.9719 C   0  0  0  0  0  0  0  0  0  0  0  0
  -18.1024   20.8357   70.7671 C   0  0  0  0  0  0  0  0  0  0  0  0
  -12.8240   24.3122   65.9853 C   0  0  0  0  0  0  0  0  0  0  0  0
  -17.3479   21.8774   69.4353 C   0  0  0  0  0  0  0  0  0  0  0  0
  -20.5395   20.2949   68.1459 C   0  0  0  0  0  0  0  0  0  0  0  0
  -16.4909   23.7075   63.0853 C   0  0  0  0  0  0  0  0  0  0  0  0
  -13.4516   22.2815   66.9256 C   0  0  0  0  0  0  0  0  0  0  0  0
  -17.2364   23.3118   64.2864 C   0  0  0  0  0  0  0  0  0  0  0  0
  -17.7461   22.4868   64.7053 O   0  0  0  0  0  0  0  0  0  0  0  0
  -16.4551   21.4520   74.2654 C   0  0  0  0  0  0  0  0  0  0  0  0
  -17.7366   20.6618   71.0664 O   0  0  0  0  0  0  0  0  0  0  0  0
  -15.8481   20.1171   75.9383 O   0  0  0  0  0  0  0  0  0  0  0  0
  -15.0349   22.0499   74.1960 O   0  0  0  0  0  0  0  0  0  0  0  0
  -18.2662   16.9086   73.6390 O   0  0  0  0  0  0  0  0  0  0  0  0
  -17.3239   22.1180   68.1944 C   0  0  0  0  0  0  0  0  0  0  0  0
  -11.9681   23.1669   66.3215 C   0  0  0  0  0  0  0  0  0  0  0  0
  -16.0951   17.7536   75.2360 O   0  0  0  0  0  0  0  0  0  0  0  0
  -17.3512   18.2916   73.8909 C   0  0  0  0  0  0  0  0  0  0  0  0
  -16.1437   23.2875   68.3247 C   0  0  0  0  0  0  0  0  0  0  0  0
  -15.8957   21.6106   67.8778 C   0  0  0  0  0  0  0  0  0  0  0  0
  -14.8222   21.1320   68.2745 O   0  0  0  0  0  0  0  0  0  0  0  0
  -17.1342   20.9623   72.7191 O   0  0  0  0  0  0  0  0  0  0  0  0
  4  2  1  0
  5  3  1  0
  6  5  1  0
  7  1  2  0
  8  4  1  0
  8  6  1  0
  9  2  1  0
 11  1  1  0
 12 10  1  0
 13 12  1  0
 14  3  1  0
 15  6  1  0
 16  3  1  0
 17 14  1  0
 19  8  1  0
 19 13  1  0
 20  7  1  0
 20 11  1  0
 22  3  1  0
 22  5  1  0
 22 18  1  0
 22 21  1  0
 23 19  1  0
 24 19  1  0
 24 23  1  0
 25 11  1  0
 25 24  1  0
 26  5  1  0
 26 14  1  0
M  END
>  <ID>  (1) 
conformer_0

$$$$
