
     RDKit          3D

 27 27  0  0  0  0  0  0  0  0999 V2000
  -17.2637   18.1347   73.6718 C   0  0  0  0  0  0  0  0  0  0  0  0
  -19.4285   20.1855   68.7784 C   0  0  0  0  0  0  0  0  0  0  0  0
  -13.4858   24.6065   65.9094 C   0  0  0  0  0  0  0  0  0  0  0  0
  -18.0836   20.8220   68.2035 C   0  0  2  0  0  0  0  0  0  0  0  0
  -16.4765   20.0552   74.3950 C   0  0  2  0  0  0  0  0  0  0  0  0
  -12.1252   23.7437   65.7890 C   0  0  0  0  0  0  0  0  0  0  0  0
  -17.0203   21.3929   69.7182 C   0  0  2  0  0  0  0  0  0  0  0  0
  -20.4538   20.2398   68.2433 C   0  0  0  0  0  0  0  0  0  0  0  0
  -18.2744   20.5294   71.5211 C   0  0  0  0  0  0  0  0  0  0  0  0
  -12.4719   22.5572   66.5060 C   0  0  0  0  0  0  0  0  0  0  0  0
  -16.4323   21.7270   74.0710 C   0  0  1  0  0  0  0  0  0  0  0  0
  -17.0752   23.7662   64.2338 C   0  0  0  0  0  0  0  0  0  0  0  0
  -16.4297   23.8985   63.1821 C   0  0  0  0  0  0  0  0  0  0  0  0
  -15.1110   20.5434   67.9192 O   0  0  0  0  0  0  0  0  0  0  0  0
  -17.3087   22.4369   68.2960 C   0  0  1  0  0  0  0  0  0  0  0  0
  -17.5585   22.3332   64.6831 O   0  0  0  0  0  0  0  0  0  0  0  0
  -16.3280   17.2993   74.7984 O   0  0  0  0  0  0  0  0  0  0  0  0
  -14.7476   22.3043   74.1494 O   0  0  0  0  0  0  0  0  0  0  0  0
  -16.7868   20.9982   72.4620 O   0  0  0  0  0  0  0  0  0  0  0  0
  -17.6836   19.3279   73.2937 C   0  0  0  0  0  0  0  0  0  0  0  0
  -18.8922   17.5781   73.2253 O   0  0  0  0  0  0  0  0  0  0  0  0
  -14.0776   23.8228   66.6611 C   0  0  2  0  0  0  0  0  0  0  0  0
  -16.4762   23.3684   68.2628 C   0  0  0  0  0  0  0  0  0  0  0  0
  -15.8475   19.4729   75.7257 O   0  0  0  0  0  0  0  0  0  0  0  0
  -15.6418   21.2763   68.3720 C   0  0  0  0  0  0  0  0  0  0  0  0
  -18.2287   21.4356   71.1169 O   0  0  0  0  0  0  0  0  0  0  0  0
  -17.5762   24.5858   64.8429 O   0  0  0  0  0  0  0  0  0  0  0  0
  4  2  1  1
  6  3  2  3
  7  4  1  0
  8  2  2  3
 10  6  1  0
 11  5  1  0
 13 12  1  0
 15  4  1  0
 15  7  1  0
 16 12  1  0
 17  1  1  0
 11 18  1  6
 19  9  1  0
 19 11  1  0
 20  1  1  0
 20  5  1  0
 21  1  1  0
 22  3  1  0
 22 12  1  0
 15 23  1  6
 22 23  1  1
  5 24  1  1
  7 25  1  1
 25 14  1  0
 26  7  1  0
 26  9  1  0
 27 12  1  0
M  END
>  <ID>  (1) 
conformer_0

$$$$
