
     RDKit          3D

 28 28  0  0  0  0  0  0  0  0999 V2000
  -17.8299   17.9192   73.8586 C   0  0  0  0  0  0  0  0  0  0  0  0
  -19.5419   20.0140   68.9834 C   0  0  0  0  0  0  0  0  0  0  0  0
  -14.2232   23.5059   67.1643 C   0  0  0  0  0  0  0  0  0  0  0  0
  -12.7813   22.4234   66.7992 C   0  0  0  0  0  0  0  0  0  0  0  0
  -16.4469   20.5172   74.6756 C   0  0  0  0  0  0  0  0  0  0  0  0
  -20.5051   20.2040   68.1338 C   0  0  0  0  0  0  0  0  0  0  0  0
  -18.0625   20.5673   68.7195 C   0  0  0  0  0  0  0  0  0  0  0  0
  -17.8519   20.8256   70.3212 C   0  0  1  0  0  0  0  0  0  0  0  0
  -16.2708   23.5754   63.2384 C   0  0  0  0  0  0  0  0  0  0  0  0
  -17.3663   19.6755   72.6237 C   0  0  0  0  0  0  0  0  0  0  0  0
  -11.9240   23.3196   66.1304 C   0  0  0  0  0  0  0  0  0  0  0  0
  -17.1559   23.3339   64.7490 C   0  0  0  0  0  0  0  0  0  0  0  0
  -16.0652   21.8745   74.1669 C   0  0  0  0  0  0  0  0  0  0  0  0
  -17.9136   23.0379   65.3228 O   0  0  0  0  0  0  0  0  0  0  0  0
  -18.0923   20.9719   67.5061 C   0  0  0  0  0  0  0  0  0  0  0  0
  -17.2356   20.4228   72.0370 O   0  0  0  0  0  0  0  0  0  0  0  0
  -14.6416   21.5215   73.9294 O   0  0  0  0  0  0  0  0  0  0  0  0
  -15.8274   18.5730   75.5213 O   0  0  0  0  0  0  0  0  0  0  0  0
  -18.5033   16.6581   73.8336 O   0  0  0  0  0  0  0  0  0  0  0  0
  -15.2063   20.8957   69.7580 O   0  0  0  0  0  0  0  0  0  0  0  0
  -13.9827   24.7045   66.6197 C   0  0  2  0  0  0  0  0  0  0  0  0
  -16.1202   21.4026   69.6434 C   0  0  0  0  0  0  0  0  0  0  0  0
  -16.9545   19.0223   74.4520 C   0  0  2  0  0  0  0  0  0  0  0  0
  -16.1966   20.6486   76.2906 O   0  0  0  0  0  0  0  0  0  0  0  0
  -16.1247   21.9138   67.8768 C   0  0  0  0  0  0  0  0  0  0  0  0
  -16.8068   22.2996   68.2327 C   0  0  2  0  0  0  0  0  0  0  0  0
  -12.6223   24.6128   65.9142 C   0  0  0  0  0  0  0  0  0  0  0  0
  -15.6710   23.6397   68.2200 C   0  0  0  0  0  0  0  0  0  0  0  0
  4  3  2  0
  6  2  2  3
  7  2  1  0
  8  7  1  0
 11  4  1  0
 12  9  1  0
 13  5  1  0
 14 12  2  0
 15  7  2  3
  8 16  1  1
 16 10  1  0
 17 13  1  0
 19  1  1  0
 21  3  1  0
 21 12  1  6
 22  8  1  0
 22 20  2  0
 23  1  1  0
 23  5  1  0
 23 10  1  0
 23 18  1  6
 24  5  1  0
 26 22  1  0
 26 25  1  6
 27 11  2  0
 27 21  1  0
 28  3  1  0
 28 26  1  0
M  END
>  <ID>  (1) 
conformer_0

$$$$
