
     RDKit          3D

 26 27  0  0  0  0  0  0  0  0999 V2000
  -14.1993   23.8531   66.9181 C   0  0  0  0  0  0  0  0  0  0  0  0
  -17.4074   18.2548   73.1923 C   0  0  0  0  0  0  0  0  0  0  0  0
  -18.1742   20.7429   68.3976 C   0  0  0  0  0  0  0  0  0  0  0  0
  -19.4712   20.1905   68.6407 C   0  0  0  0  0  0  0  0  0  0  0  0
  -17.3169   22.1918   68.3181 C   0  0  0  0  0  0  0  0  0  0  0  0
  -16.9063   18.8841   74.2546 C   0  0  0  0  0  0  0  0  0  0  0  0
  -17.5523   20.2871   71.2697 C   0  0  0  0  0  0  0  0  0  0  0  0
  -13.6994   24.5123   65.8664 C   0  0  0  0  0  0  0  0  0  0  0  0
  -15.8592   21.4507   68.1356 C   0  0  0  0  0  0  0  0  0  0  0  0
  -16.2351   23.8270   62.9698 C   0  0  0  0  0  0  0  0  0  0  0  0
  -17.5938   22.5757   64.7192 O   0  0  0  0  0  0  0  0  0  0  0  0
  -13.8182   22.3799   67.1058 C   0  0  0  0  0  0  0  0  0  0  0  0
  -16.4227   20.4747   74.5823 C   0  0  0  0  0  0  0  0  0  0  0  0
  -20.7128   19.9504   68.0771 C   0  0  0  0  0  0  0  0  0  0  0  0
  -17.0687   23.3502   63.9618 C   0  0  0  0  0  0  0  0  0  0  0  0
  -14.8857   22.2597   74.1361 O   0  0  0  0  0  0  0  0  0  0  0  0
  -17.2318   21.0445   71.9964 O   0  0  0  0  0  0  0  0  0  0  0  0
  -12.2414   24.0256   65.8376 C   0  0  0  0  0  0  0  0  0  0  0  0
  -15.9761   20.2642   76.1496 O   0  0  0  0  0  0  0  0  0  0  0  0
  -18.4112   16.7087   73.4262 O   0  0  0  0  0  0  0  0  0  0  0  0
  -16.0352   17.7322   75.0885 O   0  0  0  0  0  0  0  0  0  0  0  0
  -14.6796   21.2094   68.5049 O   0  0  0  0  0  0  0  0  0  0  0  0
  -17.3920   21.7771   69.7405 C   0  0  0  0  0  0  0  0  0  0  0  0
  -16.0250   23.4623   68.4754 C   0  0  0  0  0  0  0  0  0  0  0  0
  -16.3737   21.8249   74.1038 C   0  0  0  0  0  0  0  0  0  0  0  0
  -12.3512   22.8198   66.5995 C   0  0  0  0  0  0  0  0  0  0  0  0
  4  3  1  0
  5  3  1  0
  6  2  1  0
  7  2  1  0
  8  1  2  0
  9  5  1  0
 10  8  1  0
 12  1  1  0
 13  6  1  0
 14  4  1  0
 15 10  1  0
 15 11  1  0
 17  7  2  0
 18  8  1  0
 19 13  1  0
 20  2  1  0
 21  6  1  0
 22  9  1  0
 22 12  1  0
 23  3  1  0
 23  5  1  0
 23  7  1  0
 24  5  1  0
 25 13  1  0
 25 16  1  0
 26 12  1  0
 26 18  2  0
M  END
>  <ID>  (1) 
conformer_0

$$$$
