
     RDKit          3D

 29 30  0  0  0  0  0  0  0  0999 V2000
  -13.5695   24.5268   66.3100 C   0  0  0  0  0  0  0  0  0  0  0  0
  -18.5370   20.8709   68.5366 C   0  0  0  0  0  0  0  0  0  0  0  0
  -17.6036   18.2570   73.4134 C   0  0  0  0  0  0  0  0  0  0  0  0
  -17.7099   20.6939   67.6091 C   0  0  0  0  0  0  0  0  0  0  0  0
  -16.6371   19.0462   73.7443 C   0  0  2  0  0  0  0  0  0  0  0  0
  -16.7847   22.3225   68.1134 C   0  0  1  0  0  0  0  0  0  0  0  0
  -17.4974   20.2545   72.4148 C   0  0  0  0  0  0  0  0  0  0  0  0
  -12.1772   22.5532   66.3931 C   0  0  0  0  0  0  0  0  0  0  0  0
  -16.8240   21.6416   69.2788 C   0  0  1  0  0  0  0  0  0  0  0  0
  -17.3562   23.4664   64.4430 C   0  0  0  0  0  0  0  0  0  0  0  0
  -16.9969   23.5492   63.1186 C   0  0  0  0  0  0  0  0  0  0  0  0
  -13.6329   22.1429   67.0345 C   0  0  0  0  0  0  0  0  0  0  0  0
  -18.0810   22.9340   65.0080 O   0  0  0  0  0  0  0  0  0  0  0  0
  -16.4462   21.8536   74.0326 C   0  0  0  0  0  0  0  0  0  0  0  0
  -14.9583   21.9314   73.9459 O   0  0  0  0  0  0  0  0  0  0  0  0
  -19.6712   20.1186   68.8430 C   0  0  0  0  0  0  0  0  0  0  0  0
  -14.2174   23.5928   66.9786 C   0  0  0  0  0  0  0  0  0  0  0  0
  -15.9782   19.7439   75.6186 O   0  0  0  0  0  0  0  0  0  0  0  0
  -17.6236   20.8181   72.0154 O   0  0  0  0  0  0  0  0  0  0  0  0
  -13.9733   21.0398   67.4320 O   0  0  0  0  0  0  0  0  0  0  0  0
  -15.8235   20.6110   70.0751 O   0  0  0  0  0  0  0  0  0  0  0  0
  -18.1761   17.4051   72.8043 O   0  0  0  0  0  0  0  0  0  0  0  0
  -16.3668   17.5052   74.9032 O   0  0  0  0  0  0  0  0  0  0  0  0
  -16.3904   20.4611   74.3906 C   0  0  0  0  0  0  0  0  0  0  0  0
  -15.4791   23.4146   68.3881 C   0  0  0  0  0  0  0  0  0  0  0  0
  -12.2158   23.9628   65.9491 C   0  0  0  0  0  0  0  0  0  0  0  0
  -15.5248   21.3289   68.0560 C   0  0  0  0  0  0  0  0  0  0  0  0
  -20.7664   20.3500   68.0044 C   0  0  0  0  0  0  0  0  0  0  0  0
  -18.3019   21.0822   70.4512 C   0  0  2  0  0  0  0  0  0  0  0  0
  4  2  2  3
  5  3  1  0
  7  5  1  0
  9  6  1  0
 10  6  1  0
 11 10  1  0
 12  8  2  0
 13 10  2  0
 15 14  1  0
 16  2  1  0
 17  1  2  0
 17 12  1  0
 19  7  1  0
 20 12  1  0
  9 21  1  1
 22  3  1  0
  5 23  1  1
 24  5  1  0
 24 14  1  0
 24 18  1  0
  6 25  1  6
 25 17  1  0
 26  1  1  0
 26  8  1  0
 27  6  1  0
 27  9  1  0
 28 16  1  0
 29  2  1  0
 29  9  1  0
 29 19  1  1
M  END
>  <ID>  (1) 
conformer_0

$$$$
