
     RDKit          3D

 26 28  0  0  0  0  0  0  0  0999 V2000
  -18.2500   20.4550   68.0539 C   0  0  0  0  0  0  0  0  0  0  0  0
  -17.4502   19.7762   72.9042 C   0  0  0  0  0  0  0  0  0  0  0  0
  -13.4442   24.5972   66.0419 C   0  0  0  0  0  0  0  0  0  0  0  0
  -14.1845   23.7788   66.7698 C   0  0  0  0  0  0  0  0  0  0  0  0
  -16.3658   21.5157   74.1798 C   0  0  0  0  0  0  0  0  0  0  0  0
  -19.4354   19.9379   68.9321 C   0  0  0  0  0  0  0  0  0  0  0  0
  -16.1026   21.9842   67.9718 C   0  0  0  0  0  0  0  0  0  0  0  0
  -17.4358   21.6433   68.0252 C   0  0  0  0  0  0  0  0  0  0  0  0
  -17.2684   22.0310   69.3675 C   0  0  0  0  0  0  0  0  0  0  0  0
  -12.3872   22.4853   66.5110 C   0  0  0  0  0  0  0  0  0  0  0  0
  -17.3946   23.2122   64.5274 C   0  0  0  0  0  0  0  0  0  0  0  0
  -16.6562   23.2434   63.5387 C   0  0  0  0  0  0  0  0  0  0  0  0
  -17.4833   18.2917   73.7348 C   0  0  0  0  0  0  0  0  0  0  0  0
  -15.7160   19.5355   75.6056 O   0  0  0  0  0  0  0  0  0  0  0  0
  -17.7627   20.1395   71.5092 O   0  0  0  0  0  0  0  0  0  0  0  0
  -14.8737   21.9439   73.8891 O   0  0  0  0  0  0  0  0  0  0  0  0
  -17.7835   23.2713   65.2389 O   0  0  0  0  0  0  0  0  0  0  0  0
  -20.4404   19.8416   68.3817 C   0  0  0  0  0  0  0  0  0  0  0  0
  -13.8966   22.3628   67.0581 C   0  0  0  0  0  0  0  0  0  0  0  0
  -16.6681   19.9674   74.4506 C   0  0  0  0  0  0  0  0  0  0  0  0
  -14.8767   21.4789   68.2206 O   0  0  0  0  0  0  0  0  0  0  0  0
  -12.0793   23.7735   65.8098 C   0  0  0  0  0  0  0  0  0  0  0  0
  -16.3966   17.3533   74.8019 O   0  0  0  0  0  0  0  0  0  0  0  0
  -18.0638   20.6870   70.5944 C   0  0  0  0  0  0  0  0  0  0  0  0
  -15.9849   23.3825   68.3190 C   0  0  0  0  0  0  0  0  0  0  0  0
  -17.1642   21.5210   72.7022 O   0  0  0  0  0  0  0  0  0  0  0  0
  4  3  2  0
  6  1  1  0
  8  1  1  0
  8  7  1  0
  9  7  1  0
  9  8  1  0
 11  4  1  0
 12 11  1  0
 13  2  1  0
 15  2  1  0
 16  5  1  0
 17 11  1  0
 18  6  1  0
 19  4  1  0
 19 10  2  0
 20  2  1  0
 20  5  1  0
 20 14  1  0
 21  7  1  0
 21 19  1  0
 22  3  1  0
 22 10  1  0
 23 13  1  0
 24  9  1  0
 24 15  1  0
 25  7  1  0
 26  2  1  0
 26  5  1  0
M  END
>  <ID>  (1) 
conformer_0

$$$$
