
     RDKit          3D

 25 26  0  0  0  0  0  0  0  0999 V2000
  -14.0362   24.0599   66.5900 C   0  0  0  0  0  0  0  0  0  0  0  0
  -19.4640   20.3265   68.6078 C   0  0  0  0  0  0  0  0  0  0  0  0
  -17.2986   18.8879   73.5924 C   0  0  0  0  0  0  0  0  0  0  0  0
  -18.1355   20.3731   68.1091 C   0  0  0  0  0  0  0  0  0  0  0  0
  -17.8911   21.1197   70.2477 C   0  0  0  0  0  0  0  0  0  0  0  0
  -17.5111   21.8967   68.6301 C   0  0  0  0  0  0  0  0  0  0  0  0
  -16.6893   20.0707   74.5390 C   0  0  0  0  0  0  0  0  0  0  0  0
  -13.0697   24.5670   66.1140 C   0  0  0  0  0  0  0  0  0  0  0  0
  -17.7049   19.8113   72.3090 C   0  0  0  0  0  0  0  0  0  0  0  0
  -13.4882   22.4478   66.9991 C   0  0  0  0  0  0  0  0  0  0  0  0
  -15.9517   23.8705   63.7925 C   0  0  0  0  0  0  0  0  0  0  0  0
  -17.4146   22.9688   65.5388 O   0  0  0  0  0  0  0  0  0  0  0  0
  -17.0598   23.5858   64.9209 C   0  0  0  0  0  0  0  0  0  0  0  0
  -20.4460   20.2106   68.8349 C   0  0  0  0  0  0  0  0  0  0  0  0
  -16.3929   21.7447   74.3403 C   0  0  0  0  0  0  0  0  0  0  0  0
  -15.0422   22.5006   73.8781 O   0  0  0  0  0  0  0  0  0  0  0  0
  -17.4854   20.8253   70.9537 O   0  0  0  0  0  0  0  0  0  0  0  0
  -18.3347   17.5171   72.9525 O   0  0  0  0  0  0  0  0  0  0  0  0
  -15.8023   19.4967   75.8598 O   0  0  0  0  0  0  0  0  0  0  0  0
  -12.1796   23.3996   66.3077 C   0  0  0  0  0  0  0  0  0  0  0  0
  -15.8785   21.2137   68.4675 C   0  0  0  0  0  0  0  0  0  0  0  0
  -16.2356   23.2851   68.4204 C   0  0  0  0  0  0  0  0  0  0  0  0
  -16.9588   22.4056   67.7867 C   0  0  0  0  0  0  0  0  0  0  0  0
  -16.8755   21.2335   72.7019 O   0  0  0  0  0  0  0  0  0  0  0  0
  -16.2632   17.6370   74.6974 O   0  0  0  0  0  0  0  0  0  0  0  0
  4  2  1  0
  6  4  1  0
  6  5  1  0
  7  3  1  0
  8  1  1  0
  9  3  1  0
 10  1  2  0
 11  8  1  0
 13 11  1  0
 13 12  2  0
 14  2  3  0
 15  7  1  0
 16 15  1  0
 17  5  1  0
 17  9  1  0
 18  3  1  0
 19  7  1  0
 20  8  1  0
 20 10  1  0
 22  1  1  0
 23  6  1  0
 23 21  1  0
 23 22  1  0
 24  9  1  0
 24 15  1  0
 25  3  1  0
M  END
>  <ID>  (1) 
conformer_0

$$$$
