
     RDKit          3D

 27 28  0  0  0  0  0  0  0  0999 V2000
  -18.9991   20.1418   69.1242 C   0  0  0  0  0  0  0  0  0  0  0  0
  -17.5030   17.9469   73.8698 C   0  0  0  0  0  0  0  0  0  0  0  0
  -14.2195   23.9677   66.7394 C   0  0  0  0  0  0  0  0  0  0  0  0
  -20.6651   20.0067   68.3262 C   0  0  0  0  0  0  0  0  0  0  0  0
  -16.4999   20.1020   74.4306 C   0  0  1  0  0  0  0  0  0  0  0  0
  -17.6286   20.5636   70.9643 C   0  0  0  0  0  0  0  0  0  0  0  0
  -13.5452   24.5663   65.8742 C   0  0  0  0  0  0  0  0  0  0  0  0
  -19.1171   20.6202   68.0329 C   0  0  0  0  0  0  0  0  0  0  0  0
  -16.0171   23.8805   63.2723 C   0  0  0  0  0  0  0  0  0  0  0  0
  -17.3904   21.8494   69.5689 C   0  0  2  0  0  0  0  0  0  0  0  0
  -12.4073   22.4893   66.6044 C   0  0  0  0  0  0  0  0  0  0  0  0
  -13.8699   22.5105   67.2803 C   0  0  0  0  0  0  0  0  0  0  0  0
  -16.3804   21.5800   74.1638 C   0  0  0  0  0  0  0  0  0  0  0  0
  -17.8448   22.5586   64.7545 O   0  0  0  0  0  0  0  0  0  0  0  0
  -17.1898   20.4617   71.8846 O   0  0  0  0  0  0  0  0  0  0  0  0
  -15.8179   19.7269   75.7689 O   0  0  0  0  0  0  0  0  0  0  0  0
  -15.0675   22.1491   73.9938 O   0  0  0  0  0  0  0  0  0  0  0  0
  -16.9227   23.4667   64.2011 C   0  0  0  0  0  0  0  0  0  0  0  0
  -17.6366   22.1603   68.4729 C   0  0  1  0  0  0  0  0  0  0  0  0
  -18.6781   16.8297   74.3419 O   0  0  0  0  0  0  0  0  0  0  0  0
  -16.3254   17.4419   75.2220 O   0  0  0  0  0  0  0  0  0  0  0  0
  -17.3329   19.1818   73.4089 C   0  0  1  0  0  0  0  0  0  0  0  0
  -12.2009   23.7124   65.7297 C   0  0  0  0  0  0  0  0  0  0  0  0
  -15.2267   21.1094   69.1132 O   0  0  0  0  0  0  0  0  0  0  0  0
  -15.8894   21.6368   68.5914 C   0  0  1  0  0  0  0  0  0  0  0  0
  -16.4906   23.3147   68.0367 C   0  0  0  0  0  0  0  0  0  0  0  0
  -17.2436   21.0584   67.4534 C   0  0  1  0  0  0  0  0  0  0  0  0
  7  3  2  0
  8  1  2  3
  8  4  1  0
  9  7  1  0
 10  6  1  6
 12  3  1  0
 12 11  1  0
 13  5  1  0
 15  6  1  0
  5 16  1  1
 17 13  1  0
 18  9  1  0
 18 14  1  0
 19 10  1  0
 20  2  1  0
 21  2  1  0
 22  2  1  0
 22  5  1  0
 22 15  1  6
 23  7  1  0
 23 11  2  0
 25 10  1  0
 25 24  1  1
 26  3  1  0
 19 26  1  6
 27  8  1  1
 27 19  1  0
 27 25  1  0
M  END
>  <ID>  (1) 
conformer_0

$$$$
