
     RDKit          3D

 29 33  0  0  0  0  0  0  0  0999 V2000
  -12.1887   23.6770   65.9370 C   0  0  0  0  0  0  0  0  0  0  0  0
  -18.1748   20.5644   70.4354 C   0  0  2  0  0  0  0  0  0  0  0  0
  -18.7761   20.3571   68.7522 C   0  0  0  0  0  0  0  0  0  0  0  0
  -19.7976   20.1493   68.3969 C   0  0  0  0  0  0  0  0  0  0  0  0
  -16.4086   20.5388   74.4771 C   0  0  2  0  0  0  0  0  0  0  0  0
  -15.7730   21.2080   68.5510 C   0  0  2  0  0  0  0  0  0  0  0  0
  -12.2611   22.3194   66.5144 C   0  0  0  0  0  0  0  0  0  0  0  0
  -17.3363   22.5429   68.3141 C   0  0  2  0  0  0  0  0  0  0  0  0
  -17.0475   21.7318   69.6585 C   0  0  1  0  0  0  0  0  0  0  0  0
  -13.7588   22.0967   67.0731 C   0  0  0  0  0  0  0  0  0  0  0  0
  -17.3200   22.9413   66.9599 C   0  0  1  0  0  0  0  0  0  0  0  0
  -16.1400   21.9921   74.1097 C   0  0  0  0  0  0  0  0  0  0  0  0
  -16.8325   23.4760   63.5179 C   0  0  0  0  0  0  0  0  0  0  0  0
  -18.0210   22.6437   65.3338 O   0  0  0  0  0  0  0  0  0  0  0  0
  -17.3413   20.6995   72.1592 O   0  0  0  0  0  0  0  0  0  0  0  0
  -15.7987   19.6678   76.0236 O   0  0  0  0  0  0  0  0  0  0  0  0
  -13.4323   24.4576   66.3654 C   0  0  0  0  0  0  0  0  0  0  0  0
  -15.1782   22.4906   73.8166 O   0  0  0  0  0  0  0  0  0  0  0  0
  -15.8353   20.5704   70.0197 O   0  0  0  0  0  0  0  0  0  0  0  0
  -18.3755   17.2636   73.0861 O   0  0  0  0  0  0  0  0  0  0  0  0
  -16.2248   23.5191   68.0783 C   0  0  0  0  0  0  0  0  0  0  0  0
  -16.1645   17.4381   75.1360 O   0  0  0  0  0  0  0  0  0  0  0  0
  -16.6730   19.0520   74.4804 C   0  0  2  0  0  0  0  0  0  0  0  0
  -17.4109   19.5360   72.5699 C   0  0  0  0  0  0  0  0  0  0  0  0
  -14.6131   21.1359   68.0060 N   0  0  0  0  0  0  0  0  0  0  0  0
  -17.7013   23.2480   64.6297 C   0  0  0  0  0  0  0  0  0  0  0  0
  -14.2114   23.5784   67.0354 C   0  0  0  0  0  0  0  0  0  0  0  0
  -17.3398   18.0748   73.4966 C   0  0  2  0  0  0  0  0  0  0  0  0
  -18.2095   21.3560   67.5980 C   0  0  2  0  0  0  0  0  0  0  0  0
  3  2  1  0
  4  3  2  3
  7  1  2  0
  9  2  1  0
  9  6  1  0
  9  8  1  0
 10  7  1  0
 11  8  1  0
 12  5  1  0
 11 14  1  6
  2 15  1  6
  5 16  1  1
 17  1  1  0
 18 12  1  0
 19  6  1  0
  9 19  1  1
  8 21  1  1
 21 11  1  0
 23  5  1  0
 23 22  1  6
 24 15  1  0
  6 25  1  1
 25 10  1  0
 26 13  1  0
 26 14  1  0
 27 10  2  0
 27 17  1  0
 28 20  1  1
 28 23  1  0
 28 24  1  0
 29  3  1  1
 29  8  1  0
 29 11  1  0
M  END
>  <ID>  (1) 
conformer_0

$$$$
