
     RDKit          3D

 28 29  0  0  0  0  0  0  0  0999 V2000
  -18.6886   20.5176   68.7192 C   0  0  0  0  0  0  0  0  0  0  0  0
  -16.5604   20.1693   74.5854 C   0  0  2  0  0  0  0  0  0  0  0  0
  -14.0464   24.0184   66.5789 C   0  0  0  0  0  0  0  0  0  0  0  0
  -17.8174   21.4197   68.1342 C   0  0  1  0  0  0  0  0  0  0  0  0
  -17.9562   20.3740   71.7886 C   0  0  0  0  0  0  0  0  0  0  0  0
  -16.1884   21.7282   74.1901 C   0  0  0  0  0  0  0  0  0  0  0  0
  -16.6737   23.1014   68.5256 C   0  0  0  0  0  0  0  0  0  0  0  0
  -16.8064   18.4409   74.2604 C   0  0  0  0  0  0  0  0  0  0  0  0
  -13.4670   22.4894   66.9845 C   0  0  0  0  0  0  0  0  0  0  0  0
  -13.2742   24.3123   65.5308 C   0  0  0  0  0  0  0  0  0  0  0  0
  -17.5428   23.3742   64.3015 C   0  0  1  0  0  0  0  0  0  0  0  0
  -17.7011   22.8843   65.9514 O   0  0  0  0  0  0  0  0  0  0  0  0
  -16.6476   23.5937   63.2789 C   0  0  0  0  0  0  0  0  0  0  0  0
  -17.2571   19.2444   73.2492 C   0  0  2  0  0  0  0  0  0  0  0  0
  -17.1075   20.9248   72.5730 O   0  0  0  0  0  0  0  0  0  0  0  0
  -16.1119   17.6066   75.1239 O   0  0  0  0  0  0  0  0  0  0  0  0
  -14.9512   22.4366   74.1740 O   0  0  0  0  0  0  0  0  0  0  0  0
  -16.1749   20.3984   76.0929 O   0  0  0  0  0  0  0  0  0  0  0  0
  -14.2478   21.9164   67.8203 O   0  0  0  0  0  0  0  0  0  0  0  0
  -17.2662   22.3904   67.0986 C   0  0  2  0  0  0  0  0  0  0  0  0
  -19.8552   20.3149   68.2062 C   0  0  0  0  0  0  0  0  0  0  0  0
  -17.7420   17.1954   73.2337 O   0  0  0  0  0  0  0  0  0  0  0  0
  -17.2032   21.5794   70.0097 C   0  0  0  0  0  0  0  0  0  0  0  0
  -15.7961   21.6286   68.5251 C   0  0  0  0  0  0  0  0  0  0  0  0
  -12.7661   21.7419   67.5439 F   0  0  0  0  0  0  0  0  0  0  0  0
  -12.1906   23.3055   66.0281 C   0  0  0  0  0  0  0  0  0  0  0  0
  -16.7560   20.9397   70.7568 O   0  0  0  0  0  0  0  0  0  0  0  0
  -18.1364   22.5225   64.2439 O   0  0  0  0  0  0  0  0  0  0  0  0
  4  1  1  0
  6  2  1  0
  8  2  1  0
  9  3  1  0
 10  3  1  0
 12 11  1  0
 11 13  1  6
 14  2  1  0
 14  8  1  0
 15  5  1  0
 14 15  1  6
 16  8  1  0
 17  6  1  0
  2 18  1  1
 19  9  1  0
 20  4  1  0
 20  7  1  1
 20 12  1  0
 21  1  2  3
 22  8  1  0
  4 23  1  1
 24  7  1  0
 24 19  1  0
 25  9  1  0
 26  9  1  0
 26 10  1  0
 27  5  1  0
 27 23  1  0
 28 11  1  0
M  END
>  <ID>  (1) 
conformer_0

$$$$
