
     RDKit          3D

 23 24  0  0  0  0  0  0  0  0999 V2000
  -17.4944   18.1876   74.0673 C   0  0  0  0  0  0  0  0  0  0  0  0
  -17.6893   21.3330   67.9352 C   0  0  0  0  0  0  0  0  0  0  0  0
  -14.2264   23.7774   66.7237 C   0  0  0  0  0  0  0  0  0  0  0  0
  -18.5721   20.5248   68.5801 C   0  0  0  0  0  0  0  0  0  0  0  0
  -17.6409   21.2468   70.4629 C   0  0  0  0  0  0  0  0  0  0  0  0
  -17.4259   19.6837   73.0131 C   0  0  0  0  0  0  0  0  0  0  0  0
  -16.5708   22.8234   68.5299 C   0  0  0  0  0  0  0  0  0  0  0  0
  -13.3460   24.5244   66.0031 C   0  0  0  0  0  0  0  0  0  0  0  0
  -13.3193   22.2712   66.9378 C   0  0  0  0  0  0  0  0  0  0  0  0
  -16.9128   23.6052   63.5135 C   0  0  0  0  0  0  0  0  0  0  0  0
  -17.8487   22.5403   65.2457 O   0  0  0  0  0  0  0  0  0  0  0  0
  -15.9603   21.3294   68.9770 C   0  0  0  0  0  0  0  0  0  0  0  0
  -16.4682   21.5849   74.2161 C   0  0  0  0  0  0  0  0  0  0  0  0
  -17.5414   23.0784   64.7301 C   0  0  0  0  0  0  0  0  0  0  0  0
  -18.4185   16.9387   73.7136 O   0  0  0  0  0  0  0  0  0  0  0  0
  -15.2863   22.3582   74.3162 O   0  0  0  0  0  0  0  0  0  0  0  0
  -17.7300   20.8518   71.7951 O   0  0  0  0  0  0  0  0  0  0  0  0
  -16.0800   20.3766   76.0363 O   0  0  0  0  0  0  0  0  0  0  0  0
  -19.7072   20.2714   68.3501 C   0  0  0  0  0  0  0  0  0  0  0  0
  -12.2396   23.4024   66.0055 C   0  0  0  0  0  0  0  0  0  0  0  0
  -16.7209   19.6585   74.6790 C   0  0  0  0  0  0  0  0  0  0  0  0
  -16.0098   17.9337   75.1754 O   0  0  0  0  0  0  0  0  0  0  0  0
  -17.0379   22.2632   67.6944 C   0  0  0  0  0  0  0  0  0  0  0  0
  4  2  2  0
  5  4  1  0
  6  1  1  0
  8  3  1  0
  9  3  1  0
 12  7  1  0
 12  9  1  0
 14  3  1  0
 14 10  1  0
 14 11  2  0
 15  1  1  0
 16 13  1  0
 17  5  1  0
 17  6  1  0
 19  4  1  0
 20  8  2  0
 20  9  1  0
 21  1  1  0
 21  6  1  0
 21 13  1  0
 21 18  1  0
 22  1  1  0
 23  2  2  0
 23  7  1  0
M  END
>  <ID>  (1) 
conformer_0

$$$$
