
     RDKit          3D

 26 26  0  0  0  0  0  0  0  0999 V2000
  -18.9821   20.2977   68.6778 C   0  0  0  0  0  0  0  0  0  0  0  0
  -20.0390   20.0678   68.3998 C   0  0  0  0  0  0  0  0  0  0  0  0
  -16.5128   20.6068   74.6617 C   0  0  1  0  0  0  0  0  0  0  0  0
  -12.4100   22.7340   66.6213 C   0  0  0  0  0  0  0  0  0  0  0  0
  -16.0789   21.8604   74.2288 C   0  0  0  0  0  0  0  0  0  0  0  0
  -18.4103   20.8340   70.5212 C   0  0  0  0  0  0  0  0  0  0  0  0
  -18.0434   20.9759   67.9860 C   0  0  0  0  0  0  0  0  0  0  0  0
  -12.9261   24.0159   66.3219 C   0  0  0  0  0  0  0  0  0  0  0  0
  -16.6387   19.1145   74.1561 C   0  0  2  0  0  0  0  0  0  0  0  0
  -14.0243   22.2640   67.2585 C   0  0  0  0  0  0  0  0  0  0  0  0
  -17.4159   23.2870   64.3265 C   0  0  1  0  0  0  0  0  0  0  0  0
  -16.4048   23.8521   63.0417 C   0  0  0  0  0  0  0  0  0  0  0  0
  -14.6691   21.1853   67.6608 O   0  0  0  0  0  0  0  0  0  0  0  0
  -17.8105   22.5037   64.6441 O   0  0  0  0  0  0  0  0  0  0  0  0
  -14.9100   22.5824   74.3232 O   0  0  0  0  0  0  0  0  0  0  0  0
  -17.1910   20.7751   72.2265 O   0  0  0  0  0  0  0  0  0  0  0  0
  -17.3214   22.3696   67.9914 C   0  0  1  0  0  0  0  0  0  0  0  0
  -17.5707   18.1752   73.5553 C   0  0  2  0  0  0  0  0  0  0  0  0
  -15.9996   19.9840   76.0795 O   0  0  0  0  0  0  0  0  0  0  0  0
  -18.1943   17.2365   72.9999 O   0  0  0  0  0  0  0  0  0  0  0  0
  -14.1336   23.8377   66.8508 C   0  0  0  0  0  0  0  0  0  0  0  0
  -16.8349   21.7387   69.7578 C   0  0  0  0  0  0  0  0  0  0  0  0
  -16.1667   17.6587   75.0587 O   0  0  0  0  0  0  0  0  0  0  0  0
  -17.7776   20.0305   72.5958 C   0  0  0  0  0  0  0  0  0  0  0  0
  -16.0559   23.4610   68.2242 C   0  0  0  0  0  0  0  0  0  0  0  0
  -15.8701   21.4271   68.3843 C   0  0  2  0  0  0  0  0  0  0  0  0
  2  1  2  3
  5  3  1  0
  7  1  1  0
  8  4  2  0
  9  3  1  0
 10  4  1  0
 11 12  1  6
 13 10  1  0
 14 11  1  0
 15  5  1  0
 16  6  1  0
 17  7  1  0
 17 11  1  0
 18  9  1  0
  3 19  1  1
 18 20  1  6
 21  8  1  0
 21 10  2  0
 22  6  1  0
  9 23  1  1
 24 16  1  0
 24 18  1  0
 17 25  1  6
 26 13  1  0
 26 17  1  0
 26 22  1  1
M  END
>  <ID>  (1) 
conformer_0

$$$$
