
     RDKit          3D

 24 24  0  0  0  0  0  0  0  0999 V2000
  -14.0693   23.9538   66.7774 C   0  0  0  0  0  0  0  0  0  0  0  0
  -17.3601   18.3113   73.7409 C   0  0  0  0  0  0  0  0  0  0  0  0
  -19.3585   20.3812   68.7681 C   0  0  0  0  0  0  0  0  0  0  0  0
  -20.3333   20.0368   68.4398 C   0  0  0  0  0  0  0  0  0  0  0  0
  -16.7943   20.1650   74.3870 C   0  0  2  0  0  0  0  0  0  0  0  0
  -17.9245   20.6867   68.1498 C   0  0  0  0  0  0  0  0  0  0  0  0
  -17.6603   21.2981   70.2314 C   0  0  0  0  0  0  0  0  0  0  0  0
  -13.2825   24.3251   65.7544 C   0  0  0  0  0  0  0  0  0  0  0  0
  -17.0947   23.3010   64.1639 C   0  0  0  0  0  0  0  0  0  0  0  0
  -17.7068   22.5404   64.7520 O   0  0  0  0  0  0  0  0  0  0  0  0
  -13.3778   22.3842   67.1195 C   0  0  0  0  0  0  0  0  0  0  0  0
  -16.5755   21.7529   74.0860 C   0  0  0  0  0  0  0  0  0  0  0  0
  -17.4074   22.0895   68.3811 C   0  0  2  0  0  0  0  0  0  0  0  0
  -16.1081   21.6574   68.5097 C   0  0  1  0  0  0  0  0  0  0  0  0
  -17.4324   20.6666   71.7481 O   0  0  0  0  0  0  0  0  0  0  0  0
  -16.7588   23.8596   62.8217 C   0  0  0  0  0  0  0  0  0  0  0  0
  -15.7318   19.8844   75.6606 O   0  0  0  0  0  0  0  0  0  0  0  0
  -12.3016   23.1129   65.9980 C   0  0  0  0  0  0  0  0  0  0  0  0
  -14.9230   21.8582   73.8621 O   0  0  0  0  0  0  0  0  0  0  0  0
  -14.8355   20.9172   68.5985 O   0  0  0  0  0  0  0  0  0  0  0  0
  -18.5902   17.1095   73.5281 O   0  0  0  0  0  0  0  0  0  0  0  0
  -15.8140   23.5647   68.3854 C   0  0  0  0  0  0  0  0  0  0  0  0
  -17.3340   19.4283   72.7232 C   0  0  2  0  0  0  0  0  0  0  0  0
  -16.0392   17.7650   74.8977 O   0  0  0  0  0  0  0  0  0  0  0  0
  4  3  2  3
  6  3  1  0
  8  1  2  0
 10  9  1  0
 11  1  1  0
 12  5  1  0
 13  6  1  6
 13  7  1  0
 13 10  1  0
 14 13  1  0
 15  7  1  0
 16  9  1  0
  5 17  1  6
 18  8  1  0
 18 11  2  0
 19 12  1  0
 14 20  1  6
 21  2  1  0
 22  1  1  0
 22 14  1  0
 23  2  1  0
 23  5  1  0
 23 15  1  1
 24  2  1  0
M  END
>  <ID>  (1) 
conformer_0

$$$$
