
     RDKit          3D

 30 31  0  0  0  0  0  0  0  0999 V2000
  -14.2331   23.7137   66.8818 C   0  0  0  0  0  0  0  0  0  0  0  0
  -20.5437   19.8408   68.9293 C   0  0  0  0  0  0  0  0  0  0  0  0
  -16.5081   20.2618   74.7939 C   0  0  0  0  0  0  0  0  0  0  0  0
  -20.1188   20.3745   68.0709 C   0  0  0  0  0  0  0  0  0  0  0  0
  -18.5028   20.3394   68.8504 C   0  0  0  0  0  0  0  0  0  0  0  0
  -16.5912   21.6455   74.3899 C   0  0  0  0  0  0  0  0  0  0  0  0
  -13.5055   24.4542   66.1023 C   0  0  0  0  0  0  0  0  0  0  0  0
  -17.9549   20.3716   71.0867 C   0  0  0  0  0  0  0  0  0  0  0  0
  -17.3590   23.1518   64.2779 C   0  0  0  0  0  0  0  0  0  0  0  0
  -17.3936   21.4532   69.6575 C   0  0  0  0  0  0  0  0  0  0  0  0
  -16.4260   23.9846   63.6306 C   0  0  0  0  0  0  0  0  0  0  0  0
  -12.5232   22.3000   66.6191 C   0  0  0  0  0  0  0  0  0  0  0  0
  -17.9120   21.1578   67.7431 C   0  0  0  0  0  0  0  0  0  0  0  0
  -17.8439   22.1121   63.8050 O   0  0  0  0  0  0  0  0  0  0  0  0
  -17.1209   18.0777   73.9407 C   0  0  0  0  0  0  0  0  0  0  0  0
  -14.8622   21.9857   74.0480 O   0  0  0  0  0  0  0  0  0  0  0  0
  -17.4851   20.6033   71.8643 O   0  0  0  0  0  0  0  0  0  0  0  0
  -18.3961   17.2307   73.2087 O   0  0  0  0  0  0  0  0  0  0  0  0
  -15.5532   19.1442   75.6509 O   0  0  0  0  0  0  0  0  0  0  0  0
  -14.1084   22.3069   67.0283 C   0  0  0  0  0  0  0  0  0  0  0  0
  -17.3268   22.6680   66.8158 C   0  0  0  0  0  0  0  0  0  0  0  0
  -17.5991   22.9073   66.0298 O   0  0  0  0  0  0  0  0  0  0  0  0
  -16.2345   17.2159   74.7823 O   0  0  0  0  0  0  0  0  0  0  0  0
  -12.1562   23.5225   65.8974 C   0  0  0  0  0  0  0  0  0  0  0  0
  -17.0812   22.1969   68.5160 C   0  0  0  0  0  0  0  0  0  0  0  0
  -17.2586   19.4842   73.5487 C   0  0  0  0  0  0  0  0  0  0  0  0
  -15.1735   20.7819   69.3861 O   0  0  0  0  0  0  0  0  0  0  0  0
  -15.6063   21.3410   68.5274 C   0  0  0  0  0  0  0  0  0  0  0  0
  -16.3101   21.3290   76.2849 O   0  0  0  0  0  0  0  0  0  0  0  0
  -16.0859   23.4347   68.4689 C   0  0  0  0  0  0  0  0  0  0  0  0
  4  2  1  0
  5  4  1  0
  6  3  1  0
  7  1  2  0
 10  5  1  0
 10  8  1  0
 11  7  1  0
 11  9  1  0
 13  5  1  0
 14  9  2  0
 16  6  1  0
 17  8  1  0
 18 15  1  0
 19  3  1  0
 20  1  1  0
 20 12  1  0
 21 13  1  0
 22  9  1  0
 22 21  1  0
 23 15  1  0
 24  7  1  0
 24 12  2  0
 25 10  1  0
 25 13  1  0
 26  3  1  0
 26 15  1  0
 26 17  1  0
 28 25  1  0
 28 27  2  0
 29  3  1  0
 30 25  1  0
M  END
>  <ID>  (1) 
conformer_0

$$$$
