
     RDKit          3D

 26 26  0  0  0  0  0  0  0  0999 V2000
  -19.2733   20.2314   68.9220 C   0  0  0  0  0  0  0  0  0  0  0  0
  -17.5883   17.9037   73.5490 C   0  0  0  0  0  0  0  0  0  0  0  0
  -13.1764   24.3803   66.0874 C   0  0  0  0  0  0  0  0  0  0  0  0
  -18.2541   20.7168   68.0647 C   0  0  0  0  0  0  0  0  0  0  0  0
  -15.7167   21.2309   68.2642 C   0  0  0  0  0  0  0  0  0  0  0  0
  -16.6266   20.4204   74.6659 C   0  0  0  0  0  0  0  0  0  0  0  0
  -14.1480   23.8218   66.8635 C   0  0  0  0  0  0  0  0  0  0  0  0
  -20.5077   20.1288   68.1301 C   0  0  0  0  0  0  0  0  0  0  0  0
  -13.4155   22.2704   67.1189 C   0  0  0  0  0  0  0  0  0  0  0  0
  -17.8061   20.8395   70.3681 C   0  0  0  0  0  0  0  0  0  0  0  0
  -16.1846   21.9163   74.1657 C   0  0  0  0  0  0  0  0  0  0  0  0
  -17.5851   22.9272   64.7097 C   0  0  0  0  0  0  0  0  0  0  0  0
  -16.3495   23.4237   63.2814 C   0  0  0  0  0  0  0  0  0  0  0  0
  -18.5257   22.7856   65.2979 O   0  0  0  0  0  0  0  0  0  0  0  0
  -16.1547   17.4239   75.1955 O   0  0  0  0  0  0  0  0  0  0  0  0
  -15.1117   22.6213   74.0024 O   0  0  0  0  0  0  0  0  0  0  0  0
  -17.2083   20.8534   72.0177 O   0  0  0  0  0  0  0  0  0  0  0  0
  -17.3755   22.3353   68.1372 C   0  0  0  0  0  0  0  0  0  0  0  0
  -12.2354   23.1671   66.1171 C   0  0  0  0  0  0  0  0  0  0  0  0
  -18.4030   16.8581   73.5215 O   0  0  0  0  0  0  0  0  0  0  0  0
  -15.4352   20.8617   69.5547 O   0  0  0  0  0  0  0  0  0  0  0  0
  -15.9705   20.0810   76.0914 O   0  0  0  0  0  0  0  0  0  0  0  0
  -16.9525   18.7798   74.4674 C   0  0  0  0  0  0  0  0  0  0  0  0
  -17.4747   19.7098   72.6906 C   0  0  0  0  0  0  0  0  0  0  0  0
  -16.0654   23.4733   68.2417 C   0  0  0  0  0  0  0  0  0  0  0  0
  -17.1119   21.9600   68.9888 C   0  0  0  0  0  0  0  0  0  0  0  0
  4  1  1  0
  7  3  2  0
  8  1  1  0
  9  5  1  0
  9  7  1  0
 11  6  1  0
 13 12  1  0
 14 12  2  0
 16 11  1  0
 17 10  1  0
 18  4  1  0
 19  3  1  0
 19  9  1  0
 20  2  1  0
 21  5  1  0
 22  6  1  0
 23  2  1  0
 23  6  1  0
 23 15  1  0
 24  2  1  0
 24 17  1  0
 25 12  1  0
 25 18  1  0
 26  5  1  0
 26 10  1  0
 26 18  1  0
M  END
>  <ID>  (1) 
conformer_0

$$$$
