
     RDKit          3D

 25 25  0  0  0  0  0  0  0  0999 V2000
  -20.0470   20.1220   68.4894 C   0  0  0  0  0  0  0  0  0  0  0  0
  -14.0102   24.4276   65.9970 C   0  0  0  0  0  0  0  0  0  0  0  0
  -17.5105   17.9916   73.3649 C   0  0  0  0  0  0  0  0  0  0  0  0
  -17.0555   19.0013   74.0822 C   0  0  1  0  0  0  0  0  0  0  0  0
  -19.0014   20.4661   68.5364 C   0  0  0  0  0  0  0  0  0  0  0  0
  -17.3584   19.9655   72.3921 C   0  0  0  0  0  0  0  0  0  0  0  0
  -17.8449   21.3213   68.0673 C   0  0  2  0  0  0  0  0  0  0  0  0
  -14.3286   23.5877   66.9001 C   0  0  0  0  0  0  0  0  0  0  0  0
  -16.4926   20.7692   74.3730 C   0  0  1  0  0  0  0  0  0  0  0  0
  -13.5042   22.3385   67.1403 C   0  0  0  0  0  0  0  0  0  0  0  0
  -17.6042   21.0632   70.1772 C   0  0  0  0  0  0  0  0  0  0  0  0
  -17.1808   23.3421   64.2720 C   0  0  0  0  0  0  0  0  0  0  0  0
  -17.9561   22.9452   65.2717 O   0  0  0  0  0  0  0  0  0  0  0  0
  -17.0357   20.6564   71.7235 O   0  0  0  0  0  0  0  0  0  0  0  0
  -15.8264   19.7983   75.6378 O   0  0  0  0  0  0  0  0  0  0  0  0
  -14.8170   22.5507   73.8664 O   0  0  0  0  0  0  0  0  0  0  0  0
  -12.1874   23.0321   66.3286 C   0  0  0  0  0  0  0  0  0  0  0  0
  -18.2720   16.8360   73.2805 O   0  0  0  0  0  0  0  0  0  0  0  0
  -16.4042   23.7955   63.3194 C   0  0  0  0  0  0  0  0  0  0  0  0
  -16.5402   23.1920   68.0369 C   0  0  0  0  0  0  0  0  0  0  0  0
  -16.1818   17.4997   75.0016 O   0  0  0  0  0  0  0  0  0  0  0  0
  -15.9119   22.1833   74.0267 C   0  0  0  0  0  0  0  0  0  0  0  0
  -15.7065   21.1975   68.4158 C   0  0  0  0  0  0  0  0  0  0  0  0
  -17.3064   22.4488   68.4003 C   0  0  2  0  0  0  0  0  0  0  0  0
  -12.4946   24.1824   65.5776 C   0  0  0  0  0  0  0  0  0  0  0  0
  4  3  1  0
  5  1  2  3
  6  4  1  0
  7  5  1  0
  8  2  2  0
  9  4  1  0
 10  8  1  0
  7 11  1  1
 13 12  1  0
 14  6  1  0
 14 11  1  0
  9 15  1  1
 17 10  2  0
 18  3  1  0
 19  2  1  0
 19 12  1  0
  4 21  1  1
 22  9  1  0
 22 16  1  0
 23 10  1  0
 24  7  1  0
 24 20  1  6
 24 23  1  0
 25  2  1  0
 25 17  1  0
M  END
>  <ID>  (1) 
conformer_0

$$$$
