
     RDKit          3D

 31 32  0  0  0  0  0  0  0  0999 V2000
  -18.9827   20.1333   69.1404 C   0  0  0  0  0  0  0  0  0  0  0  0
  -14.1822   23.4337   67.0231 C   0  0  0  0  0  0  0  0  0  0  0  0
  -16.8949   19.4299   74.8658 C   0  0  0  0  0  0  0  0  0  0  0  0
  -20.4731   19.9791   68.3260 C   0  0  0  0  0  0  0  0  0  0  0  0
  -16.6953   20.7020   73.9709 C   0  0  0  0  0  0  0  0  0  0  0  0
  -13.5303   24.5831   67.0805 C   0  0  0  0  0  0  0  0  0  0  0  0
  -19.2225   20.8282   67.9025 C   0  0  0  0  0  0  0  0  0  0  0  0
  -15.4674   21.2358   68.1454 C   0  0  0  0  0  0  0  0  0  0  0  0
  -17.3002   20.7054   67.9781 C   0  0  1  0  0  0  0  0  0  0  0  0
  -16.2076   21.9616   74.4172 C   0  0  0  0  0  0  0  0  0  0  0  0
  -17.0167   23.3787   63.9765 C   0  0  0  0  0  0  0  0  0  0  0  0
  -17.5781   23.1821   66.6338 O   0  0  0  0  0  0  0  0  0  0  0  0
  -17.1030   21.9660   69.5055 C   0  0  0  0  0  0  0  0  0  0  0  0
  -12.2453   22.4549   66.6433 C   0  0  0  0  0  0  0  0  0  0  0  0
  -17.1622   20.2969   72.5939 O   0  0  0  0  0  0  0  0  0  0  0  0
  -16.1275   20.2703   76.1196 O   0  0  0  0  0  0  0  0  0  0  0  0
  -17.3206   22.7222   67.4391 C   0  0  2  0  0  0  0  0  0  0  0  0
  -18.5457   16.7465   74.4225 O   0  0  0  0  0  0  0  0  0  0  0  0
  -15.0393   22.3213   73.9620 O   0  0  0  0  0  0  0  0  0  0  0  0
  -16.2927   17.6457   75.3356 O   0  0  0  0  0  0  0  0  0  0  0  0
  -17.4948   20.6399   70.8621 C   0  0  1  0  0  0  0  0  0  0  0  0
  -13.6400   22.2124   67.0300 C   0  0  0  0  0  0  0  0  0  0  0  0
  -17.5971   23.0870   64.8808 C   0  0  2  0  0  0  0  0  0  0  0  0
  -17.4510   22.0760   68.6238 C   0  0  1  0  0  0  0  0  0  0  0  0
  -11.7040   23.5432   66.0981 C   0  0  0  0  0  0  0  0  0  0  0  0
  -15.8429   23.3288   68.3766 C   0  0  0  0  0  0  0  0  0  0  0  0
  -17.5201   18.9866   73.0839 C   0  0  0  0  0  0  0  0  0  0  0  0
  -17.6967   17.9263   74.0555 C   0  0  0  0  0  0  0  0  0  0  0  0
  -13.1371   24.5638   65.7341 C   0  0  0  0  0  0  0  0  0  0  0  0
  -17.3730   21.0369   71.1075 O   0  0  0  0  0  0  0  0  0  0  0  0
  -17.7797   22.1463   65.2339 O   0  0  0  0  0  0  0  0  0  0  0  0
  4  1  1  0
  5  3  2  3
  6  2  2  0
  7  1  1  0
  7  4  1  0
  9  7  1  0
  9  8  1  6
 10  5  1  0
 15  5  1  0
 16  3  1  0
 17 12  1  0
 19 10  1  0
 21 13  1  0
 22  2  1  0
 22 14  2  0
 23 11  1  6
 23 12  1  0
 24  9  1  0
 24 13  1  1
 24 17  1  0
 25 14  1  0
 26  2  1  0
 17 26  1  1
 27 21  1  0
 28  3  1  0
 28 18  1  0
 28 20  1  0
 28 27  1  0
 29  6  1  0
 29 25  2  0
 21 30  1  1
 31 23  1  0
M  END
>  <ID>  (1) 
conformer_0

$$$$
