
     RDKit          3D

 30 32  0  0  0  0  0  0  0  0999 V2000
  -17.9252   20.7959   67.9499 C   0  0  0  0  0  0  0  0  0  0  0  0
  -16.4071   20.3989   74.6350 C   0  0  0  0  0  0  0  0  0  0  0  0
  -14.2624   23.6667   66.9947 C   0  0  0  0  0  0  0  0  0  0  0  0
  -19.4221   20.4260   68.5381 C   0  0  0  0  0  0  0  0  0  0  0  0
  -16.8557   18.6067   72.8592 C   0  0  0  0  0  0  0  0  0  0  0  0
  -17.6618   21.8566   69.7624 C   0  0  0  0  0  0  0  0  0  0  0  0
  -13.8719   24.5456   66.1105 C   0  0  0  0  0  0  0  0  0  0  0  0
  -17.6945   22.2915   68.4490 C   0  0  0  0  0  0  0  0  0  0  0  0
  -17.4262   20.1751   72.5766 C   0  0  0  0  0  0  0  0  0  0  0  0
  -17.3693   23.1975   64.3732 C   0  0  0  0  0  0  0  0  0  0  0  0
  -13.6542   22.1491   67.0639 C   0  0  0  0  0  0  0  0  0  0  0  0
  -16.4370   23.5125   63.4784 C   0  0  0  0  0  0  0  0  0  0  0  0
  -17.6805   22.4727   65.0212 O   0  0  0  0  0  0  0  0  0  0  0  0
  -16.3463   21.5810   74.2199 C   0  0  0  0  0  0  0  0  0  0  0  0
  -14.9662   22.1922   74.0714 O   0  0  0  0  0  0  0  0  0  0  0  0
  -16.5093   17.2589   74.9999 O   0  0  0  0  0  0  0  0  0  0  0  0
  -16.6270   20.4875   72.1532 O   0  0  0  0  0  0  0  0  0  0  0  0
  -20.5058   20.1026   68.4686 C   0  0  0  0  0  0  0  0  0  0  0  0
  -12.3425   22.8257   66.4835 C   0  0  0  0  0  0  0  0  0  0  0  0
  -18.0120   17.4234   73.1180 O   0  0  0  0  0  0  0  0  0  0  0  0
  -14.6956   20.5462   67.8188 O   0  0  0  0  0  0  0  0  0  0  0  0
  -16.6852   18.7276   74.2856 C   0  0  0  0  0  0  0  0  0  0  0  0
  -16.1793   21.5142   76.1046 O   0  0  0  0  0  0  0  0  0  0  0  0
  -15.4984   21.2973   68.4456 C   0  0  0  0  0  0  0  0  0  0  0  0
  -16.3428   23.3422   68.3631 C   0  0  0  0  0  0  0  0  0  0  0  0
  -16.8107   22.2091   67.3154 C   0  0  0  0  0  0  0  0  0  0  0  0
  -12.4423   24.0852   65.8680 C   0  0  0  0  0  0  0  0  0  0  0  0
  -18.3537   20.9027   71.5686 O   0  0  0  0  0  0  0  0  0  0  0  0
  -18.8658   20.6661   70.6631 C   0  0  0  0  0  0  0  0  0  0  0  0
  -15.6157   19.3080   75.7837 O   0  0  0  0  0  0  0  0  0  0  0  0
  4  1  1  0
  7  3  2  0
  8  1  1  0
  8  6  1  0
  9  5  1  0
 11  3  1  0
 12  7  1  0
 12 10  1  0
 13 10  2  0
 14  2  1  0
 15 14  1  0
 17  9  1  0
 18  4  3  0
 19 11  1  0
 20  5  1  0
 22  2  1  0
 22  5  1  0
 22 16  1  0
 23  2  1  0
 24 11  1  0
 24 21  1  0
 25  8  1  0
 26  1  1  0
 26  8  1  0
 26 24  1  0
 26 25  1  0
 27  7  1  0
 27 19  2  0
 28  9  1  0
 29  6  1  0
 29 28  1  0
 30  2  1  0
M  END
>  <ID>  (1) 
conformer_0

$$$$
