
     RDKit          3D

 29 30  0  0  0  0  0  0  0  0999 V2000
  -14.2959   23.7515   66.5486 C   0  0  1  0  0  0  0  0  0  0  0  0
  -17.5796   17.7977   73.6888 C   0  0  0  0  0  0  0  0  0  0  0  0
  -19.4641   20.1639   68.6642 C   0  0  0  0  0  0  0  0  0  0  0  0
  -20.3959   19.9904   68.5153 C   0  0  0  0  0  0  0  0  0  0  0  0
  -17.4933   19.7310   72.9411 C   0  0  2  0  0  0  0  0  0  0  0  0
  -17.4213   21.5964   69.5549 C   0  0  0  0  0  0  0  0  0  0  0  0
  -18.6242   20.7074   70.8634 C   0  0  0  0  0  0  0  0  0  0  0  0
  -17.9937   20.6847   67.8644 C   0  0  0  0  0  0  0  0  0  0  0  0
  -13.3294   24.4456   65.9035 C   0  0  0  0  0  0  0  0  0  0  0  0
  -13.3976   22.2939   66.7557 C   0  0  0  0  0  0  0  0  0  0  0  0
  -16.8699   19.0318   74.4598 C   0  0  2  0  0  0  0  0  0  0  0  0
  -17.1994   23.1603   64.1162 C   0  0  0  0  0  0  0  0  0  0  0  0
  -17.7300   22.9272   64.9902 O   0  0  0  0  0  0  0  0  0  0  0  0
  -16.6938   23.3636   62.9010 C   0  0  0  0  0  0  0  0  0  0  0  0
  -14.4639   22.4204   73.9817 O   0  0  0  0  0  0  0  0  0  0  0  0
  -16.1269   20.2592   75.9473 O   0  0  0  0  0  0  0  0  0  0  0  0
  -17.7415   20.7168   70.9908 O   0  0  0  0  0  0  0  0  0  0  0  0
  -18.6955   17.0222   73.5507 O   0  0  0  0  0  0  0  0  0  0  0  0
  -17.9682   21.9569   68.6460 C   0  0  2  0  0  0  0  0  0  0  0  0
  -16.1116   17.6019   75.1887 O   0  0  0  0  0  0  0  0  0  0  0  0
  -16.6835   20.9277   74.3893 C   0  0  1  0  0  0  0  0  0  0  0  0
  -14.6418   20.8251   67.6159 O   0  0  0  0  0  0  0  0  0  0  0  0
  -12.2611   23.4495   66.0911 C   0  0  0  0  0  0  0  0  0  0  0  0
  -16.8541   22.7471   67.1023 C   0  0  0  0  0  0  0  0  0  0  0  0
  -15.8726   22.2612   73.9662 C   0  0  0  0  0  0  0  0  0  0  0  0
  -12.5498   21.3449   66.9579 F   0  0  0  0  0  0  0  0  0  0  0  0
  -15.7752   21.5191   68.1448 C   0  0  0  0  0  0  0  0  0  0  0  0
  -16.5924   23.2276   68.2633 C   0  0  2  0  0  0  0  0  0  0  0  0
  -17.3767   20.6737   72.7558 O   0  0  0  0  0  0  0  0  0  0  0  0
  4  3  2  3
  5  7  1  1
  8  3  1  0
  1  9  1  1
 10  1  1  0
 11  2  1  0
 11  5  1  0
 13 12  1  0
 14 12  1  0
 17  6  1  0
 17  7  1  0
 18  2  1  0
 19  6  1  1
 19  8  1  0
 11 20  1  6
 21 11  1  0
 21 16  1  1
 23  9  1  0
 23 10  2  0
 24 13  1  0
 25 15  1  0
 25 21  1  0
 26 10  1  0
 27 22  1  0
 28  1  1  0
 28 19  1  0
 28 24  1  1
 28 27  1  0
 29  5  1  0
 29 21  1  0
M  END
>  <ID>  (1) 
conformer_0

$$$$
