
     RDKit          3D

 26 28  0  0  0  0  0  0  0  0999 V2000
  -20.2281   19.9946   68.5083 C   0  0  0  0  0  0  0  0  0  0  0  0
  -17.5064   18.1351   74.0312 C   0  0  0  0  0  0  0  0  0  0  0  0
  -14.2404   23.7457   66.6106 C   0  0  0  0  0  0  0  0  0  0  0  0
  -16.0002   21.4213   68.3637 C   0  0  0  0  0  0  0  0  0  0  0  0
  -17.5336   19.4878   72.9669 C   0  0  0  0  0  0  0  0  0  0  0  0
  -19.2733   20.1525   69.0905 C   0  0  0  0  0  0  0  0  0  0  0  0
  -17.4950   21.7643   67.7919 C   0  0  0  0  0  0  0  0  0  0  0  0
  -13.2455   24.3485   66.1295 C   0  0  0  0  0  0  0  0  0  0  0  0
  -17.7800   20.6711   70.5171 C   0  0  0  0  0  0  0  0  0  0  0  0
  -13.5459   22.2010   66.9542 C   0  0  0  0  0  0  0  0  0  0  0  0
  -17.3630   23.2332   63.7898 C   0  0  0  0  0  0  0  0  0  0  0  0
  -16.5038   21.3026   74.3455 C   0  0  0  0  0  0  0  0  0  0  0  0
  -15.3045   22.2054   73.8456 O   0  0  0  0  0  0  0  0  0  0  0  0
  -17.8731   22.8436   64.4904 O   0  0  0  0  0  0  0  0  0  0  0  0
  -17.1898   20.2270   72.2488 O   0  0  0  0  0  0  0  0  0  0  0  0
  -16.0733   19.9583   76.1284 O   0  0  0  0  0  0  0  0  0  0  0  0
  -16.7713   23.4840   62.7298 C   0  0  0  0  0  0  0  0  0  0  0  0
  -18.2631   17.1053   73.0624 O   0  0  0  0  0  0  0  0  0  0  0  0
  -18.4194   20.7507   67.8678 C   0  0  0  0  0  0  0  0  0  0  0  0
  -12.1714   23.2904   66.4194 C   0  0  0  0  0  0  0  0  0  0  0  0
  -16.2243   17.6083   75.3201 O   0  0  0  0  0  0  0  0  0  0  0  0
  -16.7604   19.7799   74.6250 C   0  0  0  0  0  0  0  0  0  0  0  0
  -17.1135   22.2342   69.2900 C   0  0  0  0  0  0  0  0  0  0  0  0
  -12.8396   21.1944   67.1417 F   0  0  0  0  0  0  0  0  0  0  0  0
  -17.6874   21.4908   70.8484 O   0  0  0  0  0  0  0  0  0  0  0  0
  -16.0789   23.4706   68.0883 C   0  0  0  0  0  0  0  0  0  0  0  0
  5  2  1  0
  6  1  1  0
  7  4  1  0
  8  3  1  0
 10  3  1  0
 13 12  1  0
 14  7  1  0
 14 11  1  0
 15  5  1  0
 15  9  1  0
 17 11  3  0
 18  2  1  0
 19  6  1  0
 19  7  1  0
 20  8  1  0
 20 10  2  0
 21  2  1  0
 22  2  1  0
 22  5  1  0
 22 12  1  0
 22 16  1  0
 23  4  1  0
 23  7  1  0
 24 10  1  0
 25  9  1  0
 25 23  1  0
 26  3  1  0
 26 23  1  0
M  END
>  <ID>  (1) 
conformer_0

$$$$
