
     RDKit          3D

 27 27  0  0  0  0  0  0  0  0999 V2000
  -17.5880   20.6728   68.1978 C   0  0  0  0  0  0  0  0  0  0  0  0
  -13.6021   24.5884   66.1691 C   0  0  0  0  0  0  0  0  0  0  0  0
  -17.3993   22.3509   68.6607 C   0  0  0  0  0  0  0  0  0  0  0  0
  -16.9294   18.6444   74.3674 C   0  0  1  0  0  0  0  0  0  0  0  0
  -17.6753   19.8940   72.9216 C   0  0  0  0  0  0  0  0  0  0  0  0
  -12.3078   24.2390   65.6823 C   0  0  0  0  0  0  0  0  0  0  0  0
  -18.0061   21.0511   70.6863 C   0  0  0  0  0  0  0  0  0  0  0  0
  -15.4900   21.4169   67.7692 C   0  0  0  0  0  0  0  0  0  0  0  0
  -19.0072   20.2129   68.8140 C   0  0  0  0  0  0  0  0  0  0  0  0
  -17.4623   23.4732   64.1970 C   0  0  0  0  0  0  0  0  0  0  0  0
  -16.7270   23.6091   63.1814 C   0  0  0  0  0  0  0  0  0  0  0  0
  -11.6372   23.2803   66.4343 C   0  0  0  0  0  0  0  0  0  0  0  0
  -16.5700   21.6752   74.0348 C   0  0  0  0  0  0  0  0  0  0  0  0
  -18.5211   23.3716   64.9686 O   0  0  0  0  0  0  0  0  0  0  0  0
  -16.1591   17.7607   75.3070 O   0  0  0  0  0  0  0  0  0  0  0  0
  -17.5744   21.1235   71.7724 O   0  0  0  0  0  0  0  0  0  0  0  0
  -15.1190   22.1441   74.3014 O   0  0  0  0  0  0  0  0  0  0  0  0
  -18.4748   16.7495   73.7771 O   0  0  0  0  0  0  0  0  0  0  0  0
  -13.9194   22.2751   66.8668 C   0  0  0  0  0  0  0  0  0  0  0  0
  -16.4939   20.3360   74.6144 C   0  0  1  0  0  0  0  0  0  0  0  0
  -16.4200   23.1479   68.1096 C   0  0  1  0  0  0  0  0  0  0  0  0
  -16.2076   20.5119   76.0308 O   0  0  0  0  0  0  0  0  0  0  0  0
  -12.5398   22.1722   66.8620 C   0  0  0  0  0  0  0  0  0  0  0  0
  -14.1973   23.4073   66.6339 C   0  0  0  0  0  0  0  0  0  0  0  0
  -17.6086   17.9093   73.4440 C   0  0  0  0  0  0  0  0  0  0  0  0
  -20.0948   20.1050   68.1585 C   0  0  0  0  0  0  0  0  0  0  0  0
  -17.1785   21.6230   68.9132 C   0  0  1  0  0  0  0  0  0  0  0  0
  5  4  1  0
  6  2  2  0
  9  1  1  0
 11 10  3  0
 12  6  1  0
 14 10  1  0
  4 15  1  6
 16  5  1  0
 16  7  1  0
 17 13  1  0
 19  8  1  0
 20  4  1  0
 20 13  1  0
 21  3  1  1
 21  8  1  0
 21 14  1  0
 20 22  1  1
 23 12  2  0
 23 19  1  0
 24  2  1  0
 24 19  2  0
 25  4  1  0
 25 18  1  0
 26  9  2  3
 27  1  1  6
 27  3  1  0
 27  7  1  0
M  END
>  <ID>  (1) 
conformer_0

$$$$
