
     RDKit          3D

 25 25  0  0  0  0  0  0  0  0999 V2000
  -17.1028   18.4701   73.8266 C   0  0  0  0  0  0  0  0  0  0  0  0
  -20.2788   20.1769   68.3601 C   0  0  0  0  0  0  0  0  0  0  0  0
  -13.2732   24.4678   66.1015 C   0  0  0  0  0  0  0  0  0  0  0  0
  -19.0589   20.4648   68.6147 C   0  0  0  0  0  0  0  0  0  0  0  0
  -17.1509   22.5828   67.6937 C   0  0  0  0  0  0  0  0  0  0  0  0
  -16.5763   20.0536   74.4486 C   0  0  0  0  0  0  0  0  0  0  0  0
  -11.9713   23.5224   66.2652 C   0  0  0  0  0  0  0  0  0  0  0  0
  -18.0461   21.2294   68.2212 C   0  0  0  0  0  0  0  0  0  0  0  0
  -17.6848   22.7172   64.2318 C   0  0  0  0  0  0  0  0  0  0  0  0
  -17.3376   19.6463   72.6022 C   0  0  0  0  0  0  0  0  0  0  0  0
  -14.0092   22.3420   67.1655 C   0  0  0  0  0  0  0  0  0  0  0  0
  -16.6742   23.0509   68.4888 C   0  0  0  0  0  0  0  0  0  0  0  0
  -17.8218   22.4021   65.4648 O   0  0  0  0  0  0  0  0  0  0  0  0
  -14.7662   21.1487   68.1323 O   0  0  0  0  0  0  0  0  0  0  0  0
  -15.3006   22.4865   74.1371 O   0  0  0  0  0  0  0  0  0  0  0  0
  -17.3477   20.8380   72.1737 O   0  0  0  0  0  0  0  0  0  0  0  0
  -16.5933   21.5609   74.3545 C   0  0  0  0  0  0  0  0  0  0  0  0
  -14.2135   23.7755   66.7306 C   0  0  0  0  0  0  0  0  0  0  0  0
  -16.1263   17.6263   75.0196 O   0  0  0  0  0  0  0  0  0  0  0  0
  -16.0415   20.1669   76.0694 O   0  0  0  0  0  0  0  0  0  0  0  0
  -17.6246   21.2279   70.2694 C   0  0  0  0  0  0  0  0  0  0  0  0
  -16.1499   23.7942   63.4255 C   0  0  0  0  0  0  0  0  0  0  0  0
  -15.9276   21.4417   68.6574 C   0  0  0  0  0  0  0  0  0  0  0  0
  -16.0564   20.6666   70.3286 O   0  0  0  0  0  0  0  0  0  0  0  0
  -12.4949   22.3261   66.8708 C   0  0  0  0  0  0  0  0  0  0  0  0
  4  2  1  0
  6  1  1  0
  7  3  2  0
  8  4  2  0
  8  5  2  0
 10  1  1  0
 12  5  1  0
 13  5  1  0
 13  9  1  0
 14 11  1  0
 16 10  1  0
 17  6  1  0
 17 15  1  0
 18  3  1  0
 18 11  1  0
 19  1  1  0
 20  6  1  0
 21 16  1  0
 22  9  1  0
 23 12  1  0
 23 14  1  0
 24 21  1  0
 24 23  1  0
 25  7  1  0
 25 11  2  0
M  END
>  <ID>  (1) 
conformer_0

$$$$
