
     RDKit          3D

 29 29  0  0  0  0  0  0  0  0999 V2000
  -12.4674   22.5590   66.4268 C   0  0  0  0  0  0  0  0  0  0  0  0
  -19.9610   19.9316   68.8674 C   0  0  0  0  0  0  0  0  0  0  0  0
  -17.4712   17.8229   73.3776 C   0  0  0  0  0  0  0  0  0  0  0  0
  -16.9519   18.6423   74.1979 C   0  0  0  0  0  0  0  0  0  0  0  0
  -18.5796   20.5249   68.8777 C   0  0  0  0  0  0  0  0  0  0  0  0
  -15.5521   21.4164   68.0092 C   0  0  0  0  0  0  0  0  0  0  0  0
  -17.9595   20.8852   67.9615 C   0  0  0  0  0  0  0  0  0  0  0  0
  -13.0327   24.7096   66.3379 C   0  0  0  0  0  0  0  0  0  0  0  0
  -13.9743   24.0060   66.9790 C   0  0  0  0  0  0  0  0  0  0  0  0
  -17.2164   23.3644   64.4094 C   0  0  0  0  0  0  0  0  0  0  0  0
  -16.5812   22.0018   74.1206 C   0  0  0  0  0  0  0  0  0  0  0  0
  -16.4907   22.1208   69.1731 C   0  0  2  0  0  0  0  0  0  0  0  0
  -18.3661   22.8963   64.9423 O   0  0  0  0  0  0  0  0  0  0  0  0
  -20.7365   20.1640   67.7602 C   0  0  0  0  0  0  0  0  0  0  0  0
  -17.7307   20.7839   72.3548 O   0  0  0  0  0  0  0  0  0  0  0  0
  -15.6204   19.1733   75.4979 O   0  0  0  0  0  0  0  0  0  0  0  0
  -16.3123   17.0324   74.9407 O   0  0  0  0  0  0  0  0  0  0  0  0
  -18.4433   16.8204   73.4123 O   0  0  0  0  0  0  0  0  0  0  0  0
  -15.1310   22.1412   74.0366 O   0  0  0  0  0  0  0  0  0  0  0  0
  -16.7663   20.4371   74.5099 C   0  0  1  0  0  0  0  0  0  0  0  0
  -13.9870   22.4618   66.9261 C   0  0  0  0  0  0  0  0  0  0  0  0
  -15.8951   23.7413   68.0573 C   0  0  0  0  0  0  0  0  0  0  0  0
  -11.9795   23.7989   65.7636 C   0  0  0  0  0  0  0  0  0  0  0  0
  -17.5943   21.2143   70.3981 C   0  0  2  0  0  0  0  0  0  0  0  0
  -17.6251   19.8578   72.7414 C   0  0  0  0  0  0  0  0  0  0  0  0
  -16.6744   23.6639   63.2732 C   0  0  0  0  0  0  0  0  0  0  0  0
  -16.4248   21.1295   76.1841 O   0  0  0  0  0  0  0  0  0  0  0  0
  -16.8225   21.0159   70.8203 O   0  0  0  0  0  0  0  0  0  0  0  0
  -17.2445   22.6994   68.4753 C   0  0  0  0  0  0  0  0  0  0  0  0
  4  3  1  0
  5  2  1  0
  7  5  2  3
  9  8  2  0
 12  6  1  6
 13 10  1  0
 14  2  2  3
 16  4  1  0
 17  4  1  0
 18  3  1  0
 19 11  1  0
 20  4  1  0
 20 11  1  0
 21  1  2  0
 21  6  1  0
 21  9  1  0
 22 10  1  0
 23  1  1  0
 23  8  1  0
 24  5  1  0
 24 12  1  0
 25 15  1  0
 25 20  1  0
 26 10  2  3
 20 27  1  1
 28 15  1  0
 24 28  1  6
 29 12  1  0
 29 22  1  0
M  END
>  <ID>  (1) 
conformer_0

$$$$
