
     RDKit          3D

 27 27  0  0  0  0  0  0  0  0999 V2000
  -13.5930   24.5615   66.1971 C   0  0  0  0  0  0  0  0  0  0  0  0
  -17.5478   18.1136   73.5486 C   0  0  0  0  0  0  0  0  0  0  0  0
  -18.2117   20.5278   68.2147 C   0  0  2  0  0  0  0  0  0  0  0  0
  -17.1847   22.1106   68.3500 C   0  0  0  0  0  0  0  0  0  0  0  0
  -17.4892   19.9272   72.4367 C   0  0  0  0  0  0  0  0  0  0  0  0
  -14.1003   23.6570   66.9130 C   0  0  0  0  0  0  0  0  0  0  0  0
  -15.6778   21.2618   68.2435 C   0  0  0  0  0  0  0  0  0  0  0  0
  -19.2716   20.2812   68.8680 C   0  0  0  0  0  0  0  0  0  0  0  0
  -16.3385   23.5869   63.5601 C   0  0  0  0  0  0  0  0  0  0  0  0
  -17.8469   21.1749   70.1428 C   0  0  0  0  0  0  0  0  0  0  0  0
  -16.5454   20.6361   74.4071 C   0  0  1  0  0  0  0  0  0  0  0  0
  -12.3264   22.7531   66.5873 C   0  0  0  0  0  0  0  0  0  0  0  0
  -15.0111   22.5285   74.1849 O   0  0  0  0  0  0  0  0  0  0  0  0
  -17.4024   20.6849   71.7430 O   0  0  0  0  0  0  0  0  0  0  0  0
  -18.0290   22.8291   65.3662 O   0  0  0  0  0  0  0  0  0  0  0  0
  -15.5233   20.4448   69.6096 O   0  0  0  0  0  0  0  0  0  0  0  0
  -16.0980   17.8059   75.1357 O   0  0  0  0  0  0  0  0  0  0  0  0
  -20.3925   20.0477   68.3828 C   0  0  0  0  0  0  0  0  0  0  0  0
  -18.6951   17.4485   73.6601 O   0  0  0  0  0  0  0  0  0  0  0  0
  -16.8681   19.1516   74.2251 C   0  0  1  0  0  0  0  0  0  0  0  0
  -16.0637   20.3323   75.9026 O   0  0  0  0  0  0  0  0  0  0  0  0
  -12.1647   24.0576   65.9317 C   0  0  0  0  0  0  0  0  0  0  0  0
  -13.8620   22.2157   66.9269 C   0  0  0  0  0  0  0  0  0  0  0  0
  -17.5296   23.0628   64.7025 C   0  0  0  0  0  0  0  0  0  0  0  0
  -17.1705   22.0748   68.4182 C   0  0  2  0  0  0  0  0  0  0  0  0
  -15.7159   23.4889   68.1456 C   0  0  0  0  0  0  0  0  0  0  0  0
  -16.2876   22.1343   74.0844 C   0  0  0  0  0  0  0  0  0  0  0  0
  6  1  2  0
  8  3  1  0
  9  1  1  0
  3 10  1  1
 14  5  1  0
 14 10  1  0
 16  7  1  0
 18  8  2  3
 19  2  1  0
 20  2  1  0
 20  5  1  0
 20 11  1  0
 20 17  1  6
 11 21  1  6
 22  1  1  0
 22 12  1  0
 23  6  1  0
 23 12  2  0
 24  9  1  0
 24 15  1  0
 25  3  1  0
 25  4  1  6
 25  7  1  0
 26  4  1  0
 26  6  1  0
 27 11  1  0
 27 13  1  0
M  END
>  <ID>  (1) 
conformer_0

$$$$
