
     RDKit          3D

 28 29  0  0  0  0  0  0  0  0999 V2000
  -16.6439   19.1276   74.0678 C   0  0  2  0  0  0  0  0  0  0  0  0
  -20.8433   20.1740   67.8258 C   0  0  0  0  0  0  0  0  0  0  0  0
  -13.4673   24.7444   66.5600 C   0  0  0  0  0  0  0  0  0  0  0  0
  -15.6025   21.5583   68.8623 C   0  0  0  0  0  0  0  0  0  0  0  0
  -19.9428   19.9443   68.7866 C   0  0  0  0  0  0  0  0  0  0  0  0
  -17.3220   18.4857   73.2945 C   0  0  0  0  0  0  0  0  0  0  0  0
  -18.5055   20.5142   68.9290 C   0  0  1  0  0  0  0  0  0  0  0  0
  -12.1596   23.9297   66.3851 C   0  0  0  0  0  0  0  0  0  0  0  0
  -13.7624   22.3043   67.2273 C   0  0  0  0  0  0  0  0  0  0  0  0
  -17.5856   19.9258   71.9610 C   0  0  0  0  0  0  0  0  0  0  0  0
  -16.5273   23.5023   63.8262 C   0  0  0  0  0  0  0  0  0  0  0  0
  -16.4882   20.5435   74.0866 C   0  0  1  0  0  0  0  0  0  0  0  0
  -17.4297   23.0104   65.0517 C   0  0  0  0  0  0  0  0  0  0  0  0
  -18.2288   21.2211   67.9999 C   0  0  0  0  0  0  0  0  0  0  0  0
  -17.5271   20.7695   71.7624 O   0  0  0  0  0  0  0  0  0  0  0  0
  -18.2857   22.7029   65.1008 O   0  0  0  0  0  0  0  0  0  0  0  0
  -15.8986   19.8783   75.6693 O   0  0  0  0  0  0  0  0  0  0  0  0
  -18.0952   17.3225   72.8747 O   0  0  0  0  0  0  0  0  0  0  0  0
  -12.3324   22.5102   66.5974 C   0  0  0  0  0  0  0  0  0  0  0  0
  -15.0561   22.1667   74.0098 O   0  0  0  0  0  0  0  0  0  0  0  0
  -16.1134   17.5054   74.5540 O   0  0  0  0  0  0  0  0  0  0  0  0
  -15.8980   22.3358   74.0369 C   0  0  0  0  0  0  0  0  0  0  0  0
  -16.0770   23.6141   68.3007 C   0  0  0  0  0  0  0  0  0  0  0  0
  -15.6809   20.3629   70.2340 O   0  0  0  0  0  0  0  0  0  0  0  0
  -17.2884   21.0749   70.0839 C   0  0  1  0  0  0  0  0  0  0  0  0
  -16.7615   22.5039   68.2559 C   0  0  2  0  0  0  0  0  0  0  0  0
  -17.7191   22.8526   67.9593 C   0  0  1  0  0  0  0  0  0  0  0  0
  -14.1377   23.8517   67.2068 C   0  0  0  0  0  0  0  0  0  0  0  0
  5  2  2  3
  6  1  1  0
  7  5  1  0
  8  3  2  0
 10  6  2  3
 12  1  1  0
 13 11  1  0
  7 14  1  6
 15 10  1  0
 16 13  2  0
 12 17  1  1
 18  6  1  0
 19  8  1  0
 19  9  2  0
  1 21  1  6
 22 12  1  0
 22 20  1  0
 24  4  1  0
 25  7  1  0
 25 15  1  1
 25 24  1  0
 26  4  1  0
 26 23  1  1
 27 13  1  6
 27 14  1  0
 27 26  1  0
 28  3  1  0
 28  9  1  0
 28 23  1  0
M  END
>  <ID>  (1) 
conformer_0

$$$$
