
     RDKit          3D

 28 30  0  0  0  0  0  0  0  0999 V2000
  -19.2444   20.3628   68.5370 C   0  0  0  0  0  0  0  0  0  0  0  0
  -13.9945   24.5220   66.3687 C   0  0  0  0  0  0  0  0  0  0  0  0
  -16.4867   20.2222   74.7517 C   0  0  1  0  0  0  0  0  0  0  0  0
  -20.1811   20.1670   68.0633 C   0  0  0  0  0  0  0  0  0  0  0  0
  -17.4049   19.2567   73.4203 C   0  0  2  0  0  0  0  0  0  0  0  0
  -17.7510   20.9072   67.9934 C   0  0  0  0  0  0  0  0  0  0  0  0
  -18.0944   20.5823   71.2763 C   0  0  0  0  0  0  0  0  0  0  0  0
  -11.9957   23.1321   66.1480 C   0  0  0  0  0  0  0  0  0  0  0  0
  -17.8941   22.0311   68.2032 C   0  0  1  0  0  0  0  0  0  0  0  0
  -15.6827   21.5171   68.4232 C   0  0  0  0  0  0  0  0  0  0  0  0
  -17.4427   23.3438   64.0211 C   0  0  0  0  0  0  0  0  0  0  0  0
  -12.9989   22.2866   66.8606 C   0  0  0  0  0  0  0  0  0  0  0  0
  -18.3160   22.7585   65.2157 O   0  0  0  0  0  0  0  0  0  0  0  0
  -16.5063   23.2754   63.2092 C   0  0  0  0  0  0  0  0  0  0  0  0
  -16.2936   21.6148   74.0961 C   0  0  1  0  0  0  0  0  0  0  0  0
  -15.8598   19.6588   76.1369 O   0  0  0  0  0  0  0  0  0  0  0  0
  -14.8916   22.1069   73.7123 O   0  0  0  0  0  0  0  0  0  0  0  0
  -16.8159   20.8378   72.6393 O   0  0  0  0  0  0  0  0  0  0  0  0
  -14.0735   23.2394   66.9366 C   0  0  0  0  0  0  0  0  0  0  0  0
  -18.1195   17.2857   73.2085 O   0  0  0  0  0  0  0  0  0  0  0  0
  -16.2488   23.2319   68.2910 C   0  0  1  0  0  0  0  0  0  0  0  0
  -16.8801   18.3662   74.4553 C   0  0  0  0  0  0  0  0  0  0  0  0
  -16.2627   17.3217   75.2181 O   0  0  0  0  0  0  0  0  0  0  0  0
  -17.8016   22.6102   66.4455 C   0  0  0  0  0  0  0  0  0  0  0  0
  -12.4248   21.3067   67.1353 F   0  0  0  0  0  0  0  0  0  0  0  0
  -17.5119   21.8372   69.6588 C   0  0  0  0  0  0  0  0  0  0  0  0
  -18.3572   20.8042   71.3549 O   0  0  0  0  0  0  0  0  0  0  0  0
  -12.6119   24.5342   65.7505 C   0  0  0  0  0  0  0  0  0  0  0  0
  4  1  2  3
  5  3  1  0
  6  1  1  0
  5  7  1  1
  9  6  1  6
 12  8  2  0
 13 11  1  0
 14 11  2  3
 15  3  1  0
  3 16  1  6
 15 17  1  6
 18  5  1  0
 18 15  1  0
 19  2  2  0
 19 12  1  0
 21  9  1  0
 21 10  1  1
 21 19  1  0
 22  3  1  0
 22  5  1  0
 22 20  1  0
 23 22  1  0
 24  9  1  0
 24 13  1  0
 25 12  1  0
 26  7  1  0
 26  9  1  0
 27  7  2  0
 28  2  1  0
 28  8  1  0
M  END
>  <ID>  (1) 
conformer_0

$$$$
