
     RDKit          3D

 25 25  0  0  0  0  0  0  0  0999 V2000
  -17.1826   18.1273   73.9048 C   0  0  0  0  0  0  0  0  0  0  0  0
  -14.4047   23.6513   66.7225 C   0  0  0  0  0  0  0  0  0  0  0  0
  -18.7255   20.4389   68.7118 C   0  0  0  0  0  0  0  0  0  0  0  0
  -17.0017   20.2983   74.3032 C   0  0  1  0  0  0  0  0  0  0  0  0
  -20.0394   20.2002   68.6379 C   0  0  0  0  0  0  0  0  0  0  0  0
  -13.7394   24.4511   65.7340 C   0  0  0  0  0  0  0  0  0  0  0  0
  -17.9374   20.9622   67.4888 C   0  0  0  0  0  0  0  0  0  0  0  0
  -16.0963   21.5584   68.4014 C   0  0  1  0  0  0  0  0  0  0  0  0
  -17.0661   23.2444   63.5982 C   0  0  0  0  0  0  0  0  0  0  0  0
  -17.4636   19.4627   72.8543 C   0  0  1  0  0  0  0  0  0  0  0  0
  -18.8041   22.7555   65.3273 O   0  0  0  0  0  0  0  0  0  0  0  0
  -17.7178   20.7794   70.4309 C   0  0  0  0  0  0  0  0  0  0  0  0
  -12.5728   22.6605   66.4783 C   0  0  0  0  0  0  0  0  0  0  0  0
  -14.7456   22.5261   74.0734 O   0  0  0  0  0  0  0  0  0  0  0  0
  -17.3567   21.9272   68.1604 C   0  0  0  0  0  0  0  0  0  0  0  0
  -18.0824   22.8379   65.3763 C   0  0  0  0  0  0  0  0  0  0  0  0
  -16.0690   17.7053   75.0731 O   0  0  0  0  0  0  0  0  0  0  0  0
  -17.2439   19.7971   71.2376 O   0  0  0  0  0  0  0  0  0  0  0  0
  -18.4474   17.0038   73.3169 O   0  0  0  0  0  0  0  0  0  0  0  0
  -16.2585   20.5175   75.9298 O   0  0  0  0  0  0  0  0  0  0  0  0
  -14.0538   22.3187   67.0082 C   0  0  2  0  0  0  0  0  0  0  0  0
  -16.5065   21.9585   74.1089 C   0  0  0  0  0  0  0  0  0  0  0  0
  -17.6835   21.5339   72.3546 O   0  0  0  0  0  0  0  0  0  0  0  0
  -12.3689   23.8514   65.5283 C   0  0  0  0  0  0  0  0  0  0  0  0
  -16.1334   23.3883   68.2762 C   0  0  0  0  0  0  0  0  0  0  0  0
  5  3  2  3
  6  2  2  0
  7  3  1  0
 10  1  1  0
 10  4  1  0
 12  3  1  0
 15  7  1  0
 15  8  1  0
 16  2  1  0
 16  9  1  0
 16 11  2  0
 17  1  1  0
 10 18  1  6
 18 12  1  0
 19  1  1  0
  4 20  1  6
 21  2  1  0
 21  8  1  0
 21 13  1  1
 22  4  1  0
 22 14  1  0
 23 12  2  0
 24  6  1  0
 24 13  2  0
  8 25  1  1
M  END
>  <ID>  (1) 
conformer_0

$$$$
