
     RDKit          3D

 28 28  0  0  0  0  0  0  0  0999 V2000
  -19.2553   20.2937   68.8913 C   0  0  0  0  0  0  0  0  0  0  0  0
  -17.4751   18.8332   74.3477 C   0  0  2  0  0  0  0  0  0  0  0  0
  -20.2674   20.3052   68.2003 C   0  0  0  0  0  0  0  0  0  0  0  0
  -14.2791   23.6820   66.8915 C   0  0  0  0  0  0  0  0  0  0  0  0
  -14.1774   24.4712   65.9147 C   0  0  0  0  0  0  0  0  0  0  0  0
  -17.6303   19.8368   72.3948 C   0  0  0  0  0  0  0  0  0  0  0  0
  -17.2173   17.9180   73.3977 C   0  0  0  0  0  0  0  0  0  0  0  0
  -17.6621   20.7768   68.2446 C   0  0  1  0  0  0  0  0  0  0  0  0
  -16.3357   19.8655   74.7262 C   0  0  2  0  0  0  0  0  0  0  0  0
  -16.2646   23.8238   63.0936 C   0  0  0  0  0  0  0  0  0  0  0  0
  -17.1763   23.1612   64.3475 C   0  0  0  0  0  0  0  0  0  0  0  0
  -17.9391   21.9371   67.9765 C   0  0  2  0  0  0  0  0  0  0  0  0
  -17.8607   22.5079   64.9346 O   0  0  0  0  0  0  0  0  0  0  0  0
  -17.1918   20.7537   71.9426 O   0  0  0  0  0  0  0  0  0  0  0  0
  -12.3100   23.0148   66.2341 C   0  0  0  0  0  0  0  0  0  0  0  0
  -17.3643   21.0867   70.3574 C   0  0  0  0  0  0  0  0  0  0  0  0
  -13.5935   22.3333   66.9750 C   0  0  1  0  0  0  0  0  0  0  0  0
  -15.9629   20.0918   76.0269 O   0  0  0  0  0  0  0  0  0  0  0  0
  -14.6117   21.6519   73.8339 O   0  0  0  0  0  0  0  0  0  0  0  0
  -16.2377   17.5405   75.2238 O   0  0  0  0  0  0  0  0  0  0  0  0
  -16.8083   21.1827   74.3811 C   0  0  0  0  0  0  0  0  0  0  0  0
  -18.3025   17.2279   73.3478 O   0  0  0  0  0  0  0  0  0  0  0  0
  -16.4698   23.2318   68.0977 C   0  0  0  0  0  0  0  0  0  0  0  0
  -12.7173   24.2121   65.4297 C   0  0  0  0  0  0  0  0  0  0  0  0
  -13.1161   21.4634   67.3380 F   0  0  0  0  0  0  0  0  0  0  0  0
  -15.6388   21.3312   68.5929 C   0  0  0  0  0  0  0  0  0  0  0  0
  -17.3484   22.3822   69.0624 C   0  0  1  0  0  0  0  0  0  0  0  0
  -15.3356   22.3519   73.9839 C   0  0  0  0  0  0  0  0  0  0  0  0
  3  1  2  3
  5  4  2  0
  6  2  1  0
  7  2  1  0
  8  1  1  0
  9  2  1  0
 10  5  1  0
 11 10  1  0
 12  8  1  0
 12 11  1  6
 13 11  2  0
 14  6  1  0
 16 14  1  0
 17  4  1  0
 17 15  1  0
  9 18  1  1
  2 20  1  1
 21  9  1  0
 22  7  1  0
 24  5  1  0
 24 15  2  0
 17 25  1  1
  8 26  1  1
 27 12  1  0
 27 16  1  0
 27 23  1  6
 28 19  1  0
 28 21  1  0
M  END
>  <ID>  (1) 
conformer_0

$$$$
