
     RDKit          3D

 28 29  0  0  0  0  0  0  0  0999 V2000
  -13.4613   24.6338   66.3977 C   0  0  0  0  0  0  0  0  0  0  0  0
  -17.2939   17.9068   73.6710 C   0  0  0  0  0  0  0  0  0  0  0  0
  -18.5531   20.5295   68.9009 C   0  0  0  0  0  0  0  0  0  0  0  0
  -17.8739   20.9133   67.5587 C   0  0  0  0  0  0  0  0  0  0  0  0
  -16.5599   20.6299   74.7251 C   0  0  0  0  0  0  0  0  0  0  0  0
  -17.1504   22.0443   68.1644 C   0  0  0  0  0  0  0  0  0  0  0  0
  -12.1545   24.0432   65.8938 C   0  0  0  0  0  0  0  0  0  0  0  0
  -15.5662   23.4387   68.4202 C   0  0  0  0  0  0  0  0  0  0  0  0
  -15.6306   21.5560   68.6755 C   0  0  0  0  0  0  0  0  0  0  0  0
  -17.6439   19.8606   72.4993 C   0  0  0  0  0  0  0  0  0  0  0  0
  -17.3821   23.3599   64.6479 C   0  0  0  0  0  0  0  0  0  0  0  0
  -16.3862   22.0167   74.2577 C   0  0  0  0  0  0  0  0  0  0  0  0
  -13.4461   22.1918   66.9987 C   0  0  0  0  0  0  0  0  0  0  0  0
  -13.9507   23.5961   67.0846 C   0  0  0  0  0  0  0  0  0  0  0  0
  -17.9587   23.2710   65.4585 O   0  0  0  0  0  0  0  0  0  0  0  0
  -17.3087   20.9995   72.1534 O   0  0  0  0  0  0  0  0  0  0  0  0
  -14.6440   21.0798   68.2251 O   0  0  0  0  0  0  0  0  0  0  0  0
  -15.1358   22.6881   74.0758 O   0  0  0  0  0  0  0  0  0  0  0  0
  -15.9637   18.1231   75.5048 O   0  0  0  0  0  0  0  0  0  0  0  0
  -16.0829   23.5565   63.0747 C   0  0  0  0  0  0  0  0  0  0  0  0
  -18.3646   16.7706   73.8359 O   0  0  0  0  0  0  0  0  0  0  0  0
  -16.8069   18.9983   74.5458 C   0  0  0  0  0  0  0  0  0  0  0  0
  -16.2127   20.6839   76.2697 O   0  0  0  0  0  0  0  0  0  0  0  0
  -19.6232   19.8482   68.8167 C   0  0  0  0  0  0  0  0  0  0  0  0
  -17.8433   21.2068   70.2998 C   0  0  0  0  0  0  0  0  0  0  0  0
  -11.9435   22.5536   66.4190 C   0  0  0  0  0  0  0  0  0  0  0  0
  -21.0507   19.8621   67.9041 C   0  0  0  0  0  0  0  0  0  0  0  0
  -17.1020   22.4273   67.7188 C   0  0  0  0  0  0  0  0  0  0  0  0
  4  3  1  0
  6  4  1  0
  7  1  2  0
  9  6  1  0
  9  8  1  0
 10  2  1  0
 11  4  1  0
 12  5  1  0
 14  1  1  0
 14  8  1  0
 14 13  1  0
 15 11  2  0
 16 10  1  0
 17  9  1  0
 18 12  1  0
 20 11  1  0
 21  2  1  0
 22  2  1  0
 22  5  1  0
 22 19  1  0
 23  5  1  0
 24  3  1  0
 25  3  1  0
 25 16  1  0
 26  7  1  0
 26 13  2  0
 27 24  1  0
 28  6  1  0
 28  8  1  0
M  END
>  <ID>  (1) 
conformer_0

$$$$
