
     RDKit          3D

 26 27  0  0  0  0  0  0  0  0999 V2000
  -13.4180   24.7061   66.2593 C   0  0  0  0  0  0  0  0  0  0  0  0
  -20.4301   19.8766   68.6124 C   0  0  0  0  0  0  0  0  0  0  0  0
  -16.6939   20.0244   74.4351 C   0  0  2  0  0  0  0  0  0  0  0  0
  -17.4468   19.1704   72.8467 C   0  0  2  0  0  0  0  0  0  0  0  0
  -19.4667   20.3484   68.8210 C   0  0  0  0  0  0  0  0  0  0  0  0
  -17.9507   20.9507   70.3239 C   0  0  0  0  0  0  0  0  0  0  0  0
  -18.1751   20.5892   68.1252 C   0  0  0  0  0  0  0  0  0  0  0  0
  -12.0296   24.1156   65.9076 C   0  0  0  0  0  0  0  0  0  0  0  0
  -12.1323   22.7522   66.4675 C   0  0  0  0  0  0  0  0  0  0  0  0
  -16.1603   23.6283   63.2385 C   0  0  0  0  0  0  0  0  0  0  0  0
  -16.3657   21.4650   74.3380 C   0  0  0  0  0  0  0  0  0  0  0  0
  -16.8988   21.8778   69.2338 C   0  0  2  0  0  0  0  0  0  0  0  0
  -17.1356   23.2906   64.4456 C   0  0  1  0  0  0  0  0  0  0  0  0
  -17.5755   22.5091   65.1098 O   0  0  0  0  0  0  0  0  0  0  0  0
  -16.2891   17.3480   74.9045 O   0  0  0  0  0  0  0  0  0  0  0  0
  -15.3158   22.4099   74.1216 O   0  0  0  0  0  0  0  0  0  0  0  0
  -17.5563   20.6889   71.7674 O   0  0  0  0  0  0  0  0  0  0  0  0
  -17.2543   22.1241   68.2369 C   0  0  1  0  0  0  0  0  0  0  0  0
  -18.4454   16.9929   73.3318 O   0  0  0  0  0  0  0  0  0  0  0  0
  -15.3538   20.6493   69.7339 O   0  0  0  0  0  0  0  0  0  0  0  0
  -13.2918   22.3702   67.2209 C   0  0  0  0  0  0  0  0  0  0  0  0
  -17.4413   18.2746   73.6698 C   0  0  0  0  0  0  0  0  0  0  0  0
  -13.9992   23.6972   66.8916 C   0  0  0  0  0  0  0  0  0  0  0  0
  -15.8719   23.3584   68.3587 C   0  0  2  0  0  0  0  0  0  0  0  0
  -15.8191   19.4117   75.7372 O   0  0  0  0  0  0  0  0  0  0  0  0
  -15.7081   21.4727   68.1417 C   0  0  2  0  0  0  0  0  0  0  0  0
  4  3  1  0
  5  2  2  3
  7  5  1  0
  8  1  2  0
  9  8  1  0
 11  3  1  0
 12  6  1  6
 13 10  1  6
 14 13  1  0
 16 11  1  0
  4 17  1  1
 17  6  1  0
 18  7  1  6
 18 12  1  0
 21  9  2  0
 22  4  1  0
 22 15  1  0
 22 19  1  0
 23  1  1  0
 23 13  1  0
 23 21  1  0
 24 18  1  0
 24 23  1  6
  3 25  1  6
 26 12  1  0
 26 20  1  1
 26 24  1  0
M  END
>  <ID>  (1) 
conformer_0

$$$$
