
     RDKit          3D

 28 30  0  0  0  0  0  0  0  0999 V2000
  -13.7454   24.3833   65.9694 C   0  0  0  0  0  0  0  0  0  0  0  0
  -17.3838   19.3445   72.8174 C   0  0  0  0  0  0  0  0  0  0  0  0
  -18.2238   20.9887   67.5079 C   0  0  0  0  0  0  0  0  0  0  0  0
  -19.1101   20.4084   68.7091 C   0  0  0  0  0  0  0  0  0  0  0  0
  -15.8207   21.4485   68.2995 C   0  0  0  0  0  0  0  0  0  0  0  0
  -17.3400   18.4523   73.6906 C   0  0  0  0  0  0  0  0  0  0  0  0
  -12.1773   23.7520   65.9483 C   0  0  0  0  0  0  0  0  0  0  0  0
  -17.4975   21.8022   68.5540 C   0  0  0  0  0  0  0  0  0  0  0  0
  -17.9370   20.3789   70.6731 C   0  0  0  0  0  0  0  0  0  0  0  0
  -13.7966   22.3720   67.2346 C   0  0  0  0  0  0  0  0  0  0  0  0
  -16.6150   19.9418   74.5281 C   0  0  0  0  0  0  0  0  0  0  0  0
  -16.6080   23.4709   63.6154 C   0  0  0  0  0  0  0  0  0  0  0  0
  -16.6036   21.7416   69.8265 C   0  0  0  0  0  0  0  0  0  0  0  0
  -17.4987   20.3596   70.9613 O   0  0  0  0  0  0  0  0  0  0  0  0
  -17.8500   23.4566   65.9990 O   0  0  0  0  0  0  0  0  0  0  0  0
  -14.3165   23.7800   66.9751 C   0  0  0  0  0  0  0  0  0  0  0  0
  -16.2128   17.5379   74.9132 O   0  0  0  0  0  0  0  0  0  0  0  0
  -14.9619   22.2561   74.3125 O   0  0  0  0  0  0  0  0  0  0  0  0
  -20.1605   20.1481   68.2562 C   0  0  0  0  0  0  0  0  0  0  0  0
  -18.4647   17.6547   72.9123 O   0  0  0  0  0  0  0  0  0  0  0  0
  -16.0735   20.1593   76.0430 O   0  0  0  0  0  0  0  0  0  0  0  0
  -17.5207   22.9250   67.7240 C   0  0  0  0  0  0  0  0  0  0  0  0
  -16.2833   21.5604   74.2252 C   0  0  0  0  0  0  0  0  0  0  0  0
  -17.2879   23.4400   64.8169 C   0  0  0  0  0  0  0  0  0  0  0  0
  -12.2987   22.6096   66.7079 C   0  0  0  0  0  0  0  0  0  0  0  0
  -16.6589   20.9578   72.5282 O   0  0  0  0  0  0  0  0  0  0  0  0
  -16.0430   23.5087   68.1234 C   0  0  0  0  0  0  0  0  0  0  0  0
  -14.9416   21.2055   68.7598 O   0  0  0  0  0  0  0  0  0  0  0  0
  4  3  1  0
  6  2  1  0
  7  1  2  0
  8  3  1  0
  8  5  1  0
  9  2  1  0
 11  6  1  0
 13  5  1  0
 13  8  1  0
 13  9  1  0
 14  9  1  0
 16  1  1  0
 16 10  1  0
 17  6  1  0
 19  4  1  0
 20  6  1  0
 21 11  1  0
 22  8  1  0
 22 15  1  0
 23 11  1  0
 23 18  1  0
 24 12  1  0
 24 15  1  0
 25  7  1  0
 25 10  2  0
 26  2  1  0
 26 23  1  0
 27 16  1  0
 27 22  1  0
 28  5  1  0
M  END
>  <ID>  (1) 
conformer_0

$$$$
