
     RDKit          3D

 31 35  0  0  0  0  0  0  0  0999 V2000
  -16.7012   19.0567   74.4096 C   0  0  0  0  0  0  0  0  0  0  0  0
  -14.1633   23.8400   66.9708 C   0  0  0  0  0  0  0  0  0  0  0  0
  -20.4751   20.1693   68.1544 C   0  0  0  0  0  0  0  0  0  0  0  0
  -19.1497   20.1481   69.0751 C   0  0  0  0  0  0  0  0  0  0  0  0
  -16.3132   20.7463   74.4734 C   0  0  0  0  0  0  0  0  0  0  0  0
  -17.2109   21.4051   69.3939 C   0  0  0  0  0  0  0  0  0  0  0  0
  -17.4219   20.7971   67.9880 C   0  0  0  0  0  0  0  0  0  0  0  0
  -13.2700   24.6748   66.3624 C   0  0  0  0  0  0  0  0  0  0  0  0
  -17.8927   23.5252   64.2740 C   0  0  0  0  0  0  0  0  0  0  0  0
  -15.5814   21.2920   68.2823 C   0  0  0  0  0  0  0  0  0  0  0  0
  -15.9339   22.0319   74.1120 C   0  0  0  0  0  0  0  0  0  0  0  0
  -13.8032   22.2960   67.0659 C   0  0  0  0  0  0  0  0  0  0  0  0
  -17.2888   23.1481   65.9742 O   0  0  0  0  0  0  0  0  0  0  0  0
  -17.1533   23.0579   63.3200 C   0  0  0  0  0  0  0  0  0  0  0  0
  -17.7215   20.8579   71.1592 O   0  0  0  0  0  0  0  0  0  0  0  0
  -18.9364   20.9578   67.8408 C   0  0  0  0  0  0  0  0  0  0  0  0
  -14.5525   22.4928   74.2141 O   0  0  0  0  0  0  0  0  0  0  0  0
  -12.1325   23.7832   65.8904 C   0  0  0  0  0  0  0  0  0  0  0  0
  -16.0317   20.1452   76.0152 O   0  0  0  0  0  0  0  0  0  0  0  0
  -18.2890   16.8885   73.2837 O   0  0  0  0  0  0  0  0  0  0  0  0
  -16.1603   17.6467   75.1461 O   0  0  0  0  0  0  0  0  0  0  0  0
  -17.9742   20.7573   70.8062 C   0  0  0  0  0  0  0  0  0  0  0  0
  -17.5239   22.4925   68.4319 C   0  0  0  0  0  0  0  0  0  0  0  0
  -14.9740   21.0596   68.7539 O   0  0  0  0  0  0  0  0  0  0  0  0
  -17.5103   22.8069   66.5215 C   0  0  0  0  0  0  0  0  0  0  0  0
  -18.8482   22.5054   64.9155 O   0  0  0  0  0  0  0  0  0  0  0  0
  -12.3398   22.3826   66.4986 C   0  0  0  0  0  0  0  0  0  0  0  0
  -17.5036   19.6447   72.9437 C   0  0  0  0  0  0  0  0  0  0  0  0
  -17.6997   17.8922   73.6668 C   0  0  0  0  0  0  0  0  0  0  0  0
  -16.7568   20.6581   72.5963 O   0  0  0  0  0  0  0  0  0  0  0  0
  -16.1898   23.0927   68.3247 C   0  0  0  0  0  0  0  0  0  0  0  0
  4  3  1  0
  5  1  1  0
  7  6  1  0
  8  2  2  0
 10  7  1  0
 11  5  1  0
 12  2  1  0
 13  9  1  0
 14  9  1  0
 16  3  1  0
 16  4  1  0
 16  7  1  0
 17 11  1  0
 18  8  1  0
 19  5  1  0
 21  1  1  0
 22  6  1  0
 22 15  1  0
 23  6  1  0
 23  7  1  0
 24 10  1  0
 25 13  1  0
 25 23  1  0
 26  9  1  0
 27 12  1  0
 27 18  2  0
 28  1  1  0
 29  1  1  0
 29 20  1  0
 29 28  1  0
 30 15  1  0
 30 28  1  0
 31  2  1  0
 31 10  1  0
 31 23  1  0
M  END
>  <ID>  (1) 
conformer_0

$$$$
