
     RDKit          3D

 23 23  0  0  0  0  0  0  0  0999 V2000
  -18.6962   20.4603   68.4138 C   0  0  0  0  0  0  0  0  0  0  0  0
  -17.1353   18.2394   73.6872 C   0  0  0  0  0  0  0  0  0  0  0  0
  -13.2327   24.4829   66.1672 C   0  0  0  0  0  0  0  0  0  0  0  0
  -16.0429   23.5155   68.3651 C   0  0  0  0  0  0  0  0  0  0  0  0
  -17.3733   19.3120   72.8435 C   0  0  1  0  0  0  0  0  0  0  0  0
  -16.9483   22.0299   68.9892 C   0  0  2  0  0  0  0  0  0  0  0  0
  -14.1203   24.1251   66.7379 C   0  0  0  0  0  0  0  0  0  0  0  0
  -17.6949   21.7118   68.2697 C   0  0  1  0  0  0  0  0  0  0  0  0
  -16.4862   23.2935   63.2179 C   0  0  0  0  0  0  0  0  0  0  0  0
  -17.7568   20.8608   70.6077 C   0  0  0  0  0  0  0  0  0  0  0  0
  -16.7239   19.9594   74.5081 C   0  0  1  0  0  0  0  0  0  0  0  0
  -17.7192   22.7108   65.0536 O   0  0  0  0  0  0  0  0  0  0  0  0
  -17.4430   23.0924   64.0848 C   0  0  0  0  0  0  0  0  0  0  0  0
  -12.2719   23.3342   66.2877 C   0  0  0  0  0  0  0  0  0  0  0  0
  -13.5725   22.3722   67.0154 C   0  0  0  0  0  0  0  0  0  0  0  0
  -17.5560   20.8258   71.8341 O   0  0  0  0  0  0  0  0  0  0  0  0
  -15.3050   21.9835   74.1175 O   0  0  0  0  0  0  0  0  0  0  0  0
  -15.8805   20.1688   76.0107 O   0  0  0  0  0  0  0  0  0  0  0  0
  -18.3972   17.4208   72.8361 O   0  0  0  0  0  0  0  0  0  0  0  0
  -19.8346   20.1224   68.6714 C   0  0  0  0  0  0  0  0  0  0  0  0
  -15.9488   17.8125   75.0089 O   0  0  0  0  0  0  0  0  0  0  0  0
  -16.8116   21.5002   74.3965 C   0  0  0  0  0  0  0  0  0  0  0  0
  -15.8694   21.3999   68.0439 C   0  0  0  0  0  0  0  0  0  0  0  0
  5  2  1  0
  6  4  1  0
  7  3  2  0
  7  4  1  0
  8  1  1  0
  8  6  1  0
 10  6  1  0
 11  5  1  0
  8 12  1  6
 13  9  2  3
 13 12  1  0
 14  3  1  0
 15  7  1  0
 15 14  2  0
  5 16  1  6
 16 10  1  0
 11 18  1  6
 19  2  1  0
 20  1  2  3
 21  2  1  0
 22 11  1  0
 22 17  1  0
  6 23  1  6
M  END
>  <ID>  (1) 
conformer_0

$$$$
