
     RDKit          3D

 29 33  0  0  0  0  0  0  0  0999 V2000
  -14.1923   23.9049   66.9405 C   0  0  0  0  0  0  0  0  0  0  0  0
  -17.7460   17.8322   73.6230 C   0  0  0  0  0  0  0  0  0  0  0  0
  -19.5720   19.8934   68.8378 C   0  0  0  0  0  0  0  0  0  0  0  0
  -19.7580   20.6615   67.8792 C   0  0  0  0  0  0  0  0  0  0  0  0
  -17.7671   20.9275   67.6406 C   0  0  0  0  0  0  0  0  0  0  0  0
  -16.3506   20.3990   74.7277 C   0  0  0  0  0  0  0  0  0  0  0  0
  -17.2252   19.6864   73.0197 C   0  0  0  0  0  0  0  0  0  0  0  0
  -13.9726   24.3594   65.5423 C   0  0  0  0  0  0  0  0  0  0  0  0
  -18.2149   20.6254   69.1934 C   0  0  0  0  0  0  0  0  0  0  0  0
  -17.1059   23.6730   64.3892 C   0  0  0  0  0  0  0  0  0  0  0  0
  -17.7783   22.7062   65.2724 O   0  0  0  0  0  0  0  0  0  0  0  0
  -16.2995   21.8100   74.3310 C   0  0  0  0  0  0  0  0  0  0  0  0
  -17.3196   20.8043   72.1025 O   0  0  0  0  0  0  0  0  0  0  0  0
  -15.2073   22.4960   74.2378 O   0  0  0  0  0  0  0  0  0  0  0  0
  -14.9009   21.1185   68.3384 O   0  0  0  0  0  0  0  0  0  0  0  0
  -13.1484   22.5133   66.6232 C   0  0  0  0  0  0  0  0  0  0  0  0
  -17.7626   20.5774   70.8993 C   0  0  0  0  0  0  0  0  0  0  0  0
  -15.9969   20.0486   76.0497 O   0  0  0  0  0  0  0  0  0  0  0  0
  -18.4294   16.4890   74.2256 O   0  0  0  0  0  0  0  0  0  0  0  0
  -12.6512   22.9131   66.6333 C   0  0  0  0  0  0  0  0  0  0  0  0
  -16.1741   24.3463   63.8942 C   0  0  0  0  0  0  0  0  0  0  0  0
  -17.2474   22.3237   68.4726 C   0  0  0  0  0  0  0  0  0  0  0  0
  -16.1473   17.8124   75.3493 O   0  0  0  0  0  0  0  0  0  0  0  0
  -17.0291   18.7127   74.5687 C   0  0  0  0  0  0  0  0  0  0  0  0
  -17.3968   22.6552   66.5512 C   0  0  0  0  0  0  0  0  0  0  0  0
  -12.5629   24.2400   65.2401 C   0  0  0  0  0  0  0  0  0  0  0  0
  -17.0475   21.8009   70.0489 C   0  0  0  0  0  0  0  0  0  0  0  0
  -16.0216   23.3476   68.0965 C   0  0  0  0  0  0  0  0  0  0  0  0
  -15.9263   21.5168   68.5061 C   0  0  0  0  0  0  0  0  0  0  0  0
  4  3  1  0
  8  1  2  0
  9  3  1  0
  9  5  1  0
 11 10  1  0
 12  6  1  0
 13  7  1  0
 14 12  1  0
 16  1  1  0
 17  9  1  0
 17 13  1  0
 18  6  1  0
 19  2  1  0
 20 16  1  0
 21 10  3  0
 22  5  1  0
 24  2  1  0
 24  6  1  0
 24  7  1  0
 24 23  1  0
 25  5  1  0
 25 11  1  0
 26  8  1  0
 26 20  2  0
 27  9  1  0
 27 17  1  0
 27 22  1  0
 28  1  1  0
 28 22  1  0
 29 15  1  0
 29 22  1  0
 29 27  1  0
 29 28  1  0
M  END
>  <ID>  (1) 
conformer_0

$$$$
