
     RDKit          3D

 29 28  0  0  0  0  0  0  0  0999 V2000
  -14.3692   23.7964   66.7762 C   0  0  0  0  0  0  0  0  0  0  0  0
  -17.4195   19.6760   72.4584 C   0  0  0  0  0  0  0  0  0  0  0  0
  -17.2965   18.0814   73.3379 C   0  0  1  0  0  0  0  0  0  0  0  0
  -19.3042   20.6808   68.0355 C   0  0  0  0  0  0  0  0  0  0  0  0
  -20.1140   19.9778   68.7727 C   0  0  0  0  0  0  0  0  0  0  0  0
  -17.0088   21.7265   69.8011 C   0  0  2  0  0  0  0  0  0  0  0  0
  -17.9807   20.7039   68.2942 C   0  0  0  0  0  0  0  0  0  0  0  0
  -13.6109   24.4574   65.9399 C   0  0  0  0  0  0  0  0  0  0  0  0
  -18.4957   20.4942   70.6542 C   0  0  0  0  0  0  0  0  0  0  0  0
  -16.7074   19.0525   74.4456 C   0  0  2  0  0  0  0  0  0  0  0  0
  -17.7473   22.6035   65.3785 O   0  0  0  0  0  0  0  0  0  0  0  0
  -17.1488   23.4338   64.2920 C   0  0  0  0  0  0  0  0  0  0  0  0
  -16.6489   23.5498   63.2112 C   0  0  0  0  0  0  0  0  0  0  0  0
  -12.5839   22.3487   66.6352 C   0  0  0  0  0  0  0  0  0  0  0  0
  -14.0117   22.3248   67.1600 C   0  0  0  0  0  0  0  0  0  0  0  0
  -17.5099   22.0466   68.1903 C   0  0  2  0  0  0  0  0  0  0  0  0
  -15.8687   19.9294   75.9848 O   0  0  0  0  0  0  0  0  0  0  0  0
  -16.7934   20.9986   72.2794 O   0  0  0  0  0  0  0  0  0  0  0  0
  -18.3985   17.1522   73.2047 O   0  0  0  0  0  0  0  0  0  0  0  0
  -15.0397   22.4673   73.6581 O   0  0  0  0  0  0  0  0  0  0  0  0
  -16.4145   20.5927   74.4007 C   0  0  1  0  0  0  0  0  0  0  0  0
  -16.0462   17.6977   75.0518 O   0  0  0  0  0  0  0  0  0  0  0  0
  -17.7010   22.3347   66.5720 C   0  0  0  0  0  0  0  0  0  0  0  0
  -15.6637   21.3787   68.5140 C   0  0  1  0  0  0  0  0  0  0  0  0
  -16.1831   23.5210   68.3841 C   0  0  0  0  0  0  0  0  0  0  0  0
  -12.2830   23.5788   65.8691 C   0  0  0  0  0  0  0  0  0  0  0  0
  -15.1079   20.8919   68.6956 O   0  0  0  0  0  0  0  0  0  0  0  0
  -18.3945   20.5185   71.3967 O   0  0  0  0  0  0  0  0  0  0  0  0
  -15.9285   22.0680   74.0097 C   0  0  0  0  0  0  0  0  0  0  0  0
  3  2  1  0
  5  4  2  3
  7  4  1  0
  6  9  1  6
 10  3  1  0
 12 11  1  0
 13 12  2  3
 15  1  1  0
 15 14  1  0
 16  6  1  0
 16  7  1  6
 18  2  2  0
  3 19  1  1
 21 10  1  0
 21 17  1  1
 10 22  1  6
 23 11  1  0
 23 16  1  0
 24  6  1  0
 25  8  1  0
 25 24  1  0
 26  8  1  0
 26 14  2  3
 24 27  1  1
 28  2  1  0
 28  9  1  0
 29 20  1  0
 29 21  1  0
M  END
>  <ID>  (1) 
conformer_0

$$$$
