
     RDKit          3D

 31 31  0  0  0  0  0  0  0  0999 V2000
  -13.4539   24.6526   65.7177 C   0  0  0  0  0  0  0  0  0  0  0  0
  -17.4944   18.2545   73.7733 C   0  0  0  0  0  0  0  0  0  0  0  0
  -18.1267   20.5770   67.8895 C   0  0  0  0  0  0  0  0  0  0  0  0
  -16.8678   19.1955   74.6709 C   0  0  0  0  0  0  0  0  0  0  0  0
  -17.1418   21.8929   69.5964 C   0  0  0  0  0  0  0  0  0  0  0  0
  -19.2943   20.1537   68.7876 C   0  0  0  0  0  0  0  0  0  0  0  0
  -17.9133   22.0683   68.3109 C   0  0  0  0  0  0  0  0  0  0  0  0
  -17.2584   19.6884   72.6508 C   0  0  0  0  0  0  0  0  0  0  0  0
  -14.2625   22.5034   67.0366 C   0  0  0  0  0  0  0  0  0  0  0  0
  -16.1868   20.6419   74.2888 C   0  0  0  0  0  0  0  0  0  0  0  0
  -17.4506   23.1977   64.2499 C   0  0  0  0  0  0  0  0  0  0  0  0
  -16.3803   23.5970   63.7646 C   0  0  0  0  0  0  0  0  0  0  0  0
  -18.1011   23.4170   66.0950 O   0  0  0  0  0  0  0  0  0  0  0  0
  -14.1686   23.7930   66.5152 C   0  0  0  0  0  0  0  0  0  0  0  0
  -16.4111   20.5357   72.3049 O   0  0  0  0  0  0  0  0  0  0  0  0
  -16.0285   20.1988   76.0531 O   0  0  0  0  0  0  0  0  0  0  0  0
  -14.7792   22.3536   73.8179 O   0  0  0  0  0  0  0  0  0  0  0  0
  -18.4379   17.1287   73.5726 O   0  0  0  0  0  0  0  0  0  0  0  0
  -16.1852   17.6827   75.3661 O   0  0  0  0  0  0  0  0  0  0  0  0
  -20.3240   20.1406   68.0963 C   0  0  0  0  0  0  0  0  0  0  0  0
  -15.6311   22.1800   74.0029 C   0  0  0  0  0  0  0  0  0  0  0  0
  -14.8547   21.2337   68.0411 O   0  0  0  0  0  0  0  0  0  0  0  0
  -17.2076   22.8016   67.4567 C   0  0  0  0  0  0  0  0  0  0  0  0
  -18.2149   20.9006   71.3421 O   0  0  0  0  0  0  0  0  0  0  0  0
  -12.0760   21.6790   66.8173 F   0  0  0  0  0  0  0  0  0  0  0  0
  -15.6821   21.7376   68.3923 C   0  0  0  0  0  0  0  0  0  0  0  0
  -16.0958   23.6173   68.4414 C   0  0  0  0  0  0  0  0  0  0  0  0
  -18.3132   22.3810   64.3813 O   0  0  0  0  0  0  0  0  0  0  0  0
  -12.3008   23.6152   66.0224 C   0  0  0  0  0  0  0  0  0  0  0  0
  -18.2221   20.7619   70.5133 C   0  0  0  0  0  0  0  0  0  0  0  0
  -12.3174   22.5189   66.4474 C   0  0  0  0  0  0  0  0  0  0  0  0
  4  2  1  0
  6  3  1  0
  7  3  1  0
  7  5  1  0
  8  2  1  0
 10  4  1  0
 12 11  1  0
 13 11  1  0
 14  1  1  0
 14  9  1  0
 15  8  2  0
 16 10  1  0
 18  2  1  0
 19  4  1  0
 20  6  1  0
 21 10  1  0
 21 17  1  0
 22  9  1  0
 23  7  1  0
 23 13  1  0
 24  8  1  0
 26  5  1  0
 26 22  1  0
 27 23  1  0
 27 26  1  0
 28 11  2  0
 29  1  1  0
 30  5  1  0
 30 24  1  0
 31 25  1  0
 31 29  1  0
M  END
>  <ID>  (1) 
conformer_0

$$$$
