
     RDKit          3D

 26 28  0  0  0  0  0  0  0  0999 V2000
  -14.0910   23.7446   66.9412 C   0  0  1  0  0  0  0  0  0  0  0  0
  -17.7976   19.4015   73.0440 C   0  0  0  0  0  0  0  0  0  0  0  0
  -20.4305   20.0445   68.3563 C   0  0  0  0  0  0  0  0  0  0  0  0
  -19.1582   20.2477   68.6908 C   0  0  0  0  0  0  0  0  0  0  0  0
  -16.6178   20.1544   74.5528 C   0  0  2  0  0  0  0  0  0  0  0  0
  -17.0212   21.6338   69.3311 C   0  0  2  0  0  0  0  0  0  0  0  0
  -13.4580   24.4815   66.0593 C   0  0  0  0  0  3  0  0  0  0  0  0
  -17.9502   20.7762   67.9787 C   0  0  2  0  0  0  0  0  0  0  0  0
  -18.1983   20.7717   70.8773 C   0  0  0  0  0  0  0  0  0  0  0  0
  -17.3187   23.4361   64.6064 C   0  0  0  0  0  0  0  0  0  0  0  0
  -16.2817   21.8171   74.2271 C   0  0  0  0  0  0  0  0  0  0  0  0
  -17.6599   23.3040   65.2374 O   0  0  0  0  0  0  0  0  0  0  0  0
  -17.6922   22.1639   68.0079 C   0  0  2  0  0  0  0  0  0  0  0  0
  -12.2950   22.3949   66.3334 C   0  0  0  0  0  0  0  0  0  0  0  0
  -13.7775   22.2497   67.1023 C   0  0  0  0  0  0  0  0  0  0  0  0
  -16.9080   20.6528   72.3891 O   0  0  0  0  0  0  0  0  0  0  0  0
  -14.7660   21.9185   73.8360 O   0  0  0  0  0  0  0  0  0  0  0  0
  -17.0647   23.1988   63.1786 C   0  0  0  0  0  0  0  0  0  0  0  0
  -15.8852   20.1709   75.9513 O   0  0  0  0  0  0  0  0  0  0  0  0
  -18.1343   17.1961   73.0211 O   0  0  0  0  0  0  0  0  0  0  0  0
  -16.1236   23.2111   68.3748 C   0  0  1  0  0  0  0  0  0  0  0  0
  -17.2593   18.5509   73.9364 C   0  0  0  0  0  0  0  0  0  0  0  0
  -16.0947   17.7786   75.1111 O   0  0  0  0  0  0  0  0  0  0  0  0
  -15.7358   21.3925   68.2915 C   0  0  0  0  0  0  0  0  0  0  0  0
  -12.1506   23.6727   65.6291 C   0  0  0  0  0  0  0  0  0  0  0  0
  -18.4573   21.1398   71.1559 O   0  0  0  0  0  0  0  0  0  0  0  0
  4  3  2  3
  7  1  1  0
  8  4  1  1
  8  6  1  0
  9  4  1  0
  1 10  1  6
 11  5  1  0
 12 10  2  0
 13  6  1  0
 13  8  1  6
 15  1  1  0
 15 14  1  0
 16  2  1  0
 16  9  1  0
 17 11  1  0
 18 10  1  0
  5 19  1  6
 21  1  1  0
 21 13  1  0
 22  2  1  0
 22  5  1  0
 22 20  1  0
 23 22  1  0
  6 24  1  6
 21 24  1  1
 25  7  1  0
 25 14  2  0
 26  9  2  0
M  RAD  1   7   2
M  END
>  <ID>  (1) 
conformer_0

$$$$
