
     RDKit          3D

 30 30  0  0  0  0  0  0  0  0999 V2000
  -17.5036   18.1038   73.5031 C   0  0  0  0  0  0  0  0  0  0  0  0
  -19.3936   20.3689   68.7255 C   0  0  0  0  0  0  0  0  0  0  0  0
  -14.1615   23.7723   66.5593 C   0  0  0  0  0  0  0  0  0  0  0  0
  -18.1176   20.7386   67.8990 C   0  0  0  0  0  0  0  0  0  0  0  0
  -17.6026   19.9492   72.6625 C   0  0  0  0  0  0  0  0  0  0  0  0
  -15.5436   21.5652   68.6516 C   0  0  0  0  0  0  0  0  0  0  0  0
  -17.3063   22.2257   68.1867 C   0  0  0  0  0  0  0  0  0  0  0  0
  -13.6456   24.5851   65.7358 C   0  0  0  0  0  0  0  0  0  0  0  0
  -17.0091   21.9158   69.8352 C   0  0  0  0  0  0  0  0  0  0  0  0
  -17.1139   23.3268   64.3225 C   0  0  0  0  0  0  0  0  0  0  0  0
  -16.1904   21.9373   73.9796 C   0  0  0  0  0  0  0  0  0  0  0  0
  -12.3457   22.8332   66.5749 C   0  0  0  0  0  0  0  0  0  0  0  0
  -18.1213   22.6049   65.1147 O   0  0  0  0  0  0  0  0  0  0  0  0
  -14.8273   22.4781   74.1032 O   0  0  0  0  0  0  0  0  0  0  0  0
  -14.8360   20.9917   68.0846 O   0  0  0  0  0  0  0  0  0  0  0  0
  -16.0285   17.5348   75.1363 O   0  0  0  0  0  0  0  0  0  0  0  0
  -16.4806   24.0927   63.3647 C   0  0  0  0  0  0  0  0  0  0  0  0
  -17.1831   20.7809   71.8192 O   0  0  0  0  0  0  0  0  0  0  0  0
  -20.4051   20.0629   68.4885 C   0  0  0  0  0  0  0  0  0  0  0  0
  -18.6202   17.1276   73.4058 O   0  0  0  0  0  0  0  0  0  0  0  0
  -13.9267   22.3436   66.7637 C   0  0  1  0  0  0  0  0  0  0  0  0
  -16.6555   20.6037   74.5185 C   0  0  2  0  0  0  0  0  0  0  0  0
  -16.4524   23.3803   65.1880 N   0  0  0  0  0  0  0  0  0  0  0  0
  -15.9092   19.8274   75.9303 O   0  0  0  0  0  0  0  0  0  0  0  0
  -18.4740   20.6737   70.4177 C   0  0  0  0  0  0  0  0  0  0  0  0
  -12.1453   24.0329   65.7400 C   0  0  0  0  0  0  0  0  0  0  0  0
  -16.1180   23.5801   68.2467 C   0  0  0  0  0  0  0  0  0  0  0  0
  -16.7776   22.1512   67.2249 C   0  0  0  0  0  0  0  0  0  0  0  0
  -16.8637   18.8976   74.4473 C   0  0  1  0  0  0  0  0  0  0  0  0
  -19.1216   19.0674   74.0353 O   0  0  0  0  0  0  0  0  0  0  0  0
  4  2  1  0
  5  1  1  0
  7  4  1  0
  8  3  2  0
  9  6  1  0
  9  7  1  0
 13 10  2  0
 14 11  1  0
 15  6  1  0
 17  8  1  0
 17 10  1  0
 18  5  1  0
 19  2  2  3
 20  1  1  0
 21  3  1  0
 21 12  1  0
 21 15  1  1
 22 11  1  0
 23 10  1  0
 22 24  1  1
 25  2  1  0
 25 18  1  0
 26  8  1  0
 26 12  2  0
 27  7  1  0
 28  7  1  0
 29  1  1  0
 29 16  1  6
 29 22  1  0
 30  1  1  0
M  END
>  <ID>  (1) 
conformer_0

$$$$
