
     RDKit          3D

 25 24  0  0  0  0  0  0  0  0999 V2000
  -17.4629   18.0016   73.9560 C   0  0  0  0  0  0  0  0  0  0  0  0
  -19.1740   20.3354   68.9623 C   0  0  1  0  0  0  0  0  0  0  0  0
  -13.9825   23.6445   66.9922 C   0  0  0  0  0  0  0  0  0  0  0  0
  -17.9860   20.6096   68.1592 C   0  0  0  0  0  0  0  0  0  0  0  0
  -16.7737   20.0156   74.3900 C   0  0  0  0  0  0  0  0  0  0  0  0
  -17.3701   21.9712   68.3154 C   0  0  2  0  0  0  0  0  0  0  0  0
  -13.6181   24.5934   66.3135 C   0  0  2  0  0  0  0  0  0  0  0  0
  -18.0116   20.8419   70.7142 C   0  0  0  0  0  0  0  0  0  0  0  0
  -16.2868   23.5943   63.8853 C   0  0  0  0  0  0  0  0  0  0  0  0
  -17.5004   19.2187   73.0578 C   0  0  0  0  0  0  0  0  0  0  0  0
  -16.2031   21.5277   73.8900 C   0  0  0  0  0  0  0  0  0  0  0  0
  -20.4481   20.0757   68.0719 C   0  0  0  0  0  0  0  0  0  0  0  0
  -12.2028   24.1252   65.9295 C   0  0  0  0  0  0  0  0  0  0  0  0
  -18.1749   22.6268   65.2365 O   0  0  0  0  0  0  0  0  0  0  0  0
  -17.4906   20.7036   72.0341 O   0  0  0  0  0  0  0  0  0  0  0  0
  -13.4675   22.1899   66.9668 C   0  0  0  0  0  0  0  0  0  0  0  0
  -17.3465   23.2069   65.1259 C   0  0  0  0  0  0  0  0  0  0  0  0
  -15.2413   22.5238   73.8572 O   0  0  0  0  0  0  0  0  0  0  0  0
  -15.9650   18.0046   75.1585 O   0  0  0  0  0  0  0  0  0  0  0  0
  -18.4883   16.6008   73.8447 O   0  0  0  0  0  0  0  0  0  0  0  0
  -15.6535   21.2680   68.2739 C   0  0  0  0  0  0  0  0  0  0  0  0
  -16.1305   20.4439   75.8762 O   0  0  0  0  0  0  0  0  0  0  0  0
  -16.0553   23.6926   68.1373 C   0  0  0  0  0  0  0  0  0  0  0  0
  -17.2181   22.3407   68.5417 C   0  0  0  0  0  0  0  0  0  0  0  0
  -12.0333   22.7085   66.4986 C   0  0  0  0  0  0  0  0  0  0  0  0
  4  2  1  0
  6  4  1  0
  8  2  1  0
  7  9  1  6
 10  1  1  0
 10  5  2  3
 11  5  1  0
  2 12  1  6
 13  7  1  0
 15  8  1  0
 15 10  1  0
 16  3  1  0
 17  9  1  0
 17 14  2  0
 18 11  1  0
 19  1  1  0
 20  1  1  0
  6 21  1  1
 22  5  1  0
 23  7  1  0
 24  6  1  0
 24 23  1  0
 25 13  2  3
 25 16  1  0
M  END
>  <ID>  (1) 
conformer_0

$$$$
