
     RDKit          3D

 25 25  0  0  0  0  0  0  0  0999 V2000
  -17.2381   18.1258   73.6535 C   0  0  0  0  0  0  0  0  0  0  0  0
  -19.0850   20.2984   68.8891 C   0  0  0  0  0  0  0  0  0  0  0  0
  -12.0817   23.7291   66.0398 C   0  0  0  0  0  0  0  0  0  0  0  0
  -16.8359   20.3868   74.1815 C   0  0  2  0  0  0  0  0  0  0  0  0
  -15.9068   21.1665   68.8033 C   0  0  0  0  0  0  0  0  0  0  0  0
  -18.2614   20.8018   67.9519 C   0  0  0  0  0  0  0  0  0  0  0  0
  -14.1803   23.8345   66.8804 C   0  0  0  0  0  0  0  0  0  0  0  0
  -17.3990   22.2045   68.2652 C   0  0  0  0  0  0  0  0  0  0  0  0
  -17.2770   23.4754   64.3660 C   0  0  0  0  0  0  0  0  0  0  0  0
  -16.6291   21.8131   74.0156 C   0  0  0  0  0  0  0  0  0  0  0  0
  -15.3049   22.5076   73.6987 O   0  0  0  0  0  0  0  0  0  0  0  0
  -12.6662   22.6788   66.8231 C   0  0  0  0  0  0  0  0  0  0  0  0
  -17.2123   20.9519   70.4092 C   0  0  0  0  0  0  0  0  0  0  0  0
  -16.6753   23.7225   63.1728 C   0  0  0  0  0  0  0  0  0  0  0  0
  -18.2866   22.4113   64.6134 O   0  0  0  0  0  0  0  0  0  0  0  0
  -20.1767   19.9525   68.6474 C   0  0  0  0  0  0  0  0  0  0  0  0
  -17.4227   20.8983   71.6878 O   0  0  0  0  0  0  0  0  0  0  0  0
  -15.9517   19.9346   75.6054 O   0  0  0  0  0  0  0  0  0  0  0  0
  -18.3882   16.4880   73.8544 O   0  0  0  0  0  0  0  0  0  0  0  0
  -16.2676   17.5587   75.0152 O   0  0  0  0  0  0  0  0  0  0  0  0
  -13.4947   24.6209   65.9910 C   0  0  0  0  0  0  0  0  0  0  0  0
  -17.2080   19.1483   72.6751 C   0  0  2  0  0  0  0  0  0  0  0  0
  -15.8504   23.5882   68.3569 C   0  0  0  0  0  0  0  0  0  0  0  0
  -16.6212   22.2230   67.6817 C   0  0  2  0  0  0  0  0  0  0  0  0
  -17.1543   24.1326   65.3478 O   0  0  0  0  0  0  0  0  0  0  0  0
  6  2  1  0
  8  6  1  0
 10  4  1  0
 11 10  1  0
 12  3  2  0
 12  7  1  0
 13  5  1  0
 14  9  1  0
 15  9  1  0
 16  2  2  3
 17 13  1  0
  4 18  1  6
 19  1  1  0
 20  1  1  0
 21  3  1  0
 21  7  2  0
 22  1  1  0
 22  4  1  0
 22 17  1  1
 23  7  1  0
 24  5  1  6
 24  8  1  0
 24  9  1  0
 24 23  1  0
 25  9  1  0
M  END
>  <ID>  (1) 
conformer_0

$$$$
