
     RDKit          3D

 27 28  0  0  0  0  0  0  0  0999 V2000
  -17.9633   20.6439   68.5900 C   0  0  1  0  0  0  0  0  0  0  0  0
  -17.3512   19.1414   73.1211 C   0  0  0  0  0  0  0  0  0  0  0  0
  -14.1254   23.5177   67.1115 C   0  0  0  0  0  0  0  0  0  0  0  0
  -19.4886   20.3753   68.6702 C   0  0  0  0  0  0  0  0  0  0  0  0
  -15.6177   21.5117   68.7787 C   0  0  1  0  0  0  0  0  0  0  0  0
  -16.6637   20.4909   74.6652 C   0  0  2  0  0  0  0  0  0  0  0  0
  -12.0665   23.6568   66.0670 C   0  0  0  0  0  0  0  0  0  0  0  0
  -17.8111   21.8575   67.8736 C   0  0  0  0  0  0  0  0  0  0  0  0
  -17.2328   21.6516   69.8770 C   0  0  2  0  0  0  0  0  0  0  0  0
  -16.8708   23.4639   63.4447 C   0  0  0  0  0  0  0  0  0  0  0  0
  -17.9144   22.3727   65.3237 O   0  0  0  0  0  0  0  0  0  0  0  0
  -13.9005   22.1670   67.2954 C   0  0  0  0  0  0  0  0  0  0  0  0
  -16.3620   21.7437   74.2486 C   0  0  0  0  0  0  0  0  0  0  0  0
  -17.5400   23.0655   64.7534 C   0  0  0  0  0  0  0  0  0  0  0  0
  -12.2769   22.4619   66.8366 C   0  0  0  0  0  0  0  0  0  0  0  0
  -14.8529   22.2831   74.1222 O   0  0  0  0  0  0  0  0  0  0  0  0
  -17.1645   20.8293   71.9245 O   0  0  0  0  0  0  0  0  0  0  0  0
  -15.8595   19.9569   76.0582 O   0  0  0  0  0  0  0  0  0  0  0  0
  -16.3660   23.0489   68.3758 C   0  0  0  0  0  0  0  0  0  0  0  0
  -18.4489   17.1975   73.8334 O   0  0  0  0  0  0  0  0  0  0  0  0
  -16.2359   17.7443   75.2549 O   0  0  0  0  0  0  0  0  0  0  0  0
  -17.1643   18.7732   74.2794 C   0  0  0  0  0  0  0  0  0  0  0  0
  -13.4757   24.2773   66.0850 C   0  0  0  0  0  0  0  0  0  0  0  0
  -20.5101   20.2620   67.9785 C   0  0  0  0  0  0  0  0  0  0  0  0
  -14.7944   20.9361   68.9190 O   0  0  0  0  0  0  0  0  0  0  0  0
  -17.5587   20.2800   71.1653 C   0  0  0  0  0  0  0  0  0  0  0  0
  -17.0315   22.3300   67.2826 C   0  0  1  0  0  0  0  0  0  0  0  0
  4  1  1  0
  1  8  1  6
  9  1  1  0
  9  5  1  0
 12  3  2  0
 13  6  1  0
 14 10  1  0
 14 11  1  0
 15  7  2  0
 15 12  1  0
 16 13  1  0
 17  2  1  0
  6 18  1  6
 19  5  1  0
 22  2  1  0
 22  6  1  0
 22 20  1  0
 22 21  1  0
 23  3  1  0
 23  7  1  0
 24  4  2  3
  5 25  1  1
 25 12  1  0
  9 26  1  1
 26 17  1  0
 27  8  1  0
 27 11  1  6
 27 19  1  0
M  END
>  <ID>  (1) 
conformer_0

$$$$
