
     RDKit          3D

 26 27  0  0  0  0  0  0  0  0999 V2000
  -16.4690   21.7597   74.2160 C   0  0  0  0  0  0  0  0  0  0  0  0
  -14.1868   23.6880   66.7911 C   0  0  0  0  0  0  0  0  0  0  0  0
  -19.3546   20.1520   68.6522 C   0  0  0  0  0  0  0  0  0  0  0  0
  -20.5291   19.8775   68.4210 C   0  0  0  0  0  0  0  0  0  0  0  0
  -13.5430   24.6896   66.1754 C   0  0  0  0  0  0  0  0  0  0  0  0
  -16.7033   20.4134   74.7374 C   0  0  0  0  0  0  0  0  0  0  0  0
  -18.1115   20.8458   68.2617 C   0  0  0  0  0  0  0  0  0  0  0  0
  -16.5293   21.5707   69.1528 C   0  0  2  0  0  0  0  0  0  0  0  0
  -17.9337   20.9168   70.3283 C   0  0  0  0  0  0  0  0  0  0  0  0
  -17.4445   22.8360   64.9333 C   0  0  0  0  0  0  0  0  0  0  0  0
  -12.1190   23.8973   65.8954 C   0  0  0  0  0  0  0  0  0  0  0  0
  -17.8899   22.4515   65.1277 O   0  0  0  0  0  0  0  0  0  0  0  0
  -16.3832   23.2783   63.1532 C   0  0  0  0  0  0  0  0  0  0  0  0
  -17.5141   20.8424   71.9562 O   0  0  0  0  0  0  0  0  0  0  0  0
  -17.4715   22.2782   68.1868 C   0  0  0  0  0  0  0  0  0  0  0  0
  -17.6029   17.7289   73.8056 C   0  0  0  0  0  0  0  0  0  0  0  0
  -15.8397   18.5656   75.5137 O   0  0  0  0  0  0  0  0  0  0  0  0
  -18.5337   16.6667   74.2291 O   0  0  0  0  0  0  0  0  0  0  0  0
  -14.9936   21.7766   73.9440 O   0  0  0  0  0  0  0  0  0  0  0  0
  -16.3306   21.0535   76.2726 O   0  0  0  0  0  0  0  0  0  0  0  0
  -12.3804   22.5720   66.4438 C   0  0  0  0  0  0  0  0  0  0  0  0
  -17.0836   18.7414   74.4946 C   0  0  2  0  0  0  0  0  0  0  0  0
  -13.8231   22.3129   66.8818 C   0  0  2  0  0  0  0  0  0  0  0  0
  -16.0910   23.3721   68.2869 C   0  0  0  0  0  0  0  0  0  0  0  0
  -17.3578   19.9303   72.8319 C   0  0  0  0  0  0  0  0  0  0  0  0
  -16.1228   21.8109   67.4222 C   0  0  0  0  0  0  0  0  0  0  0  0
  4  3  2  3
  5  2  2  0
  6  1  1  0
  7  3  1  0
  8  9  1  6
 10  2  1  0
 11  5  1  0
 12 10  2  0
 13 10  1  0
 14  9  1  0
 15  7  1  0
 15  8  1  0
 18 16  1  0
 19  1  1  0
 20  6  1  0
 21 11  2  0
 22  6  1  0
 22 16  1  0
 22 17  1  1
 23  2  1  0
 23  8  1  0
 23 21  1  1
 24 15  1  0
 25 14  1  0
 25 22  1  0
 26 15  1  0
 26 24  1  0
M  END
>  <ID>  (1) 
conformer_0

$$$$
