
     RDKit          3D

 27 28  0  0  0  0  0  0  0  0999 V2000
  -20.1236   20.1646   68.4269 C   0  0  0  0  0  0  0  0  0  0  0  0
  -13.9936   24.4494   66.0061 C   0  0  0  0  0  0  0  0  0  0  0  0
  -17.5060   17.7976   73.9513 C   0  0  0  0  0  0  0  0  0  0  0  0
  -18.9839   20.4698   68.5706 C   0  0  2  0  0  0  0  0  0  0  0  0
  -17.2844   19.0466   73.2778 C   0  0  2  0  0  0  0  0  0  0  0  0
  -17.9010   20.4326   70.5840 C   0  0  1  0  0  0  0  0  0  0  0  0
  -12.2207   23.5898   67.0110 C   0  0  0  0  0  0  0  0  0  0  0  0
  -17.8343   21.3127   68.0154 C   0  0  2  0  0  0  0  0  0  0  0  0
  -16.8666   21.5761   69.5331 C   0  0  1  0  0  0  0  0  0  0  0  0
  -17.4458   23.0776   63.5944 C   0  0  0  0  0  0  0  0  0  0  0  0
  -16.6807   19.8735   74.5941 C   0  0  2  0  0  0  0  0  0  0  0  0
  -15.2141   22.5320   74.3047 O   0  0  0  0  0  0  0  0  0  0  0  0
  -17.0235   22.6871   68.0039 C   0  0  1  0  0  0  0  0  0  0  0  0
  -16.2115   17.7673   75.3618 O   0  0  0  0  0  0  0  0  0  0  0  0
  -18.4950   22.5656   65.0868 O   0  0  0  0  0  0  0  0  0  0  0  0
  -17.3788   23.4924   62.7905 C   0  0  0  0  0  0  0  0  0  0  0  0
  -17.4197   20.1888   71.0774 O   0  0  0  0  0  0  0  0  0  0  0  0
  -14.0093   23.7483   67.1687 C   0  0  0  0  0  0  0  0  0  0  0  0
  -16.2032   20.5047   76.1848 O   0  0  0  0  0  0  0  0  0  0  0  0
  -18.3055   16.6694   74.4136 O   0  0  0  0  0  0  0  0  0  0  0  0
  -13.6377   22.5080   67.1532 C   0  0  0  0  0  0  0  0  0  0  0  0
  -15.8482   23.4645   68.4304 C   0  0  0  0  0  0  0  0  0  0  0  0
  -15.4495   21.3447   68.3242 C   0  0  0  0  0  0  0  0  0  0  0  0
  -16.5466   21.4872   74.4580 C   0  0  0  0  0  0  0  0  0  0  0  0
  -17.7123   22.7183   65.9540 C   0  0  0  0  0  0  0  0  0  0  0  0
  -12.4372   24.3452   65.7891 C   0  0  0  0  0  0  0  0  0  0  0  0
  -17.0028   20.6047   72.8147 O   0  0  0  0  0  0  0  0  0  0  0  0
  4  1  1  1
  5  3  1  0
  6  5  1  0
  8  4  1  1
  9  6  1  0
  9  8  1  0
 11  5  1  0
 13  8  1  0
 13  9  1  0
 14  3  1  0
 15 10  1  0
 16 10  2  3
  6 17  1  6
 18  2  2  0
 11 19  1  1
 20  3  1  0
 21  7  2  0
 21 18  1  0
 13 22  1  6
 22 21  1  0
  9 23  1  6
 24 11  1  0
 24 12  1  0
 25  4  1  0
 25 15  1  0
 26  2  1  0
 26  7  1  0
  5 27  1  6
M  END
>  <ID>  (1) 
conformer_0

$$$$
