
     RDKit          3D

 24 25  0  0  0  0  0  0  0  0999 V2000
  -20.4292   20.0659   68.6169 C   0  0  0  0  0  0  0  0  0  0  0  0
  -17.2055   18.2113   73.9549 C   0  0  0  0  0  0  0  0  0  0  0  0
  -14.0610   23.8706   66.5472 C   0  0  0  0  0  0  0  0  0  0  0  0
  -19.2344   20.4226   68.5467 C   0  0  0  0  0  0  0  0  0  0  0  0
  -18.1067   21.1271   70.6876 C   0  0  0  0  0  0  0  0  0  0  0  0
  -16.8470   20.0789   74.6506 C   0  0  0  0  0  0  0  0  0  0  0  0
  -17.4019   23.5515   63.0203 C   0  0  0  0  0  0  0  0  0  0  0  0
  -17.8448   21.2370   68.0134 C   0  0  0  0  0  0  0  0  0  0  0  0
  -13.1788   24.3770   65.7875 C   0  0  0  0  0  0  0  0  0  0  0  0
  -17.1890   21.9889   69.4081 C   0  0  0  0  0  0  0  0  0  0  0  0
  -13.5626   22.2000   66.9573 C   0  0  0  0  0  0  0  0  0  0  0  0
  -18.3172   23.0030   65.3440 O   0  0  0  0  0  0  0  0  0  0  0  0
  -17.8897   23.1977   64.6402 C   0  0  0  0  0  0  0  0  0  0  0  0
  -16.5585   21.5544   74.2045 C   0  0  0  0  0  0  0  0  0  0  0  0
  -17.5640   21.0344   71.8234 O   0  0  0  0  0  0  0  0  0  0  0  0
  -16.3085   17.3099   75.1879 O   0  0  0  0  0  0  0  0  0  0  0  0
  -15.2257   22.2605   73.8803 O   0  0  0  0  0  0  0  0  0  0  0  0
  -12.2901   23.1049   66.0860 C   0  0  0  0  0  0  0  0  0  0  0  0
  -15.9124   19.6855   75.9694 O   0  0  0  0  0  0  0  0  0  0  0  0
  -16.7473   22.8721   68.2189 C   0  0  0  0  0  0  0  0  0  0  0  0
  -18.1759   16.9236   73.4534 O   0  0  0  0  0  0  0  0  0  0  0  0
  -17.2793   19.0379   72.8920 C   0  0  0  0  0  0  0  0  0  0  0  0
  -15.4266   20.8094   69.2602 O   0  0  0  0  0  0  0  0  0  0  0  0
  -15.7593   21.4136   68.2383 C   0  0  0  0  0  0  0  0  0  0  0  0
  4  1  3  0
  6  2  1  0
  8  4  1  0
  9  3  2  0
 10  5  1  0
 10  8  1  0
 11  3  1  0
 13  7  1  0
 13 12  2  0
 14  6  1  0
 15  5  1  0
 16  2  1  0
 17 14  1  0
 18  9  1  0
 18 11  2  0
 19  6  1  0
 20 10  1  0
 20 13  1  0
 21  2  1  0
 22  2  1  0
 22 15  1  0
 24 10  1  0
 24 11  1  0
 24 20  1  0
 24 23  1  0
M  END
>  <ID>  (1) 
conformer_0

$$$$
