
     RDKit          3D

 30 32  0  0  0  0  0  0  0  0999 V2000
  -17.7014   17.9949   73.2581 C   0  0  0  0  0  0  0  0  0  0  0  0
  -17.9854   21.0415   67.4254 C   0  0  0  0  0  0  0  0  0  0  0  0
  -19.3672   19.9514   68.7106 C   0  0  0  0  0  0  0  0  0  0  0  0
  -13.4684   24.8223   66.2485 C   0  0  0  0  0  0  0  0  0  0  0  0
  -16.5714   20.8050   74.7238 C   0  0  2  0  0  0  0  0  0  0  0  0
  -18.0465   20.7589   68.6106 C   0  0  2  0  0  0  0  0  0  0  0  0
  -16.0716   21.5156   69.2971 C   0  0  1  0  0  0  0  0  0  0  0  0
  -12.3023   23.9733   65.7174 C   0  0  0  0  0  0  0  0  0  0  0  0
  -16.4230   23.6604   63.6606 C   0  0  0  0  0  0  0  0  0  0  0  0
  -17.0442   22.4669   68.2206 C   0  0  2  0  0  0  0  0  0  0  0  0
  -17.8351   21.6080   70.1099 C   0  0  2  0  0  0  0  0  0  0  0  0
  -13.8045   22.5719   67.1137 C   0  0  0  0  0  0  0  0  0  0  0  0
  -17.2462   23.3548   64.8575 C   0  0  0  0  0  0  0  0  0  0  0  0
  -16.1410   22.0695   74.0530 C   0  0  0  0  0  0  0  0  0  0  0  0
  -17.9757   22.2311   64.8112 O   0  0  0  0  0  0  0  0  0  0  0  0
  -17.4138   20.8621   71.7543 O   0  0  0  0  0  0  0  0  0  0  0  0
  -15.1778   22.7988   73.9728 O   0  0  0  0  0  0  0  0  0  0  0  0
  -14.6395   21.3074   67.8685 O   0  0  0  0  0  0  0  0  0  0  0  0
  -18.5402   16.7650   73.9359 O   0  0  0  0  0  0  0  0  0  0  0  0
  -12.5028   22.6949   66.5057 C   0  0  0  0  0  0  0  0  0  0  0  0
  -16.2988   20.7917   76.0242 O   0  0  0  0  0  0  0  0  0  0  0  0
  -16.0321   18.1907   74.9479 O   0  0  0  0  0  0  0  0  0  0  0  0
  -20.3508   20.0528   67.9009 C   0  0  0  0  0  0  0  0  0  0  0  0
  -17.4659   18.8593   74.1506 C   0  0  1  0  0  0  0  0  0  0  0  0
  -16.2941   19.7707   73.3297 C   0  0  1  0  0  0  0  0  0  0  0  0
  -17.3406   23.7699   65.6641 O   0  0  0  0  0  0  0  0  0  0  0  0
  -15.7300   23.5294   68.4083 C   0  0  0  0  0  0  0  0  0  0  0  0
  -14.2917   24.0440   66.9407 C   0  0  2  0  0  0  0  0  0  0  0  0
  -17.6703   20.2160   72.0548 C   0  0  0  0  0  0  0  0  0  0  0  0
  -15.9850   21.7794   67.5968 C   0  0  1  0  0  0  0  0  0  0  0  0
  6  2  1  6
  6  3  1  0
  8  4  2  0
 10  2  1  0
 10  7  1  0
 11  6  1  0
  7 11  1  6
 13  9  1  0
 14  5  1  0
 15 13  1  0
 11 16  1  1
 17 14  1  0
 18 12  1  0
 19  1  1  0
 20  8  1  0
 20 12  2  0
  5 21  1  1
 23  3  2  3
 24  1  1  0
 24 22  1  1
 25  5  1  0
 25 24  1  0
 26 13  1  0
 10 27  1  6
 28  4  1  0
 28 12  1  0
 28 13  1  6
 29 16  1  0
 25 29  1  6
 30  7  1  0
 30 10  1  0
 30 18  1  1
M  END
>  <ID>  (1) 
conformer_0

$$$$
