
     RDKit          3D

 29 31  0  0  0  0  0  0  0  0999 V2000
  -19.1931   20.0687   69.0313 C   0  0  0  0  0  0  0  0  0  0  0  0
  -14.2256   23.8639   66.9139 C   0  0  0  0  0  0  0  0  0  0  0  0
  -17.0404   18.6488   73.7794 C   0  0  0  0  0  0  0  0  0  0  0  0
  -17.3204   19.1603   72.9140 C   0  0  0  0  0  0  0  0  0  0  0  0
  -16.8447   21.8095   69.5062 C   0  0  1  0  0  0  0  0  0  0  0  0
  -18.2980   20.6119   67.8758 C   0  0  0  0  0  0  0  0  0  0  0  0
  -13.6886   24.5252   65.8502 C   0  0  0  0  0  0  0  0  0  0  0  0
  -17.4643   22.1718   68.1437 C   0  0  1  0  0  0  0  0  0  0  0  0
  -17.6974   23.3293   64.5311 C   0  0  1  0  0  0  0  0  0  0  0  0
  -17.9986   20.5648   70.4953 C   0  0  1  0  0  0  0  0  0  0  0  0
  -13.6948   22.4026   67.1059 C   0  0  0  0  0  0  0  0  0  0  0  0
  -16.5789   20.4140   74.6240 C   0  0  1  0  0  0  0  0  0  0  0  0
  -19.0519   22.7971   64.6972 O   0  0  0  0  0  0  0  0  0  0  0  0
  -14.9505   22.4806   74.0711 O   0  0  0  0  0  0  0  0  0  0  0  0
  -16.4410   20.4773   72.3284 O   0  0  0  0  0  0  0  0  0  0  0  0
  -16.0247   20.2037   76.2000 O   0  0  0  0  0  0  0  0  0  0  0  0
  -14.4399   21.3699   67.9945 O   0  0  0  0  0  0  0  0  0  0  0  0
  -12.2260   22.6696   66.4883 C   0  0  0  0  0  0  0  0  0  0  0  0
  -16.9661   22.7394   65.3819 N   0  0  0  0  0  0  0  0  0  0  0  0
  -20.1314   19.8931   68.3322 C   0  0  0  0  0  0  0  0  0  0  0  0
  -16.7313   23.2349   63.3785 C   0  0  0  0  0  0  0  0  0  0  0  0
  -16.1227   17.8634   75.0965 O   0  0  0  0  0  0  0  0  0  0  0  0
  -17.9567   17.2925   72.7975 O   0  0  0  0  0  0  0  0  0  0  0  0
  -15.8306   21.5226   68.2299 C   0  0  2  0  0  0  0  0  0  0  0  0
  -16.2594   21.6524   74.2444 C   0  0  0  0  0  0  0  0  0  0  0  0
  -17.8205   24.6339   65.1873 O   0  0  0  0  0  0  0  0  0  0  0  0
  -15.9997   23.4628   68.5028 C   0  0  0  0  0  0  0  0  0  0  0  0
  -12.2560   23.9096   65.7376 C   0  0  0  0  0  0  0  0  0  0  0  0
  -18.1551   20.7673   71.5818 O   0  0  0  0  0  0  0  0  0  0  0  0
  4  3  1  0
  6  1  1  0
  7  2  2  0
  8  5  1  0
  8  6  1  1
  9  8  1  0
 10  1  1  0
  5 10  1  6
 11  2  1  0
 12  3  1  0
 13  9  1  0
 15  4  1  0
 12 16  1  6
 17 11  1  0
 18 11  1  0
 19  9  1  0
 20  1  2  3
  9 21  1  1
 22  3  1  0
 23  3  1  0
 24  5  1  0
 24  8  1  0
 24 17  1  0
 25 12  1  0
 25 14  1  0
 26 13  1  0
 24 27  1  6
 28  7  1  0
 28 18  2  0
 10 29  1  1
 29 15  1  0
M  END
>  <ID>  (1) 
conformer_0

$$$$
