
     RDKit          3D

 27 28  0  0  0  0  0  0  0  0999 V2000
  -12.5079   24.2406   65.5552 C   0  0  0  0  0  0  0  0  0  0  0  0
  -20.0910   20.2176   68.5436 C   0  0  0  0  0  0  0  0  0  0  0  0
  -17.4395   18.3196   73.4350 C   0  0  2  0  0  0  0  0  0  0  0  0
  -18.9061   20.3162   68.8083 C   0  0  0  0  0  0  0  0  0  0  0  0
  -16.3963   20.4548   74.7763 C   0  0  1  0  0  0  0  0  0  0  0  0
  -17.4953   19.9211   72.3026 C   0  0  0  0  0  0  0  0  0  0  0  0
  -13.9237   24.4956   65.8946 C   0  0  0  0  0  0  0  0  0  0  0  0
  -18.1159   20.7396   70.5013 C   0  0  1  0  0  0  0  0  0  0  0  0
  -18.1088   20.9426   67.8180 C   0  0  0  0  0  0  0  0  0  0  0  0
  -15.8012   24.0877   63.0608 C   0  0  0  0  0  0  0  0  0  0  0  0
  -17.0590   23.1900   64.2125 C   0  0  0  0  0  0  0  0  0  0  0  0
  -17.9153   22.3064   64.7243 O   0  0  0  0  0  0  0  0  0  0  0  0
  -16.3790   21.6969   74.2975 C   0  0  0  0  0  0  0  0  0  0  0  0
  -17.4680   20.8119   72.8459 O   0  0  0  0  0  0  0  0  0  0  0  0
  -14.1514   23.7351   66.9846 C   0  0  0  0  0  0  0  0  0  0  0  0
  -16.1975   20.6234   76.3725 O   0  0  0  0  0  0  0  0  0  0  0  0
  -15.0375   22.1135   74.1387 O   0  0  0  0  0  0  0  0  0  0  0  0
  -13.5964   22.3544   66.9190 C   0  0  0  0  0  0  0  0  0  0  0  0
  -18.2779   17.1017   73.3971 O   0  0  0  0  0  0  0  0  0  0  0  0
  -17.1472   22.4484   68.1191 C   0  0  1  0  0  0  0  0  0  0  0  0
  -16.1329   17.9089   75.3212 O   0  0  0  0  0  0  0  0  0  0  0  0
  -15.8415   21.3289   67.9952 C   0  0  0  0  0  0  0  0  0  0  0  0
  -16.7818   19.0058   74.4087 C   0  0  2  0  0  0  0  0  0  0  0  0
  -17.0539   21.2620   70.7642 O   0  0  0  0  0  0  0  0  0  0  0  0
  -12.2028   23.1634   66.5651 C   0  0  0  0  0  0  0  0  0  0  0  0
  -17.3053   21.8877   69.1211 C   0  0  2  0  0  0  0  0  0  0  0  0
  -15.8185   23.5905   68.0601 C   0  0  0  0  0  0  0  0  0  0  0  0
  4  2  2  3
  6  3  1  0
  7  1  2  0
  8  4  1  0
  8  6  1  1
  9  4  1  0
 10  7  1  0
 11 10  1  0
 12 11  1  0
 13  5  1  0
 14  6  2  0
 15  7  1  0
  5 16  1  1
 17 13  1  0
 18 15  2  0
  3 19  1  1
 20 22  1  6
 23  3  1  0
 23  5  1  0
 23 21  1  6
 24  8  1  0
 25  1  1  0
 25 18  1  0
 26  9  1  6
 26 20  1  0
 26 24  1  0
 27 15  1  0
 27 20  1  0
M  END
>  <ID>  (1) 
conformer_0

$$$$
