
     RDKit          3D

 24 24  0  0  0  0  0  0  0  0999 V2000
  -13.9373   24.2938   65.8779 C   0  0  0  0  0  0  0  0  0  0  0  0
  -17.5949   18.3656   73.5783 C   0  0  0  0  0  0  0  0  0  0  0  0
  -18.8024   20.3635   68.5724 C   0  0  0  0  0  0  0  0  0  0  0  0
  -15.8372   21.3237   68.3292 C   0  0  0  0  0  0  0  0  0  0  0  0
  -16.7301   19.9312   74.4086 C   0  0  2  0  0  0  0  0  0  0  0  0
  -17.7406   21.4941   68.0968 C   0  0  0  0  0  0  0  0  0  0  0  0
  -14.1961   23.4589   66.7470 C   0  0  0  0  0  0  0  0  0  0  0  0
  -17.3840   23.2699   64.2075 C   0  0  0  0  0  0  0  0  0  0  0  0
  -19.8201   20.1658   68.5747 C   0  0  0  0  0  0  0  0  0  0  0  0
  -17.0613   21.9740   69.0921 C   0  0  1  0  0  0  0  0  0  0  0  0
  -16.4350   21.2660   74.2017 C   0  0  0  0  0  0  0  0  0  0  0  0
  -12.1715   22.7154   66.1862 C   0  0  0  0  0  0  0  0  0  0  0  0
  -13.5396   22.1216   66.9023 C   0  0  0  0  0  0  0  0  0  0  0  0
  -17.3834   20.6967   71.7506 O   0  0  0  0  0  0  0  0  0  0  0  0
  -18.2485   22.8127   65.1657 O   0  0  0  0  0  0  0  0  0  0  0  0
  -15.1399   22.3628   74.2036 O   0  0  0  0  0  0  0  0  0  0  0  0
  -16.2147   17.9554   75.0680 O   0  0  0  0  0  0  0  0  0  0  0  0
  -18.5683   16.7942   73.8944 O   0  0  0  0  0  0  0  0  0  0  0  0
  -16.3766   23.7327   63.1796 C   0  0  0  0  0  0  0  0  0  0  0  0
  -17.8552   19.3918   72.9004 C   0  0  1  0  0  0  0  0  0  0  0  0
  -17.8958   20.8411   70.7350 C   0  0  0  0  0  0  0  0  0  0  0  0
  -16.2701   23.3830   68.1181 C   0  0  0  0  0  0  0  0  0  0  0  0
  -15.9793   20.1435   75.9007 O   0  0  0  0  0  0  0  0  0  0  0  0
  -12.4427   24.0485   65.6970 C   0  0  0  0  0  0  0  0  0  0  0  0
  6  3  1  0
  7  1  2  0
  9  3  2  3
 10  4  1  0
 10  6  1  0
 11  5  1  0
 13  4  1  0
 13  7  1  0
 13 12  2  0
 15  8  1  0
 16 11  1  0
 17  2  1  0
 18  2  1  0
 19  1  1  0
 19  8  1  0
 20  2  1  0
 20  5  1  0
 20 14  1  6
 21 10  1  0
 21 14  1  0
 10 22  1  1
  5 23  1  1
 24  1  1  0
 24 12  1  0
M  END
>  <ID>  (1) 
conformer_0

$$$$
