
     RDKit          3D

 26 27  0  0  0  0  0  0  0  0999 V2000
  -13.9929   23.6989   66.8276 C   0  0  0  0  0  0  0  0  0  0  0  0
  -17.4294   17.9396   73.7162 C   0  0  0  0  0  0  0  0  0  0  0  0
  -19.1428   20.4463   69.0131 C   0  0  0  0  0  0  0  0  0  0  0  0
  -17.8270   20.7335   68.0892 C   0  0  0  0  0  0  0  0  0  0  0  0
  -16.6649   19.4201   74.4626 C   0  0  2  0  0  0  0  0  0  0  0  0
  -12.4510   22.6434   66.4394 C   0  0  0  0  0  0  0  0  0  0  0  0
  -15.7952   21.3824   68.5760 C   0  0  1  0  0  0  0  0  0  0  0  0
  -20.2452   20.1099   68.3464 C   0  0  0  0  0  0  0  0  0  0  0  0
  -17.1433   23.2789   64.3458 C   0  0  0  0  0  0  0  0  0  0  0  0
  -17.6970   21.2851   70.3886 C   0  0  0  0  0  0  0  0  0  0  0  0
  -13.4488   24.7680   66.1525 C   0  0  0  0  0  0  0  0  0  0  0  0
  -16.3594   21.3585   74.1771 C   0  0  0  0  0  0  0  0  0  0  0  0
  -18.3420   22.4510   66.2868 O   0  0  0  0  0  0  0  0  0  0  0  0
  -17.4628   21.0274   71.9624 O   0  0  0  0  0  0  0  0  0  0  0  0
  -14.8573   20.6731   68.0354 O   0  0  0  0  0  0  0  0  0  0  0  0
  -16.0546   23.2395   68.1056 C   0  0  2  0  0  0  0  0  0  0  0  0
  -15.7141   19.7723   75.7357 O   0  0  0  0  0  0  0  0  0  0  0  0
  -17.6610   22.3695   67.2377 C   0  0  0  0  0  0  0  0  0  0  0  0
  -18.5384   16.6278   73.6667 O   0  0  0  0  0  0  0  0  0  0  0  0
  -14.9762   22.0107   74.0206 O   0  0  0  0  0  0  0  0  0  0  0  0
  -12.0766   23.9649   65.8081 C   0  0  0  0  0  0  0  0  0  0  0  0
  -16.1293   17.5426   75.2477 O   0  0  0  0  0  0  0  0  0  0  0  0
  -17.4167   24.1514   63.5234 O   0  0  0  0  0  0  0  0  0  0  0  0
  -17.5924   19.7852   72.9782 C   0  0  0  0  0  0  0  0  0  0  0  0
  -17.2070   22.4130   68.5578 C   0  0  2  0  0  0  0  0  0  0  0  0
  -17.7546   22.3235   64.3212 O   0  0  0  0  0  0  0  0  0  0  0  0
  4  3  1  0
  5  2  1  0
  6  1  2  0
  8  3  2  3
 10  3  1  0
 11  1  1  0
 12  5  1  0
 14 10  1  0
  7 15  1  6
 16  1  1  6
 16  7  1  0
  5 17  1  1
 18 13  1  0
 19  2  1  0
 20 12  1  0
 21  6  1  0
 21 11  2  0
 22  2  1  0
 23  9  1  0
 24  5  1  0
 24 14  1  0
 25  4  1  6
 25  7  1  0
 25 16  1  0
 25 18  1  0
 26  9  1  0
 26 13  1  0
M  END
>  <ID>  (1) 
conformer_0

$$$$
