
     RDKit          3D

 23 25  0  0  0  0  0  0  0  0999 V2000
  -14.1083   24.0295   66.5948 C   0  0  1  0  0  0  0  0  0  0  0  0
  -19.4516   20.3400   68.8150 C   0  0  0  0  0  0  0  0  0  0  0  0
  -20.3217   19.9288   68.4478 C   0  0  0  0  0  0  0  0  0  0  0  0
  -17.2550   18.2365   73.9464 C   0  0  2  0  0  0  0  0  0  0  0  0
  -16.8565   19.9627   74.5407 C   0  0  2  0  0  0  0  0  0  0  0  0
  -17.7165   20.9263   70.1448 C   0  0  0  0  0  0  0  0  0  0  0  0
  -13.4678   24.4223   66.1790 C   0  0  0  0  0  0  0  0  0  0  0  0
  -18.1861   20.9237   67.9259 C   0  0  0  0  0  0  0  0  0  0  0  0
  -16.5355   23.6870   63.5004 C   0  0  0  0  0  0  0  0  0  0  0  0
  -17.9394   22.3894   65.2032 O   0  0  0  0  0  0  0  0  0  0  0  0
  -16.2571   21.5370   68.8697 C   0  0  1  0  0  0  0  0  0  0  0  0
  -16.1667   21.6233   74.0803 C   0  0  0  0  0  0  0  0  0  0  0  0
  -12.3106   23.1533   66.3301 C   0  0  0  0  0  0  0  0  0  0  0  0
  -17.5742   22.8450   65.1711 C   0  0  0  0  0  0  0  0  0  0  0  0
  -17.3315   20.6939   71.8577 O   0  0  0  0  0  0  0  0  0  0  0  0
  -15.9121   19.7484   75.8882 O   0  0  0  0  0  0  0  0  0  0  0  0
  -13.4317   22.3718   67.0972 C   0  0  0  0  0  0  0  0  0  0  0  0
  -17.5102   21.9895   68.0060 C   0  0  2  0  0  0  0  0  0  0  0  0
  -14.6827   21.8910   73.8869 O   0  0  0  0  0  0  0  0  0  0  0  0
  -16.4044   17.3757   75.1968 O   0  0  0  0  0  0  0  0  0  0  0  0
  -17.4068   19.5199   72.7232 C   0  0  2  0  0  0  0  0  0  0  0  0
  -17.7429   18.1161   71.4152 O   0  0  0  0  0  0  0  0  0  0  0  0
  -16.3073   23.1644   68.6028 C   0  0  2  0  0  0  0  0  0  0  0  0
  3  2  2  3
  5  4  1  0
  7  1  1  0
  8  2  1  0
 11  6  1  1
 12  5  1  0
 13  7  2  0
  1 14  1  6
 14  9  1  0
 14 10  2  0
 15  6  1  0
  5 16  1  1
 17  1  1  0
 17 13  1  0
 18  8  1  1
 18 11  1  0
 19 12  1  0
  4 20  1  6
 21  4  1  0
 21  5  1  0
 21 15  1  0
 21 22  1  1
 23  1  1  6
 23 11  1  0
 23 18  1  0
M  END
>  <ID>  (1) 
conformer_0

$$$$
