
     RDKit          3D

 28 30  0  0  0  0  0  0  0  0999 V2000
  -11.6331   23.6246   66.6018 C   0  0  0  0  0  0  0  0  0  0  0  0
  -19.7465   20.5231   68.0899 C   0  0  0  0  0  0  0  0  0  0  0  0
  -17.0659   18.0739   73.3651 C   0  0  0  0  0  0  0  0  0  0  0  0
  -20.1639   19.9503   68.7594 C   0  0  0  0  0  0  0  0  0  0  0  0
  -16.3350   20.6165   74.3578 C   0  0  0  0  0  0  0  0  0  0  0  0
  -12.9545   24.5265   66.7871 C   0  0  0  0  0  0  0  0  0  0  0  0
  -17.0504   21.8182   69.3408 C   0  0  0  0  0  0  0  0  0  0  0  0
  -17.9916   20.6025   68.3124 C   0  0  0  0  0  0  0  0  0  0  0  0
  -15.8246   21.6506   67.8859 C   0  0  0  0  0  0  0  0  0  0  0  0
  -17.3906   23.3403   64.6160 C   0  0  0  0  0  0  0  0  0  0  0  0
  -18.1397   22.4662   64.9332 O   0  0  0  0  0  0  0  0  0  0  0  0
  -13.8595   23.9013   66.9755 C   0  0  0  0  0  0  0  0  0  0  0  0
  -16.1301   22.0684   74.0223 C   0  0  0  0  0  0  0  0  0  0  0  0
  -16.2682   17.2135   75.0408 O   0  0  0  0  0  0  0  0  0  0  0  0
  -14.7946   22.2136   74.0578 O   0  0  0  0  0  0  0  0  0  0  0  0
  -18.0337   21.9455   68.1831 C   0  0  0  0  0  0  0  0  0  0  0  0
  -16.6532   20.6803   72.3797 O   0  0  0  0  0  0  0  0  0  0  0  0
  -15.7652   19.5754   75.7758 O   0  0  0  0  0  0  0  0  0  0  0  0
  -13.7900   22.3564   67.1061 C   0  0  0  0  0  0  0  0  0  0  0  0
  -18.1036   17.1930   73.1419 O   0  0  0  0  0  0  0  0  0  0  0  0
  -16.5866   18.9939   74.4498 C   0  0  0  0  0  0  0  0  0  0  0  0
  -16.0452   23.9775   63.9074 C   0  0  0  0  0  0  0  0  0  0  0  0
  -14.6542   21.1217   67.7167 O   0  0  0  0  0  0  0  0  0  0  0  0
  -12.2573   22.3760   66.6055 C   0  0  0  0  0  0  0  0  0  0  0  0
  -16.3599   23.0782   68.4254 C   0  0  0  0  0  0  0  0  0  0  0  0
  -17.1127   19.8076   72.4916 C   0  0  0  0  0  0  0  0  0  0  0  0
  -18.3868   20.7329   70.3767 C   0  0  0  0  0  0  0  0  0  0  0  0
  -18.1253   20.8543   71.1475 O   0  0  0  0  0  0  0  0  0  0  0  0
  4  2  1  0
  6  1  2  0
  8  2  1  0
  8  7  1  0
  9  7  1  0
 11 10  1  0
 12  6  1  0
 13  5  1  0
 15 13  1  0
 16  7  1  0
 16  8  1  0
 19 12  2  0
 20  3  1  0
 21  3  1  0
 21  5  1  0
 21 14  1  0
 21 18  1  0
 22 10  1  0
 22 12  1  0
 23  9  1  0
 24  1  1  0
 24 19  1  0
 25  7  1  0
 25  9  1  0
 25 19  1  0
 26  3  1  0
 26 17  2  0
 27  8  1  0
 28 26  1  0
 28 27  1  0
M  END
>  <ID>  (1) 
conformer_0

$$$$
