
     RDKit          3D

 29 31  0  0  0  0  0  0  0  0999 V2000
  -19.5139   19.9119   69.0112 C   0  0  0  0  0  0  0  0  0  0  0  0
  -13.5544   24.7914   66.3154 C   0  0  0  0  0  0  0  0  0  0  0  0
  -18.3592   21.1427   67.6955 C   0  0  0  0  0  0  0  0  0  0  0  0
  -17.5160   17.8404   73.5010 C   0  0  0  0  0  0  0  0  0  0  0  0
  -17.0956   19.6194   72.6305 C   0  0  0  0  0  0  0  0  0  0  0  0
  -17.9485   21.0962   70.3836 C   0  0  0  0  0  0  0  0  0  0  0  0
  -14.1888   23.8233   66.8314 C   0  0  0  0  0  0  0  0  0  0  0  0
  -20.2312   20.1567   68.0315 C   0  0  0  0  0  0  0  0  0  0  0  0
  -16.7655   21.7467   69.1952 C   0  0  0  0  0  0  0  0  0  0  0  0
  -16.6612   23.4291   63.3650 C   0  0  0  0  0  0  0  0  0  0  0  0
  -16.2749   20.7341   74.3745 C   0  0  0  0  0  0  0  0  0  0  0  0
  -18.0706   22.5808   64.9647 O   0  0  0  0  0  0  0  0  0  0  0  0
  -12.3227   22.8361   66.6528 C   0  0  0  0  0  0  0  0  0  0  0  0
  -17.0232   22.8933   68.3677 C   0  0  0  0  0  0  0  0  0  0  0  0
  -16.8940   20.6407   72.7922 O   0  0  0  0  0  0  0  0  0  0  0  0
  -17.4130   23.1380   64.3725 C   0  0  0  0  0  0  0  0  0  0  0  0
  -15.8772   18.1106   75.2295 O   0  0  0  0  0  0  0  0  0  0  0  0
  -14.8248   22.3233   73.8151 O   0  0  0  0  0  0  0  0  0  0  0  0
  -18.4800   17.3465   72.8611 O   0  0  0  0  0  0  0  0  0  0  0  0
  -13.7954   22.3104   66.9047 C   0  0  0  0  0  0  0  0  0  0  0  0
  -16.0819   20.4568   75.9317 O   0  0  0  0  0  0  0  0  0  0  0  0
  -16.2723   22.1219   73.9739 C   0  0  0  0  0  0  0  0  0  0  0  0
  -15.9072   23.6334   68.0483 C   0  0  0  0  0  0  0  0  0  0  0  0
  -15.5255   21.2819   68.0465 C   0  0  0  0  0  0  0  0  0  0  0  0
  -12.1231   24.1417   66.1081 C   0  0  0  0  0  0  0  0  0  0  0  0
  -15.7540   20.4259   70.5328 O   0  0  0  0  0  0  0  0  0  0  0  0
  -18.0925   21.2004   71.2771 O   0  0  0  0  0  0  0  0  0  0  0  0
  -16.8129   19.1006   74.3270 C   0  0  0  0  0  0  0  0  0  0  0  0
  -17.8637   20.5686   68.6699 C   0  0  0  0  0  0  0  0  0  0  0  0
  7  2  2  0
  8  1  1  0
  9  6  1  0
 14  9  1  0
 15  5  1  0
 15 11  1  0
 16  3  1  0
 16 10  1  0
 16 12  1  0
 19  4  1  0
 20  7  1  0
 20 13  2  0
 21 11  1  0
 22 11  1  0
 22 18  1  0
 23  7  1  0
 23 14  1  0
 24  9  1  0
 25  2  1  0
 25 13  1  0
 26  6  1  0
 27  5  1  0
 27  6  1  0
 28  4  1  0
 28  5  1  0
 28 11  1  0
 28 17  1  0
 29  1  1  0
 29  3  1  0
 29  6  1  0
 29  9  1  0
M  END
>  <ID>  (1) 
conformer_0

$$$$
