
     RDKit          3D

 27 28  0  0  0  0  0  0  0  0999 V2000
  -14.0935   23.6415   66.8368 C   0  0  0  0  0  0  0  0  0  0  0  0
  -19.2131   20.2433   68.9695 C   0  0  0  0  0  0  0  0  0  0  0  0
  -20.2478   20.1454   68.2949 C   0  0  0  0  0  0  0  0  0  0  0  0
  -17.3603   19.2150   73.0170 C   0  0  0  0  0  0  0  0  0  0  0  0
  -16.7688   20.4751   74.4199 C   0  0  0  0  0  0  0  0  0  0  0  0
  -15.6071   21.5631   68.6969 C   0  0  0  0  0  0  0  0  0  0  0  0
  -13.3555   24.6134   66.3661 C   0  0  0  0  0  0  0  0  0  0  0  0
  -18.1983   20.8413   68.0210 C   0  0  0  0  0  0  0  0  0  0  0  0
  -17.2720   21.7877   69.8511 C   0  0  0  0  0  0  0  0  0  0  0  0
  -16.3011   23.7164   64.1740 C   0  0  0  0  0  0  0  0  0  0  0  0
  -13.6408   22.1887   67.0097 C   0  0  0  0  0  0  0  0  0  0  0  0
  -17.5911   23.1350   64.7884 C   0  0  0  0  0  0  0  0  0  0  0  0
  -17.8003   22.3039   65.3977 O   0  0  0  0  0  0  0  0  0  0  0  0
  -16.3629   21.7543   74.0695 C   0  0  0  0  0  0  0  0  0  0  0  0
  -12.1193   22.4612   66.3807 C   0  0  0  0  0  0  0  0  0  0  0  0
  -17.2871   20.9342   71.9834 O   0  0  0  0  0  0  0  0  0  0  0  0
  -16.2341   17.6219   75.0566 O   0  0  0  0  0  0  0  0  0  0  0  0
  -14.9293   22.0851   74.0539 O   0  0  0  0  0  0  0  0  0  0  0  0
  -16.0911   20.3169   76.0204 O   0  0  0  0  0  0  0  0  0  0  0  0
  -17.6500   22.1109   68.3707 C   0  0  0  0  0  0  0  0  0  0  0  0
  -14.2206   20.9673   67.4356 O   0  0  0  0  0  0  0  0  0  0  0  0
  -18.1460   17.3896   73.2077 O   0  0  0  0  0  0  0  0  0  0  0  0
  -17.0059   18.6534   74.1752 C   0  0  0  0  0  0  0  0  0  0  0  0
  -17.9443   20.3711   71.0685 C   0  0  0  0  0  0  0  0  0  0  0  0
  -12.0071   23.9069   66.1205 C   0  0  0  0  0  0  0  0  0  0  0  0
  -16.8317   22.2018   67.2485 C   0  0  0  0  0  0  0  0  0  0  0  0
  -16.3152   23.3884   68.3855 C   0  0  0  0  0  0  0  0  0  0  0  0
  3  2  1  0
  7  1  2  0
  8  2  1  0
 10  7  1  0
 11  1  1  0
 11  6  1  0
 12 10  1  0
 13 12  2  0
 14  5  1  0
 15 11  1  0
 16  4  1  0
 18 14  1  0
 19  5  1  0
 20  8  1  0
 20  9  1  0
 21 11  1  0
 23  4  1  0
 23  5  1  0
 23 17  1  0
 23 22  1  0
 24  9  1  0
 24 16  1  0
 25  7  1  0
 25 15  2  0
 26 20  1  0
 27  6  1  0
 27 20  1  0
 27 26  1  0
M  END
>  <ID>  (1) 
conformer_0

$$$$
