
     RDKit          3D

 27 29  0  0  0  0  0  0  0  0999 V2000
  -17.4398   19.8222   71.8976 C   0  0  1  0  0  0  0  0  0  0  0  0
  -17.2427   22.0568   68.4641 C   0  0  2  0  0  0  0  0  0  0  0  0
  -17.8862   20.8039   68.1610 C   0  0  1  0  0  0  0  0  0  0  0  0
  -13.2777   24.6583   66.2232 C   0  0  0  0  0  0  0  0  0  0  0  0
  -14.0556   23.9694   66.9240 C   0  0  0  0  0  0  0  0  0  0  0  0
  -17.3234   18.2749   73.0626 C   0  0  1  0  0  0  0  0  0  0  0  0
  -17.5477   21.4633   69.9026 C   0  0  1  0  0  0  0  0  0  0  0  0
  -16.0601   23.3763   68.3384 C   0  0  0  0  0  0  0  0  0  0  0  0
  -15.4306   21.3720   68.4052 C   0  0  0  0  0  0  0  0  0  0  0  0
  -16.8276   18.9293   74.1630 C   0  0  2  0  0  0  0  0  0  0  0  0
  -17.5075   22.8415   67.7032 C   0  0  1  0  0  0  0  0  0  0  0  0
  -17.1488   23.6147   64.8404 C   0  0  0  0  0  0  0  0  0  0  0  0
  -13.6950   22.4460   67.2082 C   0  0  0  0  0  0  0  0  0  0  0  0
  -16.5809   23.3037   63.3379 C   0  0  0  0  0  0  0  0  0  0  0  0
  -12.0545   24.0205   65.9204 C   0  0  0  0  0  0  0  0  0  0  0  0
  -16.9222   21.2614   72.9663 O   0  0  0  0  0  0  0  0  0  0  0  0
  -18.0321   23.0029   65.5942 O   0  0  0  0  0  0  0  0  0  0  0  0
  -15.6433   19.4421   75.7257 O   0  0  0  0  0  0  0  0  0  0  0  0
  -19.2535   20.4191   68.6723 C   0  0  0  0  0  0  0  0  0  0  0  0
  -14.6794   21.9356   73.7552 O   0  0  0  0  0  0  0  0  0  0  0  0
  -16.4297   20.1628   74.4710 C   0  0  1  0  0  0  0  0  0  0  0  0
  -18.1326   17.0609   73.1629 O   0  0  0  0  0  0  0  0  0  0  0  0
  -16.2629   17.2615   75.0350 O   0  0  0  0  0  0  0  0  0  0  0  0
  -12.3712   22.6044   66.4277 C   0  0  0  0  0  0  0  0  0  0  0  0
  -17.1502   20.5785   71.0947 O   0  0  0  0  0  0  0  0  0  0  0  0
  -15.8619   21.8873   74.0378 C   0  0  2  0  0  0  0  0  0  0  0  0
  -20.4664   19.9620   68.2081 C   0  0  0  0  0  0  0  0  0  0  0  0
  3  2  1  0
  5  4  2  0
  6  1  1  0
  7  2  1  0
  7  3  1  0
  9  8  1  0
 10  6  1  0
  2 11  1  6
 11  8  1  6
 13  5  1  0
 13  9  1  0
 14 12  1  0
 15  4  1  0
 16  1  1  0
 17 11  1  0
 17 12  1  0
  3 19  1  6
 21 10  1  0
 21 18  1  1
  6 22  1  1
 10 23  1  6
 24 13  2  0
 24 15  1  0
  1 25  1  6
  7 25  1  1
 26 16  1  0
 26 20  1  6
 26 21  1  0
 27 19  2  3
M  END
>  <ID>  (1) 
conformer_0

$$$$
