
     RDKit          3D

 29 32  0  0  0  0  0  0  0  0999 V2000
  -14.3430   23.4824   66.6792 C   0  0  0  0  0  0  0  0  0  0  0  0
  -19.0152   20.2143   68.9896 C   0  0  0  0  0  0  0  0  0  0  0  0
  -17.5248   17.8023   73.8736 C   0  0  1  0  0  0  0  0  0  0  0  0
  -16.7650   19.0890   74.7649 C   0  0  1  0  0  0  0  0  0  0  0  0
  -17.9399   20.6080   68.0059 C   0  0  0  0  0  0  0  0  0  0  0  0
  -17.3643   21.5529   69.8300 C   0  0  0  0  0  0  0  0  0  0  0  0
  -17.3891   22.1935   68.2432 C   0  0  1  0  0  0  0  0  0  0  0  0
  -13.6540   24.3026   65.8407 C   0  0  0  0  0  0  0  0  0  0  0  0
  -18.5622   20.5694   70.7380 C   0  0  1  0  0  0  0  0  0  0  0  0
  -16.8004   20.7863   74.5776 C   0  0  1  0  0  0  0  0  0  0  0  0
  -17.0092   23.2598   63.1444 C   0  0  0  0  0  0  0  0  0  0  0  0
  -12.4046   22.4762   66.6630 C   0  0  0  0  0  0  0  0  0  0  0  0
  -17.7147   23.2183   65.4137 O   0  0  0  0  0  0  0  0  0  0  0  0
  -17.3978   23.2047   64.5024 C   0  0  0  0  0  0  0  0  0  0  0  0
  -16.1087   17.5857   75.2850 O   0  0  0  0  0  0  0  0  0  0  0  0
  -14.9517   22.4347   73.9370 O   0  0  0  0  0  0  0  0  0  0  0  0
  -13.9479   22.1682   67.0753 C   0  0  0  0  0  0  0  0  0  0  0  0
  -17.2629   20.2361   72.9348 O   0  0  0  0  0  0  0  0  0  0  0  0
  -16.0573   20.3200   76.1159 O   0  0  0  0  0  0  0  0  0  0  0  0
  -18.2442   16.6696   73.6653 O   0  0  0  0  0  0  0  0  0  0  0  0
  -20.0229   20.1724   68.3780 C   0  0  0  0  0  0  0  0  0  0  0  0
  -17.5472   19.3198   73.0038 C   0  0  2  0  0  0  0  0  0  0  0  0
  -14.6955   20.9597   68.0162 O   0  0  0  0  0  0  0  0  0  0  0  0
  -15.5650   21.0851   68.4734 C   0  0  0  0  0  0  0  0  0  0  0  0
  -12.2284   23.7189   65.8797 C   0  0  0  0  0  0  0  0  0  0  0  0
  -16.1231   23.6040   68.1971 C   0  0  0  0  0  0  0  0  0  0  0  0
  -16.7163   22.5605   67.8523 C   0  0  2  0  0  0  0  0  0  0  0  0
  -16.2160   22.1667   74.2117 C   0  0  0  0  0  0  0  0  0  0  0  0
  -17.5431   20.9240   71.2505 O   0  0  0  0  0  0  0  0  0  0  0  0
  4  3  1  0
  5  2  1  0
  7  5  1  6
  7  6  1  0
  8  1  2  0
  9  2  1  0
 10  4  1  0
 14 11  1  0
 14 13  2  0
  4 15  1  1
 17  1  1  0
 17 12  1  0
 18 10  1  0
 10 19  1  6
  3 20  1  1
 21  2  2  3
 22  3  1  0
 22  4  1  0
 22  9  1  0
 22 18  1  6
 23 17  1  0
 24 23  1  0
 25  8  1  0
 25 12  2  0
 26 14  1  0
 27  7  1  0
 27 24  1  1
 27 26  1  0
 28 10  1  0
 28 16  1  0
 29  6  1  0
  9 29  1  6
M  END
>  <ID>  (1) 
conformer_0

$$$$
