
     RDKit          3D

 33 36  0  0  0  0  0  0  0  0999 V2000
  -14.1649   23.4743   66.7554 C   0  0  0  0  0  0  0  0  0  0  0  0
  -20.0853   20.2947   68.7218 C   0  0  0  0  0  0  0  0  0  0  0  0
  -16.4113   19.7692   74.8932 C   0  0  0  0  0  0  0  0  0  0  0  0
  -19.0022   19.9744   68.4343 C   0  0  0  0  0  0  0  0  0  0  0  0
  -15.4131   21.4258   68.3546 C   0  0  0  0  0  0  0  0  0  0  0  0
  -13.6428   24.7713   66.8502 C   0  0  0  0  0  0  0  0  0  0  0  0
  -17.4272   18.9077   72.8612 C   0  0  0  0  0  0  0  0  0  0  0  0
  -21.1225   19.9784   67.7862 C   0  0  0  0  0  0  0  0  0  0  0  0
  -17.7869   20.8531   70.8423 C   0  0  0  0  0  0  0  0  0  0  0  0
  -16.1348   23.6095   63.6444 C   0  0  0  0  0  0  0  0  0  0  0  0
  -17.5023   22.9205   65.4673 O   0  0  0  0  0  0  0  0  0  0  0  0
  -16.7728   20.4953   73.4926 C   0  0  0  0  0  0  0  0  0  0  0  0
  -12.1178   22.5307   66.4741 C   0  0  0  0  0  0  0  0  0  0  0  0
  -17.8591   22.1644   68.7828 C   0  0  0  0  0  0  0  0  0  0  0  0
  -16.5294   16.9837   75.0271 O   0  0  0  0  0  0  0  0  0  0  0  0
  -13.3684   22.4215   67.0215 C   0  0  0  0  0  0  0  0  0  0  0  0
  -17.5785   20.7177   71.1772 O   0  0  0  0  0  0  0  0  0  0  0  0
  -17.0709   23.3495   64.7304 C   0  0  0  0  0  0  0  0  0  0  0  0
  -14.9320   21.9049   73.9483 O   0  0  0  0  0  0  0  0  0  0  0  0
  -15.5865   19.0177   75.7838 O   0  0  0  0  0  0  0  0  0  0  0  0
  -18.1192   17.4480   72.7209 O   0  0  0  0  0  0  0  0  0  0  0  0
  -17.2048   18.2353   74.2589 C   0  0  0  0  0  0  0  0  0  0  0  0
  -16.4815   23.3609   68.1431 C   0  0  0  0  0  0  0  0  0  0  0  0
  -17.6179   21.6547   69.3126 C   0  0  0  0  0  0  0  0  0  0  0  0
  -14.6381   20.9659   68.0514 O   0  0  0  0  0  0  0  0  0  0  0  0
  -13.0214   24.5931   65.5626 C   0  0  0  0  0  0  0  0  0  0  0  0
  -11.6276   23.8274   66.0189 C   0  0  0  0  0  0  0  0  0  0  0  0
  -16.2745   21.3083   75.8664 O   0  0  0  0  0  0  0  0  0  0  0  0
  -17.1946   21.3655   72.8737 O   0  0  0  0  0  0  0  0  0  0  0  0
  -16.3028   22.1080   74.2497 C   0  0  0  0  0  0  0  0  0  0  0  0
  -16.7778   22.2384   67.3572 C   0  0  0  0  0  0  0  0  0  0  0  0
  -15.3321   23.3172   68.7040 C   0  0  0  0  0  0  0  0  0  0  0  0
  -17.5128   20.7599   67.7117 C   0  0  0  0  0  0  0  0  0  0  0  0
  4  2  1  0
  6  1  2  0
  8  2  1  0
  9  7  1  0
 12  3  1  0
 12  7  1  0
 16  1  1  0
 16 13  2  0
 17  9  1  0
 18 10  1  0
 18 11  1  0
 20  3  1  0
 21  7  1  0
 22  3  1  0
 22  7  1  0
 22 15  1  0
 24  9  1  0
 24 14  1  0
 25  5  1  0
 26  6  1  0
 26 10  1  0
 27 13  1  0
 27 26  2  0
 29 12  1  0
 30 12  1  0
 30 19  1  0
 30 28  1  0
 31  5  1  0
 31 14  1  0
 31 23  1  0
 32  5  1  0
 32  6  1  0
 32 23  1  0
 33  4  1  0
 33 14  1  0
 33 31  1  0
M  END
>  <ID>  (1) 
conformer_0

$$$$
