
     RDKit          3D

 27 27  0  0  0  0  0  0  0  0999 V2000
  -16.9209   19.1025   74.0125 C   0  0  0  0  0  0  0  0  0  0  0  0
  -11.8817   23.5802   66.3318 C   0  0  0  0  0  0  0  0  0  0  0  0
  -19.5453   20.1510   69.1522 C   0  0  0  0  0  0  0  0  0  0  0  0
  -16.6263   20.5016   74.6752 C   0  0  0  0  0  0  0  0  0  0  0  0
  -17.5207   21.0881   70.1504 C   0  0  0  0  0  0  0  0  0  0  0  0
  -20.4137   20.0688   68.1898 C   0  0  0  0  0  0  0  0  0  0  0  0
  -18.6122   20.8136   67.9814 C   0  0  0  0  0  0  0  0  0  0  0  0
  -12.3692   22.2812   66.8760 C   0  0  0  0  0  0  0  0  0  0  0  0
  -16.7614   23.8148   63.0051 C   0  0  0  0  0  0  0  0  0  0  0  0
  -13.9235   22.3066   67.1170 C   0  0  0  0  0  0  0  0  0  0  0  0
  -17.8314   19.7152   72.3629 C   0  0  0  0  0  0  0  0  0  0  0  0
  -17.4318   23.2530   64.4779 C   0  0  0  0  0  0  0  0  0  0  0  0
  -17.8284   22.5741   65.2522 O   0  0  0  0  0  0  0  0  0  0  0  0
  -16.0829   21.5634   74.1677 C   0  0  0  0  0  0  0  0  0  0  0  0
  -17.9048   21.8001   68.5841 C   0  0  0  0  0  0  0  0  0  0  0  0
  -17.3849   20.6164   71.9973 O   0  0  0  0  0  0  0  0  0  0  0  0
  -15.0035   22.3708   73.9956 O   0  0  0  0  0  0  0  0  0  0  0  0
  -16.0525   20.0941   76.0573 O   0  0  0  0  0  0  0  0  0  0  0  0
  -14.1146   23.7402   66.7323 C   0  0  0  0  0  0  0  0  0  0  0  0
  -18.5488   17.0204   74.2245 O   0  0  0  0  0  0  0  0  0  0  0  0
  -15.5862   20.4158   69.8232 O   0  0  0  0  0  0  0  0  0  0  0  0
  -17.7245   18.0671   73.4739 C   0  0  0  0  0  0  0  0  0  0  0  0
  -16.2094   17.7816   75.1465 O   0  0  0  0  0  0  0  0  0  0  0  0
  -16.6685   22.1670   67.7540 C   0  0  0  0  0  0  0  0  0  0  0  0
  -16.4368   23.4225   68.4173 C   0  0  0  0  0  0  0  0  0  0  0  0
  -15.8610   21.2287   68.9703 C   0  0  0  0  0  0  0  0  0  0  0  0
  -13.0695   24.4663   66.1116 C   0  0  0  0  0  0  0  0  0  0  0  0
  4  1  1  0
  6  3  1  0
  7  3  1  0
  8  2  2  0
 10  8  1  0
 11  1  1  0
 12  9  1  0
 13 12  2  0
 14  4  1  0
 15  5  1  0
 15  7  1  0
 16  5  1  0
 16 11  1  0
 17 14  1  0
 18  4  1  0
 19 10  2  0
 22  1  1  0
 22 20  1  0
 23  1  1  0
 24 12  1  0
 24 15  1  0
 25 19  1  0
 25 24  1  0
 26 21  1  0
 26 24  1  0
 27  2  1  0
 27 19  1  0
M  END
>  <ID>  (1) 
conformer_0

$$$$
