
     RDKit          3D

 26 27  0  0  0  0  0  0  0  0999 V2000
  -18.3690   20.5142   68.4418 C   0  0  0  0  0  0  0  0  0  0  0  0
  -17.5927   18.4037   73.5884 C   0  0  1  0  0  0  0  0  0  0  0  0
  -12.3004   22.5150   66.6673 C   0  0  0  0  0  0  0  0  0  0  0  0
  -17.2586   21.9976   68.4138 C   0  0  2  0  0  0  0  0  0  0  0  0
  -12.0387   23.7680   66.1339 C   0  0  0  0  0  0  0  0  0  0  0  0
  -16.7846   18.8595   74.6570 C   0  0  2  0  0  0  0  0  0  0  0  0
  -18.1709   20.6915   70.6526 C   0  0  0  0  0  0  0  0  0  0  0  0
  -16.9388   21.7122   69.5791 C   0  0  1  0  0  0  0  0  0  0  0  0
  -17.4439   23.1589   64.3314 C   0  0  0  0  0  0  0  0  0  0  0  0
  -19.5098   20.0701   68.5552 C   0  0  0  0  0  0  0  0  0  0  0  0
  -16.7064   23.8623   63.2990 C   0  0  0  0  0  0  0  0  0  0  0  0
  -16.4624   20.4030   74.4178 C   0  0  2  0  0  0  0  0  0  0  0  0
  -17.9556   22.3688   64.7989 O   0  0  0  0  0  0  0  0  0  0  0  0
  -13.8726   22.2731   67.0230 C   0  0  0  0  0  0  0  0  0  0  0  0
  -13.4079   24.5435   66.1569 C   0  0  0  0  0  0  0  0  0  0  0  0
  -15.7588   19.7472   75.9725 O   0  0  0  0  0  0  0  0  0  0  0  0
  -17.4669   20.8948   72.0892 O   0  0  0  0  0  0  0  0  0  0  0  0
  -15.0389   22.2205   73.9742 O   0  0  0  0  0  0  0  0  0  0  0  0
  -18.7197   17.4470   73.4470 O   0  0  0  0  0  0  0  0  0  0  0  0
  -16.1721   22.0942   74.1579 C   0  0  0  0  0  0  0  0  0  0  0  0
  -16.2716   23.3945   68.1275 C   0  0  2  0  0  0  0  0  0  0  0  0
  -16.0896   17.5398   75.0619 O   0  0  0  0  0  0  0  0  0  0  0  0
  -15.7274   20.5316   70.1985 O   0  0  0  0  0  0  0  0  0  0  0  0
  -14.2152   23.7339   66.7480 C   0  0  0  0  0  0  0  0  0  0  0  0
  -17.9078   19.8872   72.6333 C   0  0  0  0  0  0  0  0  0  0  0  0
  -15.8439   21.5496   67.9106 C   0  0  1  0  0  0  0  0  0  0  0  0
  4  1  1  1
  5  3  2  0
  6  2  1  0
  8  4  1  0
  8  7  1  0
 10  1  2  3
 11  9  1  0
 12  6  1  0
 13  9  2  0
 14  3  1  0
 15  5  1  0
 12 16  1  1
 17  7  1  0
  2 19  1  1
 20 12  1  0
 20 18  1  0
 21  4  1  0
 21  9  1  6
  6 22  1  6
  8 23  1  6
 24 14  1  0
 24 15  2  0
 25  2  1  0
 25 17  1  0
 26  4  1  0
 26 14  1  6
 26 21  1  0
M  END
>  <ID>  (1) 
conformer_0

$$$$
