
     RDKit          3D

 29 30  0  0  0  0  0  0  0  0999 V2000
  -12.1996   23.9445   65.7963 C   0  0  0  0  0  0  0  0  0  0  0  0
  -17.8570   20.8495   67.7824 C   0  0  2  0  0  0  0  0  0  0  0  0
  -17.5501   17.9226   73.4837 C   0  0  0  0  0  0  0  0  0  0  0  0
  -16.5968   20.3572   74.7555 C   0  0  2  0  0  0  0  0  0  0  0  0
  -18.9193   20.3362   68.9101 C   0  0  0  0  0  0  0  0  0  0  0  0
  -17.3561   22.0577   68.6097 C   0  0  2  0  0  0  0  0  0  0  0  0
  -14.2743   23.7697   66.7905 C   0  0  0  0  0  0  0  0  0  0  0  0
  -17.0377   21.6116   69.7175 C   0  0  0  0  0  0  0  0  0  0  0  0
  -17.0509   18.7164   74.3838 C   0  0  2  0  0  0  0  0  0  0  0  0
  -16.6516   23.3303   62.9270 C   0  0  0  0  0  0  0  0  0  0  0  0
  -17.8161   22.6433   65.2530 O   0  0  0  0  0  0  0  0  0  0  0  0
  -17.4421   22.9854   64.1770 C   0  0  0  0  0  0  0  0  0  0  0  0
  -14.7241   21.2688   67.9277 O   0  0  0  0  0  0  0  0  0  0  0  0
  -16.2790   21.6961   74.2220 C   0  0  0  0  0  0  0  0  0  0  0  0
  -13.9695   22.3369   66.9833 C   0  0  0  0  0  0  0  0  0  0  0  0
  -12.3874   22.7197   66.6115 C   0  0  0  0  0  0  0  0  0  0  0  0
  -14.5498   22.2838   74.1533 O   0  0  0  0  0  0  0  0  0  0  0  0
  -18.2418   20.2260   72.4273 O   0  0  0  0  0  0  0  0  0  0  0  0
  -16.0329   20.1735   76.1203 O   0  0  0  0  0  0  0  0  0  0  0  0
  -18.6250   16.8948   73.9249 O   0  0  0  0  0  0  0  0  0  0  0  0
  -19.9073   20.4232   68.3388 C   0  0  0  0  0  0  0  0  0  0  0  0
  -17.3658   22.5322   67.1260 C   0  0  2  0  0  0  0  0  0  0  0  0
  -16.1151   17.7764   75.2649 O   0  0  0  0  0  0  0  0  0  0  0  0
  -15.5954   21.3459   68.1276 C   0  0  0  0  0  0  0  0  0  0  0  0
  -17.4365   20.0586   72.8001 C   0  0  0  0  0  0  0  0  0  0  0  0
  -13.6288   24.4614   65.8315 C   0  0  0  0  0  0  0  0  0  0  0  0
  -15.9138   23.5474   68.3279 C   0  0  0  0  0  0  0  0  0  0  0  0
  -18.3879   20.6132   70.8045 C   0  0  0  0  0  0  0  0  0  0  0  0
  -16.7358   21.2275   71.9132 O   0  0  0  0  0  0  0  0  0  0  0  0
  2  5  1  1
  6  2  1  0
  6  8  1  6
  9  3  1  0
  9  4  1  0
 12 10  1  0
 12 11  1  0
 14  4  1  0
 15  7  2  0
 15 13  1  0
 16  1  2  0
 16 15  1  0
 17 14  1  0
  4 19  1  6
 20  3  1  0
 21  5  2  3
 22  2  1  0
 22  6  1  0
 22 11  1  0
  9 23  1  1
 24  6  1  0
 24 13  1  0
 25  9  1  0
 25 18  1  0
 26  1  1  0
 26  7  1  0
 22 27  1  6
 28  5  1  0
 28 18  1  0
 29 25  2  0
M  END
>  <ID>  (1) 
conformer_0

$$$$
