
     RDKit          3D

 25 26  0  0  0  0  0  0  0  0999 V2000
  -19.8904   20.1571   68.5433 C   0  0  0  0  0  0  0  0  0  0  0  0
  -14.3887   23.6911   66.4879 C   0  0  0  0  0  0  0  0  0  0  0  0
  -17.4255   19.6846   72.6264 C   0  0  0  0  0  0  0  0  0  0  0  0
  -17.8988   21.0086   70.3883 C   0  0  0  0  0  0  0  0  0  0  0  0
  -18.7248   20.5725   68.4714 C   0  0  0  0  0  0  0  0  0  0  0  0
  -17.4300   18.8157   73.9923 C   0  0  0  0  0  0  0  0  0  0  0  0
  -13.8964   24.4740   65.5848 C   0  0  0  0  0  0  0  0  0  0  0  0
  -17.7457   21.6862   68.3259 C   0  0  1  0  0  0  0  0  0  0  0  0
  -16.6241   23.4045   62.7151 C   0  0  0  0  0  0  0  0  0  0  0  0
  -17.2048   23.1614   64.3333 C   0  0  0  0  0  0  0  0  0  0  0  0
  -16.2241   21.3736   69.4412 C   0  0  1  0  0  0  0  0  0  0  0  0
  -16.4364   21.6403   74.1869 C   0  0  0  0  0  0  0  0  0  0  0  0
  -17.6458   22.4658   65.0424 O   0  0  0  0  0  0  0  0  0  0  0  0
  -12.4203   23.8940   65.6732 C   0  0  0  0  0  0  0  0  0  0  0  0
  -17.5669   20.7583   71.8184 O   0  0  0  0  0  0  0  0  0  0  0  0
  -13.9923   22.2987   66.8644 C   0  0  2  0  0  0  0  0  0  0  0  0
  -15.1390   22.0786   73.7550 O   0  0  0  0  0  0  0  0  0  0  0  0
  -15.9335   19.9107   76.0287 O   0  0  0  0  0  0  0  0  0  0  0  0
  -18.3148   17.6101   73.1304 O   0  0  0  0  0  0  0  0  0  0  0  0
  -16.4046   23.4127   68.3159 C   0  0  0  0  0  0  0  0  0  0  0  0
  -15.3753   20.5876   70.1245 O   0  0  0  0  0  0  0  0  0  0  0  0
  -16.3276   17.6891   74.9677 O   0  0  0  0  0  0  0  0  0  0  0  0
  -16.3817   21.8840   67.6658 C   0  0  1  0  0  0  0  0  0  0  0  0
  -17.0219   20.1094   74.6727 C   0  0  2  0  0  0  0  0  0  0  0  0
  -12.4987   22.6422   66.4482 C   0  0  0  0  0  0  0  0  0  0  0  0
  5  1  2  3
  6  3  1  0
  7  2  2  0
  8  5  1  6
 10  7  1  0
 10  9  1  0
 11  4  1  0
 11  8  1  0
 13 10  2  0
 14  7  1  0
 15  3  1  0
 15  4  1  0
 16  2  1  6
 17 12  1  0
 19  6  1  0
 11 21  1  6
 22  6  1  0
 23  8  1  0
 23 11  1  0
 23 16  1  0
 23 20  1  6
 24  6  1  0
 24 12  1  0
 24 18  1  1
 25 14  2  0
 25 16  1  0
M  END
>  <ID>  (1) 
conformer_0

$$$$
