
     RDKit          3D

 22 22  0  0  0  0  0  0  0  0999 V2000
  -17.7189   19.5603   72.8347 C   0  0  0  0  0  0  0  0  0  0  0  0
  -18.7271   20.5640   68.3803 C   0  0  0  0  0  0  0  0  0  0  0  0
  -12.8898   24.2242   66.1829 C   0  0  0  0  0  0  0  0  0  0  0  0
  -17.3627   21.7754   68.3442 C   0  0  0  0  0  0  0  0  0  0  0  0
  -12.2435   22.9356   66.4990 C   0  0  0  0  0  0  0  0  0  0  0  0
  -17.2956   18.2777   73.9212 C   0  0  0  0  0  0  0  0  0  0  0  0
  -17.5859   23.0874   64.2214 C   0  0  0  0  0  0  0  0  0  0  0  0
  -17.9610   21.0189   70.2296 C   0  0  0  0  0  0  0  0  0  0  0  0
  -19.9331   20.2312   68.5792 C   0  0  0  0  0  0  0  0  0  0  0  0
  -16.3275   21.4043   68.4357 C   0  0  0  0  0  0  0  0  0  0  0  0
  -16.5808   19.8734   74.5210 C   0  0  0  0  0  0  0  0  0  0  0  0
  -17.7825   22.3103   65.5958 O   0  0  0  0  0  0  0  0  0  0  0  0
  -13.8518   22.1597   67.0628 C   0  0  0  0  0  0  0  0  0  0  0  0
  -14.1570   23.8271   66.6700 C   0  0  0  0  0  0  0  0  0  0  0  0
  -16.1920   17.4656   75.1872 O   0  0  0  0  0  0  0  0  0  0  0  0
  -17.4008   20.7576   72.0100 O   0  0  0  0  0  0  0  0  0  0  0  0
  -14.9176   22.4601   74.0514 O   0  0  0  0  0  0  0  0  0  0  0  0
  -16.3115   23.2491   68.3016 C   0  0  0  0  0  0  0  0  0  0  0  0
  -16.1240   21.7948   74.2800 C   0  0  0  0  0  0  0  0  0  0  0  0
  -18.2525   17.0038   73.1906 O   0  0  0  0  0  0  0  0  0  0  0  0
  -14.7580   21.2997   68.4811 O   0  0  0  0  0  0  0  0  0  0  0  0
  -15.9586   19.8995   75.9669 O   0  0  0  0  0  0  0  0  0  0  0  0
  4  2  1  0
  5  3  1  0
  6  1  1  0
  8  2  1  0
  9  2  1  0
 10  4  1  0
 11  6  1  0
 12  4  1  0
 12  7  1  0
 13  5  1  0
 14  3  2  0
 14 13  1  0
 15  6  1  0
 16  1  1  0
 16  8  1  0
 18  4  1  0
 19 11  1  0
 19 17  1  0
 20  6  1  0
 21 10  1  0
 21 13  1  0
 22 11  1  0
M  END
>  <ID>  (1) 
conformer_0

$$$$
