
     RDKit          3D

 24 25  0  0  0  0  0  0  0  0999 V2000
  -17.7150   19.2187   72.8926 C   0  0  0  0  0  0  0  0  0  0  0  0
  -17.9541   21.4191   68.2313 C   0  0  0  0  0  0  0  0  0  0  0  0
  -14.0486   23.8780   66.9587 C   0  0  0  0  0  0  0  0  0  0  0  0
  -16.1680   21.6015   67.8472 C   0  0  2  0  0  0  0  0  0  0  0  0
  -16.4632   19.9548   74.3859 C   0  0  1  0  0  0  0  0  0  0  0  0
  -18.8309   20.4611   68.4067 C   0  0  0  0  0  0  0  0  0  0  0  0
  -12.9134   24.2103   66.3097 C   0  0  0  0  0  0  0  0  0  0  0  0
  -16.2873   23.3008   68.4870 C   0  0  1  0  0  0  0  0  0  0  0  0
  -16.6463   23.6154   63.0849 C   0  0  0  0  0  0  0  0  0  0  0  0
  -17.7478   22.2051   64.8997 O   0  0  0  0  0  0  0  0  0  0  0  0
  -16.2989   21.7115   74.1590 C   0  0  0  0  0  0  0  0  0  0  0  0
  -16.4146   21.8822   69.1792 C   0  0  2  0  0  0  0  0  0  0  0  0
  -13.8267   22.1927   67.1396 C   0  0  0  0  0  0  0  0  0  0  0  0
  -17.4560   22.9991   64.1315 C   0  0  0  0  0  0  0  0  0  0  0  0
  -12.2769   22.8395   66.5056 C   0  0  0  0  0  0  0  0  0  0  0  0
  -17.5294   20.7458   72.0879 O   0  0  0  0  0  0  0  0  0  0  0  0
  -15.7417   19.8674   75.7834 O   0  0  0  0  0  0  0  0  0  0  0  0
  -19.9180   20.1634   68.3689 C   0  0  0  0  0  0  0  0  0  0  0  0
  -18.3366   16.9309   73.4878 O   0  0  0  0  0  0  0  0  0  0  0  0
  -14.7694   22.1420   73.9667 O   0  0  0  0  0  0  0  0  0  0  0  0
  -16.1032   17.5322   74.8881 O   0  0  0  0  0  0  0  0  0  0  0  0
  -17.2890   18.4399   73.9687 C   0  0  0  0  0  0  0  0  0  0  0  0
  -15.7837   20.6471   70.5486 O   0  0  0  0  0  0  0  0  0  0  0  0
  -17.8697   20.7066   70.4663 C   0  0  0  0  0  0  0  0  0  0  0  0
  4  2  1  6
  6  2  1  0
  7  3  2  0
  8  3  1  1
  8  4  1  0
 10  4  1  0
 11  5  1  0
 12  4  1  0
 12  8  1  0
 13  3  1  0
 14  9  1  0
 14 10  1  0
 15  7  1  0
 15 13  2  0
 16  1  1  0
  5 17  1  1
 18  6  2  3
 20 11  1  0
 22  1  1  0
 22  5  1  0
 22 19  1  0
 22 21  1  0
 12 23  1  1
 24 16  1  0
 24 23  1  0
M  END
>  <ID>  (1) 
conformer_0

$$$$
