
     RDKit          3D

 32 32  0  0  0  0  0  0  0  0999 V2000
  -17.7524   20.4047   68.5983 C   0  0  0  0  0  0  0  0  0  0  0  0
  -13.6498   24.7608   66.4939 C   0  0  0  0  0  0  0  0  0  0  0  0
  -11.4570   23.6824   66.1494 C   0  0  0  0  0  0  0  0  0  0  0  0
  -16.7809   18.8471   74.6172 C   0  0  0  0  0  0  0  0  0  0  0  0
  -16.7028   20.7056   74.7959 C   0  0  0  0  0  0  0  0  0  0  0  0
  -19.7043   19.9810   68.8959 C   0  0  0  0  0  0  0  0  0  0  0  0
  -18.8970   21.1348   68.0383 C   0  0  0  0  0  0  0  0  0  0  0  0
  -16.6704   23.0373   64.0800 C   0  0  0  0  0  0  0  0  0  0  0  0
  -17.0797   21.5732   69.6723 C   0  0  0  0  0  0  0  0  0  0  0  0
  -17.7413   19.7355   73.0181 C   0  0  0  0  0  0  0  0  0  0  0  0
  -12.2981   24.8612   65.9362 C   0  0  0  0  0  0  0  0  0  0  0  0
  -20.7659   20.1891   68.1275 C   0  0  0  0  0  0  0  0  0  0  0  0
  -16.4545   21.9421   74.2931 C   0  0  0  0  0  0  0  0  0  0  0  0
  -18.4057   22.8692   64.9012 O   0  0  0  0  0  0  0  0  0  0  0  0
  -17.5900   23.1436   64.5665 C   0  0  0  0  0  0  0  0  0  0  0  0
  -16.2169   16.9687   75.0404 O   0  0  0  0  0  0  0  0  0  0  0  0
  -15.0590   22.4452   74.0703 O   0  0  0  0  0  0  0  0  0  0  0  0
  -14.6166   20.8252   67.5670 O   0  0  0  0  0  0  0  0  0  0  0  0
  -17.3875   20.5008   72.2600 O   0  0  0  0  0  0  0  0  0  0  0  0
  -13.7855   23.3470   66.6783 C   0  0  0  0  0  0  0  0  0  0  0  0
  -16.3841   21.4389   76.4943 O   0  0  0  0  0  0  0  0  0  0  0  0
  -17.4250   17.9505   73.6057 C   0  0  0  0  0  0  0  0  0  0  0  0
  -17.1646   22.4956   68.2492 C   0  0  0  0  0  0  0  0  0  0  0  0
  -15.1461   21.5785   68.1261 C   0  0  0  0  0  0  0  0  0  0  0  0
  -18.1400   16.9293   73.3148 O   0  0  0  0  0  0  0  0  0  0  0  0
  -12.3510   22.5565   66.4428 C   0  0  0  0  0  0  0  0  0  0  0  0
  -15.8186   19.2439   75.8731 O   0  0  0  0  0  0  0  0  0  0  0  0
  -17.8123   21.4908   70.5855 N   0  0  0  0  0  0  0  0  0  0  0  0
  -17.0863   22.2123   67.6553 C   0  0  0  0  0  0  0  0  0  0  0  0
  -15.6795   23.4889   68.1560 C   0  0  0  0  0  0  0  0  0  0  0  0
  -18.5511   20.5456   70.7040 C   0  0  0  0  0  0  0  0  0  0  0  0
  -15.9848   23.9085   63.1469 C   0  0  0  0  0  0  0  0  0  0  0  0
  5  4  1  0
  7  1  1  0
  7  6  1  0
  9  1  1  0
 11  2  2  0
 11  3  1  0
 12  6  1  0
 13  5  1  0
 15  8  1  0
 15 14  1  0
 16  4  1  0
 17 13  1  0
 19 10  1  0
 20  2  1  0
 20  8  1  0
 21  5  1  0
 22  4  1  0
 22 10  1  0
 23  9  1  0
 24 18  1  0
 25 22  1  0
 26  3  2  0
 26 20  1  0
 27  4  1  0
 28  9  1  0
 29 23  1  0
 30 20  1  0
 30 23  1  0
 30 24  1  0
 31 19  1  0
 31 28  1  0
 32  8  1  0
M  END
>  <ID>  (1) 
conformer_0

$$$$
