
     RDKit          3D

 25 26  0  0  0  0  0  0  0  0999 V2000
  -17.5610   19.6568   72.5572 C   0  0  2  0  0  0  0  0  0  0  0  0
  -14.1649   23.4350   66.6004 C   0  0  0  0  0  0  0  0  0  0  0  0
  -20.3414   20.2137   68.0638 C   0  0  0  0  0  0  0  0  0  0  0  0
  -19.4024   20.1843   68.6561 C   0  0  0  0  0  0  0  0  0  0  0  0
  -13.5152   24.3706   65.8823 C   0  0  0  0  0  0  0  0  0  0  0  0
  -16.5406   19.7377   74.6679 C   0  0  1  0  0  0  0  0  0  0  0  0
  -17.3955   21.2038   70.2652 C   0  0  1  0  0  0  0  0  0  0  0  0
  -18.1501   20.8699   68.4600 C   0  0  2  0  0  0  0  0  0  0  0  0
  -16.9211   23.3735   63.5996 C   0  0  0  0  0  0  0  0  0  0  0  0
  -15.9034   21.5793   68.4130 C   0  0  1  0  0  0  0  0  0  0  0  0
  -17.9351   23.2225   64.8494 C   0  0  0  0  0  0  0  0  0  0  0  0
  -18.5725   23.0358   65.3532 O   0  0  0  0  0  0  0  0  0  0  0  0
  -12.3374   22.4586   66.6209 C   0  0  0  0  0  0  0  0  0  0  0  0
  -16.6853   20.7314   72.5630 O   0  0  0  0  0  0  0  0  0  0  0  0
  -15.1719   22.3093   74.1954 O   0  0  0  0  0  0  0  0  0  0  0  0
  -17.3768   21.5803   67.8102 C   0  0  0  0  0  0  0  0  0  0  0  0
  -15.7815   19.5575   75.9645 O   0  0  0  0  0  0  0  0  0  0  0  0
  -16.1936   21.2069   74.2678 C   0  0  2  0  0  0  0  0  0  0  0  0
  -13.9082   22.0927   67.0731 C   0  0  0  0  0  0  0  0  0  0  0  0
  -18.4600   17.3071   73.5948 O   0  0  0  0  0  0  0  0  0  0  0  0
  -12.0465   23.7219   65.9358 C   0  0  0  0  0  0  0  0  0  0  0  0
  -16.2602   17.4778   75.1472 O   0  0  0  0  0  0  0  0  0  0  0  0
  -17.3393   18.4589   73.7893 C   0  0  0  0  0  0  0  0  0  0  0  0
  -16.2012   22.8124   68.3188 C   0  0  0  0  0  0  0  0  0  0  0  0
  -18.0312   21.3040   71.1813 O   0  0  0  0  0  0  0  0  0  0  0  0
  4  3  2  3
  5  2  2  0
  7  1  1  0
  8  4  1  0
  8  7  1  0
 11  9  1  0
 12 11  2  0
  1 14  1  1
  8 16  1  1
 10 16  1  6
  6 17  1  6
 18  6  1  0
 18 14  1  0
 18 15  1  6
 19  2  1  0
 19 10  1  0
 19 13  1  0
 21  5  1  0
 21 13  2  0
 23  1  1  0
 23  6  1  0
 23 20  1  0
 23 22  1  0
 24 10  1  0
 24 11  1  0
  7 25  1  1
M  END
>  <ID>  (1) 
conformer_0

$$$$
