
     RDKit          3D

 25 25  0  0  0  0  0  0  0  0999 V2000
  -13.6983   24.6234   66.2266 C   0  0  0  0  0  3  0  0  0  0  0  0
  -18.0935   20.8591   68.0332 C   0  0  0  0  0  0  0  0  0  0  0  0
  -17.3990   19.4182   72.9224 C   0  0  0  0  0  0  0  0  0  0  0  0
  -19.3240   20.3071   68.5955 C   0  0  0  0  0  0  0  0  0  0  0  0
  -16.9650   18.6318   74.1078 C   0  0  0  0  0  0  0  0  0  0  0  0
  -17.8306   20.7773   70.7624 C   0  0  0  0  0  0  0  0  0  0  0  0
  -17.4357   22.2141   68.2031 C   0  0  0  0  0  0  0  0  0  0  0  0
  -14.2838   23.7540   66.9412 C   0  0  0  0  0  0  0  0  0  0  0  0
  -17.1591   21.8900   69.2315 C   0  0  0  0  0  0  0  0  0  0  0  0
  -13.7324   22.3805   67.1836 C   0  0  0  0  0  0  0  0  0  0  0  0
  -16.3241   21.6609   74.0818 C   0  0  0  0  0  0  0  0  0  0  0  0
  -17.2686   23.3716   64.7433 C   0  0  0  0  0  0  0  0  0  0  0  0
  -16.6907   23.6499   63.3147 C   0  0  0  0  0  0  0  0  0  0  0  0
  -17.3383   20.9505   71.7342 O   0  0  0  0  0  0  0  0  0  0  0  0
  -18.3737   22.7341   65.1030 O   0  0  0  0  0  0  0  0  0  0  0  0
  -16.2389   17.6307   75.2024 O   0  0  0  0  0  0  0  0  0  0  0  0
  -14.9733   22.1820   74.1895 O   0  0  0  0  0  0  0  0  0  0  0  0
  -12.3111   22.6238   66.5918 C   0  0  0  0  0  0  0  0  0  0  0  0
  -20.6338   20.0794   68.2270 C   0  0  0  0  0  0  0  0  0  0  0  0
  -16.0911   20.4447   76.2145 O   0  0  0  0  0  0  0  0  0  0  0  0
  -18.1860   17.4010   73.2356 O   0  0  0  0  0  0  0  0  0  0  0  0
  -16.4568   20.1912   74.6320 C   0  0  0  0  0  0  0  0  0  0  0  0
  -16.1691   23.4156   68.2817 C   0  0  0  0  0  0  0  0  0  0  0  0
  -15.8321   21.2851   68.1323 C   0  0  0  0  0  0  0  0  0  0  0  0
  -12.2909   24.0604   65.8886 C   0  0  0  0  0  0  0  0  0  0  0  0
  4  2  1  0
  5  3  1  0
  7  2  1  0
  8  1  1  0
  9  6  1  0
  9  7  1  0
 10  8  1  0
 12  8  1  0
 13 12  1  0
 14  3  1  0
 14  6  1  0
 15 12  1  0
 16  5  1  0
 17 11  1  0
 18 10  2  0
 19  4  1  0
 21  5  1  0
 22  5  1  0
 22 11  1  0
 22 20  1  0
 23  7  1  0
 23  8  1  0
 24  9  1  0
 25  1  1  0
 25 18  1  0
M  RAD  1   1   2
M  END
>  <ID>  (1) 
conformer_0

$$$$
