
     RDKit          3D

 23 23  0  0  0  0  0  0  0  0999 V2000
  -17.3742   18.1275   73.8889 C   0  0  0  0  0  0  0  0  0  0  0  0
  -17.8123   21.3779   68.2442 C   0  0  0  0  0  0  0  0  0  0  0  0
  -14.0267   24.0876   66.4762 C   0  0  1  0  0  0  0  0  0  0  0  0
  -16.6236   20.1555   74.6047 C   0  0  0  0  0  0  0  0  0  0  0  0
  -18.6642   20.5135   68.4749 C   0  0  0  0  0  0  0  0  0  0  0  0
  -16.9623   22.2167   69.0281 C   0  0  1  0  0  0  0  0  0  0  0  0
  -16.6803   23.1450   68.4938 C   0  0  0  0  0  0  0  0  0  0  0  0
  -12.7804   24.2551   66.0453 C   0  0  0  0  0  0  0  0  0  0  0  0
  -16.4882   23.5941   63.6991 C   0  0  0  0  0  0  0  0  0  0  0  0
  -13.7736   22.3709   67.0511 C   0  0  1  0  0  0  0  0  0  0  0  0
  -17.5224   20.8811   70.7205 C   0  0  0  0  0  0  0  0  0  0  0  0
  -16.2775   21.7796   74.1867 C   0  0  0  0  0  0  0  0  0  0  0  0
  -17.8529   22.6858   65.2031 O   0  0  0  0  0  0  0  0  0  0  0  0
  -17.5593   23.2795   64.7794 C   0  0  0  0  0  0  0  0  0  0  0  0
  -17.3464   20.8429   71.9351 O   0  0  0  0  0  0  0  0  0  0  0  0
  -15.0324   22.6413   74.0297 O   0  0  0  0  0  0  0  0  0  0  0  0
  -15.9950   20.0150   76.0645 O   0  0  0  0  0  0  0  0  0  0  0  0
  -18.3102   16.8049   73.4958 O   0  0  0  0  0  0  0  0  0  0  0  0
  -19.9599   20.0540   68.3181 C   0  0  0  0  0  0  0  0  0  0  0  0
  -17.3810   19.2144   72.9916 C   0  0  0  0  0  0  0  0  0  0  0  0
  -16.2242   17.6090   75.1971 O   0  0  0  0  0  0  0  0  0  0  0  0
  -12.1960   22.9698   66.4961 C   0  0  0  0  0  0  0  0  0  0  0  0
  -15.8158   21.5321   68.0191 C   0  0  0  0  0  0  0  0  0  0  0  0
  5  2  1  0
  6  2  1  0
  6  7  1  1
  8  3  1  0
  3  9  1  6
 10  3  1  0
 11  6  1  0
 12  4  1  0
 14  9  1  0
 14 13  2  0
 15 11  1  0
 16 12  1  0
 17  4  1  0
 18  1  1  0
 19  5  1  0
 20  1  1  0
 20  4  2  3
 20 15  1  0
 21  1  1  0
 22  8  2  0
 22 10  1  0
 23  6  1  0
 10 23  1  1
M  END
>  <ID>  (1) 
conformer_0

$$$$
