
     RDKit          3D

 31 34  0  0  0  0  0  0  0  0999 V2000
  -19.3354   20.0288   68.8479 C   0  0  0  0  0  0  0  0  0  0  0  0
  -12.5865   24.6283   65.9676 C   0  0  0  0  0  0  0  0  0  0  0  0
  -16.6918   20.5469   74.7474 C   0  0  0  0  0  0  0  0  0  0  0  0
  -17.9020   17.9666   73.5803 C   0  0  0  0  0  0  0  0  0  0  0  0
  -18.0608   20.8394   68.5936 C   0  0  0  0  0  0  0  0  0  0  0  0
  -13.6900   24.5308   67.0389 C   0  0  0  0  0  0  0  0  0  0  0  0
  -17.8475   21.3568   67.4743 C   0  0  0  0  0  0  0  0  0  0  0  0
  -17.2944   19.6111   72.5628 C   0  0  0  0  0  0  0  0  0  0  0  0
  -11.9384   23.5053   65.6996 C   0  0  0  0  0  0  0  0  0  0  0  0
  -17.8071   22.7818   64.3948 C   0  0  0  0  0  0  0  0  0  0  0  0
  -17.7569   20.6857   70.3847 C   0  0  0  0  0  0  0  0  0  0  0  0
  -14.9650   20.6680   67.7148 O   0  0  0  0  0  0  0  0  0  0  0  0
  -16.7732   22.7233   68.3405 C   0  0  0  0  0  0  0  0  0  0  0  0
  -15.9603   21.6011   74.0588 C   0  0  0  0  0  0  0  0  0  0  0  0
  -18.2570   22.6446   65.4031 O   0  0  0  0  0  0  0  0  0  0  0  0
  -14.6719   22.3051   74.0122 O   0  0  0  0  0  0  0  0  0  0  0  0
  -18.1229   20.7940   71.2898 O   0  0  0  0  0  0  0  0  0  0  0  0
  -16.2103   17.6636   75.0666 O   0  0  0  0  0  0  0  0  0  0  0  0
  -16.2144   20.3659   76.1471 O   0  0  0  0  0  0  0  0  0  0  0  0
  -13.8493   23.1643   67.1834 C   0  0  0  0  0  0  0  0  0  0  0  0
  -18.4766   16.7983   74.2678 O   0  0  0  0  0  0  0  0  0  0  0  0
  -17.1449   18.9673   74.2811 C   0  0  0  0  0  0  0  0  0  0  0  0
  -15.5022   23.3861   68.2559 C   0  0  0  0  0  0  0  0  0  0  0  0
  -15.3636   20.9671   70.5803 O   0  0  0  0  0  0  0  0  0  0  0  0
  -12.5924   22.3715   66.5567 C   0  0  0  0  0  0  0  0  0  0  0  0
  -16.7026   21.6976   69.7025 C   0  0  0  0  0  0  0  0  0  0  0  0
  -17.4338   22.4620   66.8214 C   0  0  0  0  0  0  0  0  0  0  0  0
  -17.1340   22.6176   63.1892 C   0  0  0  0  0  0  0  0  0  0  0  0
  -16.5505   20.6641   72.5901 O   0  0  0  0  0  0  0  0  0  0  0  0
  -15.4369   21.4705   68.2434 C   0  0  0  0  0  0  0  0  0  0  0  0
  -20.3028   20.2971   68.0244 C   0  0  0  0  0  0  0  0  0  0  0  0
  5  1  1  0
  6  2  2  0
  7  5  1  0
  9  2  1  0
 11  5  1  0
 14  3  1  0
 15 10  1  0
 16 14  1  0
 17  8  1  0
 17 11  1  0
 19  3  1  0
 20  6  1  0
 21  4  1  0
 22  3  1  0
 22  4  1  0
 22  8  1  0
 22 18  1  0
 23 13  1  0
 23 20  1  0
 25  9  1  0
 25 20  2  0
 26 11  1  0
 26 13  1  0
 26 24  1  0
 27  7  1  0
 27 13  1  0
 27 15  1  0
 28 10  1  0
 29  8  1  0
 29 14  1  0
 30 12  1  0
 30 13  1  0
 30 26  1  0
 31  1  1  0
M  END
>  <ID>  (1) 
conformer_0

$$$$
