
     RDKit          3D

 27 27  0  0  0  0  0  0  0  0999 V2000
  -17.6819   20.5491   68.0863 C   0  0  0  0  0  0  0  0  0  0  0  0
  -14.2364   23.8811   67.1669 C   0  0  0  0  0  0  0  0  0  0  0  0
  -17.6306   19.5093   72.3248 C   0  0  0  0  0  0  0  0  0  0  0  0
  -17.5646   17.9172   73.4752 C   0  0  0  0  0  0  0  0  0  0  0  0
  -19.2882   20.2813   68.8386 C   0  0  0  0  0  0  0  0  0  0  0  0
  -17.5707   21.9878   68.5116 C   0  0  0  0  0  0  0  0  0  0  0  0
  -17.4464   22.5846   68.5307 C   0  0  0  0  0  0  0  0  0  0  0  0
  -13.5857   24.4467   65.9974 C   0  0  0  0  0  0  0  0  0  0  0  0
  -17.2640   23.5382   63.8408 C   0  0  0  0  0  0  0  0  0  0  0  0
  -17.7978   21.0115   70.2603 C   0  0  0  0  0  0  0  0  0  0  0  0
  -17.2341   19.0079   74.2367 C   0  0  0  0  0  0  0  0  0  0  0  0
  -17.7325   22.6775   64.7557 O   0  0  0  0  0  0  0  0  0  0  0  0
  -14.0439   22.4333   67.2518 C   0  0  0  0  0  0  0  0  0  0  0  0
  -17.8211   20.9733   71.0111 O   0  0  0  0  0  0  0  0  0  0  0  0
  -14.9011   22.2261   74.0618 O   0  0  0  0  0  0  0  0  0  0  0  0
  -18.4874   16.7954   73.5565 O   0  0  0  0  0  0  0  0  0  0  0  0
  -19.8106   20.2081   68.0645 C   0  0  0  0  0  0  0  0  0  0  0  0
  -16.1066   20.4011   76.2811 O   0  0  0  0  0  0  0  0  0  0  0  0
  -16.0128   17.8905   75.0155 O   0  0  0  0  0  0  0  0  0  0  0  0
  -12.5529   22.3973   66.8365 C   0  0  0  0  0  0  0  0  0  0  0  0
  -17.3600   22.9780   62.4780 C   0  0  0  0  0  0  0  0  0  0  0  0
  -15.8296   21.3703   68.3566 C   0  0  0  0  0  0  0  0  0  0  0  0
  -16.8583   20.4473   74.7420 C   0  0  0  0  0  0  0  0  0  0  0  0
  -15.8593   23.6168   68.4180 C   0  0  0  0  0  0  0  0  0  0  0  0
  -12.2210   23.4974   65.9218 C   0  0  0  0  0  0  0  0  0  0  0  0
  -17.0987   20.5460   72.6559 O   0  0  0  0  0  0  0  0  0  0  0  0
  -16.1598   21.7759   74.3565 C   0  0  0  0  0  0  0  0  0  0  0  0
  4  3  1  0
  5  1  1  0
  6  1  1  0
  7  6  1  0
  8  2  2  0
 10  6  1  0
 11  4  1  0
 12  7  1  0
 12  9  1  0
 13  2  1  0
 14 10  1  0
 16  4  1  0
 17  5  1  0
 19 11  1  0
 20 13  1  0
 21  9  1  0
 22  6  1  0
 23 11  1  0
 23 18  1  0
 24  2  1  0
 24  7  1  0
 25  8  1  0
 25 20  2  0
 26  3  1  0
 26 14  1  0
 27 15  1  0
 27 23  1  0
M  END
>  <ID>  (1) 
conformer_0

$$$$
