
     RDKit          3D

 24 26  0  0  0  0  0  0  0  0999 V2000
  -19.5364   20.3235   69.0637 C   0  0  0  0  0  0  0  0  0  0  0  0
  -17.3779   18.0511   74.1152 C   0  0  0  0  0  0  0  0  0  0  0  0
  -13.9258   24.1495   67.0696 C   0  0  0  0  0  0  0  0  0  0  0  0
  -20.1613   20.2019   68.4006 C   0  0  0  0  0  0  0  0  0  0  0  0
  -15.8307   21.6293   68.2691 C   0  0  0  0  0  0  0  0  0  0  0  0
  -18.0625   20.7749   68.0199 C   0  0  0  0  0  0  0  0  0  0  0  0
  -17.4708   19.5140   72.9803 C   0  0  2  0  0  0  0  0  0  0  0  0
  -13.0158   24.3742   66.1693 C   0  0  0  0  0  0  0  0  0  0  0  0
  -17.8591   21.9156   68.2032 C   0  0  0  0  0  0  0  0  0  0  0  0
  -18.0144   20.7333   70.6493 C   0  0  0  0  0  0  0  0  0  0  0  0
  -17.2353   23.3144   64.6023 C   0  0  2  0  0  0  0  0  0  0  0  0
  -17.8148   22.3972   64.9676 O   0  0  0  0  0  0  0  0  0  0  0  0
  -13.3764   22.4673   67.3362 C   0  0  0  0  0  0  0  0  0  0  0  0
  -17.4797   20.5907   71.6716 O   0  0  0  0  0  0  0  0  0  0  0  0
  -16.1330   17.5388   75.2587 O   0  0  0  0  0  0  0  0  0  0  0  0
  -16.8173   21.0721   74.2827 C   0  0  0  0  0  0  0  0  0  0  0  0
  -12.2360   23.0517   66.3033 C   0  0  0  0  0  0  0  0  0  0  0  0
  -16.0334   20.2122   76.1034 O   0  0  0  0  0  0  0  0  0  0  0  0
  -18.3168   16.7203   74.0151 O   0  0  0  0  0  0  0  0  0  0  0  0
  -16.1071   23.7309   63.5673 C   0  0  0  0  0  0  0  0  0  0  0  0
  -16.2716   23.5148   68.2798 C   0  0  2  0  0  0  0  0  0  0  0  0
  -15.6261   21.7764   74.1177 O   0  0  0  0  0  0  0  0  0  0  0  0
  -16.8456   22.2214   69.3742 C   0  0  2  0  0  0  0  0  0  0  0  0
  -16.7954   19.4806   74.7584 C   0  0  1  0  0  0  0  0  0  0  0  0
  4  1  2  3
  6  1  1  0
  7  2  1  0
  8  3  2  0
  9  6  1  0
 10  1  1  0
 12 11  1  0
 13  3  1  0
  7 14  1  6
 14 10  1  0
 15  2  1  0
 17  8  1  0
 17 13  2  0
 19  2  1  0
 11 20  1  6
 21  3  1  0
 21  5  1  6
 21 11  1  0
 22 16  1  0
 23  5  1  0
 23  9  1  6
 23 21  1  0
 24  2  1  0
 24  7  1  0
 24 16  1  0
 24 18  1  6
M  END
>  <ID>  (1) 
conformer_0

$$$$
