
     RDKit          3D

 31 33  0  0  0  0  0  0  0  0999 V2000
  -17.9356   20.4184   68.8358 C   0  0  0  0  0  0  0  0  0  0  0  0
  -12.8524   24.4624   65.5664 C   0  0  0  0  0  0  0  0  0  0  0  0
  -17.5285   18.2706   73.4197 C   0  0  0  0  0  0  0  0  0  0  0  0
  -19.5293   20.0761   68.7896 C   0  0  0  0  0  0  0  0  0  0  0  0
  -17.3050   21.2307   73.6037 C   0  0  0  0  0  0  0  0  0  0  0  0
  -18.4168   21.2447   67.8460 C   0  0  0  0  0  0  0  0  0  0  0  0
  -17.4633   21.2552   69.9354 C   0  0  0  0  0  0  0  0  0  0  0  0
  -11.6578   23.6536   66.1145 C   0  0  0  0  0  0  0  0  0  0  0  0
  -16.9240   23.4290   63.3920 C   0  0  0  0  0  0  0  0  0  0  0  0
  -20.5861   19.9374   68.1842 C   0  0  0  0  0  0  0  0  0  0  0  0
  -17.5620   22.5596   65.4365 O   0  0  0  0  0  0  0  0  0  0  0  0
  -13.5751   22.2258   67.0182 C   0  0  0  0  0  0  0  0  0  0  0  0
  -15.9467   22.5895   74.0552 C   0  0  0  0  0  0  0  0  0  0  0  0
  -17.4988   19.8141   71.9991 C   0  0  0  0  0  0  0  0  0  0  0  0
  -17.6202   20.4626   71.1362 O   0  0  0  0  0  0  0  0  0  0  0  0
  -13.7898   24.5747   66.6423 C   0  0  0  0  0  0  0  0  0  0  0  0
  -14.8234   22.1840   74.0155 O   0  0  0  0  0  0  0  0  0  0  0  0
  -16.0239   20.1172   75.8633 O   0  0  0  0  0  0  0  0  0  0  0  0
  -18.6371   17.3298   73.7452 O   0  0  0  0  0  0  0  0  0  0  0  0
  -15.6879   21.1085   68.4368 C   0  0  0  0  0  0  0  0  0  0  0  0
  -17.2488   22.6008   68.6932 C   0  0  0  0  0  0  0  0  0  0  0  0
  -16.1192   17.8153   74.9849 O   0  0  0  0  0  0  0  0  0  0  0  0
  -16.7590   22.0893   67.6081 C   0  0  0  0  0  0  0  0  0  0  0  0
  -14.8292   20.5206   68.0098 O   0  0  0  0  0  0  0  0  0  0  0  0
  -17.4493   22.8935   64.9383 C   0  0  0  0  0  0  0  0  0  0  0  0
  -14.2461   23.2657   66.8164 C   0  0  0  0  0  0  0  0  0  0  0  0
  -12.1941   22.2998   66.5769 C   0  0  0  0  0  0  0  0  0  0  0  0
  -15.7492   23.5366   68.4891 C   0  0  0  0  0  0  0  0  0  0  0  0
  -17.0192   19.1064   74.2918 C   0  0  0  0  0  0  0  0  0  0  0  0
  -16.4576   20.7753   74.7281 C   0  0  0  0  0  0  0  0  0  0  0  0
  -17.4903   21.2879   72.6083 O   0  0  0  0  0  0  0  0  0  0  0  0
  4  1  1  0
  6  1  1  0
  6  4  1  0
  7  1  1  0
  8  2  2  0
 10  4  1  0
 13  5  1  0
 15  7  1  0
 15 14  1  0
 16  2  1  0
 17 13  1  0
 19  3  1  0
 21  7  1  0
 23  6  1  0
 23 20  1  0
 23 21  1  0
 24 20  1  0
 25  9  1  0
 25 11  2  0
 26 12  1  0
 26 16  2  0
 27  8  1  0
 27 12  2  0
 28 21  1  0
 28 25  1  0
 28 26  1  0
 29  3  1  0
 29 22  1  0
 30  5  1  0
 30 18  1  0
 30 29  1  0
 31  5  1  0
 31 14  1  0
M  END
>  <ID>  (1) 
conformer_0

$$$$
