
     RDKit          3D

 27 29  0  0  0  0  0  0  0  0999 V2000
  -17.5111   21.1992   67.7201 C   0  0  0  0  0  0  0  0  0  0  0  0
  -17.6562   18.1409   73.3542 C   0  0  0  0  0  0  0  0  0  0  0  0
  -14.0944   23.8781   66.3934 C   0  0  0  0  0  0  0  0  0  0  0  0
  -16.4221   20.4950   74.2983 C   0  0  0  0  0  0  0  0  0  0  0  0
  -18.7090   20.5247   68.3251 C   0  0  0  0  0  0  0  0  0  0  0  0
  -17.8061   20.1197   72.5649 C   0  0  0  0  0  0  0  0  0  0  0  0
  -16.6217   23.0083   68.4758 C   0  0  0  0  0  0  0  0  0  0  0  0
  -13.1122   24.2592   65.4963 C   0  0  0  0  0  0  0  0  0  0  0  0
  -16.9119   18.9110   73.9589 C   0  0  0  0  0  0  0  0  0  0  0  0
  -13.6332   22.3517   67.0334 C   0  0  0  0  0  0  0  0  0  0  0  0
  -17.4893   22.9411   64.1015 C   0  0  0  0  0  0  0  0  0  0  0  0
  -16.1542   21.8962   74.0593 C   0  0  0  0  0  0  0  0  0  0  0  0
  -17.8064   22.7696   65.4676 O   0  0  0  0  0  0  0  0  0  0  0  0
  -16.5603   23.6201   63.2947 C   0  0  0  0  0  0  0  0  0  0  0  0
  -16.2687   17.5372   75.1501 O   0  0  0  0  0  0  0  0  0  0  0  0
  -14.7142   21.8957   73.9546 O   0  0  0  0  0  0  0  0  0  0  0  0
  -16.8882   20.8802   72.3390 O   0  0  0  0  0  0  0  0  0  0  0  0
  -12.3034   23.0993   66.0245 C   0  0  0  0  0  0  0  0  0  0  0  0
  -16.1133   20.0657   75.8210 O   0  0  0  0  0  0  0  0  0  0  0  0
  -18.3976   16.9859   73.7347 O   0  0  0  0  0  0  0  0  0  0  0  0
  -14.3405   21.5880   68.0338 N   0  0  0  0  0  0  0  0  0  0  0  0
  -17.2824   21.9925   69.6152 C   0  0  0  0  0  0  0  0  0  0  0  0
  -17.4893   22.6972   66.9508 C   0  0  0  0  0  0  0  0  0  0  0  0
  -19.9444   19.9353   68.6450 C   0  0  0  0  0  0  0  0  0  0  0  0
  -15.8037   21.4112   68.4999 C   0  0  0  0  0  0  0  0  0  0  0  0
  -18.4125   20.9143   71.2421 O   0  0  0  0  0  0  0  0  0  0  0  0
  -18.5192   20.7618   70.4083 C   0  0  0  0  0  0  0  0  0  0  0  0
  5  1  1  0
  8  3  2  0
  9  2  1  0
  9  4  1  0
  9  6  1  0
 10  3  1  0
 12  4  1  0
 13 11  1  0
 14 11  1  0
 15  9  1  0
 16 12  1  0
 17  6  2  0
 18  8  1  0
 18 10  1  0
 19  4  1  0
 20  2  1  0
 21 10  1  0
 22  7  1  0
 23  1  1  0
 23  7  1  0
 23 13  1  0
 24  5  1  0
 25  1  1  0
 25  7  1  0
 25 21  1  0
 25 22  1  0
 26  6  1  0
 27 22  1  0
 27 26  1  0
M  END
>  <ID>  (1) 
conformer_0

$$$$
