
     RDKit          3D

 30 36  0  0  0  0  0  0  0  0999 V2000
  -17.6406   21.6474   67.9520 C   0  0  2  0  0  0  0  0  0  0  0  0
  -17.7610   20.1663   71.7735 C   0  0  2  0  0  0  0  0  0  0  0  0
  -12.2020   23.9312   65.8760 C   0  0  0  0  0  0  0  0  0  0  0  0
  -15.6167   23.6791   68.2360 C   0  0  0  0  0  0  0  0  0  0  0  0
  -16.7920   23.0221   68.0989 C   0  0  2  0  0  0  0  0  0  0  0  0
  -17.3695   20.0849   73.7368 C   0  0  1  0  0  0  0  0  0  0  0  0
  -12.4080   22.5367   66.4280 C   0  0  0  0  0  0  0  0  0  0  0  0
  -16.7330   21.8133   69.4843 C   0  0  2  0  0  0  0  0  0  0  0  0
  -18.5004   20.4185   70.0106 C   0  0  1  0  0  0  0  0  0  0  0  0
  -17.7015   22.4975   64.5642 O   0  0  0  0  0  0  0  0  0  0  0  0
  -13.6370   22.4844   67.1744 C   0  0  0  0  0  0  0  0  0  0  0  0
  -17.1779   23.3105   64.0689 C   0  0  0  0  0  0  0  0  0  0  0  0
  -16.6454   23.9082   63.0024 C   0  0  0  0  0  0  0  0  0  0  0  0
  -18.3492   20.7227   68.3851 C   0  0  1  0  0  0  0  0  0  0  0  0
  -14.8156   20.8650   68.0662 O   0  0  0  0  0  0  0  0  0  0  0  0
  -16.3531   21.9982   73.7679 C   0  0  0  0  0  0  0  0  0  0  0  0
  -17.1396   20.7876   72.6341 O   0  0  0  0  0  0  0  0  0  0  0  0
  -15.9738   20.0155   76.2306 O   0  0  0  0  0  0  0  0  0  0  0  0
  -14.9851   21.8474   73.9100 O   0  0  0  0  0  0  0  0  0  0  0  0
  -13.4503   24.7728   66.5018 C   0  0  0  0  0  0  0  0  0  0  0  0
  -18.0781   17.6918   72.8006 O   0  0  0  0  0  0  0  0  0  0  0  0
  -16.2087   17.7013   75.2658 O   0  0  0  0  0  0  0  0  0  0  0  0
  -16.4142   20.7821   74.9057 C   0  0  1  0  0  0  0  0  0  0  0  0
  -19.6418   19.9698   68.6751 C   0  0  2  0  0  0  0  0  0  0  0  0
  -15.6332   21.4689   68.0577 C   0  0  0  0  0  0  0  0  0  0  0  0
  -14.2402   23.9107   67.0602 C   0  0  0  0  0  0  0  0  0  0  0  0
  -17.1454   21.1516   70.7575 O   0  0  0  0  0  0  0  0  0  0  0  0
  -20.8789   20.1046   68.0134 C   0  0  0  0  0  0  0  0  0  0  0  0
  -17.4128   18.2800   73.5744 C   0  0  2  0  0  0  0  0  0  0  0  0
  -16.6709   18.8569   74.8838 C   0  0  1  0  0  0  0  0  0  0  0  0
  5  1  1  0
  5  4  1  6
  7  3  2  0
  8  1  1  0
  8  5  1  0
  9  2  1  6
  1 10  1  6
 11  7  1  0
 12 10  1  0
 13 12  2  3
 14  1  1  0
 14  9  1  0
  2 17  1  1
  6 17  1  1
 19 16  1  0
 20  3  1  0
 23  6  1  0
 23 16  1  0
 23 18  1  6
 24  9  1  0
 14 24  1  1
 25  5  1  0
 25  8  1  0
 25 15  2  0
 26  4  1  0
 26 11  2  0
 26 20  1  0
 27  2  1  0
  8 27  1  1
 24 28  1  1
 29  6  1  0
 29 21  1  1
 30  6  1  0
 30 22  1  6
 30 23  1  0
 30 29  1  0
M  END
>  <ID>  (1) 
conformer_0

$$$$
