
     RDKit          3D

 28 29  0  0  0  0  0  0  0  0999 V2000
  -17.5789   19.6380   72.7236 C   0  0  2  0  0  0  0  0  0  0  0  0
  -13.7013   24.4373   66.0980 C   0  0  0  0  0  0  0  0  0  0  0  0
  -19.5125   20.0856   68.7813 C   0  0  0  0  0  0  0  0  0  0  0  0
  -20.4879   20.0028   68.4615 C   0  0  0  0  0  0  0  0  0  0  0  0
  -15.2960   21.0348   68.3325 C   0  0  0  0  0  0  0  0  0  0  0  0
  -17.6230   18.1448   73.4776 C   0  0  1  0  0  0  0  0  0  0  0  0
  -12.1601   23.8195   65.7799 C   0  0  0  0  0  0  0  0  0  0  0  0
  -18.1406   20.6251   68.1470 C   0  0  0  0  0  0  0  0  0  0  0  0
  -16.6071   21.2877   69.9114 C   0  0  0  0  0  0  0  0  0  0  0  0
  -16.8324   19.1427   74.5026 C   0  0  0  0  0  0  0  0  0  0  0  0
  -17.5061   23.3143   64.5279 C   0  0  0  0  0  0  0  0  0  0  0  0
  -17.9819   23.0546   65.3625 O   0  0  0  0  0  0  0  0  0  0  0  0
  -16.4842   23.2978   63.5943 C   0  0  0  0  0  0  0  0  0  0  0  0
  -17.1258   21.4128   67.9268 C   0  0  2  0  0  0  0  0  0  0  0  0
  -14.1050   23.7561   67.0613 C   0  0  2  0  0  0  0  0  0  0  0  0
  -17.8670   20.3311   71.3594 O   0  0  0  0  0  0  0  0  0  0  0  0
  -15.9784   19.9352   75.8535 O   0  0  0  0  0  0  0  0  0  0  0  0
  -18.6285   17.2227   73.7471 O   0  0  0  0  0  0  0  0  0  0  0  0
  -13.4022   22.5642   67.4355 C   0  0  0  0  0  0  0  0  0  0  0  0
  -16.7295   20.8186   74.3680 C   0  0  1  0  0  0  0  0  0  0  0  0
  -15.0843   22.3835   73.9116 O   0  0  0  0  0  0  0  0  0  0  0  0
  -16.1636   17.6499   75.1007 O   0  0  0  0  0  0  0  0  0  0  0  0
  -15.9979   23.5166   67.9377 C   0  0  0  0  0  0  0  0  0  0  0  0
  -18.2162   20.5084   70.4932 C   0  0  0  0  0  0  0  0  0  0  0  0
  -12.0837   22.7370   66.6426 C   0  0  0  0  0  0  0  0  0  0  0  0
  -16.7036   22.5345   68.1074 C   0  0  0  0  0  0  0  0  0  0  0  0
  -15.8164   22.4108   74.1024 C   0  0  0  0  0  0  0  0  0  0  0  0
  -16.7837   21.1128   72.6142 O   0  0  0  0  0  0  0  0  0  0  0  0
  4  3  2  3
  6  1  1  0
  7  2  2  0
  8  3  1  0
 10  6  1  0
 12 11  1  0
 13  2  1  0
 13 11  1  0
 14  5  1  6
 14  8  1  0
 14  9  1  0
 15  2  1  0
  1 16  1  6
 17 10  1  0
  6 18  1  1
 19 15  1  0
 20 10  1  0
 22 10  1  0
 15 23  1  6
 24  9  1  0
 24 16  1  0
 25  7  1  0
 25 19  2  0
 26 14  1  0
 26 23  1  0
 20 27  1  6
 27 21  1  0
 28  1  1  0
 28 20  1  0
M  END
>  <ID>  (1) 
conformer_0

$$$$
