
     RDKit          3D

 27 27  0  0  0  0  0  0  0  0999 V2000
  -18.0009   20.5102   68.3613 C   0  0  0  0  0  0  0  0  0  0  0  0
  -17.5941   18.1399   73.5777 C   0  0  2  0  0  0  0  0  0  0  0  0
  -12.6036   22.2830   66.7718 C   0  0  0  0  0  0  0  0  0  0  0  0
  -17.7200   19.8563   72.6456 C   0  0  0  0  0  0  0  0  0  0  0  0
  -16.4729   21.9680   69.4009 C   0  0  2  0  0  0  0  0  0  0  0  0
  -11.7602   23.3119   66.3384 C   0  0  0  0  0  0  0  0  0  0  0  0
  -19.2165   20.1729   68.5857 C   0  0  0  0  0  0  0  0  0  0  0  0
  -17.5953   22.1653   68.4659 C   0  0  1  0  0  0  0  0  0  0  0  0
  -17.3077   23.4460   64.3345 C   0  0  0  0  0  0  0  0  0  0  0  0
  -17.7271   21.1754   70.4768 C   0  0  0  0  0  0  0  0  0  0  0  0
  -16.4597   20.5785   74.3211 C   0  0  2  0  0  0  0  0  0  0  0  0
  -13.6400   24.6724   66.7158 C   0  0  0  0  0  0  0  0  0  0  0  0
  -17.7044   22.3153   65.3682 O   0  0  0  0  0  0  0  0  0  0  0  0
  -16.4667   23.4708   63.1645 C   0  0  0  0  0  0  0  0  0  0  0  0
  -14.7811   22.3158   73.8298 O   0  0  0  0  0  0  0  0  0  0  0  0
  -17.3402   20.9595   71.8057 O   0  0  0  0  0  0  0  0  0  0  0  0
  -16.1096   20.2362   76.0688 O   0  0  0  0  0  0  0  0  0  0  0  0
  -18.5478   16.8974   73.6596 O   0  0  0  0  0  0  0  0  0  0  0  0
  -16.7562   19.0147   74.3615 C   0  0  2  0  0  0  0  0  0  0  0  0
  -20.4511   20.0099   67.9603 C   0  0  0  0  0  0  0  0  0  0  0  0
  -17.2023   22.6755   66.9736 C   0  0  0  0  0  0  0  0  0  0  0  0
  -16.0602   17.8810   75.2568 O   0  0  0  0  0  0  0  0  0  0  0  0
  -14.0179   23.5083   67.1394 C   0  0  0  0  0  0  0  0  0  0  0  0
  -15.8191   23.5568   68.4649 C   0  0  0  0  0  0  0  0  0  0  0  0
  -16.1084   21.9707   74.0088 C   0  0  0  0  0  0  0  0  0  0  0  0
  -15.4829   21.4265   68.2574 C   0  0  0  0  0  0  0  0  0  0  0  0
  -12.5969   24.3517   65.6548 C   0  0  0  0  0  0  0  0  0  0  0  0
  4  2  1  0
  6  3  2  0
  7  1  1  0
  8  1  1  6
  8  5  1  0
 10  5  1  0
 13  9  1  0
 14  9  1  0
 16  4  1  0
 16 10  1  0
 11 17  1  1
  2 18  1  1
 19  2  1  0
 19 11  1  0
 20  7  1  0
 21  8  1  0
 21 13  1  0
 19 22  1  6
 23  3  1  0
 23 12  1  0
 24  5  1  0
 24 23  2  3
 25 11  1  0
 25 15  1  0
  5 26  1  6
 27  6  1  0
 27 12  2  0
M  END
>  <ID>  (1) 
conformer_0

$$$$
