
     RDKit          3D

 26 27  0  0  0  0  0  0  0  0999 V2000
  -20.4975   20.2554   68.0454 C   0  0  0  0  0  0  0  0  0  0  0  0
  -19.5071   20.1363   68.7243 C   0  0  0  0  0  0  0  0  0  0  0  0
  -17.1819   18.2866   73.8206 C   0  0  0  0  0  0  0  0  0  0  0  0
  -14.0673   23.6850   66.8211 C   0  0  0  0  0  0  0  0  0  0  0  0
  -17.4184   19.6814   72.8308 C   0  0  1  0  0  0  0  0  0  0  0  0
  -16.6357   19.9426   74.4481 C   0  0  0  0  0  0  0  0  0  0  0  0
  -18.3985   20.6799   68.4390 C   0  0  0  0  0  0  0  0  0  0  0  0
  -13.3817   24.4574   66.0075 C   0  0  0  0  0  0  0  0  0  0  0  0
  -16.8602   21.9187   69.3634 C   0  0  2  0  0  0  0  0  0  0  0  0
  -13.6786   22.3020   67.1038 C   0  0  2  0  0  0  0  0  0  0  0  0
  -17.3302   23.2855   63.9872 C   0  0  0  0  0  0  0  0  0  0  0  0
  -15.9752   23.7247   63.3542 C   0  0  0  0  0  0  0  0  0  0  0  0
  -17.8444   23.0743   64.9736 O   0  0  0  0  0  0  0  0  0  0  0  0
  -17.6266   22.2614   68.1589 C   0  0  1  0  0  0  0  0  0  0  0  0
  -16.5455   21.4986   74.1163 C   0  0  0  0  0  0  0  0  0  0  0  0
  -15.2060   22.0789   73.8791 O   0  0  0  0  0  0  0  0  0  0  0  0
  -16.0534   20.0095   75.8720 O   0  0  0  0  0  0  0  0  0  0  0  0
  -11.9827   23.7499   65.9063 C   0  0  0  0  0  0  0  0  0  0  0  0
  -17.0256   20.6746   71.4492 O   0  0  0  0  0  0  0  0  0  0  0  0
  -18.0413   17.1096   73.1707 O   0  0  0  0  0  0  0  0  0  0  0  0
  -16.2799   23.4531   68.1704 C   0  0  0  0  0  0  0  0  0  0  0  0
  -15.6175   21.4012   68.2876 C   0  0  0  0  0  0  0  0  0  0  0  0
  -16.2730   17.7123   75.2807 O   0  0  0  0  0  0  0  0  0  0  0  0
  -14.0539   21.3579   67.6580 N   0  0  0  0  0  0  0  0  0  0  0  0
  -17.8372   20.7427   70.5333 C   0  0  0  0  0  0  0  0  0  0  0  0
  -12.1803   22.4683   66.6010 C   0  0  0  0  0  0  0  0  0  0  0  0
  2  1  2  3
  5  3  1  0
  6  3  1  0
  6  5  1  0
  7  2  1  0
  8  4  2  0
 10  4  1  0
 12  8  1  0
 12 11  1  0
 13 11  2  0
 14  7  1  0
 14  9  1  0
 15  6  1  0
 16 15  1  0
 17  6  1  0
 18  8  1  0
  5 19  1  6
 20  3  1  0
 14 21  1  6
  9 22  1  6
 23  3  1  0
 10 24  1  1
 24 22  1  0
 25  9  1  0
 25 19  1  0
 26 10  1  0
 26 18  2  0
M  END
>  <ID>  (1) 
conformer_0

$$$$
