
     RDKit          3D

 28 28  0  0  0  0  0  0  0  0999 V2000
  -19.9233   20.3249   68.0005 C   0  0  0  0  0  0  0  0  0  0  0  0
  -17.5622   17.9560   73.4190 C   0  0  0  0  0  0  0  0  0  0  0  0
  -14.0314   24.0928   66.7832 C   0  0  0  0  0  0  0  0  0  0  0  0
  -19.2792   20.1762   68.9231 C   0  0  0  0  0  0  0  0  0  0  0  0
  -16.8245   19.0265   74.4384 C   0  0  0  0  0  0  0  0  0  0  0  0
  -18.0293   20.6333   70.4120 C   0  0  0  0  0  0  0  0  0  0  0  0
  -13.0161   24.4540   65.9581 C   0  0  0  0  0  0  0  0  0  0  0  0
  -18.0554   20.8967   68.0178 C   0  0  0  0  0  0  0  0  0  0  0  0
  -17.1197   23.4722   63.3010 C   0  0  0  0  0  0  0  0  0  0  0  0
  -13.4463   22.4843   67.0945 C   0  0  0  0  0  0  0  0  0  0  0  0
  -16.6108   20.7044   74.3815 C   0  0  0  0  0  0  0  0  0  0  0  0
  -16.5567   21.6723   69.8474 C   0  0  0  0  0  0  0  0  0  0  0  0
  -17.4373   23.4591   64.4371 C   0  0  0  0  0  0  0  0  0  0  0  0
  -19.0606   22.8377   65.0345 O   0  0  0  0  0  0  0  0  0  0  0  0
  -14.6497   21.3883   68.3877 O   0  0  0  0  0  0  0  0  0  0  0  0
  -14.8537   22.4066   73.9317 O   0  0  0  0  0  0  0  0  0  0  0  0
  -17.2552   20.7939   71.8191 O   0  0  0  0  0  0  0  0  0  0  0  0
  -15.7426   19.8103   75.6556 O   0  0  0  0  0  0  0  0  0  0  0  0
  -18.6581   16.9752   73.6716 O   0  0  0  0  0  0  0  0  0  0  0  0
  -15.9754   23.1891   68.5893 C   0  0  0  0  0  0  0  0  0  0  0  0
  -17.3644   19.5989   72.5921 C   0  0  0  0  0  0  0  0  0  0  0  0
  -12.1293   23.2448   66.2309 C   0  0  0  0  0  0  0  0  0  0  0  0
  -16.1746   17.5162   75.1870 O   0  0  0  0  0  0  0  0  0  0  0  0
  -15.5773   21.4955   68.2889 C   0  0  0  0  0  0  0  0  0  0  0  0
  -15.9462   22.3313   74.0624 C   0  0  0  0  0  0  0  0  0  0  0  0
  -17.6117   22.4942   66.8586 C   0  0  0  0  0  0  0  0  0  0  0  0
  -17.4045   22.3847   68.1455 C   0  0  0  0  0  0  0  0  0  0  0  0
  -17.2889   23.1425   65.6402 O   0  0  0  0  0  0  0  0  0  0  0  0
  4  1  1  0
  5  2  1  0
  7  3  2  0
  8  4  1  0
 10  3  1  0
 11  5  1  0
 12  6  1  0
 13  9  1  0
 14 13  2  0
 15 10  1  0
 17  6  1  0
 18 11  1  0
 19  2  1  0
 21  2  1  0
 21 17  1  0
 22  7  1  0
 22 10  1  0
 23  5  1  0
 24 12  1  0
 24 15  1  0
 24 20  1  0
 25 11  1  0
 25 16  1  0
 27  8  1  0
 27 20  1  0
 27 26  1  0
 28 13  1  0
 28 26  1  0
M  END
>  <ID>  (1) 
conformer_0

$$$$
