
     RDKit          3D

 31 34  0  0  0  0  0  0  0  0999 V2000
  -19.3148   20.0087   68.6926 C   0  0  0  0  0  0  0  0  0  0  0  0
  -16.4751   20.2805   74.6000 C   0  0  0  0  0  0  0  0  0  0  0  0
  -14.0384   23.5900   66.9838 C   0  0  0  0  0  0  0  0  0  0  0  0
  -17.6881   21.0892   67.3741 C   0  0  0  0  0  0  0  0  0  0  0  0
  -15.6513   21.3885   68.4301 C   0  0  0  0  0  0  0  0  0  0  0  0
  -16.3938   21.6533   74.1827 C   0  0  2  0  0  0  0  0  0  0  0  0
  -13.5711   24.6593   66.3986 C   0  0  0  0  0  0  0  0  0  0  0  0
  -20.4710   20.1951   68.0708 C   0  0  0  0  0  0  0  0  0  0  0  0
  -16.6248   23.5940   63.7406 C   0  0  0  0  0  0  0  0  0  0  0  0
  -13.4011   22.2475   66.9572 C   0  0  2  0  0  0  0  0  0  0  0  0
  -17.7556   18.2310   73.5190 C   0  0  2  0  0  0  0  0  0  0  0  0
  -16.7895   21.8795   69.9025 C   0  0  1  0  0  0  0  0  0  0  0  0
  -17.9222   22.7304   65.2221 O   0  0  0  0  0  0  0  0  0  0  0  0
  -17.0162   20.9418   72.7989 O   0  0  0  0  0  0  0  0  0  0  0  0
  -15.9222   20.0057   76.0686 O   0  0  0  0  0  0  0  0  0  0  0  0
  -15.0557   21.9656   74.1959 O   0  0  0  0  0  0  0  0  0  0  0  0
  -17.4892   23.2168   64.7380 C   0  0  0  0  0  0  0  0  0  0  0  0
  -11.9943   22.6668   66.1491 C   0  0  0  0  0  0  0  0  0  0  0  0
  -18.7249   17.4319   73.3203 O   0  0  0  0  0  0  0  0  0  0  0  0
  -17.2554   23.2733   68.0521 C   0  0  2  0  0  0  0  0  0  0  0  0
  -16.1219   17.7070   75.2071 O   0  0  0  0  0  0  0  0  0  0  0  0
  -16.8187   18.6427   74.4404 C   0  0  0  0  0  0  0  0  0  0  0  0
  -13.3931   20.9417   67.1735 O   0  0  0  0  0  0  0  0  0  0  0  0
  -17.8170   20.8053   71.1237 O   0  0  0  0  0  0  0  0  0  0  0  0
  -17.5978   19.8870   72.6724 C   0  0  1  0  0  0  0  0  0  0  0  0
  -16.0261   23.4083   68.5615 C   0  0  0  0  0  0  0  0  0  0  0  0
  -17.1198   22.5762   67.4711 C   0  0  0  0  0  0  0  0  0  0  0  0
  -15.6894   20.6624   69.7947 O   0  0  0  0  0  0  0  0  0  0  0  0
  -12.2350   24.1616   65.7522 C   0  0  0  0  0  0  0  0  0  0  0  0
  -18.1645   20.6387   70.2301 C   0  0  1  0  0  0  0  0  0  0  0  0
  -17.9773   21.3134   68.6899 C   0  0  1  0  0  0  0  0  0  0  0  0
  6  2  1  0
  7  3  2  0
  8  1  2  3
 10  3  1  0
 12  5  1  6
 14  6  1  0
 15  2  1  0
  6 16  1  6
 17  9  1  0
 17 13  2  0
 18 10  1  0
 11 19  1  1
 20 17  1  0
 22  2  1  0
 22 11  1  0
 22 21  1  0
 10 23  1  6
 25 11  1  0
 25 14  1  0
 25 24  1  6
 26  3  1  0
 20 26  1  6
 27  4  1  0
 27 20  1  0
 28  5  1  0
 28 12  1  0
 29  7  1  0
 29 18  2  0
 30 12  1  0
 30 24  1  1
 31  1  1  0
 31  4  1  1
 31 12  1  0
 31 30  1  0
M  END
>  <ID>  (1) 
conformer_0

$$$$
