
     RDKit          3D

 30 31  0  0  0  0  0  0  0  0999 V2000
  -20.4544   20.1502   68.5510 C   0  0  0  0  0  0  0  0  0  0  0  0
  -17.4268   18.1656   73.3805 C   0  0  0  0  0  0  0  0  0  0  0  0
  -12.2573   22.5812   66.6093 C   0  0  0  0  0  0  0  0  0  0  0  0
  -19.1896   20.2230   69.1037 C   0  0  0  0  0  0  0  0  0  0  0  0
  -16.2914   22.2053   74.2373 C   0  0  0  0  0  0  0  0  0  0  0  0
  -18.1130   20.7427   68.1319 C   0  0  0  0  0  0  0  0  0  0  0  0
  -13.7601   24.4642   66.1548 C   0  0  0  0  0  0  0  0  0  0  0  0
  -15.4948   21.0991   68.2528 C   0  0  0  0  0  0  0  0  0  0  0  0
  -16.9924   20.9732   74.5941 C   0  0  0  0  0  0  0  0  0  0  0  0
  -17.8445   20.5333   70.7323 C   0  0  0  0  0  0  0  0  0  0  0  0
  -16.3589   23.5473   63.4373 C   0  0  0  0  0  0  0  0  0  0  0  0
  -18.1671   22.6750   65.3720 O   0  0  0  0  0  0  0  0  0  0  0  0
  -17.5525   22.8093   64.7088 C   0  0  0  0  0  0  0  0  0  0  0  0
  -17.4711   21.9152   68.0833 C   0  0  0  0  0  0  0  0  0  0  0  0
  -13.8088   22.1969   66.9775 C   0  0  0  0  0  0  0  0  0  0  0  0
  -14.9884   22.5099   74.0037 O   0  0  0  0  0  0  0  0  0  0  0  0
  -14.3767   23.4586   66.7306 C   0  0  0  0  0  0  0  0  0  0  0  0
  -16.4297   17.3286   74.8231 O   0  0  0  0  0  0  0  0  0  0  0  0
  -16.7747   20.2816   72.0383 O   0  0  0  0  0  0  0  0  0  0  0  0
  -18.3129   16.9292   73.2797 O   0  0  0  0  0  0  0  0  0  0  0  0
  -16.4489   21.5363   76.1503 O   0  0  0  0  0  0  0  0  0  0  0  0
  -16.8017   19.3394   74.1983 C   0  0  0  0  0  0  0  0  0  0  0  0
  -15.3245   20.8056   69.1084 O   0  0  0  0  0  0  0  0  0  0  0  0
  -16.2251   23.2837   68.2355 C   0  0  0  0  0  0  0  0  0  0  0  0
  -12.2310   23.9794   66.1960 C   0  0  0  0  0  0  0  0  0  0  0  0
  -17.8085   19.8734   72.7471 C   0  0  0  0  0  0  0  0  0  0  0  0
  -18.0427   21.5118   71.2708 O   0  0  0  0  0  0  0  0  0  0  0  0
  -17.1631   21.7899   69.6829 C   0  0  0  0  0  0  0  0  0  0  0  0
  -17.1306   22.2261   67.1375 C   0  0  0  0  0  0  0  0  0  0  0  0
  -15.9499   19.2692   75.6639 O   0  0  0  0  0  0  0  0  0  0  0  0
  4  1  1  0
  6  4  1  0
  9  5  1  0
 11  7  1  0
 13 11  1  0
 13 12  1  0
 14  6  1  0
 15  3  2  0
 16  5  1  0
 17  7  2  0
 17 15  1  0
 18  2  1  0
 19 10  1  0
 20  2  1  0
 21  9  1  0
 22  2  1  0
 22  9  1  0
 23  8  1  0
 24  8  1  0
 25  3  1  0
 25  7  1  0
 26  2  1  0
 26 19  1  0
 26 22  1  0
 27 10  1  0
 28 10  1  0
 28 14  1  0
 29 12  1  0
 29 14  1  0
 29 24  1  0
 30 22  1  0
M  END
>  <ID>  (1) 
conformer_0

$$$$
