
     RDKit          3D

 29 30  0  0  0  0  0  0  0  0999 V2000
  -17.4180   18.7824   73.0426 C   0  0  0  0  0  0  0  0  0  0  0  0
  -14.4927   23.9175   66.2783 C   0  0  0  0  0  0  0  0  0  0  0  0
  -18.9678   20.4156   68.7646 C   0  0  0  0  0  0  0  0  0  0  0  0
  -17.8873   20.7560   67.9125 C   0  0  0  0  0  0  0  0  0  0  0  0
  -16.4399   19.8704   74.5917 C   0  0  0  0  0  0  0  0  0  0  0  0
  -17.1541   20.6204   73.5598 C   0  0  0  0  0  0  0  0  0  0  0  0
  -12.3876   24.0914   65.9846 C   0  0  0  0  0  0  0  0  0  0  0  0
  -17.6918   20.8837   70.9089 C   0  0  0  0  0  0  0  0  0  0  0  0
  -15.9307   23.9935   63.2487 C   0  0  0  0  0  0  0  0  0  0  0  0
  -17.7630   22.5030   64.2447 O   0  0  0  0  0  0  0  0  0  0  0  0
  -20.0267   20.0056   68.4583 C   0  0  0  0  0  0  0  0  0  0  0  0
  -14.3956   22.6076   66.6375 C   0  0  0  0  0  0  0  0  0  0  0  0
  -16.7823   23.4917   64.3020 C   0  0  0  0  0  0  0  0  0  0  0  0
  -15.9003   22.0112   73.9497 C   0  0  0  0  0  0  0  0  0  0  0  0
  -12.7396   22.8420   66.5906 C   0  0  0  0  0  0  0  0  0  0  0  0
  -18.6519   17.1191   73.7385 O   0  0  0  0  0  0  0  0  0  0  0  0
  -15.9776   19.9936   75.8607 O   0  0  0  0  0  0  0  0  0  0  0  0
  -14.8253   22.1727   73.8948 O   0  0  0  0  0  0  0  0  0  0  0  0
  -17.4514   20.9305   72.1504 O   0  0  0  0  0  0  0  0  0  0  0  0
  -16.0889   17.7231   74.9357 O   0  0  0  0  0  0  0  0  0  0  0  0
  -17.3896   22.2701   68.6335 C   0  0  2  0  0  0  0  0  0  0  0  0
  -17.6351   18.1019   73.9607 C   0  0  0  0  0  0  0  0  0  0  0  0
  -17.5576   22.1067   69.6517 C   0  0  0  0  0  0  0  0  0  0  0  0
  -13.8679   24.6959   65.6615 C   0  0  0  0  0  0  0  0  0  0  0  0
  -17.5551   21.8678   70.7939 N   0  0  0  0  0  0  0  0  0  0  0  0
  -16.6385   22.0945   67.0004 C   0  0  1  0  0  0  0  0  0  0  0  0
  -16.9578   22.6292   65.7788 O   0  0  0  0  0  0  0  0  0  0  0  0
  -16.3958   23.3302   68.3896 C   0  0  0  0  0  0  0  0  0  0  0  0
  -15.9046   21.0411   68.5509 C   0  0  0  0  0  0  0  0  0  0  0  0
  4  3  1  0
  6  1  1  0
  6  5  1  0
 11  3  2  3
 12  2  2  0
 13  9  1  0
 13 10  2  0
 14  6  1  0
 15  7  2  0
 15 12  1  0
 17  5  1  0
 18 14  1  0
 19  6  1  0
 19  8  1  0
 21  4  1  6
 22  1  1  0
 22 16  1  0
 22 20  1  0
 23 21  1  0
 24  2  1  0
 24  7  1  0
 24  9  1  0
 25  8  1  0
 25 23  1  0
 26 21  1  0
 27 13  1  0
 27 26  1  0
 28 21  1  0
 28 26  1  0
 26 29  1  6
M  END
>  <ID>  (1) 
conformer_0

$$$$
