
     RDKit          3D

 25 25  0  0  0  0  0  0  0  0999 V2000
  -20.0734   20.0939   68.6922 C   0  0  0  0  0  0  0  0  0  0  0  0
  -17.5204   17.8515   73.7281 C   0  0  0  0  0  0  0  0  0  0  0  0
  -13.3954   24.5544   66.0846 C   0  0  0  0  0  0  0  0  0  0  0  0
  -18.7166   20.5667   68.4354 C   0  0  0  0  0  0  0  0  0  0  0  0
  -17.2142   21.5776   69.5850 C   0  0  0  0  0  0  0  0  0  0  0  0
  -16.7738   19.7655   74.3115 C   0  0  0  0  0  0  0  0  0  0  0  0
  -14.3842   23.8034   66.6401 C   0  0  0  0  0  0  0  0  0  0  0  0
  -17.5540   21.8113   68.2359 C   0  0  0  0  0  0  0  0  0  0  0  0
  -18.4349   20.7562   71.0261 C   0  0  0  0  0  0  0  0  0  0  0  0
  -13.5214   22.3624   66.9481 C   0  0  0  0  0  0  0  0  0  0  0  0
  -16.5241   21.7003   74.0089 C   0  0  0  0  0  0  0  0  0  0  0  0
  -17.0085   23.1241   62.9116 C   0  0  0  0  0  0  0  0  0  0  0  0
  -17.9987   22.9061   65.2423 O   0  0  0  0  0  0  0  0  0  0  0  0
  -17.2600   20.8190   72.5905 O   0  0  0  0  0  0  0  0  0  0  0  0
  -17.5437   23.0274   64.3156 C   0  0  0  0  0  0  0  0  0  0  0  0
  -15.7717   19.5992   75.5500 O   0  0  0  0  0  0  0  0  0  0  0  0
  -18.8530   16.9967   73.7419 O   0  0  0  0  0  0  0  0  0  0  0  0
  -16.5871   23.2050   68.2512 C   0  0  0  0  0  0  0  0  0  0  0  0
  -12.3194   23.3935   66.0996 C   0  0  0  0  0  0  0  0  0  0  0  0
  -17.7501   19.3367   73.2532 C   0  0  0  0  0  0  0  0  0  0  0  0
  -18.6838   21.5052   71.0834 O   0  0  0  0  0  0  0  0  0  0  0  0
  -12.6612   21.3043   67.1524 F   0  0  0  0  0  0  0  0  0  0  0  0
  -16.2861   17.4468   75.0518 O   0  0  0  0  0  0  0  0  0  0  0  0
  -15.0081   22.3497   73.4736 N   0  0  0  0  0  0  0  0  0  0  0  0
  -15.7645   21.4090   68.4550 C   0  0  0  0  0  0  0  0  0  0  0  0
  4  1  1  0
  7  3  1  0
  8  4  1  0
  8  5  1  0
  9  5  1  0
 10  7  1  0
 14 11  1  0
 15  7  1  0
 15 12  1  0
 15 13  2  0
 16  6  1  0
 17  2  1  0
 18  8  1  0
 19  3  2  0
 19 10  1  0
 20  2  1  0
 20  6  1  0
 20  9  1  0
 20 14  1  0
 21  9  1  0
 22 10  1  0
 23  2  1  0
 24 11  1  0
 25  5  1  0
 25 10  1  0
M  END
>  <ID>  (1) 
conformer_0

$$$$
