
     RDKit          3D

 28 29  0  0  0  0  0  0  0  0999 V2000
  -14.1954   23.9404   66.8688 C   0  0  0  0  0  0  0  0  0  0  0  0
  -19.2526   20.1420   68.6888 C   0  0  0  0  0  0  0  0  0  0  0  0
  -16.5463   20.8089   74.7548 C   0  0  1  0  0  0  0  0  0  0  0  0
  -18.0910   20.9715   68.3360 C   0  0  2  0  0  0  0  0  0  0  0  0
  -15.5790   21.3553   67.9951 C   0  0  0  0  0  0  0  0  0  0  0  0
  -13.5377   24.8684   66.3467 C   0  0  0  0  0  0  0  0  0  0  0  0
  -16.4012   21.8193   74.0244 C   0  0  0  0  0  0  0  0  0  0  0  0
  -20.4055   20.0140   68.1601 C   0  0  0  0  0  0  0  0  0  0  0  0
  -16.6876   23.5707   63.8642 C   0  0  0  0  0  0  0  0  0  0  0  0
  -16.6592   19.1103   74.6806 C   0  0  0  0  0  0  0  0  0  0  0  0
  -13.6379   22.4328   66.9570 C   0  0  0  0  0  0  0  0  0  0  0  0
  -12.2060   22.8673   66.2856 C   0  0  0  0  0  0  0  0  0  0  0  0
  -17.7720   23.4623   64.8783 C   0  0  0  0  0  0  0  0  0  0  0  0
  -18.5358   22.9594   65.0050 O   0  0  0  0  0  0  0  0  0  0  0  0
  -17.4475   22.6927   68.1259 C   0  0  1  0  0  0  0  0  0  0  0  0
  -16.7149   21.8344   68.9155 C   0  0  1  0  0  0  0  0  0  0  0  0
  -15.0238   22.4286   74.1069 O   0  0  0  0  0  0  0  0  0  0  0  0
  -17.2518   21.0121   71.3586 O   0  0  0  0  0  0  0  0  0  0  0  0
  -16.3020   17.2170   74.7794 O   0  0  0  0  0  0  0  0  0  0  0  0
  -16.4966   21.5294   76.2318 O   0  0  0  0  0  0  0  0  0  0  0  0
  -16.2350   23.6688   67.9636 C   0  0  1  0  0  0  0  0  0  0  0  0
  -15.7554   19.2917   75.8475 O   0  0  0  0  0  0  0  0  0  0  0  0
  -15.3679   20.8744   68.8698 O   0  0  0  0  0  0  0  0  0  0  0  0
  -16.8387   18.9807   73.1284 C   0  0  1  0  0  0  0  0  0  0  0  0
  -12.2143   24.2424   65.8835 C   0  0  0  0  0  0  0  0  0  0  0  0
  -17.7480   17.6779   72.9524 O   0  0  0  0  0  0  0  0  0  0  0  0
  -17.5677   20.0033   72.5856 C   0  0  0  0  0  0  0  0  0  0  0  0
  -17.6928   20.6295   70.4378 C   0  0  0  0  0  0  0  0  0  0  0  0
  4  2  1  0
  6  1  2  0
  7  3  1  0
  8  2  2  3
 10  3  1  0
 11  1  1  0
 12 11  1  0
 13  9  1  0
 14 13  2  0
 15  4  1  0
 16  4  1  0
 16  5  1  6
 16 15  1  0
 17  7  1  0
 19 10  1  0
  3 20  1  1
 21  1  1  0
 21 13  1  6
 15 21  1  6
 22 10  1  0
 23  5  1  0
 24 10  1  0
 25  6  1  0
 25 12  2  0
 24 26  1  1
 27 18  1  0
 27 24  1  0
  4 28  1  6
 28 18  1  0
M  END
>  <ID>  (1) 
conformer_0

$$$$
