
     RDKit          3D

 32 32  0  0  0  0  0  0  0  0999 V2000
  -19.9369   19.7213   68.8391 C   0  0  0  0  0  0  0  0  0  0  0  0
  -17.5184   17.9513   73.5037 C   0  0  0  0  0  0  0  0  0  0  0  0
  -14.2233   23.5262   67.0668 C   0  0  0  0  0  0  0  0  0  0  0  0
  -20.1659   20.1829   67.9434 C   0  0  0  0  0  0  0  0  0  0  0  0
  -16.4338   20.6628   74.7666 C   0  0  0  0  0  0  0  0  0  0  0  0
  -18.5093   20.6042   68.9449 C   0  0  0  0  0  0  0  0  0  0  0  0
  -17.9052   20.4711   70.6532 C   0  0  0  0  0  0  0  0  0  0  0  0
  -14.1121   24.5773   66.3756 C   0  0  0  0  0  0  0  0  0  0  0  0
  -17.9513   20.7765   67.6592 C   0  0  0  0  0  0  0  0  0  0  0  0
  -13.1845   22.4082   67.1177 C   0  0  0  0  0  0  0  0  0  0  0  0
  -16.6375   23.3238   63.5820 C   0  0  0  0  0  0  0  0  0  0  0  0
  -17.6963   23.1453   64.4781 C   0  0  0  0  0  0  0  0  0  0  0  0
  -17.2678   19.9747   73.0920 C   0  0  0  0  0  0  0  0  0  0  0  0
  -16.3979   22.0851   73.9706 C   0  0  0  0  0  0  0  0  0  0  0  0
  -18.6459   22.3934   64.7969 O   0  0  0  0  0  0  0  0  0  0  0  0
  -17.1730   21.3149   71.0613 O   0  0  0  0  0  0  0  0  0  0  0  0
  -15.7628   19.9619   75.9236 O   0  0  0  0  0  0  0  0  0  0  0  0
  -14.9673   22.1151   74.2599 O   0  0  0  0  0  0  0  0  0  0  0  0
  -12.2117   23.1628   66.1104 C   0  0  0  0  0  0  0  0  0  0  0  0
  -16.1303   17.6108   75.2884 O   0  0  0  0  0  0  0  0  0  0  0  0
  -18.1391   16.9809   73.3726 O   0  0  0  0  0  0  0  0  0  0  0  0
  -17.2636   22.2105   68.0555 C   0  0  0  0  0  0  0  0  0  0  0  0
  -16.8041   18.8928   74.5690 C   0  0  0  0  0  0  0  0  0  0  0  0
  -12.3659   21.6397   67.5229 F   0  0  0  0  0  0  0  0  0  0  0  0
  -14.8091   21.4142   68.5799 O   0  0  0  0  0  0  0  0  0  0  0  0
  -12.8252   24.4501   65.5679 C   0  0  0  0  0  0  0  0  0  0  0  0
  -15.6230   21.2925   68.6775 C   0  0  0  0  0  0  0  0  0  0  0  0
  -17.4343   23.9306   65.6944 O   0  0  0  0  0  0  0  0  0  0  0  0
  -17.1141   21.8827   70.0675 C   0  0  0  0  0  0  0  0  0  0  0  0
  -15.9474   23.6560   68.1804 C   0  0  0  0  0  0  0  0  0  0  0  0
  -17.3926   20.6318   72.6418 O   0  0  0  0  0  0  0  0  0  0  0  0
  -17.0029   22.8534   68.0738 C   0  0  0  0  0  0  0  0  0  0  0  0
  4  1  1  0
  6  1  1  0
  7  6  1  0
  8  3  2  0
  9  6  1  0
 10  3  1  0
 11  8  1  0
 12 11  1  0
 14  5  1  0
 15 12  2  0
 16  7  1  0
 17  5  1  0
 18 14  1  0
 19 10  1  0
 21  2  1  0
 22  9  1  0
 23  2  1  0
 23  5  1  0
 23 13  1  0
 23 20  1  0
 24 10  1  0
 26  8  1  0
 26 19  2  0
 27 22  1  0
 27 25  2  0
 28 12  1  0
 29 16  1  0
 30  3  1  0
 31  7  1  0
 31 13  1  0
 32 22  1  0
 32 30  1  0
M  END
>  <ID>  (1) 
conformer_0

$$$$
