
     RDKit          3D

 28 29  0  0  0  0  0  0  0  0999 V2000
  -13.8951   23.8442   67.1497 C   0  0  0  0  0  0  0  0  0  0  0  0
  -16.3996   20.3963   74.7849 C   0  0  0  0  0  0  0  0  0  0  0  0
  -19.6967   20.0575   68.7793 C   0  0  0  0  0  0  0  0  0  0  0  0
  -20.8094   20.0138   67.9364 C   0  0  0  0  0  0  0  0  0  0  0  0
  -18.7829   21.0047   67.9108 C   0  0  0  0  0  0  0  0  0  0  0  0
  -17.0181   17.9978   73.3243 C   0  0  0  0  0  0  0  0  0  0  0  0
  -16.3808   21.7503   69.3776 C   0  0  0  0  0  0  0  0  0  0  0  0
  -14.0725   24.3985   66.0750 C   0  0  0  0  0  0  0  0  0  0  0  0
  -17.4245   20.8972   68.0927 C   0  0  0  0  0  0  0  0  0  0  0  0
  -17.5685   22.3476   65.3810 O   0  0  0  0  0  0  0  0  0  0  0  0
  -17.3333   23.5515   64.7000 C   0  0  0  0  0  0  0  0  0  0  0  0
  -17.2220   20.8397   71.8777 O   0  0  0  0  0  0  0  0  0  0  0  0
  -16.5362   21.6384   74.1592 C   0  0  0  0  0  0  0  0  0  0  0  0
  -12.1242   23.0874   66.0609 C   0  0  0  0  0  0  0  0  0  0  0  0
  -12.7091   22.6592   66.9480 C   0  0  0  0  0  0  0  0  0  0  0  0
  -16.2980   23.9197   63.3359 C   0  0  0  0  0  0  0  0  0  0  0  0
  -16.3731   17.0518   74.8284 O   0  0  0  0  0  0  0  0  0  0  0  0
  -14.9433   21.7078   74.0724 O   0  0  0  0  0  0  0  0  0  0  0  0
  -17.0507   19.9883   72.5275 C   0  0  0  0  0  0  0  0  0  0  0  0
  -18.0074   21.0048   70.2244 C   0  0  0  0  0  0  0  0  0  0  0  0
  -15.5609   19.1117   75.7575 O   0  0  0  0  0  0  0  0  0  0  0  0
  -17.1673   22.5569   68.3335 C   0  0  0  0  0  0  0  0  0  0  0  0
  -16.3715   21.3479   76.3096 O   0  0  0  0  0  0  0  0  0  0  0  0
  -17.1973   22.4859   67.2498 C   0  0  0  0  0  0  0  0  0  0  0  0
  -17.7289   24.3326   65.5986 O   0  0  0  0  0  0  0  0  0  0  0  0
  -15.8743   23.6247   68.0651 C   0  0  0  0  0  0  0  0  0  0  0  0
  -12.7416   24.5278   65.5435 C   0  0  0  0  0  0  0  0  0  0  0  0
  -16.6617   18.7740   74.5492 C   0  0  0  0  0  0  0  0  0  0  0  0
  4  3  1  0
  5  3  1  0
  8  1  2  0
  9  5  1  0
  9  7  1  0
 11 10  1  0
 13  2  1  0
 15  1  1  0
 15 14  1  0
 16 11  1  0
 18 13  1  0
 19  6  1  0
 19 12  1  0
 20  7  1  0
 20 12  1  0
 22  7  1  0
 22  9  1  0
 23  2  1  0
 24 10  1  0
 24 22  1  0
 25 11  2  0
 26  1  1  0
 26 22  1  0
 27  8  1  0
 27 14  2  0
 28  2  1  0
 28  6  1  0
 28 17  1  0
 28 21  1  0
M  END
>  <ID>  (1) 
conformer_0

$$$$
