
     RDKit          3D

 27 27  0  0  0  0  0  0  0  0999 V2000
  -19.4847   20.1764   68.6885 C   0  0  0  0  0  0  0  0  0  0  0  0
  -14.0454   24.0104   67.0185 C   0  0  0  0  0  0  0  0  0  0  0  0
  -17.2870   17.9133   73.5950 C   0  0  0  0  0  0  0  0  0  0  0  0
  -17.4257   19.9479   72.4925 C   0  0  0  0  0  0  0  0  0  0  0  0
  -20.4136   20.3095   68.0476 C   0  0  0  0  0  0  0  0  0  0  0  0
  -15.8897   21.6696   68.7302 C   0  0  0  0  0  0  0  0  0  0  0  0
  -13.5200   24.7646   66.1899 C   0  0  0  0  0  0  0  0  0  0  0  0
  -18.1158   20.6385   68.3786 C   0  0  2  0  0  0  0  0  0  0  0  0
  -17.5751   21.1496   70.2163 C   0  0  0  0  0  0  0  0  0  0  0  0
  -17.9096   21.9654   68.2795 C   0  0  0  0  0  0  0  0  0  0  0  0
  -16.0129   24.1588   63.5931 C   0  0  0  0  0  0  0  0  0  0  0  0
  -17.0966   22.5664   67.3139 C   0  0  1  0  0  0  0  0  0  0  0  0
  -16.1763   21.7725   74.1020 C   0  0  0  0  0  0  0  0  0  0  0  0
  -17.6146   23.2320   65.9968 O   0  0  0  0  0  0  0  0  0  0  0  0
  -17.0620   20.7879   71.9202 O   0  0  0  0  0  0  0  0  0  0  0  0
  -15.9351   19.9505   76.0780 O   0  0  0  0  0  0  0  0  0  0  0  0
  -12.1035   24.0408   65.9069 C   0  0  0  0  0  0  0  0  0  0  0  0
  -15.1488   22.4777   73.8503 O   0  0  0  0  0  0  0  0  0  0  0  0
  -16.2310   17.4267   75.2894 O   0  0  0  0  0  0  0  0  0  0  0  0
  -13.5675   22.4702   67.0964 C   0  0  0  0  0  0  0  0  0  0  0  0
  -18.3984   17.1091   73.2916 O   0  0  0  0  0  0  0  0  0  0  0  0
  -17.3168   23.4559   64.7676 C   0  0  0  0  0  0  0  0  0  0  0  0
  -16.0457   23.6355   68.2376 C   0  0  0  0  0  0  0  0  0  0  0  0
  -16.5646   20.4306   74.5746 C   0  0  2  0  0  0  0  0  0  0  0  0
  -12.1363   22.7654   66.6217 C   0  0  0  0  0  0  0  0  0  0  0  0
  -16.9813   18.8631   74.4244 C   0  0  1  0  0  0  0  0  0  0  0  0
  -17.6622   22.2723   64.4369 O   0  0  0  0  0  0  0  0  0  0  0  0
  5  1  2  3
  7  2  2  0
  8  1  1  0
  8  9  1  1
 10  8  1  0
 11  7  1  0
 12 10  1  1
 14 12  1  0
 15  4  1  0
 15  9  1  0
 17  7  1  0
 18 13  1  0
 20  2  1  0
 21  3  1  0
 22 11  1  0
 22 14  1  0
 23  6  1  0
 23 12  1  0
 24 13  1  0
 24 16  1  1
 25 17  2  0
 25 20  1  0
 26  3  1  0
 26  4  1  0
 26 19  1  6
 26 24  1  0
 27 22  2  0
M  END
>  <ID>  (1) 
conformer_0

$$$$
