
     RDKit          3D

 34 39  0  0  0  0  0  0  0  0999 V2000
  103.3617    9.9504  -91.8697 O   0  0  0  0  0  0  0  0  0  0  0  0
  104.4140    9.2951  -91.7027 C   0  0  0  0  0  0  0  0  0  0  0  0
  105.6556    9.6911  -92.1425 C   0  0  0  0  0  0  0  0  0  0  0  0
  102.1757    9.2143  -91.4732 C   0  0  0  0  0  0  0  0  0  0  0  0
  100.8855    9.8159  -91.4829 C   0  0  0  0  0  0  0  0  0  0  0  0
  104.3488    7.9168  -91.2286 C   0  0  0  0  0  0  0  0  0  0  0  0
  102.3466    8.0085  -90.9362 C   0  0  0  0  0  0  0  0  0  0  0  0
  106.7783    9.0069  -92.1434 C   0  0  0  0  0  0  0  0  0  0  0  0
  103.2796    7.3270  -90.9571 C   0  0  0  0  0  0  0  0  0  0  0  0
  103.2952    5.9066  -90.3846 C   0  0  0  0  0  0  0  0  0  0  0  0
  103.1738    4.8519  -91.3497 C   0  0  0  0  0  0  0  0  0  0  0  0
  100.7937    7.5966  -90.7262 C   0  0  0  0  0  0  0  0  0  0  0  0
  100.4830   11.0529  -91.5334 C   0  0  0  0  0  0  0  0  0  0  0  0
  100.2967    6.3991  -90.3039 C   0  0  0  0  0  0  0  0  0  0  0  0
  105.6822    7.1899  -91.3387 C   0  0  0  0  0  0  0  0  0  0  0  0
  100.0088    8.7422  -90.9519 C   0  0  0  0  0  0  0  0  0  0  0  0
  100.1348    6.1514  -89.0988 N   0  0  0  0  0  0  0  0  0  0  0  0
  107.9609    9.6517  -92.6033 O   0  0  0  0  0  0  0  0  0  0  0  0
   99.5960    5.6987  -91.2238 C   0  0  0  0  0  0  0  0  0  0  0  0
  105.6799    5.8052  -90.8903 C   0  0  0  0  0  0  0  0  0  0  0  0
   98.6671    8.9421  -90.8234 C   0  0  0  0  0  0  0  0  0  0  0  0
   99.0726   11.3017  -91.3586 C   0  0  0  0  0  0  0  0  0  0  0  0
   97.7477    7.9763  -90.4993 C   0  0  0  0  0  0  0  0  0  0  0  0
   99.7317    4.9506  -88.5730 C   0  0  0  0  0  0  0  0  0  0  0  0
  106.7963    7.8153  -91.7224 C   0  0  0  0  0  0  0  0  0  0  0  0
   99.8342    4.5796  -87.3110 O   0  0  0  0  0  0  0  0  0  0  0  0
   99.0981    4.0512  -89.4675 C   0  0  0  0  0  0  0  0  0  0  0  0
   98.5019    2.9679  -89.0053 O   0  0  0  0  0  0  0  0  0  0  0  0
   99.5109    5.9902  -92.6526 C   0  0  0  0  0  0  0  0  0  0  0  0
  104.7952    5.0157  -91.3696 C   0  0  0  0  0  0  0  0  0  0  0  0
  105.1524    4.5282  -92.7968 O   0  0  0  0  0  0  0  0  0  0  0  0
   98.2228   10.2815  -90.9914 C   0  0  0  0  0  0  0  0  0  0  0  0
   98.8510    4.3739  -90.8532 C   0  0  0  0  0  0  0  0  0  0  0  0
   97.0845   10.5295  -90.7394 O   0  0  0  0  0  0  0  0  0  0  0  0
  1  2  1  0
  2  3  2  0
  1  4  1  0
  4  5  1  0
  2  6  1  0
  4  7  2  0
  3  8  1  0
  6  9  2  0
  7  9  1  0
  9 10  1  0
 10 11  1  0
  7 12  1  0
  5 13  2  0
 12 14  1  0
  6 15  1  0
  5 16  1  0
 12 16  2  0
 14 17  1  0
  8 18  1  0
 14 19  2  0
 15 20  1  0
 16 21  1  0
 13 22  1  0
 21 23  1  0
 17 24  1  0
  8 25  2  0
 15 25  2  0
 24 26  2  0
 24 27  1  0
 27 28  1  0
 19 29  1  0
 11 30  1  0
 20 30  1  0
 30 31  1  0
 21 32  1  0
 22 32  1  0
 19 33  1  0
 27 33  2  0
 32 34  2  0
M  END
>  <ID>  (1) 
conformer_0

$$$$
