
     RDKit          3D

 12 12  0  0  0  0  0  0  0  0999 V2000
   98.3897   10.2363  -91.1740 C   0  0  0  0  0  0  0  0  0  0  0  0
   99.4805   10.7453  -91.2251 C   0  0  0  0  0  0  0  0  0  0  0  0
   98.2964    8.8663  -90.8708 C   0  0  0  0  0  0  0  0  0  0  0  0
   99.3145    8.0029  -90.8497 C   0  0  0  0  0  0  0  0  0  0  0  0
   99.7398   12.1389  -91.4952 O   0  0  0  0  0  0  0  0  0  0  0  0
   99.1627    6.5995  -90.5900 C   0  0  0  0  0  0  0  0  0  0  0  0
  100.7218    9.8795  -91.2557 C   0  0  0  0  0  0  0  0  0  0  0  0
   99.7023    5.6669  -91.4247 C   0  0  0  0  0  0  0  0  0  0  0  0
   99.8667    4.3619  -91.0799 C   0  0  0  0  0  0  0  0  0  0  0  0
   98.9873    3.6590  -91.6134 O   0  0  0  0  0  0  0  0  0  0  0  0
  100.7443    8.5716  -91.0665 C   0  0  0  0  0  0  0  0  0  0  0  0
  100.7246    3.9530  -90.2037 O   0  0  0  0  0  0  0  0  0  0  0  0
  1  2  1  0
  1  3  2  0
  3  4  1  0
  2  5  1  0
  4  6  1  0
  2  7  2  0
  6  8  1  0
  8  9  1  0
  9 10  2  0
  4 11  2  0
  7 11  1  0
  9 12  1  0
M  END
>  <ID>  (1) 
conformer_0

$$$$
