
     RDKit          3D

 32 38  0  0  0  0  0  0  0  0999 V2000
  103.3617    9.9504  -91.8697 O   0  0  0  0  0  0  0  0  0  0  0  0
  104.4140    9.2951  -91.7027 C   0  0  0  0  0  0  0  0  0  0  0  0
  105.6556    9.6911  -92.1425 C   0  0  0  0  0  0  0  0  0  0  0  0
  102.1757    9.2143  -91.4732 C   0  0  0  0  0  0  0  0  0  0  0  0
  100.8855    9.8159  -91.4829 C   0  0  0  0  0  0  0  0  0  0  0  0
  104.3488    7.9168  -91.2286 C   0  0  0  0  0  0  0  0  0  0  0  0
  102.3466    8.0085  -90.9362 C   0  0  0  0  0  0  0  0  0  0  0  0
  106.7783    9.0069  -92.1434 C   0  0  0  0  0  0  0  0  0  0  0  0
  103.2796    7.3270  -90.9571 C   0  0  0  0  0  0  0  0  0  0  0  0
  103.2952    5.9066  -90.3846 C   0  0  0  0  0  0  0  0  0  0  0  0
  103.1738    4.8519  -91.3497 C   0  0  0  0  0  0  0  0  0  0  0  0
  100.7937    7.5966  -90.7262 C   0  0  0  0  0  0  0  0  0  0  0  0
  100.4830   11.0529  -91.5334 C   0  0  0  0  0  0  0  0  0  0  0  0
  102.1307    4.5391  -91.8776 O   0  0  0  0  0  0  0  0  0  0  0  0
  100.2844    6.4013  -90.3214 C   0  0  0  0  0  0  0  0  0  0  0  0
   99.2342    5.8420  -90.9766 N   0  0  0  0  0  0  0  0  0  0  0  0
  100.0707    8.7920  -90.9869 C   0  0  0  0  0  0  0  0  0  0  0  0
  107.9311    9.6422  -92.6892 O   0  0  0  0  0  0  0  0  0  0  0  0
  104.3911    4.1863  -91.7502 C   0  0  0  0  0  0  0  0  0  0  0  0
  105.6409    7.1670  -91.2927 C   0  0  0  0  0  0  0  0  0  0  0  0
   99.0960   11.3504  -91.3923 C   0  0  0  0  0  0  0  0  0  0  0  0
   98.5819    8.6688  -90.8115 C   0  0  0  0  0  0  0  0  0  0  0  0
  103.9020    3.1918  -92.6459 C   0  0  0  0  0  0  0  0  0  0  0  0
  105.6870    5.8211  -90.9119 O   0  0  0  0  0  0  0  0  0  0  0  0
   98.6791    6.4032  -92.0809 C   0  0  0  0  0  0  0  0  0  0  0  0
  106.8741    7.7538  -91.7392 C   0  0  0  0  0  0  0  0  0  0  0  0
   98.4716   12.5689  -91.3978 O   0  0  0  0  0  0  0  0  0  0  0  0
   98.1527   10.2182  -91.0073 C   0  0  0  0  0  0  0  0  0  0  0  0
   97.9403    7.7747  -91.5555 C   0  0  0  0  0  0  0  0  0  0  0  0
  105.6733    4.8128  -91.7826 C   0  0  0  0  0  0  0  0  0  0  0  0
  102.5061    3.4063  -92.7448 C   0  0  0  0  0  0  0  0  0  0  0  0
  104.5755    2.1816  -93.2586 O   0  0  0  0  0  0  0  0  0  0  0  0
  1  2  1  0
  2  3  2  0
  1  4  1  0
  4  5  1  0
  2  6  1  0
  4  7  2  0
  3  8  1  0
  6  9  2  0
  7  9  1  0
  9 10  1  0
 10 11  1  0
  7 12  1  0
  5 13  2  0
 11 14  1  0
 12 15  1  0
 15 16  2  0
  5 17  1  0
 12 17  2  0
  8 18  1  0
 11 19  2  0
  6 20  1  0
 13 21  1  0
 17 22  1  0
 19 23  1  0
 20 24  1  0
 16 25  1  0
  8 26  2  0
 20 26  1  0
 21 27  1  0
 21 28  2  0
 22 28  1  0
 22 29  1  0
 25 29  1  0
 19 30  1  0
 24 30  1  0
 14 31  1  0
 23 31  1  0
 23 32  2  0
M  END
>  <ID>  (1) 
conformer_0

$$$$
