
     RDKit          3D

 35 41  0  0  0  0  0  0  0  0999 V2000
  103.9751    9.2785  -91.6427 O   0  0  0  0  0  0  0  0  0  0  0  0
  102.9456    8.4949  -91.4221 C   0  0  0  0  0  0  0  0  0  0  0  0
  101.6353    8.7178  -91.5595 C   0  0  0  0  0  0  0  0  0  0  0  0
  103.1975    7.0163  -91.6487 C   0  0  0  0  0  0  0  0  0  0  0  0
  100.6134    7.8540  -91.4251 C   0  0  0  0  0  0  0  0  0  0  0  0
  105.1922    8.7553  -92.0459 C   0  0  0  0  0  0  0  0  0  0  0  0
  102.1428    6.1008  -91.5074 C   0  0  0  0  0  0  0  0  0  0  0  0
  100.8852    6.5226  -91.4098 C   0  0  0  0  0  0  0  0  0  0  0  0
  101.2760   10.1525  -91.3448 N   0  0  0  0  0  0  0  0  0  0  0  0
   99.8432    5.3866  -91.3729 C   0  0  0  0  0  0  0  0  0  0  0  0
  100.0359   10.5229  -91.2348 C   0  0  0  0  0  0  0  0  0  0  0  0
  104.5945    6.6136  -91.5521 N   0  0  0  0  0  0  0  0  0  0  0  0
   99.2072    8.2793  -91.2843 C   0  0  0  0  0  0  0  0  0  0  0  0
  102.5282    4.5772  -91.6765 C   0  0  0  0  0  0  0  0  0  0  0  0
   98.9832    9.6453  -91.2104 C   0  0  0  0  0  0  0  0  0  0  0  0
   97.6569   10.2217  -91.0456 C   0  0  0  0  0  0  0  0  0  0  0  0
   97.4887   11.3588  -90.7811 C   0  0  0  0  0  0  0  0  0  0  0  0
   99.7622    4.4363  -92.2320 C   0  0  0  0  0  0  0  0  0  0  0  0
  101.2702    3.7712  -92.3888 C   0  0  0  0  0  0  0  0  0  0  0  0
  104.9740    5.2678  -91.3640 C   0  0  0  0  0  0  0  0  0  0  0  0
  103.8785    4.4013  -92.2233 C   0  0  0  0  0  0  0  0  0  0  0  0
  105.0254    4.8648  -90.1534 O   0  0  0  0  0  0  0  0  0  0  0  0
  106.2487    9.9022  -92.0204 C   0  0  0  0  0  0  0  0  0  0  0  0
  104.4397    2.9303  -92.0168 C   0  0  0  0  0  0  0  0  0  0  0  0
  103.5119    2.0868  -91.7070 O   0  0  0  0  0  0  0  0  0  0  0  0
   99.7810   11.9028  -91.0658 C   0  0  0  0  0  0  0  0  0  0  0  0
  105.1953    2.4221  -93.2309 C   0  0  0  0  0  0  0  0  0  0  0  0
  105.5995    7.4844  -91.7877 C   0  0  0  0  0  0  0  0  0  0  0  0
   98.4856   12.3029  -90.8209 C   0  0  0  0  0  0  0  0  0  0  0  0
  106.9624    7.2090  -92.0624 C   0  0  0  0  0  0  0  0  0  0  0  0
  104.5432    1.8378  -94.0754 O   0  0  0  0  0  0  0  0  0  0  0  0
  107.2888    5.8193  -92.1248 O   0  0  0  0  0  0  0  0  0  0  0  0
  106.4735    2.6281  -93.1505 O   0  0  0  0  0  0  0  0  0  0  0  0
  107.8822    8.1103  -92.4492 C   0  0  0  0  0  0  0  0  0  0  0  0
  107.5236    9.4567  -92.4338 C   0  0  0  0  0  0  0  0  0  0  0  0
  1  2  1  0
  2  3  1  0
  2  4  2  0
  3  5  2  0
  1  6  1  0
  4  7  1  0
  5  8  1  0
  7  8  2  0
  3  9  1  0
  8 10  1  0
  9 11  2  0
  4 12  1  0
  5 13  1  0
  7 14  1  0
 11 15  1  0
 13 15  2  0
 15 16  1  0
 16 17  2  0
 10 18  2  0
 14 19  1  0
 18 19  1  0
 12 20  1  0
 14 21  1  0
 20 21  1  0
 20 22  2  0
  6 23  1  0
 21 24  1  0
 24 25  1  0
 11 26  1  0
 24 27  1  0
  6 28  2  0
 12 28  1  0
 17 29  1  0
 26 29  2  0
 28 30  1  0
 27 31  2  0
 30 32  1  0
 27 33  1  0
 30 34  2  0
 23 35  2  0
 34 35  1  0
M  END
>  <ID>  (1) 
conformer_0

$$$$
