
     RDKit          3D

 31 38  0  0  0  0  0  0  0  0999 V2000
  103.9751    9.2785  -91.6427 O   0  0  0  0  0  0  0  0  0  0  0  0
  102.9456    8.4949  -91.4221 C   0  0  0  0  0  0  0  0  0  0  0  0
  101.6353    8.7178  -91.5595 C   0  0  0  0  0  0  0  0  0  0  0  0
  103.1975    7.0163  -91.6487 C   0  0  0  0  0  0  0  0  0  0  0  0
  100.6134    7.8540  -91.4251 C   0  0  0  0  0  0  0  0  0  0  0  0
  105.1922    8.7553  -92.0459 C   0  0  0  0  0  0  0  0  0  0  0  0
  102.1428    6.1008  -91.5074 C   0  0  0  0  0  0  0  0  0  0  0  0
  100.8852    6.5226  -91.4098 C   0  0  0  0  0  0  0  0  0  0  0  0
  101.2760   10.1525  -91.3448 N   0  0  0  0  0  0  0  0  0  0  0  0
   99.8432    5.3866  -91.3729 C   0  0  0  0  0  0  0  0  0  0  0  0
   99.3593    8.6026  -91.3012 C   0  0  0  0  0  0  0  0  0  0  0  0
  104.5904    6.6026  -91.5731 N   0  0  0  0  0  0  0  0  0  0  0  0
  105.6022    7.5139  -91.7114 C   0  0  0  0  0  0  0  0  0  0  0  0
  106.1773    9.9549  -92.3188 C   0  0  0  0  0  0  0  0  0  0  0  0
  106.9253    7.0851  -91.9054 C   0  0  0  0  0  0  0  0  0  0  0  0
   98.0786    8.2848  -91.1579 C   0  0  0  0  0  0  0  0  0  0  0  0
   97.6774    7.0082  -90.8442 N   0  0  0  0  0  0  0  0  0  0  0  0
  104.8578    5.1826  -91.4890 C   0  0  0  0  0  0  0  0  0  0  0  0
   99.8210    9.9979  -91.3007 C   0  0  0  0  0  0  0  0  0  0  0  0
  107.3199    5.8003  -91.7330 O   0  0  0  0  0  0  0  0  0  0  0  0
  100.2747    4.2448  -91.0134 O   0  0  0  0  0  0  0  0  0  0  0  0
  107.7962    8.1259  -92.3057 C   0  0  0  0  0  0  0  0  0  0  0  0
   98.5093    5.6902  -91.0330 C   0  0  0  0  0  0  0  0  0  0  0  0
   98.9388   11.1214  -91.1894 C   0  0  0  0  0  0  0  0  0  0  0  0
   97.7952    4.5069  -90.8114 C   0  0  0  0  0  0  0  0  0  0  0  0
  103.9779    4.2871  -91.4623 C   0  0  0  0  0  0  0  0  0  0  0  0
  106.1842    4.8468  -92.0978 C   0  0  0  0  0  0  0  0  0  0  0  0
  102.6107    4.7181  -91.6443 C   0  0  0  0  0  0  0  0  0  0  0  0
  107.4033    9.4766  -92.4452 C   0  0  0  0  0  0  0  0  0  0  0  0
  104.1303    3.0516  -91.2804 O   0  0  0  0  0  0  0  0  0  0  0  0
  101.6766    4.1019  -90.7359 C   0  0  0  0  0  0  0  0  0  0  0  0
  1  2  1  0
  2  3  1  0
  2  4  2  0
  3  5  2  0
  1  6  1  0
  4  7  1  0
  5  8  1  0
  7  8  2  0
  3  9  1  0
  8 10  1  0
  5 11  1  0
  4 12  1  0
  6 13  2  0
 12 13  1  0
  6 14  1  0
 13 15  1  0
 11 16  2  0
 16 17  1  0
 12 18  1  0
  9 19  2  0
 11 19  1  0
 15 20  1  0
 10 21  1  0
 15 22  2  0
 10 23  1  0
 17 23  2  0
 19 24  1  0
 23 25  1  0
 18 26  1  0
 18 27  1  0
 20 27  1  0
  7 28  1  0
 26 28  1  0
 14 29  2  0
 22 29  1  0
 26 30  2  0
 21 31  1  0
 28 31  1  0
M  END
>  <ID>  (1) 
conformer_0

$$$$
