
     RDKit          3D

 33 39  0  0  0  0  0  0  0  0999 V2000
  103.3617    9.9504  -91.8697 O   0  0  0  0  0  0  0  0  0  0  0  0
  104.4140    9.2951  -91.7027 C   0  0  0  0  0  0  0  0  0  0  0  0
  105.6556    9.6911  -92.1425 C   0  0  0  0  0  0  0  0  0  0  0  0
  102.1757    9.2143  -91.4732 C   0  0  0  0  0  0  0  0  0  0  0  0
  100.8855    9.8159  -91.4829 C   0  0  0  0  0  0  0  0  0  0  0  0
  104.3488    7.9168  -91.2286 C   0  0  0  0  0  0  0  0  0  0  0  0
  102.3466    8.0085  -90.9362 C   0  0  0  0  0  0  0  0  0  0  0  0
  106.7783    9.0069  -92.1434 C   0  0  0  0  0  0  0  0  0  0  0  0
  103.2796    7.3270  -90.9571 C   0  0  0  0  0  0  0  0  0  0  0  0
  103.2952    5.9066  -90.3846 C   0  0  0  0  0  0  0  0  0  0  0  0
  103.1738    4.8519  -91.3497 C   0  0  0  0  0  0  0  0  0  0  0  0
  100.7937    7.5966  -90.7262 C   0  0  0  0  0  0  0  0  0  0  0  0
  105.7468    7.2810  -91.1546 C   0  0  0  0  0  0  0  0  0  0  0  0
  100.3592    6.4163  -90.3126 C   0  0  0  0  0  0  0  0  0  0  0  0
  100.4675   11.0704  -91.6371 C   0  0  0  0  0  0  0  0  0  0  0  0
  100.1042    8.7708  -90.9444 C   0  0  0  0  0  0  0  0  0  0  0  0
  105.7900    5.8996  -90.6226 O   0  0  0  0  0  0  0  0  0  0  0  0
   98.6415    8.9154  -90.7279 C   0  0  0  0  0  0  0  0  0  0  0  0
  105.2403    4.7861  -91.3320 C   0  0  0  0  0  0  0  0  0  0  0  0
   99.0512   11.2692  -91.3922 C   0  0  0  0  0  0  0  0  0  0  0  0
  106.3410    4.1394  -92.1052 C   0  0  0  0  0  0  0  0  0  0  0  0
  104.1344    4.1653  -91.4881 C   0  0  0  0  0  0  0  0  0  0  0  0
   98.1967   10.2326  -90.9187 C   0  0  0  0  0  0  0  0  0  0  0  0
  108.0258    9.7198  -92.6774 C   0  0  0  0  0  0  0  0  0  0  0  0
  101.6879    4.4635  -91.4321 C   0  0  0  0  0  0  0  0  0  0  0  0
   99.5958    6.2680  -89.3010 O   0  0  0  0  0  0  0  0  0  0  0  0
  100.5707    5.1394  -91.0296 C   0  0  0  0  0  0  0  0  0  0  0  0
  104.2988    3.0193  -92.1551 C   0  0  0  0  0  0  0  0  0  0  0  0
  106.8086    7.8679  -91.6417 C   0  0  0  0  0  0  0  0  0  0  0  0
   99.5241    4.2230  -90.6893 O   0  0  0  0  0  0  0  0  0  0  0  0
  103.2987    2.0707  -92.4642 C   0  0  0  0  0  0  0  0  0  0  0  0
  107.6607    4.3505  -92.2014 C   0  0  0  0  0  0  0  0  0  0  0  0
  105.7452    2.8080  -92.5621 O   0  0  0  0  0  0  0  0  0  0  0  0
  1  2  1  0
  2  3  2  0
  1  4  1  0
  4  5  1  0
  2  6  1  0
  4  7  2  0
  3  8  1  0
  6  9  2  0
  7  9  1  0
  9 10  1  0
 10 11  1  0
  7 12  1  0
  6 13  1  0
 12 14  2  0
  5 15  1  0
  5 16  2  0
 12 16  1  0
 13 17  1  0
 16 18  1  0
 17 19  1  0
 15 20  2  0
 19 21  2  0
 11 22  1  0
 19 22  1  0
 18 23  2  0
 20 23  1  0
  8 24  1  0
 11 25  2  0
 14 26  1  0
 14 27  1  0
 25 27  1  0
 22 28  2  0
  8 29  2  0
 13 29  1  0
 27 30  1  0
 28 31  1  0
 21 32  1  0
 21 33  1  0
 28 33  1  0
M  END
>  <ID>  (1) 
conformer_0

$$$$
