
     RDKit          3D

 26 31  0  0  0  0  0  0  0  0999 V2000
  103.9751    9.2785  -91.6427 O   0  0  0  0  0  0  0  0  0  0  0  0
  102.9456    8.4949  -91.4221 C   0  0  0  0  0  0  0  0  0  0  0  0
  101.6353    8.7178  -91.5595 C   0  0  0  0  0  0  0  0  0  0  0  0
  103.1975    7.0163  -91.6487 C   0  0  0  0  0  0  0  0  0  0  0  0
  100.6134    7.8540  -91.4251 C   0  0  0  0  0  0  0  0  0  0  0  0
  105.1922    8.7553  -92.0459 C   0  0  0  0  0  0  0  0  0  0  0  0
  102.1428    6.1008  -91.5074 C   0  0  0  0  0  0  0  0  0  0  0  0
  100.8852    6.5226  -91.4098 C   0  0  0  0  0  0  0  0  0  0  0  0
  101.2760   10.1525  -91.3448 N   0  0  0  0  0  0  0  0  0  0  0  0
   99.8432    5.3866  -91.3729 C   0  0  0  0  0  0  0  0  0  0  0  0
   99.3593    8.6026  -91.3012 C   0  0  0  0  0  0  0  0  0  0  0  0
  104.5904    6.6026  -91.5731 N   0  0  0  0  0  0  0  0  0  0  0  0
  105.6022    7.5139  -91.7114 C   0  0  0  0  0  0  0  0  0  0  0  0
  106.1773    9.9549  -92.3188 C   0  0  0  0  0  0  0  0  0  0  0  0
  106.9253    7.0851  -91.9054 C   0  0  0  0  0  0  0  0  0  0  0  0
   98.0786    8.2848  -91.1579 C   0  0  0  0  0  0  0  0  0  0  0  0
   97.6774    7.0082  -90.8442 N   0  0  0  0  0  0  0  0  0  0  0  0
  107.8460    8.0825  -92.3117 C   0  0  0  0  0  0  0  0  0  0  0  0
   98.2789    5.7726  -91.2788 C   0  0  0  0  0  0  0  0  0  0  0  0
   99.8586    9.9971  -91.2870 C   0  0  0  0  0  0  0  0  0  0  0  0
   99.9870    4.4075  -92.3743 C   0  0  0  0  0  0  0  0  0  0  0  0
  107.4912    9.4243  -92.4877 C   0  0  0  0  0  0  0  0  0  0  0  0
   98.7457   11.0291  -91.0896 C   0  0  0  0  0  0  0  0  0  0  0  0
   99.3340   12.3707  -91.0882 N   0  0  0  0  0  0  0  0  0  0  0  0
   97.1694    9.4286  -90.7423 C   0  0  0  0  0  0  0  0  0  0  0  0
   97.5917   10.6710  -90.7981 C   0  0  0  0  0  0  0  0  0  0  0  0
  1  2  1  0
  2  3  1  0
  2  4  2  0
  3  5  2  0
  1  6  1  0
  4  7  1  0
  5  8  1  0
  7  8  2  0
  3  9  1  0
  8 10  1  0
  5 11  1  0
  4 12  1  0
  6 13  2  0
 12 13  1  0
  6 14  1  0
 13 15  1  0
 11 16  2  0
 16 17  1  0
 15 18  2  0
 10 19  1  0
 17 19  1  0
  9 20  2  0
 11 20  1  0
 10 21  1  0
 14 22  2  0
 18 22  1  0
 20 23  1  0
 23 24  1  0
 16 25  1  0
 23 26  2  0
 25 26  1  0
M  END
>  <ID>  (1) 
conformer_0

$$$$
