
     RDKit          3D

 35 42  0  0  0  0  0  0  0  0999 V2000
  103.3617    9.9504  -91.8697 O   0  0  0  0  0  0  0  0  0  0  0  0
  104.4140    9.2951  -91.7027 C   0  0  0  0  0  0  0  0  0  0  0  0
  105.6556    9.6911  -92.1425 C   0  0  0  0  0  0  0  0  0  0  0  0
  102.1757    9.2143  -91.4732 C   0  0  0  0  0  0  0  0  0  0  0  0
  106.7242    8.6840  -92.1210 C   0  0  0  0  0  0  0  0  0  0  0  0
  104.2962    7.8227  -91.4366 C   0  0  0  0  0  0  0  0  0  0  0  0
  106.5861    7.4827  -91.8465 C   0  0  0  0  0  0  0  0  0  0  0  0
  102.9582    7.4602  -91.0254 C   0  0  0  0  0  0  0  0  0  0  0  0
  101.9707    8.1514  -91.1735 C   0  0  0  0  0  0  0  0  0  0  0  0
  105.3193    6.9557  -91.4033 C   0  0  0  0  0  0  0  0  0  0  0  0
  100.8843   10.2478  -91.5333 C   0  0  0  0  0  0  0  0  0  0  0  0
  102.8516    5.9064  -90.9641 C   0  0  0  0  0  0  0  0  0  0  0  0
   99.9001    9.3952  -91.0656 C   0  0  0  0  0  0  0  0  0  0  0  0
   99.9222    7.9867  -90.7518 C   0  0  0  0  0  0  0  0  0  0  0  0
   98.5796   10.1054  -90.8794 C   0  0  0  0  0  0  0  0  0  0  0  0
  103.9156    5.1767  -90.8451 C   0  0  0  0  0  0  0  0  0  0  0  0
   98.7046    7.3693  -90.3862 C   0  0  0  0  0  0  0  0  0  0  0  0
   97.5067    9.5019  -90.4709 C   0  0  0  0  0  0  0  0  0  0  0  0
  100.9009    7.3363  -90.7207 C   0  0  0  0  0  0  0  0  0  0  0  0
   98.6066    6.0351  -90.1263 C   0  0  0  0  0  0  0  0  0  0  0  0
   96.3141   10.3052  -90.3003 C   0  0  0  0  0  0  0  0  0  0  0  0
   99.6511    5.2987  -90.5386 C   0  0  0  0  0  0  0  0  0  0  0  0
   97.5458    8.0816  -90.1921 N   0  0  0  0  0  0  0  0  0  0  0  0
   98.2515   11.5698  -91.1155 C   0  0  0  0  0  0  0  0  0  0  0  0
   96.1973   11.5073  -90.5644 C   0  0  0  0  0  0  0  0  0  0  0  0
  103.8520    3.7937  -90.6846 O   0  0  0  0  0  0  0  0  0  0  0  0
  104.1554    2.9183  -91.7173 C   0  0  0  0  0  0  0  0  0  0  0  0
  103.8533    1.7054  -91.5900 C   0  0  0  0  0  0  0  0  0  0  0  0
  100.8933    5.9632  -90.8601 C   0  0  0  0  0  0  0  0  0  0  0  0
  103.7970    3.3226  -93.0198 O   0  0  0  0  0  0  0  0  0  0  0  0
  104.6996    1.0226  -90.8761 O   0  0  0  0  0  0  0  0  0  0  0  0
  103.0310    1.0705  -92.3282 N   0  0  0  0  0  0  0  0  0  0  0  0
  105.2126    5.6111  -91.0909 C   0  0  0  0  0  0  0  0  0  0  0  0
   99.9186    3.9074  -90.4035 O   0  0  0  0  0  0  0  0  0  0  0  0
   97.2500   12.1817  -91.0205 C   0  0  0  0  0  0  0  0  0  0  0  0
  1  2  1  0
  2  3  2  0
  1  4  1  0
  3  5  1  0
  2  6  1  0
  5  7  2  0
  6  8  1  0
  4  9  2  0
  8  9  1  0
  6 10  2  0
  7 10  1  0
  4 11  1  0
  8 12  2  0
 11 13  2  0
 13 14  1  0
 13 15  1  0
 12 16  1  0
 14 17  1  0
 15 18  2  0
  9 19  1  0
 14 19  2  0
 17 20  1  0
 18 21  1  0
 20 22  2  0
 17 23  2  0
 18 23  1  0
 15 24  1  0
 21 25  2  0
 16 26  1  0
 26 27  1  0
 27 28  1  0
 12 29  1  0
 19 29  1  0
 22 29  1  0
 27 30  1  0
 28 31  2  0
 28 32  1  0
 10 33  1  0
 16 33  2  0
 22 34  1  0
 24 35  2  0
 25 35  1  0
M  END
>  <ID>  (1) 
conformer_0

$$$$
