
     RDKit          3D

 12 13  0  0  0  0  0  0  0  0999 V2000
   98.3897   10.2363  -91.1740 C   0  0  0  0  0  0  0  0  0  0  0  0
   99.4805   10.7453  -91.2251 C   0  0  0  0  0  0  0  0  0  0  0  0
   98.3348    8.7759  -90.9099 C   0  0  0  0  0  0  0  0  0  0  0  0
   99.3524    7.9998  -90.9358 C   0  0  0  0  0  0  0  0  0  0  0  0
   99.2199    6.5834  -90.6878 C   0  0  0  0  0  0  0  0  0  0  0  0
  100.5893    8.4832  -91.1268 C   0  0  0  0  0  0  0  0  0  0  0  0
  100.7112    9.8794  -91.2883 C   0  0  0  0  0  0  0  0  0  0  0  0
   99.4988    5.6259  -91.6413 C   0  0  0  0  0  0  0  0  0  0  0  0
   97.8680    6.1467  -90.2781 C   0  0  0  0  0  0  0  0  0  0  0  0
   97.8499    4.6919  -89.9437 C   0  0  0  0  0  0  0  0  0  0  0  0
   98.5570    4.0733  -91.0695 C   0  0  0  0  0  0  0  0  0  0  0  0
   99.7147    4.4032  -91.4314 C   0  0  0  0  0  0  0  0  0  0  0  0
  1  2  2  0
  1  3  1  0
  3  4  2  0
  4  5  1  0
  4  6  1  0
  2  7  1  0
  6  7  2  0
  5  8  1  0
  5  9  1  0
  9 10  1  0
 10 11  1  0
  8 12  1  0
 11 12  1  0
M  END
>  <ID>  (1) 
conformer_0

$$$$
