
     RDKit          3D

 26 28  0  0  0  0  0  0  0  0999 V2000
   99.7272   10.5583  -91.5465 C   0  0  0  0  0  0  0  0  0  0  0  0
  100.6343    9.7203  -91.2298 C   0  0  0  0  0  0  0  0  0  0  0  0
  100.1969    8.3652  -90.8562 C   0  0  0  0  0  0  0  0  0  0  0  0
  101.2364    7.3693  -90.5883 C   0  0  0  0  0  0  0  0  0  0  0  0
   98.3690   10.2584  -91.3046 C   0  0  0  0  0  0  0  0  0  0  0  0
  101.0139    6.1132  -90.9284 N   0  0  0  0  0  0  0  0  0  0  0  0
  101.7929    4.9951  -90.5076 C   0  0  0  0  0  0  0  0  0  0  0  0
  102.5061    7.7828  -91.1330 C   0  0  0  0  0  0  0  0  0  0  0  0
   99.7332    5.6903  -91.5749 C   0  0  0  0  0  0  0  0  0  0  0  0
  102.6675    9.0474  -91.5323 C   0  0  0  0  0  0  0  0  0  0  0  0
  103.5784    6.8972  -91.0940 N   0  0  0  0  0  0  0  0  0  0  0  0
  103.2849    5.4729  -90.8664 C   0  0  0  0  0  0  0  0  0  0  0  0
   98.8910    8.1769  -90.7408 C   0  0  0  0  0  0  0  0  0  0  0  0
  104.3624    4.5896  -90.9307 C   0  0  0  0  0  0  0  0  0  0  0  0
  101.7941    4.7972  -89.2290 C   0  0  0  0  0  0  0  0  0  0  0  0
   99.2761    4.4929  -91.3494 C   0  0  0  0  0  0  0  0  0  0  0  0
  104.0708    9.4326  -91.8462 O   0  0  0  0  0  0  0  0  0  0  0  0
   98.7962    4.2360  -90.1706 O   0  0  0  0  0  0  0  0  0  0  0  0
  103.9417    3.2140  -91.2474 O   0  0  0  0  0  0  0  0  0  0  0  0
   97.9886    9.2011  -90.9478 C   0  0  0  0  0  0  0  0  0  0  0  0
   98.6231    3.9302  -92.2946 O   0  0  0  0  0  0  0  0  0  0  0  0
  101.8679   10.0425  -91.5235 N   0  0  0  0  0  0  0  0  0  0  0  0
  105.7046    4.9279  -90.8495 C   0  0  0  0  0  0  0  0  0  0  0  0
  106.6996    3.9958  -91.4177 C   0  0  0  0  0  0  0  0  0  0  0  0
  106.7648    2.8608  -91.0071 O   0  0  0  0  0  0  0  0  0  0  0  0
  107.7232    4.3966  -92.1574 O   0  0  0  0  0  0  0  0  0  0  0  0
  1  2  2  0
  2  3  1  0
  3  4  1  0
  1  5  1  0
  4  6  1  0
  6  7  1  0
  4  8  1  0
  6  9  1  0
  8 10  1  0
  8 11  2  0
  7 12  1  0
 11 12  1  0
  3 13  2  0
 12 14  2  3
  7 15  1  0
  9 16  1  0
 10 17  1  0
 16 18  1  0
 14 19  1  0
  5 20  2  0
 13 20  1  0
 16 21  2  0
  2 22  1  0
 10 22  2  0
 14 23  1  0
 23 24  1  0
 24 25  1  0
 24 26  2  0
M  END
>  <ID>  (1) 
conformer_0

$$$$
