
     RDKit          3D

 33 38  0  0  0  0  0  0  0  0999 V2000
  103.9751    9.2785  -91.6427 O   0  0  0  0  0  0  0  0  0  0  0  0
  102.9456    8.4949  -91.4221 C   0  0  0  0  0  0  0  0  0  0  0  0
  101.6353    8.7178  -91.5595 C   0  0  0  0  0  0  0  0  0  0  0  0
  103.1975    7.0163  -91.6487 C   0  0  0  0  0  0  0  0  0  0  0  0
  100.6134    7.8540  -91.4251 C   0  0  0  0  0  0  0  0  0  0  0  0
  105.1922    8.7553  -92.0459 C   0  0  0  0  0  0  0  0  0  0  0  0
  102.1428    6.1008  -91.5074 C   0  0  0  0  0  0  0  0  0  0  0  0
  100.8852    6.5226  -91.4098 C   0  0  0  0  0  0  0  0  0  0  0  0
  101.2760   10.1525  -91.3448 N   0  0  0  0  0  0  0  0  0  0  0  0
   99.8432    5.3866  -91.3729 C   0  0  0  0  0  0  0  0  0  0  0  0
  100.0359   10.5229  -91.2348 C   0  0  0  0  0  0  0  0  0  0  0  0
  104.5945    6.6136  -91.5521 N   0  0  0  0  0  0  0  0  0  0  0  0
   99.2072    8.2793  -91.2843 C   0  0  0  0  0  0  0  0  0  0  0  0
  102.5282    4.5772  -91.6765 C   0  0  0  0  0  0  0  0  0  0  0  0
   98.9832    9.6453  -91.2104 C   0  0  0  0  0  0  0  0  0  0  0  0
   97.6569   10.2217  -91.0456 C   0  0  0  0  0  0  0  0  0  0  0  0
   97.4887   11.3588  -90.7811 C   0  0  0  0  0  0  0  0  0  0  0  0
   98.8953    5.2576  -92.2907 C   0  0  0  0  0  0  0  0  0  0  0  0
  105.5508    7.5287  -91.7355 C   0  0  0  0  0  0  0  0  0  0  0  0
  106.0657    9.7746  -92.4352 C   0  0  0  0  0  0  0  0  0  0  0  0
   99.6123    4.8039  -90.0834 C   0  0  0  0  0  0  0  0  0  0  0  0
  102.1346    3.8963  -92.5290 O   0  0  0  0  0  0  0  0  0  0  0  0
  103.4863    4.1089  -90.8363 O   0  0  0  0  0  0  0  0  0  0  0  0
   99.7251   11.8891  -91.1057 C   0  0  0  0  0  0  0  0  0  0  0  0
  100.4867    4.9337  -88.9365 C   0  0  0  0  0  0  0  0  0  0  0  0
  105.7244   11.1293  -92.6490 C   0  0  0  0  0  0  0  0  0  0  0  0
   98.4443   12.3301  -90.8935 C   0  0  0  0  0  0  0  0  0  0  0  0
   98.5706    3.9964  -90.2084 N   0  0  0  0  0  0  0  0  0  0  0  0
  106.8553    7.1565  -92.1190 C   0  0  0  0  0  0  0  0  0  0  0  0
  107.4318    9.2825  -92.7666 C   0  0  0  0  0  0  0  0  0  0  0  0
  107.1823    5.6966  -91.9891 C   0  0  0  0  0  0  0  0  0  0  0  0
   97.8725    4.2347  -91.4070 C   0  0  0  0  0  0  0  0  0  0  0  0
  107.7594    8.0334  -92.5979 C   0  0  0  0  0  0  0  0  0  0  0  0
  1  2  1  0
  2  3  1  0
  2  4  2  0
  3  5  2  0
  1  6  1  0
  4  7  1  0
  5  8  1  0
  7  8  2  0
  3  9  1  0
  8 10  1  0
  9 11  2  0
  4 12  1  0
  5 13  1  0
  7 14  1  0
 11 15  1  0
 13 15  2  0
 15 16  1  0
 16 17  2  0
 10 18  2  0
  6 19  1  0
 12 19  1  0
  6 20  2  0
 10 21  1  0
 14 22  2  0
 14 23  1  0
 11 24  1  0
 21 25  1  0
 20 26  1  0
 17 27  1  0
 24 27  2  0
 21 28  2  0
 19 29  2  0
 20 30  1  0
 29 31  1  0
 18 32  1  0
 28 32  1  0
 29 33  1  0
 30 33  2  0
M  END
>  <ID>  (1) 
conformer_0

$$$$
