
     RDKit          3D

 17 20  0  0  0  0  0  0  0  0999 V2000
   98.1904   10.1848  -91.0520 C   0  0  0  0  0  0  0  0  0  0  0  0
   98.5398    8.9952  -91.1438 C   0  0  0  0  0  0  0  0  0  0  0  0
   97.6295    7.9224  -91.1585 C   0  0  0  0  0  0  0  0  0  0  0  0
   98.1670    6.6522  -91.3117 C   0  0  0  0  0  0  0  0  0  0  0  0
   97.2974    5.4570  -91.2278 C   0  0  0  0  0  0  0  0  0  0  0  0
   99.9336    8.6105  -90.9930 C   0  0  0  0  0  0  0  0  0  0  0  0
  100.8585    9.7403  -90.9409 C   0  0  0  0  0  0  0  0  0  0  0  0
   96.7768   10.5045  -91.0605 F   0  0  0  0  0  0  0  0  0  0  0  0
  100.4166   11.0506  -91.0632 C   0  0  0  0  0  0  0  0  0  0  0  0
  102.3726    9.3979  -90.9549 C   0  0  0  0  0  0  0  0  0  0  0  0
  100.5080    7.3062  -91.1073 C   0  0  0  0  0  0  0  0  0  0  0  0
  101.8572    7.0522  -91.0252 C   0  0  0  0  0  0  0  0  0  0  0  0
   99.4293    6.3241  -91.0093 C   0  0  0  0  0  0  0  0  0  0  0  0
  102.7195    8.1019  -91.0473 C   0  0  0  0  0  0  0  0  0  0  0  0
   99.8450    4.9975  -90.9817 C   0  0  0  0  0  0  0  0  0  0  0  0
   98.5750    4.1632  -91.0212 C   0  0  0  0  0  0  0  0  0  0  0  0
   99.0919   11.3115  -91.0283 C   0  0  0  0  0  0  0  0  0  0  0  0
  1  2  2  0
  2  3  1  0
  3  4  2  0
  4  5  1  0
  2  6  1  0
  6  7  2  0
  1  8  1  0
  7  9  1  0
  7 10  1  0
  6 11  1  0
 11 12  2  0
  4 13  1  0
 11 13  1  0
 10 14  2  0
 12 14  1  0
 13 15  2  0
  5 16  2  0
 15 16  1  0
  1 17  1  0
  9 17  2  0
M  END
>  <ID>  (1) 
conformer_0

$$$$
