
     RDKit          3D

 23 26  0  0  0  0  0  0  0  0999 V2000
   98.1904   10.1848  -91.0520 C   0  0  0  0  0  0  0  0  0  0  0  0
   98.5398    8.9952  -91.1438 C   0  0  0  0  0  0  0  0  0  0  0  0
   97.6295    7.9224  -91.1585 C   0  0  0  0  0  0  0  0  0  0  0  0
   98.1670    6.6522  -91.3117 C   0  0  0  0  0  0  0  0  0  0  0  0
   99.9677    8.6342  -91.0618 C   0  0  0  0  0  0  0  0  0  0  0  0
   99.5550    6.3261  -91.3342 C   0  0  0  0  0  0  0  0  0  0  0  0
  100.0048    4.9006  -91.4360 C   0  0  0  0  0  0  0  0  0  0  0  0
  101.1911    4.5511  -90.6830 C   0  0  0  0  0  0  0  0  0  0  0  0
   98.9771   11.3156  -90.9606 C   0  0  0  0  0  0  0  0  0  0  0  0
  100.8547    9.8240  -91.0282 C   0  0  0  0  0  0  0  0  0  0  0  0
  100.4876    7.3759  -91.1510 C   0  0  0  0  0  0  0  0  0  0  0  0
  102.3116    9.6256  -91.1023 O   0  0  0  0  0  0  0  0  0  0  0  0
   98.4697   12.6245  -90.9237 O   0  0  0  0  0  0  0  0  0  0  0  0
  102.9553    8.5018  -91.2835 C   0  0  0  0  0  0  0  0  0  0  0  0
  102.1765    7.2306  -91.0180 C   0  0  0  0  0  0  0  0  0  0  0  0
  102.7464    6.0502  -90.8324 C   0  0  0  0  0  0  0  0  0  0  0  0
  102.2955    4.8749  -91.2702 N   0  0  0  0  0  0  0  0  0  0  0  0
  103.4094    3.8663  -91.4416 C   0  0  0  0  0  0  0  0  0  0  0  0
  103.1793    2.7119  -92.0901 C   0  0  0  0  0  0  0  0  0  0  0  0
  101.9992    2.2617  -92.4732 O   0  0  0  0  0  0  0  0  0  0  0  0
  104.2208    8.3186  -91.6334 N   0  0  0  0  0  0  0  0  0  0  0  0
  100.4640   11.1895  -90.9988 C   0  0  0  0  0  0  0  0  0  0  0  0
  104.1159    1.7662  -92.1598 O   0  0  0  0  0  0  0  0  0  0  0  0
  1  2  2  0
  2  3  1  0
  3  4  2  0
  2  5  1  0
  4  6  1  0
  6  7  1  0
  7  8  1  0
  1  9  1  0
  5 10  2  0
  5 11  1  0
  6 11  2  0
 10 12  1  0
  9 13  1  0
 12 14  1  0
 11 15  1  0
 14 15  2  0
 15 16  1  0
  8 17  1  0
 16 17  1  0
 17 18  1  0
 18 19  1  0
 19 20  2  0
 14 21  1  0
  9 22  2  0
 10 22  1  0
 19 23  1  0
M  END
>  <ID>  (1) 
conformer_0

$$$$
