
     RDKit          3D

 32 38  0  0  0  0  0  0  0  0999 V2000
  103.3617    9.9504  -91.8697 O   0  0  0  0  0  0  0  0  0  0  0  0
  104.4140    9.2951  -91.7027 C   0  0  0  0  0  0  0  0  0  0  0  0
  105.6556    9.6911  -92.1425 C   0  0  0  0  0  0  0  0  0  0  0  0
  102.1757    9.2143  -91.4732 C   0  0  0  0  0  0  0  0  0  0  0  0
  100.8855    9.8159  -91.4829 C   0  0  0  0  0  0  0  0  0  0  0  0
  104.3488    7.9168  -91.2286 C   0  0  0  0  0  0  0  0  0  0  0  0
  102.3466    8.0085  -90.9362 C   0  0  0  0  0  0  0  0  0  0  0  0
  106.7783    9.0069  -92.1434 C   0  0  0  0  0  0  0  0  0  0  0  0
  103.2796    7.3270  -90.9571 C   0  0  0  0  0  0  0  0  0  0  0  0
  103.2952    5.9066  -90.3846 C   0  0  0  0  0  0  0  0  0  0  0  0
  103.1738    4.8519  -91.3497 C   0  0  0  0  0  0  0  0  0  0  0  0
  100.7937    7.5966  -90.7262 C   0  0  0  0  0  0  0  0  0  0  0  0
  105.7468    7.2810  -91.1546 C   0  0  0  0  0  0  0  0  0  0  0  0
  100.3592    6.4163  -90.3126 C   0  0  0  0  0  0  0  0  0  0  0  0
  100.4675   11.0704  -91.6371 C   0  0  0  0  0  0  0  0  0  0  0  0
  100.1042    8.7708  -90.9444 C   0  0  0  0  0  0  0  0  0  0  0  0
  105.7900    5.8996  -90.6226 O   0  0  0  0  0  0  0  0  0  0  0  0
   98.6415    8.9154  -90.7279 C   0  0  0  0  0  0  0  0  0  0  0  0
  105.2403    4.7861  -91.3320 C   0  0  0  0  0  0  0  0  0  0  0  0
   99.0512   11.2692  -91.3922 C   0  0  0  0  0  0  0  0  0  0  0  0
  106.3410    4.1394  -92.1052 C   0  0  0  0  0  0  0  0  0  0  0  0
  104.1344    4.1653  -91.4881 C   0  0  0  0  0  0  0  0  0  0  0  0
  106.8821    7.7466  -91.6364 C   0  0  0  0  0  0  0  0  0  0  0  0
  107.6829    4.3940  -92.2199 O   0  0  0  0  0  0  0  0  0  0  0  0
  106.0214    2.9000  -92.8339 C   0  0  0  0  0  0  0  0  0  0  0  0
  104.7560    2.4524  -92.9301 C   0  0  0  0  0  0  0  0  0  0  0  0
   98.1867   10.2605  -90.9651 C   0  0  0  0  0  0  0  0  0  0  0  0
  104.3862    1.2688  -93.6529 O   0  0  0  0  0  0  0  0  0  0  0  0
  101.8898    4.3157  -91.1377 N   0  0  0  0  0  0  0  0  0  0  0  0
  103.8593    3.0672  -92.2598 C   0  0  0  0  0  0  0  0  0  0  0  0
  100.5713    5.1012  -91.1041 C   0  0  0  0  0  0  0  0  0  0  0  0
   99.7853    4.7247  -92.0482 O   0  0  0  0  0  0  0  0  0  0  0  0
  1  2  1  0
  2  3  2  0
  1  4  1  0
  4  5  1  0
  2  6  1  0
  4  7  2  0
  3  8  1  0
  6  9  2  0
  7  9  1  0
  9 10  1  0
 10 11  1  0
  7 12  1  0
  6 13  1  0
 12 14  2  0
  5 15  1  0
  5 16  2  0
 12 16  1  0
 13 17  1  0
 16 18  1  0
 17 19  1  0
 15 20  2  0
 19 21  2  0
 11 22  1  0
 19 22  1  0
  8 23  2  0
 13 23  1  0
 21 24  1  0
 21 25  1  0
 25 26  2  0
 18 27  2  0
 20 27  1  0
 26 28  1  0
 11 29  1  0
 22 30  2  0
 26 30  1  0
 14 31  1  0
 29 31  1  0
 31 32  2  0
M  END
>  <ID>  (1) 
conformer_0

$$$$
