
     RDKit          3D

 32 36  0  0  0  0  0  0  0  0999 V2000
  103.3617    9.9504  -91.8697 O   0  0  0  0  0  0  0  0  0  0  0  0
  104.4140    9.2951  -91.7027 C   0  0  0  0  0  0  0  0  0  0  0  0
  105.6556    9.6911  -92.1425 C   0  0  0  0  0  0  0  0  0  0  0  0
  102.1757    9.2143  -91.4732 C   0  0  0  0  0  0  0  0  0  0  0  0
  100.8855    9.8159  -91.4829 C   0  0  0  0  0  0  0  0  0  0  0  0
  104.3488    7.9168  -91.2286 C   0  0  0  0  0  0  0  0  0  0  0  0
  102.3466    8.0085  -90.9362 C   0  0  0  0  0  0  0  0  0  0  0  0
  106.7783    9.0069  -92.1434 C   0  0  0  0  0  0  0  0  0  0  0  0
  103.2796    7.3270  -90.9571 C   0  0  0  0  0  0  0  0  0  0  0  0
  103.2952    5.9066  -90.3846 C   0  0  0  0  0  0  0  0  0  0  0  0
  103.1738    4.8519  -91.3497 C   0  0  0  0  0  0  0  0  0  0  0  0
  100.7937    7.5966  -90.7262 C   0  0  0  0  0  0  0  0  0  0  0  0
  100.4830   11.0529  -91.5334 C   0  0  0  0  0  0  0  0  0  0  0  0
  102.1307    4.5391  -91.8776 O   0  0  0  0  0  0  0  0  0  0  0  0
   99.0841   11.3532  -91.3910 C   0  0  0  0  0  0  0  0  0  0  0  0
  101.0218    3.9818  -91.3540 C   0  0  0  0  0  0  0  0  0  0  0  0
  100.0607    8.7566  -90.9288 C   0  0  0  0  0  0  0  0  0  0  0  0
  104.3274    4.2160  -91.7751 C   0  0  0  0  0  0  0  0  0  0  0  0
   99.6941    4.1102  -92.1451 C   0  0  0  0  0  0  0  0  0  0  0  0
  104.3573    2.9539  -92.4458 C   0  0  0  0  0  0  0  0  0  0  0  0
   98.6153   12.5795  -91.4854 O   0  0  0  0  0  0  0  0  0  0  0  0
   98.5265    4.3961  -91.4144 C   0  0  0  0  0  0  0  0  0  0  0  0
  105.5741    2.4719  -92.8411 O   0  0  0  0  0  0  0  0  0  0  0  0
   98.6134    9.0624  -90.8492 C   0  0  0  0  0  0  0  0  0  0  0  0
  105.6026    7.1344  -91.3317 C   0  0  0  0  0  0  0  0  0  0  0  0
  105.6717    5.8019  -90.9508 C   0  0  0  0  0  0  0  0  0  0  0  0
  103.3980    2.1841  -92.7638 O   0  0  0  0  0  0  0  0  0  0  0  0
  106.7999    7.7609  -91.7283 C   0  0  0  0  0  0  0  0  0  0  0  0
   98.1605   10.4056  -90.9866 C   0  0  0  0  0  0  0  0  0  0  0  0
   97.7517    8.0919  -90.4438 O   0  0  0  0  0  0  0  0  0  0  0  0
   98.6033    4.3807  -90.0716 C   0  0  0  0  0  0  0  0  0  0  0  0
  105.5271    4.7985  -91.4301 N   0  0  0  0  0  0  0  0  0  0  0  0
  1  2  1  0
  2  3  2  0
  1  4  1  0
  4  5  1  0
  2  6  1  0
  4  7  2  0
  3  8  1  0
  6  9  2  0
  7  9  1  0
  9 10  1  0
 10 11  1  0
  7 12  1  0
  5 13  2  0
 11 14  1  0
 13 15  1  0
 14 16  1  0
  5 17  1  0
 12 17  2  0
 11 18  2  0
 16 19  1  0
 18 20  1  0
 15 21  1  0
 19 22  1  0
 20 23  1  0
 17 24  1  0
  6 25  1  0
 25 26  1  0
 20 27  2  0
  8 28  2  0
 25 28  1  0
 15 29  2  0
 24 29  1  0
 24 30  2  0
 22 31  1  0
 18 32  1  0
 26 32  1  0
M  END
>  <ID>  (1) 
conformer_0

$$$$
