
     RDKit          3D

 25 28  0  0  0  0  0  0  0  0999 V2000
  103.3617    9.9504  -91.8697 O   0  0  0  0  0  0  0  0  0  0  0  0
  104.4140    9.2951  -91.7027 C   0  0  0  0  0  0  0  0  0  0  0  0
  105.6556    9.6911  -92.1425 C   0  0  0  0  0  0  0  0  0  0  0  0
  102.1757    9.2143  -91.4732 C   0  0  0  0  0  0  0  0  0  0  0  0
  100.8855    9.8159  -91.4829 C   0  0  0  0  0  0  0  0  0  0  0  0
  104.3488    7.9168  -91.2286 C   0  0  0  0  0  0  0  0  0  0  0  0
  102.3466    8.0085  -90.9362 C   0  0  0  0  0  0  0  0  0  0  0  0
  106.7783    9.0069  -92.1434 C   0  0  0  0  0  0  0  0  0  0  0  0
  103.2796    7.3270  -90.9571 C   0  0  0  0  0  0  0  0  0  0  0  0
  103.2952    5.9066  -90.3846 C   0  0  0  0  0  0  0  0  0  0  0  0
  103.1738    4.8519  -91.3497 C   0  0  0  0  0  0  0  0  0  0  0  0
  100.7937    7.5966  -90.7262 C   0  0  0  0  0  0  0  0  0  0  0  0
  100.4830   11.0529  -91.5334 C   0  0  0  0  0  0  0  0  0  0  0  0
  102.1307    4.5391  -91.8776 O   0  0  0  0  0  0  0  0  0  0  0  0
  107.9108    9.6691  -92.6638 O   0  0  0  0  0  0  0  0  0  0  0  0
  106.7588    7.7135  -91.7639 C   0  0  0  0  0  0  0  0  0  0  0  0
  104.0470    3.7609  -91.3047 C   0  0  0  0  0  0  0  0  0  0  0  0
   99.9111    8.6981  -91.1513 C   0  0  0  0  0  0  0  0  0  0  0  0
   98.6383    8.9256  -90.9373 C   0  0  0  0  0  0  0  0  0  0  0  0
   98.2663   10.4142  -91.1055 C   0  0  0  0  0  0  0  0  0  0  0  0
  103.5362    2.5854  -91.5474 O   0  0  0  0  0  0  0  0  0  0  0  0
   99.1540   11.3682  -91.3049 C   0  0  0  0  0  0  0  0  0  0  0  0
  105.3265    3.8754  -91.3542 O   0  0  0  0  0  0  0  0  0  0  0  0
  106.2056    3.0959  -92.1811 C   0  0  0  0  0  0  0  0  0  0  0  0
  105.5971    7.1760  -91.3794 C   0  0  0  0  0  0  0  0  0  0  0  0
  1  2  1  0
  2  3  2  0
  1  4  1  0
  4  5  1  0
  2  6  1  0
  4  7  2  0
  3  8  1  0
  6  9  2  0
  7  9  1  0
  9 10  1  0
 10 11  1  0
  7 12  1  0
  5 13  2  0
 11 14  1  0
  8 15  1  0
  8 16  2  0
 11 17  1  0
  5 18  1  0
 12 18  1  0
 18 19  2  0
 19 20  1  0
 17 21  2  0
 13 22  1  0
 20 22  2  0
 17 23  1  0
 23 24  1  0
  6 25  1  0
 16 25  1  0
M  END
>  <ID>  (1) 
conformer_0

$$$$
