
     RDKit          3D

 32 36  0  0  0  0  0  0  0  0999 V2000
  106.2630    9.3133  -92.5510 O   0  0  0  0  0  0  0  0  0  0  0  0
  106.0428    8.1686  -92.0775 C   0  0  0  0  0  0  0  0  0  0  0  0
  105.1283    7.9210  -91.2417 N   0  0  0  0  0  0  0  0  0  0  0  0
  104.6700    6.7381  -91.0243 C   0  0  0  0  0  0  0  0  0  0  0  0
  105.3388    5.5991  -91.4368 C   0  0  0  0  0  0  0  0  0  0  0  0
  106.5058    5.9075  -92.2764 C   0  0  0  0  0  0  0  0  0  0  0  0
  104.1677    9.0360  -90.8415 C   0  0  0  0  0  0  0  0  0  0  0  0
  102.7902    8.7085  -91.1261 C   0  0  0  0  0  0  0  0  0  0  0  0
  105.0725    4.2578  -91.0406 O   0  0  0  0  0  0  0  0  0  0  0  0
  105.7440    3.2012  -91.8671 C   0  0  0  0  0  0  0  0  0  0  0  0
  102.2211    7.5503  -91.3218 C   0  0  0  0  0  0  0  0  0  0  0  0
  103.2604    6.4067  -91.0217 N   0  0  0  0  0  0  0  0  0  0  0  0
  106.9472    7.1468  -92.4736 C   0  0  0  0  0  0  0  0  0  0  0  0
  101.6671    9.6067  -91.2036 N   0  0  0  0  0  0  0  0  0  0  0  0
  100.9251    7.5491  -91.3415 C   0  0  0  0  0  0  0  0  0  0  0  0
  100.0391    6.3708  -91.5220 C   0  0  0  0  0  0  0  0  0  0  0  0
   98.7666    6.4460  -91.4430 C   0  0  0  0  0  0  0  0  0  0  0  0
  104.6412    2.3240  -92.4397 C   0  0  0  0  0  0  0  0  0  0  0  0
  100.5969    8.8519  -91.3925 C   0  0  0  0  0  0  0  0  0  0  0  0
   99.2781    9.2447  -91.4276 C   0  0  0  0  0  0  0  0  0  0  0  0
  103.5157    2.3364  -91.8912 C   0  0  0  0  0  0  0  0  0  0  0  0
   98.6186   10.5163  -91.3313 C   0  0  0  0  0  0  0  0  0  0  0  0
  105.2274    0.9421  -92.5171 C   0  0  0  0  0  0  0  0  0  0  0  0
   97.8111    5.4348  -91.6104 C   0  0  0  0  0  0  0  0  0  0  0  0
   98.3355    4.1231  -91.4753 C   0  0  0  0  0  0  0  0  0  0  0  0
   97.5035   10.6514  -90.8855 O   0  0  0  0  0  0  0  0  0  0  0  0
   98.0622    8.0342  -91.4851 C   0  0  0  0  0  0  0  0  0  0  0  0
   99.2636    4.2026  -90.4128 C   0  0  0  0  0  0  0  0  0  0  0  0
  100.5432    5.0818  -91.0197 C   0  0  0  0  0  0  0  0  0  0  0  0
  102.3161    2.3707  -92.6004 O   0  0  0  0  0  0  0  0  0  0  0  0
  103.2507    2.6511  -90.6165 O   0  0  0  0  0  0  0  0  0  0  0  0
   99.4697   11.4605  -91.5474 O   0  0  0  0  0  0  0  0  0  0  0  0
  1  2  2  0
  2  3  1  0
  3  4  1  0
  4  5  2  0
  5  6  1  0
  3  7  1  0
  7  8  1  0
  5  9  1  0
  9 10  1  0
  8 11  2  0
  4 12  1  0
 11 12  1  0
  2 13  1  0
  6 13  2  0
  8 14  1  0
 11 15  1  0
 15 16  1  0
 16 17  2  0
 10 18  1  0
 14 19  1  0
 15 19  1  0
 19 20  2  0
 18 21  1  0
 20 22  1  0
 18 23  1  0
 17 24  1  0
 24 25  1  0
 22 26  2  0
 17 27  1  0
 20 27  1  0
 25 28  1  0
 16 29  1  0
 28 29  1  0
 21 30  2  0
 21 31  1  0
 22 32  1  0
M  END
>  <ID>  (1) 
conformer_0

$$$$
