
     RDKit          3D

 17 19  0  0  0  0  0  0  0  0999 V2000
   98.1904   10.1848  -91.0520 C   0  0  0  0  0  0  0  0  0  0  0  0
   98.5398    8.9952  -91.1438 C   0  0  0  0  0  0  0  0  0  0  0  0
   97.6295    7.9224  -91.1585 C   0  0  0  0  0  0  0  0  0  0  0  0
   98.1670    6.6522  -91.3117 C   0  0  0  0  0  0  0  0  0  0  0  0
   99.9362    8.7191  -91.2441 C   0  0  0  0  0  0  0  0  0  0  0  0
   96.8034   10.6189  -90.9186 F   0  0  0  0  0  0  0  0  0  0  0  0
  100.4144    7.4217  -91.3994 C   0  0  0  0  0  0  0  0  0  0  0  0
   99.5793    6.2888  -91.3659 C   0  0  0  0  0  0  0  0  0  0  0  0
  100.0601    4.8322  -91.5463 C   0  0  0  0  0  0  0  0  0  0  0  0
  100.8209    9.7810  -91.2436 C   0  0  0  0  0  0  0  0  0  0  0  0
   99.8353    4.2949  -92.4961 O   0  0  0  0  0  0  0  0  0  0  0  0
  102.2352    9.5953  -91.3910 C   0  0  0  0  0  0  0  0  0  0  0  0
  100.6730    4.3106  -90.5333 O   0  0  0  0  0  0  0  0  0  0  0  0
  102.7219    8.3074  -91.3855 C   0  0  0  0  0  0  0  0  0  0  0  0
  102.0051    7.2288  -91.3312 C   0  0  0  0  0  0  0  0  0  0  0  0
  100.2561   11.1794  -91.1382 C   0  0  0  0  0  0  0  0  0  0  0  0
   99.0184   11.4344  -90.9690 C   0  0  0  0  0  0  0  0  0  0  0  0
  1  2  2  0
  2  3  1  0
  3  4  2  0
  2  5  1  0
  1  6  1  0
  5  7  1  0
  4  8  1  0
  7  8  2  0
  8  9  1  0
  5 10  2  0
  9 11  2  0
 10 12  1  0
  9 13  1  0
 12 14  2  0
  7 15  1  0
 14 15  1  0
 10 16  1  0
  1 17  1  0
 16 17  2  0
M  END
>  <ID>  (1) 
conformer_0

$$$$
