
     RDKit          3D

 30 35  0  0  0  0  0  0  0  0999 V2000
  103.9751    9.2785  -91.6427 O   0  0  0  0  0  0  0  0  0  0  0  0
  102.9456    8.4949  -91.4221 C   0  0  0  0  0  0  0  0  0  0  0  0
  101.6353    8.7178  -91.5595 C   0  0  0  0  0  0  0  0  0  0  0  0
  103.1975    7.0163  -91.6487 C   0  0  0  0  0  0  0  0  0  0  0  0
  100.6134    7.8540  -91.4251 C   0  0  0  0  0  0  0  0  0  0  0  0
  105.1922    8.7553  -92.0459 C   0  0  0  0  0  0  0  0  0  0  0  0
  102.1428    6.1008  -91.5074 C   0  0  0  0  0  0  0  0  0  0  0  0
  100.8852    6.5226  -91.4098 C   0  0  0  0  0  0  0  0  0  0  0  0
  101.2760   10.1525  -91.3448 N   0  0  0  0  0  0  0  0  0  0  0  0
   99.8432    5.3866  -91.3729 C   0  0  0  0  0  0  0  0  0  0  0  0
   99.3593    8.6026  -91.3012 C   0  0  0  0  0  0  0  0  0  0  0  0
  104.5904    6.6026  -91.5731 N   0  0  0  0  0  0  0  0  0  0  0  0
  105.6022    7.5139  -91.7114 C   0  0  0  0  0  0  0  0  0  0  0  0
  106.1773    9.9549  -92.3188 C   0  0  0  0  0  0  0  0  0  0  0  0
  106.9253    7.0851  -91.9054 C   0  0  0  0  0  0  0  0  0  0  0  0
   98.0786    8.2848  -91.1579 C   0  0  0  0  0  0  0  0  0  0  0  0
   97.6774    7.0082  -90.8442 N   0  0  0  0  0  0  0  0  0  0  0  0
   98.2776    5.7723  -91.2839 C   0  0  0  0  0  0  0  0  0  0  0  0
  104.8286    5.2807  -91.0926 C   0  0  0  0  0  0  0  0  0  0  0  0
  103.9381    4.3584  -91.2541 O   0  0  0  0  0  0  0  0  0  0  0  0
  107.8256    8.0733  -92.3411 C   0  0  0  0  0  0  0  0  0  0  0  0
  105.7517    5.0432  -90.2170 O   0  0  0  0  0  0  0  0  0  0  0  0
  100.1322    4.8495  -90.1792 C   0  0  0  0  0  0  0  0  0  0  0  0
  101.1700    4.5121  -89.6595 O   0  0  0  0  0  0  0  0  0  0  0  0
   97.2030    9.2848  -90.8821 N   0  0  0  0  0  0  0  0  0  0  0  0
  107.2996    9.5046  -92.4879 C   0  0  0  0  0  0  0  0  0  0  0  0
   99.8781    9.9904  -91.3169 C   0  0  0  0  0  0  0  0  0  0  0  0
   98.8174   11.0646  -91.1208 C   0  0  0  0  0  0  0  0  0  0  0  0
   97.6853   10.5909  -90.8022 C   0  0  0  0  0  0  0  0  0  0  0  0
   99.0173    4.2056  -89.5548 O   0  0  0  0  0  0  0  0  0  0  0  0
  1  2  1  0
  2  3  1  0
  2  4  2  0
  3  5  2  0
  1  6  1  0
  4  7  1  0
  5  8  1  0
  7  8  2  0
  3  9  1  0
  8 10  1  0
  5 11  1  0
  4 12  1  0
  6 13  2  0
 12 13  1  0
  6 14  1  0
 13 15  1  0
 11 16  2  0
 16 17  1  0
 10 18  1  0
 17 18  1  0
 12 19  1  0
 19 20  1  0
 15 21  2  0
 19 22  2  0
 10 23  1  0
 23 24  2  0
 16 25  1  0
 14 26  2  0
 21 26  1  0
  9 27  2  0
 11 27  1  0
 27 28  1  0
 25 29  2  0
 28 29  1  0
 23 30  1  0
M  END
>  <ID>  (1) 
conformer_0

$$$$
