
     RDKit          3D

 20 24  0  0  0  0  0  0  0  0999 V2000
  103.3617    9.9504  -91.8697 O   0  0  0  0  0  0  0  0  0  0  0  0
  104.4140    9.2951  -91.7027 C   0  0  0  0  0  0  0  0  0  0  0  0
  105.6556    9.6911  -92.1425 C   0  0  0  0  0  0  0  0  0  0  0  0
  102.1757    9.2143  -91.4732 C   0  0  0  0  0  0  0  0  0  0  0  0
  100.8855    9.8159  -91.4829 C   0  0  0  0  0  0  0  0  0  0  0  0
  104.3488    7.9168  -91.2286 C   0  0  0  0  0  0  0  0  0  0  0  0
  102.3466    8.0085  -90.9362 C   0  0  0  0  0  0  0  0  0  0  0  0
  106.7783    9.0069  -92.1434 C   0  0  0  0  0  0  0  0  0  0  0  0
  103.2796    7.3270  -90.9571 C   0  0  0  0  0  0  0  0  0  0  0  0
  103.2952    5.9066  -90.3846 C   0  0  0  0  0  0  0  0  0  0  0  0
  105.6441    7.1688  -91.1441 C   0  0  0  0  0  0  0  0  0  0  0  0
  106.8391    7.7546  -91.6429 C   0  0  0  0  0  0  0  0  0  0  0  0
  100.5923   11.1397  -91.4830 C   0  0  0  0  0  0  0  0  0  0  0  0
   99.1693   11.4056  -91.3197 C   0  0  0  0  0  0  0  0  0  0  0  0
   99.8485    8.8083  -91.2228 C   0  0  0  0  0  0  0  0  0  0  0  0
   98.6139    9.2300  -91.1260 C   0  0  0  0  0  0  0  0  0  0  0  0
   98.2359   10.5280  -91.1701 C   0  0  0  0  0  0  0  0  0  0  0  0
  105.6847    5.8702  -90.6803 C   0  0  0  0  0  0  0  0  0  0  0  0
  104.4471    5.2667  -90.2998 N   0  0  0  0  0  0  0  0  0  0  0  0
  100.8875    7.3886  -90.6107 C   0  0  0  0  0  0  0  0  0  0  0  0
  1  2  1  0
  2  3  2  0
  1  4  1  0
  4  5  1  0
  2  6  1  0
  4  7  2  0
  3  8  1  0
  6  9  2  0
  7  9  1  0
  9 10  1  0
  6 11  1  0
  8 12  2  0
 11 12  1  0
  5 13  2  0
 13 14  1  0
  5 15  1  0
 15 16  2  0
 14 17  2  0
 16 17  1  0
 11 18  2  0
 10 19  2  0
 18 19  1  0
  7 20  1  0
 15 20  1  0
M  END
>  <ID>  (1) 
conformer_0

$$$$
