
     RDKit          3D

 16 18  0  0  0  0  0  0  0  0999 V2000
   98.1904   10.1848  -91.0520 C   0  0  0  0  0  0  0  0  0  0  0  0
   98.5398    8.9952  -91.1438 C   0  0  0  0  0  0  0  0  0  0  0  0
   97.6295    7.9224  -91.1585 C   0  0  0  0  0  0  0  0  0  0  0  0
   98.1670    6.6522  -91.3117 C   0  0  0  0  0  0  0  0  0  0  0  0
   97.2974    5.4570  -91.2278 C   0  0  0  0  0  0  0  0  0  0  0  0
   99.9336    8.6105  -90.9930 C   0  0  0  0  0  0  0  0  0  0  0  0
  100.8585    9.7403  -90.9409 C   0  0  0  0  0  0  0  0  0  0  0  0
   96.7768   10.5045  -91.0605 F   0  0  0  0  0  0  0  0  0  0  0  0
  100.3279    7.3227  -91.1984 C   0  0  0  0  0  0  0  0  0  0  0  0
   99.5176    6.3165  -91.2763 C   0  0  0  0  0  0  0  0  0  0  0  0
   97.9921    4.4107  -91.2294 C   0  0  0  0  0  0  0  0  0  0  0  0
  102.2199    9.4591  -91.0239 O   0  0  0  0  0  0  0  0  0  0  0  0
  100.3638   11.0295  -91.0073 C   0  0  0  0  0  0  0  0  0  0  0  0
   99.0622   11.2874  -91.0066 C   0  0  0  0  0  0  0  0  0  0  0  0
   99.7808    4.8801  -91.2531 S   0  0  0  0  0  0  0  0  0  0  0  0
  103.0303    9.3987  -91.9310 C   0  0  0  0  0  0  0  0  0  0  0  0
  1  2  2  0
  2  3  1  0
  3  4  2  0
  4  5  1  0
  2  6  1  0
  6  7  2  0
  1  8  1  0
  6  9  1  0
  4 10  1  0
  9 10  2  0
  5 11  2  0
  7 12  1  0
  7 13  1  0
  1 14  1  0
 13 14  2  0
 10 15  1  0
 11 15  1  0
 12 16  1  0
M  END
>  <ID>  (1) 
conformer_0

$$$$
