
     RDKit          3D

 34 39  0  0  0  0  0  0  0  0999 V2000
  103.3617    9.9504  -91.8697 O   0  0  0  0  0  0  0  0  0  0  0  0
  104.4140    9.2951  -91.7027 C   0  0  0  0  0  0  0  0  0  0  0  0
  105.6556    9.6911  -92.1425 C   0  0  0  0  0  0  0  0  0  0  0  0
  102.1757    9.2143  -91.4732 C   0  0  0  0  0  0  0  0  0  0  0  0
  100.8855    9.8159  -91.4829 C   0  0  0  0  0  0  0  0  0  0  0  0
  104.3488    7.9168  -91.2286 C   0  0  0  0  0  0  0  0  0  0  0  0
  102.3466    8.0085  -90.9362 C   0  0  0  0  0  0  0  0  0  0  0  0
  106.7783    9.0069  -92.1434 C   0  0  0  0  0  0  0  0  0  0  0  0
  103.2796    7.3270  -90.9571 C   0  0  0  0  0  0  0  0  0  0  0  0
  103.2952    5.9066  -90.3846 C   0  0  0  0  0  0  0  0  0  0  0  0
  103.1738    4.8519  -91.3497 C   0  0  0  0  0  0  0  0  0  0  0  0
  100.7937    7.5966  -90.7262 C   0  0  0  0  0  0  0  0  0  0  0  0
  100.4830   11.0529  -91.5334 C   0  0  0  0  0  0  0  0  0  0  0  0
  102.1307    4.5391  -91.8776 O   0  0  0  0  0  0  0  0  0  0  0  0
  100.2844    6.4013  -90.3214 C   0  0  0  0  0  0  0  0  0  0  0  0
   99.2342    5.8420  -90.9766 N   0  0  0  0  0  0  0  0  0  0  0  0
  100.0707    8.7920  -90.9869 C   0  0  0  0  0  0  0  0  0  0  0  0
  107.9311    9.6422  -92.6892 O   0  0  0  0  0  0  0  0  0  0  0  0
  104.3911    4.1863  -91.7502 C   0  0  0  0  0  0  0  0  0  0  0  0
   99.1366   11.3700  -91.2948 C   0  0  0  0  0  0  0  0  0  0  0  0
  102.2596    3.5597  -92.8346 C   0  0  0  0  0  0  0  0  0  0  0  0
  105.6332    7.1674  -91.3022 C   0  0  0  0  0  0  0  0  0  0  0  0
   98.6610    4.6969  -90.5278 C   0  0  0  0  0  0  0  0  0  0  0  0
  106.8270    7.7847  -91.7984 C   0  0  0  0  0  0  0  0  0  0  0  0
   98.7059    9.0345  -90.8106 C   0  0  0  0  0  0  0  0  0  0  0  0
   98.0759    4.0082  -91.4171 O   0  0  0  0  0  0  0  0  0  0  0  0
   98.5549    4.4417  -89.1697 C   0  0  0  0  0  0  0  0  0  0  0  0
  105.6694    4.0896  -91.5386 C   0  0  0  0  0  0  0  0  0  0  0  0
  106.3570    5.0282  -91.0701 O   0  0  0  0  0  0  0  0  0  0  0  0
   98.2478   10.3315  -90.9531 C   0  0  0  0  0  0  0  0  0  0  0  0
  103.6533    3.3013  -92.7977 O   0  0  0  0  0  0  0  0  0  0  0  0
  106.4327    3.1628  -92.2305 C   0  0  0  0  0  0  0  0  0  0  0  0
  105.8154    6.1107  -90.7077 C   0  0  0  0  0  0  0  0  0  0  0  0
   96.9757   10.5288  -90.7480 O   0  0  0  0  0  0  0  0  0  0  0  0
  1  2  1  0
  2  3  2  0
  1  4  1  0
  4  5  1  0
  2  6  1  0
  4  7  2  0
  3  8  1  0
  6  9  2  0
  7  9  1  0
  9 10  1  0
 10 11  1  0
  7 12  1  0
  5 13  2  0
 11 14  1  0
 12 15  1  0
 15 16  2  3
  5 17  1  0
 12 17  2  0
  8 18  1  0
 11 19  2  0
 13 20  1  0
 14 21  1  0
  6 22  1  0
 16 23  1  0
  8 24  2  0
 22 24  1  0
 17 25  1  0
 23 26  2  0
 23 27  1  0
 19 28  1  0
 28 29  1  0
 20 30  1  0
 25 30  1  0
 19 31  1  0
 21 31  1  0
 28 32  2  0
 22 33  2  0
 29 33  1  0
 30 34  2  0
M  END
>  <ID>  (1) 
conformer_0

$$$$
