
     RDKit          3D

 31 38  0  0  0  0  0  0  0  0999 V2000
  103.9751    9.2785  -91.6427 O   0  0  0  0  0  0  0  0  0  0  0  0
  102.9456    8.4949  -91.4221 C   0  0  0  0  0  0  0  0  0  0  0  0
  101.6353    8.7178  -91.5595 C   0  0  0  0  0  0  0  0  0  0  0  0
  103.1975    7.0163  -91.6487 C   0  0  0  0  0  0  0  0  0  0  0  0
  100.6134    7.8540  -91.4251 C   0  0  0  0  0  0  0  0  0  0  0  0
  105.1922    8.7553  -92.0459 C   0  0  0  0  0  0  0  0  0  0  0  0
  102.1428    6.1008  -91.5074 C   0  0  0  0  0  0  0  0  0  0  0  0
  100.8852    6.5226  -91.4098 C   0  0  0  0  0  0  0  0  0  0  0  0
  101.2760   10.1525  -91.3448 N   0  0  0  0  0  0  0  0  0  0  0  0
   99.8432    5.3866  -91.3729 C   0  0  0  0  0  0  0  0  0  0  0  0
   99.3593    8.6026  -91.3012 C   0  0  0  0  0  0  0  0  0  0  0  0
  104.5904    6.6026  -91.5731 N   0  0  0  0  0  0  0  0  0  0  0  0
  105.6022    7.5139  -91.7114 C   0  0  0  0  0  0  0  0  0  0  0  0
  106.1773    9.9549  -92.3188 C   0  0  0  0  0  0  0  0  0  0  0  0
  106.9253    7.0851  -91.9054 C   0  0  0  0  0  0  0  0  0  0  0  0
   98.0786    8.2848  -91.1579 C   0  0  0  0  0  0  0  0  0  0  0  0
   97.6774    7.0082  -90.8442 N   0  0  0  0  0  0  0  0  0  0  0  0
   98.2776    5.7723  -91.2839 C   0  0  0  0  0  0  0  0  0  0  0  0
  104.8286    5.2807  -91.0926 C   0  0  0  0  0  0  0  0  0  0  0  0
  103.9381    4.3584  -91.2541 O   0  0  0  0  0  0  0  0  0  0  0  0
  106.1246    4.8992  -91.1585 O   0  0  0  0  0  0  0  0  0  0  0  0
   99.9018   10.2541  -91.1642 C   0  0  0  0  0  0  0  0  0  0  0  0
   97.1970    9.3714  -90.9152 C   0  0  0  0  0  0  0  0  0  0  0  0
  107.8298    8.1265  -92.3175 C   0  0  0  0  0  0  0  0  0  0  0  0
   99.1534   11.0989  -91.1430 C   0  0  0  0  0  0  0  0  0  0  0  0
  100.1952    4.2196  -91.2869 C   0  0  0  0  0  0  0  0  0  0  0  0
   97.6495   10.7365  -90.9046 C   0  0  0  0  0  0  0  0  0  0  0  0
   97.4783    4.8226  -91.1995 O   0  0  0  0  0  0  0  0  0  0  0  0
  102.5603    4.6488  -91.2788 C   0  0  0  0  0  0  0  0  0  0  0  0
  101.6476    3.7501  -91.4902 C   0  0  0  0  0  0  0  0  0  0  0  0
  107.4835    9.4420  -92.4996 C   0  0  0  0  0  0  0  0  0  0  0  0
  1  2  1  0
  2  3  1  0
  2  4  2  0
  3  5  2  0
  1  6  1  0
  4  7  1  0
  5  8  1  0
  7  8  2  0
  3  9  1  0
  8 10  1  0
  5 11  1  0
  4 12  1  0
  6 13  2  0
 12 13  1  0
  6 14  1  0
 13 15  1  0
 11 16  2  0
 16 17  1  0
 10 18  1  0
 17 18  1  0
 12 19  1  0
 19 20  1  0
 19 21  2  0
  9 22  2  0
 11 22  1  0
 16 23  1  0
 15 24  2  0
 22 25  1  0
 10 26  2  0
 23 27  2  0
 25 27  2  0
 18 28  2  0
  7 29  1  0
 20 29  1  0
 26 30  1  0
 29 30  2  0
 14 31  2  0
 24 31  1  0
M  END
>  <ID>  (1) 
conformer_0

$$$$
