
     RDKit          3D

 27 30  0  0  0  0  0  0  0  0999 V2000
  103.9751    9.2785  -91.6427 O   0  0  0  0  0  0  0  0  0  0  0  0
  102.9456    8.4949  -91.4221 C   0  0  0  0  0  0  0  0  0  0  0  0
  101.6353    8.7178  -91.5595 C   0  0  0  0  0  0  0  0  0  0  0  0
  103.1975    7.0163  -91.6487 C   0  0  0  0  0  0  0  0  0  0  0  0
  100.6134    7.8540  -91.4251 C   0  0  0  0  0  0  0  0  0  0  0  0
  105.1922    8.7553  -92.0459 C   0  0  0  0  0  0  0  0  0  0  0  0
  102.1428    6.1008  -91.5074 C   0  0  0  0  0  0  0  0  0  0  0  0
  100.8852    6.5226  -91.4098 C   0  0  0  0  0  0  0  0  0  0  0  0
  101.2760   10.1525  -91.3448 N   0  0  0  0  0  0  0  0  0  0  0  0
   99.8432    5.3866  -91.3729 C   0  0  0  0  0  0  0  0  0  0  0  0
  100.0359   10.5229  -91.2348 C   0  0  0  0  0  0  0  0  0  0  0  0
  104.5945    6.6136  -91.5521 N   0  0  0  0  0  0  0  0  0  0  0  0
   99.2072    8.2793  -91.2843 C   0  0  0  0  0  0  0  0  0  0  0  0
  102.5282    4.5772  -91.6765 C   0  0  0  0  0  0  0  0  0  0  0  0
  102.8997    4.0539  -92.6769 O   0  0  0  0  0  0  0  0  0  0  0  0
  105.5372    7.5606  -91.6826 C   0  0  0  0  0  0  0  0  0  0  0  0
   98.9185    5.2238  -92.3691 C   0  0  0  0  0  0  0  0  0  0  0  0
   99.7302    4.6544  -90.2159 C   0  0  0  0  0  0  0  0  0  0  0  0
   98.6989    3.8356  -90.0219 C   0  0  0  0  0  0  0  0  0  0  0  0
   97.6771    3.9197  -91.1523 C   0  0  0  0  0  0  0  0  0  0  0  0
  106.0670    9.9427  -92.0352 O   0  0  0  0  0  0  0  0  0  0  0  0
  106.5925   10.0760  -93.3576 C   0  0  0  0  0  0  0  0  0  0  0  0
   98.9638    9.5797  -91.1221 C   0  0  0  0  0  0  0  0  0  0  0  0
  102.5502    3.9028  -90.5479 O   0  0  0  0  0  0  0  0  0  0  0  0
   99.6681   12.0432  -91.0582 C   0  0  0  0  0  0  0  0  0  0  0  0
   97.8293    4.5328  -92.2123 N   0  0  0  0  0  0  0  0  0  0  0  0
  106.9578    7.0636  -91.8924 C   0  0  0  0  0  0  0  0  0  0  0  0
  1  2  1  0
  2  3  1  0
  2  4  2  0
  3  5  2  0
  1  6  1  0
  4  7  1  0
  5  8  1  0
  7  8  2  0
  3  9  1  0
  8 10  1  0
  9 11  2  0
  4 12  1  0
  5 13  1  0
  7 14  1  0
 14 15  2  0
  6 16  1  0
 12 16  2  0
 10 17  2  0
 10 18  1  0
 18 19  2  0
 19 20  1  0
  6 21  1  0
 21 22  1  0
 11 23  1  0
 13 23  2  0
 14 24  1  0
 11 25  1  0
 17 26  1  0
 20 26  2  0
 16 27  1  0
M  END
>  <ID>  (1) 
conformer_0

$$$$
