
     RDKit          3D

 33 39  0  0  0  0  0  0  0  0999 V2000
  103.3617    9.9504  -91.8697 O   0  0  0  0  0  0  0  0  0  0  0  0
  104.4140    9.2951  -91.7027 C   0  0  0  0  0  0  0  0  0  0  0  0
  105.6556    9.6911  -92.1425 C   0  0  0  0  0  0  0  0  0  0  0  0
  102.1757    9.2143  -91.4732 C   0  0  0  0  0  0  0  0  0  0  0  0
  100.8855    9.8159  -91.4829 C   0  0  0  0  0  0  0  0  0  0  0  0
  104.3488    7.9168  -91.2286 C   0  0  0  0  0  0  0  0  0  0  0  0
  102.3466    8.0085  -90.9362 C   0  0  0  0  0  0  0  0  0  0  0  0
  106.7783    9.0069  -92.1434 C   0  0  0  0  0  0  0  0  0  0  0  0
  103.2796    7.3270  -90.9571 C   0  0  0  0  0  0  0  0  0  0  0  0
  103.2952    5.9066  -90.3846 C   0  0  0  0  0  0  0  0  0  0  0  0
  103.1738    4.8519  -91.3497 C   0  0  0  0  0  0  0  0  0  0  0  0
  100.7937    7.5966  -90.7262 C   0  0  0  0  0  0  0  0  0  0  0  0
  100.4830   11.0529  -91.5334 C   0  0  0  0  0  0  0  0  0  0  0  0
  102.1307    4.5391  -91.8776 O   0  0  0  0  0  0  0  0  0  0  0  0
  100.2844    6.4013  -90.3214 C   0  0  0  0  0  0  0  0  0  0  0  0
  107.9109    9.6767  -92.6834 O   0  0  0  0  0  0  0  0  0  0  0  0
  100.1013    5.3833  -91.1851 N   0  0  0  0  0  0  0  0  0  0  0  0
   99.1445    6.4072  -89.4935 C   0  0  0  0  0  0  0  0  0  0  0  0
  105.6037    7.1389  -91.3046 C   0  0  0  0  0  0  0  0  0  0  0  0
   98.3021    5.2688  -89.3839 C   0  0  0  0  0  0  0  0  0  0  0  0
  105.6041    5.7766  -90.9443 C   0  0  0  0  0  0  0  0  0  0  0  0
  105.8639    5.5508  -89.6962 O   0  0  0  0  0  0  0  0  0  0  0  0
  100.0939    8.7821  -90.9417 C   0  0  0  0  0  0  0  0  0  0  0  0
  106.8107    7.7774  -91.7672 C   0  0  0  0  0  0  0  0  0  0  0  0
   98.7020    9.2557  -90.8672 C   0  0  0  0  0  0  0  0  0  0  0  0
   99.1371   11.3909  -91.3940 C   0  0  0  0  0  0  0  0  0  0  0  0
   97.7450    8.1743  -90.4234 O   0  0  0  0  0  0  0  0  0  0  0  0
   98.2455   10.4961  -90.9518 C   0  0  0  0  0  0  0  0  0  0  0  0
   98.6768    4.3717  -90.1414 C   0  0  0  0  0  0  0  0  0  0  0  0
   99.4678    4.3375  -91.1221 C   0  0  0  0  0  0  0  0  0  0  0  0
  101.2450    5.4412  -92.2609 C   0  0  0  0  0  0  0  0  0  0  0  0
  104.6786    4.8515  -91.4163 C   0  0  0  0  0  0  0  0  0  0  0  0
  105.0547    3.8641  -92.2649 O   0  0  0  0  0  0  0  0  0  0  0  0
  1  2  1  0
  2  3  2  0
  1  4  1  0
  4  5  1  0
  2  6  1  0
  4  7  2  0
  3  8  1  0
  6  9  2  0
  7  9  1  0
  9 10  1  0
 10 11  1  0
  7 12  1  0
  5 13  2  0
 11 14  1  0
 12 15  1  0
  8 16  1  0
 15 17  1  0
 15 18  2  0
  6 19  1  0
 18 20  1  0
 19 21  1  0
 21 22  2  0
  5 23  1  0
 12 23  2  0
  8 24  2  0
 19 24  1  0
 23 25  1  0
 13 26  1  0
 25 27  2  0
 25 28  1  0
 26 28  2  0
 20 29  2  0
 17 30  1  0
 29 30  1  0
 14 31  1  0
 17 31  1  0
 11 32  1  0
 21 32  1  0
 32 33  2  0
M  END
>  <ID>  (1) 
conformer_0

$$$$
