
     RDKit          3D

 33 40  0  0  0  0  0  0  0  0999 V2000
  103.3617    9.9504  -91.8697 O   0  0  0  0  0  0  0  0  0  0  0  0
  104.4140    9.2951  -91.7027 C   0  0  0  0  0  0  0  0  0  0  0  0
  105.6556    9.6911  -92.1425 C   0  0  0  0  0  0  0  0  0  0  0  0
  102.1757    9.2143  -91.4732 C   0  0  0  0  0  0  0  0  0  0  0  0
  100.8855    9.8159  -91.4829 C   0  0  0  0  0  0  0  0  0  0  0  0
  104.3488    7.9168  -91.2286 C   0  0  0  0  0  0  0  0  0  0  0  0
  102.3466    8.0085  -90.9362 C   0  0  0  0  0  0  0  0  0  0  0  0
  106.7783    9.0069  -92.1434 C   0  0  0  0  0  0  0  0  0  0  0  0
  103.2796    7.3270  -90.9571 C   0  0  0  0  0  0  0  0  0  0  0  0
  103.2952    5.9066  -90.3846 C   0  0  0  0  0  0  0  0  0  0  0  0
  103.1738    4.8519  -91.3497 C   0  0  0  0  0  0  0  0  0  0  0  0
  100.7937    7.5966  -90.7262 C   0  0  0  0  0  0  0  0  0  0  0  0
  100.4830   11.0529  -91.5334 C   0  0  0  0  0  0  0  0  0  0  0  0
  102.1307    4.5391  -91.8776 O   0  0  0  0  0  0  0  0  0  0  0  0
  100.2844    6.4013  -90.3214 C   0  0  0  0  0  0  0  0  0  0  0  0
  107.9109    9.6767  -92.6834 O   0  0  0  0  0  0  0  0  0  0  0  0
  100.1013    5.3833  -91.1851 N   0  0  0  0  0  0  0  0  0  0  0  0
   99.1445    6.4072  -89.4935 C   0  0  0  0  0  0  0  0  0  0  0  0
  105.6037    7.1389  -91.3046 C   0  0  0  0  0  0  0  0  0  0  0  0
   98.3021    5.2688  -89.3839 C   0  0  0  0  0  0  0  0  0  0  0  0
  105.6041    5.7766  -90.9443 C   0  0  0  0  0  0  0  0  0  0  0  0
   99.1217    4.4976  -90.9423 C   0  0  0  0  0  0  0  0  0  0  0  0
  101.0595    5.0151  -92.2336 C   0  0  0  0  0  0  0  0  0  0  0  0
  104.8529    4.8425  -91.6791 C   0  0  0  0  0  0  0  0  0  0  0  0
  100.5697    4.5760  -93.4764 O   0  0  0  0  0  0  0  0  0  0  0  0
  100.1301    8.7659  -90.7904 C   0  0  0  0  0  0  0  0  0  0  0  0
  106.7948    7.7621  -91.7781 C   0  0  0  0  0  0  0  0  0  0  0  0
   98.6975    8.8091  -90.4016 C   0  0  0  0  0  0  0  0  0  0  0  0
   98.2669    7.6773  -89.7426 C   0  0  0  0  0  0  0  0  0  0  0  0
  105.0574    3.7547  -92.2288 O   0  0  0  0  0  0  0  0  0  0  0  0
   99.0466   11.2306  -91.2177 C   0  0  0  0  0  0  0  0  0  0  0  0
   98.1997   10.0973  -90.5332 C   0  0  0  0  0  0  0  0  0  0  0  0
   97.1434   10.2411  -90.5834 O   0  0  0  0  0  0  0  0  0  0  0  0
  1  2  1  0
  2  3  2  0
  1  4  1  0
  4  5  1  0
  2  6  1  0
  4  7  2  0
  3  8  1  0
  6  9  2  0
  7  9  1  0
  9 10  1  0
 10 11  1  0
  7 12  1  0
  5 13  2  0
 11 14  1  0
 12 15  1  0
  8 16  1  0
 15 17  1  0
 15 18  2  0
  6 19  1  0
 18 20  1  0
 19 21  1  0
 17 22  1  0
 20 22  1  0
 14 23  1  0
 17 23  1  0
 11 24  1  0
 21 24  1  0
 23 25  2  0
  5 26  1  0
 12 26  2  0
  8 27  2  0
 19 27  1  0
 26 28  1  0
 18 29  1  0
 28 29  1  0
 24 30  1  0
 13 31  1  0
 28 32  1  0
 31 32  1  0
 32 33  2  0
M  END
>  <ID>  (1) 
conformer_0

$$$$
