
     RDKit          3D

 35 43  0  0  0  0  0  0  0  0999 V2000
  103.3617    9.9504  -91.8697 O   0  0  0  0  0  0  0  0  0  0  0  0
  104.4140    9.2951  -91.7027 C   0  0  0  0  0  0  0  0  0  0  0  0
  105.6556    9.6911  -92.1425 C   0  0  0  0  0  0  0  0  0  0  0  0
  102.1757    9.2143  -91.4732 C   0  0  0  0  0  0  0  0  0  0  0  0
  106.7242    8.6840  -92.1210 C   0  0  0  0  0  0  0  0  0  0  0  0
  104.2962    7.8227  -91.4366 C   0  0  0  0  0  0  0  0  0  0  0  0
  106.5861    7.4827  -91.8465 C   0  0  0  0  0  0  0  0  0  0  0  0
  102.9582    7.4602  -91.0254 C   0  0  0  0  0  0  0  0  0  0  0  0
  101.9707    8.1514  -91.1735 C   0  0  0  0  0  0  0  0  0  0  0  0
  105.3193    6.9557  -91.4033 C   0  0  0  0  0  0  0  0  0  0  0  0
  100.8843   10.2478  -91.5333 C   0  0  0  0  0  0  0  0  0  0  0  0
  102.8516    5.9064  -90.9641 C   0  0  0  0  0  0  0  0  0  0  0  0
   99.9001    9.3952  -91.0656 C   0  0  0  0  0  0  0  0  0  0  0  0
   99.9222    7.9867  -90.7518 C   0  0  0  0  0  0  0  0  0  0  0  0
   98.5796   10.1054  -90.8794 C   0  0  0  0  0  0  0  0  0  0  0  0
  103.9156    5.1767  -90.8451 C   0  0  0  0  0  0  0  0  0  0  0  0
   98.7046    7.3693  -90.3862 C   0  0  0  0  0  0  0  0  0  0  0  0
   97.5067    9.5019  -90.4709 C   0  0  0  0  0  0  0  0  0  0  0  0
  100.9009    7.3363  -90.7207 C   0  0  0  0  0  0  0  0  0  0  0  0
   98.6066    6.0351  -90.1263 C   0  0  0  0  0  0  0  0  0  0  0  0
   96.3141   10.3052  -90.3003 C   0  0  0  0  0  0  0  0  0  0  0  0
   99.6511    5.2987  -90.5386 C   0  0  0  0  0  0  0  0  0  0  0  0
  105.2142    5.7289  -90.9569 N   0  0  0  0  0  0  0  0  0  0  0  0
  101.0152    5.8837  -90.4873 C   0  0  0  0  0  0  0  0  0  0  0  0
  103.6625    3.8725  -91.2533 C   0  0  0  0  0  0  0  0  0  0  0  0
  104.6478    2.9144  -91.3513 O   0  0  0  0  0  0  0  0  0  0  0  0
   97.5664    8.0657  -90.2421 C   0  0  0  0  0  0  0  0  0  0  0  0
  101.8911    5.2716  -90.6309 C   0  0  0  0  0  0  0  0  0  0  0  0
  102.4009    3.7709  -90.9588 C   0  0  0  0  0  0  0  0  0  0  0  0
   98.5950   11.4587  -91.1590 C   0  0  0  0  0  0  0  0  0  0  0  0
   96.3144   11.5292  -90.5738 C   0  0  0  0  0  0  0  0  0  0  0  0
  104.8283    2.4554  -92.6886 C   0  0  0  0  0  0  0  0  0  0  0  0
  103.9982    1.8710  -93.3384 O   0  0  0  0  0  0  0  0  0  0  0  0
  106.3212    2.2456  -93.0189 O   0  0  0  0  0  0  0  0  0  0  0  0
   97.4404   12.1723  -91.0256 C   0  0  0  0  0  0  0  0  0  0  0  0
  1  2  1  0
  2  3  2  0
  1  4  1  0
  3  5  1  0
  2  6  1  0
  5  7  2  0
  6  8  1  0
  4  9  2  0
  8  9  1  0
  6 10  2  0
  7 10  1  0
  4 11  1  0
  8 12  2  0
 11 13  2  0
 13 14  1  0
 13 15  1  0
 12 16  1  0
 14 17  1  0
 15 18  2  0
  9 19  1  0
 14 19  2  0
 17 20  1  0
 18 21  1  0
 20 22  2  0
 10 23  1  0
 16 23  1  0
 19 24  1  0
 22 24  1  0
 16 25  1  0
 25 26  1  0
 17 27  2  0
 18 27  1  0
 12 28  1  0
 24 28  2  0
 25 29  2  0
 28 29  1  0
 15 30  1  0
 21 31  2  0
 26 32  1  0
 32 33  2  0
 32 34  1  0
 30 35  2  0
 31 35  1  0
M  END
>  <ID>  (1) 
conformer_0

$$$$
