
     RDKit          3D

 18 20  0  0  0  0  0  0  0  0999 V2000
  103.9751    9.2785  -91.6427 O   0  0  0  0  0  0  0  0  0  0  0  0
  102.9456    8.4949  -91.4221 C   0  0  0  0  0  0  0  0  0  0  0  0
  101.6353    8.7178  -91.5595 C   0  0  0  0  0  0  0  0  0  0  0  0
  103.1975    7.0163  -91.6487 C   0  0  0  0  0  0  0  0  0  0  0  0
  100.6134    7.8540  -91.4251 C   0  0  0  0  0  0  0  0  0  0  0  0
  105.1922    8.7553  -92.0459 C   0  0  0  0  0  0  0  0  0  0  0  0
   99.1855    8.3582  -91.3295 C   0  0  0  0  0  0  0  0  0  0  0  0
  100.8341    6.5372  -91.2663 C   0  0  0  0  0  0  0  0  0  0  0  0
  102.2133    6.1063  -91.4340 C   0  0  0  0  0  0  0  0  0  0  0  0
  104.5574    6.6602  -91.4764 N   0  0  0  0  0  0  0  0  0  0  0  0
  105.5337    7.4995  -91.7206 C   0  0  0  0  0  0  0  0  0  0  0  0
   98.9495    9.6656  -90.9992 C   0  0  0  0  0  0  0  0  0  0  0  0
   97.5636   10.0441  -90.8883 C   0  0  0  0  0  0  0  0  0  0  0  0
  102.5643    4.5678  -91.3781 C   0  0  0  0  0  0  0  0  0  0  0  0
  102.6944    3.9458  -92.4983 O   0  0  0  0  0  0  0  0  0  0  0  0
   99.9673   10.6072  -90.7162 C   0  0  0  0  0  0  0  0  0  0  0  0
  102.9117    4.0592  -90.2812 O   0  0  0  0  0  0  0  0  0  0  0  0
  101.3555   10.2210  -91.5639 C   0  0  0  0  0  0  0  0  0  0  0  0
  1  2  1  0
  2  3  1  0
  2  4  2  0
  3  5  2  0
  1  6  1  0
  5  7  1  0
  5  8  1  0
  4  9  1  0
  8  9  2  0
  4 10  1  0
  6 11  2  0
 10 11  1  0
  7 12  2  0
 12 13  1  0
  9 14  1  0
 14 15  2  0
 12 16  1  0
 14 17  1  0
  3 18  1  0
 16 18  1  0
M  END
>  <ID>  (1) 
conformer_0

$$$$
