
     RDKit          3D

 32 35  0  0  0  0  0  0  0  0999 V2000
  103.3617    9.9504  -91.8697 O   0  0  0  0  0  0  0  0  0  0  0  0
  104.4140    9.2951  -91.7027 C   0  0  0  0  0  0  0  0  0  0  0  0
  105.6556    9.6911  -92.1425 C   0  0  0  0  0  0  0  0  0  0  0  0
  102.1757    9.2143  -91.4732 C   0  0  0  0  0  0  0  0  0  0  0  0
  100.8855    9.8159  -91.4829 C   0  0  0  0  0  0  0  0  0  0  0  0
  104.3488    7.9168  -91.2286 C   0  0  0  0  0  0  0  0  0  0  0  0
  102.3466    8.0085  -90.9362 C   0  0  0  0  0  0  0  0  0  0  0  0
  106.7783    9.0069  -92.1434 C   0  0  0  0  0  0  0  0  0  0  0  0
  103.2796    7.3270  -90.9571 C   0  0  0  0  0  0  0  0  0  0  0  0
  103.2952    5.9066  -90.3846 C   0  0  0  0  0  0  0  0  0  0  0  0
  103.1738    4.8519  -91.3497 C   0  0  0  0  0  0  0  0  0  0  0  0
  100.7937    7.5966  -90.7262 C   0  0  0  0  0  0  0  0  0  0  0  0
  100.4830   11.0529  -91.5334 C   0  0  0  0  0  0  0  0  0  0  0  0
  100.2967    6.3991  -90.3039 C   0  0  0  0  0  0  0  0  0  0  0  0
  105.6822    7.1899  -91.3387 C   0  0  0  0  0  0  0  0  0  0  0  0
  100.0088    8.7422  -90.9519 C   0  0  0  0  0  0  0  0  0  0  0  0
  103.6309    3.6369  -91.1185 O   0  0  0  0  0  0  0  0  0  0  0  0
   99.7671    5.5975  -90.8826 N   0  0  0  0  0  0  0  0  0  0  0  0
   98.7046    9.2251  -90.8900 C   0  0  0  0  0  0  0  0  0  0  0  0
   98.2330   10.3564  -91.0142 C   0  0  0  0  0  0  0  0  0  0  0  0
  102.5974    4.9927  -92.4489 O   0  0  0  0  0  0  0  0  0  0  0  0
   99.2805    4.3922  -90.4980 C   0  0  0  0  0  0  0  0  0  0  0  0
  104.0405    2.7625  -92.2006 C   0  0  0  0  0  0  0  0  0  0  0  0
  105.6411    2.7590  -92.2037 C   0  0  0  0  0  0  0  0  0  0  0  0
  105.6852    5.7763  -90.9061 O   0  0  0  0  0  0  0  0  0  0  0  0
   97.9010    4.1574  -90.7324 C   0  0  0  0  0  0  0  0  0  0  0  0
  107.9593    9.7496  -92.6399 O   0  0  0  0  0  0  0  0  0  0  0  0
  106.9100    7.7448  -91.7929 C   0  0  0  0  0  0  0  0  0  0  0  0
   99.1565   11.3493  -91.4076 C   0  0  0  0  0  0  0  0  0  0  0  0
  103.5326    1.3342  -91.6736 C   0  0  0  0  0  0  0  0  0  0  0  0
  106.0226    2.4851  -93.3416 O   0  0  0  0  0  0  0  0  0  0  0  0
  106.2806    3.2643  -91.3305 O   0  0  0  0  0  0  0  0  0  0  0  0
  1  2  1  0
  2  3  2  0
  1  4  1  0
  4  5  1  0
  2  6  1  0
  4  7  2  0
  3  8  1  0
  6  9  2  0
  7  9  1  0
  9 10  1  0
 10 11  1  0
  7 12  1  0
  5 13  2  0
 12 14  1  0
  6 15  1  0
  5 16  1  0
 12 16  2  0
 11 17  1  0
 14 18  2  3
 16 19  1  0
 19 20  1  0
 11 21  2  0
 18 22  1  0
 17 23  1  0
 23 24  1  0
 15 25  1  0
 22 26  1  0
  8 27  1  0
  8 28  2  0
 15 28  2  0
 13 29  1  0
 20 29  2  0
 23 30  1  0
 24 31  2  0
 24 32  1  0
M  END
>  <ID>  (1) 
conformer_0

$$$$
