
     RDKit          3D

 21 23  0  0  0  0  0  0  0  0999 V2000
   99.1772   10.3111  -91.4903 C   0  0  0  0  0  0  0  0  0  0  0  0
   99.0150    9.1103  -91.2424 C   0  0  0  0  0  0  0  0  0  0  0  0
   98.1543   11.2749  -91.4521 C   0  0  0  0  0  0  0  0  0  0  0  0
   97.8638    8.6619  -90.5373 C   0  0  0  0  0  0  0  0  0  0  0  0
  100.1252    8.0973  -91.4255 C   0  0  0  0  0  0  0  0  0  0  0  0
   98.3598   12.6404  -91.7649 O   0  0  0  0  0  0  0  0  0  0  0  0
   96.9951   10.8706  -90.7371 C   0  0  0  0  0  0  0  0  0  0  0  0
   99.9847    6.7437  -91.5770 C   0  0  0  0  0  0  0  0  0  0  0  0
  101.4137    8.6597  -91.5806 C   0  0  0  0  0  0  0  0  0  0  0  0
   98.7226    6.0554  -91.4745 C   0  0  0  0  0  0  0  0  0  0  0  0
   98.7363    4.7633  -91.8118 C   0  0  0  0  0  0  0  0  0  0  0  0
  102.4376    7.7505  -91.7398 N   0  0  0  0  0  0  0  0  0  0  0  0
   98.7447    3.8653  -90.9817 O   0  0  0  0  0  0  0  0  0  0  0  0
  101.1713    5.9304  -91.2711 C   0  0  0  0  0  0  0  0  0  0  0  0
  102.4513    6.5360  -91.2916 C   0  0  0  0  0  0  0  0  0  0  0  0
   98.7147    4.4503  -93.0391 O   0  0  0  0  0  0  0  0  0  0  0  0
   96.0068   11.7921  -90.5085 O   0  0  0  0  0  0  0  0  0  0  0  0
   97.6225    7.3147  -90.0967 C   0  0  0  0  0  0  0  0  0  0  0  0
   96.7613    9.5805  -90.2583 C   0  0  0  0  0  0  0  0  0  0  0  0
  103.2662    6.3421  -90.3173 O   0  0  0  0  0  0  0  0  0  0  0  0
   97.7083    6.3072  -90.7183 N   0  0  0  0  0  0  0  0  0  0  0  0
  1  2  1  0
  1  3  2  0
  2  4  2  0
  2  5  1  0
  3  6  1  0
  3  7  1  0
  5  8  2  0
  5  9  1  0
  8 10  1  0
 10 11  1  0
  9 12  1  0
 11 13  2  0
  8 14  1  0
 12 15  1  0
 14 15  1  0
 11 16  1  0
  7 17  1  0
  4 18  1  0
  4 19  1  0
  7 19  2  0
 15 20  2  0
 10 21  1  0
 18 21  1  0
M  END
>  <ID>  (1) 
conformer_0

$$$$
