
     RDKit          3D

 24 26  0  0  0  0  0  0  0  0999 V2000
   99.7272   10.5583  -91.5465 C   0  0  0  0  0  0  0  0  0  0  0  0
  100.6343    9.7203  -91.2298 C   0  0  0  0  0  0  0  0  0  0  0  0
  101.9666    9.8583  -91.3547 O   0  0  0  0  0  0  0  0  0  0  0  0
  100.2674    8.3348  -90.8438 C   0  0  0  0  0  0  0  0  0  0  0  0
  101.3421    7.3863  -90.6018 O   0  0  0  0  0  0  0  0  0  0  0  0
  101.3094    6.1110  -91.2018 C   0  0  0  0  0  0  0  0  0  0  0  0
  100.0215   11.8941  -91.7966 O   0  0  0  0  0  0  0  0  0  0  0  0
  102.3995    5.3215  -90.9718 C   0  0  0  0  0  0  0  0  0  0  0  0
  102.4572    4.1130  -91.7380 O   0  0  0  0  0  0  0  0  0  0  0  0
   98.4013   10.2528  -91.3985 C   0  0  0  0  0  0  0  0  0  0  0  0
  100.1074    5.3546  -90.9438 C   0  0  0  0  0  0  0  0  0  0  0  0
  103.2937    5.3906  -89.8486 C   0  0  0  0  0  0  0  0  0  0  0  0
   99.1453    5.1332  -91.9406 C   0  0  0  0  0  0  0  0  0  0  0  0
  104.3917    4.8389  -90.0002 O   0  0  0  0  0  0  0  0  0  0  0  0
  105.0078    4.7049  -91.4003 C   0  0  0  0  0  0  0  0  0  0  0  0
  106.2987    4.1448  -91.5854 C   0  0  0  0  0  0  0  0  0  0  0  0
   99.2499    6.0152  -89.8643 O   0  0  0  0  0  0  0  0  0  0  0  0
   98.9881    8.0865  -90.7418 C   0  0  0  0  0  0  0  0  0  0  0  0
   98.0919    4.2436  -91.5853 C   0  0  0  0  0  0  0  0  0  0  0  0
  103.9267    3.5732  -92.0049 C   0  0  0  0  0  0  0  0  0  0  0  0
   98.5584    4.8660  -89.2305 C   0  0  0  0  0  0  0  0  0  0  0  0
   97.6502    4.2768  -90.1298 C   0  0  0  0  0  0  0  0  0  0  0  0
   98.0018    9.0304  -90.9599 C   0  0  0  0  0  0  0  0  0  0  0  0
  106.4831    3.1841  -92.4181 O   0  0  0  0  0  0  0  0  0  0  0  0
  1  2  2  0
  2  3  1  0
  2  4  1  0
  4  5  1  0
  5  6  1  0
  1  7  1  0
  6  8  1  0
  8  9  1  0
  1 10  1  0
  6 11  1  0
  8 12  2  0
 11 13  1  0
 12 14  1  0
 14 15  1  0
 15 16  1  0
 11 17  1  0
  4 18  2  0
 13 19  1  0
  9 20  1  0
 15 20  1  0
 17 21  1  0
 19 22  1  0
 21 22  1  0
 10 23  2  0
 18 23  1  0
 16 24  1  0
M  END
>  <ID>  (1) 
conformer_0

$$$$
