
     RDKit          3D

 14 15  0  0  0  0  0  0  0  0999 V2000
   98.1472   11.5066  -91.4360 C   0  0  0  0  0  0  0  0  0  0  0  0
   97.7034   10.4358  -90.9807 C   0  0  0  0  0  0  0  0  0  0  0  0
   98.7129    9.3418  -90.9035 C   0  0  0  0  0  0  0  0  0  0  0  0
   98.3097    8.0354  -90.4763 C   0  0  0  0  0  0  0  0  0  0  0  0
  100.0760    9.4793  -90.9885 C   0  0  0  0  0  0  0  0  0  0  0  0
  101.0098    8.4216  -90.8766 C   0  0  0  0  0  0  0  0  0  0  0  0
   99.5248   11.7922  -91.6268 C   0  0  0  0  0  0  0  0  0  0  0  0
  100.5438    7.1895  -90.6386 C   0  0  0  0  0  0  0  0  0  0  0  0
  100.5816   10.7569  -91.4389 C   0  0  0  0  0  0  0  0  0  0  0  0
   99.2057    6.9445  -90.4352 C   0  0  0  0  0  0  0  0  0  0  0  0
   98.8734    5.6706  -90.3223 N   0  0  0  0  0  0  0  0  0  0  0  0
   98.6407    5.0855  -89.1530 C   0  0  0  0  0  0  0  0  0  0  0  0
   98.9786    5.5775  -88.0759 O   0  0  0  0  0  0  0  0  0  0  0  0
   98.5248    3.6267  -89.2428 O   0  0  0  0  0  0  0  0  0  0  0  0
  1  2  1  0
  2  3  2  0
  3  4  1  0
  3  5  1  0
  5  6  1  0
  1  7  2  0
  6  8  2  0
  5  9  2  0
  7  9  1  0
  4 10  2  0
  8 10  1  0
 10 11  1  0
 11 12  1  0
 12 13  2  0
 12 14  1  0
M  END
>  <ID>  (1) 
conformer_0

$$$$
