
     RDKit          3D

 30 34  0  0  0  0  0  0  0  0999 V2000
   98.1904   10.1848  -91.0520 C   0  0  0  0  0  0  0  0  0  0  0  0
   98.5398    8.9952  -91.1438 C   0  0  0  0  0  0  0  0  0  0  0  0
   97.6295    7.9224  -91.1585 C   0  0  0  0  0  0  0  0  0  0  0  0
   98.1670    6.6522  -91.3117 C   0  0  0  0  0  0  0  0  0  0  0  0
   99.9677    8.6342  -91.0618 C   0  0  0  0  0  0  0  0  0  0  0  0
   99.5550    6.3261  -91.3342 C   0  0  0  0  0  0  0  0  0  0  0  0
  100.0048    4.9006  -91.4360 C   0  0  0  0  0  0  0  0  0  0  0  0
  101.1911    4.5511  -90.6830 C   0  0  0  0  0  0  0  0  0  0  0  0
   98.9771   11.3156  -90.9606 C   0  0  0  0  0  0  0  0  0  0  0  0
  100.8547    9.8240  -91.0282 C   0  0  0  0  0  0  0  0  0  0  0  0
  100.4876    7.3759  -91.1510 C   0  0  0  0  0  0  0  0  0  0  0  0
  102.3116    9.6256  -91.1023 O   0  0  0  0  0  0  0  0  0  0  0  0
   98.4697   12.6245  -90.9237 O   0  0  0  0  0  0  0  0  0  0  0  0
  102.9553    8.5018  -91.2835 C   0  0  0  0  0  0  0  0  0  0  0  0
   99.2689    3.9899  -91.9058 C   0  0  0  0  0  0  0  0  0  0  0  0
  102.0199    3.7109  -91.4237 N   0  0  0  0  0  0  0  0  0  0  0  0
  104.2645    8.5885  -91.5951 C   0  0  0  0  0  0  0  0  0  0  0  0
  102.0235    7.2816  -91.1944 C   0  0  0  0  0  0  0  0  0  0  0  0
  101.3586    2.7891  -92.3026 C   0  0  0  0  0  0  0  0  0  0  0  0
  102.2262    1.8323  -92.8633 N   0  0  0  0  0  0  0  0  0  0  0  0
  100.0716    2.9375  -92.5660 N   0  0  0  0  0  0  0  0  0  0  0  0
  103.5863    1.8212  -92.4457 C   0  0  0  0  0  0  0  0  0  0  0  0
  104.5518    2.6865  -93.0550 C   0  0  0  0  0  0  0  0  0  0  0  0
  100.3919   11.1005  -90.9794 C   0  0  0  0  0  0  0  0  0  0  0  0
  105.3917    3.4285  -92.0916 C   0  0  0  0  0  0  0  0  0  0  0  0
  106.4184    3.9871  -92.4201 O   0  0  0  0  0  0  0  0  0  0  0  0
  105.1563    3.3023  -90.8643 O   0  0  0  0  0  0  0  0  0  0  0  0
  102.7846    6.1424  -91.3475 C   0  0  0  0  0  0  0  0  0  0  0  0
  104.9701    7.4226  -91.6305 C   0  0  0  0  0  0  0  0  0  0  0  0
  104.3728    6.2021  -91.4215 C   0  0  0  0  0  0  0  0  0  0  0  0
  1  2  2  0
  2  3  1  0
  3  4  2  0
  2  5  1  0
  4  6  1  0
  6  7  1  0
  7  8  1  0
  1  9  1  0
  5 10  2  0
  5 11  1  0
  6 11  2  0
 10 12  1  0
  9 13  1  0
 12 14  1  0
  7 15  2  0
  8 16  2  0
 14 17  2  0
 11 18  1  0
 14 18  1  0
 16 19  1  0
 19 20  1  0
 15 21  1  0
 19 21  2  0
 20 22  1  0
 22 23  1  0
  9 24  2  0
 10 24  1  0
 23 25  1  0
 25 26  2  0
 25 27  1  0
 18 28  2  0
 17 29  1  0
 28 30  1  0
 29 30  2  0
M  END
>  <ID>  (1) 
conformer_0

$$$$
