
     RDKit          3D

 35 43  0  0  0  0  0  0  0  0999 V2000
  103.9751    9.2785  -91.6427 O   0  0  0  0  0  0  0  0  0  0  0  0
  102.9456    8.4949  -91.4221 C   0  0  0  0  0  0  0  0  0  0  0  0
  101.6353    8.7178  -91.5595 C   0  0  0  0  0  0  0  0  0  0  0  0
  103.1975    7.0163  -91.6487 C   0  0  0  0  0  0  0  0  0  0  0  0
  100.6134    7.8540  -91.4251 C   0  0  0  0  0  0  0  0  0  0  0  0
  105.1922    8.7553  -92.0459 C   0  0  0  0  0  0  0  0  0  0  0  0
  102.1428    6.1008  -91.5074 C   0  0  0  0  0  0  0  0  0  0  0  0
  100.8852    6.5226  -91.4098 C   0  0  0  0  0  0  0  0  0  0  0  0
  101.2760   10.1525  -91.3448 N   0  0  0  0  0  0  0  0  0  0  0  0
   99.8432    5.3866  -91.3729 C   0  0  0  0  0  0  0  0  0  0  0  0
   99.3593    8.6026  -91.3012 C   0  0  0  0  0  0  0  0  0  0  0  0
  104.5904    6.6026  -91.5731 N   0  0  0  0  0  0  0  0  0  0  0  0
  105.6022    7.5139  -91.7114 C   0  0  0  0  0  0  0  0  0  0  0  0
  106.1773    9.9549  -92.3188 C   0  0  0  0  0  0  0  0  0  0  0  0
  106.9253    7.0851  -91.9054 C   0  0  0  0  0  0  0  0  0  0  0  0
   98.0786    8.2848  -91.1579 C   0  0  0  0  0  0  0  0  0  0  0  0
   97.6774    7.0082  -90.8442 N   0  0  0  0  0  0  0  0  0  0  0  0
   98.2776    5.7723  -91.2839 C   0  0  0  0  0  0  0  0  0  0  0  0
  104.8286    5.2807  -91.0926 C   0  0  0  0  0  0  0  0  0  0  0  0
  103.9381    4.3584  -91.2541 O   0  0  0  0  0  0  0  0  0  0  0  0
  107.8256    8.0733  -92.3411 C   0  0  0  0  0  0  0  0  0  0  0  0
   99.6070   10.0924  -91.4202 C   0  0  0  0  0  0  0  0  0  0  0  0
  100.1291    4.1807  -91.2519 C   0  0  0  0  0  0  0  0  0  0  0  0
  102.5923    4.7218  -91.3603 C   0  0  0  0  0  0  0  0  0  0  0  0
   98.7095   11.0607  -91.4638 C   0  0  0  0  0  0  0  0  0  0  0  0
  106.1150    4.6966  -91.6016 C   0  0  0  0  0  0  0  0  0  0  0  0
  107.1580    5.7234  -91.8047 C   0  0  0  0  0  0  0  0  0  0  0  0
  101.5709    3.8357  -91.2393 C   0  0  0  0  0  0  0  0  0  0  0  0
   99.2039   12.3657  -91.4799 N   0  0  0  0  0  0  0  0  0  0  0  0
  108.3811    5.3980  -91.8972 O   0  0  0  0  0  0  0  0  0  0  0  0
   97.1097    9.4403  -90.8307 C   0  0  0  0  0  0  0  0  0  0  0  0
  107.5075    9.3858  -92.4884 C   0  0  0  0  0  0  0  0  0  0  0  0
  105.8299    4.0185  -92.8004 O   0  0  0  0  0  0  0  0  0  0  0  0
   97.8026    4.8542  -91.9740 O   0  0  0  0  0  0  0  0  0  0  0  0
   97.5846   10.7238  -90.8969 C   0  0  0  0  0  0  0  0  0  0  0  0
  1  2  1  0
  2  3  1  0
  2  4  2  0
  3  5  2  0
  1  6  1  0
  4  7  1  0
  5  8  1  0
  7  8  2  0
  3  9  1  0
  8 10  1  0
  5 11  1  0
  4 12  1  0
  6 13  2  0
 12 13  1  0
  6 14  1  0
 13 15  1  0
 11 16  2  0
 16 17  1  0
 10 18  1  0
 17 18  1  0
 12 19  1  0
 19 20  1  0
 15 21  2  0
  9 22  2  0
 11 22  1  0
 10 23  2  0
  7 24  1  0
 20 24  1  0
 22 25  1  0
 19 26  1  0
 15 27  1  0
 26 27  1  0
 23 28  1  0
 24 28  2  0
 25 29  1  0
 27 30  2  0
 16 31  1  0
 14 32  2  0
 21 32  1  0
 26 33  1  0
 18 34  2  0
 25 35  2  0
 31 35  1  0
M  END
>  <ID>  (1) 
conformer_0

$$$$
