
     RDKit          3D

 20 22  0  0  0  0  0  0  0  0999 V2000
   98.3897   10.2363  -91.1740 C   0  0  0  0  0  0  0  0  0  0  0  0
   99.4805   10.7453  -91.2251 C   0  0  0  0  0  0  0  0  0  0  0  0
   98.3348    8.7759  -90.9099 C   0  0  0  0  0  0  0  0  0  0  0  0
   99.3524    7.9998  -90.9358 C   0  0  0  0  0  0  0  0  0  0  0  0
   99.2199    6.5834  -90.6878 C   0  0  0  0  0  0  0  0  0  0  0  0
  100.5893    8.4832  -91.1268 C   0  0  0  0  0  0  0  0  0  0  0  0
  101.7276    7.7064  -91.1231 N   0  0  0  0  0  0  0  0  0  0  0  0
  102.9285    8.1990  -91.2896 C   0  0  0  0  0  0  0  0  0  0  0  0
  104.0111    7.3322  -91.0724 N   0  0  0  0  0  0  0  0  0  0  0  0
  101.6716    6.2441  -90.9182 C   0  0  0  0  0  0  0  0  0  0  0  0
  105.3227    7.5227  -91.3273 C   0  0  0  0  0  0  0  0  0  0  0  0
   98.1960    5.9524  -90.6037 O   0  0  0  0  0  0  0  0  0  0  0  0
  103.6220    5.9592  -90.7645 C   0  0  0  0  0  0  0  0  0  0  0  0
  100.4220    5.8158  -90.6895 N   0  0  0  0  0  0  0  0  0  0  0  0
  102.6680    5.3964  -90.9321 C   0  0  0  0  0  0  0  0  0  0  0  0
  103.1567    9.3675  -91.4399 O   0  0  0  0  0  0  0  0  0  0  0  0
  106.0642    6.5248  -91.1701 O   0  0  0  0  0  0  0  0  0  0  0  0
  105.5858    8.8371  -91.7908 C   0  0  0  0  0  0  0  0  0  0  0  0
  102.4638    4.2594  -89.9500 C   0  0  0  0  0  0  0  0  0  0  0  0
  100.7738    9.9130  -91.2429 C   0  0  0  0  0  0  0  0  0  0  0  0
  1  2  2  0
  1  3  1  0
  3  4  2  0
  4  5  1  0
  4  6  1  0
  6  7  1  0
  7  8  1  0
  8  9  1  0
  7 10  1  0
  9 11  1  0
  5 12  2  0
  9 13  1  0
  5 14  1  0
 10 14  2  0
 10 15  1  0
 13 15  1  0
  8 16  2  0
 11 17  2  0
 11 18  1  0
 15 19  1  0
  2 20  1  0
  6 20  2  0
M  END
>  <ID>  (1) 
conformer_0

$$$$
