
     RDKit          3D

 26 29  0  0  0  0  0  0  0  0999 V2000
  103.3617    9.9504  -91.8697 O   0  0  0  0  0  0  0  0  0  0  0  0
  104.4140    9.2951  -91.7027 C   0  0  0  0  0  0  0  0  0  0  0  0
  105.6556    9.6911  -92.1425 C   0  0  0  0  0  0  0  0  0  0  0  0
  102.1757    9.2143  -91.4732 C   0  0  0  0  0  0  0  0  0  0  0  0
  100.8855    9.8159  -91.4829 C   0  0  0  0  0  0  0  0  0  0  0  0
  104.3488    7.9168  -91.2286 C   0  0  0  0  0  0  0  0  0  0  0  0
  102.3466    8.0085  -90.9362 C   0  0  0  0  0  0  0  0  0  0  0  0
  106.7783    9.0069  -92.1434 C   0  0  0  0  0  0  0  0  0  0  0  0
  103.2796    7.3270  -90.9571 C   0  0  0  0  0  0  0  0  0  0  0  0
  103.2952    5.9066  -90.3846 C   0  0  0  0  0  0  0  0  0  0  0  0
  103.1738    4.8519  -91.3497 C   0  0  0  0  0  0  0  0  0  0  0  0
  100.7937    7.5966  -90.7262 C   0  0  0  0  0  0  0  0  0  0  0  0
  100.4830   11.0529  -91.5334 C   0  0  0  0  0  0  0  0  0  0  0  0
  102.1307    4.5391  -91.8776 O   0  0  0  0  0  0  0  0  0  0  0  0
  107.9108    9.6691  -92.6638 O   0  0  0  0  0  0  0  0  0  0  0  0
  106.7588    7.7135  -91.7639 C   0  0  0  0  0  0  0  0  0  0  0  0
  104.0470    3.7609  -91.3047 C   0  0  0  0  0  0  0  0  0  0  0  0
   99.9111    8.6981  -91.1513 C   0  0  0  0  0  0  0  0  0  0  0  0
   98.6383    8.9256  -90.9373 C   0  0  0  0  0  0  0  0  0  0  0  0
   97.7349    7.8744  -90.6725 C   0  0  0  0  0  0  0  0  0  0  0  0
  103.5583    2.5654  -91.5266 O   0  0  0  0  0  0  0  0  0  0  0  0
   98.2585   10.2690  -91.1529 C   0  0  0  0  0  0  0  0  0  0  0  0
   99.0614   11.2953  -91.3353 C   0  0  0  0  0  0  0  0  0  0  0  0
  105.3281    3.8911  -91.3695 O   0  0  0  0  0  0  0  0  0  0  0  0
  106.1941    3.1198  -92.2097 C   0  0  0  0  0  0  0  0  0  0  0  0
  105.5472    7.1591  -91.3408 C   0  0  0  0  0  0  0  0  0  0  0  0
  1  2  1  0
  2  3  2  0
  1  4  1  0
  4  5  1  0
  2  6  1  0
  4  7  2  0
  3  8  1  0
  6  9  2  0
  7  9  1  0
  9 10  1  0
 10 11  1  0
  7 12  1  0
  5 13  2  0
 11 14  1  0
  8 15  1  0
  8 16  2  0
 11 17  1  0
  5 18  1  0
 12 18  1  0
 18 19  2  0
 19 20  1  0
 17 21  2  0
 19 22  1  0
 13 23  1  0
 22 23  2  0
 17 24  1  0
 24 25  1  0
  6 26  1  0
 16 26  1  0
M  END
>  <ID>  (1) 
conformer_0

$$$$
