
     RDKit          3D

 14 15  0  0  0  0  0  0  0  0999 V2000
   98.3897   10.2363  -91.1740 C   0  0  0  0  0  0  0  0  0  0  0  0
   99.4805   10.7453  -91.2251 C   0  0  0  0  0  0  0  0  0  0  0  0
  100.6245    9.7512  -91.1419 C   0  0  0  0  0  0  0  0  0  0  0  0
   97.2376   11.2292  -91.1252 F   0  0  0  0  0  0  0  0  0  0  0  0
  100.5304    8.5269  -91.1342 C   0  0  0  0  0  0  0  0  0  0  0  0
   99.1778    7.9792  -91.0622 C   0  0  0  0  0  0  0  0  0  0  0  0
   98.9071    6.5763  -90.9438 N   0  0  0  0  0  0  0  0  0  0  0  0
  101.3893    7.4982  -91.0580 C   0  0  0  0  0  0  0  0  0  0  0  0
   99.9250    5.7769  -90.7499 C   0  0  0  0  0  0  0  0  0  0  0  0
  101.2189    6.1960  -90.7621 C   0  0  0  0  0  0  0  0  0  0  0  0
   99.6109    4.2683  -90.4300 C   0  0  0  0  0  0  0  0  0  0  0  0
   98.2550    4.1103  -90.4507 O   0  0  0  0  0  0  0  0  0  0  0  0
  100.3591    3.4527  -90.6587 O   0  0  0  0  0  0  0  0  0  0  0  0
   97.9244    8.8651  -91.0442 C   0  0  0  0  0  0  0  0  0  0  0  0
  1  2  2  0
  2  3  1  0
  1  4  1  0
  3  5  2  0
  5  6  1  0
  6  7  1  0
  5  8  1  0
  7  9  2  0
  8 10  2  0
  9 10  1  0
  9 11  1  0
 11 12  2  0
 11 13  1  0
  1 14  1  0
  6 14  2  0
M  END
>  <ID>  (1) 
conformer_0

$$$$
