
     RDKit          3D

 25 26  0  0  0  0  0  0  0  0999 V2000
  103.9751    9.2785  -91.6427 O   0  0  0  0  0  0  0  0  0  0  0  0
  102.9456    8.4949  -91.4221 C   0  0  0  0  0  0  0  0  0  0  0  0
  103.1940    7.1966  -91.0464 N   0  0  0  0  0  0  0  0  0  0  0  0
  102.1695    6.3730  -90.8957 C   0  0  0  0  0  0  0  0  0  0  0  0
  100.8561    6.7694  -91.0337 C   0  0  0  0  0  0  0  0  0  0  0  0
  101.5646    8.9501  -91.4742 C   0  0  0  0  0  0  0  0  0  0  0  0
  104.5493    6.6514  -91.0117 C   0  0  0  0  0  0  0  0  0  0  0  0
   99.6936    5.8302  -90.8632 C   0  0  0  0  0  0  0  0  0  0  0  0
  104.7666    5.3581  -91.6123 C   0  0  0  0  0  0  0  0  0  0  0  0
  100.6096    8.1492  -91.3120 C   0  0  0  0  0  0  0  0  0  0  0  0
  105.8430    4.8323  -91.9700 O   0  0  0  0  0  0  0  0  0  0  0  0
   99.6859    4.6278  -91.3245 C   0  0  0  0  0  0  0  0  0  0  0  0
  103.6887    4.6553  -91.9454 O   0  0  0  0  0  0  0  0  0  0  0  0
   99.2222    8.5671  -91.3250 C   0  0  0  0  0  0  0  0  0  0  0  0
   98.4348    6.4463  -91.5019 C   0  0  0  0  0  0  0  0  0  0  0  0
   99.5446    4.3109  -92.5108 O   0  0  0  0  0  0  0  0  0  0  0  0
   98.9885    9.9893  -91.1443 C   0  0  0  0  0  0  0  0  0  0  0  0
  103.9408    3.3556  -92.6001 C   0  0  0  0  0  0  0  0  0  0  0  0
   99.7079   11.0311  -91.4164 O   0  0  0  0  0  0  0  0  0  0  0  0
   98.1277    7.8285  -91.0795 C   0  0  0  0  0  0  0  0  0  0  0  0
  104.6543    2.3458  -91.6882 C   0  0  0  0  0  0  0  0  0  0  0  0
   99.9472    3.6840  -90.4745 O   0  0  0  0  0  0  0  0  0  0  0  0
   97.5829   10.2963  -91.1537 O   0  0  0  0  0  0  0  0  0  0  0  0
  102.5897    2.9095  -93.1459 C   0  0  0  0  0  0  0  0  0  0  0  0
  104.9679    1.2474  -92.2341 O   0  0  0  0  0  0  0  0  0  0  0  0
  1  2  2  0
  2  3  1  0
  3  4  1  0
  4  5  2  0
  2  6  1  0
  3  7  1  0
  5  8  1  0
  7  9  1  0
  5 10  1  0
  6 10  2  0
  9 11  2  0
  8 12  1  0
  9 13  1  0
 10 14  1  0
  8 15  1  0
 12 16  2  0
 14 17  1  0
 13 18  1  0
 17 19  2  0
 14 20  2  0
 15 20  1  0
 18 21  1  0
 12 22  1  0
 17 23  1  0
 18 24  1  0
 21 25  1  0
M  END
>  <ID>  (1) 
conformer_0

$$$$
