
     RDKit          3D

 10 11  0  0  0  0  0  0  0  0999 V2000
   99.7272   10.5583  -91.5465 C   0  0  0  0  0  0  0  0  0  0  0  0
  100.6343    9.7203  -91.2298 C   0  0  0  0  0  0  0  0  0  0  0  0
   98.3267   10.3006  -91.3133 C   0  0  0  0  0  0  0  0  0  0  0  0
  102.0382    9.9031  -91.4888 O   0  0  0  0  0  0  0  0  0  0  0  0
   97.4123   11.3569  -91.4073 O   0  0  0  0  0  0  0  0  0  0  0  0
   97.9669    9.1083  -90.8051 C   0  0  0  0  0  0  0  0  0  0  0  0
  100.2957    8.4336  -90.8520 C   0  0  0  0  0  0  0  0  0  0  0  0
   99.0672    8.0795  -90.5907 C   0  0  0  0  0  0  0  0  0  0  0  0
  101.4947    7.6272  -90.6488 O   0  0  0  0  0  0  0  0  0  0  0  0
  102.5621    8.4665  -91.2264 C   0  0  0  0  0  0  0  0  0  0  0  0
  1  2  1  0
  1  3  2  0
  2  4  1  0
  3  5  1  0
  3  6  1  0
  2  7  2  0
  6  8  2  0
  7  8  1  0
  7  9  1  0
  4 10  1  0
  9 10  1  0
M  END
>  <ID>  (1) 
conformer_0

$$$$
