
     RDKit          3D

 32 40  0  0  0  0  0  0  0  0999 V2000
  103.9751    9.2785  -91.6427 O   0  0  0  0  0  0  0  0  0  0  0  0
  102.9456    8.4949  -91.4221 C   0  0  0  0  0  0  0  0  0  0  0  0
  101.6353    8.7178  -91.5595 C   0  0  0  0  0  0  0  0  0  0  0  0
  103.1975    7.0163  -91.6487 C   0  0  0  0  0  0  0  0  0  0  0  0
  100.6134    7.8540  -91.4251 C   0  0  0  0  0  0  0  0  0  0  0  0
  105.1922    8.7553  -92.0459 C   0  0  0  0  0  0  0  0  0  0  0  0
  102.1428    6.1008  -91.5074 C   0  0  0  0  0  0  0  0  0  0  0  0
  100.8852    6.5226  -91.4098 C   0  0  0  0  0  0  0  0  0  0  0  0
  101.2760   10.1525  -91.3448 N   0  0  0  0  0  0  0  0  0  0  0  0
   99.8432    5.3866  -91.3729 C   0  0  0  0  0  0  0  0  0  0  0  0
   99.3593    8.6026  -91.3012 C   0  0  0  0  0  0  0  0  0  0  0  0
  104.5904    6.6026  -91.5731 N   0  0  0  0  0  0  0  0  0  0  0  0
  105.6022    7.5139  -91.7114 C   0  0  0  0  0  0  0  0  0  0  0  0
  106.1773    9.9549  -92.3188 C   0  0  0  0  0  0  0  0  0  0  0  0
  106.9253    7.0851  -91.9054 C   0  0  0  0  0  0  0  0  0  0  0  0
   98.0786    8.2848  -91.1579 C   0  0  0  0  0  0  0  0  0  0  0  0
   97.6774    7.0082  -90.8442 N   0  0  0  0  0  0  0  0  0  0  0  0
   98.2776    5.7723  -91.2839 C   0  0  0  0  0  0  0  0  0  0  0  0
  104.8286    5.2807  -91.0926 C   0  0  0  0  0  0  0  0  0  0  0  0
  103.9381    4.3584  -91.2541 O   0  0  0  0  0  0  0  0  0  0  0  0
  107.8256    8.0733  -92.3411 C   0  0  0  0  0  0  0  0  0  0  0  0
  107.4295    9.4818  -92.5328 C   0  0  0  0  0  0  0  0  0  0  0  0
   99.7521   10.1191  -91.2960 C   0  0  0  0  0  0  0  0  0  0  0  0
   98.7776   10.9664  -91.1011 C   0  0  0  0  0  0  0  0  0  0  0  0
  106.1300    4.9147  -91.0692 O   0  0  0  0  0  0  0  0  0  0  0  0
  107.2102    5.6962  -91.6621 C   0  0  0  0  0  0  0  0  0  0  0  0
   97.5923    4.7307  -91.0011 O   0  0  0  0  0  0  0  0  0  0  0  0
   97.1307    9.1709  -90.9364 C   0  0  0  0  0  0  0  0  0  0  0  0
   97.5952   10.5796  -90.8123 C   0  0  0  0  0  0  0  0  0  0  0  0
  100.3427    4.5995  -90.4060 C   0  0  0  0  0  0  0  0  0  0  0  0
  101.5387    3.8521  -90.7589 C   0  0  0  0  0  0  0  0  0  0  0  0
  102.5858    4.7599  -91.2214 C   0  0  0  0  0  0  0  0  0  0  0  0
  1  2  1  0
  2  3  1  0
  2  4  2  0
  3  5  2  0
  1  6  1  0
  4  7  1  0
  5  8  1  0
  7  8  2  0
  3  9  1  0
  8 10  1  0
  5 11  1  0
  4 12  1  0
  6 13  2  0
 12 13  1  0
  6 14  1  0
 13 15  1  0
 11 16  2  0
 16 17  1  0
 10 18  1  0
 17 18  1  0
 12 19  1  0
 19 20  1  0
 15 21  2  0
 14 22  2  0
 21 22  1  0
  9 23  1  0
 11 23  1  0
 23 24  2  0
 19 25  1  0
 15 26  1  0
 25 26  1  0
 18 27  2  0
 16 28  1  0
 24 29  1  0
 28 29  2  0
 10 30  1  0
 30 31  1  0
  7 32  1  0
 20 32  1  0
 31 32  2  0
M  END
>  <ID>  (1) 
conformer_0

$$$$
