
     RDKit          3D

 31 35  0  0  0  0  0  0  0  0999 V2000
  103.3617    9.9504  -91.8697 O   0  0  0  0  0  0  0  0  0  0  0  0
  104.4140    9.2951  -91.7027 C   0  0  0  0  0  0  0  0  0  0  0  0
  105.6556    9.6911  -92.1425 C   0  0  0  0  0  0  0  0  0  0  0  0
  102.1757    9.2143  -91.4732 C   0  0  0  0  0  0  0  0  0  0  0  0
  100.8855    9.8159  -91.4829 C   0  0  0  0  0  0  0  0  0  0  0  0
  104.3488    7.9168  -91.2286 C   0  0  0  0  0  0  0  0  0  0  0  0
  102.3466    8.0085  -90.9362 C   0  0  0  0  0  0  0  0  0  0  0  0
  106.7783    9.0069  -92.1434 C   0  0  0  0  0  0  0  0  0  0  0  0
  103.2796    7.3270  -90.9571 C   0  0  0  0  0  0  0  0  0  0  0  0
  103.2952    5.9066  -90.3846 C   0  0  0  0  0  0  0  0  0  0  0  0
  103.1738    4.8519  -91.3497 C   0  0  0  0  0  0  0  0  0  0  0  0
  100.7937    7.5966  -90.7262 C   0  0  0  0  0  0  0  0  0  0  0  0
  100.4830   11.0529  -91.5334 C   0  0  0  0  0  0  0  0  0  0  0  0
  102.1307    4.5391  -91.8776 O   0  0  0  0  0  0  0  0  0  0  0  0
  100.2844    6.4013  -90.3214 C   0  0  0  0  0  0  0  0  0  0  0  0
   99.2342    5.8420  -90.9766 N   0  0  0  0  0  0  0  0  0  0  0  0
  100.0707    8.7920  -90.9869 C   0  0  0  0  0  0  0  0  0  0  0  0
  107.9311    9.6422  -92.6892 O   0  0  0  0  0  0  0  0  0  0  0  0
  104.3911    4.1863  -91.7502 C   0  0  0  0  0  0  0  0  0  0  0  0
   99.1366   11.3700  -91.2948 C   0  0  0  0  0  0  0  0  0  0  0  0
  105.8459    7.2850  -91.3297 C   0  0  0  0  0  0  0  0  0  0  0  0
  105.8281    5.9074  -90.8852 N   0  0  0  0  0  0  0  0  0  0  0  0
  106.8989    7.8517  -91.7863 C   0  0  0  0  0  0  0  0  0  0  0  0
  105.7025    4.8178  -91.7953 C   0  0  0  0  0  0  0  0  0  0  0  0
  106.5872    4.4102  -92.4387 O   0  0  0  0  0  0  0  0  0  0  0  0
   98.6757    6.4378  -92.0607 C   0  0  0  0  0  0  0  0  0  0  0  0
   98.6485   12.6446  -91.4572 O   0  0  0  0  0  0  0  0  0  0  0  0
  104.2216    2.8082  -91.9755 O   0  0  0  0  0  0  0  0  0  0  0  0
   98.1808   10.3163  -91.0548 C   0  0  0  0  0  0  0  0  0  0  0  0
  104.6257    1.7312  -91.2804 C   0  0  0  0  0  0  0  0  0  0  0  0
   98.7721    8.9868  -90.8451 C   0  0  0  0  0  0  0  0  0  0  0  0
  1  2  1  0
  2  3  2  0
  1  4  1  0
  4  5  1  0
  2  6  1  0
  4  7  2  0
  3  8  1  0
  6  9  2  0
  7  9  1  0
  9 10  1  0
 10 11  1  0
  7 12  1  0
  5 13  2  0
 11 14  1  0
 12 15  1  0
 15 16  2  3
  5 17  1  0
 12 17  2  0
  8 18  1  0
 11 19  2  0
 13 20  1  0
  6 21  1  0
 21 22  1  0
  8 23  2  0
 21 23  2  0
 19 24  1  0
 22 24  1  0
 24 25  2  0
 16 26  1  0
 20 27  1  0
 19 28  1  0
 20 29  2  0
 28 30  1  0
 17 31  1  0
 29 31  1  0
M  END
>  <ID>  (1) 
conformer_0

$$$$
