
     RDKit          3D

 35 44  0  0  0  0  0  0  0  0999 V2000
  103.9751    9.2785  -91.6427 O   0  0  0  0  0  0  0  0  0  0  0  0
  102.9456    8.4949  -91.4221 C   0  0  0  0  0  0  0  0  0  0  0  0
  101.6353    8.7178  -91.5595 C   0  0  0  0  0  0  0  0  0  0  0  0
  103.1975    7.0163  -91.6487 C   0  0  0  0  0  0  0  0  0  0  0  0
  100.6134    7.8540  -91.4251 C   0  0  0  0  0  0  0  0  0  0  0  0
  105.1922    8.7553  -92.0459 C   0  0  0  0  0  0  0  0  0  0  0  0
  102.1428    6.1008  -91.5074 C   0  0  0  0  0  0  0  0  0  0  0  0
  100.8852    6.5226  -91.4098 C   0  0  0  0  0  0  0  0  0  0  0  0
  101.2760   10.1525  -91.3448 N   0  0  0  0  0  0  0  0  0  0  0  0
   99.8432    5.3866  -91.3729 C   0  0  0  0  0  0  0  0  0  0  0  0
   99.3593    8.6026  -91.3012 C   0  0  0  0  0  0  0  0  0  0  0  0
  104.5904    6.6026  -91.5731 N   0  0  0  0  0  0  0  0  0  0  0  0
  105.6022    7.5139  -91.7114 C   0  0  0  0  0  0  0  0  0  0  0  0
  106.1773    9.9549  -92.3188 C   0  0  0  0  0  0  0  0  0  0  0  0
  106.9253    7.0851  -91.9054 C   0  0  0  0  0  0  0  0  0  0  0  0
   98.0786    8.2848  -91.1579 C   0  0  0  0  0  0  0  0  0  0  0  0
   97.6774    7.0082  -90.8442 N   0  0  0  0  0  0  0  0  0  0  0  0
  104.8578    5.1826  -91.4890 C   0  0  0  0  0  0  0  0  0  0  0  0
   99.8210    9.9979  -91.3007 C   0  0  0  0  0  0  0  0  0  0  0  0
  107.3199    5.8003  -91.7330 O   0  0  0  0  0  0  0  0  0  0  0  0
  100.2747    4.2448  -91.0134 O   0  0  0  0  0  0  0  0  0  0  0  0
   98.8509   11.1312  -91.1969 C   0  0  0  0  0  0  0  0  0  0  0  0
  107.7937    8.1143  -92.3087 C   0  0  0  0  0  0  0  0  0  0  0  0
  106.2014    4.8837  -91.8765 C   0  0  0  0  0  0  0  0  0  0  0  0
  105.8158   11.1775  -92.4792 O   0  0  0  0  0  0  0  0  0  0  0  0
  106.5411    3.6540  -92.3120 C   0  0  0  0  0  0  0  0  0  0  0  0
  105.6038    2.6116  -92.3604 C   0  0  0  0  0  0  0  0  0  0  0  0
  103.8856    4.2471  -91.6059 C   0  0  0  0  0  0  0  0  0  0  0  0
   98.3852    5.7562  -91.1686 C   0  0  0  0  0  0  0  0  0  0  0  0
  107.4546    9.4956  -92.4650 C   0  0  0  0  0  0  0  0  0  0  0  0
   97.2260    9.4623  -90.7302 C   0  0  0  0  0  0  0  0  0  0  0  0
  104.2753    2.9448  -91.9284 C   0  0  0  0  0  0  0  0  0  0  0  0
   97.6168   10.7016  -90.8586 C   0  0  0  0  0  0  0  0  0  0  0  0
  102.6440    4.6643  -91.3140 N   0  0  0  0  0  0  0  0  0  0  0  0
  101.6100    3.7912  -90.8582 C   0  0  0  0  0  0  0  0  0  0  0  0
  1  2  1  0
  2  3  1  0
  2  4  2  0
  3  5  2  0
  1  6  1  0
  4  7  1  0
  5  8  1  0
  7  8  2  0
  3  9  1  0
  8 10  1  0
  5 11  1  0
  4 12  1  0
  6 13  2  0
 12 13  1  0
  6 14  1  0
 13 15  1  0
 11 16  2  0
 16 17  1  0
 12 18  1  0
  9 19  2  0
 11 19  1  0
 15 20  1  0
 10 21  1  0
 19 22  1  0
 15 23  2  0
 18 24  1  0
 20 24  1  0
 14 25  1  0
 24 26  2  0
 26 27  1  0
 18 28  2  0
 10 29  2  0
 17 29  1  0
 14 30  2  0
 23 30  1  0
 16 31  1  0
 27 32  2  0
 28 32  1  0
 22 33  1  0
 31 33  2  0
  7 34  1  0
 28 34  1  0
 21 35  1  0
 34 35  1  0
M  END
>  <ID>  (1) 
conformer_0

$$$$
