
     RDKit          3D

 22 24  0  0  0  0  0  0  0  0999 V2000
   99.7272   10.5583  -91.5465 C   0  0  0  0  0  0  0  0  0  0  0  0
  100.6343    9.7203  -91.2298 C   0  0  0  0  0  0  0  0  0  0  0  0
  100.1969    8.3652  -90.8562 C   0  0  0  0  0  0  0  0  0  0  0  0
  101.2364    7.3693  -90.5883 C   0  0  0  0  0  0  0  0  0  0  0  0
   98.3690   10.2584  -91.3046 C   0  0  0  0  0  0  0  0  0  0  0  0
  101.0139    6.1132  -90.9284 N   0  0  0  0  0  0  0  0  0  0  0  0
  101.7929    4.9951  -90.5076 C   0  0  0  0  0  0  0  0  0  0  0  0
  102.5061    7.7828  -91.1330 C   0  0  0  0  0  0  0  0  0  0  0  0
   99.7332    5.6903  -91.5749 C   0  0  0  0  0  0  0  0  0  0  0  0
  102.6675    9.0474  -91.5323 C   0  0  0  0  0  0  0  0  0  0  0  0
  103.5784    6.8972  -91.0940 N   0  0  0  0  0  0  0  0  0  0  0  0
  103.2849    5.4729  -90.8664 C   0  0  0  0  0  0  0  0  0  0  0  0
  101.9355    9.9154  -91.1641 N   0  0  0  0  0  0  0  0  0  0  0  0
  104.3672    4.5731  -90.9331 C   0  0  0  0  0  0  0  0  0  0  0  0
  101.6748    3.8230  -90.4204 O   0  0  0  0  0  0  0  0  0  0  0  0
  104.0660    9.4016  -91.6787 O   0  0  0  0  0  0  0  0  0  0  0  0
   98.8234    8.2323  -90.7258 C   0  0  0  0  0  0  0  0  0  0  0  0
  104.9007    4.0748  -92.0960 C   0  0  0  0  0  0  0  0  0  0  0  0
  104.2403    3.0922  -92.7767 O   0  0  0  0  0  0  0  0  0  0  0  0
  106.2983    3.9497  -92.0338 O   0  0  0  0  0  0  0  0  0  0  0  0
   99.7460    4.8104  -92.5933 C   0  0  0  0  0  0  0  0  0  0  0  0
   98.0156    9.0806  -90.8795 C   0  0  0  0  0  0  0  0  0  0  0  0
  1  2  2  0
  2  3  1  0
  3  4  1  0
  1  5  1  0
  4  6  1  0
  6  7  1  0
  4  8  1  0
  6  9  1  0
  8 10  1  0
  8 11  2  0
  7 12  1  0
 11 12  1  0
  2 13  1  0
 10 13  1  0
 12 14  2  3
  7 15  2  0
 10 16  2  0
  3 17  2  0
 14 18  1  0
 18 19  1  0
 18 20  1  0
  9 21  1  0
  5 22  2  0
 17 22  1  0
M  END
>  <ID>  (1) 
conformer_0

$$$$
