
     RDKit          3D

 25 28  0  0  0  0  0  0  0  0999 V2000
  106.2630    9.3133  -92.5510 O   0  0  0  0  0  0  0  0  0  0  0  0
  106.0428    8.1686  -92.0775 C   0  0  0  0  0  0  0  0  0  0  0  0
  105.1283    7.9210  -91.2417 N   0  0  0  0  0  0  0  0  0  0  0  0
  104.6700    6.7381  -91.0243 C   0  0  0  0  0  0  0  0  0  0  0  0
  105.3388    5.5991  -91.4368 C   0  0  0  0  0  0  0  0  0  0  0  0
  106.5058    5.9075  -92.2764 C   0  0  0  0  0  0  0  0  0  0  0  0
  104.1677    9.0360  -90.8415 C   0  0  0  0  0  0  0  0  0  0  0  0
  102.7902    8.7085  -91.1261 C   0  0  0  0  0  0  0  0  0  0  0  0
  105.0725    4.2578  -91.0406 O   0  0  0  0  0  0  0  0  0  0  0  0
  102.1786    7.5428  -91.1305 C   0  0  0  0  0  0  0  0  0  0  0  0
  107.2840    4.7900  -92.7434 O   0  0  0  0  0  0  0  0  0  0  0  0
  101.9036    9.7609  -91.3199 C   0  0  0  0  0  0  0  0  0  0  0  0
  100.5874    9.3582  -91.4409 C   0  0  0  0  0  0  0  0  0  0  0  0
  100.8431    7.7098  -91.3843 C   0  0  0  0  0  0  0  0  0  0  0  0
   99.8235    6.7414  -91.5099 C   0  0  0  0  0  0  0  0  0  0  0  0
  100.1959    5.5622  -91.4407 N   0  0  0  0  0  0  0  0  0  0  0  0
  103.5451    6.1817  -90.0540 C   0  0  0  0  0  0  0  0  0  0  0  0
   99.3794   10.0352  -91.6373 C   0  0  0  0  0  0  0  0  0  0  0  0
   98.4437    7.0296  -91.6565 C   0  0  0  0  0  0  0  0  0  0  0  0
  106.9374    7.1740  -92.6060 C   0  0  0  0  0  0  0  0  0  0  0  0
   98.4436    9.9297  -91.0709 O   0  0  0  0  0  0  0  0  0  0  0  0
   97.5264   10.9430  -90.8551 C   0  0  0  0  0  0  0  0  0  0  0  0
  102.3405    6.3396  -90.6595 C   0  0  0  0  0  0  0  0  0  0  0  0
  101.4969    5.2917  -90.8513 C   0  0  0  0  0  0  0  0  0  0  0  0
   99.5887   11.3882  -91.6978 O   0  0  0  0  0  0  0  0  0  0  0  0
  1  2  2  0
  2  3  1  0
  3  4  1  0
  4  5  2  0
  5  6  1  0
  3  7  1  0
  7  8  1  0
  5  9  1  0
  8 10  1  0
  6 11  1  0
  8 12  2  0
 12 13  1  0
 10 14  1  0
 13 14  2  0
 14 15  1  0
 15 16  2  0
  4 17  1  0
 13 18  1  0
 15 19  1  0
  2 20  1  0
  6 20  2  0
 18 21  1  0
 21 22  1  0
 10 23  2  0
 17 23  1  0
 16 24  1  0
 23 24  1  0
 18 25  2  0
M  END
>  <ID>  (1) 
conformer_0

$$$$
