
     RDKit          3D

 30 32  0  0  0  0  0  0  0  0999 V2000
  103.3617    9.9504  -91.8697 O   0  0  0  0  0  0  0  0  0  0  0  0
  104.4140    9.2951  -91.7027 C   0  0  0  0  0  0  0  0  0  0  0  0
  105.6556    9.6911  -92.1425 C   0  0  0  0  0  0  0  0  0  0  0  0
  105.8619   10.8825  -92.7618 O   0  0  0  0  0  0  0  0  0  0  0  0
  104.2436    7.9634  -91.2361 C   0  0  0  0  0  0  0  0  0  0  0  0
  102.9543    7.6109  -90.8183 O   0  0  0  0  0  0  0  0  0  0  0  0
  105.1963    7.0035  -91.2241 C   0  0  0  0  0  0  0  0  0  0  0  0
  102.0039    7.6944  -91.6330 C   0  0  0  0  0  0  0  0  0  0  0  0
  100.6682    7.6796  -90.8517 C   0  0  0  0  0  0  0  0  0  0  0  0
   99.5256    7.1193  -91.5876 C   0  0  0  0  0  0  0  0  0  0  0  0
  100.2286    9.0473  -90.6623 C   0  0  0  0  0  0  0  0  0  0  0  0
   99.3905    5.6567  -91.6164 C   0  0  0  0  0  0  0  0  0  0  0  0
   98.8883    9.1977  -90.8977 C   0  0  0  0  0  0  0  0  0  0  0  0
   98.3991    5.1377  -91.3041 O   0  0  0  0  0  0  0  0  0  0  0  0
  104.9945    5.6270  -90.7913 C   0  0  0  0  0  0  0  0  0  0  0  0
  105.1696    4.5928  -91.5641 N   0  0  0  0  0  0  0  0  0  0  0  0
  106.8706    8.6894  -92.2482 C   0  0  0  0  0  0  0  0  0  0  0  0
  108.0522    9.0989  -92.7279 O   0  0  0  0  0  0  0  0  0  0  0  0
   98.2379   10.4368  -90.8994 C   0  0  0  0  0  0  0  0  0  0  0  0
  100.4597    4.8828  -91.9915 O   0  0  0  0  0  0  0  0  0  0  0  0
  104.1299    3.7789  -92.0151 C   0  0  0  0  0  0  0  0  0  0  0  0
  106.3363    4.4249  -92.3258 C   0  0  0  0  0  0  0  0  0  0  0  0
  101.1548    3.9772  -91.2479 C   0  0  0  0  0  0  0  0  0  0  0  0
  101.8246    2.9740  -92.0417 C   0  0  0  0  0  0  0  0  0  0  0  0
  103.3156    2.9231  -91.8278 C   0  0  0  0  0  0  0  0  0  0  0  0
   98.4651    7.9999  -91.5431 C   0  0  0  0  0  0  0  0  0  0  0  0
  106.5717    7.4002  -91.7396 C   0  0  0  0  0  0  0  0  0  0  0  0
  103.8398    1.7905  -91.0642 C   0  0  0  0  0  0  0  0  0  0  0  0
  107.3011    5.1227  -92.2193 O   0  0  0  0  0  0  0  0  0  0  0  0
  106.4509    3.0829  -92.6322 O   0  0  0  0  0  0  0  0  0  0  0  0
  1  2  1  0
  2  3  2  0
  3  4  1  0
  2  5  1  0
  5  6  1  0
  5  7  2  0
  6  8  1  0
  8  9  1  0
  9 10  1  0
  9 11  1  0
 10 12  1  0
 11 13  1  0
 12 14  2  0
  7 15  1  0
 15 16  1  0
  3 17  1  0
 17 18  1  0
 13 19  1  0
 12 20  1  0
 16 21  1  0
 16 22  1  0
 20 23  1  0
 23 24  1  0
 21 25  2  0
 24 25  1  0
 10 26  1  0
 13 26  2  0
  7 27  1  0
 17 27  2  0
 25 28  1  0
 22 29  2  0
 22 30  1  0
M  END
>  <ID>  (1) 
conformer_0

$$$$
