
     RDKit          3D

 34 42  0  0  0  0  0  0  0  0999 V2000
  103.9751    9.2785  -91.6427 O   0  0  0  0  0  0  0  0  0  0  0  0
  102.9456    8.4949  -91.4221 C   0  0  0  0  0  0  0  0  0  0  0  0
  101.6353    8.7178  -91.5595 C   0  0  0  0  0  0  0  0  0  0  0  0
  103.1975    7.0163  -91.6487 C   0  0  0  0  0  0  0  0  0  0  0  0
  100.6134    7.8540  -91.4251 C   0  0  0  0  0  0  0  0  0  0  0  0
  105.1922    8.7553  -92.0459 C   0  0  0  0  0  0  0  0  0  0  0  0
  102.1428    6.1008  -91.5074 C   0  0  0  0  0  0  0  0  0  0  0  0
  100.8852    6.5226  -91.4098 C   0  0  0  0  0  0  0  0  0  0  0  0
  101.2760   10.1525  -91.3448 N   0  0  0  0  0  0  0  0  0  0  0  0
   99.8432    5.3866  -91.3729 C   0  0  0  0  0  0  0  0  0  0  0  0
   99.3593    8.6026  -91.3012 C   0  0  0  0  0  0  0  0  0  0  0  0
  104.5904    6.6026  -91.5731 N   0  0  0  0  0  0  0  0  0  0  0  0
  105.6022    7.5139  -91.7114 C   0  0  0  0  0  0  0  0  0  0  0  0
  106.1773    9.9549  -92.3188 C   0  0  0  0  0  0  0  0  0  0  0  0
  106.9253    7.0851  -91.9054 C   0  0  0  0  0  0  0  0  0  0  0  0
   98.0786    8.2848  -91.1579 C   0  0  0  0  0  0  0  0  0  0  0  0
   97.6774    7.0082  -90.8442 N   0  0  0  0  0  0  0  0  0  0  0  0
   98.2776    5.7723  -91.2839 C   0  0  0  0  0  0  0  0  0  0  0  0
  104.8286    5.2807  -91.0926 C   0  0  0  0  0  0  0  0  0  0  0  0
  103.9381    4.3584  -91.2541 O   0  0  0  0  0  0  0  0  0  0  0  0
  107.4701    9.4408  -92.5126 C   0  0  0  0  0  0  0  0  0  0  0  0
  102.5520    4.7215  -91.4634 C   0  0  0  0  0  0  0  0  0  0  0  0
  101.9398    3.9766  -92.5378 C   0  0  0  0  0  0  0  0  0  0  0  0
   97.2722    9.3296  -90.7823 N   0  0  0  0  0  0  0  0  0  0  0  0
  100.5057    3.5905  -92.3249 C   0  0  0  0  0  0  0  0  0  0  0  0
   98.1039   10.4069  -90.9374 C   0  0  0  0  0  0  0  0  0  0  0  0
  107.3464    5.7803  -91.8987 C   0  0  0  0  0  0  0  0  0  0  0  0
  107.8449    8.1801  -92.3988 C   0  0  0  0  0  0  0  0  0  0  0  0
  108.2729    5.3195  -92.0994 O   0  0  0  0  0  0  0  0  0  0  0  0
  106.2296    4.9918  -91.3042 N   0  0  0  0  0  0  0  0  0  0  0  0
   99.6223    9.9968  -91.2361 C   0  0  0  0  0  0  0  0  0  0  0  0
  100.2201    2.5840  -93.0247 O   0  0  0  0  0  0  0  0  0  0  0  0
   97.8340   11.8909  -90.7966 C   0  0  0  0  0  0  0  0  0  0  0  0
   99.7414    4.2651  -91.8048 N   0  0  0  0  0  0  0  0  0  0  0  0
  1  2  1  0
  2  3  1  0
  2  4  2  0
  3  5  2  0
  1  6  1  0
  4  7  1  0
  5  8  1  0
  7  8  2  0
  3  9  1  0
  8 10  1  0
  5 11  1  0
  4 12  1  0
  6 13  2  0
 12 13  1  0
  6 14  1  0
 13 15  1  0
 11 16  2  0
 16 17  1  0
 10 18  1  0
 17 18  1  0
 12 19  1  0
 19 20  1  0
 14 21  2  0
  7 22  1  0
 20 22  1  0
 22 23  1  0
 16 24  1  0
 23 25  1  0
 24 26  2  0
 15 27  1  0
 15 28  2  0
 21 28  1  0
 27 29  2  0
 19 30  2  0
 27 30  1  0
  9 31  2  0
 11 31  1  0
 26 31  1  0
 25 32  2  0
 26 33  1  0
 10 34  2  0
 25 34  1  0
M  END
>  <ID>  (1) 
conformer_0

$$$$
