
     RDKit          3D

 33 37  0  0  0  0  0  0  0  0999 V2000
  103.3617    9.9504  -91.8697 O   0  0  0  0  0  0  0  0  0  0  0  0
  104.4140    9.2951  -91.7027 C   0  0  0  0  0  0  0  0  0  0  0  0
  105.6556    9.6911  -92.1425 C   0  0  0  0  0  0  0  0  0  0  0  0
  102.1757    9.2143  -91.4732 C   0  0  0  0  0  0  0  0  0  0  0  0
  100.8855    9.8159  -91.4829 C   0  0  0  0  0  0  0  0  0  0  0  0
  104.3488    7.9168  -91.2286 C   0  0  0  0  0  0  0  0  0  0  0  0
  102.3466    8.0085  -90.9362 C   0  0  0  0  0  0  0  0  0  0  0  0
  106.7783    9.0069  -92.1434 C   0  0  0  0  0  0  0  0  0  0  0  0
  103.2796    7.3270  -90.9571 C   0  0  0  0  0  0  0  0  0  0  0  0
  103.2952    5.9066  -90.3846 C   0  0  0  0  0  0  0  0  0  0  0  0
  103.1738    4.8519  -91.3497 C   0  0  0  0  0  0  0  0  0  0  0  0
  100.7937    7.5966  -90.7262 C   0  0  0  0  0  0  0  0  0  0  0  0
  100.4830   11.0529  -91.5334 C   0  0  0  0  0  0  0  0  0  0  0  0
  100.2967    6.3991  -90.3039 C   0  0  0  0  0  0  0  0  0  0  0  0
  105.6822    7.1899  -91.3387 C   0  0  0  0  0  0  0  0  0  0  0  0
  107.9314    9.7038  -92.6035 O   0  0  0  0  0  0  0  0  0  0  0  0
  106.8364    7.8243  -91.7342 C   0  0  0  0  0  0  0  0  0  0  0  0
   99.0924   11.3624  -91.4079 C   0  0  0  0  0  0  0  0  0  0  0  0
  100.0898    8.7259  -90.9777 C   0  0  0  0  0  0  0  0  0  0  0  0
   99.8869    6.2187  -89.1711 N   0  0  0  0  0  0  0  0  0  0  0  0
   98.6378   12.6316  -91.5270 O   0  0  0  0  0  0  0  0  0  0  0  0
   99.1718    5.0833  -88.8725 C   0  0  0  0  0  0  0  0  0  0  0  0
   98.2054   10.2929  -91.0288 C   0  0  0  0  0  0  0  0  0  0  0  0
  103.6525    3.6446  -90.9349 O   0  0  0  0  0  0  0  0  0  0  0  0
   98.8196    4.3118  -89.9022 O   0  0  0  0  0  0  0  0  0  0  0  0
  104.1058    2.5777  -91.8188 C   0  0  0  0  0  0  0  0  0  0  0  0
   98.7613    8.9622  -90.8113 C   0  0  0  0  0  0  0  0  0  0  0  0
   98.6897    4.7987  -87.5563 C   0  0  0  0  0  0  0  0  0  0  0  0
  103.9031    1.4371  -91.3846 C   0  0  0  0  0  0  0  0  0  0  0  0
  104.5093    2.9197  -93.1446 C   0  0  0  0  0  0  0  0  0  0  0  0
  105.0436    1.8780  -93.8748 C   0  0  0  0  0  0  0  0  0  0  0  0
  104.3219    0.2252  -91.9887 C   0  0  0  0  0  0  0  0  0  0  0  0
  104.9200    0.5161  -93.3151 C   0  0  0  0  0  0  0  0  0  0  0  0
  1  2  1  0
  2  3  2  0
  1  4  1  0
  4  5  1  0
  2  6  1  0
  4  7  2  0
  3  8  1  0
  6  9  2  0
  7  9  1  0
  9 10  1  0
 10 11  1  0
  7 12  1  0
  5 13  2  0
 12 14  1  0
  6 15  1  0
  8 16  1  0
  8 17  2  0
 15 17  1  0
 13 18  1  0
  5 19  1  0
 12 19  2  0
 14 20  1  0
 18 21  1  0
 20 22  1  0
 18 23  2  0
 11 24  1  0
 22 25  2  0
 24 26  1  0
 19 27  1  0
 23 27  1  0
 22 28  1  0
 26 29  2  0
 26 30  1  0
 30 31  2  0
 29 32  1  0
 31 33  1  0
 32 33  2  0
M  END
>  <ID>  (1) 
conformer_0

$$$$
