
     RDKit          3D

 35 42  0  0  0  0  0  0  0  0999 V2000
  103.3617    9.9504  -91.8697 O   0  0  0  0  0  0  0  0  0  0  0  0
  104.4140    9.2951  -91.7027 C   0  0  0  0  0  0  0  0  0  0  0  0
  105.6556    9.6911  -92.1425 C   0  0  0  0  0  0  0  0  0  0  0  0
  102.1757    9.2143  -91.4732 C   0  0  0  0  0  0  0  0  0  0  0  0
  106.7242    8.6840  -92.1210 C   0  0  0  0  0  0  0  0  0  0  0  0
  104.2962    7.8227  -91.4366 C   0  0  0  0  0  0  0  0  0  0  0  0
  106.5861    7.4827  -91.8465 C   0  0  0  0  0  0  0  0  0  0  0  0
  102.9582    7.4602  -91.0254 C   0  0  0  0  0  0  0  0  0  0  0  0
  101.9707    8.1514  -91.1735 C   0  0  0  0  0  0  0  0  0  0  0  0
  105.3193    6.9557  -91.4033 C   0  0  0  0  0  0  0  0  0  0  0  0
  100.8843   10.2478  -91.5333 C   0  0  0  0  0  0  0  0  0  0  0  0
  102.8516    5.9064  -90.9641 C   0  0  0  0  0  0  0  0  0  0  0  0
   99.9001    9.3952  -91.0656 C   0  0  0  0  0  0  0  0  0  0  0  0
   99.9222    7.9867  -90.7518 C   0  0  0  0  0  0  0  0  0  0  0  0
   98.5796   10.1054  -90.8794 C   0  0  0  0  0  0  0  0  0  0  0  0
  103.9156    5.1767  -90.8451 C   0  0  0  0  0  0  0  0  0  0  0  0
   98.7046    7.3693  -90.3862 C   0  0  0  0  0  0  0  0  0  0  0  0
   97.5067    9.5019  -90.4709 C   0  0  0  0  0  0  0  0  0  0  0  0
  100.9009    7.3363  -90.7207 C   0  0  0  0  0  0  0  0  0  0  0  0
   98.6066    6.0351  -90.1263 C   0  0  0  0  0  0  0  0  0  0  0  0
   96.3141   10.3052  -90.3003 C   0  0  0  0  0  0  0  0  0  0  0  0
   99.6511    5.2987  -90.5386 C   0  0  0  0  0  0  0  0  0  0  0  0
   97.5458    8.0816  -90.1921 N   0  0  0  0  0  0  0  0  0  0  0  0
   98.2515   11.5698  -91.1155 C   0  0  0  0  0  0  0  0  0  0  0  0
   96.1973   11.5073  -90.5644 C   0  0  0  0  0  0  0  0  0  0  0  0
  103.8520    3.7937  -90.6846 O   0  0  0  0  0  0  0  0  0  0  0  0
  104.1554    2.9183  -91.7173 C   0  0  0  0  0  0  0  0  0  0  0  0
  103.8533    1.7054  -91.5900 C   0  0  0  0  0  0  0  0  0  0  0  0
   97.1600   12.1326  -90.9307 C   0  0  0  0  0  0  0  0  0  0  0  0
  104.0073    0.8917  -92.5577 O   0  0  0  0  0  0  0  0  0  0  0  0
  100.8886    5.9451  -90.8616 C   0  0  0  0  0  0  0  0  0  0  0  0
   99.5839    3.7519  -90.4265 O   0  0  0  0  0  0  0  0  0  0  0  0
  103.7293    1.2172  -90.3898 O   0  0  0  0  0  0  0  0  0  0  0  0
  105.3175    5.6429  -91.1247 C   0  0  0  0  0  0  0  0  0  0  0  0
  102.0253    5.2593  -90.7369 O   0  0  0  0  0  0  0  0  0  0  0  0
  1  2  1  0
  2  3  2  0
  1  4  1  0
  3  5  1  0
  2  6  1  0
  5  7  2  0
  6  8  1  0
  4  9  2  0
  8  9  1  0
  6 10  2  0
  7 10  1  0
  4 11  1  0
  8 12  2  0
 11 13  2  0
 13 14  1  0
 13 15  1  0
 12 16  1  0
 14 17  1  0
 15 18  2  0
  9 19  1  0
 14 19  2  0
 17 20  1  0
 18 21  1  0
 20 22  2  0
 17 23  2  0
 18 23  1  0
 15 24  1  0
 21 25  2  0
 16 26  1  0
 26 27  1  0
 27 28  1  0
 24 29  2  0
 25 29  1  0
 28 30  2  0
 19 31  1  0
 22 31  1  0
 22 32  1  0
 28 33  1  0
 10 34  1  0
 16 34  2  0
 12 35  1  0
 31 35  1  0
M  END
>  <ID>  (1) 
conformer_0

$$$$
