
     RDKit          3D

 33 39  0  0  0  0  0  0  0  0999 V2000
  103.3617    9.9504  -91.8697 O   0  0  0  0  0  0  0  0  0  0  0  0
  104.4140    9.2951  -91.7027 C   0  0  0  0  0  0  0  0  0  0  0  0
  105.6556    9.6911  -92.1425 C   0  0  0  0  0  0  0  0  0  0  0  0
  102.1757    9.2143  -91.4732 C   0  0  0  0  0  0  0  0  0  0  0  0
  100.8855    9.8159  -91.4829 C   0  0  0  0  0  0  0  0  0  0  0  0
  104.3488    7.9168  -91.2286 C   0  0  0  0  0  0  0  0  0  0  0  0
  102.3466    8.0085  -90.9362 C   0  0  0  0  0  0  0  0  0  0  0  0
  106.7783    9.0069  -92.1434 C   0  0  0  0  0  0  0  0  0  0  0  0
  103.2796    7.3270  -90.9571 C   0  0  0  0  0  0  0  0  0  0  0  0
  103.2952    5.9066  -90.3846 C   0  0  0  0  0  0  0  0  0  0  0  0
  103.1738    4.8519  -91.3497 C   0  0  0  0  0  0  0  0  0  0  0  0
  100.7937    7.5966  -90.7262 C   0  0  0  0  0  0  0  0  0  0  0  0
  100.4830   11.0529  -91.5334 C   0  0  0  0  0  0  0  0  0  0  0  0
  102.1307    4.5391  -91.8776 O   0  0  0  0  0  0  0  0  0  0  0  0
  100.2844    6.4013  -90.3214 C   0  0  0  0  0  0  0  0  0  0  0  0
  107.9109    9.6767  -92.6834 O   0  0  0  0  0  0  0  0  0  0  0  0
  100.1013    5.3833  -91.1851 N   0  0  0  0  0  0  0  0  0  0  0  0
   99.1445    6.4072  -89.4935 C   0  0  0  0  0  0  0  0  0  0  0  0
  105.6037    7.1389  -91.3046 C   0  0  0  0  0  0  0  0  0  0  0  0
   98.3021    5.2688  -89.3839 C   0  0  0  0  0  0  0  0  0  0  0  0
  105.6041    5.7766  -90.9443 C   0  0  0  0  0  0  0  0  0  0  0  0
   99.1217    4.4976  -90.9423 C   0  0  0  0  0  0  0  0  0  0  0  0
  104.4802    4.8927  -91.9884 C   0  0  0  0  0  0  0  0  0  0  0  0
  100.1704    8.7617  -90.8329 C   0  0  0  0  0  0  0  0  0  0  0  0
   98.6993    3.6395  -91.4327 O   0  0  0  0  0  0  0  0  0  0  0  0
  101.1476    4.7736  -92.0032 C   0  0  0  0  0  0  0  0  0  0  0  0
  105.1015    3.4763  -92.0623 C   0  0  0  0  0  0  0  0  0  0  0  0
  106.8482    7.6664  -91.7694 C   0  0  0  0  0  0  0  0  0  0  0  0
  106.2422    3.1641  -91.8865 O   0  0  0  0  0  0  0  0  0  0  0  0
   98.7638    8.9914  -90.6086 C   0  0  0  0  0  0  0  0  0  0  0  0
   99.0858   11.3178  -91.3247 C   0  0  0  0  0  0  0  0  0  0  0  0
   98.2849   10.4326  -90.8262 C   0  0  0  0  0  0  0  0  0  0  0  0
  104.3392    2.5077  -92.2926 O   0  0  0  0  0  0  0  0  0  0  0  0
  1  2  1  0
  2  3  2  0
  1  4  1  0
  4  5  1  0
  2  6  1  0
  4  7  2  0
  3  8  1  0
  6  9  2  0
  7  9  1  0
  9 10  1  0
 10 11  1  0
  7 12  1  0
  5 13  2  0
 11 14  1  0
 12 15  1  0
  8 16  1  0
 15 17  1  0
 15 18  2  0
  6 19  1  0
 18 20  1  0
 19 21  1  0
 17 22  1  0
 20 22  1  0
 11 23  1  0
 21 23  1  0
  5 24  1  0
 12 24  2  0
 22 25  2  0
 14 26  1  0
 17 26  1  0
 23 27  1  0
  8 28  2  0
 19 28  1  0
 27 29  2  0
 24 30  1  0
 13 31  1  0
 30 32  1  0
 31 32  2  0
 27 33  1  0
M  END
>  <ID>  (1) 
conformer_0

$$$$
