
     RDKit          3D

 27 28  0  0  0  0  0  0  0  0999 V2000
  103.3617    9.9504  -91.8697 O   0  0  0  0  0  0  0  0  0  0  0  0
  104.4140    9.2951  -91.7027 C   0  0  0  0  0  0  0  0  0  0  0  0
  105.6556    9.6911  -92.1425 C   0  0  0  0  0  0  0  0  0  0  0  0
  105.8619   10.8825  -92.7618 O   0  0  0  0  0  0  0  0  0  0  0  0
  104.2436    7.9634  -91.2361 C   0  0  0  0  0  0  0  0  0  0  0  0
  102.9543    7.6109  -90.8183 O   0  0  0  0  0  0  0  0  0  0  0  0
  105.1963    7.0035  -91.2241 C   0  0  0  0  0  0  0  0  0  0  0  0
  102.0039    7.6944  -91.6330 C   0  0  0  0  0  0  0  0  0  0  0  0
  100.6682    7.6796  -90.8517 C   0  0  0  0  0  0  0  0  0  0  0  0
   99.5256    7.1193  -91.5876 C   0  0  0  0  0  0  0  0  0  0  0  0
  100.2286    9.0473  -90.6623 C   0  0  0  0  0  0  0  0  0  0  0  0
   99.3905    5.6567  -91.6164 C   0  0  0  0  0  0  0  0  0  0  0  0
   98.8883    9.1977  -90.8977 C   0  0  0  0  0  0  0  0  0  0  0  0
   98.3991    5.1377  -91.3041 O   0  0  0  0  0  0  0  0  0  0  0  0
  104.9945    5.6270  -90.7913 C   0  0  0  0  0  0  0  0  0  0  0  0
  105.1696    4.5928  -91.5641 N   0  0  0  0  0  0  0  0  0  0  0  0
  106.8706    8.6894  -92.2482 C   0  0  0  0  0  0  0  0  0  0  0  0
   98.4526    7.8270  -90.8463 O   0  0  0  0  0  0  0  0  0  0  0  0
  106.5245    7.4467  -91.7132 C   0  0  0  0  0  0  0  0  0  0  0  0
  104.3727    3.5248  -91.8624 C   0  0  0  0  0  0  0  0  0  0  0  0
  100.9593   10.1717  -90.8658 O   0  0  0  0  0  0  0  0  0  0  0  0
  104.7414    2.4553  -92.6298 C   0  0  0  0  0  0  0  0  0  0  0  0
  105.9943    2.4246  -93.0771 O   0  0  0  0  0  0  0  0  0  0  0  0
   98.1169   10.1847  -90.9689 O   0  0  0  0  0  0  0  0  0  0  0  0
  103.1056    3.5074  -91.3584 O   0  0  0  0  0  0  0  0  0  0  0  0
  100.5598    4.9663  -91.6393 O   0  0  0  0  0  0  0  0  0  0  0  0
  104.1749    1.1861  -92.6263 O   0  0  0  0  0  0  0  0  0  0  0  0
  1  2  1  0
  2  3  2  0
  3  4  1  0
  2  5  1  0
  5  6  1  0
  5  7  2  0
  6  8  1  0
  8  9  1  0
  9 10  1  0
  9 11  1  0
 10 12  1  0
 11 13  1  0
 12 14  2  0
  7 15  1  0
 15 16  1  0
  3 17  1  0
 10 18  1  0
 13 18  1  0
  7 19  1  0
 17 19  2  0
 16 20  1  0
 11 21  1  0
 20 22  1  0
 22 23  1  0
 13 24  2  0
 20 25  2  0
 12 26  1  0
 22 27  2  0
M  END
>  <ID>  (1) 
conformer_0

$$$$
