
     RDKit          3D

 32 40  0  0  0  0  0  0  0  0999 V2000
  103.9751    9.2785  -91.6427 O   0  0  0  0  0  0  0  0  0  0  0  0
  102.9456    8.4949  -91.4221 C   0  0  0  0  0  0  0  0  0  0  0  0
  101.6353    8.7178  -91.5595 C   0  0  0  0  0  0  0  0  0  0  0  0
  103.1975    7.0163  -91.6487 C   0  0  0  0  0  0  0  0  0  0  0  0
  100.6134    7.8540  -91.4251 C   0  0  0  0  0  0  0  0  0  0  0  0
  105.1922    8.7553  -92.0459 C   0  0  0  0  0  0  0  0  0  0  0  0
  102.1428    6.1008  -91.5074 C   0  0  0  0  0  0  0  0  0  0  0  0
  100.8852    6.5226  -91.4098 C   0  0  0  0  0  0  0  0  0  0  0  0
  101.2760   10.1525  -91.3448 N   0  0  0  0  0  0  0  0  0  0  0  0
   99.8432    5.3866  -91.3729 C   0  0  0  0  0  0  0  0  0  0  0  0
   99.3593    8.6026  -91.3012 C   0  0  0  0  0  0  0  0  0  0  0  0
  104.5904    6.6026  -91.5731 N   0  0  0  0  0  0  0  0  0  0  0  0
  105.6022    7.5139  -91.7114 C   0  0  0  0  0  0  0  0  0  0  0  0
  106.1773    9.9549  -92.3188 C   0  0  0  0  0  0  0  0  0  0  0  0
  106.9253    7.0851  -91.9054 C   0  0  0  0  0  0  0  0  0  0  0  0
   98.0786    8.2848  -91.1579 C   0  0  0  0  0  0  0  0  0  0  0  0
   97.6774    7.0082  -90.8442 N   0  0  0  0  0  0  0  0  0  0  0  0
   98.2776    5.7723  -91.2839 C   0  0  0  0  0  0  0  0  0  0  0  0
  104.8286    5.2807  -91.0926 C   0  0  0  0  0  0  0  0  0  0  0  0
  103.9381    4.3584  -91.2541 O   0  0  0  0  0  0  0  0  0  0  0  0
  107.8256    8.0733  -92.3411 C   0  0  0  0  0  0  0  0  0  0  0  0
   99.6070   10.0924  -91.4202 C   0  0  0  0  0  0  0  0  0  0  0  0
  100.1291    4.1807  -91.2519 C   0  0  0  0  0  0  0  0  0  0  0  0
   97.2073    9.2822  -90.8110 N   0  0  0  0  0  0  0  0  0  0  0  0
   97.7748    4.5847  -91.4717 N   0  0  0  0  0  0  0  0  0  0  0  0
  102.6850    4.7679  -91.0418 C   0  0  0  0  0  0  0  0  0  0  0  0
   97.5935   10.4982  -90.7334 C   0  0  0  0  0  0  0  0  0  0  0  0
  107.3728    9.4507  -92.4866 C   0  0  0  0  0  0  0  0  0  0  0  0
   98.8226    3.5079  -91.5505 O   0  0  0  0  0  0  0  0  0  0  0  0
  101.5246    3.5835  -91.4110 C   0  0  0  0  0  0  0  0  0  0  0  0
  106.0244    4.9774  -90.7594 O   0  0  0  0  0  0  0  0  0  0  0  0
   98.8319   11.0105  -91.0658 C   0  0  0  0  0  0  0  0  0  0  0  0
  1  2  1  0
  2  3  1  0
  2  4  2  0
  3  5  2  0
  1  6  1  0
  4  7  1  0
  5  8  1  0
  7  8  2  0
  3  9  1  0
  8 10  1  0
  5 11  1  0
  4 12  1  0
  6 13  2  0
 12 13  1  0
  6 14  1  0
 13 15  1  0
 11 16  2  0
 16 17  1  0
 10 18  1  0
 17 18  1  0
 12 19  1  0
 19 20  1  0
 15 21  2  0
  9 22  2  0
 11 22  1  0
 10 23  2  0
 16 24  1  0
 18 25  2  0
  7 26  1  0
 20 26  1  0
 24 27  2  0
 14 28  2  0
 21 28  1  0
 23 29  1  0
 25 29  1  0
 23 30  1  0
 26 30  1  0
 19 31  2  0
 22 32  1  0
 27 32  1  0
M  END
>  <ID>  (1) 
conformer_0

$$$$
