
     RDKit          3D

 29 34  0  0  0  0  0  0  0  0999 V2000
   98.3897   10.2363  -91.1740 C   0  0  0  0  0  0  0  0  0  0  0  0
   99.4805   10.7453  -91.2251 C   0  0  0  0  0  0  0  0  0  0  0  0
   98.3348    8.7759  -90.9099 C   0  0  0  0  0  0  0  0  0  0  0  0
   99.3524    7.9998  -90.9358 C   0  0  0  0  0  0  0  0  0  0  0  0
   99.2199    6.5834  -90.6878 C   0  0  0  0  0  0  0  0  0  0  0  0
  100.5893    8.4832  -91.1268 C   0  0  0  0  0  0  0  0  0  0  0  0
  101.7276    7.7064  -91.1231 N   0  0  0  0  0  0  0  0  0  0  0  0
  102.9285    8.1990  -91.2896 C   0  0  0  0  0  0  0  0  0  0  0  0
  104.0111    7.3322  -91.0724 N   0  0  0  0  0  0  0  0  0  0  0  0
  101.6716    6.2441  -90.9182 C   0  0  0  0  0  0  0  0  0  0  0  0
  105.3227    7.5227  -91.3273 C   0  0  0  0  0  0  0  0  0  0  0  0
   98.1960    5.9524  -90.6037 O   0  0  0  0  0  0  0  0  0  0  0  0
  103.6220    5.9592  -90.7645 C   0  0  0  0  0  0  0  0  0  0  0  0
   99.7034   12.1233  -91.4961 O   0  0  0  0  0  0  0  0  0  0  0  0
  106.1519    6.7356  -91.9507 C   0  0  0  0  0  0  0  0  0  0  0  0
  100.7366    9.8902  -91.3193 C   0  0  0  0  0  0  0  0  0  0  0  0
  100.3768    5.7801  -90.8778 N   0  0  0  0  0  0  0  0  0  0  0  0
  103.1382    9.3165  -91.4572 O   0  0  0  0  0  0  0  0  0  0  0  0
  102.5769    5.3753  -90.9107 C   0  0  0  0  0  0  0  0  0  0  0  0
  100.1146    4.3058  -90.7608 C   0  0  0  0  0  0  0  0  0  0  0  0
  102.3529    4.0457  -90.6424 C   0  0  0  0  0  0  0  0  0  0  0  0
  103.5015    3.1482  -90.7581 C   0  0  0  0  0  0  0  0  0  0  0  0
  105.8716    5.3695  -91.5023 C   0  0  0  0  0  0  0  0  0  0  0  0
  101.1044    3.4660  -90.6419 C   0  0  0  0  0  0  0  0  0  0  0  0
  103.3438    1.9084  -90.4470 O   0  0  0  0  0  0  0  0  0  0  0  0
  104.6175    3.4629  -91.4251 N   0  0  0  0  0  0  0  0  0  0  0  0
  105.4129    2.6791  -92.0999 C   0  0  0  0  0  0  0  0  0  0  0  0
  104.7636    4.9316  -91.3435 C   0  0  0  0  0  0  0  0  0  0  0  0
  105.1363    2.5507  -93.4954 O   0  0  0  0  0  0  0  0  0  0  0  0
  1  2  2  0
  1  3  1  0
  3  4  2  0
  4  5  1  0
  4  6  1  0
  6  7  1  0
  7  8  1  0
  8  9  1  0
  7 10  1  0
  9 11  1  0
  5 12  2  0
  9 13  1  0
  2 14  1  0
 11 15  1  0
  2 16  1  0
  6 16  2  0
  5 17  1  0
 10 17  1  0
  8 18  2  0
 10 19  1  0
 13 19  1  0
 17 20  1  0
 19 21  2  0
 21 22  1  0
 15 23  1  0
 20 24  2  0
 21 24  1  0
 22 25  2  0
 22 26  1  0
 26 27  1  0
 13 28  1  0
 23 28  1  0
 26 28  1  0
 27 29  1  0
M  END
>  <ID>  (1) 
conformer_0

$$$$
