
     RDKit          3D

 35 41  0  0  0  0  0  0  0  0999 V2000
  103.3617    9.9504  -91.8697 O   0  0  0  0  0  0  0  0  0  0  0  0
  104.4140    9.2951  -91.7027 C   0  0  0  0  0  0  0  0  0  0  0  0
  105.6556    9.6911  -92.1425 C   0  0  0  0  0  0  0  0  0  0  0  0
  102.1757    9.2143  -91.4732 C   0  0  0  0  0  0  0  0  0  0  0  0
  100.8855    9.8159  -91.4829 C   0  0  0  0  0  0  0  0  0  0  0  0
  104.3488    7.9168  -91.2286 C   0  0  0  0  0  0  0  0  0  0  0  0
  102.3466    8.0085  -90.9362 C   0  0  0  0  0  0  0  0  0  0  0  0
  106.7783    9.0069  -92.1434 C   0  0  0  0  0  0  0  0  0  0  0  0
  103.2796    7.3270  -90.9571 C   0  0  0  0  0  0  0  0  0  0  0  0
  103.2952    5.9066  -90.3846 C   0  0  0  0  0  0  0  0  0  0  0  0
  103.1738    4.8519  -91.3497 C   0  0  0  0  0  0  0  0  0  0  0  0
  100.7937    7.5966  -90.7262 C   0  0  0  0  0  0  0  0  0  0  0  0
  100.4830   11.0529  -91.5334 C   0  0  0  0  0  0  0  0  0  0  0  0
  102.1307    4.5391  -91.8776 O   0  0  0  0  0  0  0  0  0  0  0  0
  100.2844    6.4013  -90.3214 C   0  0  0  0  0  0  0  0  0  0  0  0
  107.9109    9.6767  -92.6834 O   0  0  0  0  0  0  0  0  0  0  0  0
  100.1013    5.3833  -91.1851 N   0  0  0  0  0  0  0  0  0  0  0  0
   99.1445    6.4072  -89.4935 C   0  0  0  0  0  0  0  0  0  0  0  0
  105.6037    7.1389  -91.3046 C   0  0  0  0  0  0  0  0  0  0  0  0
   98.3021    5.2688  -89.3839 C   0  0  0  0  0  0  0  0  0  0  0  0
  105.6041    5.7766  -90.9443 C   0  0  0  0  0  0  0  0  0  0  0  0
   98.4431    4.2327  -90.2679 C   0  0  0  0  0  0  0  0  0  0  0  0
  100.0796    8.8511  -91.1110 C   0  0  0  0  0  0  0  0  0  0  0  0
   99.1137   11.3113  -91.3342 C   0  0  0  0  0  0  0  0  0  0  0  0
   98.6271   12.6338  -91.4556 O   0  0  0  0  0  0  0  0  0  0  0  0
   99.4557    4.3732  -91.2098 C   0  0  0  0  0  0  0  0  0  0  0  0
  105.9260    5.5172  -89.7318 O   0  0  0  0  0  0  0  0  0  0  0  0
  105.4630    4.7127  -91.7958 N   0  0  0  0  0  0  0  0  0  0  0  0
  104.1072    4.0261  -91.4180 C   0  0  0  0  0  0  0  0  0  0  0  0
   98.6528    9.1932  -90.9295 C   0  0  0  0  0  0  0  0  0  0  0  0
  101.2602    5.3879  -92.2305 C   0  0  0  0  0  0  0  0  0  0  0  0
  106.8890    7.6589  -91.7513 C   0  0  0  0  0  0  0  0  0  0  0  0
  106.3364    4.2422  -92.7777 C   0  0  0  0  0  0  0  0  0  0  0  0
   98.2223   10.3516  -91.0060 C   0  0  0  0  0  0  0  0  0  0  0  0
   99.2602    3.5694  -92.2735 O   0  0  0  0  0  0  0  0  0  0  0  0
  1  2  1  0
  2  3  2  0
  1  4  1  0
  4  5  1  0
  2  6  1  0
  4  7  2  0
  3  8  1  0
  6  9  2  0
  7  9  1  0
  9 10  1  0
 10 11  1  0
  7 12  1  0
  5 13  2  0
 11 14  1  0
 12 15  1  0
  8 16  1  0
 15 17  1  0
 15 18  2  0
  6 19  1  0
 18 20  1  0
 19 21  1  0
 20 22  2  0
  5 23  1  0
 12 23  2  0
 13 24  1  0
 24 25  1  0
 17 26  1  0
 22 26  1  0
 21 27  2  0
 21 28  1  0
 11 29  1  0
 28 29  1  0
 23 30  1  0
 14 31  1  0
 17 31  1  0
  8 32  2  0
 19 32  1  0
 28 33  1  0
 24 34  2  0
 30 34  1  0
 26 35  2  0
M  END
>  <ID>  (1) 
conformer_0

$$$$
