
     RDKit          3D

 28 32  0  0  0  0  0  0  0  0999 V2000
  106.2630    9.3133  -92.5510 O   0  0  0  0  0  0  0  0  0  0  0  0
  106.0428    8.1686  -92.0775 C   0  0  0  0  0  0  0  0  0  0  0  0
  105.1283    7.9210  -91.2417 N   0  0  0  0  0  0  0  0  0  0  0  0
  104.6700    6.7381  -91.0243 C   0  0  0  0  0  0  0  0  0  0  0  0
  105.3388    5.5991  -91.4368 C   0  0  0  0  0  0  0  0  0  0  0  0
  106.5058    5.9075  -92.2764 C   0  0  0  0  0  0  0  0  0  0  0  0
  104.1677    9.0360  -90.8415 C   0  0  0  0  0  0  0  0  0  0  0  0
  102.7902    8.7085  -91.1261 C   0  0  0  0  0  0  0  0  0  0  0  0
  105.0725    4.2578  -91.0406 O   0  0  0  0  0  0  0  0  0  0  0  0
  102.1786    7.5428  -91.1305 C   0  0  0  0  0  0  0  0  0  0  0  0
  107.2840    4.7900  -92.7434 O   0  0  0  0  0  0  0  0  0  0  0  0
  101.9036    9.7609  -91.3199 C   0  0  0  0  0  0  0  0  0  0  0  0
  100.5874    9.3582  -91.4409 C   0  0  0  0  0  0  0  0  0  0  0  0
  100.8431    7.7098  -91.3843 C   0  0  0  0  0  0  0  0  0  0  0  0
   99.8235    6.7414  -91.5099 C   0  0  0  0  0  0  0  0  0  0  0  0
  100.1959    5.5622  -91.4407 N   0  0  0  0  0  0  0  0  0  0  0  0
  103.5451    6.1817  -90.0540 C   0  0  0  0  0  0  0  0  0  0  0  0
  104.0229    3.6139  -91.6755 C   0  0  0  0  0  0  0  0  0  0  0  0
  106.9618    7.1428  -92.3136 C   0  0  0  0  0  0  0  0  0  0  0  0
   99.3472    9.8865  -91.3233 C   0  0  0  0  0  0  0  0  0  0  0  0
   98.2307    9.2416  -91.0675 C   0  0  0  0  0  0  0  0  0  0  0  0
  102.5025    6.4812  -90.3602 C   0  0  0  0  0  0  0  0  0  0  0  0
   98.0279    7.8345  -91.1785 C   0  0  0  0  0  0  0  0  0  0  0  0
   99.4247   11.3101  -91.2967 C   0  0  0  0  0  0  0  0  0  0  0  0
   98.6235    6.8392  -91.3764 C   0  0  0  0  0  0  0  0  0  0  0  0
  101.7245    5.3070  -90.9216 C   0  0  0  0  0  0  0  0  0  0  0  0
  103.2497    4.1586  -92.4834 O   0  0  0  0  0  0  0  0  0  0  0  0
  103.6216    2.4501  -91.1217 C   0  0  0  0  0  0  0  0  0  0  0  0
  1  2  2  0
  2  3  1  0
  3  4  1  0
  4  5  2  0
  5  6  1  0
  3  7  1  0
  7  8  1  0
  5  9  1  0
  8 10  1  0
  6 11  1  0
  8 12  2  0
 12 13  1  0
 10 14  1  0
 13 14  2  0
 14 15  1  0
 15 16  2  0
  4 17  1  0
  9 18  1  0
  2 19  1  0
  6 19  2  0
 13 20  1  0
 20 21  2  0
 10 22  1  0
 17 22  1  0
 21 23  1  0
 20 24  1  0
 15 25  1  0
 23 25  2  0
 16 26  1  0
 22 26  1  0
 18 27  2  0
 18 28  1  0
M  END
>  <ID>  (1) 
conformer_0

$$$$
