
     RDKit          3D

 27 28  0  0  0  0  0  0  0  0999 V2000
  103.3617    9.9504  -91.8697 O   0  0  0  0  0  0  0  0  0  0  0  0
  104.4140    9.2951  -91.7027 C   0  0  0  0  0  0  0  0  0  0  0  0
  105.6556    9.6911  -92.1425 C   0  0  0  0  0  0  0  0  0  0  0  0
  105.8619   10.8825  -92.7618 O   0  0  0  0  0  0  0  0  0  0  0  0
  104.2436    7.9634  -91.2361 C   0  0  0  0  0  0  0  0  0  0  0  0
  102.9543    7.6109  -90.8183 O   0  0  0  0  0  0  0  0  0  0  0  0
  105.1963    7.0035  -91.2241 C   0  0  0  0  0  0  0  0  0  0  0  0
  102.0039    7.6944  -91.6330 C   0  0  0  0  0  0  0  0  0  0  0  0
  100.6682    7.6796  -90.8517 C   0  0  0  0  0  0  0  0  0  0  0  0
   99.5256    7.1193  -91.5876 C   0  0  0  0  0  0  0  0  0  0  0  0
  100.2286    9.0473  -90.6623 C   0  0  0  0  0  0  0  0  0  0  0  0
   99.3905    5.6567  -91.6164 C   0  0  0  0  0  0  0  0  0  0  0  0
   98.8883    9.1977  -90.8977 C   0  0  0  0  0  0  0  0  0  0  0  0
  105.0052    5.6560  -90.7832 C   0  0  0  0  0  0  0  0  0  0  0  0
  104.0113    5.0192  -91.2705 N   0  0  0  0  0  0  0  0  0  0  0  0
   98.4029    7.8153  -90.8532 C   0  0  0  0  0  0  0  0  0  0  0  0
  104.1607    3.6256  -91.6228 C   0  0  0  0  0  0  0  0  0  0  0  0
  105.3684    3.2092  -92.0351 C   0  0  0  0  0  0  0  0  0  0  0  0
  106.5187    7.5153  -91.5641 C   0  0  0  0  0  0  0  0  0  0  0  0
  103.2964    2.8103  -90.9140 O   0  0  0  0  0  0  0  0  0  0  0  0
  106.7488    8.7408  -92.1084 C   0  0  0  0  0  0  0  0  0  0  0  0
   98.6322    5.0801  -90.8166 O   0  0  0  0  0  0  0  0  0  0  0  0
  106.5322    3.5312  -91.8350 O   0  0  0  0  0  0  0  0  0  0  0  0
  100.1902    4.9795  -92.3398 O   0  0  0  0  0  0  0  0  0  0  0  0
   98.2527   10.1742  -90.1278 O   0  0  0  0  0  0  0  0  0  0  0  0
  105.1659    2.2250  -93.0808 O   0  0  0  0  0  0  0  0  0  0  0  0
   98.7195   11.4480  -90.4663 C   0  0  0  0  0  0  0  0  0  0  0  0
  1  2  1  0
  2  3  2  0
  3  4  1  0
  2  5  1  0
  5  6  1  0
  5  7  2  0
  6  8  1  0
  8  9  1  0
  9 10  1  0
  9 11  1  0
 10 12  1  0
 11 13  1  0
  7 14  1  0
 14 15  1  0
 10 16  1  0
 13 16  1  0
 15 17  1  0
 17 18  1  0
  7 19  1  0
 17 20  2  0
  3 21  1  0
 19 21  2  0
 12 22  1  0
 18 23  2  0
 12 24  2  0
 13 25  1  0
 18 26  1  0
 25 27  1  0
M  END
>  <ID>  (1) 
conformer_0

$$$$
