
     RDKit          3D

 13 14  0  0  0  0  0  0  0  0999 V2000
   98.3897   10.2363  -91.1740 C   0  0  0  0  0  0  0  0  0  0  0  0
   99.4805   10.7453  -91.2251 C   0  0  0  0  0  0  0  0  0  0  0  0
  100.5829    9.7648  -91.1650 C   0  0  0  0  0  0  0  0  0  0  0  0
   97.9609    8.9269  -90.9858 C   0  0  0  0  0  0  0  0  0  0  0  0
   99.0313    7.9660  -90.9361 C   0  0  0  0  0  0  0  0  0  0  0  0
   98.7740    6.5932  -90.7080 C   0  0  0  0  0  0  0  0  0  0  0  0
  101.9727   10.1957  -91.2722 O   0  0  0  0  0  0  0  0  0  0  0  0
  100.4404    8.3835  -90.9984 C   0  0  0  0  0  0  0  0  0  0  0  0
  102.9246    9.1153  -91.2132 C   0  0  0  0  0  0  0  0  0  0  0  0
  101.4981    7.4693  -90.9816 C   0  0  0  0  0  0  0  0  0  0  0  0
  102.6618    7.8669  -91.1657 C   0  0  0  0  0  0  0  0  0  0  0  0
   98.8525    5.6680  -91.6209 C   0  0  0  0  0  0  0  0  0  0  0  0
   98.4548    4.2921  -91.3212 C   0  0  0  0  0  0  0  0  0  0  0  0
  1  2  1  0
  2  3  2  0
  1  4  2  0
  4  5  1  0
  5  6  1  0
  3  7  1  0
  3  8  1  0
  5  8  2  0
  7  9  1  0
  8 10  1  0
  9 11  2  0
 10 11  2  0
  6 12  2  3
 12 13  1  0
M  END
>  <ID>  (1) 
conformer_0

$$$$
