
     RDKit          3D

 32 36  0  0  0  0  0  0  0  0999 V2000
  103.3617    9.9504  -91.8697 O   0  0  0  0  0  0  0  0  0  0  0  0
  104.4140    9.2951  -91.7027 C   0  0  0  0  0  0  0  0  0  0  0  0
  105.6556    9.6911  -92.1425 C   0  0  0  0  0  0  0  0  0  0  0  0
  102.1757    9.2143  -91.4732 C   0  0  0  0  0  0  0  0  0  0  0  0
  100.8855    9.8159  -91.4829 C   0  0  0  0  0  0  0  0  0  0  0  0
  104.3488    7.9168  -91.2286 C   0  0  0  0  0  0  0  0  0  0  0  0
  102.3466    8.0085  -90.9362 C   0  0  0  0  0  0  0  0  0  0  0  0
  106.7783    9.0069  -92.1434 C   0  0  0  0  0  0  0  0  0  0  0  0
  103.2796    7.3270  -90.9571 C   0  0  0  0  0  0  0  0  0  0  0  0
  103.2952    5.9066  -90.3846 C   0  0  0  0  0  0  0  0  0  0  0  0
  103.1738    4.8519  -91.3497 C   0  0  0  0  0  0  0  0  0  0  0  0
  100.7937    7.5966  -90.7262 C   0  0  0  0  0  0  0  0  0  0  0  0
  100.4830   11.0529  -91.5334 C   0  0  0  0  0  0  0  0  0  0  0  0
  102.1307    4.5391  -91.8776 O   0  0  0  0  0  0  0  0  0  0  0  0
   99.0841   11.3532  -91.3910 C   0  0  0  0  0  0  0  0  0  0  0  0
  101.0218    3.9818  -91.3540 C   0  0  0  0  0  0  0  0  0  0  0  0
  100.0607    8.7566  -90.9288 C   0  0  0  0  0  0  0  0  0  0  0  0
  104.3274    4.2160  -91.7751 C   0  0  0  0  0  0  0  0  0  0  0  0
   99.6941    4.1102  -92.1451 C   0  0  0  0  0  0  0  0  0  0  0  0
  105.6924    7.1994  -91.1281 C   0  0  0  0  0  0  0  0  0  0  0  0
   98.5930   12.5602  -91.4663 O   0  0  0  0  0  0  0  0  0  0  0  0
  105.7654    5.8632  -90.6860 O   0  0  0  0  0  0  0  0  0  0  0  0
   98.6883    9.0038  -90.8035 C   0  0  0  0  0  0  0  0  0  0  0  0
  106.8296    7.8272  -91.6120 C   0  0  0  0  0  0  0  0  0  0  0  0
  104.2806    3.0030  -92.4423 C   0  0  0  0  0  0  0  0  0  0  0  0
  105.4543    2.3963  -92.8043 O   0  0  0  0  0  0  0  0  0  0  0  0
   98.1788   10.3901  -90.9486 C   0  0  0  0  0  0  0  0  0  0  0  0
   98.5268    4.3953  -91.4090 C   0  0  0  0  0  0  0  0  0  0  0  0
  105.7072    4.8151  -91.3829 C   0  0  0  0  0  0  0  0  0  0  0  0
  103.3259    2.6377  -93.1933 O   0  0  0  0  0  0  0  0  0  0  0  0
   97.8038    8.0416  -90.4273 O   0  0  0  0  0  0  0  0  0  0  0  0
   98.5830    4.4175  -90.0362 C   0  0  0  0  0  0  0  0  0  0  0  0
  1  2  1  0
  2  3  2  0
  1  4  1  0
  4  5  1  0
  2  6  1  0
  4  7  2  0
  3  8  1  0
  6  9  2  0
  7  9  1  0
  9 10  1  0
 10 11  1  0
  7 12  1  0
  5 13  2  0
 11 14  1  0
 13 15  1  0
 14 16  1  0
  5 17  1  0
 12 17  2  0
 11 18  2  0
 16 19  1  0
  6 20  1  0
 15 21  1  0
 20 22  1  0
 17 23  1  0
  8 24  2  0
 20 24  2  0
 18 25  1  0
 25 26  1  0
 15 27  2  0
 23 27  1  0
 19 28  1  0
 18 29  1  0
 22 29  1  0
 25 30  2  0
 23 31  1  0
 28 32  1  0
M  END
>  <ID>  (1) 
conformer_0

$$$$
