
     RDKit          3D

 34 40  0  0  0  0  0  0  0  0999 V2000
  103.3617    9.9504  -91.8697 O   0  0  0  0  0  0  0  0  0  0  0  0
  104.4140    9.2951  -91.7027 C   0  0  0  0  0  0  0  0  0  0  0  0
  105.6556    9.6911  -92.1425 C   0  0  0  0  0  0  0  0  0  0  0  0
  102.1757    9.2143  -91.4732 C   0  0  0  0  0  0  0  0  0  0  0  0
  100.8855    9.8159  -91.4829 C   0  0  0  0  0  0  0  0  0  0  0  0
  104.3488    7.9168  -91.2286 C   0  0  0  0  0  0  0  0  0  0  0  0
  102.3466    8.0085  -90.9362 C   0  0  0  0  0  0  0  0  0  0  0  0
  106.7783    9.0069  -92.1434 C   0  0  0  0  0  0  0  0  0  0  0  0
  103.2796    7.3270  -90.9571 C   0  0  0  0  0  0  0  0  0  0  0  0
  103.2952    5.9066  -90.3846 C   0  0  0  0  0  0  0  0  0  0  0  0
  103.1738    4.8519  -91.3497 C   0  0  0  0  0  0  0  0  0  0  0  0
  100.7937    7.5966  -90.7262 C   0  0  0  0  0  0  0  0  0  0  0  0
  100.4830   11.0529  -91.5334 C   0  0  0  0  0  0  0  0  0  0  0  0
  102.1307    4.5391  -91.8776 O   0  0  0  0  0  0  0  0  0  0  0  0
  100.2844    6.4013  -90.3214 C   0  0  0  0  0  0  0  0  0  0  0  0
   99.2342    5.8420  -90.9766 N   0  0  0  0  0  0  0  0  0  0  0  0
  100.0707    8.7920  -90.9869 C   0  0  0  0  0  0  0  0  0  0  0  0
  107.9311    9.6422  -92.6892 O   0  0  0  0  0  0  0  0  0  0  0  0
  104.3911    4.1863  -91.7502 C   0  0  0  0  0  0  0  0  0  0  0  0
  105.6409    7.1670  -91.2927 C   0  0  0  0  0  0  0  0  0  0  0  0
   99.0960   11.3504  -91.3923 C   0  0  0  0  0  0  0  0  0  0  0  0
   98.5819    8.6688  -90.8115 C   0  0  0  0  0  0  0  0  0  0  0  0
  103.9020    3.1918  -92.6459 C   0  0  0  0  0  0  0  0  0  0  0  0
  105.6870    5.8211  -90.9119 O   0  0  0  0  0  0  0  0  0  0  0  0
  106.8784    7.7557  -91.7367 C   0  0  0  0  0  0  0  0  0  0  0  0
  104.6803    2.2384  -93.3113 C   0  0  0  0  0  0  0  0  0  0  0  0
  102.5426    3.3857  -92.7652 C   0  0  0  0  0  0  0  0  0  0  0  0
   97.7703    7.8186  -90.5515 C   0  0  0  0  0  0  0  0  0  0  0  0
   98.5035   12.5145  -91.4669 O   0  0  0  0  0  0  0  0  0  0  0  0
   98.1426   10.1859  -90.9749 C   0  0  0  0  0  0  0  0  0  0  0  0
  104.2970    1.5017  -94.1492 O   0  0  0  0  0  0  0  0  0  0  0  0
  105.9309    2.0496  -92.8471 O   0  0  0  0  0  0  0  0  0  0  0  0
  105.7372    4.6850  -91.6047 C   0  0  0  0  0  0  0  0  0  0  0  0
   98.0531    6.4339  -90.7374 C   0  0  0  0  0  0  0  0  0  0  0  0
  1  2  1  0
  2  3  2  0
  1  4  1  0
  4  5  1  0
  2  6  1  0
  4  7  2  0
  3  8  1  0
  6  9  2  0
  7  9  1  0
  9 10  1  0
 10 11  1  0
  7 12  1  0
  5 13  2  0
 11 14  1  0
 12 15  1  0
 15 16  2  0
  5 17  1  0
 12 17  2  0
  8 18  1  0
 11 19  2  0
  6 20  1  0
 13 21  1  0
 17 22  1  0
 19 23  1  0
 20 24  1  0
  8 25  2  0
 20 25  1  0
 23 26  1  0
 14 27  1  0
 23 27  2  0
 22 28  2  0
 21 29  1  0
 21 30  2  0
 22 30  1  0
 26 31  2  0
 26 32  1  0
 19 33  1  0
 24 33  1  0
 16 34  1  0
 28 34  1  0
M  END
>  <ID>  (1) 
conformer_0

$$$$
