
     RDKit          3D

 22 24  0  0  0  0  0  0  0  0999 V2000
   99.7272   10.5583  -91.5465 C   0  0  0  0  0  0  0  0  0  0  0  0
  100.6343    9.7203  -91.2298 C   0  0  0  0  0  0  0  0  0  0  0  0
  100.1969    8.3652  -90.8562 C   0  0  0  0  0  0  0  0  0  0  0  0
  101.2364    7.3693  -90.5883 C   0  0  0  0  0  0  0  0  0  0  0  0
   98.3690   10.2584  -91.3046 C   0  0  0  0  0  0  0  0  0  0  0  0
  101.0139    6.1132  -90.9284 N   0  0  0  0  0  0  0  0  0  0  0  0
  101.7929    4.9951  -90.5076 C   0  0  0  0  0  0  0  0  0  0  0  0
  102.5061    7.7828  -91.1330 C   0  0  0  0  0  0  0  0  0  0  0  0
   99.7332    5.6903  -91.5749 C   0  0  0  0  0  0  0  0  0  0  0  0
  102.6675    9.0474  -91.5323 C   0  0  0  0  0  0  0  0  0  0  0  0
  103.5784    6.8972  -91.0940 N   0  0  0  0  0  0  0  0  0  0  0  0
  103.2849    5.4729  -90.8664 C   0  0  0  0  0  0  0  0  0  0  0  0
  101.9355    9.9154  -91.1641 N   0  0  0  0  0  0  0  0  0  0  0  0
   99.6756    4.4487  -92.1518 C   0  0  0  0  0  0  0  0  0  0  0  0
  104.3635    4.5969  -90.9364 O   0  0  0  0  0  0  0  0  0  0  0  0
  104.6637    4.0174  -92.1725 C   0  0  0  0  0  0  0  0  0  0  0  0
   98.8647    3.5260  -91.4250 O   0  0  0  0  0  0  0  0  0  0  0  0
   98.9010    8.0528  -90.6475 C   0  0  0  0  0  0  0  0  0  0  0  0
  105.2918    2.6422  -91.9713 C   0  0  0  0  0  0  0  0  0  0  0  0
  103.9972    9.3891  -91.8251 O   0  0  0  0  0  0  0  0  0  0  0  0
  105.0254    1.8891  -93.0902 O   0  0  0  0  0  0  0  0  0  0  0  0
   97.9745    9.1126  -90.9015 C   0  0  0  0  0  0  0  0  0  0  0  0
  1  2  2  0
  2  3  1  0
  3  4  1  0
  1  5  1  0
  4  6  1  0
  6  7  1  0
  4  8  1  0
  6  9  1  0
  8 10  1  0
  8 11  2  0
  7 12  1  0
 11 12  1  0
  2 13  1  0
 10 13  1  0
  9 14  1  0
 12 15  1  0
 15 16  1  0
 14 17  1  0
  3 18  2  0
 16 19  1  0
 10 20  2  0
 19 21  1  0
  5 22  2  0
 18 22  1  0
M  END
>  <ID>  (1) 
conformer_0

$$$$
