
     RDKit          3D

 33 40  0  0  0  0  0  0  0  0999 V2000
  103.3617    9.9504  -91.8697 O   0  0  0  0  0  0  0  0  0  0  0  0
  104.4140    9.2951  -91.7027 C   0  0  0  0  0  0  0  0  0  0  0  0
  105.6556    9.6911  -92.1425 C   0  0  0  0  0  0  0  0  0  0  0  0
  102.1757    9.2143  -91.4732 C   0  0  0  0  0  0  0  0  0  0  0  0
  106.7242    8.6840  -92.1210 C   0  0  0  0  0  0  0  0  0  0  0  0
  104.2962    7.8227  -91.4366 C   0  0  0  0  0  0  0  0  0  0  0  0
  106.5861    7.4827  -91.8465 C   0  0  0  0  0  0  0  0  0  0  0  0
  102.9582    7.4602  -91.0254 C   0  0  0  0  0  0  0  0  0  0  0  0
  101.9707    8.1514  -91.1735 C   0  0  0  0  0  0  0  0  0  0  0  0
  105.3193    6.9557  -91.4033 C   0  0  0  0  0  0  0  0  0  0  0  0
  100.8843   10.2478  -91.5333 C   0  0  0  0  0  0  0  0  0  0  0  0
  102.8516    5.9064  -90.9641 C   0  0  0  0  0  0  0  0  0  0  0  0
   99.9001    9.3952  -91.0656 C   0  0  0  0  0  0  0  0  0  0  0  0
   99.9222    7.9867  -90.7518 C   0  0  0  0  0  0  0  0  0  0  0  0
   98.5796   10.1054  -90.8794 C   0  0  0  0  0  0  0  0  0  0  0  0
  103.9156    5.1767  -90.8451 C   0  0  0  0  0  0  0  0  0  0  0  0
   98.7046    7.3693  -90.3862 C   0  0  0  0  0  0  0  0  0  0  0  0
   97.5067    9.5019  -90.4709 C   0  0  0  0  0  0  0  0  0  0  0  0
  100.9009    7.3363  -90.7207 C   0  0  0  0  0  0  0  0  0  0  0  0
   98.6066    6.0351  -90.1263 C   0  0  0  0  0  0  0  0  0  0  0  0
   96.3141   10.3052  -90.3003 C   0  0  0  0  0  0  0  0  0  0  0  0
   99.6511    5.2987  -90.5386 C   0  0  0  0  0  0  0  0  0  0  0  0
  105.2142    5.7289  -90.9569 N   0  0  0  0  0  0  0  0  0  0  0  0
  101.0152    5.8837  -90.4873 C   0  0  0  0  0  0  0  0  0  0  0  0
   97.4856    8.1491  -90.2080 C   0  0  0  0  0  0  0  0  0  0  0  0
   99.6618    3.8106  -90.1367 O   0  0  0  0  0  0  0  0  0  0  0  0
   98.4597   11.5091  -91.1283 C   0  0  0  0  0  0  0  0  0  0  0  0
   99.5016   12.3752  -91.5439 O   0  0  0  0  0  0  0  0  0  0  0  0
  101.9918    5.2500  -90.7003 C   0  0  0  0  0  0  0  0  0  0  0  0
  104.0190    3.8223  -91.0914 O   0  0  0  0  0  0  0  0  0  0  0  0
   97.2870   12.1591  -90.9108 C   0  0  0  0  0  0  0  0  0  0  0  0
   96.2454   11.3908  -90.4907 C   0  0  0  0  0  0  0  0  0  0  0  0
  106.3251    5.0267  -90.3843 O   0  0  0  0  0  0  0  0  0  0  0  0
  1  2  1  0
  2  3  2  0
  1  4  1  0
  3  5  1  0
  2  6  1  0
  5  7  2  0
  6  8  1  0
  4  9  2  0
  8  9  1  0
  6 10  2  0
  7 10  1  0
  4 11  1  0
  8 12  2  0
 11 13  2  0
 13 14  1  0
 13 15  1  0
 12 16  1  0
 14 17  1  0
 15 18  2  0
  9 19  1  0
 14 19  2  0
 17 20  1  0
 18 21  1  0
 20 22  2  0
 10 23  1  0
 16 23  1  0
 19 24  1  0
 22 24  1  0
 17 25  2  0
 18 25  1  0
 22 26  1  0
 15 27  1  0
 27 28  1  0
 12 29  1  0
 24 29  2  0
 16 30  2  0
 27 31  2  0
 21 32  2  0
 31 32  1  0
 23 33  1  0
M  END
>  <ID>  (1) 
conformer_0

$$$$
