
     RDKit          3D

 32 34  0  0  0  0  0  0  0  0999 V2000
   23.6831    9.7998   35.1930 C   0  0  1  0  0  0  0  0  0  0  0  0
   29.4229    9.7251   35.1017 C   0  0  0  0  0  0  0  0  0  0  0  0
   16.7433    8.2528   26.9330 C   0  0  0  0  0  0  0  0  0  0  0  0
   21.8368    8.6883   28.3425 C   0  0  0  0  0  0  0  0  0  0  0  0
   23.1887    8.9778   34.0894 C   0  0  0  0  0  0  0  0  0  0  0  0
   19.0142    9.6793   28.3770 C   0  0  2  0  0  0  0  0  0  0  0  0
   30.3805    8.4662   34.8848 N   0  0  0  0  0  0  0  0  0  0  0  0
   26.7342   11.7757   35.3263 C   0  0  0  0  0  0  0  0  0  0  0  0
   26.2956   10.5354   34.7028 N   0  0  0  0  0  0  0  0  0  0  0  0
   19.8319    7.8906   26.6680 C   0  0  0  0  0  0  0  0  0  0  0  0
   17.5786    9.3242   27.9577 C   0  0  0  0  0  0  0  0  0  0  0  0
   24.0142    9.1091   36.4404 O   0  0  0  0  0  0  0  0  0  0  0  0
   24.6750    9.9951   33.4175 O   0  0  0  0  0  0  0  0  0  0  0  0
   19.6420   10.0529   32.6009 O   0  0  0  0  0  0  0  0  0  0  0  0
   20.0526    8.0192   31.3168 O   0  0  0  0  0  0  0  0  0  0  0  0
   20.7231    7.0598   25.6831 O   0  0  0  0  0  0  0  0  0  0  0  0
   27.3788   12.1974   35.6749 N   0  0  0  0  0  0  0  0  0  0  0  0
   20.2564    9.3537   31.6730 P   0  0  0  0  0  5  0  0  0  0  0  0
   30.2222   11.0814   35.8242 N   0  0  0  0  0  0  0  0  0  0  0  0
   17.2467    7.4022   26.4667 C   0  0  0  0  0  0  0  0  0  0  0  0
   23.1570    7.5216   34.9758 O   0  0  0  0  0  0  0  0  0  0  0  0
   29.0710   11.6694   35.6988 C   0  0  0  0  0  0  0  0  0  0  0  0
   15.3679    6.9604   26.4786 O   0  0  0  0  0  0  0  0  0  0  0  0
   22.8890    9.3069   32.7459 C   0  0  0  0  0  0  0  0  0  0  0  0
   17.6394    5.9507   26.0257 O   0  0  0  0  0  0  0  0  0  0  0  0
   21.0478    9.0222   28.7489 C   0  0  0  0  0  0  0  0  0  0  0  0
   21.2557    9.7176   31.2671 O   0  0  0  0  0  0  0  0  0  0  0  0
   28.5253    9.0994   34.6894 N   0  0  0  0  0  0  0  0  0  0  0  0
   19.4889    8.9585   27.8733 N   0  0  0  0  0  0  0  0  0  0  0  0
   27.7871   10.4076   34.9647 C   0  0  2  0  0  0  0  0  0  0  0  0
   17.4582   10.3372   28.9968 C   0  0  0  0  0  0  0  0  0  0  0  0
   25.1809    9.6753   34.4139 C   0  0  2  0  0  0  0  0  0  0  0  0
  5  1  1  0
  7  2  1  0
  9  8  1  0
 11  3  2  3
 11  6  1  0
  1 12  1  1
 16 10  1  0
 17  8  2  0
 18 14  1  0
 19  2  2  0
 20  3  1  0
 21  5  1  0
 22 17  1  0
 22 19  1  0
 23 20  1  0
 24  5  1  0
 24 18  1  0
 25 20  1  0
 26  4  2  3
 26 18  1  0
 27 15  1  0
 27 18  1  0
 28  2  1  0
  6 29  1  1
 29 10  1  0
 29 26  1  0
 30  8  1  0
 30  9  1  0
 30 28  1  1
 31  6  1  0
 31 11  1  0
 32  1  1  0
 32  9  1  0
 32 13  1  6
M  END
>  <ID>  (1) 
conformer_0

$$$$
