
     RDKit          3D

 29 30  0  0  0  0  0  0  0  0999 V2000
   28.8273   10.0240   35.0775 C   0  0  0  0  0  0  0  0  0  0  0  0
   24.6660    9.8487   34.8474 C   0  0  0  0  0  0  0  0  0  0  0  0
   17.2909    8.9441   27.5948 C   0  0  2  0  0  0  0  0  0  0  0  0
   21.8706    8.7663   28.6364 C   0  0  0  0  0  0  0  0  0  0  0  0
   23.2946    9.2621   34.7937 C   0  0  0  0  0  0  0  0  0  0  0  0
   19.7321    8.3370   27.1302 C   0  0  0  0  0  0  0  0  0  0  0  0
   30.1987    8.4588   34.8324 N   0  0  0  0  0  0  0  0  0  0  0  0
   26.1716   10.7284   34.8358 N   0  0  0  0  0  0  0  0  0  0  0  0
   27.0097   11.5779   35.3492 C   0  0  0  0  0  0  0  0  0  0  0  0
   17.2109    7.6794   26.6114 C   0  0  0  0  0  0  0  0  0  0  0  0
   24.4902   10.0771   33.5007 O   0  0  0  0  0  0  0  0  0  0  0  0
   23.9678    9.0325   36.5229 O   0  0  0  0  0  0  0  0  0  0  0  0
   27.4780   12.5710   35.8615 N   0  0  0  0  0  0  0  0  0  0  0  0
   30.3005   10.7789   35.7436 N   0  0  0  0  0  0  0  0  0  0  0  0
   20.7559    7.5570   26.3333 O   0  0  0  0  0  0  0  0  0  0  0  0
   21.1606    8.9441   31.4920 O   0  0  0  0  0  0  0  0  0  0  0  0
   23.2562    7.3753   34.8517 O   0  0  0  0  0  0  0  0  0  0  0  0
   20.0180    8.7872   31.5009 P   0  0  2  0  0  4  0  0  0  0  0  0
   19.6122    9.8772   32.3994 O   0  0  0  0  0  0  0  0  0  0  0  0
   28.9307   11.5811   35.6615 C   0  0  0  0  0  0  0  0  0  0  0  0
   28.0949    9.1212   34.7557 N   0  0  0  0  0  0  0  0  0  0  0  0
   22.9702    8.9641   33.0902 C   0  0  0  0  0  0  0  0  0  0  0  0
   21.6200    9.3896   29.5538 C   0  0  1  0  0  0  0  0  0  0  0  0
   18.7903    9.5500   28.7044 C   0  0  0  0  0  0  0  0  0  0  0  0
   19.3731    7.8261   31.4475 O   0  0  0  0  0  1  0  0  0  0  0  0
   15.7021    7.1199   26.2727 O   0  0  0  0  0  0  0  0  0  0  0  0
   17.3810    9.9013   28.7765 C   0  0  0  0  0  0  0  0  0  0  0  0
   17.4464    7.4670   25.9581 N   0  0  0  0  0  0  0  0  0  0  0  0
   19.3840    9.1140   28.3178 N   0  0  0  0  0  0  0  0  0  0  0  0
  5  2  1  0
  7  1  1  0
  8  2  1  0
  9  8  1  0
  3 10  1  1
 11  2  2  0
 12  5  1  0
 13  9  1  0
 14  1  1  0
 15  4  1  0
 15  6  1  0
 17  5  1  0
 18 16  1  0
 18 19  1  1
 20  1  1  0
 20 13  1  0
 20 14  2  0
 21  1  1  0
 22  5  1  0
 23  4  1  6
 23 16  1  0
 23 22  1  0
 24  3  1  0
 25 18  1  0
 26 10  2  0
 27  3  1  0
 27 24  1  0
 28 10  1  0
 29  6  2  3
 29 24  1  0
M  RAD  2  18   2  25   2
M  END
>  <ID>  (1) 
conformer_0

$$$$
