
     RDKit          3D

 31 32  0  0  0  0  0  0  0  0999 V2000
   23.0078    9.0589   32.5667 C   0  0  0  0  0  0  0  0  0  0  0  0
   29.2051    9.3879   34.9365 C   0  0  0  0  0  0  0  0  0  0  0  0
   18.0223    8.3540   27.9201 C   0  0  1  0  0  0  0  0  0  0  0  0
   22.2681    8.8253   28.6091 C   0  0  0  0  0  0  0  0  0  0  0  0
   22.8006    8.7147   33.7933 C   0  0  1  0  0  0  0  0  0  0  0  0
   17.0470    7.9554   26.5104 C   0  0  0  0  0  0  0  0  0  0  0  0
   26.5700   12.0795   35.5318 C   0  0  0  0  0  0  0  0  0  0  0  0
   30.2458    8.5282   34.8728 N   0  0  0  0  0  0  0  0  0  0  0  0
   20.6899    7.4034   26.0804 O   0  0  0  0  0  0  0  0  0  0  0  0
   26.1203   10.5827   34.8892 N   0  0  0  0  0  0  0  0  0  0  0  0
   24.6279    9.7233   33.4175 O   0  0  0  0  0  0  0  0  0  0  0  0
   24.0357    9.0756   36.3788 O   0  0  0  0  0  0  0  0  0  0  0  0
   19.2408    8.9405   28.9263 C   0  0  2  0  0  0  0  0  0  0  0  0
   27.1963   12.4354   35.8090 N   0  0  0  0  0  0  0  0  0  0  0  0
   19.6513    7.8344   31.5513 O   0  0  0  0  0  1  0  0  0  0  0  0
   19.8542   10.1691   32.4356 O   0  0  0  0  0  0  0  0  0  0  0  0
   19.5104    7.7736   26.6165 C   0  0  0  0  0  0  0  0  0  0  0  0
   28.8745   11.4212   35.5227 C   0  0  0  0  0  0  0  0  0  0  0  0
   15.5939    7.8493   26.3361 O   0  0  0  0  0  0  0  0  0  0  0  0
   23.0249    7.5443   35.0330 O   0  0  0  0  0  0  0  0  0  0  0  0
   25.0734    9.6619   34.5935 C   0  0  2  0  0  0  0  0  0  0  0  0
   17.6353    9.5049   28.9587 C   0  0  0  0  0  0  0  0  0  0  0  0
   28.1212    9.2166   34.8976 N   0  0  0  0  0  0  0  0  0  0  0  0
   20.1421    9.0186   31.6680 P   0  0  1  0  0  4  0  0  0  0  0  0
   21.2930    9.2249   31.3278 O   0  0  0  0  0  0  0  0  0  0  0  0
   29.9204   10.6378   35.4934 N   0  0  0  0  0  0  0  0  0  0  0  0
   21.5463    9.3793   29.8363 C   0  0  1  0  0  0  0  0  0  0  0  0
   18.1361    6.9629   25.8709 N   0  0  0  0  0  0  0  0  0  0  0  0
   27.4824   10.4733   34.9763 C   0  0  0  0  0  0  0  0  0  0  0  0
   20.5697    8.4353   28.1743 C   0  0  0  0  0  0  0  0  0  0  0  0
   23.7020    9.5201   35.0664 C   0  0  1  0  0  0  0  0  0  0  0  0
  5  1  1  0
  3  6  1  6
  8  2  1  0
 10  7  1  0
 13  3  1  0
 14  7  2  3
 17  9  1  0
 19  6  2  0
  5 20  1  6
 21 10  1  0
 21 11  1  6
 22  3  1  0
 22 13  1  0
 23  2  1  0
 24 15  1  1
 24 16  1  0
 25 24  1  0
 26  2  2  0
 26 18  1  0
 27  1  1  1
 27  4  1  0
 27 25  1  0
 28  6  1  0
 28 17  1  0
 29 10  1  0
 29 18  2  0
 29 23  1  0
 30  4  1  0
 13 30  1  6
 31  5  1  0
 31 12  1  1
 31 21  1  0
M  RAD  2  15   2  24   2
M  END
>  <ID>  (1) 
conformer_0

$$$$
