
     RDKit          3D

 28 30  0  0  0  0  0  0  0  0999 V2000
   24.7753    9.6691   34.8634 C   0  0  0  0  0  0  0  0  0  0  0  0
   29.3401    9.6550   35.0257 C   0  0  0  0  0  0  0  0  0  0  0  0
   17.4862    8.8028   26.9346 C   0  0  0  0  0  0  0  0  0  0  0  0
   23.7087    9.0701   34.5649 C   0  0  2  0  0  0  0  0  0  0  0  0
   19.4533    7.7058   25.9609 C   0  0  0  0  0  0  0  0  0  0  0  0
   26.6719   12.0407   35.5799 C   0  0  0  0  0  0  0  0  0  0  0  0
   29.8878    8.5056   34.9552 N   0  0  0  0  0  0  0  0  0  0  0  0
   20.8622    8.3507   27.4723 C   0  0  0  0  0  0  0  0  0  0  0  0
   24.5803   10.1225   33.5373 O   0  0  0  0  0  0  0  0  0  0  0  0
   26.2925   10.6984   34.8626 N   0  0  0  0  0  0  0  0  0  0  0  0
   19.9538    8.9384   31.5736 P   0  0  0  0  0  0  0  0  0  0  0  0
   23.9373    9.0446   36.4563 O   0  0  0  0  0  0  0  0  0  0  0  0
   19.4307    7.8253   31.8035 O   0  0  0  0  0  0  0  0  0  0  0  0
   23.7080    7.2702   34.3746 O   0  0  0  0  0  0  0  0  0  0  0  0
   20.2825    6.8523   25.1982 O   0  0  0  0  0  0  0  0  0  0  0  0
   19.9404   10.1788   32.6618 O   0  0  0  0  0  0  0  0  0  0  0  0
   23.4273    9.0328   32.7411 C   0  0  0  0  0  0  0  0  0  0  0  0
   29.1878   11.6879   35.7297 C   0  0  0  0  0  0  0  0  0  0  0  0
   27.3778   12.5000   35.8149 N   0  0  0  0  0  0  0  0  0  0  0  0
   18.3677    9.5061   28.7113 C   0  0  2  0  0  0  0  0  0  0  0  0
   17.0915    8.4408   26.3186 C   0  0  0  0  0  0  0  0  0  0  0  0
   17.3761    9.6866   28.5542 C   0  0  0  0  0  0  0  0  0  0  0  0
   21.6806    9.4017   31.5958 O   0  0  0  0  0  0  0  0  0  0  0  0
   15.5992    7.5170   26.5224 O   0  0  0  0  0  0  0  0  0  0  0  0
   29.7542   10.4543   35.1231 N   0  0  0  0  0  0  0  0  0  0  0  0
   20.0497    8.8418   30.0103 O   0  0  0  0  0  0  0  0  0  0  0  0
   27.7412   10.7237   35.0051 C   0  0  2  0  0  0  0  0  0  0  0  0
   20.3365    8.9173   27.9647 C   0  0  1  0  0  0  0  0  0  0  0  0
  4  1  1  0
  7  2  1  0
  8  5  1  0
  9  1  1  0
  9  4  1  0
 10  1  1  0
 10  6  1  0
 12  1  1  0
 13 11  1  0
  4 14  1  6
 15  5  1  0
 16 11  1  0
 17  4  1  0
 19  6  2  3
 20 13  1  0
 21  3  1  0
 22  3  1  0
 20 22  1  6
 23 11  1  0
 23 17  1  0
 24 21  1  0
 25  2  1  0
 25 18  1  0
 27  2  1  0
 27  6  1  0
 27 10  1  0
 27 18  1  6
 28  8  1  0
 28 20  1  0
 28 26  1  1
M  END
>  <ID>  (1) 
conformer_0

$$$$
