
     RDKit          3D

 32 33  0  0  0  0  0  0  0  0999 V2000
   24.9293    9.8283   34.6985 C   0  0  0  0  0  0  0  0  0  0  0  0
   17.2570   10.0236   28.9635 C   0  0  0  0  0  0  0  0  0  0  0  0
   29.3106    9.7925   35.0474 C   0  0  0  0  0  0  0  0  0  0  0  0
   20.8797    8.3465   27.8308 C   0  0  0  0  0  0  0  0  0  0  0  0
   23.6788    9.3286   35.0891 C   0  0  0  0  0  0  0  0  0  0  0  0
   26.5285   11.7619   35.5608 C   0  0  0  0  0  0  0  0  0  0  0  0
   26.0807   10.5505   34.8963 N   0  0  0  0  0  0  0  0  0  0  0  0
   30.3245    8.3562   34.8238 N   0  0  0  0  0  0  0  0  0  0  0  0
   16.8769    9.4346   27.6146 C   0  0  0  0  0  0  0  0  0  0  0  0
   20.7726    7.8256   26.4366 C   0  0  0  0  0  0  0  0  0  0  0  0
   24.5937    9.9354   33.3574 O   0  0  0  0  0  0  0  0  0  0  0  0
   23.9566    9.1714   36.4307 O   0  0  0  0  0  0  0  0  0  0  0  0
   30.0882   10.8343   35.5729 N   0  0  0  0  0  0  0  0  0  0  0  0
   21.1160    7.1835   25.6272 O   0  0  0  0  0  0  0  0  0  0  0  0
   22.9687    7.4661   34.9836 O   0  0  0  0  0  0  0  0  0  0  0  0
   20.0945    9.0207   31.4396 P   0  0  0  0  0  0  0  0  0  0  0  0
   21.4910    9.0330   31.8293 O   0  0  0  0  0  0  0  0  0  0  0  0
   15.5045    7.6709   26.7828 O   0  0  0  0  0  0  0  0  0  0  0  0
   27.1902   12.3332   35.7946 N   0  0  0  0  0  0  0  0  0  0  0  0
   16.4857    7.9934   26.9119 C   0  0  0  0  0  0  0  0  0  0  0  0
   28.9254   11.7017   35.6917 C   0  0  0  0  0  0  0  0  0  0  0  0
   23.0450    8.7164   33.7390 C   0  0  0  0  0  0  0  0  0  0  0  0
   19.7598   10.1722   32.5542 O   0  0  0  0  0  0  0  0  0  0  0  0
   18.4400    8.6166   27.8370 C   0  0  0  0  0  0  0  0  0  0  0  0
   19.4486    7.9122   31.8764 O   0  0  0  0  0  0  0  0  0  0  0  0
   22.1008    9.2575   29.9835 C   0  0  0  0  0  0  0  0  0  0  0  0
   28.4331    9.2372   34.8106 N   0  0  0  0  0  0  0  0  0  0  0  0
   27.5723   10.4540   34.9830 C   0  0  0  0  0  0  0  0  0  0  0  0
   22.3686    8.6340   28.4323 C   0  0  0  0  0  0  0  0  0  0  0  0
   20.0996    9.5917   30.3137 O   0  0  0  0  0  0  0  0  0  0  0  0
   19.5029    8.9319   28.3546 C   0  0  0  0  0  0  0  0  0  0  0  0
   23.0892    9.4839   32.5788 C   0  0  0  0  0  0  0  0  0  0  0  0
  5  1  1  0
  7  1  1  0
  7  6  1  0
  8  3  1  0
  9  2  1  0
 10  4  1  0
 11  1  1  0
 12  5  1  0
 13  3  1  0
 14 10  2  0
 19  6  1  0
 20  9  1  0
 20 18  2  0
 21 13  1  0
 21 19  1  0
 22  5  1  0
 22 15  1  0
 23 16  1  0
 24  9  1  0
 25 16  1  0
 26 22  1  0
 27  3  1  0
 28  6  1  0
 28  7  1  0
 28 27  1  0
 29  4  1  0
 29 26  1  0
 30 16  1  0
 30 26  1  0
 31  4  1  0
 31 24  1  0
 32 11  1  0
 32 17  1  0
M  END
>  <ID>  (1) 
conformer_0

$$$$
