
     RDKit          3D

 33 35  0  0  0  0  0  0  0  0999 V2000
   26.8177   11.9618   35.6025 C   0  0  0  0  0  0  0  0  0  0  0  0
   24.8107    9.7057   34.8962 C   0  0  2  0  0  0  0  0  0  0  0  0
   17.1190    8.7509   27.4283 C   0  0  1  0  0  0  0  0  0  0  0  0
   21.3848    8.3514   27.3037 C   0  0  0  0  0  0  0  0  0  0  0  0
   23.6406    9.4393   35.3442 C   0  0  2  0  0  0  0  0  0  0  0  0
   18.7177    9.2508   27.9225 C   0  0  2  0  0  0  0  0  0  0  0  0
   29.0498    9.5409   34.9443 C   0  0  0  0  0  0  0  0  0  0  0  0
   26.1116   10.3808   34.8872 N   0  0  0  0  0  0  0  0  0  0  0  0
   30.0839    8.3198   34.7878 N   0  0  0  0  0  0  0  0  0  0  0  0
   16.7534    7.6925   26.7197 C   0  0  0  0  0  0  0  0  0  0  0  0
   24.5991    9.7492   33.5192 O   0  0  0  0  0  0  0  0  0  0  0  0
   23.7729    9.0663   36.5805 O   0  0  0  0  0  0  0  0  0  0  0  0
   27.1584   12.4027   35.8574 N   0  0  0  0  0  0  0  0  0  0  0  0
   27.9238    9.0793   34.5795 N   0  0  0  0  0  0  0  0  0  0  0  0
   23.0621    7.4649   34.8446 O   0  0  0  0  0  0  0  0  0  0  0  0
   21.7560    9.1855   32.0032 O   0  0  0  0  0  0  0  0  0  0  0  0
   28.8465   11.4688   35.5248 C   0  0  0  0  0  0  0  0  0  0  0  0
   19.9591    9.9712   32.6111 O   0  0  0  0  0  0  0  0  0  0  0  0
   23.2779    8.8805   33.8168 C   0  0  1  0  0  0  0  0  0  0  0  0
   15.4897    7.0840   26.6579 O   0  0  0  0  0  0  0  0  0  0  0  0
   21.0767    9.5346   29.0729 C   0  0  1  0  0  0  0  0  0  0  0  0
   20.2770    9.0011   31.4666 P   0  0  0  0  0  0  0  0  0  0  0  0
   17.5684    6.4763   26.0498 O   0  0  0  0  0  0  0  0  0  0  0  0
   30.1364   10.8147   35.5031 N   0  0  0  0  0  0  0  0  0  0  0  0
   19.6122    7.5167   31.1823 O   0  0  0  0  0  0  0  0  0  0  0  0
   20.5680    7.5254   25.8936 O   0  0  0  0  0  0  0  0  0  0  0  0
   19.4446    8.9446   27.7622 N   0  0  0  0  0  0  0  0  0  0  0  0
   27.3330   10.3522   34.9191 C   0  0  2  0  0  0  0  0  0  0  0  0
   20.1206    8.2932   26.9153 C   0  0  0  0  0  0  0  0  0  0  0  0
   17.6734    9.2276   28.6856 C   0  0  0  0  0  0  0  0  0  0  0  0
   20.4276    9.4470   30.4767 O   0  0  0  0  0  0  0  0  0  0  0  0
   22.9568    9.3481   32.2029 C   0  0  0  0  0  0  0  0  0  0  0  0
   22.1099    9.0472   28.4353 C   0  0  0  0  0  0  0  0  0  0  0  0
  5  2  1  0
  6  3  1  0
  2  8  1  1
  9  7  2  3
  3 10  1  1
 11  2  1  0
  5 12  1  1
 13  1  2  3
 14  7  1  0
 19  5  1  0
 19 11  1  0
 19 15  1  1
 20 10  2  0
 22 16  1  0
 22 18  1  0
 23 10  1  0
 24  7  1  0
 24 17  1  0
 21 25  1  6
 26  4  1  0
  6 27  1  1
 28  1  1  0
 28  8  1  1
 28 14  1  0
 29  4  2  0
 29 26  1  0
 29 27  1  0
 30  3  1  0
 30  6  1  0
 31 21  1  0
 31 22  1  0
 32 16  1  0
 32 19  1  0
 33  4  1  0
 33 21  1  0
M  END
>  <ID>  (1) 
conformer_0

$$$$
