
     RDKit          3D

 31 34  0  0  0  0  0  0  0  0999 V2000
   29.0294    9.6975   35.0211 C   0  0  0  0  0  0  0  0  0  0  0  0
   24.5663    9.5856   34.5497 C   0  0  2  0  0  0  0  0  0  0  0  0
   17.3787   10.1528   28.7959 C   0  0  0  0  0  0  0  0  0  0  0  0
   20.2825    8.3352   27.7803 C   0  0  0  0  0  0  0  0  0  0  0  0
   30.0632   10.5903   35.5591 N   0  0  0  0  0  0  0  0  0  0  0  0
   17.7603    8.6681   26.8038 C   0  0  0  0  0  0  0  0  0  0  0  0
   23.2058    8.9643   34.4355 C   0  0  0  0  0  0  0  0  0  0  0  0
   26.2559   11.9957   35.6081 C   0  0  0  0  0  0  0  0  0  0  0  0
   25.8967   10.6804   34.9162 N   0  0  0  0  0  0  0  0  0  0  0  0
   30.1685    8.2694   34.8665 N   0  0  0  0  0  0  0  0  0  0  0  0
   24.4090   10.1334   33.4495 O   0  0  0  0  0  0  0  0  0  0  0  0
   26.8226   12.5767   35.8145 N   0  0  0  0  0  0  0  0  0  0  0  0
   23.2448    7.2563   34.6102 O   0  0  0  0  0  0  0  0  0  0  0  0
   20.1774    7.1304   25.5211 O   0  0  0  0  0  0  0  0  0  0  0  0
   23.8040    8.9587   36.3784 O   0  0  0  0  0  0  0  0  0  0  0  0
   28.6867   11.7614   35.7586 C   0  0  0  0  0  3  0  0  0  0  0  0
   19.4221    7.7376   31.3231 O   0  0  0  0  0  0  0  0  0  0  0  0
   19.5431   10.1120   32.3687 O   0  0  0  0  0  0  0  0  0  0  0  0
   20.0327    9.1376   31.5184 P   0  0  0  0  0  0  0  0  0  0  0  0
   16.1215    7.7148   27.1079 O   0  0  0  0  0  0  0  0  0  0  0  0
   20.8015   10.1162   30.6629 O   0  0  0  0  0  0  0  0  0  0  0  0
   19.8567    7.7493   26.4515 C   0  0  0  0  0  0  0  0  0  0  0  0
   23.1679    9.0707   32.9047 C   0  0  2  0  0  0  0  0  0  0  0  0
   18.8588    9.0583   28.7781 C   0  0  0  0  0  0  0  0  0  0  0  0
   21.7882    8.6727   28.4415 C   0  0  0  0  0  0  0  0  0  0  0  0
   21.7888    9.3522   29.7807 C   0  0  0  0  0  0  0  0  0  0  0  0
   28.1011    9.0465   34.7671 N   0  0  0  0  0  0  0  0  0  0  0  0
   21.1179    8.7231   32.4063 O   0  0  0  0  0  0  0  0  0  0  0  0
   27.3972   10.6748   35.0884 C   0  0  0  0  0  0  0  0  0  0  0  0
   17.6803    6.4549   26.1397 O   0  0  0  0  0  0  0  0  0  0  0  0
   17.9001    9.1692   27.8023 C   0  0  0  0  0  0  0  0  0  0  0  0
  5  1  2  0
  7  2  1  0
  2  9  1  1
  9  8  1  0
 10  1  1  0
 11  2  1  0
 12  8  2  3
 13  7  1  0
 15  7  1  0
 16  5  1  0
 19 18  1  0
 20  6  1  0
 21 19  1  0
 22  4  1  0
 22 14  2  0
 23  7  1  0
 23 11  1  0
 24  3  1  0
 24  4  1  0
 24 17  1  0
 25  4  2  3
 26 21  1  0
 26 25  1  0
 27  1  1  0
 28 19  1  0
 23 28  1  1
 29  8  1  0
 29  9  1  0
 29 16  1  0
 29 27  1  0
 30  6  1  0
 31  3  1  0
 31  6  1  0
 31 24  1  0
M  RAD  1  16   2
M  END
>  <ID>  (1) 
conformer_0

$$$$
