
     RDKit          3D

 26 27  0  0  0  0  0  0  0  0999 V2000
   26.6352   11.4426   35.2796 C   0  0  0  0  0  0  0  0  0  0  0  0
   24.3792    9.6906   34.7993 C   0  0  0  0  0  0  0  0  0  0  0  0
   17.6722    9.2345   28.4943 C   0  0  0  0  0  0  0  0  0  0  0  0
   17.4411    8.1925   27.1604 C   0  0  0  0  0  0  0  0  0  0  0  0
   23.1873    9.1024   34.3853 C   0  0  1  0  0  0  0  0  0  0  0  0
   25.9905   10.5845   34.8052 N   0  0  0  0  0  0  0  0  0  0  0  0
   28.4451   10.0889   34.9785 C   0  0  0  0  0  0  0  0  0  0  0  0
   29.9842    8.4429   34.9209 N   0  0  0  0  0  0  0  0  0  0  0  0
   21.3901    8.5557   28.4389 C   0  0  0  0  0  0  0  0  0  0  0  0
   26.7576   12.5114   35.8093 N   0  0  0  0  0  0  0  0  0  0  0  0
   29.9063   10.8339   35.6778 N   0  0  0  0  0  0  0  0  0  0  0  0
   20.6769    7.4598   25.9280 O   0  0  0  0  0  0  0  0  0  0  0  0
   19.8458    9.2059   28.4218 C   0  0  2  0  0  0  0  0  0  0  0  0
   20.0567    9.1007   31.5201 P   0  0  0  0  0  5  0  0  0  0  0  0
   23.8023    9.0360   36.4044 O   0  0  0  0  0  0  0  0  0  0  0  0
   24.4720    9.8967   33.3610 O   0  0  0  0  0  0  0  0  0  0  0  0
   19.6897   10.2172   32.7468 O   0  0  0  0  0  0  0  0  0  0  0  0
   20.9097    9.6295   30.8823 O   0  0  0  0  0  0  0  0  0  0  0  0
   28.3982   11.7010   35.6254 C   0  0  2  0  0  0  0  0  0  0  0  0
   16.7630    7.6028   25.8038 O   0  0  0  0  0  0  0  0  0  0  0  0
   19.2101    7.4801   26.4900 C   0  0  0  0  0  0  0  0  0  0  0  0
   19.6703    7.9140   31.5361 O   0  0  0  0  0  0  0  0  0  0  0  0
   22.9163    9.0516   32.9504 C   0  0  1  0  0  0  0  0  0  0  0  0
   27.9710    9.1214   34.6570 N   0  0  0  0  0  0  0  0  0  0  0  0
   23.1755    7.4610   35.0032 O   0  0  0  0  0  0  0  0  0  0  0  0
   18.9112    8.4157   27.0711 N   0  0  0  0  0  0  0  0  0  0  0  0
  4  3  1  0
  5  2  1  0
  6  1  1  0
  6  2  1  0
 10  1  2  3
 11  7  2  0
 13  9  1  6
 14 13  1  0
 15  2  1  0
 16  2  1  0
 17 14  1  0
 18 14  1  0
 19  1  1  1
 19  7  1  0
 19 11  1  0
 20  4  2  0
 21 12  1  0
 22 18  1  0
 23  5  1  0
 23 14  1  1
 23 16  1  0
 24  7  1  0
 24  8  1  0
  5 25  1  6
 26  4  1  0
 26 13  1  0
 26 21  1  0
M  END
>  <ID>  (1) 
conformer_0

$$$$
