
     RDKit          3D

 31 32  0  0  0  0  0  0  0  0999 V2000
   24.3246    9.9564   35.0722 C   0  0  0  0  0  0  0  0  0  0  0  0
   29.2717    9.5457   34.9626 C   0  0  0  0  0  0  0  0  0  0  0  0
   17.4639    9.6840   28.4151 C   0  0  0  0  0  0  0  0  0  0  0  0
   23.4299    9.3639   34.4604 C   0  0  1  0  0  0  0  0  0  0  0  0
   14.8161    7.4748   25.8740 C   0  0  0  0  0  0  0  0  0  0  0  0
   20.0557    8.6533   26.9883 C   0  0  0  0  0  0  0  0  0  0  0  0
   26.1065   10.6825   35.0177 N   0  0  0  0  0  0  0  0  0  0  0  0
   22.2591    8.8885   28.8139 C   0  0  0  0  0  0  0  0  0  0  0  0
   26.5576   11.9615   35.7495 C   0  0  2  0  0  0  0  0  0  0  0  0
   24.5482   10.1128   33.4596 O   0  0  0  0  0  0  0  0  0  0  0  0
   30.1256    8.7937   34.6913 N   0  0  0  0  0  0  0  0  0  0  0  0
   23.7989    9.0909   36.5329 O   0  0  0  0  0  0  0  0  0  0  0  0
   27.3669   12.5092   35.8933 N   0  0  0  0  0  0  0  0  0  0  0  0
   19.9976   10.2358   32.6206 O   0  0  0  0  0  0  0  0  0  0  0  0
   21.6412    9.0176   31.8009 O   0  0  0  0  0  0  0  0  0  0  0  0
   21.4131    7.5957   25.9623 O   0  0  0  0  0  0  0  0  0  0  0  0
   16.8054    7.3751   26.1839 C   0  0  0  0  0  0  0  0  0  0  0  0
   28.8398   11.5051   35.6144 C   0  0  0  0  0  0  0  0  0  0  0  0
   23.0817    9.3395   32.7532 C   0  0  0  0  0  0  0  0  0  0  0  0
   22.9944    7.6764   34.9004 O   0  0  0  0  0  0  0  0  0  0  0  0
   20.2507    9.1429   31.6554 P   0  0  0  0  0  0  0  0  0  0  0  0
   19.3086    7.8915   31.7800 O   0  0  0  0  0  0  0  0  0  0  0  0
   15.9683    8.8657   26.4823 C   0  0  2  0  0  0  0  0  0  0  0  0
   21.5045    9.3858   29.4284 C   0  0  2  0  0  0  0  0  0  0  0  0
   28.3766    9.1881   34.8803 N   0  0  0  0  0  0  0  0  0  0  0  0
   27.4617   10.4483   34.9899 C   0  0  2  0  0  0  0  0  0  0  0  0
   16.9367    6.9949   25.6782 O   0  0  0  0  0  0  0  0  0  0  0  0
   20.3019    9.4418   30.2939 O   0  0  0  0  0  0  0  0  0  0  0  0
   19.1242    9.6500   28.5173 C   0  0  0  0  0  0  0  0  0  0  0  0
   17.5360    8.7159   27.5490 C   0  0  0  0  0  0  0  0  0  0  0  0
   20.3720    8.5395   27.7382 C   0  0  1  0  0  0  0  0  0  0  0  0
  4  1  1  0
  7  1  1  0
  9  7  1  6
 10  1  1  0
 11  2  1  0
 12  1  1  0
 13  9  1  0
 16  6  1  0
 18 13  2  0
 19  4  1  0
 19 15  1  0
  4 20  1  6
 21 14  1  0
 21 15  1  0
 23  5  1  1
 23 17  1  0
 24  8  1  0
 24 22  1  1
 25  2  2  3
 26  7  1  6
 26  9  1  0
 26 18  1  0
 26 25  1  0
 27 17  2  0
 28 21  1  0
 28 24  1  0
 29  3  1  0
 30  3  1  0
 30 23  1  0
 31  6  1  6
 31  8  1  0
 31 29  1  0
M  END
>  <ID>  (1) 
conformer_0

$$$$
