
     RDKit          3D

 32 35  0  0  0  0  0  0  0  0999 V2000
   23.5538    9.7131   35.1931 C   0  0  1  0  0  0  0  0  0  0  0  0
   28.8917    9.8236   34.9904 C   0  0  1  0  0  0  0  0  0  0  0  0
   17.7710    9.5830   28.7129 C   0  0  0  0  0  0  0  0  0  0  0  0
   22.2798    8.7370   28.3599 C   0  0  0  0  0  0  0  0  0  0  0  0
   23.0748    8.8693   33.7016 C   0  0  1  0  0  0  0  0  0  0  0  0
   29.7978   10.6493   35.4525 N   0  0  0  0  0  0  0  0  0  0  0  0
   28.4632   11.6813   35.5756 C   0  0  0  0  0  0  0  0  0  0  0  0
   18.3056    8.5212   26.9194 C   0  0  0  0  0  0  0  0  0  0  0  0
   25.9706   10.6063   34.8947 N   0  0  0  0  0  0  0  0  0  0  0  0
   16.5152    7.5877   26.3384 C   0  0  0  0  0  0  0  0  0  0  0  0
   20.7544    7.4361   26.0206 O   0  0  0  0  0  0  0  0  0  0  0  0
   23.7993    8.9344   36.3867 O   0  0  0  0  0  0  0  0  0  0  0  0
   30.0505    8.1963   34.8461 N   0  0  0  0  0  0  0  0  0  0  0  0
   24.4588    9.9337   33.2578 O   0  0  0  0  0  0  0  0  0  0  0  0
   26.8823   12.4280   35.7068 N   0  0  0  0  0  0  0  0  0  0  0  0
   20.0540    8.9772   31.5725 P   0  0  1  0  0  4  0  0  0  0  0  0
   21.5050    9.0433   32.0520 O   0  0  0  0  0  0  0  0  0  0  0  0
   19.5191    9.8726   32.8436 O   0  0  0  0  0  0  0  0  0  0  0  0
   15.6006    7.4242   26.7182 O   0  0  0  0  0  0  0  0  0  0  0  0
   23.5241    7.3963   34.5071 O   0  0  0  0  0  0  0  0  0  0  0  0
   26.0111   11.8124   35.4908 C   0  0  0  0  0  0  0  0  0  0  0  0
   22.8705    9.1210   32.2437 C   0  0  2  0  0  0  0  0  0  0  0  0
   19.5468    7.6772   31.5166 O   0  0  0  0  0  1  0  0  0  0  0  0
   16.8183    6.8632   25.7367 O   0  0  0  0  0  0  0  0  0  0  0  0
   27.9054    9.0772   34.6961 N   0  0  0  0  0  0  0  0  0  0  0  0
   17.6421    8.7309   27.6736 C   0  0  0  0  0  0  0  0  0  0  0  0
   20.3880    9.1614   28.9939 C   0  0  0  0  0  0  0  0  0  0  0  0
   27.2767   10.6640   34.9462 C   0  0  1  0  0  0  0  0  0  0  0  0
   20.6007    8.6366   28.0403 C   0  0  1  0  0  0  0  0  0  0  0  0
   24.8365    9.5072   34.4266 C   0  0  2  0  0  0  0  0  0  0  0  0
   20.4463    8.0940   26.7216 C   0  0  0  0  0  0  0  0  0  0  0  0
   20.3144    9.6837   30.5666 O   0  0  0  0  0  0  0  0  0  0  0  0
  5  1  1  0
  6  2  1  0
  7  6  2  0
  1 12  1  1
  2 13  1  1
 14  5  1  0
 15  7  1  0
 16 18  1  1
 19 10  2  0
  5 20  1  1
 21  9  1  0
 21 15  2  0
 22  4  1  0
 22  5  1  0
 22 17  1  1
 23 16  1  0
 24 10  1  0
 25  2  1  0
 26  3  2  3
 26  8  1  0
 26 10  1  0
 28  7  1  0
 28  9  1  0
 28 21  1  0
 28 25  1  6
 29  4  1  6
 29 27  1  0
 30  1  1  0
 30  9  1  1
 30 14  1  0
 31  8  1  0
 31 11  2  0
 31 29  1  0
 32 16  1  0
 32 27  1  0
M  RAD  2  16   2  23   2
M  END
>  <ID>  (1) 
conformer_0

$$$$
