
     RDKit          3D

 33 34  0  0  0  0  0  0  0  0999 V2000
   23.5777    9.4679   35.2113 C   0  0  0  0  0  0  0  0  0  0  0  0
   17.2341    8.9378   27.6155 C   0  0  0  0  0  0  0  0  0  0  0  0
   28.7209   11.7132   35.7009 C   0  0  0  0  0  0  0  0  0  0  0  0
   21.6985    8.4991   27.5692 C   0  0  0  0  0  0  0  0  0  0  0  0
   22.9231    8.7277   34.0205 C   0  0  0  0  0  0  0  0  0  0  0  0
   29.0468    9.8506   35.1163 C   0  0  0  0  0  0  0  0  0  0  0  0
   17.4789    7.8221   26.8003 C   0  0  0  0  0  0  0  0  0  0  0  0
   25.9942   10.5884   34.9438 N   0  0  0  0  0  0  0  0  0  0  0  0
   30.1578    8.5894   35.0000 N   0  0  0  0  0  0  0  0  0  0  0  0
   27.0206   12.3734   35.7892 N   0  0  0  0  0  0  0  0  0  0  0  0
   24.5913    9.7473   33.4558 O   0  0  0  0  0  0  0  0  0  0  0  0
   23.7399    8.9011   36.4953 O   0  0  0  0  0  0  0  0  0  0  0  0
   19.4711    7.7964   31.4000 O   0  0  0  0  0  0  0  0  0  0  0  0
   25.9919   11.8337   35.5795 C   0  0  0  0  0  0  0  0  0  0  0  0
   21.1023    7.3601   25.7944 O   0  0  0  0  0  0  0  0  0  0  0  0
   19.1945    9.9535   27.6299 C   0  0  0  0  0  0  0  0  0  0  0  0
   19.8193   10.1353   32.1879 O   0  0  0  0  0  0  0  0  0  0  0  0
   30.1783   10.8395   35.7787 N   0  0  0  0  0  0  0  0  0  0  0  0
   19.6317    9.0322   27.6997 N   0  0  0  0  0  0  0  0  0  0  0  0
   18.1965    6.1375   26.5712 O   0  0  0  0  0  0  0  0  0  0  0  0
   16.1397    7.2151   26.5178 O   0  0  0  0  0  0  0  0  0  0  0  0
   22.8570    8.8610   32.4575 C   0  0  0  0  0  0  0  0  0  0  0  0
   21.7114    9.1104   29.4010 C   0  0  0  0  0  0  0  0  0  0  0  0
   22.9157    7.3862   34.9397 O   0  0  0  0  0  0  0  0  0  0  0  0
   17.2699   10.0815   28.5986 C   0  0  0  0  0  0  0  0  0  0  0  0
   20.2376    9.1308   31.7827 P   0  0  0  0  0  0  0  0  0  0  0  0
   20.7136    8.3915   27.0103 C   0  0  0  0  0  0  0  0  0  0  0  0
   21.3263    9.1784   31.2897 O   0  0  0  0  0  0  0  0  0  0  0  0
   28.2108    9.2315   34.6919 N   0  0  0  0  0  0  0  0  0  0  0  0
   27.4179   10.7197   35.1065 C   0  0  0  0  0  0  0  0  0  0  0  0
   18.3542    8.4222   28.8826 C   0  0  0  0  0  0  0  0  0  0  0  0
   24.9298    9.6008   34.4975 C   0  0  0  0  0  0  0  0  0  0  0  0
   22.3251    8.8570   28.9313 C   0  0  0  0  0  0  0  0  0  0  0  0
  5  1  1  0
  7  2  1  0
  9  6  1  0
 10  3  2  0
 12  1  1  0
 14  8  1  0
 14 10  1  0
 18  3  1  0
 18  6  2  0
 19 16  1  0
 20  7  1  0
 21  7  1  0
 22  5  1  0
 23 22  1  0
 24  5  1  0
 25  2  1  0
 26 13  1  0
 26 17  1  0
 27  4  1  0
 27 15  2  0
 27 19  1  0
 28 23  1  0
 28 26  1  0
 29  6  1  0
 30  3  1  0
 30  8  1  0
 30 29  1  0
 31  2  1  0
 31 19  1  0
 32  1  1  0
 32  8  1  0
 32 11  1  0
 33  4  1  0
 33 23  1  0
M  END
>  <ID>  (1) 
conformer_0

$$$$
