
     RDKit          3D

 32 36  0  0  0  0  0  0  0  0999 V2000
   29.2781    9.7864   35.0963 C   0  0  0  0  0  0  0  0  0  0  0  0
   25.0666    9.7363   34.6136 C   0  0  0  0  0  0  0  0  0  0  0  0
   17.3663    9.0975   27.6571 C   0  0  0  0  0  0  0  0  0  0  0  0
   22.6546    8.6131   28.1715 C   0  0  0  0  0  0  0  0  0  0  0  0
   23.6249    9.4979   35.1426 C   0  0  0  0  0  0  0  0  0  0  0  0
   20.2723    7.9791   26.7038 C   0  0  0  0  0  0  0  0  0  0  0  0
   30.0478    8.4383   34.7991 N   0  0  0  0  0  0  0  0  0  0  0  0
   26.7823   11.8767   35.4646 C   0  0  0  0  0  3  0  0  0  0  0  0
   26.1207   10.5701   34.8786 N   0  0  0  0  0  0  0  0  0  0  0  0
   20.9131    7.4506   25.9440 O   0  0  0  0  0  0  0  0  0  0  0  0
   24.0479    9.0524   36.4649 O   0  0  0  0  0  0  0  0  0  0  0  0
   17.1469    7.8068   26.6995 C   0  0  0  0  0  0  0  0  0  0  0  0
   24.4526   10.1600   33.5993 O   0  0  0  0  0  0  0  0  0  0  0  0
   30.0256   10.9016   35.6966 N   0  0  0  0  0  2  0  0  0  0  0  0
   27.4800   12.4007   35.8039 N   0  0  0  0  0  0  0  0  0  0  0  0
   21.4478    8.8290   31.6540 O   0  0  0  0  0  0  0  0  0  0  0  0
   16.0443    7.2965   26.8018 O   0  0  0  0  0  0  0  0  0  0  0  0
   19.7315    9.9550   32.1366 O   0  0  0  0  0  0  0  0  0  0  0  0
   23.0247    7.4544   34.8650 O   0  0  0  0  0  0  0  0  0  0  0  0
   27.9338    9.0046   34.7361 N   0  0  0  0  0  0  0  0  0  0  0  0
   22.9324    8.7414   33.9299 C   0  0  0  0  0  0  0  0  0  0  0  0
   20.1706    8.9680   31.6731 P   0  0  0  0  0  4  0  0  0  0  0  0
   19.4550    7.6969   31.4170 O   0  0  0  0  0  1  0  0  0  0  0  0
   29.0930   11.7392   35.7552 C   0  0  0  0  0  0  0  0  0  0  0  0
   21.6721    9.1921   29.3131 C   0  0  0  0  0  0  0  0  0  0  0  0
   17.7121    7.2846   25.3842 O   0  0  0  0  0  0  0  0  0  0  0  0
   17.6162    9.8670   28.8530 C   0  0  0  0  0  0  0  0  0  0  0  0
   18.9013    9.0565   28.1394 C   0  0  0  0  0  0  0  0  0  0  0  0
   20.4643    9.8668   29.5108 O   0  0  0  0  0  0  0  0  0  0  0  0
   27.5753   10.4549   35.0136 C   0  0  0  0  0  0  0  0  0  0  0  0
   23.0835    9.2504   32.4034 C   0  0  0  0  0  0  0  0  0  0  0  0
   20.8360    8.4525   27.8855 C   0  0  0  0  0  0  0  0  0  0  0  0
  5  2  1  0
  7  1  1  0
  9  2  1  0
  9  8  1  0
 10  6  2  0
 11  5  1  0
 12  3  1  0
 13  2  1  0
 14  1  1  0
 15  8  1  0
 17 12  2  0
 20  1  1  0
 21  5  1  0
 21 19  1  0
 22 16  1  0
 22 18  1  0
 23 22  1  0
 24 14  1  0
 24 15  2  0
 25  4  1  0
 26 12  1  0
 27  3  1  0
 28  3  1  0
 28 27  1  0
 29 25  1  0
 30  1  1  0
 30  8  1  0
 30  9  1  0
 30 20  1  0
 31 16  1  0
 31 21  1  0
 31 25  1  0
 32  4  1  0
 32  6  1  0
 32 25  1  0
 32 28  1  0
M  RAD  4   8   2  14   2  22   2  23   2
M  END
>  <ID>  (1) 
conformer_0

$$$$
