
     RDKit          3D

 28 30  0  0  0  0  0  0  0  0999 V2000
   24.6230    9.7792   34.9608 C   0  0  0  0  0  0  0  0  0  0  0  0
   29.2907    9.4399   34.9791 C   0  0  0  0  0  0  0  0  0  0  0  0
   17.9239    9.1379   28.2523 C   0  0  0  0  0  0  0  0  0  0  0  0
   23.4235    9.3179   34.5315 C   0  0  0  0  0  0  0  0  0  0  0  0
   21.5285    8.5900   28.1980 C   0  0  0  0  0  0  0  0  0  0  0  0
   29.0500   11.4511   35.5813 C   0  0  0  0  0  0  0  0  0  0  0  0
   19.4835    9.4740   28.8607 C   0  0  0  0  0  0  0  0  0  0  0  0
   17.6518    7.8107   27.0719 C   0  0  0  0  0  0  0  0  0  0  0  0
   26.1867   10.5855   35.0380 N   0  0  0  0  0  0  0  0  0  0  0  0
   24.7840    9.7605   33.4411 O   0  0  0  0  0  0  0  0  0  0  0  0
   21.8403    7.4562   25.7569 O   0  0  0  0  0  0  0  0  0  0  0  0
   30.3324   10.5410   35.5997 N   0  0  0  0  0  0  0  0  0  0  0  0
   30.1312    8.5185   34.6727 N   0  0  0  0  0  0  0  0  0  0  0  0
   23.8731    8.9943   36.5047 O   0  0  0  0  0  0  0  0  0  0  0  0
   27.5437   12.3155   35.7550 N   0  0  0  0  0  0  0  0  0  0  0  0
   21.2787    9.2685   31.2539 O   0  0  0  0  0  0  0  0  0  0  0  0
   15.7926    7.5033   27.0130 O   0  0  0  0  0  0  0  0  0  0  0  0
   27.7327   10.4640   35.1062 C   0  0  0  0  0  3  0  0  0  0  0  0
   19.7088    9.8643   32.4665 O   0  0  0  0  0  0  0  0  0  0  0  0
   20.5525    8.1700   27.0192 C   0  0  0  0  0  0  0  0  0  0  0  0
   22.8672    9.2368   33.0002 C   0  0  0  0  0  0  0  0  0  0  0  0
   30.0851   12.4161   35.7294 O   0  0  0  0  0  0  0  0  0  0  0  0
   22.7513    7.6285   34.9984 O   0  0  0  0  0  0  0  0  0  0  0  0
   17.5471    6.4797   26.5354 O   0  0  0  0  0  0  0  0  0  0  0  0
   28.0683    9.2218   34.6664 N   0  0  0  0  0  0  0  0  0  0  0  0
   19.8480    7.7161   31.0345 O   0  0  0  0  0  0  0  0  0  0  0  0
   20.0545    8.8139   31.2715 P   0  0  0  0  0  5  0  0  0  0  0  0
   26.4301   11.8420   35.5888 C   0  0  0  0  0  0  0  0  0  0  0  0
  4  1  1  0
  7  3  1  0
  7  5  1  0
  8  3  1  0
  9  1  1  0
 10  1  1  0
 10  4  1  0
 12  2  2  0
 12  6  1  0
 13  2  1  0
 14  1  1  0
 15  6  1  0
 17  8  1  0
 18  6  1  0
 18  9  1  0
 20  5  1  0
 20 11  1  0
 21  4  1  0
 22  6  1  0
 23  4  1  0
 24  8  1  0
 25  2  1  0
 25 18  1  0
 26 16  1  0
 27  7  1  0
 27 19  1  0
 27 21  1  0
 27 26  1  0
 28  9  1  0
 28 15  2  0
M  RAD  1  18   2
M  END
>  <ID>  (1) 
conformer_0

$$$$
