
     RDKit          3D

 31 35  0  0  0  0  0  0  0  0999 V2000
   24.3483    9.7075   34.9623 C   0  0  0  0  0  0  0  0  0  0  0  0
   28.9892    9.8974   35.0209 C   0  0  0  0  0  0  0  0  0  0  0  0
   22.0247    8.5218   27.8669 C   0  0  0  0  0  0  0  0  0  0  0  0
   17.6426    8.7128   27.9234 C   0  0  0  0  0  0  0  0  0  0  0  0
   23.3297    9.0475   34.2416 C   0  0  0  0  0  0  0  0  0  0  0  0
   21.1128    8.2334   27.0215 C   0  0  0  0  0  0  0  0  0  0  0  0
   16.7797    7.7783   26.7157 C   0  0  0  0  0  0  0  0  0  0  0  0
   26.2725   11.9762   35.4508 C   0  0  0  0  0  0  0  0  0  0  0  0
   29.8313    8.6106   34.9030 N   0  0  0  0  0  0  0  0  0  0  0  0
   25.8829   10.6312   34.8551 N   0  0  0  0  0  0  0  0  0  0  0  0
   26.7852   12.5404   35.7883 N   0  0  0  0  0  0  0  0  0  0  0  0
   24.2839    9.9899   33.3082 O   0  0  0  0  0  0  0  0  0  0  0  0
   24.0194    8.9906   36.3778 O   0  0  0  0  0  0  0  0  0  0  0  0
   29.7400   10.7906   35.5363 N   0  0  0  0  0  0  0  0  0  0  0  0
   19.6277   10.1785   32.8626 O   0  0  0  0  0  0  0  0  0  0  0  0
   19.8595    8.9089   31.6478 P   0  0  0  0  0  0  0  0  0  0  0  0
   20.1660    9.4975   30.5066 O   0  0  0  0  0  0  0  0  0  0  0  0
   21.5564    7.3286   25.6027 O   0  0  0  0  0  0  0  0  0  0  0  0
   23.4195    7.4140   34.5122 O   0  0  0  0  0  0  0  0  0  0  0  0
   15.7329    7.5192   26.8188 O   0  0  0  0  0  0  0  0  0  0  0  0
   28.5009   11.7953   35.6124 C   0  0  0  0  0  0  0  0  0  0  0  0
   19.2251    9.5041   28.7430 C   0  0  0  0  0  0  0  0  0  0  0  0
   22.8370    9.0312   32.6385 C   0  0  0  0  0  0  0  0  0  0  0  0
   19.5958    8.8007   27.3575 N   0  0  0  0  0  0  0  0  0  0  0  0
   29.2451   12.9147   36.0099 O   0  0  0  0  0  0  0  0  0  0  0  0
   19.1968    7.8886   31.9390 O   0  0  0  0  0  0  0  0  0  0  0  0
   27.7367    9.0931   34.7624 N   0  0  0  0  0  0  0  0  0  0  0  0
   27.2411   10.4830   34.9398 C   0  0  0  0  0  0  0  0  0  0  0  0
   18.9331    8.1440   26.7110 C   0  0  0  0  0  0  0  0  0  0  0  0
   21.3645    8.8819   32.0729 O   0  0  0  0  0  0  0  0  0  0  0  0
   17.9040    9.7162   29.0615 C   0  0  0  0  0  0  0  0  0  0  0  0
  5  1  1  0
  6  3  1  0
  7  4  1  0
  9  2  1  0
 10  1  1  0
 10  8  1  0
 11  8  2  0
 12  1  1  0
 12  5  1  0
 13  1  1  0
 14  2  1  0
 16 15  1  0
 18  6  2  0
 19  5  1  0
 20  7  2  0
 21 11  1  0
 21 14  1  0
 22 17  1  0
 23  5  1  0
 24  6  1  0
 24 22  1  0
 25 21  2  0
 26 16  1  0
 26 22  1  0
 27  2  1  0
 28  2  1  0
 28  8  1  0
 28 10  1  0
 28 27  1  0
 29  4  1  0
 29 24  1  0
 30 16  1  0
 30 23  1  0
 31  4  1  0
 31 22  1  0
M  END
>  <ID>  (1) 
conformer_0

$$$$
