
     RDKit          3D

 28 28  0  0  0  0  0  0  0  0999 V2000
   28.5938   10.1521   35.0877 C   0  0  0  0  0  0  0  0  0  0  0  0
   24.5980    9.4927   34.7186 C   0  0  0  0  0  0  0  0  0  0  0  0
   17.7496    8.4691   27.5411 C   0  0  0  0  0  0  0  0  0  0  0  0
   23.3751    9.0901   34.4889 C   0  0  2  0  0  0  0  0  0  0  0  0
   19.7263    9.1369   28.6802 C   0  0  2  0  0  0  0  0  0  0  0  0
   26.1610   10.4298   34.8363 N   0  0  0  0  0  0  0  0  0  0  0  0
   26.7188   11.4207   35.3295 C   0  0  0  0  0  0  0  0  0  0  0  0
   21.5931    8.4860   28.0569 C   0  0  0  0  0  0  0  0  0  0  0  0
   30.3139    8.8254   35.0055 N   0  0  0  0  0  0  0  0  0  0  0  0
   24.5958    9.9005   33.3676 O   0  0  0  0  0  0  0  0  0  0  0  0
   16.8094    7.7427   26.7140 C   0  0  0  0  0  0  0  0  0  0  0  0
   23.0891    7.3873   34.7241 O   0  0  0  0  0  0  0  0  0  0  0  0
   20.7711    7.2345   25.7900 O   0  0  0  0  0  0  0  0  0  0  0  0
   21.5229    8.8331   31.9967 O   0  0  0  0  0  0  0  0  0  0  0  0
   20.1161    8.8511   31.5520 P   0  0  0  0  0  0  0  0  0  0  0  0
   26.9856   12.3738   35.7829 N   0  0  0  0  0  0  0  0  0  0  0  0
   19.8784   10.2838   32.1934 O   0  0  0  0  0  0  0  0  0  0  0  0
   30.0673   11.1761   35.7940 N   0  0  0  0  0  0  0  0  0  0  0  0
   23.0314    8.9565   32.7561 C   0  0  0  0  0  0  0  0  0  0  0  0
   23.7732    8.9671   36.4296 O   0  0  0  0  0  0  0  0  0  0  0  0
   28.6033   11.6160   35.6536 C   0  0  1  0  0  0  0  0  0  0  0  0
   20.1848    8.1491   26.8242 C   0  0  0  0  0  0  0  0  0  0  0  0
   17.7182    9.4609   28.5903 C   0  0  0  0  0  0  0  0  0  0  0  0
   15.5004    7.7556   26.6762 O   0  0  0  0  0  0  0  0  0  0  0  0
   19.2302    7.9660   32.1148 O   0  0  0  0  0  0  0  0  0  0  0  0
   29.9240   12.7438   36.0131 O   0  0  0  0  0  0  0  0  0  0  0  0
   28.5125    9.3339   34.7465 N   0  0  0  0  0  0  0  0  0  0  0  0
   20.2519    8.3524   30.2487 O   0  0  0  0  0  0  0  0  0  0  0  0
  4  2  1  0
  6  2  1  0
  7  6  1  0
  8  5  1  0
 10  2  1  0
 11  3  2  3
  4 12  1  1
 15 14  1  0
 16  7  1  0
 17 15  1  0
 19  4  1  0
 19 14  1  0
 20  2  1  0
 21  1  1  6
 21 16  1  0
 21 18  1  0
 22  8  1  0
 22 13  1  0
 23  3  1  0
 23  5  1  0
 24 11  1  0
 25  5  1  0
 25 15  1  0
 26 18  1  0
 26 21  1  0
 27  1  1  0
 27  9  1  0
  5 28  1  1
M  END
>  <ID>  (1) 
conformer_0

$$$$
