
     RDKit          3D

 28 29  0  0  0  0  0  0  0  0999 V2000
   28.8971    9.8904   35.0803 C   0  0  1  0  0  0  0  0  0  0  0  0
   23.2693    8.9130   34.4026 C   0  0  2  0  0  0  0  0  0  0  0  0
   18.1179    8.9313   28.1723 C   0  0  0  0  0  0  0  0  0  0  0  0
   21.2651    8.5823   28.0350 C   0  0  2  0  0  0  0  0  0  0  0  0
   18.9239    8.9287   28.6858 C   0  0  2  0  0  0  0  0  0  0  0  0
   24.7867    9.6608   34.7167 C   0  0  2  0  0  0  0  0  0  0  0  0
   26.0731   10.5946   34.9067 N   0  0  0  0  0  0  0  0  0  0  0  0
   26.7951   12.2937   35.7272 C   0  0  0  0  0  0  0  0  0  0  0  0
   27.0370   12.7344   35.9065 N   0  0  0  0  0  0  0  0  0  0  0  0
   29.9313    8.5724   34.8912 N   0  0  0  0  0  0  0  0  0  0  0  0
   23.2804    7.2361   34.8343 O   0  0  0  0  0  0  0  0  0  0  0  0
   17.3276    8.0631   26.6549 C   0  0  0  0  0  0  0  0  0  0  0  0
   29.7824   10.8401   35.6139 N   0  0  0  0  0  0  0  0  0  0  0  0
   21.5408   10.1659   30.6080 O   0  0  0  0  0  0  0  0  0  0  0  0
   24.6585    9.9471   33.4993 O   0  0  0  0  0  0  0  0  0  0  0  0
   20.1321    9.0463   31.6533 P   0  0  0  0  0  0  0  0  0  0  0  0
   19.4868    7.5685   31.3653 O   0  0  0  0  0  0  0  0  0  0  0  0
   21.2821    7.4174   25.9590 O   0  0  0  0  0  0  0  0  0  0  0  0
   28.7745   11.8737   35.7969 C   0  0  0  0  0  0  0  0  0  0  0  0
   24.0076    8.8650   36.3262 O   0  0  0  0  0  0  0  0  0  0  0  0
   20.6219    8.0782   26.8689 C   0  0  0  0  0  0  0  0  0  0  0  0
   19.7523   10.0417   32.4025 O   0  0  0  0  0  0  0  0  0  0  0  0
   23.2998    9.0573   32.8442 C   0  0  2  0  0  0  0  0  0  0  0  0
   27.7701    8.9109   34.7726 N   0  0  0  0  0  0  0  0  0  0  0  0
   15.7959    8.0090   26.9508 O   0  0  0  0  0  0  0  0  0  0  0  0
   16.4633    7.0609   25.5551 O   0  0  0  0  0  0  0  0  0  0  0  0
   21.4528    8.8436   32.2660 O   0  0  0  0  0  0  0  0  0  0  0  0
   27.2124   10.5511   35.0251 C   0  0  2  0  0  0  0  0  0  0  0  0
  5  3  1  6
  5  4  1  0
  6  2  1  0
  7  6  1  0
  9  8  2  3
  1 10  1  6
  2 11  1  6
 12  3  1  0
 13  1  1  0
  4 14  1  6
 15  6  1  0
 17  5  1  0
 17 16  1  0
 19 13  1  0
  6 20  1  6
 21  4  1  0
 21 18  1  0
 22 16  1  0
 23  2  1  0
 23 15  1  0
 24  1  1  0
 25 12  1  0
 26 12  1  0
 27 16  1  0
 23 27  1  1
 28  1  1  0
 28  7  1  1
 28  8  1  0
 28 24  1  0
M  END
>  <ID>  (1) 
conformer_0

$$$$
