
     RDKit          3D

 33 34  0  0  0  0  0  0  0  0999 V2000
   29.2605    9.8665   35.0962 C   0  0  0  0  0  0  0  0  0  0  0  0
   24.9874    9.5127   34.4108 C   0  0  2  0  0  0  0  0  0  0  0  0
   21.3506    8.6334   28.3720 C   0  0  2  0  0  0  0  0  0  0  0  0
   17.6851    8.3596   27.4190 C   0  0  0  0  0  0  0  0  0  0  0  0
   23.0607    8.8047   33.8253 C   0  0  2  0  0  0  0  0  0  0  0  0
   26.3158   11.8167   35.5999 C   0  0  0  0  0  0  0  0  0  0  0  0
   26.0307   10.5292   34.8782 N   0  0  0  0  0  0  0  0  0  0  0  0
   16.1442    7.5383   26.5941 C   0  0  0  0  0  0  0  0  0  0  0  0
   30.0352    8.4529   34.8577 N   0  0  0  0  0  0  0  0  0  0  0  0
   23.8517    9.0496   36.4420 O   0  0  0  0  0  0  0  0  0  0  0  0
   18.6931    9.4964   28.8723 C   0  0  0  0  0  0  0  0  0  0  0  0
   20.6934    7.6132   26.2143 O   0  0  0  0  0  0  0  0  0  0  0  0
   23.1211    7.3428   34.7108 O   0  0  0  0  0  0  0  0  0  0  0  0
   24.6308    9.7888   33.2493 O   0  0  0  0  0  0  0  0  0  0  0  0
   19.7127    8.0004   31.8222 O   0  0  0  0  0  1  0  0  0  0  0  0
   15.0631    7.6263   26.6350 O   0  0  0  0  0  0  0  0  0  0  0  0
   29.8921   10.7352   35.5595 N   0  0  0  0  0  0  0  0  0  0  0  0
   21.7016    9.5128   29.6932 C   0  0  2  0  0  0  0  0  0  0  0  0
   17.6114    9.7737   28.6239 C   0  0  0  0  0  0  0  0  0  0  0  0
   27.0011   12.4818   35.8365 N   0  0  0  0  0  0  0  0  0  0  0  0
   28.7525   11.7045   35.6849 C   0  0  0  0  0  3  0  0  0  0  0  0
   23.0031    9.2683   32.4102 C   0  0  0  0  0  0  0  0  0  0  0  0
   18.3794    7.3887   26.4729 C   0  0  0  0  0  0  0  0  0  0  0  0
   17.4433    5.8384   25.5831 O   0  0  0  0  0  0  0  0  0  0  0  0
   20.1748    9.0493   31.6834 P   0  0  1  0  0  4  0  0  0  0  0  0
   19.7569   10.2051   32.0462 O   0  0  0  0  0  0  0  0  0  0  0  0
   21.2610    9.3444   31.3686 O   0  0  0  0  0  0  0  0  0  0  0  0
   27.4266   10.5937   35.1020 C   0  0  1  0  0  0  0  0  0  0  0  0
   27.9674    9.1093   34.7484 N   0  0  0  0  0  0  0  0  0  0  0  0
   22.7683    8.5695   28.2643 C   0  0  0  0  0  0  0  0  0  0  0  0
   17.9968    6.6583   25.7196 N   0  0  0  0  0  0  0  0  0  0  0  0
   20.6530    8.3670   27.3514 C   0  0  0  0  0  0  0  0  0  0  0  0
   23.6657    9.4758   35.1343 C   0  0  1  0  0  0  0  0  0  0  0  0
  7  2  1  0
  7  6  1  0
  8  4  1  0
  9  1  1  0
  5 13  1  6
  2 14  1  6
 16  8  2  0
 17  1  2  0
 18  3  1  0
 19  4  1  0
 19 11  1  0
 20  6  2  3
 21 17  1  0
 22  5  1  0
 18 22  1  1
 23  4  2  3
 23 12  1  0
 25 15  1  1
 26 25  1  0
 27 18  1  0
 27 25  1  0
 28  6  1  0
 28  7  1  0
 28 21  1  6
 29  1  1  0
 29 28  1  0
  3 30  1  6
 31 23  1  0
 31 24  1  0
 32  3  1  0
 32 12  1  0
 33  2  1  0
 33  5  1  0
 33 10  1  1
M  RAD  3  15   2  21   2  25   2
M  END
>  <ID>  (1) 
conformer_0

$$$$
