
     RDKit          3D

 32 33  0  0  0  0  0  0  0  0999 V2000
   23.8605    9.6167   35.3250 C   0  0  0  0  0  0  0  0  0  0  0  0
   29.2036    9.6352   35.0524 C   0  0  0  0  0  0  0  0  0  0  0  0
   17.7790    9.0264   27.5298 C   0  0  0  0  0  0  0  0  0  0  0  0
   20.9429    8.5737   28.0327 C   0  0  0  0  0  0  0  0  0  0  0  0
   23.0678    8.9518   34.0405 C   0  0  0  0  0  0  0  0  0  0  0  0
   26.6232   11.9643   35.4970 C   0  0  0  0  0  0  0  0  0  0  0  0
   30.1219    8.3544   34.9024 N   0  0  0  0  0  0  0  0  0  0  0  0
   21.2027    8.3685   27.1743 C   0  0  0  0  0  0  0  0  0  0  0  0
   24.7954    9.8159   33.5197 O   0  0  0  0  0  0  0  0  0  0  0  0
   30.1011   10.6754   35.6420 N   0  0  0  0  0  0  0  0  0  0  0  0
   26.3102   10.4909   34.8822 N   0  0  0  0  0  0  0  0  0  0  0  0
   20.4913    7.6312   25.9105 O   0  0  0  0  0  0  0  0  0  0  0  0
   24.0803    8.9992   36.4757 O   0  0  0  0  0  0  0  0  0  0  0  0
   16.2973    7.9633   26.6900 C   0  0  0  0  0  0  0  0  0  0  0  0
   19.7865   10.5655   32.2880 O   0  0  0  0  0  0  0  0  0  0  0  0
   27.3907   12.3813   35.7940 N   0  0  0  0  0  0  0  0  0  0  0  0
   29.0433   11.7127   35.7311 C   0  0  0  0  0  0  0  0  0  0  0  0
   23.0659    7.4964   34.9141 O   0  0  0  0  0  0  0  0  0  0  0  0
   19.4480    8.0524   31.5185 O   0  0  0  0  0  0  0  0  0  0  0  0
   20.2280    9.3645   31.4408 P   0  0  0  0  0  0  0  0  0  0  0  0
   15.5773    7.9548   26.8038 O   0  0  0  0  0  0  0  0  0  0  0  0
   23.0337    9.2818   32.7220 C   0  0  0  0  0  0  0  0  0  0  0  0
   20.8218   10.0632   30.2998 O   0  0  0  0  0  0  0  0  0  0  0  0
   28.1301    8.9393   34.7507 N   0  0  0  0  0  0  0  0  0  0  0  0
   19.7404    9.5767   29.0601 C   0  0  0  0  0  0  0  0  0  0  0  0
   17.8501    9.4902   28.6920 C   0  0  0  0  0  0  0  0  0  0  0  0
   17.1666    6.7157   26.3135 O   0  0  0  0  0  0  0  0  0  0  0  0
   21.4423    9.1209   32.1126 O   0  0  0  0  0  0  0  0  0  0  0  0
   27.6898   10.5808   35.0829 C   0  0  0  0  0  0  0  0  0  0  0  0
   25.2405    9.6375   34.5791 C   0  0  0  0  0  0  0  0  0  0  0  0
   22.6576    8.6026   28.2533 C   0  0  0  0  0  0  0  0  0  0  0  0
   18.9515    8.5419   26.8710 C   0  0  0  0  0  0  0  0  0  0  0  0
  5  1  1  0
  7  2  1  0
  8  4  1  0
 10  2  1  0
 11  6  1  0
 12  8  1  0
 13  1  1  0
 14  3  1  0
 16  6  2  0
 17 10  1  0
 17 16  1  0
 18  5  1  0
 20 15  1  0
 21 14  2  0
 22  5  1  0
 23 20  1  0
 24  2  1  0
 25  4  1  0
 25 19  1  0
 25 23  1  0
 26  3  1  0
 26 25  1  0
 27 14  1  0
 28 20  1  0
 28 22  1  0
 29  6  1  0
 29 11  1  0
 29 24  1  0
 30  1  1  0
 30  9  1  0
 30 11  1  0
 31  4  1  0
 32  3  1  0
M  END
>  <ID>  (1) 
conformer_0

$$$$
