
     RDKit          3D

 35 36  0  0  0  0  0  0  0  0999 V2000
   29.4399   10.2589   35.1096 C   0  0  0  0  0  0  0  0  0  0  0  0
   22.7735    9.8507   33.7046 C   0  0  0  0  0  0  0  0  0  0  0  0
   18.0644    8.0602   27.5313 C   0  0  0  0  0  0  0  0  0  0  0  0
   20.8539    8.5053   27.9977 C   0  0  0  0  0  0  0  0  0  0  0  0
   23.5268    8.7892   34.2197 C   0  0  0  0  0  0  0  0  0  0  0  0
   26.4132   12.1729   35.7160 C   0  0  0  0  0  0  0  0  0  0  0  0
   18.6036    7.8991   26.9730 C   0  0  0  0  0  0  0  0  0  0  0  0
   26.3908   10.6507   34.9644 N   0  0  0  0  0  0  0  0  0  0  0  0
   30.3511    8.7154   34.7495 N   0  0  0  0  0  0  0  0  0  0  0  0
   24.7537    9.9602   33.4543 O   0  0  0  0  0  0  0  0  0  0  0  0
   16.1982    7.4673   26.5623 C   0  0  0  0  0  0  0  0  0  0  0  0
   20.2551    7.2342   25.9543 O   0  0  0  0  0  0  0  0  0  0  0  0
   24.1040    9.0584   36.3721 O   0  0  0  0  0  0  0  0  0  0  0  0
   20.0736    9.2467   31.5328 P   0  0  0  0  0  0  0  0  0  0  0  0
   19.5323    9.8019   32.8045 O   0  0  0  0  0  0  0  0  0  0  0  0
   21.5856    9.2055   31.7667 O   0  0  0  0  0  0  0  0  0  0  0  0
   17.6245    9.8171   29.0965 C   0  0  0  0  0  0  0  0  0  0  0  0
   27.1854   12.5906   35.8655 N   0  0  0  0  0  0  0  0  0  0  0  0
   24.2456    9.8009   35.3658 C   0  0  0  0  0  0  0  0  0  0  0  0
   15.4934    7.4225   26.8386 O   0  0  0  0  0  0  0  0  0  0  0  0
   18.7036    9.5555   29.2592 C   0  0  0  0  0  0  0  0  0  0  0  0
   23.5532    7.5102   34.6318 O   0  0  0  0  0  0  0  0  0  0  0  0
   19.7277    7.6383   31.0485 O   0  0  0  0  0  0  0  0  0  0  0  0
   28.9545   12.0964   35.8560 C   0  0  0  0  0  0  0  0  0  0  0  0
   29.7021   11.7087   35.8023 N   0  0  0  0  0  0  0  0  0  0  0  0
   21.2703    8.8647   29.1029 C   0  0  0  0  0  0  0  0  0  0  0  0
   20.0081    9.9586   30.6200 O   0  0  0  0  0  0  0  0  0  0  0  0
   16.8902    6.9667   25.7340 N   0  0  0  0  0  0  0  0  0  0  0  0
   25.7973    9.6648   34.5361 C   0  0  0  0  0  0  0  0  0  0  0  0
   27.6041   10.9623   35.0842 C   0  0  0  0  0  0  0  0  0  0  0  0
   29.1029    9.9629   34.8633 N   0  0  0  0  0  0  0  0  0  0  0  0
   17.2791    9.3264   27.7169 C   0  0  0  0  0  0  0  0  0  0  0  0
   23.0304    9.2009   32.0268 C   0  0  0  0  0  0  0  0  0  0  0  0
   20.6943    8.1773   26.9886 C   0  0  0  0  0  0  0  0  0  0  0  0
   22.5232    8.6855   28.6610 C   0  0  0  0  0  0  0  0  0  0  0  0
  5  2  1  0
  7  3  1  0
  8  6  1  0
  9  1  1  0
 10  5  1  0
 11  3  1  0
 15 14  1  0
 18  6  2  0
 19  5  1  0
 19 13  1  0
 20 11  2  0
 21 17  1  0
 22  5  1  0
 23 14  1  0
 24 18  1  0
 25  1  2  0
 25 24  1  0
 26  4  1  0
 27 14  1  0
 27 21  1  0
 28 11  1  0
 29  8  1  0
 29 10  1  0
 29 19  1  0
 30  8  1  0
 31  1  1  0
 31 30  1  0
 32  3  1  0
 32 17  1  0
 33  2  1  0
 33 16  1  0
 33 26  1  0
 34  4  1  0
 34  7  1  0
 34 12  1  0
 35 26  1  0
M  END
>  <ID>  (1) 
conformer_0

$$$$
