
     RDKit          3D

 27 29  0  0  0  0  0  0  0  0999 V2000
   24.4600    9.6279   34.8105 C   0  0  1  0  0  0  0  0  0  0  0  0
   28.5726   10.1882   35.1268 C   0  0  0  0  0  0  0  0  0  0  0  0
   17.2793    8.9660   27.4852 C   0  0  1  0  0  0  0  0  0  0  0  0
   21.9855    8.5794   28.3068 C   0  0  0  0  0  0  0  0  0  0  0  0
   23.3169    9.1820   34.2970 C   0  0  1  0  0  0  0  0  0  0  0  0
   18.8047    8.7561   27.9032 C   0  0  2  0  0  0  0  0  0  0  0  0
   26.6400   11.5093   35.4972 C   0  0  0  0  0  0  0  0  0  0  0  0
   30.0777   10.7970   35.6139 N   0  0  0  0  0  0  0  0  0  0  0  0
   25.9918   10.5198   34.9734 N   0  0  0  0  0  0  0  0  0  0  0  0
   23.7255    9.0487   36.4489 O   0  0  0  0  0  0  0  0  0  0  0  0
   24.6941    9.7592   33.3533 O   0  0  0  0  0  0  0  0  0  0  0  0
   29.2453    8.9010   34.8007 N   0  0  0  0  0  0  0  0  0  0  0  0
   20.7355    7.2597   25.8232 O   0  0  0  0  0  0  0  0  0  0  0  0
   16.1409    7.7469   26.6552 C   0  0  0  0  0  0  0  0  0  0  0  0
   26.7988   12.5855   35.8743 N   0  0  0  0  0  0  0  0  0  0  0  0
   23.0982    7.4783   34.7192 O   0  0  0  0  0  0  0  0  0  0  0  0
   15.0878    7.6723   26.8591 O   0  0  0  0  0  0  0  0  0  0  0  0
   28.5880   11.7376   35.7591 C   0  0  2  0  0  0  0  0  0  0  0  0
   17.5046    9.8177   28.5356 C   0  0  0  0  0  0  0  0  0  0  0  0
   19.5589    7.8288   31.1011 O   0  0  0  0  0  0  0  0  0  0  0  0
   22.9762    9.2234   32.5954 C   0  0  0  0  0  0  0  0  0  0  0  0
   29.9075   12.9107   36.6089 N   0  0  0  0  0  0  0  0  0  0  0  0
   21.1868    8.7202   29.1868 C   0  0  0  0  0  0  0  0  0  0  0  0
   20.1244    8.8643   31.5539 P   0  0  0  0  0  0  0  0  0  0  0  0
   21.1388    9.2094   31.4406 O   0  0  0  0  0  0  0  0  0  0  0  0
   20.4439    8.0614   26.8711 C   0  0  2  0  0  0  0  0  0  0  0  0
   16.3939    6.6447   26.4620 O   0  0  0  0  0  0  0  0  0  0  0  0
  5  1  1  0
  6  3  1  0
  8  2  2  0
  9  1  1  0
  9  7  1  0
  1 10  1  1
 11  1  1  0
 11  5  1  0
 12  2  1  0
  3 14  1  1
 15  7  2  3
  5 16  1  6
 17 14  2  0
 18  2  1  0
 18  7  1  0
 18  8  1  0
 19  3  1  0
  6 19  1  6
 21  5  1  0
 18 22  1  6
 23  4  1  0
 24 20  1  0
 24 23  1  0
 25 21  1  0
 25 24  1  0
 26  4  1  0
 26  6  1  0
 26 13  1  1
 27 14  1  0
M  END
>  <ID>  (1) 
conformer_0

$$$$
