
     RDKit          3D

 34 36  0  0  0  0  0  0  0  0999 V2000
   29.0254    9.8830   34.9025 C   0  0  0  0  0  0  0  0  0  0  0  0
   24.9412    9.6717   34.8616 C   0  0  0  0  0  0  0  0  0  0  0  0
   17.8590    8.6007   27.7785 C   0  0  0  0  0  0  0  0  0  0  0  0
   22.1964    8.6381   28.3011 C   0  0  0  0  0  0  0  0  0  0  0  0
   23.5903    9.5375   35.1994 C   0  0  0  0  0  0  0  0  0  0  0  0
   26.0069   10.5795   34.9504 N   0  0  0  0  0  0  0  0  0  0  0  0
   26.2897   12.0812   35.5781 C   0  0  0  0  0  0  0  0  0  0  0  0
   21.4005    7.8669   26.5121 C   0  0  0  0  0  0  0  0  0  0  0  0
   23.8516    9.1012   36.5111 O   0  0  0  0  0  0  0  0  0  0  0  0
   29.8066   10.7815   35.4441 N   0  0  0  0  0  0  0  0  0  0  0  0
   30.2104    8.4958   34.7834 N   0  0  0  0  0  0  0  0  0  0  0  0
   21.2707    7.1412   25.4920 O   0  0  0  0  0  0  0  0  0  0  0  0
   16.5091    8.0527   26.8513 C   0  0  0  0  0  0  0  0  0  0  0  0
   24.4839    9.7843   33.5734 O   0  0  0  0  0  0  0  0  0  0  0  0
   23.0712    7.4039   34.8828 O   0  0  0  0  0  0  0  0  0  0  0  0
   21.2777    8.4591   32.3687 O   0  0  0  0  0  1  0  0  0  0  0  0
   26.9175   12.4443   35.7508 N   0  0  0  0  0  0  0  0  0  0  0  0
   28.5651   11.7491   35.5852 C   0  0  0  0  0  0  0  0  0  0  0  0
   22.9148    8.8031   33.9817 C   0  0  0  0  0  0  0  0  0  0  0  0
   19.8657    9.8664   32.4916 O   0  0  0  0  0  0  0  0  0  0  0  0
   19.3512    7.4817   31.2381 O   0  0  0  0  0  0  0  0  0  0  0  0
   15.7816    7.8398   26.5019 O   0  0  0  0  0  0  0  0  0  0  0  0
   17.7487    9.4885   28.7290 C   0  0  0  0  0  0  0  0  0  0  0  0
   18.9566    8.6738   28.7583 C   0  0  0  0  0  0  0  0  0  0  0  0
   16.0435    7.2682   27.3026 O   0  0  0  0  0  0  0  0  0  0  0  0
   28.2183    9.2198   34.7834 N   0  0  0  0  0  0  0  0  0  0  0  0
   20.3123    8.8650   31.8097 P   0  0  0  0  0  4  0  0  0  0  0  0
   20.6138    8.4302   27.8715 C   0  0  0  0  0  0  0  0  0  0  0  0
   27.2065   10.5675   34.8503 C   0  0  0  0  0  0  0  0  0  0  0  0
   19.2103    7.9085   26.4133 C   0  0  0  0  0  0  0  0  0  0  0  0
   21.0902    9.6970   30.7207 O   0  0  0  0  0  0  0  0  0  0  0  0
   23.0403    9.3915   32.6507 C   0  0  0  0  0  0  0  0  0  0  0  0
   20.3091    8.4558   31.2328 S   0  0  0  0  0  6  0  0  0  0  0  0
   21.5627    9.0923   29.6873 C   0  0  0  0  0  0  0  0  0  0  0  0
  5  2  1  0
  6  2  1  0
  7  6  1  0
  9  5  1  0
 10  1  1  0
 11  1  1  0
 12  8  2  0
 13  3  1  0
 14  2  1  0
 17  7  2  0
 18 10  1  0
 18 17  1  0
 19  5  1  0
 19 15  1  0
 22 13  2  0
 23  3  1  0
 24  3  1  0
 24 23  1  0
 25 13  1  0
 26  1  1  0
 27 16  1  0
 27 20  1  0
 28  4  1  0
 28  8  1  0
 28 24  1  0
 29  6  1  0
 29 26  1  0
 30  3  1  0
 32 14  1  0
 32 19  1  0
 33 21  1  0
 33 27  1  0
 33 31  1  0
 33 32  1  0
 34  4  1  0
 34 33  1  0
M  RAD  2  16   2  27   2
M  END
>  <ID>  (1) 
conformer_0

$$$$
