
     RDKit          3D

 34 36  0  0  0  0  0  0  0  0999 V2000
   29.5732    9.7958   35.1714 C   0  0  0  0  0  0  0  0  0  0  0  0
   25.1350    9.9732   34.8242 C   0  0  0  0  0  0  0  0  0  0  0  0
   17.6032    9.4189   28.4327 C   0  0  0  0  0  0  0  0  0  0  0  0
   20.7487    8.3415   28.0578 C   0  0  0  0  0  0  0  0  0  0  0  0
   23.3206    8.8103   33.6987 C   0  0  0  0  0  0  0  0  0  0  0  0
   18.6460    7.8348   26.5038 C   0  0  0  0  0  0  0  0  0  0  0  0
   30.1183    8.7708   34.9249 N   0  0  0  0  0  0  0  0  0  0  0  0
   26.6587   12.1376   35.7820 C   0  0  0  0  0  0  0  0  0  0  0  0
   26.1842   10.5067   34.9702 N   0  0  0  0  0  0  0  0  0  0  0  0
   19.9813    7.3252   25.8878 O   0  0  0  0  0  0  0  0  0  0  0  0
   16.3550    7.5517   26.5660 C   0  0  0  0  0  0  0  0  0  0  0  0
   23.9261    8.8930   36.3264 O   0  0  0  0  0  0  0  0  0  0  0  0
   27.4027   12.4778   35.9038 N   0  0  0  0  0  0  0  0  0  0  0  0
   24.5714   10.2881   33.6157 O   0  0  0  0  0  0  0  0  0  0  0  0
   30.0048   11.1204   35.7746 N   0  0  0  0  0  0  0  0  0  0  0  0
   23.7734    7.3648   34.1233 O   0  0  0  0  0  0  0  0  0  0  0  0
   21.7631    8.8672   31.9922 O   0  0  0  0  0  0  0  0  0  0  0  0
   15.4592    7.2727   26.9701 O   0  0  0  0  0  0  0  0  0  0  0  0
   19.8827    9.8479   32.4072 O   0  0  0  0  0  0  0  0  0  0  0  0
   29.3139   12.1565   35.9920 C   0  0  0  0  0  0  0  0  0  0  0  0
   20.3551    8.9614   31.3958 P   0  0  0  0  0  4  0  0  0  0  0  0
   19.5975    7.6532   31.4238 O   0  0  0  0  0  1  0  0  0  0  0  0
   23.2163    9.3879   32.4415 C   0  0  0  0  0  0  0  0  0  0  0  0
   28.0123    9.0761   34.7757 N   0  0  0  0  0  0  0  0  0  0  0  0
   18.7484    9.2600   28.7174 C   0  0  0  0  0  0  0  0  0  0  0  0
   21.5675    8.9870   29.6420 C   0  0  0  0  0  0  0  0  0  0  0  0
   27.3093    9.8244   34.8656 C   0  0  0  0  0  0  0  0  0  0  0  0
   17.2739    8.6814   27.2320 C   0  0  0  0  0  0  0  0  0  0  0  0
   16.9698    6.8520   25.7506 N   0  0  0  0  0  0  0  0  0  0  0  0
   22.3310    8.6491   28.5846 C   0  0  0  0  0  0  0  0  0  0  0  0
   20.7688    9.7998   30.6471 O   0  0  0  0  0  0  0  0  0  0  0  0
   23.7842    9.5099   35.0761 C   0  0  0  0  0  0  0  0  0  0  0  0
   20.7165    8.2847   27.1336 C   0  0  0  0  0  0  0  0  0  0  0  0
   28.1820   11.1126   35.4059 C   0  0  0  0  0  0  0  0  0  0  0  0
  7  1  1  0
  9  2  1  0
  9  8  1  0
 10  6  1  0
 13  8  2  0
 14  2  1  0
 15  1  1  0
 16  5  1  0
 18 11  2  0
 20 15  2  0
 21 19  1  0
 22 21  1  0
 23  5  1  0
 23 17  1  0
 24  1  1  0
 25  3  1  0
 26 23  1  0
 27  9  1  0
 27 24  1  0
 28  3  1  0
 28  6  1  0
 28 11  1  0
 29 11  1  0
 30  4  1  0
 30 26  1  0
 31 21  1  0
 31 26  1  0
 32  2  1  0
 32  5  1  0
 32 12  1  0
 32 14  1  0
 33  4  1  0
 33 10  1  0
 34 13  1  0
 34 20  1  0
 34 27  2  0
M  RAD  2  21   2  22   2
M  END
>  <ID>  (1) 
conformer_0

$$$$
