
     RDKit          3D

 26 25  0  0  0  0  0  0  0  0999 V2000
   24.3772    9.5498   34.6623 C   0  0  0  0  0  0  0  0  0  0  0  0
   26.3774   11.5465   35.3783 C   0  0  0  0  0  0  0  0  0  0  0  0
   17.7805    9.4177   28.1417 C   0  0  0  0  0  0  0  0  0  0  0  0
   23.5075    9.2096   34.1738 C   0  0  2  0  0  0  0  0  0  0  0  0
   18.7751    9.3214   28.4694 C   0  0  2  0  0  0  0  0  0  0  0  0
   22.1506    8.5880   28.3333 C   0  0  0  0  0  0  0  0  0  0  0  0
   26.0208   10.4004   34.7566 N   0  0  0  0  0  0  0  0  0  0  0  0
   29.3813    9.2044   34.8389 N   0  0  0  0  0  0  0  0  0  0  0  0
   28.1556   10.1477   34.9525 C   0  0  0  0  0  0  0  0  0  0  0  0
   20.9191    7.3386   25.8687 O   0  0  0  0  0  0  0  0  0  0  0  0
   20.0024    7.9949   26.6447 C   0  0  0  0  0  0  0  0  0  0  0  0
   24.6854    9.6710   33.1068 O   0  0  0  0  0  0  0  0  0  0  0  0
   26.2462   12.3573   35.8332 N   0  0  0  0  0  0  0  0  0  0  0  0
   23.3578    7.3994   34.4096 O   0  0  0  0  0  0  0  0  0  0  0  0
   19.6417    9.9500   32.1088 O   0  0  0  0  0  0  0  0  0  0  0  0
   19.8707    7.8100   31.0895 O   0  0  0  0  0  1  0  0  0  0  0  0
   20.1099    9.0176   31.3336 P   0  0  1  0  0  4  0  0  0  0  0  0
   23.6433    9.0582   36.2405 O   0  0  0  0  0  0  0  0  0  0  0  0
   23.0369    9.1544   32.3200 C   0  0  0  0  0  0  0  0  0  0  0  0
   21.3308    9.6935   30.8974 O   0  0  0  0  0  0  0  0  0  0  0  0
   17.1062    6.9651   27.0276 O   0  0  0  0  0  0  0  0  0  0  0  0
   17.2942    8.1596   27.1754 C   0  0  0  0  0  0  0  0  0  0  0  0
   21.3907    8.6498   28.1638 C   0  0  0  0  0  0  0  0  0  0  0  0
   28.1655   11.6282   35.5055 C   0  0  0  0  0  0  0  0  0  0  0  0
   15.9717    8.1726   26.8800 O   0  0  0  0  0  0  0  0  0  0  0  0
   28.7777   12.0031   35.8784 N   0  0  0  0  0  0  0  0  0  0  0  0
  4  1  1  0
  5  3  1  1
  7  1  1  0
  7  2  1  0
  9  8  1  0
 11  5  1  0
 11 10  1  0
 12  1  1  0
 13  2  2  3
  4 14  1  6
 17  5  1  0
 17 15  1  1
 17 16  1  0
 18  1  1  0
 19  4  1  0
 20 17  1  0
 20 19  1  0
 22  3  1  0
 22 21  1  0
 23  6  2  3
 23 11  1  0
 24  2  1  0
 24  9  1  0
 25 22  1  0
 26 24  2  3
M  RAD  2  16   2  17   2
M  END
>  <ID>  (1) 
conformer_0

$$$$
