
     RDKit          3D

 30 31  0  0  0  0  0  0  0  0999 V2000
   24.7656    9.6279   34.6323 C   0  0  0  0  0  0  0  0  0  0  0  0
   26.7205   11.6429   35.3947 C   0  0  0  0  0  0  0  0  0  0  0  0
   17.3451    9.3360   28.1641 C   0  0  0  0  0  0  0  0  0  0  0  0
   22.3117    8.7626   28.4298 C   0  0  0  0  0  0  0  0  0  0  0  0
   16.7117    7.5222   26.6694 C   0  0  0  0  0  0  0  0  0  0  0  0
   23.5405    9.1750   34.4628 C   0  0  0  0  0  0  0  0  0  0  0  0
   28.4427    9.9621   34.9098 C   0  0  0  0  0  0  0  0  0  0  0  0
   26.2901   10.6186   34.8528 N   0  0  0  0  0  0  0  0  0  0  0  0
   18.2570    8.1210   26.9247 C   0  0  0  0  0  0  0  0  0  0  0  0
   27.2107   12.4541   35.8335 N   0  0  0  0  0  0  0  0  0  0  0  0
   29.9753   10.9108   35.5139 N   0  0  0  0  0  0  0  0  0  0  0  0
   30.2774    8.3777   34.8062 N   0  0  0  0  0  0  0  0  0  0  0  0
   23.9797    9.0157   36.3955 O   0  0  0  0  0  0  0  0  0  0  0  0
   24.6346   10.1119   33.4626 O   0  0  0  0  0  0  0  0  0  0  0  0
   15.5179    7.0929   26.7018 O   0  0  0  0  0  0  0  0  0  0  0  0
   23.4276    7.3862   34.3783 O   0  0  0  0  0  0  0  0  0  0  0  0
   19.8102   10.2832   32.6717 O   0  0  0  0  0  0  0  0  0  0  0  0
   21.5851    8.9094   31.7690 O   0  0  0  0  0  0  0  0  0  0  0  0
   20.1720    9.1474   31.6696 P   0  0  0  0  0  0  0  0  0  0  0  0
   22.0248    9.2894   29.7796 C   0  0  0  0  0  0  0  0  0  0  0  0
   23.2269    9.1131   32.8672 C   0  0  0  0  0  0  0  0  0  0  0  0
   28.5657   11.4204   35.5009 C   0  0  0  0  0  0  0  0  0  0  0  0
   18.8119    9.4877   29.0051 C   0  0  0  0  0  0  0  0  0  0  0  0
   19.3918    7.8396   31.7130 O   0  0  0  0  0  0  0  0  0  0  0  0
   17.5107   10.1821   28.8802 C   0  0  0  0  0  0  0  0  0  0  0  0
   19.4267    8.8881   28.1090 N   0  0  0  0  0  0  0  0  0  0  0  0
   18.7681    6.6981   26.1373 S   0  0  0  0  0  0  0  0  0  0  0  0
   28.2740    9.1537   34.6982 N   0  0  0  0  0  0  0  0  0  0  0  0
   20.2336    9.6148   30.4658 O   0  0  0  0  0  0  0  0  0  0  0  0
   20.5262    8.6317   27.5930 C   0  0  0  0  0  0  0  0  0  0  0  0
  6  1  1  0
  8  1  1  0
  8  2  1  0
  9  3  1  0
  9  5  1  0
 10  2  1  0
 11  7  1  0
 13  6  1  0
 14  1  1  0
 15  5  1  0
 16  6  1  0
 19 17  1  0
 19 18  1  0
 20  4  1  0
 21  6  1  0
 21 18  1  0
 22  7  1  0
 22 10  1  0
 22 11  2  0
 24 23  2  0
 25  3  1  0
 25 23  1  0
 26  9  1  0
 26 23  1  0
 27  9  1  0
 28  7  1  0
 28 12  1  0
 29 19  1  0
 29 20  1  0
 30  4  1  0
 30 26  1  0
M  END
>  <ID>  (1) 
conformer_0

$$$$
