
     RDKit          3D

 29 32  0  0  0  0  0  0  0  0999 V2000
   25.1542    9.5959   34.7277 C   0  0  2  0  0  0  0  0  0  0  0  0
   29.2019    9.6357   34.9616 C   0  0  0  0  0  0  0  0  0  0  0  0
   17.8368    8.3151   27.4585 C   0  0  1  0  0  0  0  0  0  0  0  0
   23.7565    9.3923   35.1535 C   0  0  2  0  0  0  0  0  0  0  0  0
   26.0407   12.0129   35.6534 C   0  0  0  0  0  0  0  0  0  0  0  0
   21.1438    8.4877   28.0216 C   0  0  0  0  0  0  0  0  0  0  0  0
   20.0175    7.7455   26.4535 C   0  0  0  0  0  0  0  0  0  0  0  0
   30.0341    8.3929   34.8861 N   0  0  0  0  0  0  0  0  0  0  0  0
   26.0542   10.6220   35.0203 N   0  0  0  0  0  0  0  0  0  0  0  0
   24.4877   10.0724   33.5266 O   0  0  0  0  0  0  0  0  0  0  0  0
   23.9421    8.9391   36.4925 O   0  0  0  0  0  0  0  0  0  0  0  0
   21.2944    7.1465   25.4146 O   0  0  0  0  0  0  0  0  0  0  0  0
   29.7865   10.6489   35.4796 N   0  0  0  0  0  0  0  0  0  0  0  0
   21.4941    9.3607   31.3031 O   0  0  0  0  0  0  0  0  0  0  0  0
   20.2241    9.0166   31.4803 P   0  0  0  0  0  0  0  0  0  0  0  0
   19.7454    9.5659   32.5430 O   0  0  0  0  0  0  0  0  0  0  0  0
   28.7224   11.7378   35.6564 C   0  0  0  0  0  3  0  0  0  0  0  0
   26.9658   12.6509   35.8468 N   0  0  0  0  0  0  0  0  0  0  0  0
   17.3387    7.9681   26.2903 C   0  0  0  0  0  0  0  0  0  0  0  0
   23.2212    8.8100   33.9076 C   0  0  2  0  0  0  0  0  0  0  0  0
   27.9480    9.0020   34.7413 N   0  0  0  0  0  0  0  0  0  0  0  0
   18.6665    8.9692   29.0886 C   0  0  1  0  0  0  0  0  0  0  0  0
   23.1724    7.3993   34.9534 O   0  0  0  0  0  0  0  0  0  0  0  0
   17.5530    9.3171   28.3591 C   0  0  0  0  0  0  0  0  0  0  0  0
   19.8117    8.0269   30.8193 O   0  0  0  0  0  0  0  0  0  0  0  0
   23.1954    9.4029   32.4628 C   0  0  2  0  0  0  0  0  0  0  0  0
   27.4632   10.7539   35.1382 C   0  0  0  0  0  0  0  0  0  0  0  0
   16.3025    8.0335   25.6710 O   0  0  0  0  0  0  0  0  0  0  0  0
   22.0246    9.0181   29.7454 C   0  0  1  0  0  0  0  0  0  0  0  0
  4  1  1  0
  7  6  1  0
  8  2  1  0
  1  9  1  1
  9  5  1  0
 10  1  1  0
  4 11  1  1
 12  7  1  0
 13  2  2  0
 15 14  1  0
 16 15  1  0
 17 13  1  0
 18  5  2  3
  3 19  1  6
 20  4  1  0
 21  2  1  0
 22  3  1  0
 20 23  1  6
 24  3  1  0
 24 22  1  0
 25 15  1  0
 22 25  1  1
 26 10  1  6
 26 20  1  0
 27  5  1  0
 27  9  1  0
 27 17  1  0
 27 21  1  0
 28 19  2  0
 29  6  1  1
 29 14  1  0
 29 26  1  0
M  RAD  1  17   2
M  END
>  <ID>  (1) 
conformer_0

$$$$
