
     RDKit          3D

 34 35  0  0  0  0  0  0  0  0999 V2000
   24.9900    9.5822   34.7531 C   0  0  2  0  0  0  0  0  0  0  0  0
   29.2148    9.5565   35.0552 C   0  0  0  0  0  0  0  0  0  0  0  0
   17.7125    8.3861   27.4762 C   0  0  0  0  0  0  0  0  0  0  0  0
   22.1868    8.8353   28.5151 C   0  0  0  0  0  0  0  0  0  0  0  0
   23.5064    9.7303   35.2484 C   0  0  2  0  0  0  0  0  0  0  0  0
   26.2116   11.8288   35.6078 C   0  0  0  0  0  0  0  0  0  0  0  0
   26.0997   10.6415   35.0175 N   0  0  0  0  0  0  0  0  0  0  0  0
   18.7608    9.3584   28.5906 C   0  0  0  0  0  0  0  0  0  0  0  0
   30.1367    8.2021   34.8004 N   0  0  0  0  0  0  0  0  0  0  0  0
   24.5872    9.9997   33.5763 O   0  0  0  0  0  0  0  0  0  0  0  0
   16.4853    7.6947   26.6830 C   0  0  0  0  0  0  0  0  0  0  0  0
   30.1133   10.4761   35.5677 N   0  0  0  0  0  0  0  0  0  0  0  0
   23.7541    8.9369   36.4826 O   0  0  0  0  0  0  0  0  0  0  0  0
   20.5821    9.3995   31.7117 P   0  0  0  0  0  0  0  0  0  0  0  0
   27.1417   12.4019   35.7837 N   0  0  0  0  0  0  0  0  0  0  0  0
   20.3440    9.5140   30.1008 O   0  0  0  0  0  0  0  0  0  0  0  0
   21.2733    7.6628   25.9968 O   0  0  0  0  0  0  0  0  0  0  0  0
   23.1393    7.3202   34.8260 O   0  0  0  0  0  0  0  0  0  0  0  0
   28.8976   11.5997   35.6724 C   0  0  0  0  0  3  0  0  0  0  0  0
   19.7927    9.4900   32.6229 O   0  0  0  0  0  0  0  0  0  0  0  0
   17.5496   10.0132   28.5210 C   0  0  0  0  0  0  0  0  0  0  0  0
   17.6905    5.9276   26.0816 O   0  0  0  0  0  0  0  0  0  0  0  0
   23.1710    8.7171   34.1448 C   0  0  2  0  0  0  0  0  0  0  0  0
   21.8978    9.3306   29.5953 C   0  0  1  0  0  0  0  0  0  0  0  0
   18.6118    7.5349   26.6390 C   0  0  2  0  0  0  0  0  0  0  0  0
   28.1950    9.0825   34.6849 N   0  0  0  0  0  0  0  0  0  0  0  0
   21.8845    9.5487   31.9179 O   0  0  0  0  0  0  0  0  0  0  0  0
   15.9600    7.2937   26.0674 O   0  0  0  0  0  0  0  0  0  0  0  0
   27.5860   10.7059   35.1570 C   0  0  0  0  0  0  0  0  0  0  0  0
   29.6501   12.7798   36.3145 N   0  0  0  0  0  0  0  0  0  0  0  0
   20.3217    8.1976   27.6108 C   0  0  0  0  0  0  0  0  0  0  0  0
   20.3957    7.7154   31.0876 O   0  0  0  0  0  0  0  0  0  0  0  0
   23.0831    9.2639   32.6197 C   0  0  0  0  0  0  0  0  0  0  0  0
   21.0880    8.1817   27.0876 C   0  0  0  0  0  0  0  0  0  0  0  0
  5  1  1  0
  7  1  1  0
  7  6  1  0
  8  3  1  0
  9  2  1  0
  1 10  1  6
 11  3  2  0
 12  2  2  0
  5 13  1  1
 15  6  2  3
 16 14  1  0
 19 12  1  0
 20 14  1  0
 21  8  1  0
 23  5  1  0
 23 18  1  6
 24  4  1  0
 24 16  1  0
 25  3  1  0
 25 22  1  1
 26  2  1  0
 27 14  1  0
 28 11  2  0
 29  6  1  0
 29  7  1  0
 29 19  1  0
 29 26  1  0
 30 19  1  0
 31 25  1  0
 24 32  1  1
 33 23  1  0
 33 27  1  0
 34  4  1  0
 34 17  2  0
 34 31  1  0
M  RAD  1  19   2
M  END
>  <ID>  (1) 
conformer_0

$$$$
