
     RDKit          3D

 32 33  0  0  0  0  0  0  0  0999 V2000
   25.0288    9.5996   34.7799 C   0  0  2  0  0  0  0  0  0  0  0  0
   29.4101    9.6960   35.0024 C   0  0  0  0  0  0  0  0  0  0  0  0
   20.4947    8.5391   27.8742 C   0  0  1  0  0  0  0  0  0  0  0  0
   23.2738    8.9707   34.2339 C   0  0  1  0  0  0  0  0  0  0  0  0
   17.7428    9.4582   28.4943 C   0  0  1  0  0  0  0  0  0  0  0  0
   26.4226   11.8144   35.3852 C   0  0  0  0  0  0  0  0  0  0  0  0
   16.6343    8.3905   27.0842 C   0  0  0  0  0  0  0  0  0  0  0  0
   30.4328    8.0025   34.8349 N   0  0  0  0  0  0  0  0  0  0  0  0
   26.1360   10.7089   34.8996 N   0  0  0  0  0  0  0  0  0  0  0  0
   21.5234    7.2994   25.5828 O   0  0  0  0  0  0  0  0  0  0  0  0
   23.9468    8.9987   36.5147 O   0  0  0  0  0  0  0  0  0  0  0  0
   20.8925    8.0179   26.6083 C   0  0  0  0  0  0  0  0  0  0  0  0
   30.1037   10.6165   35.5063 N   0  0  0  0  0  0  0  0  0  0  0  0
   27.1856   12.3650   35.6963 N   0  0  0  0  0  0  0  0  0  0  0  0
   24.6910    9.9147   33.5604 O   0  0  0  0  0  0  0  0  0  0  0  0
   23.1007    9.1160   32.7419 C   0  0  0  0  0  0  0  0  0  0  0  0
   20.2876    8.9473   30.4775 O   0  0  0  0  0  0  0  0  0  0  0  0
   20.3424    9.1651   31.4801 P   0  0  0  0  0  0  0  0  0  0  0  0
   23.0799    7.4523   34.9832 O   0  0  0  0  0  0  0  0  0  0  0  0
   15.7293    8.1055   27.1282 O   0  0  0  0  0  0  0  0  0  0  0  0
   28.9260   11.6842   35.6148 C   0  0  0  0  0  0  0  0  0  0  0  0
   18.8264    9.5125   29.2712 C   0  0  2  0  0  0  0  0  0  0  0  0
   20.1890   10.5963   32.1331 O   0  0  0  0  0  0  0  0  0  0  0  0
   17.3834    7.0564   26.2337 O   0  0  0  0  0  0  0  0  0  0  0  0
   18.7392   10.2774   26.2629 O   0  0  0  0  0  0  0  0  0  0  0  0
   19.6690    8.1674   32.4623 O   0  0  0  0  0  0  0  0  0  0  0  0
   21.8419    9.2095   32.1220 O   0  0  0  0  0  0  0  0  0  0  0  0
   22.0937    8.5824   28.2024 C   0  0  0  0  0  0  0  0  0  0  0  0
   27.7165   10.7954   34.9407 C   0  0  0  0  0  0  0  0  0  0  0  0
   18.9274    9.0692   27.0493 C   0  0  1  0  0  0  0  0  0  0  0  0
   23.6251    9.8656   35.2436 C   0  0  1  0  0  0  0  0  0  0  0  0
   28.8934    9.2285   34.8371 N   0  0  0  0  0  0  0  0  0  0  0  0
  5  7  1  1
  8  2  2  3
  1  9  1  1
  9  6  1  0
 12  3  1  0
 12 10  1  0
 13  2  1  0
 14  6  1  0
 15  1  1  0
 15  4  1  0
 16  4  1  0
 18 17  1  0
  4 19  1  1
 20  7  2  0
 21 13  1  0
 21 14  2  0
 22  5  1  0
 22 17  1  0
 23 18  1  0
 24  7  1  0
 22 26  1  1
 27 16  1  0
 27 18  1  0
  3 28  1  6
 29  9  1  0
 29 21  1  0
 30  3  1  0
 30  5  1  0
 30 25  1  1
 31  1  1  0
 31  4  1  0
 31 11  1  1
 32  2  1  0
M  END
>  <ID>  (1) 
conformer_0

$$$$
