
     RDKit          3D

 33 37  0  0  0  0  0  0  0  0999 V2000
   23.6151    9.6182   35.2348 C   0  0  0  0  0  0  0  0  0  0  0  0
   28.9804   11.5411   35.6692 C   0  0  0  0  0  0  0  0  0  0  0  0
   17.4264    8.9321   27.6837 C   0  0  0  0  0  0  0  0  0  0  0  0
   20.2166    8.1507   27.2874 C   0  0  0  0  0  0  0  0  0  0  0  0
   22.9419    8.8746   33.9987 C   0  0  0  0  0  0  0  0  0  0  0  0
   26.3137   11.9923   35.5144 C   0  0  0  0  0  0  0  0  0  0  0  0
   18.4181    8.9600   28.1743 C   0  0  0  0  0  0  0  0  0  0  0  0
   26.2038   10.7540   34.9339 N   0  0  0  0  0  0  0  0  0  0  0  0
   30.3434    8.3823   34.8609 N   0  0  0  0  0  0  0  0  0  0  0  0
   24.6973    9.8653   33.3794 O   0  0  0  0  0  0  0  0  0  0  0  0
   24.0081    9.1154   36.4925 O   0  0  0  0  0  0  0  0  0  0  0  0
   16.7084    8.0991   26.7000 C   0  0  0  0  0  0  0  0  0  0  0  0
   21.5301    7.1973   25.2416 O   0  0  0  0  0  0  0  0  0  0  0  0
   19.9174   10.1789   32.3048 O   0  0  0  0  0  0  0  0  0  0  0  0
   23.0758    7.4286   34.9306 O   0  0  0  0  0  0  0  0  0  0  0  0
   19.0322    7.8166   31.8463 O   0  0  0  0  0  0  0  0  0  0  0  0
   27.3367   12.5168   35.7970 N   0  0  0  0  0  0  0  0  0  0  0  0
   20.0580    8.9592   31.7208 P   0  0  0  0  0  0  0  0  0  0  0  0
   22.9823    9.1562   32.4224 C   0  0  0  0  0  0  0  0  0  0  0  0
   21.6946    8.5537   27.9569 C   0  0  0  0  0  0  0  0  0  0  0  0
   30.0422   10.8192   35.6993 N   0  0  0  0  0  0  0  0  0  0  0  0
   29.4166    9.5932   35.0984 C   0  0  0  0  0  0  0  0  0  0  0  0
   20.6402    7.7683   26.2621 C   0  0  0  0  0  0  0  0  0  0  0  0
   16.2178    7.8213   26.0636 O   0  0  0  0  0  0  0  0  0  0  0  0
   16.9034    9.8771   28.6679 C   0  0  0  0  0  0  0  0  0  0  0  0
   21.3744    8.6764   32.1306 O   0  0  0  0  0  0  0  0  0  0  0  0
   29.9189   12.4016   35.8478 O   0  0  0  0  0  0  0  0  0  0  0  0
   20.4988    9.0016   28.9331 C   0  0  0  0  0  0  0  0  0  0  0  0
   20.0878    8.7603   30.2645 O   0  0  0  0  0  0  0  0  0  0  0  0
   15.5572    7.3445   27.1307 O   0  0  0  0  0  0  0  0  0  0  0  0
   28.5458    9.4629   34.8955 N   0  0  0  0  0  0  0  0  0  0  0  0
   25.0000    9.7790   34.6956 C   0  0  0  0  0  0  0  0  0  0  0  0
   27.5631   10.8378   35.1394 C   0  0  0  0  0  0  0  0  0  0  0  0
  5  1  1  0
  7  3  1  0
  7  4  1  0
  8  6  1  0
 11  1  1  0
 12  3  1  0
 15  5  1  0
 17  2  1  0
 17  6  2  0
 18 14  1  0
 19  5  1  0
 20  4  1  0
 21  2  1  0
 22  9  1  0
 22 21  1  0
 23  4  1  0
 23 13  1  0
 24 12  2  0
 25  3  1  0
 26 18  1  0
 26 19  1  0
 27  2  1  0
 27 21  1  0
 28  4  1  0
 28 16  1  0
 28 20  1  0
 29 18  1  0
 29 28  1  0
 30 12  1  0
 31 22  1  0
 32  1  1  0
 32  8  1  0
 32 10  1  0
 33  2  1  0
 33  6  1  0
 33  8  1  0
 33 31  1  0
M  END
>  <ID>  (1) 
conformer_0

$$$$
