
     RDKit          3D

 28 31  0  0  0  0  0  0  0  0999 V2000
   29.2369    9.9562   35.0839 C   0  0  0  0  0  0  0  0  0  0  0  0
   24.5163    9.4779   34.6952 C   0  0  0  0  0  0  0  0  0  0  0  0
   17.9551    8.7141   28.1773 C   0  0  0  0  0  0  0  0  0  0  0  0
   21.0602    8.5178   28.3417 C   0  0  0  0  0  0  0  0  0  0  0  0
   26.4268   11.8131   35.3950 C   0  0  0  0  0  0  0  0  0  0  0  0
   23.1763    9.1540   34.4719 C   0  0  0  0  0  0  0  0  0  0  0  0
   16.4128    7.8881   26.7223 C   0  0  0  0  0  0  0  0  0  0  0  0
   30.0799    8.5537   34.9793 N   0  0  0  0  0  0  0  0  0  0  0  0
   26.0342   10.5167   34.7028 N   0  0  0  0  0  0  0  0  0  0  0  0
   19.2200    9.3391   28.9218 C   0  0  0  0  0  0  0  0  0  0  0  0
   23.8873    9.0110   36.4883 O   0  0  0  0  0  0  0  0  0  0  0  0
   20.5920    7.2478   25.8653 O   0  0  0  0  0  0  0  0  0  0  0  0
   29.7738   11.1320   35.5850 N   0  0  0  0  0  0  0  0  0  0  0  0
   24.5365    9.8318   33.3040 O   0  0  0  0  0  0  0  0  0  0  0  0
   15.4834    8.3468   26.6595 O   0  0  0  0  0  0  0  0  0  0  0  0
   21.5666    9.0348   31.9156 O   0  0  0  0  0  0  0  0  0  0  0  0
   20.2494    9.0746   31.6224 P   0  0  0  0  0  0  0  0  0  0  0  0
   18.5077    7.5616   26.6054 C   0  0  0  0  0  0  0  0  0  0  0  0
   27.1577   12.4263   35.7987 N   0  0  0  0  0  0  0  0  0  0  0  0
   28.7047   11.8034   35.6503 C   0  0  0  0  0  0  0  0  0  0  0  0
   23.0166    9.2522   32.7068 C   0  0  0  0  0  0  0  0  0  0  0  0
   22.8607    7.5470   34.9574 O   0  0  0  0  0  0  0  0  0  0  0  0
   27.9941    9.0425   34.7418 N   0  0  0  0  0  0  0  0  0  0  0  0
   19.9822   10.2729   32.2328 O   0  0  0  0  0  0  0  0  0  0  0  0
   19.3932    7.9674   31.9488 O   0  0  0  0  0  0  0  0  0  0  0  0
   19.9077    9.6102   30.1054 O   0  0  0  0  0  0  0  0  0  0  0  0
   27.3656   10.5379   34.8856 C   0  0  0  0  0  0  0  0  0  0  0  0
   20.8853    7.9823   27.0447 C   0  0  0  0  0  0  0  0  0  0  0  0
  6  2  1  0
  8  1  1  0
  9  2  1  0
  9  5  1  0
 10  3  1  0
 10  4  1  0
 11  2  1  0
 13  1  1  0
 14  2  1  0
 15  7  1  0
 17 16  1  0
 18  3  1  0
 18  7  1  0
 19  5  2  0
 20 13  1  0
 20 19  1  0
 21  6  1  0
 21 14  1  0
 21 16  1  0
 22  6  1  0
 23  1  1  0
 24 17  1  0
 25 10  1  0
 25 17  1  0
 26 10  1  0
 27  1  1  0
 27  5  1  0
 27  9  1  0
 27 23  1  0
 28  4  1  0
 28 12  1  0
M  END
>  <ID>  (1) 
conformer_0

$$$$
