
     RDKit          3D

 30 32  0  0  0  0  0  0  0  0999 V2000
   28.7681   11.5650   35.6549 C   0  0  0  0  0  3  0  0  0  0  0  0
   24.2637    9.6769   34.9377 C   0  0  1  0  0  0  0  0  0  0  0  0
   18.0113    8.2106   27.6946 C   0  0  0  0  0  0  0  0  0  0  0  0
   22.4836    8.8807   28.8115 C   0  0  0  0  0  0  0  0  0  0  0  0
   25.8790   10.5392   34.9668 N   0  0  0  0  0  0  0  0  0  0  0  0
   26.4348   11.7771   35.6020 C   0  0  0  0  0  0  0  0  0  0  0  0
   23.1680    9.1335   34.4676 C   0  0  1  0  0  0  0  0  0  0  0  0
   18.9902    9.4628   28.6865 C   0  0  0  0  0  0  0  0  0  0  0  0
   17.0249    7.4287   26.7846 C   0  0  0  0  0  0  0  0  0  0  0  0
   30.0559    8.3837   34.9405 N   0  0  0  0  0  0  0  0  0  0  0  0
   20.6567    7.2092   25.8550 O   0  0  0  0  0  0  0  0  0  0  0  0
   23.8152    8.9941   36.4596 O   0  0  0  0  0  0  0  0  0  0  0  0
   15.5238    7.1981   26.8341 O   0  0  0  0  0  0  0  0  0  0  0  0
   21.7055    9.7721   31.4652 O   0  0  0  0  0  0  0  0  0  0  0  0
   19.9087    9.8962   32.6418 O   0  0  0  0  0  0  0  0  0  0  0  0
   24.1678    9.9990   33.4184 O   0  0  0  0  0  0  0  0  0  0  0  0
   20.6224    9.4287   31.6171 P   0  0  0  0  0  0  0  0  0  0  0  0
   26.9839   12.4054   35.8323 N   0  0  0  0  0  0  0  0  0  0  0  0
   29.9309   10.3679   35.5017 N   0  0  0  0  0  0  0  0  0  0  0  0
   20.1993    8.0523   26.9265 C   0  0  0  0  0  0  0  0  0  0  0  0
   29.1886    9.6861   35.0612 C   0  0  0  0  0  0  0  0  0  0  0  0
   21.5206    9.5134   29.3636 C   0  0  2  0  0  0  0  0  0  0  0  0
   23.0969    9.0452   32.7012 C   0  0  1  0  0  0  0  0  0  0  0  0
   17.6480    9.7540   28.5092 C   0  0  0  0  0  0  0  0  0  0  0  0
   23.0906    7.5244   34.9086 O   0  0  0  0  0  0  0  0  0  0  0  0
   20.1515    8.1112   31.0525 O   0  0  0  0  0  0  0  0  0  0  0  0
   17.3672    6.4574   25.8475 O   0  0  0  0  0  0  0  0  0  0  0  0
   27.9868    9.1458   34.6810 N   0  0  0  0  0  0  0  0  0  0  0  0
   27.3027   10.5008   35.0042 C   0  0  1  0  0  0  0  0  0  0  0  0
   20.8118    8.5396   27.9165 C   0  0  1  0  0  0  0  0  0  0  0  0
  5  2  1  0
  6  5  1  0
  7  2  1  0
  9  3  1  0
  2 12  1  1
 13  9  2  0
 16  2  1  0
 17 14  1  0
 17 15  1  0
 18  6  2  3
 19  1  1  0
 20 11  1  0
 21 10  1  0
 21 19  2  0
 22  4  1  1
 23  7  1  0
 23 14  1  6
 23 16  1  0
 24  3  1  0
 24  8  1  0
  7 25  1  1
 26 17  1  0
 26 22  1  0
 27  9  1  0
 28 21  1  0
 29  1  1  1
 29  5  1  0
 29  6  1  0
 29 28  1  0
 30  8  1  1
 30 20  1  0
 30 22  1  0
M  RAD  1   1   2
M  END
>  <ID>  (1) 
conformer_0

$$$$
