
     RDKit          3D

 35 38  0  0  0  0  0  0  0  0999 V2000
   25.3055    9.7763   34.4619 C   0  0  0  0  0  0  0  0  0  0  0  0
   29.3402    9.0993   34.9126 C   0  0  0  0  0  0  0  0  0  0  0  0
   17.0460   10.0410   28.1787 C   0  0  0  0  0  0  0  0  0  0  0  0
   20.2035    8.4812   27.8160 C   0  0  0  0  0  0  0  0  0  0  0  0
   24.0610   10.0102   35.3071 C   0  0  0  0  0  0  0  0  0  0  0  0
   26.1658   12.0199   35.5350 C   0  0  0  0  0  0  0  0  0  0  0  0
   30.0952    8.5752   34.9650 N   0  0  0  0  0  0  0  0  0  0  0  0
   18.6105    8.0215   26.2927 C   0  0  0  0  0  0  0  0  0  0  0  0
   24.6196   10.2262   33.5121 O   0  0  0  0  0  0  0  0  0  0  0  0
   26.1261   10.7236   34.8939 N   0  0  0  0  0  0  0  0  0  0  0  0
   23.8465    8.9956   36.4511 O   0  0  0  0  0  0  0  0  0  0  0  0
   23.2773    8.8988   34.8631 C   0  0  0  0  0  0  0  0  0  0  0  0
   27.4990   12.3388   35.7544 N   0  0  0  0  0  0  0  0  0  0  0  0
   20.3706    9.3508   31.3913 P   0  0  0  0  0  0  0  0  0  0  0  0
   16.5644    8.0407   26.4234 C   0  0  0  0  0  0  0  0  0  0  0  0
   15.7683    7.3673   26.3750 O   0  0  0  0  0  0  0  0  0  0  0  0
   27.8743    9.0421   34.6725 N   0  0  0  0  0  0  0  0  0  0  0  0
   19.8047    7.9706   31.9655 O   0  0  0  0  0  0  0  0  0  0  0  0
   23.3754    7.3093   34.7874 O   0  0  0  0  0  0  0  0  0  0  0  0
   19.8184   10.2330   32.2467 O   0  0  0  0  0  0  0  0  0  0  0  0
   29.4227   11.0193   35.5131 C   0  0  0  0  0  0  0  0  0  0  0  0
   29.9622   10.8296   35.4544 N   0  0  0  0  0  0  0  0  0  0  0  0
   20.1211    7.2285   25.7959 O   0  0  0  0  0  0  0  0  0  0  0  0
   21.7550    9.1177   32.0889 O   0  0  0  0  0  0  0  0  0  0  0  0
   18.6674    9.6547   28.3063 C   0  0  0  0  0  0  0  0  0  0  0  0
   21.8353    8.7196   28.7122 C   0  0  0  0  0  0  0  0  0  0  0  0
   17.6456    6.4638   25.7652 O   0  0  0  0  0  0  0  0  0  0  0  0
   17.3693    8.7497   27.3784 C   0  0  0  0  0  0  0  0  0  0  0  0
   27.4871    9.9732   34.7744 C   0  0  0  0  0  0  0  0  0  0  0  0
   23.3265    9.8687   32.4542 C   0  0  0  0  0  0  0  0  0  0  0  0
   23.0733    8.8220   33.2067 C   0  0  0  0  0  0  0  0  0  0  0  0
   20.9752   10.2724   30.3821 O   0  0  0  0  0  0  0  0  0  0  0  0
   20.7032    8.0424   26.8427 C   0  0  0  0  0  0  0  0  0  0  0  0
   22.0817    9.4067   29.9909 C   0  0  0  0  0  0  0  0  0  0  0  0
   27.8853   11.5126   35.3473 C   0  0  0  0  0  0  0  0  0  0  0  0
  5  1  1  0
  7  2  1  0
  9  1  1  0
 10  1  1  0
 10  6  1  0
 11  5  1  0
 12  5  1  0
 13  6  2  0
 16 15  2  0
 17  2  1  0
 19 12  1  0
 20 14  1  0
 22  2  2  0
 22 21  1  0
 23  8  1  0
 24 14  1  0
 25  3  1  0
 26  4  1  0
 27  8  1  0
 28  3  1  0
 28  8  1  0
 28 15  1  0
 28 25  1  0
 29 10  1  0
 29 17  1  0
 30  9  1  0
 31 12  1  0
 31 24  1  0
 31 30  1  0
 32 14  1  0
 33  4  1  0
 33 23  1  0
 34 18  1  0
 34 26  1  0
 34 32  1  0
 35 13  1  0
 35 21  1  0
 35 29  2  0
M  END
>  <ID>  (1) 
conformer_0

$$$$
