
     RDKit          3D

 34 37  0  0  0  0  0  0  0  0999 V2000
   29.0850    9.6213   35.0885 C   0  0  0  0  0  0  0  0  0  0  0  0
   24.9489    9.6967   34.5621 C   0  0  2  0  0  0  0  0  0  0  0  0
   17.3636    8.8066   27.4201 C   0  0  2  0  0  0  0  0  0  0  0  0
   22.8814    8.7330   28.1323 C   0  0  2  0  0  0  0  0  0  0  0  0
   23.0780    8.9648   34.0480 C   0  0  2  0  0  0  0  0  0  0  0  0
   19.1946    8.2435   27.1415 C   0  0  0  0  0  0  0  0  0  0  0  0
   26.0634   10.6067   34.9171 N   0  0  0  0  0  0  0  0  0  0  0  0
   26.4563   12.0036   35.6004 C   0  0  0  0  0  0  0  0  0  0  0  0
   16.9159    7.8917   26.8641 C   0  0  0  0  0  0  0  0  0  0  0  0
   21.4486    7.4735   25.8998 O   0  0  0  0  0  0  0  0  0  0  0  0
   30.0873    8.4981   34.8826 N   0  0  0  0  0  0  0  0  0  0  0  0
   29.8608   10.7373   35.6424 N   0  0  0  0  0  0  0  0  0  0  0  0
   23.2593    7.4294   34.7503 O   0  0  0  0  0  0  0  0  0  0  0  0
   24.7819    9.7960   33.4559 O   0  0  0  0  0  0  0  0  0  0  0  0
   26.9549   12.5404   35.8526 N   0  0  0  0  0  0  0  0  0  0  0  0
   15.9316    7.4433   26.8930 O   0  0  0  0  0  0  0  0  0  0  0  0
   20.5901    9.3733   31.8236 P   0  0  0  0  0  0  0  0  0  0  0  0
   20.7484    8.8707   30.3510 O   0  0  0  0  0  0  0  0  0  0  0  0
   19.9815   10.3166   32.3332 O   0  0  0  0  0  0  0  0  0  0  0  0
   24.0397    8.9647   36.3920 O   0  0  0  0  0  0  0  0  0  0  0  0
   28.6766   11.6537   35.7173 C   0  0  0  0  0  0  0  0  0  0  0  0
   17.2109   10.1874   28.6859 C   0  0  0  0  0  0  0  0  0  0  0  0
   23.1853    9.2004   32.5149 C   0  0  0  0  0  0  0  0  0  0  0  0
   21.7305    8.1451   26.8399 C   0  0  0  0  0  0  0  0  0  0  0  0
   17.8155    6.5094   26.7519 O   0  0  0  0  0  0  0  0  0  0  0  0
   28.0086    8.9339   34.7343 N   0  0  0  0  0  0  0  0  0  0  0  0
   21.5911    8.8824   29.4220 C   0  0  0  0  0  0  0  0  0  0  0  0
   27.3550   10.5008   35.1209 C   0  0  0  0  0  0  0  0  0  0  0  0
   20.0184    7.8593   32.1509 O   0  0  0  0  0  0  0  0  0  0  0  0
   21.9129    9.3334   32.1385 O   0  0  0  0  0  0  0  0  0  0  0  0
   23.5636    9.9055   35.2090 C   0  0  1  0  0  0  0  0  0  0  0  0
   19.4174    9.5546   28.6567 C   0  0  0  0  0  0  0  0  0  0  0  0
   18.3569    9.1704   29.0165 C   0  0  2  0  0  0  0  0  0  0  0  0
   21.1278    8.4603   28.1215 C   0  0  1  0  0  0  0  0  0  0  0  0
  3  6  1  1
  7  2  1  0
  8  7  1  0
  9  3  1  0
 11  1  1  0
 12  1  2  0
  5 13  1  6
  2 14  1  6
 15  8  2  3
 16  9  2  0
 18 17  1  0
 19 17  1  0
 21 12  1  0
 22  3  1  0
 23  5  1  0
 24  4  1  0
 24 10  2  0
 25  9  1  0
 26  1  1  0
  4 27  1  1
 27 18  1  0
 28  7  1  0
 28 21  2  0
 28 26  1  0
 29 27  1  0
 30 17  1  0
 30 23  1  0
 31  2  1  0
 31  5  1  0
 31 20  1  1
 33  3  1  0
 33 22  1  0
 33 32  1  6
 34  4  1  0
 34 24  1  0
 34 27  1  0
 34 32  1  6
M  END
>  <ID>  (1) 
conformer_0

$$$$
