
     RDKit          3D

 30 29  0  0  0  0  0  0  0  0999 V2000
   17.6565    8.9539   27.6454 C   0  0  0  0  0  0  0  0  0  0  0  0
   29.0382    9.7330   35.0901 C   0  0  0  0  0  0  0  0  0  0  0  0
   24.6261    9.6711   34.8312 C   0  0  0  0  0  0  0  0  0  0  0  0
   20.4754    8.4153   27.8428 C   0  0  1  0  0  0  0  0  0  0  0  0
   23.6242    9.1647   34.5106 C   0  0  1  0  0  0  0  0  0  0  0  0
   26.5862   12.0231   35.6272 C   0  0  0  0  0  0  0  0  0  0  0  0
   30.0472   10.7694   35.6224 N   0  0  0  0  0  0  0  0  0  0  0  0
   26.3108   10.5801   34.8838 N   0  0  0  0  0  0  0  0  0  0  0  0
   24.8987    9.7425   33.3989 O   0  0  0  0  0  0  0  0  0  0  0  0
   30.2290    8.2778   34.9801 N   0  0  0  0  0  0  0  0  0  0  0  0
   19.4893    9.3551   28.4836 C   0  0  1  0  0  0  0  0  0  0  0  0
   27.0295   12.5174   35.8837 N   0  0  0  0  0  0  0  0  0  0  0  0
   23.8864    9.1193   36.4496 O   0  0  0  0  0  0  0  0  0  0  0  0
   17.1706    8.0753   26.7198 C   0  0  0  0  0  0  0  0  0  0  0  0
   21.4506    7.3084   25.6090 O   0  0  0  0  0  0  0  0  0  0  0  0
   28.8454   11.8430   35.7818 C   0  0  0  0  0  0  0  0  0  0  0  0
   20.0266   10.1244   32.9667 O   0  0  0  0  0  0  0  0  0  0  0  0
   20.2840    9.0278   31.8504 P   0  0  0  0  0  0  0  0  0  0  0  0
   20.1515    9.6719   30.6570 O   0  0  0  0  0  0  0  0  0  0  0  0
   15.7783    7.7114   26.6619 O   0  0  0  0  0  0  0  0  0  0  0  0
   23.2471    8.9871   32.8556 C   0  0  0  0  0  0  0  0  0  0  0  0
   23.2852    7.4075   34.7079 O   0  0  0  0  0  0  0  0  0  0  0  0
   17.8083    9.4549   28.6833 C   0  0  0  0  0  0  0  0  0  0  0  0
   20.6421    8.1496   26.6490 C   0  0  0  0  0  0  0  0  0  0  0  0
   19.4406    7.6834   31.5520 O   0  0  0  0  0  0  0  0  0  0  0  0
   21.5945    8.8788   32.1612 O   0  0  0  0  0  0  0  0  0  0  0  0
   19.3654    8.5666   26.3286 N   0  0  0  0  0  0  0  0  0  0  0  0
   28.3272    9.0092   34.7791 N   0  0  0  0  0  0  0  0  0  0  0  0
   27.5230   10.6028   35.0293 C   0  0  0  0  0  0  0  0  0  0  0  0
   22.2253    8.4890   28.1809 C   0  0  0  0  0  0  0  0  0  0  0  0
  5  3  1  0
  7  2  1  0
  8  3  1  0
  8  6  1  0
  9  3  1  0
 10  2  1  0
 11  4  1  0
 12  6  2  3
 13  3  1  0
 14  1  1  0
 16  7  1  0
 18 17  1  0
 19 11  1  0
 19 18  1  0
 20 14  1  0
 21  5  1  0
  5 22  1  6
 23  1  1  0
 23 11  1  0
 24  4  1  0
 24 15  2  0
 11 25  1  6
 26 18  1  0
 26 21  1  0
 27 24  1  0
 28  2  1  0
 29  2  1  0
 29  8  1  0
  4 30  1  6
M  END
>  <ID>  (1) 
conformer_0

$$$$
