
     RDKit          3D

 29 32  0  0  0  0  0  0  0  0999 V2000
   29.2191    9.8132   35.1431 C   0  0  0  0  0  0  0  0  0  0  0  0
   24.7980    9.7239   34.9553 C   0  0  0  0  0  0  0  0  0  0  0  0
   17.3295    8.8168   27.4549 C   0  0  0  0  0  0  0  0  0  0  0  0
   22.5756    8.7537   28.5762 C   0  0  0  0  0  0  0  0  0  0  0  0
   23.5402    9.2753   34.7607 C   0  0  0  0  0  0  0  0  0  0  0  0
   30.3100    8.3225   34.9008 N   0  0  0  0  0  0  0  0  0  0  0  0
   27.7504   10.8567   35.2177 C   0  0  0  0  0  0  0  0  0  0  0  0
   26.2804   10.6223   35.0271 N   0  0  0  0  0  0  0  0  0  0  0  0
   18.8844    9.4139   28.5176 C   0  0  0  0  0  0  0  0  0  0  0  0
   21.4812    7.3324   25.8067 O   0  0  0  0  0  0  0  0  0  0  0  0
   24.0012    8.9862   36.5471 O   0  0  0  0  0  0  0  0  0  0  0  0
   24.7494   10.0299   33.5663 O   0  0  0  0  0  0  0  0  0  0  0  0
   30.0765   10.6669   35.5856 N   0  0  0  0  0  0  0  0  0  0  0  0
   19.9497   10.3503   32.4560 O   0  0  0  0  0  0  0  0  0  0  0  0
   29.0643   11.8748   35.8432 C   0  0  0  0  0  0  0  0  0  0  0  0
   27.2961   12.5422   35.8578 N   0  0  0  0  0  0  0  0  0  0  0  0
   21.3422    9.1757   31.3651 O   0  0  0  0  0  0  0  0  0  0  0  0
   17.2687    7.6990   26.8898 C   0  0  0  0  0  0  0  0  0  0  0  0
   23.5262    7.4071   34.6850 O   0  0  0  0  0  0  0  0  0  0  0  0
   20.6644    8.0700   26.7132 C   0  0  0  0  0  0  0  0  0  0  0  0
   20.2726    9.2171   31.7902 P   0  0  0  0  0  0  0  0  0  0  0  0
   23.2024    9.0873   33.0307 C   0  0  0  0  0  0  0  0  0  0  0  0
   17.6970    6.6921   26.0896 O   0  0  0  0  0  0  0  0  0  0  0  0
   17.5974    9.3783   28.4518 C   0  0  0  0  0  0  0  0  0  0  0  0
   19.5848    8.0318   31.6516 O   0  0  0  0  0  0  0  0  0  0  0  0
   21.3958    8.9307   29.4021 C   0  0  0  0  0  0  0  0  0  0  0  0
   20.8525    8.4695   28.0348 C   0  0  0  0  0  0  0  0  0  0  0  0
   26.4125   11.9726   35.6701 C   0  0  0  0  0  0  0  0  0  0  0  0
   28.4551    8.8736   34.8548 N   0  0  0  0  0  0  0  0  0  0  0  0
  5  2  1  0
  6  1  1  0
  7  1  1  0
  8  2  1  0
  8  7  1  0
 11  5  1  0
 12  2  1  0
 13  1  1  0
 15  7  1  0
 15 13  2  0
 16 15  1  0
 18  3  1  0
 19  5  1  0
 20 10  1  0
 21 14  1  0
 21 17  1  0
 22  5  1  0
 22 21  1  0
 23 18  1  0
 24  3  1  0
 24  9  1  0
 26  4  1  0
 26 17  1  0
 26 25  1  0
 27  4  1  0
 27  9  1  0
 27 20  1  0
 27 26  1  0
 28  7  1  0
 28  8  1  0
 28 16  1  0
 29  1  1  0
M  END
>  <ID>  (1) 
conformer_0

$$$$
