
     RDKit          3D

 37 38  0  0  0  0  0  0  0  0999 V2000
   25.0555    9.3672   34.6551 C   0  0  0  0  0  0  0  0  0  0  0  0
   29.4880    9.3170   34.9072 C   0  0  0  0  0  0  0  0  0  0  0  0
   17.0291   10.1202   28.3772 C   0  0  0  0  0  0  0  0  0  0  0  0
   23.5125    8.6812   33.8402 C   0  0  0  0  0  0  0  0  0  0  0  0
   22.2569    8.8580   28.5572 C   0  0  0  0  0  0  0  0  0  0  0  0
   16.5041    8.3442   26.7764 C   0  0  0  0  0  0  0  0  0  0  0  0
   26.0629   11.7607   35.4317 C   0  0  0  0  0  0  0  0  0  0  0  0
   26.1367   10.4847   34.8560 N   0  0  0  0  0  0  0  0  0  0  0  0
   23.8807    9.1145   36.5292 O   0  0  0  0  0  0  0  0  0  0  0  0
   24.6673    9.8190   33.4262 O   0  0  0  0  0  0  0  0  0  0  0  0
   21.7460    7.7373   26.2849 O   0  0  0  0  0  0  0  0  0  0  0  0
   18.5378    8.6357   26.6404 C   0  0  0  0  0  0  0  0  0  0  0  0
   30.3344   10.3544   35.4706 N   0  0  0  0  0  0  0  0  0  0  0  0
   19.2908    7.9088   32.1243 O   0  0  0  0  0  0  0  0  0  0  0  0
   27.1509   12.2978   35.7077 N   0  0  0  0  0  0  0  0  0  0  0  0
   19.6283   10.2152   32.3694 O   0  0  0  0  0  0  0  0  0  0  0  0
   29.4216   11.3466   35.6339 C   0  0  0  0  0  0  0  0  0  0  0  0
   23.0268    7.5793   35.1622 O   0  0  0  0  0  0  0  0  0  0  0  0
   28.2060    9.2310   34.6275 N   0  0  0  0  0  0  0  0  0  0  0  0
   22.9780    9.2670   32.6037 C   0  0  0  0  0  0  0  0  0  0  0  0
   30.0944    8.3488   34.8235 N   0  0  0  0  0  0  0  0  0  0  0  0
   30.1854   12.3542   36.0777 N   0  0  0  0  0  0  0  0  0  0  0  0
   20.8828   10.5442   30.3014 O   0  0  0  0  0  0  0  0  0  0  0  0
   20.2533    9.2388   31.3382 P   0  0  0  0  0  0  0  0  0  0  0  0
   18.7071    9.5101   28.4592 C   0  0  0  0  0  0  0  0  0  0  0  0
   16.0140    7.9471   26.2689 O   0  0  0  0  0  0  0  0  0  0  0  0
   16.1219    7.2723   26.8482 O   0  0  0  0  0  0  0  0  0  0  0  0
   21.7819    9.2189   29.5142 C   0  0  0  0  0  0  0  0  0  0  0  0
   23.9986    7.1683   33.1616 O   0  0  0  0  0  0  0  0  0  0  0  0
   28.2504   11.6297   35.4801 C   0  0  0  0  0  0  0  0  0  0  0  0
   21.8118    9.2242   31.9550 O   0  0  0  0  0  0  0  0  0  0  0  0
   23.4983    9.6467   35.1162 C   0  0  0  0  0  0  0  0  0  0  0  0
   18.0480    9.0731   28.5750 C   0  0  0  0  0  0  0  0  0  0  0  0
   20.6157    8.5564   27.8933 C   0  0  0  0  0  0  0  0  0  0  0  0
   21.0917    8.2213   26.9539 C   0  0  0  0  0  0  0  0  0  0  0  0
   20.2996    8.2975   30.5583 O   0  0  0  0  0  0  0  0  0  0  0  0
   27.4065   10.3685   34.8038 C   0  0  0  0  0  0  0  0  0  0  0  0
  8  1  1  0
  8  7  1  0
 10  1  1  0
 12  6  1  0
 13  2  2  0
 15  7  2  0
 17 13  1  0
 18  4  1  0
 19  2  1  0
 20  4  1  0
 21  2  1  0
 22 17  1  0
 24 16  1  0
 25 12  1  0
 26  6  1  0
 27 26  1  0
 28  5  1  0
 28 20  1  0
 28 23  1  0
 29  4  1  0
 30 15  1  0
 30 17  1  0
 31 20  1  0
 31 24  1  0
 32  1  1  0
 32  4  1  0
 32  9  1  0
 33  3  1  0
 33 25  1  0
 34  5  1  0
 34 25  1  0
 35 11  2  0
 35 34  2  0
 36 14  1  0
 36 24  1  0
 37  8  1  0
 37 19  1  0
 37 30  2  0
M  END
>  <ID>  (1) 
conformer_0

$$$$
