
     RDKit          3D

 31 34  0  0  0  0  0  0  0  0999 V2000
   24.9802    9.9225   34.5159 C   0  0  0  0  0  0  0  0  0  0  0  0
   28.8491    9.4945   35.0024 C   0  0  0  0  0  0  0  0  0  0  0  0
   23.7755    9.5953   35.0257 C   0  0  0  0  0  0  0  0  0  0  0  0
   18.1352    9.3996   28.4638 C   0  0  0  0  0  0  0  0  0  0  0  0
   17.6952    8.1404   27.2035 C   0  0  0  0  0  0  0  0  0  0  0  0
   28.3668   11.5359   35.5508 C   0  0  0  0  0  0  0  0  0  0  0  0
   21.4181    8.6700   28.1805 C   0  0  0  0  0  0  0  0  0  0  0  0
   26.1678   10.6314   34.8692 N   0  0  0  0  0  0  0  0  0  0  0  0
   30.0763    8.2898   35.0401 N   0  0  0  0  0  0  0  0  0  0  0  0
   23.9131    9.0998   36.3862 O   0  0  0  0  0  0  0  0  0  0  0  0
   20.2759    7.2111   25.9593 O   0  0  0  0  0  0  0  0  0  0  0  0
   24.6241   10.2482   33.2923 O   0  0  0  0  0  0  0  0  0  0  0  0
   27.2028   12.5435   35.8600 N   0  0  0  0  0  0  0  0  0  0  0  0
   20.8482   10.1608   30.1940 O   0  0  0  0  0  0  0  0  0  0  0  0
   17.2273    6.4191   25.8237 O   0  0  0  0  0  0  0  0  0  0  0  0
   19.3286    9.4112   28.2687 C   0  0  0  0  0  0  0  0  0  0  0  0
   20.0463    8.9535   31.3280 P   0  0  0  0  0  0  0  0  0  0  0  0
   19.7394    7.7272   31.4204 O   0  0  0  0  0  0  0  0  0  0  0  0
   16.1550    7.8360   26.9628 O   0  0  0  0  0  0  0  0  0  0  0  0
   23.0984    9.4305   33.5428 C   0  0  0  0  0  0  0  0  0  0  0  0
   19.3403    9.8114   32.0669 O   0  0  0  0  0  0  0  0  0  0  0  0
   27.9736    9.0061   34.7633 N   0  0  0  0  0  0  0  0  0  0  0  0
   29.4441   11.0246   35.6524 N   0  0  0  0  0  0  0  0  0  0  0  0
   23.0224    7.8875   34.8638 O   0  0  0  0  0  0  0  0  0  0  0  0
   26.3980   12.3266   35.6615 C   0  0  0  0  0  0  0  0  0  0  0  0
   20.0933    7.8636   26.7739 C   0  0  0  0  0  0  0  0  0  0  0  0
   17.3137    6.7897   26.0318 S   0  0  0  0  0  4  0  0  0  0  0  0
   22.9937    9.5768   32.1918 C   0  0  0  0  0  0  0  0  0  0  0  0
   21.3823    9.5349   29.1806 C   0  0  0  0  0  0  0  0  0  0  0  0
   21.5599    9.2893   31.9094 O   0  0  0  0  0  0  0  0  0  0  0  0
   27.2064   10.4116   35.0206 C   0  0  0  0  0  0  0  0  0  0  0  0
  3  1  1  0
  5  4  1  0
  8  1  1  0
  9  2  1  0
 10  3  1  0
 12  1  1  0
 13  6  2  0
 16  4  1  0
 16  7  1  0
 18 17  1  0
 19  5  1  0
 20  3  1  0
 20 12  1  0
 21 17  1  0
 22  2  1  0
 23  2  2  0
 23  6  1  0
 24  3  1  0
 25  8  1  0
 25 13  1  0
 26  7  1  0
 26 11  2  0
 27  5  1  0
 27 15  1  0
 27 19  1  0
 28 20  1  0
 29  7  1  0
 29 14  1  0
 29 18  1  0
 30 17  1  0
 30 28  1  0
 31  6  1  0
 31  8  1  0
 31 22  1  0
M  END
>  <ID>  (1) 
conformer_0

$$$$
