
     RDKit          3D

 30 31  0  0  0  0  0  0  0  0999 V2000
   24.4317    9.7427   34.9384 C   0  0  2  0  0  0  0  0  0  0  0  0
   29.2433    9.6561   35.0434 C   0  0  0  0  0  0  0  0  0  0  0  0
   23.5391    9.2092   34.2705 C   0  0  0  0  0  0  0  0  0  0  0  0
   17.9528    9.2272   28.2436 C   0  0  0  0  0  0  0  0  0  0  0  0
   21.9142    8.7872   28.5099 C   0  0  0  0  0  0  0  0  0  0  0  0
   19.9722    8.2927   26.7186 C   0  0  1  0  0  0  0  0  0  0  0  0
   26.1542   10.6176   34.9693 N   0  0  0  0  0  0  0  0  0  0  0  0
   26.4243   11.8895   35.6672 C   0  0  0  0  0  0  0  0  0  0  0  0
   16.9952    7.8429   26.7275 C   0  0  0  0  0  0  0  0  0  0  0  0
   29.8960    8.6385   34.8954 N   0  0  0  0  0  0  0  0  0  0  0  0
   23.8494    9.1122   36.4957 O   0  0  0  0  0  0  0  0  0  0  0  0
   24.6344    9.9077   33.3172 O   0  0  0  0  0  0  0  0  0  0  0  0
   19.7902   10.0544   32.2519 O   0  0  0  0  0  0  0  0  0  0  0  0
   20.0296    8.9048   31.3414 P   0  0  0  0  0  0  0  0  0  0  0  0
   21.5496    8.7590   31.7113 O   0  0  0  0  0  0  0  0  0  0  0  0
   23.0189    9.0127   32.5893 C   0  0  0  0  0  0  0  0  0  0  0  0
   28.8516   11.5488   35.6432 C   0  0  2  0  0  0  0  0  0  0  0  0
   27.2961   12.4151   35.8051 N   0  0  0  0  0  0  0  0  0  0  0  0
   30.0506   10.6376   35.5656 N   0  0  0  0  0  0  0  0  0  0  0  0
   15.6310    7.4929   26.6267 O   0  0  0  0  0  0  0  0  0  0  0  0
   23.0925    7.6683   34.9488 O   0  0  0  0  0  0  0  0  0  0  0  0
   18.6456    9.0924   28.4919 C   0  0  2  0  0  0  0  0  0  0  0  0
   19.9468    8.2722   26.4064 N   0  0  0  0  0  0  0  0  0  0  0  0
   21.2349    7.6518   26.2097 O   0  0  0  0  0  0  0  0  0  0  0  0
   19.3510    7.6086   31.7888 O   0  0  0  0  0  0  0  0  0  0  0  0
   29.8815   12.4405   36.0219 O   0  0  0  0  0  0  0  0  0  0  0  0
   21.2605    8.8170   28.7004 C   0  0  0  0  0  0  0  0  0  0  0  0
   27.4782   10.4140   34.9771 C   0  0  0  0  0  3  0  0  0  0  0  0
   17.2284    6.8279   26.4530 N   0  0  0  0  0  0  0  0  0  0  0  0
   20.1288    8.8132   30.1714 O   0  0  0  0  0  0  0  0  0  0  0  0
  3  1  1  0
  7  1  1  0
  8  7  1  0
  9  4  1  0
 10  2  1  0
  1 11  1  1
 12  3  1  0
 14 13  1  0
 15 14  1  0
 16  3  1  0
 16 15  1  0
 18  8  2  0
 18 17  1  0
 19  2  2  0
 19 17  1  0
 20  9  2  0
 21  3  1  0
 22  4  1  0
 22  6  1  0
  6 23  1  6
 24 23  1  0
 22 25  1  1
 17 26  1  6
 27  5  2  3
 27  6  1  0
 28  2  1  0
 28  7  1  0
 28 17  1  0
 29  9  1  0
 30 14  1  0
 30 27  1  0
M  RAD  1  28   2
M  END
>  <ID>  (1) 
conformer_0

$$$$
