
     RDKit          3D

 34 35  0  0  0  0  0  0  0  0999 V2000
   26.3214   12.1468   35.7309 C   0  0  0  0  0  0  0  0  0  0  0  0
   25.0313    9.7078   34.4346 C   0  0  0  0  0  0  0  0  0  0  0  0
   22.8771    8.7696   33.8595 C   0  0  0  0  0  0  0  0  0  0  0  0
   18.3686    8.6726   27.3961 C   0  0  0  0  0  0  0  0  0  0  0  0
   29.2590    9.7152   34.9919 C   0  0  0  0  0  0  0  0  0  0  0  0
   17.2997    8.2576   26.9790 C   0  0  0  0  0  0  0  0  0  0  0  0
   30.1465    8.4581   34.8810 N   0  0  0  0  0  0  0  0  0  0  0  0
   27.0267   12.5548   35.9364 N   0  0  0  0  0  0  0  0  0  0  0  0
   21.4693    8.7596   28.3285 C   0  0  0  0  0  0  0  0  0  0  0  0
   26.1966   10.5821   34.8347 N   0  0  0  0  0  0  0  0  0  0  0  0
   29.9503   10.6958   35.4352 N   0  0  0  0  0  0  0  0  0  0  0  0
   20.4226    8.6188   27.2892 C   0  0  0  0  0  0  0  0  0  0  0  0
   24.7447    9.8641   33.4259 O   0  0  0  0  0  0  0  0  0  0  0  0
   23.8899    9.0586   36.3879 O   0  0  0  0  0  0  0  0  0  0  0  0
   29.1855   12.0171   35.9655 C   0  0  0  0  0  0  0  0  0  0  0  0
   18.7123   10.2887   29.0802 C   0  0  0  0  0  0  0  0  0  0  0  0
   23.3661    7.3275   34.7319 O   0  0  0  0  0  0  0  0  0  0  0  0
   20.2079    9.4558   31.6446 P   0  0  0  0  0  0  0  0  0  0  0  0
   19.5053    9.9315   32.5909 O   0  0  0  0  0  0  0  0  0  0  0  0
   18.1955    5.2491   25.8990 O   0  0  0  0  0  0  0  0  0  0  0  0
   19.9660    7.8837   31.2899 O   0  0  0  0  0  0  0  0  0  0  0  0
   20.4420   10.5775   30.1636 O   0  0  0  0  0  0  0  0  0  0  0  0
   30.0627   12.7342   36.5652 N   0  0  0  0  0  0  0  0  0  0  0  0
   17.5845   10.2227   28.5925 C   0  0  0  0  0  0  0  0  0  0  0  0
   23.0540    9.1361   32.5080 C   0  0  0  0  0  0  0  0  0  0  0  0
   21.5117    9.5470   29.1312 C   0  0  0  0  0  0  0  0  0  0  0  0
   28.1496    9.1603   34.6883 N   0  0  0  0  0  0  0  0  0  0  0  0
   20.0398    7.2628   25.7100 O   0  0  0  0  0  0  0  0  0  0  0  0
   16.6815    7.0167   26.0581 O   0  0  0  0  0  0  0  0  0  0  0  0
   21.5077    9.2141   31.9040 O   0  0  0  0  0  0  0  0  0  0  0  0
   27.2518   10.3862   34.8742 C   0  0  0  0  0  0  0  0  0  0  0  0
   23.7961    9.4295   35.0879 C   0  0  0  0  0  0  0  0  0  0  0  0
   18.9241    7.3581   26.1252 C   0  0  0  0  0  0  0  0  0  0  0  0
   28.1509   11.6097   35.4911 C   0  0  0  0  0  0  0  0  0  0  0  0
  6  4  1  0
  7  5  1  0
  8  1  2  0
 10  1  1  0
 10  2  1  0
 11  5  1  0
 12  4  1  0
 12  9  1  0
 13  2  2  0
 15 11  2  0
 17  3  1  0
 19 18  1  0
 21 18  1  0
 23 15  1  0
 24  4  1  0
 24 16  1  0
 25  3  1  0
 26  9  1  0
 26 21  1  0
 26 22  1  0
 27  5  1  0
 29  6  1  0
 30 18  1  0
 30 25  1  0
 31 10  1  0
 31 27  1  0
 32  2  1  0
 32  3  1  0
 32 14  1  0
 33  4  1  0
 33 20  1  0
 33 28  2  0
 34  8  1  0
 34 15  1  0
 34 31  2  0
M  END
>  <ID>  (1) 
conformer_0

$$$$
