
     RDKit          3D

 31 33  0  0  0  0  0  0  0  0999 V2000
   23.5951    9.6349   35.1506 C   0  0  1  0  0  0  0  0  0  0  0  0
   29.3530    9.9421   35.0880 C   0  0  2  0  0  0  0  0  0  0  0  0
   17.7953    8.3274   27.3981 C   0  0  0  0  0  0  0  0  0  0  0  0
   23.0422    8.8146   33.9126 C   0  0  1  0  0  0  0  0  0  0  0  0
   21.0863    8.5829   28.1472 C   0  0  0  0  0  0  0  0  0  0  0  0
   19.5042    9.3696   28.7531 C   0  0  2  0  0  0  0  0  0  0  0  0
   26.3640   12.1410   35.5881 C   0  0  0  0  0  0  0  0  0  0  0  0
   30.2476    8.5633   34.7995 N   0  0  0  0  0  0  0  0  0  0  0  0
   26.2048   10.7239   34.8770 N   0  0  0  0  0  0  0  0  0  0  0  0
   24.7464    9.6677   33.4341 O   0  0  0  0  0  0  0  0  0  0  0  0
   17.0935    7.5581   26.5808 C   0  0  0  0  0  0  0  0  0  0  0  0
   26.9758   12.6095   35.8463 N   0  0  0  0  0  0  0  0  0  0  0  0
   20.6486    7.1823   25.7537 O   0  0  0  0  0  0  0  0  0  0  0  0
   24.0939    9.0454   36.4049 O   0  0  0  0  0  0  0  0  0  0  0  0
   30.0132   11.0736   35.7825 N   0  0  0  0  0  0  0  0  0  0  0  0
   17.5960    9.3388   28.7688 C   0  0  0  0  0  0  0  0  0  0  0  0
   21.3348    8.9913   31.8781 O   0  0  0  0  0  0  0  0  0  0  0  0
   19.8031   10.1221   32.7755 O   0  0  0  0  0  0  0  0  0  0  0  0
   22.9594    8.9432   32.3243 C   0  0  0  0  0  0  0  0  0  0  0  0
   19.8344   10.0915   29.6770 O   0  0  0  0  0  0  0  0  0  0  0  0
   28.8984   11.9567   35.8383 C   0  0  0  0  0  3  0  0  0  0  0  0
   20.1333    7.9977   26.8027 C   0  0  0  0  0  0  0  0  0  0  0  0
   20.2366    9.0753   31.8632 P   0  0  0  0  0  0  0  0  0  0  0  0
   22.9719    7.5439   35.0776 O   0  0  0  0  0  0  0  0  0  0  0  0
   30.0095   12.7409   36.2361 O   0  0  0  0  0  0  0  0  0  0  0  0
   16.8550    6.3880   26.1017 O   0  0  0  0  0  0  0  0  0  0  0  0
   19.5406    7.8636   31.4863 O   0  0  0  0  0  0  0  0  0  0  0  0
   15.7994    7.4762   26.2032 O   0  0  0  0  0  0  0  0  0  0  0  0
   28.4564    9.5180   34.8235 N   0  0  0  0  0  0  0  0  0  0  0  0
   27.5931   10.8992   35.1342 C   0  0  0  0  0  0  0  0  0  0  0  0
   25.1755    9.7081   34.5552 C   0  0  2  0  0  0  0  0  0  0  0  0
  4  1  1  0
  6  5  1  0
  2  8  1  1
  9  7  1  0
 11  3  1  0
 12  7  2  3
  1 14  1  1
 15  2  1  0
 16  3  1  0
 16  6  1  0
 19  4  1  0
 19 17  1  0
  6 20  1  6
 21 15  1  0
 22  5  1  0
 22 13  1  0
 23 17  1  0
 23 18  1  0
  4 24  1  6
 25 15  1  0
 25 21  1  0
 26 11  1  0
 27  6  1  0
 27 23  1  0
 28 11  2  0
 29  2  1  0
 30  7  1  0
 30  9  1  0
 30 21  1  0
 30 29  1  0
 31  1  1  0
 31  9  1  0
 31 10  1  6
M  RAD  1  21   2
M  END
>  <ID>  (1) 
conformer_0

$$$$
