
     RDKit          3D

 29 32  0  0  0  0  0  0  0  0999 V2000
   29.1610    9.6402   34.9767 C   0  0  0  0  0  0  0  0  0  0  0  0
   24.3884    9.8161   35.0917 C   0  0  0  0  0  0  0  0  0  0  0  0
   17.8834    8.1784   27.8578 C   0  0  0  0  0  0  0  0  0  0  0  0
   23.5022    9.2799   34.3323 C   0  0  0  0  0  0  0  0  0  0  0  0
   16.5584    7.3075   26.3433 C   0  0  0  0  0  0  0  0  0  0  0  0
   26.2325   11.9892   35.6662 C   0  0  0  0  0  0  0  0  0  0  0  0
   21.4604    8.7496   28.3043 C   0  0  0  0  0  0  0  0  0  0  0  0
   26.0582   10.6629   35.0072 N   0  0  0  0  0  0  0  0  0  0  0  0
   18.2338    8.4989   27.5722 C   0  0  0  0  0  0  0  0  0  0  0  0
   30.0334    8.4769   34.8303 N   0  0  0  0  0  0  0  0  0  0  0  0
   24.4508   10.0371   33.5113 O   0  0  0  0  0  0  0  0  0  0  0  0
   23.7805    9.0224   36.4672 O   0  0  0  0  0  0  0  0  0  0  0  0
   21.2913    7.4805   26.3530 O   0  0  0  0  0  0  0  0  0  0  0  0
   21.7125    9.7033   31.6449 O   0  0  0  0  0  0  0  0  0  0  0  0
   30.1628   10.8099   35.5457 N   0  0  0  0  0  0  0  0  0  0  0  0
   15.5565    7.0261   26.0895 O   0  0  0  0  0  0  0  0  0  0  0  0
   20.2451    9.0730   31.4116 P   0  0  0  0  0  0  0  0  0  0  0  0
   27.2020   12.5470   35.8716 N   0  0  0  0  0  0  0  0  0  0  0  0
   19.7729   10.2296   32.3533 O   0  0  0  0  0  0  0  0  0  0  0  0
   19.4757    7.8804   31.9806 O   0  0  0  0  0  0  0  0  0  0  0  0
   28.7767   11.6969   35.6394 C   0  0  0  0  0  3  0  0  0  0  0  0
   27.8839    9.3415   34.5982 N   0  0  0  0  0  0  0  0  0  0  0  0
   23.0243    9.0969   32.6628 C   0  0  0  0  0  0  0  0  0  0  0  0
   23.3510    7.5713   34.7291 O   0  0  0  0  0  0  0  0  0  0  0  0
   20.8922    9.1449   29.0722 C   0  0  0  0  0  0  0  0  0  0  0  0
   17.9210    9.3403   28.5506 C   0  0  0  0  0  0  0  0  0  0  0  0
   27.4732   10.7293   35.0392 C   0  0  0  0  0  0  0  0  0  0  0  0
   20.3637    8.2321   26.9761 C   0  0  0  0  0  0  0  0  0  0  0  0
   20.4091    8.9371   30.3725 O   0  0  0  0  0  0  0  0  0  0  0  0
  4  2  1  0
  5  3  1  0
  8  2  1  0
  8  6  1  0
  9  3  1  0
 10  1  1  0
 11  2  1  0
 11  4  1  0
 12  2  1  0
 15  1  2  0
 16  5  2  0
 17 14  1  0
 18  6  2  0
 19 17  1  0
 21 15  1  0
 21 18  1  0
 22  1  1  0
 23  4  1  0
 23 14  1  0
 24  4  1  0
 25  7  1  0
 25 20  1  0
 26  9  1  0
 27  6  1  0
 27  8  1  0
 27 21  1  0
 27 22  1  0
 28  7  1  0
 28  9  1  0
 28 13  1  0
 29 17  1  0
 29 25  1  0
M  RAD  1  21   2
M  END
>  <ID>  (1) 
conformer_0

$$$$
