
     RDKit          3D

 31 33  0  0  0  0  0  0  0  0999 V2000
   29.2139    9.5468   34.8927 C   0  0  0  0  0  0  0  0  0  0  0  0
   24.9973    9.5624   34.4429 C   0  0  2  0  0  0  0  0  0  0  0  0
   17.6115    8.9911   27.9881 C   0  0  2  0  0  0  0  0  0  0  0  0
   20.5852    8.5604   27.8950 C   0  0  2  0  0  0  0  0  0  0  0  0
   23.0603    8.6729   33.7008 C   0  0  2  0  0  0  0  0  0  0  0  0
   26.0724   11.9756   35.6762 C   0  0  0  0  0  0  0  0  0  0  0  0
   19.9753    8.3085   26.8822 C   0  0  0  0  0  0  0  0  0  0  0  0
   30.0642    8.4694   34.5861 N   0  0  0  0  0  0  0  0  0  0  0  0
   25.8503   10.6643   35.0242 N   0  0  0  0  0  0  0  0  0  0  0  0
   29.8184   10.7166   35.4937 N   0  0  0  0  0  0  0  0  0  0  0  0
   23.9650    8.9512   36.4601 O   0  0  0  0  0  0  0  0  0  0  0  0
   24.5782    9.8334   33.3929 O   0  0  0  0  0  0  0  0  0  0  0  0
   26.8729   12.6123   35.8852 N   0  0  0  0  0  0  0  0  0  0  0  0
   17.2715    8.0869   26.6939 C   0  0  0  0  0  0  0  0  0  0  0  0
   21.1798    8.9867   31.0805 O   0  0  0  0  0  0  0  0  0  0  0  0
   23.0111    7.3262   34.8208 O   0  0  0  0  0  0  0  0  0  0  0  0
   22.9031    9.1077   32.2888 C   0  0  0  0  0  0  0  0  0  0  0  0
   28.5763   11.6202   35.5836 C   0  0  0  0  0  3  0  0  0  0  0  0
   20.4214    7.6531   25.9993 O   0  0  0  0  0  0  0  0  0  0  0  0
   27.8363    9.1583   34.5563 N   0  0  0  0  0  0  0  0  0  0  0  0
   17.4410   10.0382   28.7957 C   0  0  0  0  0  0  0  0  0  0  0  0
   19.7518    9.5898   32.3095 O   0  0  0  0  0  0  0  0  0  0  0  0
   17.7560    6.5567   26.5853 O   0  0  0  0  0  0  0  0  0  0  0  0
   21.4590    9.3098   29.4476 C   0  0  1  0  0  0  0  0  0  0  0  0
   16.3774    8.1209   26.0020 O   0  0  0  0  0  0  0  0  0  0  0  0
   18.7136    8.8352   28.8048 C   0  0  1  0  0  0  0  0  0  0  0  0
   19.5792    7.6655   30.8958 O   0  0  0  0  0  1  0  0  0  0  0  0
   27.4236   10.7020   35.1194 C   0  0  0  0  0  0  0  0  0  0  0  0
   20.0140    8.8219   31.5370 P   0  0  0  0  0  4  0  0  0  0  0  0
   22.1251    8.7445   28.4929 C   0  0  0  0  0  0  0  0  0  0  0  0
   23.6823    9.2170   35.0615 C   0  0  1  0  0  0  0  0  0  0  0  0
  7  4  1  0
  8  1  1  0
  9  2  1  0
  9  6  1  0
 10  1  2  0
  2 12  1  6
 13  6  2  3
  3 14  1  6
  5 16  1  6
 17  5  1  0
 18 10  1  0
 19  7  2  0
 20  1  1  0
 21  3  1  0
 23 14  1  0
 24 15  1  0
 24 17  1  1
 25 14  2  0
 26  3  1  0
 26  4  1  0
 26 21  1  6
 28  6  1  0
 28  9  1  0
 28 18  1  0
 28 20  1  0
 29 15  1  0
 29 22  1  0
 29 27  1  0
  4 30  1  6
 30 24  1  0
 31  2  1  0
 31  5  1  0
 31 11  1  1
M  RAD  3  18   2  27   2  29   2
M  END
>  <ID>  (1) 
conformer_0

$$$$
