
     RDKit          3D

 31 33  0  0  0  0  0  0  0  0999 V2000
   23.4319    9.3986   34.9352 C   0  0  1  0  0  0  0  0  0  0  0  0
   29.1163    9.7671   35.0123 C   0  0  2  0  0  0  0  0  0  0  0  0
   23.1535    8.8490   33.3665 C   0  0  2  0  0  0  0  0  0  0  0  0
   21.7810    8.6639   28.3545 C   0  0  0  0  0  0  0  0  0  0  0  0
   18.3442    9.1604   29.1490 C   0  0  2  0  0  0  0  0  0  0  0  0
   26.4200   11.7825   35.6457 C   0  0  0  0  0  0  0  0  0  0  0  0
   18.5366    8.5701   27.2966 C   0  0  1  0  0  0  0  0  0  0  0  0
   25.8392   10.4999   34.9897 N   0  0  0  0  0  0  0  0  0  0  0  0
   29.9215   10.8173   35.5439 N   0  0  0  0  0  0  0  0  0  0  0  0
   29.9756    8.4489   34.7334 N   0  0  0  0  0  0  0  0  0  0  0  0
   20.9305    7.5137   25.9198 O   0  0  0  0  0  0  0  0  0  0  0  0
   23.8409    9.0023   36.3826 O   0  0  0  0  0  0  0  0  0  0  0  0
   24.3690   10.0120   33.4659 O   0  0  0  0  0  0  0  0  0  0  0  0
   22.5896    9.2896   32.0831 C   0  0  0  0  0  0  0  0  0  0  0  0
   20.0037    8.5998   27.1179 C   0  0  0  0  0  0  0  0  0  0  0  0
   28.6409   11.7262   35.6701 C   0  0  0  0  0  0  0  0  0  0  0  0
   23.5174    7.3534   34.2943 O   0  0  0  0  0  0  0  0  0  0  0  0
   19.7009    8.1454   31.5007 O   0  0  0  0  0  0  0  0  0  0  0  0
   21.3223    9.1318   29.3733 C   0  0  0  0  0  0  0  0  0  0  0  0
   26.8414   12.3880   35.8591 N   0  0  0  0  0  0  0  0  0  0  0  0
   17.5747    7.8177   27.5257 C   0  0  0  0  0  0  0  0  0  0  0  0
   17.6459    6.6595   26.2974 O   0  0  0  0  0  0  0  0  0  0  0  0
   17.5666   10.0144   29.0001 C   0  0  0  0  0  0  0  0  0  0  0  0
   27.7920    8.9529   34.6043 N   0  0  0  0  0  0  0  0  0  0  0  0
   20.8340    9.8976   30.9236 O   0  0  0  0  0  0  0  0  0  0  0  0
   16.0256    7.5824   27.2655 O   0  0  0  0  0  0  0  0  0  0  0  0
   22.1252    8.6733   31.1852 N   0  0  0  0  0  0  0  0  0  0  0  0
   27.3262   10.4321   34.9911 C   0  0  1  0  0  0  0  0  0  0  0  0
   19.5053    9.1179   28.9899 N   0  0  0  0  0  0  0  0  0  0  0  0
   17.7429    7.8228   30.3171 O   0  0  0  0  0  0  0  0  0  0  0  0
   24.7801    9.5668   34.6746 C   0  0  2  0  0  0  0  0  0  0  0  0
  3  1  1  0
  7  5  1  0
  8  6  1  0
  9  2  1  0
  2 10  1  6
  1 12  1  1
 13  3  1  0
 14  3  1  0
  7 15  1  1
 15 11  1  0
 16  9  1  0
  3 17  1  1
 19  4  2  3
 20  6  2  3
 21  7  1  0
 22 21  1  0
  5 23  1  6
 24  2  1  0
 25 19  1  0
 26 21  1  0
 27 14  1  0
 27 25  1  0
 28  2  1  0
 28  6  1  0
 28  8  1  0
 28 24  1  6
 29  5  1  0
 29 19  1  0
 30  5  1  0
 30 18  1  0
 31  1  1  0
 31  8  1  1
 31 13  1  0
M  END
>  <ID>  (1) 
conformer_0

$$$$
