
     RDKit          3D

 32 34  0  0  0  0  0  0  0  0999 V2000
   23.5274    9.5924   35.3271 C   0  0  0  0  0  0  0  0  0  0  0  0
   29.0663    9.8331   35.0537 C   0  0  0  0  0  0  0  0  0  0  0  0
   22.6503    8.6715   28.1222 C   0  0  0  0  0  0  0  0  0  0  0  0
   16.6940    9.4932   27.4854 C   0  0  0  0  0  0  0  0  0  0  0  0
   23.0235    8.7777   33.8924 C   0  0  0  0  0  0  0  0  0  0  0  0
   18.7099    8.0602   27.4067 C   0  0  0  0  0  0  0  0  0  0  0  0
   26.2839   11.9463   35.6294 C   0  0  0  0  0  0  0  0  0  0  0  0
   25.9119   10.5673   34.9077 N   0  0  0  0  0  0  0  0  0  0  0  0
   30.0207    8.4725   34.8201 N   0  0  0  0  0  0  0  0  0  0  0  0
   23.7004    9.0348   36.6023 O   0  0  0  0  0  0  0  0  0  0  0  0
   29.9535   10.7546   35.5766 N   0  0  0  0  0  0  0  0  0  0  0  0
   16.1536    7.9474   26.5870 C   0  0  0  0  0  0  0  0  0  0  0  0
   20.4546    7.4942   26.0194 O   0  0  0  0  0  0  0  0  0  0  0  0
   26.9885   12.4633   35.8119 N   0  0  0  0  0  0  0  0  0  0  0  0
   24.4862    9.9061   33.4933 O   0  0  0  0  0  0  0  0  0  0  0  0
   21.5501    9.1022   29.6104 C   0  0  0  0  0  0  0  0  0  0  0  0
   21.0382   10.6195   30.1591 O   0  0  0  0  0  0  0  0  0  0  0  0
   28.7080   11.7855   35.7267 C   0  0  0  0  0  0  0  0  0  0  0  0
   19.3875    7.5622   31.0459 O   0  0  0  0  0  0  0  0  0  0  0  0
   17.5395    6.5538   26.4651 O   0  0  0  0  0  0  0  0  0  0  0  0
   19.8609    9.9105   32.4110 O   0  0  0  0  0  0  0  0  0  0  0  0
   22.7401    7.5953   34.9264 O   0  0  0  0  0  0  0  0  0  0  0  0
   15.2521    7.5257   26.6158 O   0  0  0  0  0  0  0  0  0  0  0  0
   22.9473    9.2131   32.4367 C   0  0  0  0  0  0  0  0  0  0  0  0
   28.0506    9.2905   34.5523 N   0  0  0  0  0  0  0  0  0  0  0  0
   18.0362    8.8210   27.6642 C   0  0  0  0  0  0  0  0  0  0  0  0
   20.9823    8.4942   28.0712 C   0  0  0  0  0  0  0  0  0  0  0  0
   20.2155    9.0794   31.5589 P   0  0  0  0  0  0  0  0  0  0  0  0
   27.3370   10.4759   35.0405 C   0  0  0  0  0  0  0  0  0  0  0  0
   24.8000    9.7640   34.5132 C   0  0  0  0  0  0  0  0  0  0  0  0
   21.3091    8.8799   31.5487 O   0  0  0  0  0  0  0  0  0  0  0  0
   20.7129    8.0485   27.4772 C   0  0  0  0  0  0  0  0  0  0  0  0
  5  1  1  0
  8  7  1  0
  9  2  1  0
 10  1  1  0
 11  2  2  0
 12  4  1  0
 14  7  1  0
 16  3  1  0
 17 16  1  0
 18 11  1  0
 18 14  1  0
 19 16  1  0
 20 12  1  0
 22  5  1  0
 23 12  2  0
 24  5  1  0
 25  2  1  0
 26  4  1  0
 26  6  1  0
 27  3  1  0
 27 16  1  0
 28 19  1  0
 28 21  1  0
 29  7  2  0
 29  8  1  0
 29 25  1  0
 30  1  1  0
 30  8  1  0
 30 15  2  0
 31 24  1  0
 31 28  1  0
 32  6  1  0
 32 13  1  0
 32 27  1  0
M  END
>  <ID>  (1) 
conformer_0

$$$$
