
     RDKit          3D

 25 26  0  0  0  0  0  0  0  0999 V2000
   28.6628    9.7750   34.9785 C   0  0  0  0  0  0  0  0  0  0  0  0
   17.8594    8.8062   27.7774 C   0  0  0  0  0  0  0  0  0  0  0  0
   24.7584    9.6957   34.7945 C   0  0  0  0  0  0  0  0  0  0  0  0
   21.1464    8.2437   27.5656 C   0  0  0  0  0  0  0  0  0  0  0  0
   23.4402    9.2894   34.9354 C   0  0  0  0  0  0  0  0  0  0  0  0
   28.5988   11.3600   35.5168 C   0  0  0  0  0  0  0  0  0  0  0  0
   26.1179   10.5155   34.9200 N   0  0  0  0  0  0  0  0  0  0  0  0
   29.7147    8.5507   34.8308 N   0  0  0  0  0  0  0  0  0  0  0  0
   19.0192    8.0177   26.8640 C   0  0  0  0  0  0  0  0  0  0  0  0
   24.4544    9.9573   33.3938 O   0  0  0  0  0  0  0  0  0  0  0  0
   23.9172    9.0045   36.4933 O   0  0  0  0  0  0  0  0  0  0  0  0
   29.9785   10.5491   35.5280 N   0  0  0  0  0  0  0  0  0  0  0  0
   20.1325    8.2040   31.3273 O   0  0  0  0  0  0  0  0  0  0  0  0
   23.1903    8.9565   33.4046 C   0  0  0  0  0  0  0  0  0  0  0  0
   19.4473    9.9240   32.2153 O   0  0  0  0  0  0  0  0  0  0  0  0
   23.1342    7.4778   34.7419 O   0  0  0  0  0  0  0  0  0  0  0  0
   26.5959   11.4957   35.3893 C   0  0  0  0  0  0  0  0  0  0  0  0
   22.2484    8.7065   28.5157 C   0  0  0  0  0  0  0  0  0  0  0  0
   27.0230   12.4150   35.7820 N   0  0  0  0  0  0  0  0  0  0  0  0
   19.7993    8.5641   31.3863 P   0  0  0  0  0  0  0  0  0  0  0  0
   20.7849    7.4647   25.7390 O   0  0  0  0  0  0  0  0  0  0  0  0
   18.6748    6.7049   25.8807 O   0  0  0  0  0  0  0  0  0  0  0  0
   17.4824    9.8651   28.6091 C   0  0  0  0  0  0  0  0  0  0  0  0
   22.6003    9.0748   31.5785 C   0  0  0  0  0  0  0  0  0  0  0  0
   17.0165    7.6730   26.0935 O   0  0  0  0  0  0  0  0  0  0  0  0
  5  3  1  0
  6  1  1  0
  7  3  1  0
  8  1  1  0
  9  2  1  0
  9  4  1  0
 10  3  1  0
 11  5  1  0
 12  1  1  0
 12  6  2  0
 14  5  1  0
 14 10  1  0
 16  5  1  0
 17  7  1  0
 18  4  1  0
 19  6  1  0
 19 17  1  0
 20 13  1  0
 20 15  1  0
 21  4  1  0
 22  9  1  0
 23  2  1  0
 24 14  1  0
 24 18  1  0
 24 20  1  0
 25  2  1  0
M  END
>  <ID>  (1) 
conformer_0

$$$$
