
     RDKit          3D

 33 36  0  0  0  0  0  0  0  0999 V2000
   25.0830    9.5208   34.3707 C   0  0  2  0  0  0  0  0  0  0  0  0
   29.4267    9.6392   34.9954 C   0  0  0  0  0  0  0  0  0  0  0  0
   17.3273    8.2478   27.4960 C   0  0  2  0  0  0  0  0  0  0  0  0
   23.9026    9.4643   35.1351 C   0  0  2  0  0  0  0  0  0  0  0  0
   20.6187    8.5171   27.9876 C   0  0  0  0  0  0  0  0  0  0  0  0
   26.5160   11.7277   35.2967 C   0  0  0  0  0  0  0  0  0  0  0  0
   26.0589   10.5193   34.6847 N   0  0  0  0  0  0  0  0  0  0  0  0
   16.3890    7.2795   26.2533 C   0  0  0  0  0  0  0  0  0  0  0  0
   24.0044    9.0025   36.3686 O   0  0  0  0  0  0  0  0  0  0  0  0
   24.2670   10.0366   33.2613 O   0  0  0  0  0  0  0  0  0  0  0  0
   20.1354    7.3199   25.9197 O   0  0  0  0  0  0  0  0  0  0  0  0
   23.5855    7.3365   34.4087 O   0  0  0  0  0  0  0  0  0  0  0  0
   19.3797    7.5050   30.8274 O   0  0  0  0  0  0  0  0  0  0  0  0
   27.0302   12.4156   35.7560 N   0  0  0  0  0  0  0  0  0  0  0  0
   30.0466    8.6012   34.8816 N   0  0  0  0  0  0  0  0  0  0  0  0
   30.1955   10.7824   35.5873 N   0  0  0  0  0  0  0  0  0  0  0  0
   23.0252    8.6571   33.8462 C   0  0  2  0  0  0  0  0  0  0  0  0
   19.6933   10.1779   32.2649 O   0  0  0  0  0  0  0  0  0  0  0  0
   17.6607    9.3993   28.9696 C   0  0  0  0  0  0  0  0  0  0  0  0
   29.0072   11.7923   35.7066 C   0  0  0  0  0  0  0  0  0  0  0  0
   18.4120    7.4771   26.0918 C   0  0  1  0  0  0  0  0  0  0  0  0
   19.9557    8.7285   31.2989 P   0  0  0  0  0  0  0  0  0  0  0  0
   21.0984    9.6067   30.8766 O   0  0  0  0  0  0  0  0  0  0  0  0
   23.1706    9.1342   32.5642 C   0  0  1  0  0  0  0  0  0  0  0  0
   15.8129    6.8667   25.8589 O   0  0  0  0  0  0  0  0  0  0  0  0
   28.2927    9.3477   34.6043 N   0  0  0  0  0  0  0  0  0  0  0  0
   18.4999    9.2166   28.8954 C   0  0  0  0  0  0  0  0  0  0  0  0
   22.2115    9.2641   30.1821 C   0  0  1  0  0  0  0  0  0  0  0  0
   20.3531    8.2879   32.5340 O   0  0  0  0  0  0  0  0  0  0  0  0
   17.8510    6.1665   25.7259 N   0  0  0  0  0  0  0  0  0  0  0  0
   27.7646   10.7352   34.9882 C   0  0  1  0  0  0  0  0  0  0  0  0
   20.5915    8.3964   27.2881 C   0  0  0  0  0  0  0  0  0  0  0  0
   22.3116    8.8455   28.8803 C   0  0  0  0  0  0  0  0  0  0  0  0
  4  1  1  0
  1  7  1  1
  7  6  1  0
  8  3  1  0
  4  9  1  1
 10  1  1  0
 14  6  2  3
 15  2  1  0
 16  2  2  0
 17  4  1  0
 17 12  1  6
  3 19  1  6
 20 16  1  0
 21  3  1  0
 21 11  1  1
 22 18  1  0
 23 22  1  0
 24 10  1  1
 24 17  1  0
 25  8  2  0
 26  2  1  0
 27 19  1  0
 28 23  1  1
 28 24  1  0
 29 13  1  0
 29 22  1  0
 30  8  1  0
 30 21  1  0
 31  6  1  0
 31  7  1  0
 31 20  1  1
 31 26  1  0
 32  5  1  0
 32 11  1  0
 33  5  2  3
 33 28  1  0
M  END
>  <ID>  (1) 
conformer_0

$$$$
