
     RDKit          3D

 31 32  0  0  0  0  0  0  0  0999 V2000
   24.6077    9.7535   34.8952 C   0  0  2  0  0  0  0  0  0  0  0  0
   29.2963    9.7374   35.0586 C   0  0  0  0  0  0  0  0  0  0  0  0
   19.7639    8.3120   27.0192 C   0  0  0  0  0  0  0  0  0  0  0  0
   17.5280    9.5135   28.1478 C   0  0  0  0  0  0  0  0  0  0  0  0
   23.3083    9.2608   34.6583 C   0  0  0  0  0  0  0  0  0  0  0  0
   21.3375    8.7098   28.1883 C   0  0  0  0  0  0  0  0  0  0  0  0
   26.6263   11.8073   35.6609 C   0  0  0  0  0  0  0  0  0  0  0  0
   26.2551   10.5356   34.9657 N   0  0  0  0  0  0  0  0  0  0  0  0
   30.4151    8.2141   34.6810 N   0  0  0  0  0  0  0  0  0  0  0  0
   24.9138    9.7718   33.4305 O   0  0  0  0  0  0  0  0  0  0  0  0
   23.8148    9.0142   36.5118 O   0  0  0  0  0  0  0  0  0  0  0  0
   30.2319   10.5501   35.4490 N   0  0  0  0  0  0  0  0  0  0  0  0
   18.0472    5.7307   26.1591 O   0  0  0  0  0  0  0  0  0  0  0  0
   29.0687   11.7259   35.8252 C   0  0  0  0  0  0  0  0  0  0  0  0
   27.2465   12.3518   35.8999 N   0  0  0  0  0  0  0  0  0  0  0  0
   23.0838    7.4876   34.7837 O   0  0  0  0  0  0  0  0  0  0  0  0
   21.7516    8.9789   32.3518 O   0  0  0  0  0  0  0  0  0  0  0  0
   20.4969    9.2435   31.6330 P   0  0  2  0  0  4  0  0  0  0  0  0
   17.4661    8.1032   26.9515 C   0  0  0  0  0  0  0  0  0  0  0  0
   20.0999   10.3784   32.3279 O   0  0  0  0  0  0  0  0  0  0  0  0
   19.6891    7.4257   25.8558 O   0  0  0  0  0  0  0  0  0  0  0  0
   16.6308    7.0203   25.9062 O   0  0  0  0  0  0  0  0  0  0  0  0
   19.3654    7.7560   32.2150 O   0  0  0  0  0  1  0  0  0  0  0  0
   18.3474    9.2564   28.8806 C   0  0  0  0  0  0  0  0  0  0  0  0
   23.3327    9.0871   32.8368 C   0  0  2  0  0  0  0  0  0  0  0  0
   28.3825    9.0866   34.6721 N   0  0  0  0  0  0  0  0  0  0  0  0
   19.3854    9.1111   28.7566 N   0  0  0  0  0  0  0  0  0  0  0  0
   20.6931    9.0838   28.8230 C   0  0  1  0  0  0  0  0  0  0  0  0
   27.7547   10.5707   35.1442 C   0  0  2  0  0  0  0  0  0  0  0  0
   20.1445    8.5210   30.5315 O   0  0  0  0  0  0  0  0  0  0  0  0
   21.6388   10.3893   30.8128 O   0  0  0  0  0  0  0  0  0  0  0  0
  5  1  1  0
  1  8  1  6
  8  7  1  0
  9  2  2  3
 10  1  1  0
 11  5  1  0
 12  2  1  0
 14 12  1  0
 15  7  2  3
 16  5  1  0
 18 17  1  0
 19  4  1  0
 18 20  1  6
 21  3  1  0
 22 13  1  0
 22 19  1  0
 23 18  1  0
 24  4  1  0
 25  5  1  0
 25 10  1  0
 25 17  1  6
 26  2  1  0
 27  3  1  0
 27 24  1  0
 28  6  1  6
 28 27  1  0
 29  7  1  0
 29  8  1  0
 29 26  1  1
 30 18  1  0
 30 28  1  0
 31 28  1  0
M  RAD  2  18   2  23   2
M  END
>  <ID>  (1) 
conformer_0

$$$$
