
     RDKit          3D

 28 29  0  0  0  0  0  0  0  0999 V2000
   29.0793    9.6895   34.9656 C   0  0  0  0  0  0  0  0  0  0  0  0
   24.6848    9.4942   34.6371 C   0  0  2  0  0  0  0  0  0  0  0  0
   22.0522    8.5852   28.2366 C   0  0  0  0  0  0  0  0  0  0  0  0
   17.9853    9.2629   28.0977 C   0  0  0  0  0  0  0  0  0  0  0  0
   23.3450    9.0764   34.4741 C   0  0  0  0  0  0  0  0  0  0  0  0
   20.9902    7.8971   26.7107 C   0  0  0  0  0  0  0  0  0  0  0  0
   26.3248   12.0830   35.6430 C   0  0  0  0  0  0  0  0  0  0  0  0
   26.0916   10.4890   34.8397 N   0  0  0  0  0  0  0  0  0  0  0  0
   29.8474   10.5325   35.4997 N   0  0  0  0  0  0  0  0  0  0  0  0
   16.9702    8.3307   26.9707 C   0  0  0  0  0  0  0  0  0  0  0  0
   21.0297    7.2904   25.8022 O   0  0  0  0  0  0  0  0  0  0  0  0
   24.5066    9.9225   33.4011 O   0  0  0  0  0  0  0  0  0  0  0  0
   23.7989    8.9877   36.4126 O   0  0  0  0  0  0  0  0  0  0  0  0
   26.7701   12.6967   35.9363 N   0  0  0  0  0  0  0  0  0  0  0  0
   28.6667   11.8209   35.7054 C   0  0  0  0  0  0  0  0  0  0  0  0
   29.4703    8.7710   34.7862 N   0  0  0  0  0  0  0  0  0  0  0  0
   20.3972    9.3659   30.2744 O   0  0  0  0  0  0  0  0  0  0  0  0
   16.0252    8.0067   26.9591 O   0  0  0  0  0  0  0  0  0  0  0  0
   19.5038   10.0577   32.4683 O   0  0  0  0  0  0  0  0  0  0  0  0
   19.9893    8.9151   31.5510 P   0  0  0  0  0  0  0  0  0  0  0  0
   23.1408    7.3941   34.7538 O   0  0  0  0  0  0  0  0  0  0  0  0
   22.9160    9.0502   32.8403 C   0  0  0  0  0  0  0  0  0  0  0  0
   17.2890    6.7737   25.8940 O   0  0  0  0  0  0  0  0  0  0  0  0
   19.2258    7.8164   31.6767 O   0  0  0  0  0  0  0  0  0  0  0  0
   19.1379    8.8160   27.7908 C   0  0  0  0  0  0  0  0  0  0  0  0
   27.4614   10.7650   35.0557 C   0  0  2  0  0  0  0  0  0  0  0  0
   21.3412    9.0263   29.0765 C   0  0  2  0  0  0  0  0  0  0  0  0
   21.2099    8.9012   32.1486 O   0  0  0  0  0  0  0  0  0  0  0  0
  5  2  1  0
  6  3  1  0
  8  2  1  0
  8  7  1  0
  9  1  2  0
 10  4  1  0
 11  6  2  0
  2 12  1  6
 13  5  1  0
 14  7  2  3
 15  9  1  0
 16  1  1  0
 18 10  2  0
 20 19  1  0
 21  5  1  0
 22  5  1  0
 23 10  1  0
 24 20  1  0
 25  4  1  0
 25  6  1  0
 26  1  1  0
 26  7  1  0
 26  8  1  0
 26 15  1  6
 27  3  1  0
 27 17  1  1
 27 24  1  0
 28 20  1  0
 28 22  1  0
M  END
>  <ID>  (1) 
conformer_0

$$$$
