
     RDKit          3D

 34 37  0  0  0  0  0  0  0  0999 V2000
   29.1932    9.5553   34.9396 C   0  0  0  0  0  0  0  0  0  0  0  0
   25.0003    9.7399   34.5827 C   0  0  0  0  0  0  0  0  0  0  0  0
   17.1748    8.6001   27.4432 C   0  0  0  0  0  0  0  0  0  0  0  0
   23.7253    9.7384   35.5322 C   0  0  0  0  0  0  0  0  0  0  0  0
   22.1213    8.6639   28.4956 C   0  0  0  0  0  0  0  0  0  0  0  0
   26.0245   10.5823   34.8394 N   0  0  0  0  0  0  0  0  0  0  0  0
   26.4145   11.7651   35.3757 C   0  0  0  0  0  0  0  0  0  0  0  0
   30.1376    8.5681   34.7198 N   0  0  0  0  0  0  0  0  0  0  0  0
   19.2824    7.6699   26.6838 C   0  0  0  0  0  0  0  0  0  0  0  0
   24.0317    8.9591   36.4022 O   0  0  0  0  0  0  0  0  0  0  0  0
   24.2382   10.1040   33.4117 O   0  0  0  0  0  0  0  0  0  0  0  0
   20.1488    7.3065   26.0117 O   0  0  0  0  0  0  0  0  0  0  0  0
   20.0537   10.4625   32.4664 O   0  0  0  0  0  0  0  0  0  0  0  0
   19.7101    7.9844   30.3978 O   0  0  0  0  0  0  0  0  0  0  0  0
   29.9611   10.7585   35.6000 N   0  0  0  0  0  0  0  0  0  0  0  0
   27.1709   12.2655   35.6620 N   0  0  0  0  0  0  0  0  0  0  0  0
   20.0959    8.9849   31.4823 P   0  0  0  0  0  0  0  0  0  0  0  0
   16.6241    7.7842   26.7837 C   0  0  0  0  0  0  0  0  0  0  0  0
   15.7079    7.7087   26.5502 O   0  0  0  0  0  0  0  0  0  0  0  0
   27.9740    9.0350   34.6070 N   0  0  0  0  0  0  0  0  0  0  0  0
   22.9981    8.7493   34.0779 C   0  0  0  0  0  0  0  0  0  0  0  0
   28.7482   11.4037   35.4663 C   0  0  0  0  0  0  0  0  0  0  0  0
   17.7141    6.1932   26.5460 O   0  0  0  0  0  0  0  0  0  0  0  0
   23.0595    7.5581   34.8908 O   0  0  0  0  0  0  0  0  0  0  0  0
   21.4238    9.2499   31.4514 O   0  0  0  0  0  0  0  0  0  0  0  0
   17.5073    9.6119   28.8315 C   0  0  0  0  0  0  0  0  0  0  0  0
   19.6190   10.7319   27.9964 O   0  0  0  0  0  0  0  0  0  0  0  0
   18.9013    8.9656   28.8953 C   0  0  0  0  0  0  0  0  0  0  0  0
   27.4413   10.3263   34.8142 C   0  0  0  0  0  0  0  0  0  0  0  0
   23.3811    9.2875   32.9803 C   0  0  0  0  0  0  0  0  0  0  0  0
   19.3258    8.1530   32.3116 O   0  0  0  0  0  0  0  0  0  0  0  0
   21.1940    8.3283   27.8685 C   0  0  0  0  0  0  0  0  0  0  0  0
   22.5710    9.1434   31.2171 C   0  0  0  0  0  0  0  0  0  0  0  0
   19.0777    8.5983   28.0982 C   0  0  0  0  0  0  0  0  0  0  0  0
  4  2  1  0
  6  2  1  0
  7  6  1  0
  8  1  1  0
 10  4  1  0
 11  2  1  0
 12  9  1  0
 15  1  1  0
 16  7  2  0
 17 13  1  0
 18  3  1  0
 19 18  2  0
 20  1  1  0
 21  4  1  0
 22 15  2  0
 22 16  1  0
 23 18  1  0
 24 21  1  0
 25 17  1  0
 26  3  1  0
 28 14  1  0
 28 26  1  0
 28 27  1  0
 29  6  1  0
 29  7  1  0
 29 20  1  0
 29 22  1  0
 30 11  1  0
 30 21  1  0
 31 17  1  0
 32  5  1  0
 32  9  1  0
 33  5  1  0
 33 25  1  0
 33 30  1  0
 34  9  1  0
 34 28  1  0
M  END
>  <ID>  (1) 
conformer_0

$$$$
