
     RDKit          3D

 34 36  0  0  0  0  0  0  0  0999 V2000
   23.6318    9.4116   34.9264 C   0  0  0  0  0  0  0  0  0  0  0  0
   25.9927   11.9570   35.5536 C   0  0  0  0  0  0  0  0  0  0  0  0
   17.9660    8.9154   27.8986 C   0  0  0  0  0  0  0  0  0  0  0  0
   23.4293    8.6611   33.3717 C   0  0  0  0  0  0  0  0  0  0  0  0
   19.5246    7.8564   26.2631 C   0  0  0  0  0  0  0  0  0  0  0  0
   29.0688    9.4417   34.8994 C   0  0  0  0  0  0  0  0  0  0  0  0
   21.2253    8.6306   28.0330 C   0  0  0  0  0  0  0  0  0  0  0  0
   30.0707    8.5783   34.7335 N   0  0  0  0  0  0  0  0  0  0  0  0
   26.8909   12.4630   35.8190 N   0  0  0  0  0  0  0  0  0  0  0  0
   25.9455   10.5194   34.7963 N   0  0  0  0  0  0  0  0  0  0  0  0
   23.7864    8.8849   36.2908 O   0  0  0  0  0  0  0  0  0  0  0  0
   29.9981   10.6591   35.4487 N   0  0  0  0  0  0  0  0  0  0  0  0
   20.0894    9.3670   31.3953 P   0  0  0  0  0  0  0  0  0  0  0  0
   24.7314    9.8120   33.1182 O   0  0  0  0  0  0  0  0  0  0  0  0
   23.5725    7.2768   34.2739 O   0  0  0  0  0  0  0  0  0  0  0  0
   20.6911    7.0511   25.5956 O   0  0  0  0  0  0  0  0  0  0  0  0
   28.0177   12.0398   35.6731 C   0  0  0  0  0  0  0  0  0  0  0  0
   19.5706    7.4714   31.4046 O   0  0  0  0  0  0  0  0  0  0  0  0
   19.8391   10.0483   32.8090 O   0  0  0  0  0  0  0  0  0  0  0  0
   21.0068   11.0526   30.5145 O   0  0  0  0  0  0  0  0  0  0  0  0
   22.9207    9.3636   32.1160 C   0  0  0  0  0  0  0  0  0  0  0  0
   15.9373    7.9576   26.6917 O   0  0  0  0  0  0  0  0  0  0  0  0
   16.7908    8.1855   26.7642 C   0  0  0  0  0  0  0  0  0  0  0  0
   17.3651    6.6414   25.7023 O   0  0  0  0  0  0  0  0  0  0  0  0
   27.9530    9.0254   34.6779 N   0  0  0  0  0  0  0  0  0  0  0  0
   20.8713    8.3799   27.3601 C   0  0  0  0  0  0  0  0  0  0  0  0
   17.4061    9.7192   28.8984 C   0  0  0  0  0  0  0  0  0  0  0  0
   29.9538   12.4660   36.1177 N   0  0  0  0  0  0  0  0  0  0  0  0
   27.1780   10.4303   34.8201 C   0  0  0  0  0  0  0  0  0  0  0  0
   21.5914    9.2364   31.7813 O   0  0  0  0  0  0  0  0  0  0  0  0
   24.8370    9.5645   34.4717 C   0  0  0  0  0  0  0  0  0  0  0  0
   19.8011    9.1076   30.3168 O   0  0  0  0  0  0  0  0  0  0  0  0
   19.0068    9.2602   28.8008 C   0  0  0  0  0  0  0  0  0  0  0  0
   29.0861   11.3252   35.4556 C   0  0  0  0  0  0  0  0  0  0  0  0
  4  1  1  0
  5  3  1  0
  8  6  1  0
  9  2  2  0
 10  2  1  0
 11  1  1  0
 12  6  2  0
 14  4  1  0
 15  4  1  0
 16  5  1  0
 17  9  1  0
 19 13  1  0
 21  4  1  0
 21 20  1  0
 23  3  1  0
 23 22  2  0
 24 23  1  0
 25  6  1  0
 26  5  1  0
 26  7  3  0
 27  3  1  0
 29 10  1  0
 29 25  1  0
 30 13  1  0
 30 21  1  0
 31  1  1  0
 31 10  1  0
 31 14  1  0
 32 13  1  0
 33  3  1  0
 33 18  1  0
 33 27  1  0
 33 32  1  0
 34 12  1  0
 34 17  1  0
 34 28  1  0
M  END
>  <ID>  (1) 
conformer_0

$$$$
