
     RDKit          3D

 32 35  0  0  0  0  0  0  0  0999 V2000
   29.3102    9.4058   34.9649 C   0  0  0  0  0  0  0  0  0  0  0  0
   23.6624    9.4584   34.9890 C   0  0  0  0  0  0  0  0  0  0  0  0
   17.3569    8.6501   27.4946 C   0  0  0  0  0  0  0  0  0  0  0  0
   19.9087    8.2208   27.8776 C   0  0  0  0  0  0  0  0  0  0  0  0
   23.1296    9.0041   33.6436 C   0  0  0  0  0  0  0  0  0  0  0  0
   26.5380   11.8225   35.4369 C   0  0  0  0  0  0  0  0  0  0  0  0
   19.6197    7.7432   26.7618 C   0  0  0  0  0  0  0  0  0  0  0  0
   26.2275   10.5927   34.8365 N   0  0  0  0  0  0  0  0  0  0  0  0
   30.1569    8.1831   34.7318 N   0  0  0  0  0  0  0  0  0  0  0  0
   23.8546    8.9735   36.3374 O   0  0  0  0  0  0  0  0  0  0  0  0
   24.7081    9.9488   33.4504 O   0  0  0  0  0  0  0  0  0  0  0  0
   21.0944    7.4312   25.9899 O   0  0  0  0  0  0  0  0  0  0  0  0
   16.7103    8.1206   26.8802 C   0  0  0  0  0  0  0  0  0  0  0  0
   30.0549   10.4508   35.5353 N   0  0  0  0  0  0  0  0  0  0  0  0
   20.0569    7.7144   31.2404 O   0  0  0  0  0  0  0  0  0  0  0  0
   20.1873    9.0407   31.2911 P   0  0  0  0  0  0  0  0  0  0  0  0
   27.4293   12.3370   35.7443 N   0  0  0  0  0  0  0  0  0  0  0  0
   28.9928   11.4800   35.6417 C   0  0  0  0  0  0  0  0  0  0  0  0
   23.4398    7.4258   34.3716 O   0  0  0  0  0  0  0  0  0  0  0  0
   27.9338    8.8246   34.7248 N   0  0  0  0  0  0  0  0  0  0  0  0
   15.3181    8.2869   26.7506 O   0  0  0  0  0  0  0  0  0  0  0  0
   18.5397    9.7510   28.6744 C   0  0  0  0  0  0  0  0  0  0  0  0
   17.4816    6.6951   26.1542 O   0  0  0  0  0  0  0  0  0  0  0  0
   20.0966   10.1569   30.3950 O   0  0  0  0  0  0  0  0  0  0  0  0
   23.0405    9.3861   32.2620 C   0  0  0  0  0  0  0  0  0  0  0  0
   17.3572   10.0872   28.4430 C   0  0  0  0  0  0  0  0  0  0  0  0
   19.3786    9.5577   32.2159 O   0  0  0  0  0  0  0  0  0  0  0  0
   27.7122   10.3653   35.0409 C   0  0  0  0  0  0  0  0  0  0  0  0
   21.4416    9.1153   31.9919 O   0  0  0  0  0  0  0  0  0  0  0  0
   21.7344    8.6987   28.5594 C   0  0  0  0  0  0  0  0  0  0  0  0
   20.5651    8.7950   28.5688 C   0  0  0  0  0  0  0  0  0  0  0  0
   25.1066    9.6823   34.4392 C   0  0  0  0  0  0  0  0  0  0  0  0
  5  2  1  0
  7  4  1  0
  8  6  1  0
  9  1  1  0
 10  2  1  0
 11  5  1  0
 12  7  1  0
 13  3  1  0
 14  1  1  0
 16 15  1  0
 17  6  2  0
 18 14  2  0
 18 17  1  0
 19  5  1  0
 20  1  1  0
 21 13  2  0
 22  4  1  0
 23 13  1  0
 24 16  1  0
 25  5  1  0
 26  3  1  0
 26 22  1  0
 27 16  1  0
 28  1  1  0
 28  8  1  0
 28 18  1  0
 28 20  1  0
 29 25  1  0
 30 25  1  0
 31  4  1  0
 31 24  1  0
 31 30  1  0
 32  2  1  0
 32  8  1  0
 32 11  1  0
M  END
>  <ID>  (1) 
conformer_0

$$$$
