
     RDKit          3D

 32 34  0  0  0  0  0  0  0  0999 V2000
   29.0716    9.6408   34.9369 C   0  0  0  0  0  0  0  0  0  0  0  0
   24.9252    9.6004   34.6516 C   0  0  2  0  0  0  0  0  0  0  0  0
   23.6073    9.6058   35.3515 C   0  0  1  0  0  0  0  0  0  0  0  0
   18.2017    7.8220   27.1587 C   0  0  1  0  0  0  0  0  0  0  0  0
   20.7811    8.2369   26.9917 C   0  0  0  0  0  0  0  0  0  0  0  0
   26.2124   12.0712   35.6670 C   0  0  0  0  0  0  0  0  0  0  0  0
   29.9892   10.5532   35.4342 N   0  0  0  0  0  0  0  0  0  0  0  0
   21.8861    8.7534   28.3760 C   0  0  0  0  0  0  0  0  0  0  0  0
   30.0479    8.4279   34.7169 N   0  0  0  0  0  0  0  0  0  0  0  0
   25.9400   10.6382   34.9851 N   0  0  0  0  0  0  0  0  0  0  0  0
   26.8239   12.6383   35.9295 N   0  0  0  0  0  0  0  0  0  0  0  0
   24.4927   10.0111   33.3947 O   0  0  0  0  0  0  0  0  0  0  0  0
   23.1690    7.5070   34.6842 O   0  0  0  0  0  0  0  0  0  0  0  0
   19.7867    8.6108   29.8105 O   0  0  0  0  0  0  0  0  0  0  0  0
   28.6946   11.7702   35.6964 C   0  0  0  0  0  3  0  0  0  0  0  0
   23.3570    8.8861   33.8130 C   0  0  1  0  0  0  0  0  0  0  0  0
   19.8680   10.0938   32.0942 O   0  0  0  0  0  0  0  0  0  0  0  0
   15.4317    7.7167   26.4242 O   0  0  0  0  0  0  0  0  0  0  0  0
   16.2715    7.8089   26.6590 C   0  0  0  0  0  0  0  0  0  0  0  0
   27.8983    9.1789   34.6333 N   0  0  0  0  0  0  0  0  0  0  0  0
   20.2109    9.0473   31.4342 P   0  0  0  0  0  0  0  0  0  0  0  0
   19.0923    7.1174   26.0741 C   0  0  1  0  0  0  0  0  0  0  0  0
   23.7580    8.8922   36.5070 O   0  0  0  0  0  0  0  0  0  0  0  0
   17.3655    9.1171   27.9208 C   0  0  0  0  0  0  0  0  0  0  0  0
   21.5524    9.0609   31.6903 O   0  0  0  0  0  0  0  0  0  0  0  0
   18.5755    9.0488   28.3219 C   0  0  0  0  0  0  0  0  0  0  0  0
   20.2862    7.4299   25.8355 N   0  0  0  0  0  0  0  0  0  0  0  0
   27.4888   10.7820   35.1426 C   0  0  0  0  0  0  0  0  0  0  0  0
   23.0294    9.1630   32.3326 C   0  0  2  0  0  0  0  0  0  0  0  0
   18.2406    5.9034   25.4575 O   0  0  0  0  0  0  0  0  0  0  0  0
   21.4918    9.1730   29.3404 C   0  0  1  0  0  0  0  0  0  0  0  0
   19.5481    7.8216   31.7190 O   0  0  0  0  0  0  0  0  0  0  0  0
  3  2  1  0
  7  1  2  0
  8  5  1  0
  9  1  1  0
  2 10  1  1
 10  6  1  0
 11  6  2  3
 12  2  1  0
 15  7  1  0
 16  3  1  0
 16 12  1  0
 16 13  1  1
  4 19  1  6
 19 18  1  0
 20  1  1  0
 21 17  1  0
 22  4  1  0
  3 23  1  1
 24  4  1  0
 25 21  1  0
 26 24  1  0
 27  5  1  0
 27 22  1  0
 28  6  1  0
 28 10  1  0
 28 15  1  0
 28 20  1  0
 29 16  1  0
 29 25  1  1
 22 30  1  1
 31  8  1  0
 31 14  1  1
 31 29  1  0
 32 21  1  0
M  RAD  1  15   2
M  END
>  <ID>  (1) 
conformer_0

$$$$
