
     RDKit          3D

 36 40  0  0  0  0  0  0  0  0999 V2000
   24.8649    9.5938   34.6277 C   0  0  0  0  0  0  0  0  0  0  0  0
   29.2629    9.2464   34.8815 C   0  0  0  0  0  0  0  0  0  0  0  0
   17.5778    8.3763   27.6945 C   0  0  0  0  0  0  0  0  0  0  0  0
   23.6521    9.3650   35.2032 C   0  0  0  0  0  0  0  0  0  0  0  0
   22.2791    8.8159   28.4115 C   0  0  0  0  0  0  0  0  0  0  0  0
   29.0411   11.2721   35.4502 C   0  0  0  0  0  0  0  0  0  0  0  0
   25.9824   10.5146   34.9018 N   0  0  0  0  0  0  0  0  0  0  0  0
   29.9220    8.5373   34.7688 N   0  0  0  0  0  0  0  0  0  0  0  0
   18.9813    8.2403   26.8266 C   0  0  0  0  0  0  0  0  0  0  0  0
   21.5490    7.4480   25.8347 O   0  0  0  0  0  0  0  0  0  0  0  0
   23.9050    8.9183   36.5013 O   0  0  0  0  0  0  0  0  0  0  0  0
   16.5363    7.6552   26.6226 C   0  0  0  0  0  0  0  0  0  0  0  0
   30.1411   10.7956   35.5780 N   0  0  0  0  0  0  0  0  0  0  0  0
   24.4729    9.7671   33.4443 O   0  0  0  0  0  0  0  0  0  0  0  0
   23.0680    7.3372   34.8456 O   0  0  0  0  0  0  0  0  0  0  0  0
   26.8841   12.5678   35.8147 N   0  0  0  0  0  0  0  0  0  0  0  0
   25.6934   11.9796   35.5862 C   0  0  0  0  0  0  0  0  0  0  0  0
   15.5191    7.2315   26.6485 O   0  0  0  0  0  0  0  0  0  0  0  0
   20.2908    8.4443   30.3216 O   0  0  0  0  0  0  0  0  0  0  0  0
   19.6481   10.2058   32.2360 O   0  0  0  0  0  0  0  0  0  0  0  0
   21.1615   10.7190   30.3226 O   0  0  0  0  0  0  0  0  0  0  0  0
   20.2847    9.1633   31.4360 P   0  0  0  0  0  0  0  0  0  0  0  0
   22.7086    8.7589   34.0298 C   0  0  0  0  0  0  0  0  0  0  0  0
   17.5922    9.6094   28.7454 C   0  0  0  0  0  0  0  0  0  0  0  0
   17.6443    6.8219   25.7296 O   0  0  0  0  0  0  0  0  0  0  0  0
   18.7879    8.8037   29.0577 C   0  0  0  0  0  0  0  0  0  0  0  0
   29.6010   12.5772   35.8824 O   0  0  0  0  0  0  0  0  0  0  0  0
   27.8011    9.2777   34.5039 N   0  0  0  0  0  0  0  0  0  0  0  0
   27.7272   11.7049   35.5524 C   0  0  0  0  0  0  0  0  0  0  0  0
   21.4610    9.1514   32.2413 O   0  0  0  0  0  0  0  0  0  0  0  0
   21.6956    9.0595   29.1904 C   0  0  0  0  0  0  0  0  0  0  0  0
   20.1614    8.5261   27.8302 C   0  0  0  0  0  0  0  0  0  0  0  0
   22.9061    9.2488   32.6447 C   0  0  0  0  0  0  0  0  0  0  0  0
   21.3463    8.0933   26.8557 C   0  0  0  0  0  0  0  0  0  0  0  0
   27.2405   10.1613   34.8119 C   0  0  0  0  0  0  0  0  0  0  0  0
   19.4796    7.6054   31.8795 O   0  0  0  0  0  0  0  0  0  0  0  0
  4  1  1  0
  7  1  1  0
  8  2  1  0
  9  3  1  0
 11  4  1  0
 12  3  1  0
 13  2  2  0
 13  6  1  0
 14  1  1  0
 17  7  1  0
 17 16  2  0
 18 12  2  0
 22 19  1  0
 22 20  1  0
 23  4  1  0
 23 15  1  0
 24  3  1  0
 25 12  1  0
 26  3  1  0
 26 24  1  0
 27  6  2  0
 28  2  1  0
 29  6  1  0
 29 16  1  0
 30 22  1  0
 31  5  1  0
 31 19  1  0
 31 21  2  0
 32  9  1  0
 32 26  1  0
 33 14  1  0
 33 23  1  0
 33 30  1  0
 34  5  1  0
 34 10  2  0
 34 32  1  0
 35  7  1  0
 35 28  1  0
 35 29  2  0
 36 26  1  0
M  END
>  <ID>  (1) 
conformer_0

$$$$
