
     RDKit          3D

 31 33  0  0  0  0  0  0  0  0999 V2000
   29.1084    9.6672   34.8991 C   0  0  0  0  0  0  0  0  0  0  0  0
   24.7494    9.6850   34.7476 C   0  0  2  0  0  0  0  0  0  0  0  0
   17.6043    8.4203   27.5567 C   0  0  1  0  0  0  0  0  0  0  0  0
   18.9811    8.9735   28.5548 C   0  0  1  0  0  0  0  0  0  0  0  0
   23.4113    9.1175   34.4327 C   0  0  1  0  0  0  0  0  0  0  0  0
   21.7327    8.6624   28.2801 C   0  0  0  0  0  0  0  0  0  0  0  0
   26.3978   12.2733   35.6857 C   0  0  0  0  0  0  0  0  0  0  0  0
   29.7410   10.4079   35.2927 N   0  0  0  0  0  0  0  0  0  0  0  0
   30.3814    8.0997   34.7085 N   0  0  0  0  0  0  0  0  0  0  0  0
   26.1512   10.6887   34.8237 N   0  0  0  0  0  0  0  0  0  0  0  0
   24.7787    9.7608   33.4246 O   0  0  0  0  0  0  0  0  0  0  0  0
   26.8611   12.8357   36.0354 N   0  0  0  0  0  0  0  0  0  0  0  0
   24.0937    9.0591   36.3674 O   0  0  0  0  0  0  0  0  0  0  0  0
   20.1718    7.9523   26.8158 C   0  0  1  0  0  0  0  0  0  0  0  0
   21.5359    7.3116   25.9260 O   0  0  0  0  0  0  0  0  0  0  0  0
   15.6578    7.0555   26.6702 O   0  0  0  0  0  0  0  0  0  0  0  0
   28.7382   11.9175   35.7025 C   0  0  0  0  0  0  0  0  0  0  0  0
   23.1678    7.4278   34.7975 O   0  0  0  0  0  0  0  0  0  0  0  0
   17.3825    7.4219   26.6257 C   0  0  0  0  0  0  0  0  0  0  0  0
   21.6470    9.1725   32.0499 O   0  0  0  0  0  0  0  0  0  0  0  0
   17.3071    9.6009   28.6917 C   0  0  0  0  0  0  0  0  0  0  0  0
   19.9125   10.3614   32.4851 O   0  0  0  0  0  0  0  0  0  0  0  0
   18.0338    6.3350   25.8276 O   0  0  0  0  0  0  0  0  0  0  0  0
   29.7743   12.9435   36.3680 N   0  0  0  0  0  0  0  0  0  0  0  0
   23.0481    9.1074   32.7733 C   0  0  0  0  0  0  0  0  0  0  0  0
   21.3875    9.2319   29.1786 C   0  0  0  0  0  0  0  0  0  0  0  0
   19.2656    7.9658   31.6185 O   0  0  0  0  0  0  0  0  0  0  0  0
   27.5928   10.9654   35.0634 C   0  0  2  0  0  0  0  0  0  0  0  0
   20.2515    9.3055   31.7041 P   0  0  0  0  0  0  0  0  0  0  0  0
   28.4117    8.7320   34.7566 N   0  0  0  0  0  0  0  0  0  0  0  0
   20.3727    9.5559   30.4555 O   0  0  0  0  0  0  0  0  0  0  0  0
  4  3  1  0
  5  2  1  0
  8  1  1  0
  9  1  2  3
 10  2  1  0
 10  7  1  0
 11  2  1  0
 11  5  1  0
 12  7  2  3
  2 13  1  6
 14  4  1  0
 14  6  1  0
 14 15  1  1
 17  8  1  0
  5 18  1  6
  3 19  1  1
 19 16  2  0
 21  3  1  0
 21  4  1  0
 23 19  1  0
 24 17  2  3
 25  5  1  0
 25 20  1  0
 26  6  1  0
  4 27  1  1
 28  7  1  0
 28 10  1  1
 28 17  1  0
 29 20  1  0
 29 22  1  0
 30  1  1  0
 31 26  1  0
 31 29  1  0
M  END
>  <ID>  (1) 
conformer_0

$$$$
