
     RDKit          3D

 33 36  0  0  0  0  0  0  0  0999 V2000
   28.7862   10.6086   35.3593 C   0  0  0  0  0  0  0  0  0  0  0  0
   23.1028    9.2176   34.2556 C   0  0  0  0  0  0  0  0  0  0  0  0
   20.1406    8.7164   28.2302 C   0  0  0  0  0  0  0  0  0  0  0  0
   22.2639    8.3829   27.9655 C   0  0  0  0  0  0  0  0  0  0  0  0
   24.4158    9.6835   34.6854 C   0  0  0  0  0  0  0  0  0  0  0  0
   19.9633    9.0813   28.9366 C   0  0  0  0  0  0  0  0  0  0  0  0
   26.0279   12.1412   35.7026 C   0  0  0  0  0  0  0  0  0  0  0  0
   25.7197   10.6513   34.9614 N   0  0  0  0  0  0  0  0  0  0  0  0
   23.7638    9.2245   36.4467 O   0  0  0  0  0  0  0  0  0  0  0  0
   17.4986    8.1377   27.1134 C   0  0  0  0  0  0  0  0  0  0  0  0
   26.4291   12.5681   35.8294 N   0  0  0  0  0  0  0  0  0  0  0  0
   29.9792   10.9824   35.6988 N   0  0  0  0  0  0  0  0  0  0  0  0
   24.4796    9.9857   33.4341 O   0  0  0  0  0  0  0  0  0  0  0  0
   29.6660    8.5241   34.8518 N   0  0  0  0  0  0  0  0  0  0  0  0
   21.0006    8.9347   32.9139 O   0  0  0  0  0  0  0  0  0  0  0  0
   20.9340    8.1352   26.8576 C   0  0  0  0  0  0  0  0  0  0  0  0
   15.9061    7.7325   26.6536 O   0  0  0  0  0  0  0  0  0  0  0  0
   21.4161    7.3854   25.6640 O   0  0  0  0  0  0  0  0  0  0  0  0
   18.3490    6.4407   26.8091 O   0  0  0  0  0  0  0  0  0  0  0  0
   20.0262    9.0963   31.8482 P   0  0  0  0  0  0  0  0  0  0  0  0
   17.6629    9.1433   27.7426 C   0  0  0  0  0  0  0  0  0  0  0  0
   28.1809   12.2575   35.9233 C   0  0  0  0  0  3  0  0  0  0  0  0
   19.4893    7.5595   31.4670 O   0  0  0  0  0  0  0  0  0  0  0  0
   27.7800    9.6614   34.7406 N   0  0  0  0  0  0  0  0  0  0  0  0
   19.2761    9.9207   32.2795 O   0  0  0  0  0  0  0  0  0  0  0  0
   22.8325    9.3206   32.9223 C   0  0  0  0  0  0  0  0  0  0  0  0
   17.2053    8.5737   30.3137 O   0  0  0  0  0  0  0  0  0  0  0  0
   23.3172    7.6717   35.0654 O   0  0  0  0  0  0  0  0  0  0  0  0
   29.7678    9.0152   34.9839 C   0  0  0  0  0  0  0  0  0  0  0  0
   18.4904    7.9332   25.8485 O   0  0  0  0  0  0  0  0  0  0  0  0
   20.8127    9.4874   30.8985 O   0  0  0  0  0  0  0  0  0  0  0  0
   27.0510   10.7267   35.2139 C   0  0  0  0  0  0  0  0  0  0  0  0
   17.9627    9.8495   28.8285 C   0  0  0  0  0  0  0  0  0  0  0  0
  5  2  1  0
  6  3  1  0
  8  5  1  0
  8  7  1  0
  9  5  1  0
 11  7  2  0
 12  1  1  0
 13  2  1  0
 13  5  1  0
 16  3  1  0
 16  4  1  0
 17 10  1  0
 18 16  1  0
 20 15  1  0
 21 10  1  0
 22  1  1  0
 22 11  1  0
 23  6  1  0
 24  1  1  0
 25 20  1  0
 26  2  1  0
 26 15  1  0
 28  2  1  0
 29 12  1  0
 29 14  1  0
 30 10  1  0
 30 19  1  0
 31  6  1  0
 31 20  1  0
 32  1  1  0
 32  7  1  0
 32  8  1  0
 32 24  1  0
 33  6  1  0
 33 21  1  0
 33 27  1  0
M  RAD  1  22   2
M  END
>  <ID>  (1) 
conformer_0

$$$$
