
     RDKit          3D

 34 36  0  0  0  0  0  0  0  0999 V2000
   24.8780    9.7233   34.8677 C   0  0  0  0  0  0  0  0  0  0  0  0
   26.4594   11.8136   35.4147 C   0  0  0  0  0  0  0  0  0  0  0  0
   16.2959    9.8006   27.3475 C   0  0  0  0  0  0  0  0  0  0  0  0
   20.8972    8.5536   28.4365 C   0  0  0  0  0  0  0  0  0  0  0  0
   23.6082    9.5865   35.3668 C   0  0  0  0  0  0  0  0  0  0  0  0
   18.5112    8.9518   28.0978 C   0  0  0  0  0  0  0  0  0  0  0  0
   29.2706    9.2360   34.8942 C   0  0  0  0  0  0  0  0  0  0  0  0
   26.0848   10.4384   34.8702 N   0  0  0  0  0  0  0  0  0  0  0  0
   30.1827    8.4493   34.7530 N   0  0  0  0  0  0  0  0  0  0  0  0
   23.8137    8.9691   36.6265 O   0  0  0  0  0  0  0  0  0  0  0  0
   16.6440    7.9141   26.6887 C   0  0  0  0  0  0  0  0  0  0  0  0
   24.5166    9.8660   33.5539 O   0  0  0  0  0  0  0  0  0  0  0  0
   30.0862   10.6338   35.4922 N   0  0  0  0  0  0  0  0  0  0  0  0
   20.6302    7.6687   26.1171 O   0  0  0  0  0  0  0  0  0  0  0  0
   27.0633   12.2709   35.7866 N   0  0  0  0  0  0  0  0  0  0  0  0
   29.3376   11.1340   35.4418 C   0  0  0  0  0  0  0  0  0  0  0  0
   21.5444    8.7286   32.4138 O   0  0  0  0  0  0  0  0  0  0  0  0
   19.7539    9.7465   32.7106 O   0  0  0  0  0  0  0  0  0  0  0  0
   23.1024    7.4513   34.9463 O   0  0  0  0  0  0  0  0  0  0  0  0
   23.0133    8.9071   33.9911 C   0  0  0  0  0  0  0  0  0  0  0  0
   20.6952    8.0955   26.8004 C   0  0  0  0  0  0  0  0  0  0  0  0
   20.1900    8.8770   31.7412 P   0  0  0  0  0  0  0  0  0  0  0  0
   19.2660    7.6827   31.4413 O   0  0  0  0  0  0  0  0  0  0  0  0
   17.1540   10.3494   28.9766 C   0  0  0  0  0  0  0  0  0  0  0  0
   15.9551    7.7823   26.3508 O   0  0  0  0  0  0  0  0  0  0  0  0
   28.1313    8.9830   34.7076 N   0  0  0  0  0  0  0  0  0  0  0  0
   16.5745    6.8149   26.5827 O   0  0  0  0  0  0  0  0  0  0  0  0
   27.3827   10.1733   34.8084 C   0  0  0  0  0  0  0  0  0  0  0  0
   20.3080    9.1085   29.1738 C   0  0  0  0  0  0  0  0  0  0  0  0
   22.9637    9.2617   32.3166 C   0  0  0  0  0  0  0  0  0  0  0  0
   20.7241    9.3224   30.7158 O   0  0  0  0  0  0  0  0  0  0  0  0
   22.3622    8.4407   27.7933 C   0  0  0  0  0  0  0  0  0  0  0  0
   28.3926   11.9179   35.7150 C   0  0  0  0  0  0  0  0  0  0  0  0
   17.6468    8.8360   27.9375 C   0  0  0  0  0  0  0  0  0  0  0  0
  5  1  1  0
  8  1  1  0
  8  2  1  0
  9  7  1  0
 10  5  1  0
 12  1  1  0
 13  7  2  0
 15  2  1  0
 16 13  1  0
 20  5  1  0
 20 12  1  0
 20 19  1  0
 21  4  2  0
 21 14  2  0
 22 17  1  0
 22 18  1  0
 24  3  1  0
 25 11  2  0
 26  7  1  0
 27 11  1  0
 28  8  1  0
 28 26  1  0
 29  4  1  0
 29  6  1  0
 29 23  1  0
 30 17  1  0
 30 20  1  0
 31 22  1  0
 31 29  1  0
 32  4  1  0
 33 15  2  0
 33 16  1  0
 34  3  1  0
 34  6  1  0
 34 11  1  0
 34 24  1  0
M  END
>  <ID>  (1) 
conformer_0

$$$$
