
     RDKit          3D

 30 32  0  0  0  0  0  0  0  0999 V2000
   24.8301    9.6397   34.4164 C   0  0  0  0  0  0  0  0  0  0  0  0
   28.5121   11.6153   35.6902 C   0  0  0  0  0  0  0  0  0  0  0  0
   22.2750    8.7273   28.6121 C   0  0  0  0  0  0  0  0  0  0  0  0
   23.4424    9.3111   34.8590 C   0  0  0  0  0  0  0  0  0  0  0  0
   16.4175    7.5399   26.3612 C   0  0  0  0  0  0  0  0  0  0  0  0
   17.7289    8.8677   28.0398 C   0  0  0  0  0  0  0  0  0  0  0  0
   28.9633    9.7520   35.0923 C   0  0  0  0  0  0  0  0  0  0  0  0
   26.0495   10.6216   34.8657 N   0  0  0  0  0  0  0  0  0  0  0  0
   29.9842    8.6043   34.9589 N   0  0  0  0  0  0  0  0  0  0  0  0
   18.2188    8.1647   27.1332 C   0  0  0  0  0  0  0  0  0  0  0  0
   27.0091   12.3604   35.6967 N   0  0  0  0  0  0  0  0  0  0  0  0
   19.5431    8.1957   32.3528 O   0  0  0  0  0  1  0  0  0  0  0  0
   23.8541    8.8345   36.3347 O   0  0  0  0  0  0  0  0  0  0  0  0
   29.9986   10.7349   35.8049 N   0  0  0  0  0  0  0  0  0  0  0  0
   24.4234   10.1006   33.3354 O   0  0  0  0  0  0  0  0  0  0  0  0
   23.1837    9.0590   33.4386 C   0  0  0  0  0  0  0  0  0  0  0  0
   20.1099    8.9750   31.8423 P   0  0  0  0  0  4  0  0  0  0  0  0
   26.0034   11.8883   35.5140 C   0  0  0  0  0  0  0  0  0  0  0  0
   19.7789   10.3607   32.5743 O   0  0  0  0  0  0  0  0  0  0  0  0
   23.3444    7.3379   34.6313 O   0  0  0  0  0  0  0  0  0  0  0  0
   20.9837    9.2826   29.1880 C   0  0  0  0  0  0  0  0  0  0  0  0
   15.5173    7.3615   26.2200 O   0  0  0  0  0  0  0  0  0  0  0  0
   21.1825    9.2933   31.5030 O   0  0  0  0  0  0  0  0  0  0  0  0
   28.0055    9.2013   34.6416 N   0  0  0  0  0  0  0  0  0  0  0  0
   22.7103    9.8930   32.1681 C   0  0  0  0  0  0  0  0  0  0  0  0
   19.8258    8.3587   26.7035 N   0  0  0  0  0  0  0  0  0  0  0  0
   20.3580    8.1377   27.0500 C   0  0  0  0  0  0  0  0  0  0  0  0
   20.4077    7.4131   26.0793 O   0  0  0  0  0  0  0  0  0  0  0  0
   20.6091    8.5883   28.3777 C   0  0  0  0  0  0  0  0  0  0  0  0
   27.2517   10.5652   35.0084 C   0  0  0  0  0  0  0  0  0  0  0  0
  4  1  1  0
  8  1  1  0
  9  7  1  0
 10  5  2  0
 10  6  1  0
 11  2  2  0
 13  4  1  0
 14  2  1  0
 14  7  2  0
 15  1  1  0
 16  4  1  0
 16 15  1  0
 17 12  1  0
 18  8  1  0
 18 11  1  0
 19 17  1  0
 20  4  1  0
 21  3  1  0
 22  5  2  0
 23 17  1  0
 24  7  1  0
 25  3  1  0
 25 16  1  0
 25 23  1  0
 26 10  1  0
 27 26  1  0
 28 27  2  0
 29 21  1  0
 29 27  1  0
 30  2  1  0
 30  8  1  0
 30 24  1  0
M  RAD  2  12   2  17   2
M  END
>  <ID>  (1) 
conformer_0

$$$$
