
     RDKit          3D

 29 29  0  0  0  0  0  0  0  0999 V2000
   28.6096   10.3371   35.1339 C   0  0  0  0  0  0  0  0  0  0  0  0
   24.8020    9.5991   34.8037 C   0  0  2  0  0  0  0  0  0  0  0  0
   17.6541    8.8878   27.6666 C   0  0  0  0  0  0  0  0  0  0  0  0
   21.1388    8.5925   27.8145 C   0  0  0  0  0  0  0  0  0  0  0  0
   23.5103    9.1414   34.5891 C   0  0  0  0  0  0  0  0  0  0  0  0
   18.4928    9.6425   28.9685 C   0  0  0  0  0  0  0  0  0  0  0  0
   26.7588   11.6736   35.5644 C   0  0  0  0  0  0  0  0  0  0  0  0
   26.1255   10.6258   34.9777 N   0  0  0  0  0  0  0  0  0  0  0  0
   24.6765   10.0154   33.4622 O   0  0  0  0  0  0  0  0  0  0  0  0
   30.2285    8.7075   34.7761 N   0  0  0  0  0  0  0  0  0  0  0  0
   27.1115   12.6231   35.9657 N   0  0  0  0  0  0  0  0  0  0  0  0
   23.3004    7.3017   34.6943 O   0  0  0  0  0  0  0  0  0  0  0  0
   21.3443    7.3412   25.6558 O   0  0  0  0  0  0  0  0  0  0  0  0
   20.4824    8.0190   26.7000 C   0  0  0  0  0  0  0  0  0  0  0  0
   17.8994    8.0694   26.8420 C   0  0  0  0  0  0  0  0  0  0  0  0
   29.8906   11.1315   35.6719 N   0  0  0  0  0  0  0  0  0  0  0  0
   21.1584    9.3183   31.4207 O   0  0  0  0  0  0  0  0  0  0  0  0
   19.6503    9.7271   32.7392 O   0  0  0  0  0  0  0  0  0  0  0  0
   23.8781    8.9317   36.4544 O   0  0  0  0  0  0  0  0  0  0  0  0
   20.0949    9.0065   31.7751 P   0  0  0  0  0  5  0  0  0  0  0  0
   23.0710    9.0193   32.9929 C   0  0  0  0  0  0  0  0  0  0  0  0
   17.4841   10.0390   29.1207 C   0  0  0  0  0  0  0  0  0  0  0  0
   28.6197   11.8847   35.7943 C   0  0  0  0  0  0  0  0  0  0  0  0
   19.6060    7.8404   31.2751 O   0  0  0  0  0  0  0  0  0  0  0  0
   17.3691    6.0634   25.8280 O   0  0  0  0  0  0  0  0  0  0  0  0
   19.4713    9.0541   28.6053 N   0  0  0  0  0  0  0  0  0  0  0  0
   20.5874    8.9457   28.8871 C   0  0  2  0  0  0  0  0  0  0  0  0
   28.2512    9.4683   34.7161 N   0  0  0  0  0  0  0  0  0  0  0  0
   22.3494    8.7931   28.7252 C   0  0  0  0  0  0  0  0  0  0  0  0
  5  2  1  0
  6  3  1  0
  8  2  1  0
  8  7  1  0
  2  9  1  6
 11  7  1  0
 12  5  1  0
 14  4  2  3
 14 13  1  0
 15  3  1  0
 16  1  1  0
 19  5  1  0
 20 17  1  0
 20 18  1  0
 21  5  1  0
 21 20  1  0
 22  6  1  0
 23  1  1  0
 23 11  1  0
 23 16  2  0
 24 17  1  0
 25 15  1  0
 26  6  1  0
 27  4  1  0
 27 20  1  0
 27 26  1  6
 28  1  1  0
 28 10  1  0
 29  4  1  0
M  END
>  <ID>  (1) 
conformer_0

$$$$
