
     RDKit          3D

 29 31  0  0  0  0  0  0  0  0999 V2000
   29.3929    9.9156   35.1673 C   0  0  0  0  0  0  0  0  0  0  0  0
   24.7014    9.6195   34.6853 C   0  0  2  0  0  0  0  0  0  0  0  0
   18.4202    8.8829   27.7755 C   0  0  1  0  0  0  0  0  0  0  0  0
   23.4546    9.2025   34.5670 C   0  0  0  0  0  0  0  0  0  0  0  0
   21.3879    8.4551   28.2915 C   0  0  0  0  0  0  0  0  0  0  0  0
   26.3827   11.7069   35.4369 C   0  0  0  0  0  0  0  0  0  0  0  0
   19.7594    7.9103   26.5617 C   0  0  1  0  0  0  0  0  0  0  0  0
   26.1833   10.6401   34.8394 N   0  0  0  0  0  0  0  0  0  0  0  0
   30.0725    8.7541   34.8763 N   0  0  0  0  0  0  0  0  0  0  0  0
   16.9702    7.9501   26.7862 C   0  0  0  0  0  0  0  0  0  0  0  0
   24.6614    9.8854   33.3553 O   0  0  0  0  0  0  0  0  0  0  0  0
   23.8501    8.8804   36.3304 O   0  0  0  0  0  0  0  0  0  0  0  0
   27.0908   12.4396   35.7306 N   0  0  0  0  0  0  0  0  0  0  0  0
   19.8112   10.1746   32.6349 O   0  0  0  0  0  0  0  0  0  0  0  0
   19.6144    7.8339   31.3939 O   0  0  0  0  0  0  0  0  0  0  0  0
   15.5988    8.5400   26.6080 O   0  0  0  0  0  0  0  0  0  0  0  0
   20.1830    8.9468   31.5307 P   0  0  0  0  0  5  0  0  0  0  0  0
   21.0554    7.4615   25.8260 O   0  0  0  0  0  0  0  0  0  0  0  0
   28.9734   11.8361   35.8212 C   0  0  0  0  0  0  0  0  0  0  0  0
   23.1241    8.9891   32.8954 C   0  0  2  0  0  0  0  0  0  0  0  0
   21.2098    9.4199   31.3444 O   0  0  0  0  0  0  0  0  0  0  0  0
   30.3231   10.7246   35.8046 N   0  0  0  0  0  0  0  0  0  0  0  0
   18.4033    9.3855   28.4727 C   0  0  0  0  0  0  0  0  0  0  0  0
   23.2143    7.4173   34.7834 O   0  0  0  0  0  0  0  0  0  0  0  0
   28.2136    9.5018   34.6487 N   0  0  0  0  0  0  0  0  0  0  0  0
   27.7389   10.8564   35.0954 C   0  0  1  0  0  0  0  0  0  0  0  0
   18.0061    6.9181   25.9485 O   0  0  0  0  0  0  0  0  0  0  0  0
   17.4072    9.9126   28.5760 C   0  0  0  0  0  0  0  0  0  0  0  0
   20.8444    8.8260   28.3738 C   0  0  1  0  0  0  0  0  0  0  0  0
  4  2  1  0
  7  3  1  0
  2  8  1  1
  8  6  1  0
  9  1  1  0
 10  3  1  0
 11  2  1  0
 12  4  1  0
 13  6  2  3
 16 10  2  0
 17 14  1  0
  7 18  1  6
 20  4  1  0
 20 11  1  0
 20 17  1  6
 21 15  1  0
 21 17  1  0
 22  1  2  0
 22 19  1  0
  3 23  1  1
 24  4  1  0
 25  1  1  0
 26  6  1  0
 26  8  1  0
 26 19  1  1
 26 25  1  0
 27 10  1  0
 28 23  1  0
 29  5  1  1
 29  7  1  0
 29 17  1  0
M  END
>  <ID>  (1) 
conformer_0

$$$$
