
     RDKit          3D

 32 33  0  0  0  0  0  0  0  0999 V2000
   25.0027    9.6299   34.2329 C   0  0  0  0  0  0  0  0  0  0  0  0
   28.9703    9.7233   34.9784 C   0  0  0  0  0  0  0  0  0  0  0  0
   17.4788    9.1461   28.0360 C   0  0  0  0  0  0  0  0  0  0  0  0
   21.7325    8.6722   28.2154 C   0  0  0  0  0  0  0  0  0  0  0  0
   23.1569    8.8434   33.7336 C   0  0  0  0  0  0  0  0  0  0  0  0
   19.0178    7.9503   26.7764 C   0  0  0  0  0  0  0  0  0  0  0  0
   26.1295   10.4019   34.7030 N   0  0  0  0  0  0  0  0  0  0  0  0
   24.8375    9.6017   33.0500 O   0  0  0  0  0  0  0  0  0  0  0  0
   26.8961   12.0454   35.6864 C   0  0  0  0  0  0  0  0  0  0  0  0
   23.9963    9.1551   36.3995 O   0  0  0  0  0  0  0  0  0  0  0  0
   30.1411    8.6084   34.8163 N   0  0  0  0  0  0  0  0  0  0  0  0
   21.1103    7.4305   25.9296 O   0  0  0  0  0  0  0  0  0  0  0  0
   29.8033   10.6041   35.5774 N   0  0  0  0  0  0  0  0  0  0  0  0
   16.6563    8.3988   26.7661 C   0  0  0  0  0  0  0  0  0  0  0  0
   26.8045   12.3979   35.8226 N   0  0  0  0  0  0  0  0  0  0  0  0
   19.8174    9.9429   32.3387 O   0  0  0  0  0  0  0  0  0  0  0  0
   21.7350    8.5942   32.0321 O   0  0  0  0  0  0  0  0  0  0  0  0
   28.7517   11.7068   35.7216 C   0  0  0  0  0  0  0  0  0  0  0  0
   18.3309    6.3417   26.3590 O   0  0  0  0  0  0  0  0  0  0  0  0
   20.1742    8.7900   31.5877 P   0  0  0  0  0  4  0  0  0  0  0  0
   23.0946    9.1225   32.3193 C   0  0  0  0  0  0  0  0  0  0  0  0
   16.1822    8.3126   26.2740 O   0  0  0  0  0  0  0  0  0  0  0  0
   19.4308    7.5867   31.4865 O   0  0  0  0  0  1  0  0  0  0  0  0
   23.0930    7.7196   35.0404 O   0  0  0  0  0  0  0  0  0  0  0  0
   18.5362    9.3962   28.6206 C   0  0  0  0  0  0  0  0  0  0  0  0
   28.0739    8.9864   34.6635 N   0  0  0  0  0  0  0  0  0  0  0  0
   18.9213    8.3734   27.9788 C   0  0  0  0  0  0  0  0  0  0  0  0
   27.1751   10.4400   34.9469 C   0  0  0  0  0  0  0  0  0  0  0  0
   20.6821    9.1824   30.3756 O   0  0  0  0  0  0  0  0  0  0  0  0
   20.8519    8.9461   29.1091 C   0  0  0  0  0  0  0  0  0  0  0  0
   23.6748    9.7285   35.0727 C   0  0  0  0  0  0  0  0  0  0  0  0
   20.9887    8.1838   26.8671 C   0  0  0  0  0  0  0  0  0  0  0  0
  7  1  1  0
  8  1  2  0
 11  2  1  0
 13  2  1  0
 14  3  1  0
 15  9  1  0
 18  9  1  0
 18 13  2  0
 19  6  1  0
 20 16  1  0
 21  5  1  0
 21 17  1  0
 22 14  1  0
 23 20  1  0
 24  5  1  0
 25  3  1  0
 26  2  1  0
 27  3  1  0
 27  6  1  0
 27 25  1  0
 28  7  1  0
 28  9  2  0
 28 26  1  0
 29 20  1  0
 30  4  1  0
 30 21  1  0
 30 29  1  0
 31  1  1  0
 31  5  1  0
 31 10  1  0
 32  4  1  0
 32  6  1  0
 32 12  2  0
M  RAD  2  20   2  23   2
M  END
>  <ID>  (1) 
conformer_0

$$$$
