
     RDKit          3D

 29 31  0  0  0  0  0  0  0  0999 V2000
   24.3400    9.6641   34.7953 C   0  0  1  0  0  0  0  0  0  0  0  0
   26.9131   11.8914   35.5451 C   0  0  0  0  0  0  0  0  0  0  0  0
   18.3413    8.7785   27.6051 C   0  0  0  0  0  0  0  0  0  0  0  0
   23.3920    9.0029   34.2889 C   0  0  1  0  0  0  0  0  0  0  0  0
   20.3231    8.0164   26.8148 C   0  0  0  0  0  0  0  0  0  0  0  0
   21.8223    8.4559   28.1780 C   0  0  0  0  0  0  0  0  0  0  0  0
   29.0364   10.0579   35.0396 C   0  0  1  0  0  0  0  0  0  0  0  0
   26.0640   10.4707   34.7496 N   0  0  0  0  0  0  0  0  0  0  0  0
   30.2041    9.0375   34.7267 N   0  0  0  0  0  0  0  0  0  0  0  0
   27.0452   12.3517   35.7943 N   0  0  0  0  0  0  0  0  0  0  0  0
   16.9757    8.0401   26.9218 C   0  0  0  0  0  0  0  0  0  0  0  0
   20.6696    7.1814   25.8964 O   0  0  0  0  0  0  0  0  0  0  0  0
   23.0008    7.4827   34.9034 O   0  0  0  0  0  0  0  0  0  0  0  0
   24.4794    9.8505   33.4131 O   0  0  0  0  0  0  0  0  0  0  0  0
   19.9570    9.0966   31.6852 P   0  0  2  0  0  4  0  0  0  0  0  0
   21.7593    9.1632   29.2762 C   0  0  1  0  0  0  0  0  0  0  0  0
   20.9792    9.7789   30.8707 O   0  0  0  0  0  0  0  0  0  0  0  0
   15.6952    8.1623   27.0218 O   0  0  0  0  0  0  0  0  0  0  0  0
   30.0076   10.8775   35.6868 N   0  0  0  0  0  0  0  0  0  0  0  0
   19.7655    9.6307   32.8186 O   0  0  0  0  0  0  0  0  0  0  0  0
   28.7916   11.7547   35.7130 C   0  0  0  0  0  3  0  0  0  0  0  0
   19.5468    7.8228   31.2436 O   0  0  0  0  0  1  0  0  0  0  0  0
   23.0760    8.9778   32.5765 C   0  0  0  0  0  0  0  0  0  0  0  0
   28.1163    9.2305   34.6127 N   0  0  0  0  0  0  0  0  0  0  0  0
   17.4577    9.7834   28.9830 C   0  0  0  0  0  0  0  0  0  0  0  0
   23.9341    8.8993   36.3835 O   0  0  0  0  0  0  0  0  0  0  0  0
   18.9983    9.0647   28.2543 C   0  0  1  0  0  0  0  0  0  0  0  0
   27.1607   10.2286   34.7838 C   0  0  0  0  0  0  0  0  0  0  0  0
   17.6240    6.7645   26.1214 N   0  0  0  0  0  0  0  0  0  0  0  0
  4  1  1  0
  6  5  2  3
  8  1  1  0
  7  9  1  6
 10  2  1  0
 11  3  1  0
 12  5  1  0
  4 13  1  6
 14  1  1  0
 14  4  1  0
 16  6  1  0
 17 15  1  0
 17 16  1  0
 18 11  2  0
 19  7  1  0
 15 20  1  1
 21  2  1  0
 21  7  1  0
 21 19  1  0
 22 15  1  0
 23  4  1  0
 16 23  1  1
 24  7  1  0
  1 26  1  1
 27  3  1  0
 27  5  1  0
 27 25  1  6
 28  2  2  0
 28  8  1  0
 28 24  1  0
 29 11  1  0
M  RAD  3  15   2  21   2  22   2
M  END
>  <ID>  (1) 
conformer_0

$$$$
