
     RDKit          3D

 30 30  0  0  0  0  0  0  0  0999 V2000
   23.6722    9.8296   35.3454 C   0  0  1  0  0  0  0  0  0  0  0  0
   29.0947    9.8685   35.0724 C   0  0  0  0  0  0  0  0  0  0  0  0
   17.0777    7.5565   26.8612 C   0  0  0  0  0  0  0  0  0  0  0  0
   21.1461    8.4791   27.7855 C   0  0  0  0  0  0  0  0  0  0  0  0
   23.1651    8.8385   34.1561 C   0  0  2  0  0  0  0  0  0  0  0  0
   26.3013   11.9870   35.6092 C   0  0  0  0  0  0  0  0  0  0  0  0
   18.0173    9.4098   28.4147 C   0  0  0  0  0  0  0  0  0  0  0  0
   26.1410   10.6547   34.9902 N   0  0  0  0  0  0  0  0  0  0  0  0
   30.1062    8.6730   34.9680 N   0  0  0  0  0  0  0  0  0  0  0  0
   24.6519    9.9756   33.6456 O   0  0  0  0  0  0  0  0  0  0  0  0
   23.2071    7.3228   34.7620 O   0  0  0  0  0  0  0  0  0  0  0  0
   30.0381   10.9354   35.6048 N   0  0  0  0  0  0  0  0  0  0  0  0
   20.3346    9.5488   29.0183 C   0  0  2  0  0  0  0  0  0  0  0  0
   26.9451   12.6127   35.8398 N   0  0  0  0  0  0  0  0  0  0  0  0
   20.4339    9.5128   30.5433 O   0  0  0  0  0  0  0  0  0  0  0  0
   28.7158   11.8560   35.7284 C   0  0  0  0  0  0  0  0  0  0  0  0
   21.3343    7.0867   25.5994 O   0  0  0  0  0  0  0  0  0  0  0  0
   23.7133    8.9422   36.4860 O   0  0  0  0  0  0  0  0  0  0  0  0
   20.0598   10.4085   32.7301 O   0  0  0  0  0  0  0  0  0  0  0  0
   20.4917    9.2525   31.6980 P   0  0  0  0  0  0  0  0  0  0  0  0
   20.6186    7.9273   26.5427 C   0  0  0  0  0  0  0  0  0  0  0  0
   23.1345    9.2289   32.6330 C   0  0  0  0  0  0  0  0  0  0  0  0
   15.6521    7.3498   26.8875 O   0  0  0  0  0  0  0  0  0  0  0  0
   28.1526    9.1132   34.6880 N   0  0  0  0  0  0  0  0  0  0  0  0
   19.6911    8.0502   32.1734 O   0  0  0  0  0  0  0  0  0  0  0  0
   21.7528    9.2926   32.2879 O   0  0  0  0  0  0  0  0  0  0  0  0
   27.5286   10.6958   35.0767 C   0  0  0  0  0  0  0  0  0  0  0  0
   18.3407    8.4599   27.7780 C   0  0  2  0  0  0  0  0  0  0  0  0
   18.9198    7.5540   26.1666 N   0  0  0  0  0  0  0  0  0  0  0  0
   25.0491    9.6627   34.6830 C   0  0  2  0  0  0  0  0  0  0  0  0
  5  1  1  0
  8  6  1  0
  9  2  1  0
  5 11  1  6
 12  2  1  0
 13  4  1  0
 14  6  2  3
 15 13  1  0
 16 12  1  0
  1 18  1  1
 20 15  1  0
 20 19  1  0
 21  4  1  0
 21 17  2  0
 22  5  1  0
 23  3  1  0
 24  2  1  0
 13 25  1  1
 26 20  1  0
 26 22  1  0
 27  2  1  0
 27  8  1  0
 27 16  2  0
 28  3  1  0
 28  7  1  6
 29 21  1  0
 29 28  1  0
 30  1  1  0
 30  8  1  0
 30 10  1  6
M  END
>  <ID>  (1) 
conformer_0

$$$$
