
     RDKit          3D

 33 34  0  0  0  0  0  0  0  0999 V2000
   29.1212    9.5846   35.0098 C   0  0  0  0  0  0  0  0  0  0  0  0
   24.8187    9.8039   34.6508 C   0  0  2  0  0  0  0  0  0  0  0  0
   18.4429    9.6738   28.3261 C   0  0  0  0  0  0  0  0  0  0  0  0
   23.6305    9.7974   35.2610 C   0  0  2  0  0  0  0  0  0  0  0  0
   21.9795    8.8328   28.3270 C   0  0  0  0  0  0  0  0  0  0  0  0
   18.4452    7.9150   27.0383 C   0  0  1  0  0  0  0  0  0  0  0  0
   26.0260   10.5903   34.9023 N   0  0  0  0  0  0  0  0  0  0  0  0
   26.4371   11.9854   35.5557 C   0  0  0  0  0  0  0  0  0  0  0  0
   30.1611    8.5725   34.9256 N   0  0  0  0  0  0  0  0  0  0  0  0
   16.7126    7.5474   26.7222 C   0  0  0  0  0  0  0  0  0  0  0  0
   23.7748    9.3258   36.5885 O   0  0  0  0  0  0  0  0  0  0  0  0
   24.4692    9.9032   33.3662 O   0  0  0  0  0  0  0  0  0  0  0  0
   15.7234    7.2723   26.6793 O   0  0  0  0  0  0  0  0  0  0  0  0
   20.8187    9.1733   30.5632 O   0  0  0  0  0  0  0  0  0  0  0  0
   23.0114    8.9995   33.8072 C   0  0  1  0  0  0  0  0  0  0  0  0
   26.8569   12.4903   35.8257 N   0  0  0  0  0  0  0  0  0  0  0  0
   19.7812   10.0863   32.3891 O   0  0  0  0  0  0  0  0  0  0  0  0
   19.5360    9.6516   28.6509 C   0  0  0  0  0  0  0  0  0  0  0  0
   28.0964    9.0658   34.7064 N   0  0  0  0  0  0  0  0  0  0  0  0
   21.1470    7.6954   26.3674 O   0  0  0  0  0  0  0  0  0  0  0  0
   20.1134    8.7696   31.7163 P   0  0  0  0  0  0  0  0  0  0  0  0
   29.7375   10.8826   35.6994 N   0  0  0  0  0  0  0  0  0  0  0  0
   28.5721   11.5391   35.5756 C   0  0  0  0  0  0  0  0  0  0  0  0
   17.9412    6.0146   26.5345 O   0  0  0  0  0  0  0  0  0  0  0  0
   17.1599    9.6159   27.8857 C   0  0  0  0  0  0  0  0  0  0  0  0
   23.3158    7.7687   35.0200 O   0  0  0  0  0  0  0  0  0  0  0  0
   19.2097    7.7450   31.5254 O   0  0  0  0  0  0  0  0  0  0  0  0
   23.0906    9.2229   32.2643 C   0  0  2  0  0  0  0  0  0  0  0  0
   19.2559    8.2196   26.6273 N   0  0  0  0  0  0  0  0  0  0  0  0
   27.3345   10.3665   34.9881 C   0  0  0  0  0  0  0  0  0  0  0  0
   20.6903    8.3272   27.1880 C   0  0  0  0  0  0  0  0  0  0  0  0
   21.9718    9.4045   29.8151 C   0  0  1  0  0  0  0  0  0  0  0  0
   21.1935    8.5112   32.4948 O   0  0  0  0  0  0  0  0  0  0  0  0
  4  2  1  0
  6  3  1  0
  2  7  1  1
  8  7  1  0
  9  1  1  0
 10  6  1  0
  4 11  1  1
 12  2  1  0
 13 10  2  0
 15  4  1  0
 15 12  1  0
 16  8  3  0
 18  3  2  3
 19  1  1  0
 21 17  1  0
 22  1  2  0
 23 22  1  0
 24 10  1  0
 25  3  1  0
 15 26  1  1
 27 21  1  0
 28 15  1  0
  6 29  1  6
 30  7  1  0
 30 19  1  0
 30 23  2  0
 31  5  1  0
 31 20  2  0
 31 29  1  0
 32  5  1  0
 32 14  1  1
 32 28  1  0
 33 21  1  0
 28 33  1  6
M  END
>  <ID>  (1) 
conformer_0

$$$$
