
     RDKit          3D

 35 37  0  0  0  0  0  0  0  0999 V2000
   24.9414    9.7023   34.8275 C   0  0  0  0  0  0  0  0  0  0  0  0
   28.9346    9.9004   34.9945 C   0  0  0  0  0  0  0  0  0  0  0  0
   18.2305    8.5154   27.7053 C   0  0  0  0  0  0  0  0  0  0  0  0
   23.5676    8.7865   33.8463 C   0  0  0  0  0  0  0  0  0  0  0  0
   21.8958    8.3457   27.5181 C   0  0  0  0  0  0  0  0  0  0  0  0
   18.6081    9.3640   28.2850 C   0  0  0  0  0  0  0  0  0  0  0  0
   26.3716   12.1625   35.7618 C   0  0  0  0  0  0  0  0  0  0  0  0
   26.1564   10.6682   34.9971 N   0  0  0  0  0  0  0  0  0  0  0  0
   29.9231   10.7905   35.5240 N   0  0  0  0  0  0  0  0  0  0  0  0
   24.5840   10.0688   33.5392 O   0  0  0  0  0  0  0  0  0  0  0  0
   30.0367    8.4729   34.8456 N   0  0  0  0  0  0  0  0  0  0  0  0
   23.7896    8.9373   36.4855 O   0  0  0  0  0  0  0  0  0  0  0  0
   20.0602    8.8406   31.4384 P   0  0  0  0  0  5  0  0  0  0  0  0
   26.9787   12.6925   35.9687 N   0  0  0  0  0  0  0  0  0  0  0  0
   16.9924    7.9407   26.7017 C   0  0  0  0  0  0  0  0  0  0  0  0
   23.6052    7.3013   34.2935 O   0  0  0  0  0  0  0  0  0  0  0  0
   28.7128   11.9172   35.7664 C   0  0  0  0  0  0  0  0  0  0  0  0
   23.1932    9.3163   32.3428 C   0  0  0  0  0  0  0  0  0  0  0  0
   20.4963    9.5842   29.9810 O   0  0  0  0  0  0  0  0  0  0  0  0
   19.0791    7.8228   26.2364 C   0  0  0  0  0  0  0  0  0  0  0  0
   16.0500    7.2605   26.8788 O   0  0  0  0  0  0  0  0  0  0  0  0
   19.7365   10.1605   32.2444 O   0  0  0  0  0  0  0  0  0  0  0  0
   27.9653    9.0266   34.7007 N   0  0  0  0  0  0  0  0  0  0  0  0
   17.6032    8.2843   30.1076 O   0  0  0  0  0  0  0  0  0  0  0  0
   19.7808    7.6116   30.8808 O   0  0  0  0  0  0  0  0  0  0  0  0
   19.9584    6.9440   25.0657 O   0  0  0  0  0  0  0  0  0  0  0  0
   29.9831   12.6644   36.1460 O   0  0  0  0  0  0  0  0  0  0  0  0
   19.2483    8.5355   26.4222 N   0  0  0  0  0  0  0  0  0  0  0  0
   27.3816   10.7546   35.0833 C   0  0  0  0  0  3  0  0  0  0  0  0
   20.6823    9.3705   28.7464 C   0  0  0  0  0  0  0  0  0  0  0  0
   23.5658    9.6304   35.2420 C   0  0  0  0  0  0  0  0  0  0  0  0
   17.0928    9.7065   28.2705 C   0  0  0  0  0  0  0  0  0  0  0  0
   19.8435    8.2739   32.8018 O   0  0  0  0  0  0  0  0  0  0  0  0
   21.2214    8.0756   26.4648 C   0  0  0  0  0  0  0  0  0  0  0  0
   21.8494    9.2609   31.6566 O   0  0  0  0  0  0  0  0  0  0  0  0
  6  3  1  0
  8  1  1  0
  8  7  1  0
  9  2  1  0
 10  1  1  0
 10  4  1  0
 11  2  1  0
 14  7  2  0
 15  3  1  0
 16  4  1  0
 17  9  1  0
 17 14  1  0
 18  4  1  0
 19 13  1  0
 21 15  1  0
 22 13  1  0
 23  2  1  0
 24  6  1  0
 25 13  1  0
 26 20  1  0
 27 17  1  0
 28  3  1  0
 28 20  1  0
 29  2  1  0
 29  8  1  0
 29 17  1  0
 30  5  1  0
 30 19  1  0
 31  1  1  0
 31  4  1  0
 31 12  1  0
 32  6  1  0
 33 25  1  0
 34  5  1  0
 34 28  1  0
 35 13  1  0
 35 18  1  0
M  RAD  1  29   2
M  END
>  <ID>  (1) 
conformer_0

$$$$
