
     RDKit          3D

 29 31  0  0  0  0  0  0  0  0999 V2000
   23.3774    9.0490   34.7969 C   0  0  0  0  0  0  0  0  0  0  0  0
   29.2797    9.9796   35.1791 C   0  0  0  0  0  0  0  0  0  0  0  0
   20.3795    8.3580   27.8933 C   0  0  1  0  0  0  0  0  0  0  0  0
   16.9116    9.8870   28.3625 C   0  0  0  0  0  0  0  0  0  0  0  0
   18.7783    9.1087   28.2347 C   0  0  0  0  0  0  0  0  0  0  0  0
   24.8421    9.6795   34.8267 C   0  0  2  0  0  0  0  0  0  0  0  0
   26.4511   12.1681   35.5269 C   0  0  0  0  0  0  0  0  0  0  0  0
   23.8412    8.9879   36.5415 O   0  0  0  0  0  0  0  0  0  0  0  0
   30.3698    8.4100   34.8271 N   0  0  0  0  0  0  0  0  0  0  0  0
   26.1444   10.7903   34.9103 N   0  0  0  0  0  0  0  0  0  0  0  0
   24.7408    9.8071   33.5522 O   0  0  0  0  0  0  0  0  0  0  0  0
   26.8694   12.7117   35.8530 N   0  0  0  0  0  0  0  0  0  0  0  0
   23.2278    7.1404   34.7226 O   0  0  0  0  0  0  0  0  0  0  0  0
   30.2806   10.9111   35.8417 N   0  0  0  0  0  0  0  0  0  0  0  0
   20.0975   10.1659   32.0271 O   0  0  0  0  0  0  0  0  0  0  0  0
   17.0035    8.0500   26.5278 C   0  0  0  0  0  0  0  0  0  0  0  0
   19.6648    7.9958   26.4346 C   0  0  0  0  0  0  0  0  0  0  0  0
   15.6536    7.3122   26.6930 O   0  0  0  0  0  0  0  0  0  0  0  0
   19.7551    7.9269   31.7680 O   0  0  0  0  0  0  0  0  0  0  0  0
   28.9972   12.0609   35.9272 C   0  0  0  0  0  0  0  0  0  0  0  0
   21.0573    9.0247   29.6450 C   0  0  0  0  0  0  0  0  0  0  0  0
   23.3407    8.7551   33.2534 C   0  0  2  0  0  0  0  0  0  0  0  0
   20.2411    6.8838   25.2492 O   0  0  0  0  0  0  0  0  0  0  0  0
   21.9158    9.0863   32.0476 O   0  0  0  0  0  0  0  0  0  0  0  0
   21.7714    8.7495   28.7636 C   0  0  0  0  0  0  0  0  0  0  0  0
   17.3245    8.7242   27.3324 C   0  0  0  0  0  0  0  0  0  0  0  0
   28.7644    9.5774   34.8647 N   0  0  0  0  0  0  0  0  0  0  0  0
   20.5278    8.9924   31.8471 P   0  0  0  0  0  0  0  0  0  0  0  0
   27.7655   11.1366   35.2578 C   0  0  2  0  0  0  0  0  0  0  0  0
  5  3  1  0
  6  1  1  0
  8  1  1  0
  9  2  1  0
  6 10  1  1
 10  7  1  0
 11  6  1  0
 12  7  2  3
 13  1  1  0
 14  2  1  0
  3 17  1  6
 18 16  1  0
 20 14  2  0
 21 19  1  0
 22  1  1  0
 22 11  1  0
 23 17  1  0
 22 24  1  6
 25  3  1  0
 25 21  1  0
 26  4  1  0
 26  5  2  3
 26 16  1  0
 27  2  1  0
 28 15  1  0
 28 19  1  0
 28 24  1  0
 29  2  1  0
 29  7  1  0
 29 10  1  6
 29 20  1  0
M  END
>  <ID>  (1) 
conformer_0

$$$$
