
     RDKit          3D

 30 31  0  0  0  0  0  0  0  0999 V2000
   24.6428    9.5860   34.7463 C   0  0  2  0  0  0  0  0  0  0  0  0
   26.8702   11.0597   34.9363 C   0  0  0  0  0  0  0  0  0  0  0  0
   22.0740    8.7607   28.5725 C   0  0  0  0  0  0  0  0  0  0  0  0
   18.0738    8.2229   28.0753 C   0  0  2  0  0  0  0  0  0  0  0  0
   23.4179    9.1489   34.5581 C   0  0  1  0  0  0  0  0  0  0  0  0
   20.0143    8.0585   27.0199 C   0  0  0  0  0  0  0  0  0  0  0  0
   27.3241   12.1300   35.6105 N   0  0  0  0  0  0  0  0  0  0  0  0
   16.9881    7.9971   26.8309 C   0  0  0  0  0  0  0  0  0  0  0  0
   26.2574   10.3543   34.7011 N   0  0  0  0  0  0  0  0  0  0  0  0
   30.2018    8.8470   34.8974 N   0  0  0  0  0  0  0  0  0  0  0  0
   28.6017    9.8683   34.8659 C   0  0  0  0  0  0  0  0  0  0  0  0
   23.1531    7.3738   34.8119 O   0  0  0  0  0  0  0  0  0  0  0  0
   30.0562   11.1683   35.6585 N   0  0  0  0  0  0  0  0  0  0  0  0
   20.6249    7.4389   26.2854 O   0  0  0  0  0  0  0  0  0  0  0  0
   20.2046    9.0689   31.7844 P   0  0  0  0  0  0  0  0  0  0  0  0
   20.7378    9.5480   30.5513 O   0  0  0  0  0  0  0  0  0  0  0  0
   19.5896    9.8958   32.5878 O   0  0  0  0  0  0  0  0  0  0  0  0
   24.4421    9.9414   33.4344 O   0  0  0  0  0  0  0  0  0  0  0  0
   18.5073    9.4155   28.3695 C   0  0  0  0  0  0  0  0  0  0  0  0
   24.0371    8.8861   36.3547 O   0  0  0  0  0  0  0  0  0  0  0  0
   15.6284    8.1142   26.8049 O   0  0  0  0  0  0  0  0  0  0  0  0
   16.5273    6.6957   26.1907 O   0  0  0  0  0  0  0  0  0  0  0  0
   22.9741    8.9486   33.0263 C   0  0  0  0  0  0  0  0  0  0  0  0
   29.9768   12.5417   36.2035 O   0  0  0  0  0  0  0  0  0  0  0  0
   21.2460    9.0892   28.9522 C   0  0  2  0  0  0  0  0  0  0  0  0
   19.6284    7.5945   31.2994 O   0  0  0  0  0  0  0  0  0  0  0  0
   28.6381   11.3552   35.4332 C   0  0  2  0  0  0  0  0  0  0  0  0
   28.2167    8.9749   34.7618 N   0  0  0  0  0  0  0  0  0  0  0  0
   21.5685    8.8951   32.2623 O   0  0  0  0  0  0  0  0  0  0  0  0
   17.5929    9.5809   29.1656 C   0  0  0  0  0  0  0  0  0  0  0  0
  5  1  1  0
  6  4  1  0
  7  2  2  0
  8  4  1  0
  9  1  1  0
  9  2  1  0
 11 10  2  3
  5 12  1  6
 14  6  2  0
 16 15  1  0
 17 15  1  0
 18  1  1  0
 18  5  1  0
  4 19  1  6
  1 20  1  6
 21  8  1  0
 22  8  1  0
 23  5  1  0
 24 13  1  0
 25  3  1  1
 25  6  1  0
 25 16  1  0
 26 25  1  0
 27  2  1  0
 27  7  1  0
 27 11  1  0
 27 13  1  6
 28 11  1  0
 29 15  1  0
 29 23  1  0
 30 19  1  0
M  END
>  <ID>  (1) 
conformer_0

$$$$
