
     RDKit          3D

 32 34  0  0  0  0  0  0  0  0999 V2000
   24.8522    9.6171   34.6057 C   0  0  2  0  0  0  0  0  0  0  0  0
   29.2448    9.6135   34.9295 C   0  0  0  0  0  0  0  0  0  0  0  0
   23.6157    9.3978   35.1026 C   0  0  2  0  0  0  0  0  0  0  0  0
   19.0311    7.6978   26.5325 C   0  0  0  0  0  0  0  0  0  0  0  0
   17.8885    9.2510   28.5157 C   0  0  0  0  0  0  0  0  0  0  0  0
   21.4375    8.7633   28.2736 C   0  0  0  0  0  0  0  0  0  0  0  0
   26.5370   11.7502   35.4758 C   0  0  0  0  0  0  0  0  0  0  0  0
   30.3059    8.3615   34.5958 N   0  0  0  0  0  0  0  0  0  0  0  0
   26.0169   10.5053   34.8682 N   0  0  0  0  0  0  0  0  0  0  0  0
   27.1642   12.3245   35.7853 N   0  0  0  0  0  0  0  0  0  0  0  0
   24.5583    9.8558   33.2377 O   0  0  0  0  0  0  0  0  0  0  0  0
   20.0238    9.1079   31.4952 P   0  0  0  0  0  0  0  0  0  0  0  0
   21.0114    7.6128   25.8896 O   0  0  0  0  0  0  0  0  0  0  0  0
   23.1188    7.3888   34.7317 O   0  0  0  0  0  0  0  0  0  0  0  0
   19.8206   10.1591   32.6800 O   0  0  0  0  0  0  0  0  0  0  0  0
   18.8609    7.8761   31.9535 O   0  0  0  0  0  0  0  0  0  0  0  0
   16.8492    7.7424   26.7558 C   0  0  0  0  0  0  0  0  0  0  0  0
   16.0701    7.1845   26.5540 O   0  0  0  0  0  0  0  0  0  0  0  0
   29.9973   10.2689   35.3534 N   0  0  0  0  0  0  0  0  0  0  0  0
   23.7864    8.9345   36.4319 O   0  0  0  0  0  0  0  0  0  0  0  0
   28.9204   11.6207   35.5686 C   0  0  2  0  0  0  0  0  0  0  0  0
   23.1420    8.6956   33.6554 C   0  0  2  0  0  0  0  0  0  0  0  0
   21.3432    8.6498   31.9802 O   0  0  0  0  0  0  0  0  0  0  0  0
   18.3330    9.1649   28.6240 C   0  0  0  0  0  0  0  0  0  0  0  0
   30.0552   12.0888   35.8354 N   0  0  0  0  0  0  0  0  0  0  0  0
   20.4619    8.4602   26.8905 C   0  0  1  0  0  0  0  0  0  0  0  0
   28.2573    9.1917   34.6472 N   0  0  0  0  0  0  0  0  0  0  0  0
   22.9632    9.1000   32.2517 C   0  0  2  0  0  0  0  0  0  0  0  0
   27.5701   10.5070   34.9218 C   0  0  1  0  0  0  0  0  0  0  0  0
   19.6715    8.5233   30.2532 O   0  0  0  0  0  0  0  0  0  0  0  0
   21.2306   10.1943   30.4935 O   0  0  0  0  0  0  0  0  0  0  0  0
   21.4061    9.3513   29.1866 C   0  0  2  0  0  0  0  0  0  0  0  0
  3  1  1  0
  8  2  1  0
  9  1  1  0
  9  7  1  0
 10  7  2  0
  1 11  1  6
 15 12  1  0
 17  4  1  0
 17  5  1  0
 18 17  2  0
 19  2  2  0
  3 20  1  1
 21 10  1  0
 21 19  1  0
 22  3  1  0
 22 14  1  6
 23 12  1  0
 24  5  2  3
 21 25  1  6
 26  4  1  0
 26  6  1  0
 26 13  1  6
 27  2  1  0
 28 22  1  0
 28 23  1  1
 29  7  1  0
 29  9  1  0
 29 21  1  0
 29 27  1  6
 30 12  1  0
 30 16  1  0
 32  6  1  0
 32 28  1  0
 32 31  1  1
M  END
>  <ID>  (1) 
conformer_0

$$$$
