
     RDKit          3D

 32 36  0  0  0  0  0  0  0  0999 V2000
   29.2759    9.8487   35.1160 C   0  0  0  0  0  0  0  0  0  0  0  0
   23.1500    8.9969   34.0517 C   0  0  0  0  0  0  0  0  0  0  0  0
   17.5755    8.6566   27.8107 C   0  0  0  0  0  0  0  0  0  0  0  0
   19.8915    8.2915   28.0384 C   0  0  0  0  0  0  0  0  0  0  0  0
   22.9914    9.4622   32.7408 C   0  0  0  0  0  0  0  0  0  0  0  0
   26.3470   11.9746   35.5952 C   0  0  0  0  0  0  0  0  0  0  0  0
   17.1088    8.0022   26.8537 C   0  0  0  0  0  0  0  0  0  0  0  0
   26.2468   10.6120   35.0241 N   0  0  0  0  0  0  0  0  0  0  0  0
   30.2423    8.4026   34.7899 N   0  0  0  0  0  0  0  0  0  0  0  0
   24.5751   10.0853   33.5813 O   0  0  0  0  0  0  0  0  0  0  0  0
   24.0196    8.9380   36.5123 O   0  0  0  0  0  0  0  0  0  0  0  0
   30.0442   10.6576   35.6269 N   0  0  0  0  0  0  0  0  0  0  0  0
   20.1652    9.3344   31.6998 P   0  0  0  0  0  4  0  0  0  0  0  0
   19.5616   10.5494   32.5826 O   0  0  0  0  0  0  0  0  0  0  0  0
   20.7252    9.8503   30.5470 O   0  0  0  0  0  1  0  0  0  0  0  0
   17.4419    9.8997   28.6347 C   0  0  0  0  0  0  0  0  0  0  0  0
   27.2469   12.5055   35.8309 N   0  0  0  0  0  0  0  0  0  0  0  0
   23.3906    7.4663   34.5757 O   0  0  0  0  0  0  0  0  0  0  0  0
   28.9831   11.8166   35.7855 C   0  0  0  0  0  0  0  0  0  0  0  0
   20.3529    7.0462   25.6342 O   0  0  0  0  0  0  0  0  0  0  0  0
   20.5010    8.2642   27.1055 C   0  0  0  0  0  0  0  0  0  0  0  0
   25.1888    9.6608   34.7502 C   0  0  0  0  0  0  0  0  0  0  0  0
   18.8461    9.5852   28.8353 C   0  0  0  0  0  0  0  0  0  0  0  0
   19.4862    8.0052   31.8917 O   0  0  0  0  0  0  0  0  0  0  0  0
   18.7461    7.8566   26.0248 N   0  0  0  0  0  0  0  0  0  0  0  0
   28.3014    9.0763   34.7549 N   0  0  0  0  0  0  0  0  0  0  0  0
   15.7269    7.1397   26.8473 O   0  0  0  0  0  0  0  0  0  0  0  0
   21.8079    8.5230   28.1801 C   0  0  0  0  0  0  0  0  0  0  0  0
   21.4601    9.3281   32.4123 O   0  0  0  0  0  0  0  0  0  0  0  0
   27.6321   10.7665   35.1310 C   0  0  0  0  0  0  0  0  0  0  0  0
   23.8073    9.7142   35.3837 C   0  0  0  0  0  0  0  0  0  0  0  0
   18.7231    7.2703   26.0302 C   0  0  0  0  0  0  0  0  0  0  0  0
  5  2  1  0
  7  3  1  0
  8  6  1  0
  9  1  1  0
 10  2  1  0
 12  1  1  0
 14 13  1  0
 15 13  1  0
 16  3  1  0
 17  6  2  0
 18  2  1  0
 19 12  2  0
 19 17  1  0
 21  4  1  0
 22  8  1  0
 22 10  1  0
 23  3  1  0
 23  4  1  0
 23 16  1  0
 24 13  1  0
 24 23  1  0
 25  7  1  0
 26  1  1  0
 27  7  1  0
 28 21  1  0
 29  5  1  0
 29 13  1  0
 30  1  1  0
 30  6  1  0
 30  8  1  0
 30 19  1  0
 31  2  1  0
 31 11  1  0
 31 22  1  0
 32 20  1  0
 32 25  1  0
M  RAD  2  13   2  15   2
M  END
>  <ID>  (1) 
conformer_0

$$$$
