
     RDKit          3D

 30 33  0  0  0  0  0  0  0  0999 V2000
   29.1491    9.6863   35.0453 C   0  0  0  0  0  0  0  0  0  0  0  0
   24.8786    9.3475   34.3464 C   0  0  0  0  0  0  0  0  0  0  0  0
   23.1363    8.8017   33.8663 C   0  0  0  0  0  0  0  0  0  0  0  0
   17.2275    9.6579   28.1733 C   0  0  0  0  0  0  0  0  0  0  0  0
   21.8358    8.7136   28.3325 C   0  0  0  0  0  0  0  0  0  0  0  0
   28.6893   11.4704   35.5624 C   0  0  0  0  0  0  0  0  0  0  0  0
   20.8292    8.1724   27.0555 C   0  0  0  0  0  0  0  0  0  0  0  0
   25.9914   10.5777   34.9267 N   0  0  0  0  0  0  0  0  0  0  0  0
   30.1553    8.5445   34.9293 N   0  0  0  0  0  0  0  0  0  0  0  0
   17.0615    8.3915   27.1354 C   0  0  0  0  0  0  0  0  0  0  0  0
   23.8591    8.7517   36.2860 O   0  0  0  0  0  0  0  0  0  0  0  0
   27.0022   12.2011   35.6525 N   0  0  0  0  0  0  0  0  0  0  0  0
   21.3431    7.6304   26.1410 O   0  0  0  0  0  0  0  0  0  0  0  0
   20.4384    9.4162   31.4311 P   0  0  0  0  0  5  0  0  0  0  0  0
   20.8074   10.7139   30.5398 O   0  0  0  0  0  0  0  0  0  0  0  0
   24.4508   10.0493   33.3459 O   0  0  0  0  0  0  0  0  0  0  0  0
   19.6821    9.9168   32.6284 O   0  0  0  0  0  0  0  0  0  0  0  0
   23.0381    9.0234   32.4161 C   0  0  0  0  0  0  0  0  0  0  0  0
   23.6619    7.3028   34.2829 O   0  0  0  0  0  0  0  0  0  0  0  0
   20.0553    7.9718   31.0436 O   0  0  0  0  0  0  0  0  0  0  0  0
   26.2242   11.7429   35.4405 C   0  0  0  0  0  0  0  0  0  0  0  0
   30.0481   10.5183   35.5621 N   0  0  0  0  0  0  0  0  0  0  0  0
   15.8957    8.1869   26.7588 O   0  0  0  0  0  0  0  0  0  0  0  0
   16.9439    6.9864   26.7751 O   0  0  0  0  0  0  0  0  0  0  0  0
   19.2963    9.1278   28.3594 C   0  0  0  0  0  0  0  0  0  0  0  0
   27.9344    8.9289   34.7705 N   0  0  0  0  0  0  0  0  0  0  0  0
   21.7592    9.4853   31.9918 O   0  0  0  0  0  0  0  0  0  0  0  0
   27.4912   10.4816   34.9821 C   0  0  0  0  0  0  0  0  0  0  0  0
   23.7742    9.7411   35.2146 C   0  0  0  0  0  0  0  0  0  0  0  0
   18.9319    8.9319   28.3491 C   0  0  0  0  0  0  0  0  0  0  0  0
  3  2  1  0
  7  5  1  0
  8  2  1  0
  9  1  1  0
 10  4  1  0
 12  6  2  0
 13  7  2  0
 16  2  1  0
 17 14  1  0
 18  3  1  0
 19  3  1  0
 20 14  1  0
 20 15  1  0
 21  8  1  0
 21 12  1  0
 22  1  1  0
 22  6  1  0
 23 10  1  0
 24 10  1  0
 25  7  1  0
 25 14  1  0
 26  1  1  0
 27 14  1  0
 27 18  1  0
 28  1  1  0
 28  6  1  0
 28  8  1  0
 28 26  1  0
 29  2  1  0
 29  3  1  0
 29 11  1  0
 30  4  1  0
 30 25  1  0
M  END
>  <ID>  (1) 
conformer_0

$$$$
