
     RDKit          3D

 31 32  0  0  0  0  0  0  0  0999 V2000
   27.1323   10.1881   34.8451 C   0  0  0  0  0  0  0  0  0  0  0  0
   24.8253    9.7945   34.6625 C   0  0  2  0  0  0  0  0  0  0  0  0
   17.4959    9.4822   28.8963 C   0  0  0  0  0  0  0  0  0  0  0  0
   23.7023    9.7433   35.4163 C   0  0  2  0  0  0  0  0  0  0  0  0
   22.0779    8.8092   28.4772 C   0  0  0  0  0  0  0  0  0  0  0  0
   20.0916    8.1329   26.4963 C   0  0  0  0  0  0  0  0  0  0  0  0
   26.0445   10.5018   34.8508 N   0  0  0  0  0  0  0  0  0  0  0  0
   26.4889   11.9717   35.5751 C   0  0  0  0  0  0  0  0  0  0  0  0
   30.2362    8.8253   35.0873 N   0  0  0  0  0  0  0  0  0  0  0  0
   26.9403   12.4827   35.8254 N   0  0  0  0  0  0  0  0  0  0  0  0
   21.0330    7.3623   25.7888 O   0  0  0  0  0  0  0  0  0  0  0  0
   23.9112    9.0309   36.4985 O   0  0  0  0  0  0  0  0  0  0  0  0
   24.3750   10.0373   33.2613 O   0  0  0  0  0  0  0  0  0  0  0  0
   17.2918    8.2953   26.5473 C   0  0  0  0  0  0  0  0  0  0  0  0
   19.8697    9.0399   31.5421 P   0  0  1  0  0  4  0  0  0  0  0  0
   19.7323   10.0730   32.5818 O   0  0  0  0  0  0  0  0  0  0  0  0
   22.9917    8.9926   34.0208 C   0  0  2  0  0  0  0  0  0  0  0  0
   21.4142    8.8226   31.8573 O   0  0  0  0  0  0  0  0  0  0  0  0
   15.7800    7.8546   26.7539 O   0  0  0  0  0  0  0  0  0  0  0  0
   22.9357    7.7540   34.8712 O   0  0  0  0  0  0  0  0  0  0  0  0
   28.5697   11.5179   35.5063 C   0  0  0  0  0  0  0  0  0  0  0  0
   19.0232    7.8423   31.4255 O   0  0  0  0  0  1  0  0  0  0  0  0
   17.8308    8.8187   27.7996 C   0  0  0  0  0  0  0  0  0  0  0  0
   28.1436    8.9011   34.7899 N   0  0  0  0  0  0  0  0  0  0  0  0
   19.0751    9.0485   28.7586 C   0  0  0  0  0  0  0  0  0  0  0  0
   23.1452    9.2417   32.7667 C   0  0  1  0  0  0  0  0  0  0  0  0
   29.3386   11.5101   35.7622 N   0  0  0  0  0  0  0  0  0  0  0  0
   28.9480    9.6946   35.0337 C   0  0  0  0  0  0  0  0  0  0  0  0
   20.2862    9.6213   30.3769 O   0  0  0  0  0  0  0  0  0  0  0  0
   22.3732    9.2426   30.6780 C   0  0  1  0  0  0  0  0  0  0  0  0
   20.4016    8.7767   27.9764 C   0  0  1  0  0  0  0  0  0  0  0  0
  4  2  1  0
  7  1  1  0
  2  7  1  1
  8  7  1  0
 10  8  3  0
 11  6  1  0
  4 12  1  1
 13  2  1  0
 15 16  1  6
 17  4  1  0
 19 14  1  0
 17 20  1  6
 22 15  1  0
 23  3  1  0
 23 14  1  0
 24  1  1  0
 25  3  1  0
 25 23  1  0
 26 13  1  1
 26 17  1  0
 27 21  2  3
 28  9  2  3
 28 21  1  0
 28 24  1  0
 29 15  1  0
 29 25  1  0
 30  5  1  0
 30 18  1  1
 30 26  1  0
 31  5  1  1
 31  6  1  0
 31 25  1  0
M  RAD  2  15   2  22   2
M  END
>  <ID>  (1) 
conformer_0

$$$$
