
     RDKit          3D

 32 38  0  0  0  0  0  0  0  0999 V2000
   24.9676    9.5412   34.4652 C   0  0  0  0  0  0  0  0  0  0  0  0
   26.7427   11.7866   35.4799 C   0  0  0  0  0  0  0  0  0  0  0  0
   21.5964    8.3354   27.8874 C   0  0  0  0  0  0  0  0  0  0  0  0
   17.2088    8.6752   27.6114 C   0  0  0  0  0  0  0  0  0  0  0  0
   23.2551    8.8328   33.8753 C   0  0  0  0  0  0  0  0  0  0  0  0
   21.5438    9.1844   29.7064 C   0  0  0  0  0  0  0  0  0  0  0  0
   29.2598    9.9687   34.9576 C   0  0  0  0  0  0  0  0  0  0  0  0
   26.1085   10.4544   34.7853 N   0  0  0  0  0  0  0  0  0  0  0  0
   23.9196    8.9286   36.4709 O   0  0  0  0  0  0  0  0  0  0  0  0
   30.3116    8.9159   34.6581 N   0  0  0  0  0  0  0  0  0  0  0  0
   20.7627    8.4214   27.3862 C   0  0  0  0  0  0  0  0  0  0  0  0
   27.2082   12.2968   35.7661 N   0  0  0  0  0  0  0  0  0  0  0  0
   23.4308    7.2933   34.4633 O   0  0  0  0  0  0  0  0  0  0  0  0
   16.3041    7.7294   26.7162 C   0  0  0  0  0  0  0  0  0  0  0  0
   24.4375   10.1290   33.5581 O   0  0  0  0  0  0  0  0  0  0  0  0
   29.8323   11.0083   35.3254 N   0  0  0  0  0  0  0  0  0  0  0  0
   23.0309    9.3577   32.4198 C   0  0  0  0  0  0  0  0  0  0  0  0
   15.2975    7.3386   26.7355 O   0  0  0  0  0  0  0  0  0  0  0  0
   19.3286    7.9800   31.5010 O   0  0  0  0  0  1  0  0  0  0  0  0
   19.8090   10.3245   32.2844 O   0  0  0  0  0  0  0  0  0  0  0  0
   19.4840    8.8301   27.7040 N   0  0  0  0  0  0  0  0  0  0  0  0
   28.8244   11.7442   35.5879 C   0  0  0  0  0  0  0  0  0  0  0  0
   18.5816    8.9544   28.6548 C   0  0  0  0  0  0  0  0  0  0  0  0
   20.1988    7.5685   26.0614 O   0  0  0  0  0  0  0  0  0  0  0  0
   20.1041    9.1652   31.8093 P   0  0  0  0  0  4  0  0  0  0  0  0
   28.2322    9.0215   34.7234 N   0  0  0  0  0  0  0  0  0  0  0  0
   21.2257    9.0269   31.7278 O   0  0  0  0  0  0  0  0  0  0  0  0
   23.5861    9.6243   35.2534 C   0  0  0  0  0  0  0  0  0  0  0  0
   27.4171   10.3479   34.7965 C   0  0  0  0  0  0  0  0  0  0  0  0
   17.4221    9.8129   28.7550 C   0  0  0  0  0  0  0  0  0  0  0  0
   18.7825    8.4919   26.6552 C   0  0  0  0  0  0  0  0  0  0  0  0
   22.4661    8.9075   28.9877 C   0  0  0  0  0  0  0  0  0  0  0  0
  8  1  1  0
  8  2  1  0
 10  7  1  0
 11  3  1  0
 12  2  2  0
 13  5  1  0
 14  4  1  0
 15  1  1  0
 15  5  1  0
 16  7  1  0
 17  5  1  0
 17  6  1  0
 18 14  2  0
 21 11  1  0
 22 12  1  0
 22 16  2  0
 23  4  1  0
 23 21  1  0
 24 11  1  0
 25 19  1  0
 25 20  1  0
 26  7  1  0
 27 17  1  0
 27 25  1  0
 28  1  1  0
 28  5  1  0
 28  9  1  0
 29  2  1  0
 29  7  1  0
 29  8  1  0
 29 26  1  0
 30  4  1  0
 30 23  1  0
 31  4  1  0
 31 21  1  0
 31 24  1  0
 32  3  1  0
 32  6  1  0
M  RAD  2  19   2  25   2
M  END
>  <ID>  (1) 
conformer_0

$$$$
