
     RDKit          3D

 31 32  0  0  0  0  0  0  0  0999 V2000
   24.9542    9.6694   34.8208 C   0  0  0  0  0  0  0  0  0  0  0  0
   28.9928   10.0904   35.0194 C   0  0  0  0  0  0  0  0  0  0  0  0
   23.6030    9.5576   35.1957 C   0  0  0  0  0  0  0  0  0  0  0  0
   17.6138    9.5380   28.4246 C   0  0  0  0  0  0  0  0  0  0  0  0
   19.4462    8.4489   27.7682 C   0  0  0  0  0  0  0  0  0  0  0  0
   17.6283    8.0960   26.5544 C   0  0  0  0  0  0  0  0  0  0  0  0
   26.0663   10.6125   34.9405 N   0  0  0  0  0  0  0  0  0  0  0  0
   26.4796   12.1746   35.7428 C   0  0  0  0  0  0  0  0  0  0  0  0
   24.6715    9.7501   33.4416 O   0  0  0  0  0  0  0  0  0  0  0  0
   30.1335    8.6457   34.7917 N   0  0  0  0  0  0  0  0  0  0  0  0
   23.9530    9.1069   36.5047 O   0  0  0  0  0  0  0  0  0  0  0  0
   26.9028   12.6176   35.9288 N   0  0  0  0  0  0  0  0  0  0  0  0
   19.7824    9.2401   32.7200 O   0  0  0  0  0  0  0  0  0  0  0  0
   23.1090    7.4763   34.7314 O   0  0  0  0  0  0  0  0  0  0  0  0
   29.4724   10.9764   35.5165 N   0  0  0  0  0  0  0  0  0  0  0  0
   21.4749    8.7857   31.3258 O   0  0  0  0  0  0  0  0  0  0  0  0
   23.1943    8.8060   33.7645 C   0  0  0  0  0  0  0  0  0  0  0  0
   19.9323    8.7643   31.1313 P   0  0  0  0  0  4  0  0  0  0  0  0
   20.9931    7.6857   25.9472 O   0  0  0  0  0  0  0  0  0  0  0  0
   19.2953    7.4443   31.0139 O   0  0  0  0  0  1  0  0  0  0  0  0
   28.5651   11.9726   35.7121 C   0  0  0  0  0  0  0  0  0  0  0  0
   18.5179    9.1174   28.8521 C   0  0  0  0  0  0  0  0  0  0  0  0
   17.1782    8.7023   26.0824 O   0  0  0  0  0  0  0  0  0  0  0  0
   19.9506    8.1105   26.8209 C   0  0  0  0  0  0  0  0  0  0  0  0
   28.0251    9.2792   34.6999 N   0  0  0  0  0  0  0  0  0  0  0  0
   21.6749    8.5613   28.3041 C   0  0  0  0  0  0  0  0  0  0  0  0
   22.9570    9.1248   32.2470 C   0  0  0  0  0  0  0  0  0  0  0  0
   17.9235    6.9071   25.5389 O   0  0  0  0  0  0  0  0  0  0  0  0
   27.1550   10.6846   34.9645 C   0  0  0  0  0  0  0  0  0  0  0  0
   21.3488    9.1457   29.3533 C   0  0  0  0  0  0  0  0  0  0  0  0
   20.0400    9.7967   30.5247 O   0  0  0  0  0  0  0  0  0  0  0  0
  3  1  1  0
  6  5  1  0
  7  1  1  0
  9  1  1  0
 10  2  1  0
 11  3  1  0
 12  8  1  0
 15  2  2  0
 17  3  1  0
 17  9  1  0
 17 14  1  0
 18 13  1  0
 20 18  1  0
 21 12  2  0
 21 15  1  0
 22  4  1  0
 22  5  1  0
 23  6  1  0
 24  5  1  0
 24 19  1  0
 25  2  1  0
 26 24  1  0
 27 16  1  0
 27 17  1  0
 28  6  1  0
 29  7  1  0
 29  8  2  0
 29 25  1  0
 30 26  1  0
 30 27  1  0
 31 18  1  0
 31 30  1  0
M  RAD  2  18   2  20   2
M  END
>  <ID>  (1) 
conformer_0

$$$$
