
     RDKit          3D

 33 36  0  0  0  0  0  0  0  0999 V2000
   24.9063    9.4984   34.4648 C   0  0  2  0  0  0  0  0  0  0  0  0
   29.2479    9.6128   34.9679 C   0  0  2  0  0  0  0  0  0  0  0  0
   17.5317    9.7546   28.4628 C   0  0  0  0  0  0  0  0  0  0  0  0
   22.9663    8.7595   34.1793 C   0  0  2  0  0  0  0  0  0  0  0  0
   26.5267   11.7899   35.4269 C   0  0  0  0  0  0  0  0  0  0  0  0
   26.0052   10.4464   34.8495 N   0  0  0  0  0  0  0  0  0  0  0  0
   21.7987    9.1770   29.3483 C   0  0  0  0  0  0  0  0  0  0  0  0
   30.3521    8.3732   34.7726 N   0  0  0  0  0  0  0  0  0  0  0  0
   17.0678    7.6684   26.5073 C   0  0  0  0  0  0  0  0  0  0  0  0
   23.7916    8.9334   36.5560 O   0  0  0  0  0  0  0  0  0  0  0  0
   24.5835    9.7143   33.4228 O   0  0  0  0  0  0  0  0  0  0  0  0
   23.0613    7.2584   35.0009 O   0  0  0  0  0  0  0  0  0  0  0  0
   15.5111    8.0406   26.6463 O   0  0  0  0  0  0  0  0  0  0  0  0
   17.6463    8.1356   27.6174 C   0  0  1  0  0  0  0  0  0  0  0  0
   20.6297    7.4616   26.0360 O   0  0  0  0  0  0  0  0  0  0  0  0
   19.7483   10.1278   32.2733 O   0  0  0  0  0  0  0  0  0  0  0  0
   22.0602    8.6978   28.1678 C   0  0  0  0  0  0  0  0  0  0  0  0
   29.9113   10.8623   35.4877 N   0  0  0  0  0  0  0  0  0  0  0  0
   19.8734    7.8726   31.1245 O   0  0  0  0  0  0  0  0  0  0  0  0
   20.5017    9.2356   31.9536 P   0  0  0  0  0  0  0  0  0  0  0  0
   23.1512    9.0313   32.4806 C   0  0  2  0  0  0  0  0  0  0  0  0
   27.1305   12.2611   35.7145 N   0  0  0  0  0  0  0  0  0  0  0  0
   20.1803    7.7435   26.5911 C   0  0  0  0  0  0  0  0  0  0  0  0
   28.7356   11.5248   35.5100 C   0  0  0  0  0  0  0  0  0  0  0  0
   17.0739    6.9089   25.4448 O   0  0  0  0  0  0  0  0  0  0  0  0
   20.4226   10.1594   29.5380 O   0  0  0  0  0  0  0  0  0  0  0  0
   21.9466    9.4302   31.7581 O   0  0  0  0  0  0  0  0  0  0  0  0
   19.6084    9.2892   28.5791 C   0  0  0  0  0  0  0  0  0  0  0  0
   27.4574   10.3617   34.9076 C   0  0  0  0  0  0  0  0  0  0  0  0
   28.2762    8.9300   34.7788 N   0  0  0  0  0  0  0  0  0  0  0  0
   23.6576    9.5494   35.3777 C   0  0  1  0  0  0  0  0  0  0  0  0
   20.6505    8.2564   33.0503 O   0  0  0  0  0  0  0  0  0  0  0  0
   19.4254    8.5682   27.6432 C   0  0  0  0  0  0  0  0  0  0  0  0
  1  6  1  1
  6  5  1  0
  2  8  1  1
 11  1  1  0
  4 12  1  6
 13  9  2  0
 14  3  1  6
 14  9  1  0
 17  7  2  3
 18  2  1  0
 20 16  1  0
 21  4  1  0
 21  7  1  0
 21 11  1  0
 22  5  2  0
 23 15  2  0
 24 18  2  0
 24 22  1  0
 25  9  1  0
 26  7  1  0
 27 20  1  0
 21 27  1  6
 28 26  1  0
 29  5  1  0
 29  6  1  0
 29 24  1  0
 30  2  1  0
 30 29  1  0
 31  1  1  0
 31  4  1  0
 31 10  1  1
 32 19  1  0
 32 20  1  0
 33 14  1  0
 33 23  2  0
 33 28  1  0
M  END
>  <ID>  (1) 
conformer_0

$$$$
