
     RDKit          3D

 32 34  0  0  0  0  0  0  0  0999 V2000
   23.8659    9.3681   35.2021 C   0  0  2  0  0  0  0  0  0  0  0  0
   29.2616   10.2355   35.2048 C   0  0  1  0  0  0  0  0  0  0  0  0
   17.4674    8.4027   27.5145 C   0  0  0  0  0  0  0  0  0  0  0  0
   20.6381    8.3646   27.5477 C   0  0  0  0  0  0  0  0  0  0  0  0
   25.2818    9.4043   34.5073 C   0  0  2  0  0  0  0  0  0  0  0  0
   26.4897   11.9124   35.6091 C   0  0  0  0  0  3  0  0  0  0  0  0
   19.0853    9.3849   28.3541 C   0  0  0  0  0  0  0  0  0  0  0  0
   26.1863   10.4568   34.8582 N   0  0  0  0  0  0  0  0  0  0  0  0
   29.9865    8.6663   35.0179 N   0  0  0  0  0  0  0  0  0  0  0  0
   24.6241    9.7410   33.4189 O   0  0  0  0  0  0  0  0  0  0  0  0
   23.5725    7.2387   34.5456 O   0  0  0  0  0  0  0  0  0  0  0  0
   21.6837    7.3788   25.8368 O   0  0  0  0  0  0  0  0  0  0  0  0
   24.0272    9.0235   36.4600 O   0  0  0  0  0  0  0  0  0  0  0  0
   15.5728    7.2064   26.4959 O   0  0  0  0  0  0  0  0  0  0  0  0
   17.2033    7.3566   26.6526 C   0  0  0  0  0  0  0  0  0  0  0  0
   20.2225    9.3848   31.5899 P   0  0  0  0  0  0  0  0  0  0  0  0
   27.0875   12.5876   35.8564 N   0  0  0  0  0  0  0  0  0  0  0  0
   20.1659    9.6932   29.9375 O   0  0  0  0  0  0  0  0  0  0  0  0
   19.4362   10.2693   32.3854 O   0  0  0  0  0  0  0  0  0  0  0  0
   29.7705   10.9083   35.5463 N   0  0  0  0  0  2  0  0  0  0  0  0
   17.0578    9.6299   28.1111 C   0  0  0  0  0  0  0  0  0  0  0  0
   22.8577    8.8052   34.2276 C   0  0  2  0  0  0  0  0  0  0  0  0
   17.9191    5.9336   26.1578 O   0  0  0  0  0  0  0  0  0  0  0  0
   28.7756   12.0171   35.7908 C   0  0  0  0  0  0  0  0  0  0  0  0
   19.8187    8.0230   31.8345 O   0  0  0  0  0  0  0  0  0  0  0  0
   21.5090    9.3324   29.2243 C   0  0  1  0  0  0  0  0  0  0  0  0
   20.3332    7.9804   26.8207 C   0  0  0  0  0  0  0  0  0  0  0  0
   21.5323    9.6126   31.8128 O   0  0  0  0  0  0  0  0  0  0  0  0
   22.2180    8.7218   28.1979 C   0  0  0  0  0  0  0  0  0  0  0  0
   27.9894    8.9746   34.7991 N   0  0  0  0  0  0  0  0  0  0  0  0
   27.4558   10.6480   35.0708 C   0  0  1  0  0  0  0  0  0  0  0  0
   23.0086    9.0057   32.6420 C   0  0  0  0  0  0  0  0  0  0  0  0
  5  1  1  0
  7  4  2  3
  8  5  1  0
  8  6  1  0
  2  9  1  6
  5 10  1  6
  1 13  1  1
 15  3  1  0
 15 14  2  0
 17  6  1  0
 19 16  1  0
 20  2  1  0
 21  3  1  0
 21  7  1  0
 22  1  1  0
 22 11  1  6
 23 15  1  0
 24 17  2  0
 24 20  1  0
 25 16  1  0
 26 18  1  6
 26 25  1  0
 27  4  1  0
 27 12  1  0
 28 16  1  0
 29  4  1  0
 29 26  1  0
 30  2  1  0
 31  2  1  0
 31  6  1  0
 31  8  1  0
 31 30  1  6
 32 22  1  0
 32 28  1  0
M  RAD  2   6   2  20   2
M  END
>  <ID>  (1) 
conformer_0

$$$$
