
     RDKit          3D

 29 31  0  0  0  0  0  0  0  0999 V2000
   29.2933    9.7811   35.0704 C   0  0  0  0  0  0  0  0  0  0  0  0
   24.6623    9.6222   34.8252 C   0  0  2  0  0  0  0  0  0  0  0  0
   17.9325    8.9315   27.9519 C   0  0  0  0  0  0  0  0  0  0  0  0
   21.8933    8.6568   28.3241 C   0  0  0  0  0  0  0  0  0  0  0  0
   23.3626    9.0245   34.6846 C   0  0  0  0  0  0  0  0  0  0  0  0
   18.5728    9.5420   28.6581 C   0  0  0  0  0  0  0  0  0  0  0  0
   16.9265    7.7084   26.5230 C   0  0  0  0  0  0  0  0  0  0  0  0
   26.3894   11.9370   35.6090 C   0  0  0  0  0  0  0  0  0  0  0  0
   26.1921   10.6279   34.9236 N   0  0  0  0  0  0  0  0  0  0  0  0
   30.3810    8.3581   34.7243 N   0  0  0  0  0  0  0  0  0  0  0  0
   22.0001    7.5844   25.8781 O   0  0  0  0  0  0  0  0  0  0  0  0
   23.8919    8.9457   36.5249 O   0  0  0  0  0  0  0  0  0  0  0  0
   24.6674   10.0073   33.5367 O   0  0  0  0  0  0  0  0  0  0  0  0
   30.1639   10.8511   35.6704 N   0  0  0  0  0  0  0  0  0  0  0  0
   27.0520   12.5345   35.8975 N   0  0  0  0  0  0  0  0  0  0  0  0
   19.9526   10.3930   32.8981 O   0  0  0  0  0  0  0  0  0  0  0  0
   20.3941    9.2311   32.0917 P   0  0  0  0  0  0  0  0  0  0  0  0
   23.2046    7.2104   34.7713 O   0  0  0  0  0  0  0  0  0  0  0  0
   21.7399    9.1534   32.4341 O   0  0  0  0  0  0  0  0  0  0  0  0
   20.3230    8.3828   26.9874 C   0  0  1  0  0  0  0  0  0  0  0  0
   28.8640   11.7983   35.7857 C   0  0  0  0  0  3  0  0  0  0  0  0
   23.2747    8.9527   33.0060 C   0  0  2  0  0  0  0  0  0  0  0  0
   18.0804    6.3247   25.8862 N   0  0  0  0  0  0  0  0  0  0  0  0
   15.8065    7.0126   25.7211 O   0  0  0  0  0  0  0  0  0  0  0  0
   19.6280    7.8577   32.1484 O   0  0  0  0  0  0  0  0  0  0  0  0
   28.3724    9.2185   34.7494 N   0  0  0  0  0  0  0  0  0  0  0  0
   21.1825    9.1987   29.0194 C   0  0  1  0  0  0  0  0  0  0  0  0
   20.5235    9.2707   30.7211 O   0  0  0  0  0  0  0  0  0  0  0  0
   27.6848   10.7177   35.1412 C   0  0  0  0  0  0  0  0  0  0  0  0
  5  2  1  0
  6  3  2  3
  7  3  1  0
  2  9  1  1
  9  8  1  0
 10  1  1  0
 12  5  1  0
 13  2  1  0
 14  1  2  0
 15  8  2  3
 17 16  1  0
 18  5  1  0
 19 17  1  0
 20  3  1  0
 20  4  1  0
 20 11  1  1
 21 14  1  0
 22  5  1  0
 22 13  1  0
 22 19  1  6
 23  7  1  0
 24  7  2  0
 26  1  1  0
 27  4  1  0
 27 25  1  6
 28 17  1  0
 28 27  1  0
 29  8  1  0
 29  9  1  0
 29 21  1  0
 29 26  1  0
M  RAD  1  21   2
M  END
>  <ID>  (1) 
conformer_0

$$$$
