
     RDKit          3D

 30 30  0  0  0  0  0  0  0  0999 V2000
   24.8922    9.8547   34.9800 C   0  0  2  0  0  0  0  0  0  0  0  0
   29.0726    9.7271   35.0076 C   0  0  0  0  0  0  0  0  0  0  0  0
   21.5161    8.6355   28.3410 C   0  0  0  0  0  0  0  0  0  0  0  0
   23.6458    9.6823   35.3230 C   0  0  2  0  0  0  0  0  0  0  0  0
   17.3665    8.3355   26.8122 C   0  0  0  0  0  0  0  0  0  0  0  0
   19.7612    7.8608   26.3581 C   0  0  0  0  0  0  0  0  0  0  0  0
   26.1233   10.6043   34.9873 N   0  0  0  0  0  0  0  0  0  0  0  0
   26.5490   12.0379   35.5745 C   0  0  0  0  0  0  0  0  0  0  0  0
   30.3249    8.4097   34.8535 N   0  0  0  0  0  0  0  0  0  0  0  0
   24.0087    9.0206   36.5606 O   0  0  0  0  0  0  0  0  0  0  0  0
   24.5753    9.8436   33.5396 O   0  0  0  0  0  0  0  0  0  0  0  0
   16.9664    7.7470   26.4876 C   0  0  0  0  0  0  0  0  0  0  0  0
   20.8348    7.1178   25.6565 O   0  0  0  0  0  0  0  0  0  0  0  0
   27.0200   12.5637   35.8395 N   0  0  0  0  0  0  0  0  0  0  0  0
   19.7687    9.6558   32.7159 O   0  0  0  0  0  0  0  0  0  0  0  0
   29.7757   10.6882   35.4689 N   0  0  0  0  0  0  0  0  0  0  0  0
   23.0220    7.6206   34.8763 O   0  0  0  0  0  0  0  0  0  0  0  0
   20.1126    8.7962   31.3015 P   0  0  0  0  0  5  0  0  0  0  0  0
   28.7988   11.7750   35.6911 C   0  0  0  0  0  0  0  0  0  0  0  0
   21.6278    8.7027   32.0380 O   0  0  0  0  0  0  0  0  0  0  0  0
   23.1136    9.0080   33.9224 C   0  0  1  0  0  0  0  0  0  0  0  0
   19.5490    7.5966   31.0174 O   0  0  0  0  0  0  0  0  0  0  0  0
   17.5380    6.4038   25.5766 O   0  0  0  0  0  0  0  0  0  0  0  0
   15.5170    7.3601   26.6472 O   0  0  0  0  0  0  0  0  0  0  0  0
   18.0146    9.2129   28.4265 C   0  0  0  0  0  0  0  0  0  0  0  0
   19.3757    9.0452   28.0350 C   0  0  0  0  0  0  0  0  0  0  0  0
   27.3915   10.5244   34.9983 C   0  0  0  0  0  0  0  0  0  0  0  0
   28.3927    9.0003   34.8206 N   0  0  0  0  0  0  0  0  0  0  0  0
   20.7316   10.0980   30.7712 O   0  0  0  0  0  0  0  0  0  0  0  0
   23.0378    9.2178   32.2979 C   0  0  0  0  0  0  0  0  0  0  0  0
  4  1  1  0
  1  7  1  1
  8  7  1  0
  9  2  1  0
  4 10  1  1
 11  1  1  0
 12  5  1  0
 13  6  1  0
 14  8  3  0
 16  2  1  0
 18  3  1  0
 18 15  1  0
 19 16  1  0
 20 18  1  0
 21  4  1  0
 21 11  1  0
 21 17  1  1
 22 18  1  0
 23 12  1  0
 24 12  2  0
 25  5  1  0
 26  3  1  0
 26  6  2  3
 26 25  1  0
 27  2  1  0
 27  7  1  0
 28  2  1  0
 29 22  1  0
 30 20  1  0
 30 21  1  0
M  END
>  <ID>  (1) 
conformer_0

$$$$
