
     RDKit          3D

 27 28  0  0  0  0  0  0  0  0999 V2000
   23.4877    9.3381   34.3273 C   0  0  0  0  0  0  0  0  0  0  0  0
   29.1707    9.3244   35.0134 C   0  0  0  0  0  0  0  0  0  0  0  0
   16.9509    7.6530   26.4881 C   0  0  0  0  0  0  0  0  0  0  0  0
   23.0414    9.3557   32.8185 C   0  0  0  0  0  0  0  0  0  0  0  0
   17.9558    9.3008   28.1044 C   0  0  0  0  0  0  0  0  0  0  0  0
   26.7781   11.7866   35.3450 C   0  0  0  0  0  0  0  0  0  0  0  0
   30.0598    8.7570   34.9925 N   0  0  0  0  0  0  0  0  0  0  0  0
   21.4566    8.7402   28.4818 C   0  0  0  0  0  0  0  0  0  0  0  0
   27.5620   12.2507   35.7764 N   0  0  0  0  0  0  0  0  0  0  0  0
   23.2657    7.4524   34.6250 O   0  0  0  0  0  0  0  0  0  0  0  0
   26.2442   10.3176   34.7759 N   0  0  0  0  0  0  0  0  0  0  0  0
   21.2097    9.8667   31.3217 O   0  0  0  0  0  0  0  0  0  0  0  0
   21.2867    7.5539   26.1373 O   0  0  0  0  0  0  0  0  0  0  0  0
   19.4957    9.6578   32.3999 O   0  0  0  0  0  0  0  0  0  0  0  0
   20.1692    9.0599   31.3212 P   0  0  0  0  0  0  0  0  0  0  0  0
   18.3518    8.5815   27.3777 C   0  0  0  0  0  0  0  0  0  0  0  0
   24.5431   10.0804   33.6553 O   0  0  0  0  0  0  0  0  0  0  0  0
   19.9919    7.7647   31.0074 O   0  0  0  0  0  0  0  0  0  0  0  0
   23.8271    8.9480   36.3469 O   0  0  0  0  0  0  0  0  0  0  0  0
   28.9831   11.3353   35.4429 C   0  0  0  0  0  0  0  0  0  0  0  0
   15.9143    7.2628   26.0837 O   0  0  0  0  0  0  0  0  0  0  0  0
   24.6536    9.5249   34.6768 C   0  0  0  0  0  0  0  0  0  0  0  0
   18.9290    8.0352   26.4071 N   0  0  0  0  0  0  0  0  0  0  0  0
   27.9501    8.9352   34.6305 N   0  0  0  0  0  0  0  0  0  0  0  0
   29.8784   10.6329   35.6343 N   0  0  0  0  0  0  0  0  0  0  0  0
   20.7473    8.4623   28.0715 C   0  0  0  0  0  0  0  0  0  0  0  0
   27.4459   10.1716   34.9316 C   0  0  0  0  0  0  0  0  0  0  0  0
  4  1  1  0
  7  2  1  0
  9  6  1  0
 10  1  1  0
 11  6  1  0
 12  4  1  0
 15 12  1  0
 15 14  1  0
 16  3  1  0
 16  5  1  0
 17  1  1  0
 18  8  1  0
 18 15  1  0
 20  9  1  0
 21  3  1  0
 22  1  1  0
 22 11  1  0
 22 17  1  0
 22 19  1  0
 23 16  1  0
 24  2  1  0
 25  2  2  0
 25 20  1  0
 26  8  1  0
 26 13  1  0
 26 16  1  0
 27 11  1  0
 27 24  1  0
M  END
>  <ID>  (1) 
conformer_0

$$$$
