
     RDKit          3D

 33 34  0  0  0  0  0  0  0  0999 V2000
   29.1141    9.8060   35.0360 C   0  0  0  0  0  0  0  0  0  0  0  0
   23.5395    9.5779   35.4727 C   0  0  1  0  0  0  0  0  0  0  0  0
   17.8982    9.3620   28.8226 C   0  0  0  0  0  0  0  0  0  0  0  0
   22.3518    8.5485   27.9303 C   0  0  2  0  0  0  0  0  0  0  0  0
   22.9128    8.7309   34.3891 C   0  0  2  0  0  0  0  0  0  0  0  0
   21.2570    8.2595   26.5792 C   0  0  0  0  0  0  0  0  0  0  0  0
   26.3926   11.8906   35.5175 C   0  0  0  0  0  0  0  0  0  0  0  0
   26.0666   10.4301   34.8415 N   0  0  0  0  0  0  0  0  0  0  0  0
   30.2634    8.4940   34.8338 N   0  0  0  0  0  0  0  0  0  0  0  0
   23.9409    8.9618   36.6509 O   0  0  0  0  0  0  0  0  0  0  0  0
   16.6288    7.7433   26.7095 C   0  0  0  0  0  0  0  0  0  0  0  0
   21.5893    7.5117   25.6838 O   0  0  0  0  0  0  0  0  0  0  0  0
   29.7606   10.7618   35.5929 N   0  0  0  0  0  0  0  0  0  0  0  0
   20.1572    9.1279   31.6564 P   0  0  0  0  0  0  0  0  0  0  0  0
   24.4036    9.8938   33.5780 O   0  0  0  0  0  0  0  0  0  0  0  0
   23.2022    7.2876   34.9085 O   0  0  0  0  0  0  0  0  0  0  0  0
   20.1613    9.5265   30.2100 O   0  0  0  0  0  0  0  0  0  0  0  0
   26.8152   12.4470   35.7696 N   0  0  0  0  0  0  0  0  0  0  0  0
   22.9510    9.1063   32.7964 C   0  0  2  0  0  0  0  0  0  0  0  0
   28.6143   11.7335   35.6022 C   0  0  0  0  0  0  0  0  0  0  0  0
   19.9845   10.1662   32.7563 O   0  0  0  0  0  0  0  0  0  0  0  0
   19.4078    7.6848   31.4623 O   0  0  0  0  0  0  0  0  0  0  0  0
   16.2454    7.3663   25.9829 O   0  0  0  0  0  0  0  0  0  0  0  0
   19.0983    9.2509   28.9113 C   0  0  1  0  0  0  0  0  0  0  0  0
   27.3003   10.4166   34.9169 C   0  0  0  0  0  0  0  0  0  0  0  0
   28.2756    9.0222   34.7782 N   0  0  0  0  0  0  0  0  0  0  0  0
   16.4212    6.9960   27.1293 O   0  0  0  0  0  0  0  0  0  0  0  0
   21.5246    8.9021   31.9478 O   0  0  0  0  0  0  0  0  0  0  0  0
   17.8426    9.0627   27.4448 C   0  0  2  0  0  0  0  0  0  0  0  0
   18.7302    8.5285   26.5450 C   0  0  0  0  0  0  0  0  0  0  0  0
   24.8341    9.5841   34.7662 C   0  0  2  0  0  0  0  0  0  0  0  0
   21.9713    9.0199   29.6739 C   0  0  0  0  0  0  0  0  0  0  0  0
   20.5351    8.6366   27.6967 C   0  0  2  0  0  0  0  0  0  0  0  0
  5  2  1  0
  6  4  1  0
  8  7  1  0
  9  1  2  3
  2 10  1  1
 12  6  2  0
 13  1  1  0
  5 16  1  6
 17 14  1  0
 18  7  3  0
 19  5  1  0
 19 15  1  0
 20 13  1  0
 21 14  1  0
 23 11  2  0
 24  3  1  0
 24 17  1  0
 24 22  1  1
 25  8  1  0
 26  1  1  0
 26 25  1  0
 27 11  1  0
 28 14  1  0
 19 28  1  1
 29  3  1  1
 29 11  1  0
 30 29  1  0
 31  2  1  0
 31  8  1  1
 31 15  1  0
  4 32  1  1
 33  4  1  0
 33  6  1  0
 33 30  1  6
M  END
>  <ID>  (1) 
conformer_0

$$$$
