
     RDKit          3D

 32 34  0  0  0  0  0  0  0  0999 V2000
   17.4667    8.8143   27.7971 C   0  0  1  0  0  0  0  0  0  0  0  0
   25.0899    9.6013   34.3073 C   0  0  2  0  0  0  0  0  0  0  0  0
   29.0497    9.6565   34.9905 C   0  0  1  0  0  0  0  0  0  0  0  0
   22.8954    9.0089   33.6293 C   0  0  2  0  0  0  0  0  0  0  0  0
   21.0172    8.2706   27.3221 C   0  0  0  0  0  0  0  0  0  0  0  0
   22.3122    8.7355   28.4138 C   0  0  0  0  0  0  0  0  0  0  0  0
   26.1187   12.0003   35.6197 C   0  0  0  0  0  0  0  0  0  0  0  0
   26.0186   10.5944   34.9163 N   0  0  0  0  0  0  0  0  0  0  0  0
   30.0386    8.3602   34.7805 N   0  0  0  0  0  0  0  0  0  0  0  0
   16.4719    7.7279   26.6480 C   0  0  0  0  0  0  0  0  0  0  0  0
   29.8235   10.9601   35.5329 N   0  0  0  0  0  0  0  0  0  0  0  0
   27.1535   12.4298   35.7887 N   0  0  0  0  0  0  0  0  0  0  0  0
   23.1632    7.4303   34.5909 O   0  0  0  0  0  0  0  0  0  0  0  0
   20.5073    9.2393   30.2551 O   0  0  0  0  0  0  0  0  0  0  0  0
   21.1330    7.6485   26.1624 O   0  0  0  0  0  0  0  0  0  0  0  0
   24.6472    9.9896   33.3627 O   0  0  0  0  0  0  0  0  0  0  0  0
   19.6368    9.9922   32.5780 O   0  0  0  0  0  0  0  0  0  0  0  0
   19.8578    8.9228   31.5248 P   0  0  1  0  0  4  0  0  0  0  0  0
   28.6485   11.7376   35.7003 C   0  0  0  0  0  0  0  0  0  0  0  0
   27.8825    8.9756   34.6162 N   0  0  0  0  0  0  0  0  0  0  0  0
   23.8073    8.7503   36.2652 O   0  0  0  0  0  0  0  0  0  0  0  0
   19.0917    7.8319   31.6546 O   0  0  0  0  0  1  0  0  0  0  0  0
   15.6616    7.6772   26.5753 O   0  0  0  0  0  0  0  0  0  0  0  0
   21.8333    9.0553   29.3831 C   0  0  1  0  0  0  0  0  0  0  0  0
   23.1719    9.2894   32.3119 C   0  0  1  0  0  0  0  0  0  0  0  0
   19.7916    8.6856   27.5362 N   0  0  0  0  0  0  0  0  0  0  0  0
   17.8500    9.2045   28.8336 C   0  0  0  0  0  0  0  0  0  0  0  0
   27.4259   10.5614   35.0420 C   0  0  1  0  0  0  0  0  0  0  0  0
   18.6231    9.1038   29.3871 C   0  0  0  0  0  0  0  0  0  0  0  0
   18.9881    8.4285   26.8151 C   0  0  0  0  0  0  0  0  0  0  0  0
   23.5847    9.4829   34.9176 C   0  0  1  0  0  0  0  0  0  0  0  0
   21.4588    9.0695   31.8064 O   0  0  0  0  0  0  0  0  0  0  0  0
  6  5  1  0
  8  2  1  0
  8  7  1  0
  3  9  1  6
 10  1  1  0
 11  3  1  0
 12  7  2  0
  4 13  1  6
 15  5  2  0
  2 16  1  6
 18 14  1  0
 18 17  1  6
 19 11  2  0
 19 12  1  0
 20  3  1  0
 22 18  1  0
 23 10  2  0
 24  6  1  1
 24 14  1  0
 25  4  1  0
 25 24  1  0
 26  5  1  0
 27  1  1  0
 28  3  1  0
 28  8  1  0
 28 19  1  0
 28 20  1  6
 29 27  2  3
  1 30  1  6
 30 26  1  0
 31  2  1  0
 31  4  1  0
 31 21  1  1
 25 32  1  1
M  RAD  2  18   2  22   2
M  END
>  <ID>  (1) 
conformer_0

$$$$
