
     RDKit          3D

 32 33  0  0  0  0  0  0  0  0999 V2000
   25.2938    9.5728   34.5060 C   0  0  1  0  0  0  0  0  0  0  0  0
   29.1293    9.5709   34.8488 C   0  0  0  0  0  0  0  0  0  0  0  0
   16.8638    8.6303   26.9688 C   0  0  0  0  0  0  0  0  0  0  0  0
   23.9028    9.3670   34.9750 C   0  0  2  0  0  0  0  0  0  0  0  0
   26.1927   12.2353   35.7212 C   0  0  0  0  0  0  0  0  0  0  0  0
   18.8967    8.0280   26.5602 C   0  0  0  0  0  0  0  0  0  0  0  0
   29.7526   10.6162   35.3374 N   0  0  0  0  0  0  0  0  0  0  0  0
   21.7231    8.6124   28.3982 C   0  0  0  0  0  0  0  0  0  0  0  0
   24.5823    9.9421   33.4533 O   0  0  0  0  0  0  0  0  0  0  0  0
   29.8868    8.1976   34.8130 N   0  0  0  0  0  0  0  0  0  0  0  0
   26.7312   12.8732   36.0301 N   0  0  0  0  0  0  0  0  0  0  0  0
   21.5189    7.6165   25.9942 O   0  0  0  0  0  0  0  0  0  0  0  0
   26.0146   10.8568   34.9240 N   0  0  0  0  0  0  0  0  0  0  0  0
   23.9057    9.0263   36.3568 O   0  0  0  0  0  0  0  0  0  0  0  0
   21.4539    8.8161   31.5252 O   0  0  0  0  0  0  0  0  0  0  0  0
   20.2193    8.9209   31.6406 P   0  0  2  0  0  4  0  0  0  0  0  0
   28.6004   11.8863   35.6997 C   0  0  0  0  0  0  0  0  0  0  0  0
   16.1940    8.1220   26.1635 C   0  0  0  0  0  0  0  0  0  0  0  0
   19.7219   10.0815   31.9564 O   0  0  0  0  0  0  0  0  0  0  0  0
   23.4062    7.2576   34.7781 O   0  0  0  0  0  0  0  0  0  0  0  0
   14.8651    8.4989   26.2287 O   0  0  0  0  0  0  0  0  0  0  0  0
   20.7530    8.3587   27.4838 C   0  0  0  0  0  0  0  0  0  0  0  0
   17.2413    9.6214   28.3327 C   0  0  0  0  0  0  0  0  0  0  0  0
   23.2206    8.6663   33.9478 C   0  0  2  0  0  0  0  0  0  0  0  0
   17.0314    7.4662   24.8940 O   0  0  0  0  0  0  0  0  0  0  0  0
   27.8157    9.1610   34.7037 N   0  0  0  0  0  0  0  0  0  0  0  0
   19.6103    7.8042   31.7143 O   0  0  0  0  0  1  0  0  0  0  0  0
   18.6350    6.7113   26.1437 O   0  0  0  0  0  0  0  0  0  0  0  0
   27.5893   10.9535   35.0789 C   0  0  0  0  0  0  0  0  0  0  0  0
   18.9156    8.4496   27.7440 C   0  0  1  0  0  0  0  0  0  0  0  0
   23.0532    9.1985   32.4742 C   0  0  1  0  0  0  0  0  0  0  0  0
   21.7427    9.0954   29.5625 C   0  0  0  0  0  0  0  0  0  0  0  0
  4  1  1  0
  7  2  2  0
  9  1  1  0
  9  4  1  0
 10  2  1  0
 11  5  2  3
  1 13  1  1
 13  5  1  0
  4 14  1  1
 16 15  1  0
 17  7  1  0
 18  3  1  0
 16 19  1  1
 21 18  2  0
 22  8  2  3
 22 12  1  0
 23  3  1  0
 24  4  1  0
 24 20  1  6
 25 18  1  0
 26  2  1  0
 27 16  1  0
 28  6  1  0
 29 13  1  0
 29 17  2  0
 29 26  1  0
 30  6  1  6
 30 22  1  0
 30 23  1  0
 31 15  1  0
 31 24  1  0
 32  8  1  0
 31 32  1  6
M  RAD  2  16   2  27   2
M  END
>  <ID>  (1) 
conformer_0

$$$$
