
     RDKit          3D

 35 37  0  0  0  0  0  0  0  0999 V2000
   25.0629    9.6104   34.4601 C   0  0  2  0  0  0  0  0  0  0  0  0
   29.1410    9.9246   35.0703 C   0  0  0  0  0  0  0  0  0  0  0  0
   17.1832    8.3617   27.3574 C   0  0  2  0  0  0  0  0  0  0  0  0
   23.0082    8.6962   33.9735 C   0  0  2  0  0  0  0  0  0  0  0  0
   21.9809    8.8100   28.3108 C   0  0  0  0  0  0  0  0  0  0  0  0
   19.0671    9.1477   28.6473 C   0  0  0  0  0  0  0  0  0  0  0  0
   26.2638   12.0796   35.7617 C   0  0  2  0  0  0  0  0  0  0  0  0
   16.6837    7.3592   26.3908 C   0  0  0  0  0  0  0  0  0  0  0  0
   30.0665    8.5010   34.8283 N   0  0  0  0  0  0  0  0  0  0  0  0
   26.0691   10.7743   35.1122 N   0  0  0  0  0  0  0  0  0  0  0  0
   27.0401   12.6683   35.9409 N   0  0  0  0  0  0  0  0  0  0  0  0
   21.5050    7.6254   26.0537 O   0  0  0  0  0  0  0  0  0  0  0  0
   24.5158   10.0159   33.5098 O   0  0  0  0  0  0  0  0  0  0  0  0
   30.0348   10.6640   35.5849 N   0  0  0  0  0  0  0  0  0  0  0  0
   19.8320   10.2858   32.8411 O   0  0  0  0  0  0  0  0  0  0  0  0
   23.9690    8.8188   36.4193 O   0  0  0  0  0  0  0  0  0  0  0  0
   20.7167    9.0598   30.7546 O   0  0  0  0  0  0  0  0  0  0  0  0
   19.7792   10.4673   28.3075 O   0  0  0  0  0  0  0  0  0  0  0  0
   16.0335    6.9628   25.9653 O   0  0  0  0  0  0  0  0  0  0  0  0
   16.8843    9.8542   28.1864 C   0  0  0  0  0  0  0  0  0  0  0  0
   28.7621   11.8748   35.8066 C   0  0  2  0  0  0  0  0  0  0  0  0
   29.8572   12.7568   36.1809 O   0  0  0  0  0  0  0  0  0  0  0  0
   20.0398    8.9706   32.0025 P   0  0  0  0  0  0  0  0  0  0  0  0
   23.6100    7.2761   34.5359 O   0  0  0  0  0  0  0  0  0  0  0  0
   23.0690    8.8778   32.6248 C   0  0  0  0  0  0  0  0  0  0  0  0
   28.0327    9.2684   34.7164 N   0  0  0  0  0  0  0  0  0  0  0  0
   18.9032    7.9845   31.9385 O   0  0  0  0  0  0  0  0  0  0  0  0
   21.5070    9.3629   29.4033 C   0  0  2  0  0  0  0  0  0  0  0  0
   21.1023    8.4311   27.0367 C   0  0  0  0  0  0  0  0  0  0  0  0
   27.5397   10.8857   35.2624 C   0  0  0  0  0  0  0  0  0  0  0  0
   23.8604    9.6791   35.2634 C   0  0  1  0  0  0  0  0  0  0  0  0
   18.5667    6.8948   26.3844 N   0  0  0  0  0  0  0  0  0  0  0  0
   21.2963    8.7205   32.6662 O   0  0  0  0  0  0  0  0  0  0  0  0
   18.5530    7.9704   26.7194 C   0  0  0  0  0  0  0  0  0  0  0  0
   17.9071    9.4307   29.2335 C   0  0  1  0  0  0  0  0  0  0  0  0
  8  3  1  0
  9  2  1  0
 10  1  1  0
 10  7  1  0
  7 11  1  6
  1 13  1  6
 14  2  2  0
 18  6  1  0
 19  8  2  0
  3 20  1  6
 21 11  1  0
 21 14  1  0
 21 22  1  6
 23 15  1  0
 23 17  1  0
  4 24  1  6
 25  4  1  0
 26  2  1  0
 28  5  1  0
 28 17  1  1
 28 18  1  0
 29  5  2  3
 29 12  1  0
 30  7  1  0
 30 10  1  0
 30 21  1  0
 30 26  1  0
 31  1  1  0
 31  4  1  0
 31 16  1  1
 33 23  1  0
 33 25  1  0
 34  3  1  0
 34 32  1  0
 35  6  1  0
 35 20  1  0
 35 27  1  6
M  END
>  <ID>  (1) 
conformer_0

$$$$
