
     RDKit          3D

 33 35  0  0  0  0  0  0  0  0999 V2000
   23.7804    9.4433   35.2119 C   0  0  0  0  0  0  0  0  0  0  0  0
   29.3144   10.0298   35.1222 C   0  0  0  0  0  0  0  0  0  0  0  0
   17.2937    9.1057   27.6178 C   0  0  0  0  0  0  0  0  0  0  0  0
   23.3452    8.9266   33.7896 C   0  0  0  0  0  0  0  0  0  0  0  0
   21.6841    8.7119   28.1288 C   0  0  0  0  0  0  0  0  0  0  0  0
   26.4828   11.8795   35.6791 C   0  0  0  0  0  0  0  0  0  0  0  0
   26.2638   10.4882   35.0534 N   0  0  0  0  0  0  0  0  0  0  0  0
   30.1460    8.7860   34.7749 N   0  0  0  0  0  0  0  0  0  0  0  0
   30.0080   11.0770   35.6707 N   0  0  0  0  0  0  0  0  0  0  0  0
   18.3912    9.3059   28.7394 C   0  0  0  0  0  0  0  0  0  0  0  0
   24.8665    9.8597   33.4730 O   0  0  0  0  0  0  0  0  0  0  0  0
   20.7715    7.4613   25.9438 O   0  0  0  0  0  0  0  0  0  0  0  0
   16.9399    7.8671   26.7579 C   0  0  0  0  0  0  0  0  0  0  0  0
   23.8679    9.1002   36.4654 O   0  0  0  0  0  0  0  0  0  0  0  0
   19.8635   10.2368   32.5555 O   0  0  0  0  0  0  0  0  0  0  0  0
   20.3199    9.2583   31.5356 P   0  0  0  0  0  0  0  0  0  0  0  0
   21.6930    8.9432   32.0741 O   0  0  0  0  0  0  0  0  0  0  0  0
   15.7531    7.6015   26.7987 O   0  0  0  0  0  0  0  0  0  0  0  0
   19.8609    8.0637   26.5352 C   0  0  0  0  0  0  0  0  0  0  0  0
   19.3318    7.8260   32.0338 O   0  0  0  0  0  0  0  0  0  0  0  0
   23.3026    9.3031   32.2479 C   0  0  0  0  0  0  0  0  0  0  0  0
   27.3290   12.3452   35.8224 N   0  0  0  0  0  0  0  0  0  0  0  0
   23.4900    7.4282   34.8186 O   0  0  0  0  0  0  0  0  0  0  0  0
   29.0162   11.9828   35.8505 C   0  0  0  0  0  0  0  0  0  0  0  0
   17.6450    6.7502   26.2426 N   0  0  0  0  0  0  0  0  0  0  0  0
   17.5886    9.7832   29.0242 C   0  0  0  0  0  0  0  0  0  0  0  0
   28.2371    9.1710   34.7057 N   0  0  0  0  0  0  0  0  0  0  0  0
   25.3324    9.6499   34.6814 C   0  0  0  0  0  0  0  0  0  0  0  0
   20.0591    8.6727   30.2538 O   0  0  0  0  0  0  0  0  0  0  0  0
   21.3533   10.5267   30.6384 O   0  0  0  0  0  0  0  0  0  0  0  0
   27.5845   10.6981   35.1383 C   0  0  0  0  0  0  0  0  0  0  0  0
   19.5609    8.7775   27.6673 C   0  0  0  0  0  0  0  0  0  0  0  0
   20.6365    9.4234   28.8415 C   0  0  0  0  0  0  0  0  0  0  0  0
  4  1  1  0
  7  6  1  0
  8  2  1  0
  9  2  2  0
 10  3  1  0
 11  4  1  0
 13  3  1  0
 14  1  1  0
 16 15  1  0
 17 16  1  0
 18 13  2  0
 19 12  2  0
 20 10  1  0
 21  4  1  0
 21 17  1  0
 22  6  1  0
 23  4  1  0
 24  9  1  0
 24 22  2  0
 25 13  1  0
 26 10  1  0
 27  2  1  0
 28  1  1  0
 28  7  1  0
 28 11  1  0
 29 16  1  0
 31  6  2  0
 31  7  1  0
 31 27  1  0
 32 10  1  0
 32 19  1  0
 33  5  1  0
 33 29  1  0
 33 30  1  0
 33 32  1  0
M  END
>  <ID>  (1) 
conformer_0

$$$$
