
     RDKit          3D

 30 32  0  0  0  0  0  0  0  0999 V2000
   17.7378    9.1029   28.0384 C   0  0  2  0  0  0  0  0  0  0  0  0
   29.0585   11.7019   35.7064 C   0  0  0  0  0  0  0  0  0  0  0  0
   23.0344    9.2762   32.9988 C   0  0  0  0  0  0  0  0  0  0  0  0
   23.4845    9.3584   34.5949 C   0  0  1  0  0  0  0  0  0  0  0  0
   21.0667    8.6247   27.2669 C   0  0  0  0  0  0  0  0  0  0  0  0
   29.3671    9.7731   34.9677 C   0  0  0  0  0  0  0  0  0  0  0  0
   21.8531    8.5497   28.1562 C   0  0  0  0  0  0  0  0  0  0  0  0
   30.4023    8.2388   34.7801 N   0  0  0  0  0  0  0  0  0  0  0  0
   26.2460   10.6955   35.0465 N   0  0  0  0  0  0  0  0  0  0  0  0
   24.6834   10.0560   33.5721 O   0  0  0  0  0  0  0  0  0  0  0  0
   23.8330    8.9102   36.3026 O   0  0  0  0  0  0  0  0  0  0  0  0
   20.7525    7.6636   25.8651 O   0  0  0  0  0  0  0  0  0  0  0  0
   19.5848    9.9951   32.5940 O   0  0  0  0  0  0  0  0  0  0  0  0
   21.9506    9.3578   29.8096 C   0  0  2  0  0  0  0  0  0  0  0  0
   19.9202    9.0402   31.5573 P   0  0  1  0  0  4  0  0  0  0  0  0
   21.4369    8.7258   31.7070 O   0  0  0  0  0  0  0  0  0  0  0  0
   16.1959    7.5010   26.6118 C   0  0  0  0  0  0  0  0  0  0  0  0
   27.4698   12.6083   35.8892 N   0  0  0  0  0  0  0  0  0  0  0  0
   24.7840    9.8175   35.0108 C   0  0  2  0  0  0  0  0  0  0  0  0
   29.7690   10.4725   35.2796 N   0  0  0  0  0  0  0  0  0  0  0  0
   26.3839   12.1368   35.6643 C   0  0  0  0  0  0  0  0  0  0  0  0
   17.0846    6.3987   26.4331 O   0  0  0  0  0  0  0  0  0  0  0  0
   15.4674    7.2991   26.4082 O   0  0  0  0  0  0  0  0  0  0  0  0
   19.1071    7.8127   31.5099 O   0  0  0  0  0  1  0  0  0  0  0  0
   16.6660    9.1279   27.3483 C   0  0  0  0  0  0  0  0  0  0  0  0
   19.2317    9.4850   28.6162 C   0  0  0  0  0  0  0  0  0  0  0  0
   27.6571   10.8143   35.0965 C   0  0  0  0  0  0  0  0  0  0  0  0
   20.1640    9.4572   30.3226 O   0  0  0  0  0  0  0  0  0  0  0  0
   28.3754    8.9726   34.8370 N   0  0  0  0  0  0  0  0  0  0  0  0
   18.9331    8.3717   26.6217 C   0  0  0  0  0  0  0  0  0  0  0  0
  4  3  1  0
  7  5  2  3
  8  6  2  3
 10  4  1  0
  4 11  1  6
 12  5  1  0
 14  3  1  0
 14  7  1  0
 15 13  1  1
 14 16  1  1
 18  2  2  0
 19  4  1  0
 19  9  1  1
 19 10  1  0
 20  2  1  0
 20  6  1  0
 21  9  1  0
 21 18  1  0
 22 17  1  0
 23 17  2  0
 24 15  1  0
 25  1  1  0
 25 17  1  0
  1 26  1  6
 27  2  1  0
 27  9  1  0
 27 21  2  0
 28 14  1  0
 28 15  1  0
 29  6  1  0
 30  1  1  0
 30 12  1  0
M  RAD  2  15   2  24   2
M  END
>  <ID>  (1) 
conformer_0

$$$$
