
     RDKit          3D

 29 31  0  0  0  0  0  0  0  0999 V2000
   23.0802    9.0988   33.9023 C   0  0  0  0  0  0  0  0  0  0  0  0
   17.5741    8.6857   27.6861 C   0  0  1  0  0  0  0  0  0  0  0  0
   29.2791    9.6707   35.0048 C   0  0  0  0  0  0  0  0  0  0  0  0
   27.3844   11.1663   35.2326 C   0  0  1  0  0  0  0  0  0  0  0  0
   22.7809    9.1012   32.5010 C   0  0  0  0  0  0  0  0  0  0  0  0
   22.0701    8.8990   28.6547 C   0  0  0  0  0  0  0  0  0  0  0  0
   30.1724    8.1734   34.8358 N   0  0  0  0  0  0  0  0  0  0  0  0
   20.1461    7.9486   26.6752 C   0  0  0  0  0  0  0  0  0  0  0  0
   23.7297    8.9162   36.2141 O   0  0  0  0  0  0  0  0  0  0  0  0
   21.1095    7.3925   25.8071 O   0  0  0  0  0  0  0  0  0  0  0  0
   16.7736    7.7445   26.7374 C   0  0  0  0  0  0  0  0  0  0  0  0
   26.1990   10.8323   34.8647 N   0  0  0  0  0  0  0  0  0  0  0  0
   24.8703    9.8878   33.4590 O   0  0  0  0  0  0  0  0  0  0  0  0
   18.9199    7.9558   31.8537 O   0  0  0  0  0  0  0  0  0  0  0  0
   29.8089   10.9704   35.6460 N   0  0  0  0  0  0  0  0  0  0  0  0
   27.3206   12.6527   35.9071 N   0  0  0  0  0  0  0  0  0  0  0  0
   17.5527    9.5200   28.9285 C   0  0  0  0  0  0  0  0  0  0  0  0
   15.6337    7.8326   26.5665 O   0  0  0  0  0  0  0  0  0  0  0  0
   25.9103   12.0556   35.5862 C   0  0  2  0  0  0  0  0  0  0  0  0
   23.9427    9.4161   34.9000 C   0  0  1  0  0  0  0  0  0  0  0  0
   19.8773   10.3350   31.8823 O   0  0  0  0  0  0  0  0  0  0  0  0
   28.2068    9.3723   34.6956 N   0  0  0  0  0  0  0  0  0  0  0  0
   17.5462    7.0007   26.0751 O   0  0  0  0  0  0  0  0  0  0  0  0
   20.3395    8.6949   28.9813 C   0  0  1  0  0  0  0  0  0  0  0  0
   19.6216    8.7874   31.1839 P   0  0  0  0  0  0  0  0  0  0  0  0
   19.5291    8.1411   27.8105 C   0  0  0  0  0  0  0  0  0  0  0  0
   20.5208    8.6978   31.0078 O   0  0  0  0  0  0  0  0  0  0  0  0
   28.9251   11.6336   35.6705 C   0  0  2  0  0  0  0  0  0  0  0  0
   25.4956    9.6687   34.2012 C   0  0  2  0  0  0  0  0  0  0  0  0
  5  1  1  0
  6  5  1  0
  7  3  2  3
 10  8  2  0
 11  2  1  0
  4 12  1  6
 15  3  1  0
 16  4  1  0
  2 17  1  1
 18 11  2  0
 19  4  1  0
 19 12  1  6
 19 16  1  0
 20  1  1  0
 20  9  1  1
 22  3  1  0
 23 11  1  0
 24  6  1  6
 25 14  1  0
 25 21  1  0
 26  2  1  0
 26  8  2  0
 26 24  1  0
 27 24  1  0
 27 25  1  0
 28  4  1  0
 28 15  1  1
 28 16  1  0
 29 12  1  0
 29 13  1  6
 29 20  1  0
M  END
>  <ID>  (1) 
conformer_0

$$$$
