
     RDKit          3D

 31 33  0  0  0  0  0  0  0  0999 V2000
   25.0128    9.5663   34.6758 C   0  0  0  0  0  0  0  0  0  0  0  0
   28.5563   11.9064   35.7439 C   0  0  0  0  0  0  0  0  0  0  0  0
   16.6136    7.4619   26.4305 C   0  0  0  0  0  0  0  0  0  0  0  0
   23.2242    8.9924   33.8112 C   0  0  0  0  0  0  0  0  0  0  0  0
   18.0205    8.8348   28.3233 C   0  0  0  0  0  0  0  0  0  0  0  0
   29.1543   10.1941   35.1029 C   0  0  0  0  0  0  0  0  0  0  0  0
   21.4305    8.6462   28.5744 C   0  0  0  0  0  0  0  0  0  0  0  0
   26.0636   10.5609   34.9450 N   0  0  0  0  0  0  0  0  0  0  0  0
   18.2598    7.7236   26.1981 C   0  0  0  0  0  0  0  0  0  0  0  0
   29.9911   11.2430   35.6928 N   0  0  0  0  0  0  0  0  0  0  0  0
   30.1018    9.1326   34.7832 N   0  0  0  0  0  0  0  0  0  0  0  0
   23.7875    9.0076   36.5081 O   0  0  0  0  0  0  0  0  0  0  0  0
   27.0524   12.5304   35.8463 N   0  0  0  0  0  0  0  0  0  0  0  0
   24.5777   10.0144   33.4603 O   0  0  0  0  0  0  0  0  0  0  0  0
   21.0372    9.2397   31.1569 O   0  0  0  0  0  0  0  0  0  0  0  0
   15.4764    7.5043   26.4224 O   0  0  0  0  0  0  0  0  0  0  0  0
   23.3033    7.4082   34.6714 O   0  0  0  0  0  0  0  0  0  0  0  0
   20.1696    9.0561   31.5518 P   0  0  0  0  0  0  0  0  0  0  0  0
   22.9672    9.3746   32.3755 C   0  0  0  0  0  0  0  0  0  0  0  0
   20.6277    7.6546   26.2273 O   0  0  0  0  0  0  0  0  0  0  0  0
   29.3971   13.1029   36.1569 O   0  0  0  0  0  0  0  0  0  0  0  0
   26.2040   11.9485   35.6283 C   0  0  0  0  0  0  0  0  0  0  0  0
   19.8382   10.2227   32.5422 O   0  0  0  0  0  0  0  0  0  0  0  0
   19.6223    8.0986   32.0125 O   0  0  0  0  0  0  0  0  0  0  0  0
   20.2092    8.1508   26.7765 C   0  0  0  0  0  0  0  0  0  0  0  0
   17.2330    6.2053   25.7784 O   0  0  0  0  0  0  0  0  0  0  0  0
   18.5906    9.0981   28.3928 C   0  0  0  0  0  0  0  0  0  0  0  0
   28.1483    9.4750   34.6458 N   0  0  0  0  0  0  0  0  0  0  0  0
   27.3532   10.6682   35.0456 C   0  0  0  0  0  3  0  0  0  0  0  0
   23.6313    9.6111   35.2560 C   0  0  0  0  0  0  0  0  0  0  0  0
   21.1689    8.9456   28.9078 C   0  0  0  0  0  0  0  0  0  0  0  0
  8  1  1  0
  9  3  1  0
  9  5  1  0
 10  2  1  0
 10  6  2  0
 11  6  1  0
 13  2  1  0
 14  1  1  0
 14  4  1  0
 16  3  2  0
 17  4  1  0
 18 15  1  0
 19  4  1  0
 21  2  1  0
 22  8  1  0
 22 13  2  0
 23 18  1  0
 24 15  1  0
 25  7  1  0
 25  9  1  0
 25 20  2  0
 26  3  1  0
 27  5  1  0
 28  6  1  0
 29  2  1  0
 29  8  1  0
 29 28  1  0
 30  1  1  0
 30  4  1  0
 30 12  1  0
 31  7  1  0
 31 18  1  0
 31 19  1  0
M  RAD  1  29   2
M  END
>  <ID>  (1) 
conformer_0

$$$$
