
     RDKit          3D

 33 33  0  0  0  0  0  0  0  0999 V2000
   26.7898   10.1145   34.7691 C   0  0  0  0  0  0  0  0  0  0  0  0
   23.5695    9.4666   35.2832 C   0  0  1  0  0  0  0  0  0  0  0  0
   17.7718    8.4610   27.7838 C   0  0  2  0  0  0  0  0  0  0  0  0
   22.4053    8.8159   28.5316 C   0  0  0  0  0  0  0  0  0  0  0  0
   22.9176    8.5442   33.9779 C   0  0  2  0  0  0  0  0  0  0  0  0
   20.7045    8.2352   26.9003 C   0  0  0  0  0  0  0  0  0  0  0  0
   26.4948   12.1148   35.5323 C   0  0  0  0  0  0  0  0  0  0  0  0
   16.5602    7.6254   26.6344 C   0  0  0  0  0  0  0  0  0  0  0  0
   25.7634   10.3790   34.8069 N   0  0  0  0  0  0  0  0  0  0  0  0
   29.7929    8.8621   34.9590 N   0  0  0  0  0  0  0  0  0  0  0  0
   26.4936   12.4683   35.7695 N   0  0  0  0  0  0  0  0  0  0  0  0
   20.8021    7.4619   25.9681 O   0  0  0  0  0  0  0  0  0  0  0  0
   23.0764    7.3142   34.9365 O   0  0  0  0  0  0  0  0  0  0  0  0
   24.0893    9.9946   33.4001 O   0  0  0  0  0  0  0  0  0  0  0  0
   15.5865    7.5176   26.6947 O   0  0  0  0  0  0  0  0  0  0  0  0
   20.9397    9.3894   30.4193 O   0  0  0  0  0  0  0  0  0  0  0  0
   19.8365    9.8250   32.4919 O   0  0  0  0  0  0  0  0  0  0  0  0
   20.3293    8.9585   31.6343 P   0  0  0  0  0  0  0  0  0  0  0  0
   28.2350   11.5638   35.4464 C   0  0  0  0  0  0  0  0  0  0  0  0
   17.7228    6.4132   25.8574 O   0  0  0  0  0  0  0  0  0  0  0  0
   23.7754    8.9457   36.4809 O   0  0  0  0  0  0  0  0  0  0  0  0
   22.9296    9.1070   32.5676 C   0  0  2  0  0  0  0  0  0  0  0  0
   29.0947   11.6624   35.6881 N   0  0  0  0  0  0  0  0  0  0  0  0
   19.4636    7.5632   31.2941 O   0  0  0  0  0  0  0  0  0  0  0  0
   21.6479    9.2667   29.2936 C   0  0  2  0  0  0  0  0  0  0  0  0
   17.8392    9.6355   28.7873 C   0  0  0  0  0  0  0  0  0  0  0  0
   18.6821    7.9923   26.4022 C   0  0  0  0  0  0  0  0  0  0  0  0
   28.5178    9.6999   34.9151 C   0  0  0  0  0  0  0  0  0  0  0  0
   27.7906    8.9965   34.7519 N   0  0  0  0  0  0  0  0  0  0  0  0
   20.6906    8.6015   28.0215 C   0  0  0  0  0  0  0  0  0  0  0  0
   21.5008    8.5891   32.1528 O   0  0  0  0  0  0  0  0  0  0  0  0
   24.6455    9.6184   34.6012 C   0  0  2  0  0  0  0  0  0  0  0  0
   18.8049    9.0808   28.7549 C   0  0  1  0  0  0  0  0  0  0  0  0
  5  2  1  0
  8  3  1  0
  9  1  1  0
 11  7  2  3
 12  6  2  0
  5 13  1  6
 15  8  2  0
 18 16  1  0
 18 17  1  0
 19  7  1  0
 20  8  1  0
  2 21  1  1
 22  5  1  0
 22 14  1  0
 23 19  2  3
 25  4  1  1
 25 16  1  0
 26  3  1  0
  3 27  1  6
 28 10  2  3
 28 19  1  0
 29  1  1  0
 29 28  1  0
 30  6  2  0
 30 25  1  0
 31 18  1  0
 22 31  1  1
 32  2  1  0
 32  9  1  1
 32 14  1  0
 33 24  1  1
 33 26  1  0
 33 30  1  0
M  END
>  <ID>  (1) 
conformer_0

$$$$
