
     RDKit          3D

 32 35  0  0  0  0  0  0  0  0999 V2000
   25.1604    9.7389   34.8609 C   0  0  2  0  0  0  0  0  0  0  0  0
   29.2613    9.9084   34.9884 C   0  0  0  0  0  0  0  0  0  0  0  0
   17.4841    8.1817   27.6359 C   0  0  0  0  0  0  0  0  0  0  0  0
   23.9367    9.4765   35.2770 C   0  0  2  0  0  0  0  0  0  0  0  0
   21.3706    8.5317   28.2015 C   0  0  0  0  0  0  0  0  0  0  0  0
   20.6055    8.3075   26.9279 C   0  0  0  0  0  0  0  0  0  0  0  0
   26.3344   12.1189   35.7066 C   0  0  0  0  0  0  0  0  0  0  0  0
   26.2088   10.7346   34.9652 N   0  0  0  0  0  0  0  0  0  0  0  0
   29.6557    8.4500   34.7154 N   0  0  0  0  0  0  0  0  0  0  0  0
   24.6866    9.7627   33.6069 O   0  0  0  0  0  0  0  0  0  0  0  0
   16.4723    7.7316   26.5527 C   0  0  0  0  0  0  0  0  0  0  0  0
   24.0674    9.1399   36.5388 O   0  0  0  0  0  0  0  0  0  0  0  0
   29.6235   10.4334   35.1663 N   0  0  0  0  0  0  0  0  0  0  0  0
   28.8140   11.9844   35.7238 C   0  0  1  0  0  0  0  0  0  0  0  0
   19.9780    8.9425   31.6033 P   0  0  1  0  0  4  0  0  0  0  0  0
   21.4429    8.9512   32.0931 O   0  0  0  0  0  0  0  0  0  0  0  0
   15.3856    7.7087   26.5715 O   0  0  0  0  0  0  0  0  0  0  0  0
   27.0111   12.7392   36.0063 N   0  0  0  0  0  0  0  0  0  0  0  0
   19.8478   10.0859   32.8251 O   0  0  0  0  0  0  0  0  0  0  0  0
   22.9849    7.5220   35.0404 O   0  0  0  0  0  0  0  0  0  0  0  0
   23.2223    8.7265   33.9691 C   0  0  1  0  0  0  0  0  0  0  0  0
   19.2123    7.7815   31.5319 O   0  0  0  0  0  1  0  0  0  0  0  0
   20.3915    7.1990   25.5489 O   0  0  0  0  0  0  0  0  0  0  0  0
   17.4247    9.3049   28.8429 C   0  0  0  0  0  0  0  0  0  0  0  0
   27.5821   10.9273   35.0389 C   0  0  2  0  0  0  0  0  0  0  0  0
   17.5312    6.2448   25.5195 O   0  0  0  0  0  0  0  0  0  0  0  0
   23.1220    9.1757   32.6196 C   0  0  1  0  0  0  0  0  0  0  0  0
   18.8043    7.4853   26.1123 C   0  0  1  0  0  0  0  0  0  0  0  0
   29.6378   13.0373   36.3958 N   0  0  0  0  0  0  0  0  0  0  0  0
   21.9505    9.2199   30.0300 C   0  0  0  0  0  0  0  0  0  0  0  0
   20.1509    9.4241   30.5138 O   0  0  0  0  0  0  0  0  0  0  0  0
   18.4670    9.0282   28.1230 C   0  0  0  0  0  0  0  0  0  0  0  0
  4  1  1  0
  6  5  2  0
  1  8  1  1
  8  7  1  0
  9  2  1  0
 10  1  1  0
 11  3  1  0
  4 12  1  1
 13  2  2  0
 14 13  1  0
 17 11  2  0
 18  7  2  3
 15 19  1  1
 21  4  1  0
 21 10  1  0
 21 20  1  1
 22 15  1  0
 23  6  1  0
 24  3  1  0
 25  2  1  0
 25  7  1  0
 25  8  1  6
 25 14  1  0
 27 16  1  1
 27 21  1  0
 28  3  1  0
 28 23  1  0
 28 26  1  1
 14 29  1  1
 30  5  2  0
 30 27  1  0
 31 15  1  0
 31 30  1  0
 32  3  1  0
 32 24  1  0
M  RAD  2  15   2  22   2
M  END
>  <ID>  (1) 
conformer_0

$$$$
