
     RDKit          3D

 33 36  0  0  0  0  0  0  0  0999 V2000
   29.4190    9.5651   34.9487 C   0  0  0  0  0  0  0  0  0  0  0  0
   24.8625    9.7536   35.0272 C   0  0  0  0  0  0  0  0  0  0  0  0
   17.8335    8.8039   28.1804 C   0  0  0  0  0  0  0  0  0  0  0  0
   19.7457    7.9139   26.6267 C   0  0  0  0  0  0  0  0  0  0  0  0
   23.5436    9.3942   35.1183 C   0  0  0  0  0  0  0  0  0  0  0  0
   25.9097   11.9756   35.7570 C   0  0  0  0  0  0  0  0  0  0  0  0
   26.0680   10.7118   35.0492 N   0  0  0  0  0  0  0  0  0  0  0  0
   16.8967    8.0122   26.5243 C   0  0  0  0  0  0  0  0  0  0  0  0
   21.7140    8.5814   28.5188 C   0  0  0  0  0  0  0  0  0  0  0  0
   23.3814    7.1652   34.4733 O   0  0  0  0  0  0  0  0  0  0  0  0
   30.3966    8.5714   34.6570 N   0  0  0  0  0  0  0  0  0  0  0  0
   30.1117   10.9149   35.5856 N   0  0  0  0  0  0  0  0  0  0  0  0
   24.4234    9.9801   33.5885 O   0  0  0  0  0  0  0  0  0  0  0  0
   20.7009    7.3610   25.9165 O   0  0  0  0  0  0  0  0  0  0  0  0
   19.8152   10.0953   32.3311 O   0  0  0  0  0  0  0  0  0  0  0  0
   21.5723    8.7914   32.3342 O   0  0  0  0  0  0  0  0  0  0  0  0
   29.3770   11.6538   35.8046 C   0  0  0  0  0  0  0  0  0  0  0  0
   20.2634    8.8611   31.6903 P   0  0  0  0  0  0  0  0  0  0  0  0
   15.4874    7.7976   26.8321 O   0  0  0  0  0  0  0  0  0  0  0  0
   27.0490   12.5158   35.8772 N   0  0  0  0  0  0  0  0  0  0  0  0
   23.8143    8.8442   36.5450 O   0  0  0  0  0  0  0  0  0  0  0  0
   23.4928    8.6470   33.8992 C   0  0  0  0  0  0  0  0  0  0  0  0
   17.4304    7.1137   25.7568 N   0  0  0  0  0  0  0  0  0  0  0  0
   21.0420    8.8208   28.8148 C   0  0  0  0  0  0  0  0  0  0  0  0
   20.6364    8.5927   30.3657 O   0  0  0  0  0  0  0  0  0  0  0  0
   27.3133   10.4175   34.8713 C   0  0  0  0  0  0  0  0  0  0  0  0
   18.9049    9.3347   26.1674 O   0  0  0  0  0  0  0  0  0  0  0  0
   17.2545   10.0640   28.6040 C   0  0  0  0  0  0  0  0  0  0  0  0
   23.0071    9.1934   32.3764 C   0  0  0  0  0  0  0  0  0  0  0  0
   19.3795    7.6166   31.6985 O   0  0  0  0  0  0  0  0  0  0  0  0
   18.6963    8.8345   27.8073 C   0  0  0  0  0  0  0  0  0  0  0  0
   28.4977    9.0362   34.7204 N   0  0  0  0  0  0  0  0  0  0  0  0
   28.0631   11.7744   35.6457 C   0  0  0  0  0  0  0  0  0  0  0  0
  5  2  1  0
  7  2  1  0
  7  6  1  0
  8  3  1  0
 11  1  1  0
 12  1  1  0
 13  2  1  0
 14  4  1  0
 14  9  1  0
 17 12  2  0
 18 15  1  0
 18 16  1  0
 19  8  2  0
 20  6  2  0
 21  5  1  0
 22  5  1  0
 22 10  1  0
 22 13  1  0
 23  8  1  0
 24  9  1  0
 25 18  1  0
 25 24  1  0
 26  7  1  0
 27  4  1  0
 28  3  1  0
 29 16  1  0
 29 22  1  0
 30 24  1  0
 31  3  1  0
 31  4  1  0
 31 27  1  0
 32  1  1  0
 32 26  1  0
 33 17  1  0
 33 20  1  0
 33 26  2  0
M  END
>  <ID>  (1) 
conformer_0

$$$$
