
     RDKit          3D

 28 29  0  0  0  0  0  0  0  0999 V2000
   28.5347   10.1337   35.0329 C   0  0  0  0  0  0  0  0  0  0  0  0
   24.6976    9.5425   34.7838 C   0  0  0  0  0  0  0  0  0  0  0  0
   17.0974    8.3835   27.0051 C   0  0  0  0  0  0  0  0  0  0  0  0
   20.4179    8.3114   26.7667 C   0  0  0  0  0  0  0  0  0  0  0  0
   23.4452    9.0594   34.5744 C   0  0  0  0  0  0  0  0  0  0  0  0
   30.1025    8.4618   34.9332 N   0  0  0  0  0  0  0  0  0  0  0  0
   26.7707   11.3964   35.4202 C   0  0  0  0  0  0  0  0  0  0  0  0
   26.1335   10.5067   34.9283 N   0  0  0  0  0  0  0  0  0  0  0  0
   21.7633    8.7062   28.2412 C   0  0  0  0  0  0  0  0  0  0  0  0
   21.1514    7.6106   25.9389 O   0  0  0  0  0  0  0  0  0  0  0  0
   29.8969   10.9869   35.6300 N   0  0  0  0  0  0  0  0  0  0  0  0
   23.8775    9.0821   36.4345 O   0  0  0  0  0  0  0  0  0  0  0  0
   24.5903    9.9106   33.5840 O   0  0  0  0  0  0  0  0  0  0  0  0
   21.3210    9.8454   31.2489 O   0  0  0  0  0  0  0  0  0  0  0  0
   15.2526    7.4525   26.7643 O   0  0  0  0  0  0  0  0  0  0  0  0
   19.8664    7.8725   31.2640 O   0  0  0  0  0  1  0  0  0  0  0  0
   23.0220    7.3426   34.9120 O   0  0  0  0  0  0  0  0  0  0  0  0
   19.8470    9.7530   32.7538 O   0  0  0  0  0  0  0  0  0  0  0  0
   21.1317    9.1675   29.1503 C   0  0  0  0  0  0  0  0  0  0  0  0
   27.0617   12.3701   35.8032 N   0  0  0  0  0  0  0  0  0  0  0  0
   28.6129   11.6740   35.6326 C   0  0  0  0  0  0  0  0  0  0  0  0
   16.8593    7.8367   26.6239 C   0  0  0  0  0  0  0  0  0  0  0  0
   23.1118    8.9249   33.0072 C   0  0  0  0  0  0  0  0  0  0  0  0
   18.0212    6.4227   26.6267 O   0  0  0  0  0  0  0  0  0  0  0  0
   20.4855    9.2513   31.8934 P   0  0  0  0  0  4  0  0  0  0  0  0
   28.2060    9.0945   34.7231 N   0  0  0  0  0  0  0  0  0  0  0  0
   18.9455    9.3279   27.8218 C   0  0  0  0  0  0  0  0  0  0  0  0
   18.0223    9.0506   28.2612 C   0  0  0  0  0  0  0  0  0  0  0  0
  5  2  1  0
  8  2  1  0
  8  7  1  0
  9  4  1  0
 10  4  1  0
 11  1  1  0
 12  2  1  0
 13  2  1  0
 13  5  1  0
 17  5  1  0
 19  9  1  0
 19 14  1  0
 20  7  1  0
 21  1  1  0
 21 11  2  0
 21 20  1  0
 22  3  1  0
 22 15  2  0
 23  5  1  0
 24 22  1  0
 25 14  1  0
 25 16  1  0
 25 18  1  0
 25 23  1  0
 26  1  1  0
 26  6  1  0
 27  4  1  0
 28  3  1  0
 28 27  1  0
M  RAD  2  16   2  25   2
M  END
>  <ID>  (1) 
conformer_0

$$$$
