
     RDKit          3D

 28 28  0  0  0  0  0  0  0  0999 V2000
   24.5078    9.4338   34.8248 C   0  0  0  0  0  0  0  0  0  0  0  0
   17.2552    8.7893   27.3570 C   0  0  0  0  0  0  0  0  0  0  0  0
   28.1955    9.9628   34.8609 C   0  0  0  0  0  0  0  0  0  0  0  0
   22.1808    8.6749   28.3149 C   0  0  0  0  0  0  0  0  0  0  0  0
   23.4032    8.9374   34.3645 C   0  0  2  0  0  0  0  0  0  0  0  0
   19.5884    7.9792   26.8242 C   0  0  0  0  0  0  0  0  0  0  0  0
   26.6094   11.3858   35.4336 C   0  0  0  0  0  0  0  0  0  0  0  0
   26.0888   10.2306   34.8774 N   0  0  0  0  0  0  0  0  0  0  0  0
   30.2453    8.8565   34.9189 N   0  0  0  0  0  0  0  0  0  0  0  0
   16.6325    7.7720   26.4606 C   0  0  0  0  0  0  0  0  0  0  0  0
   23.8340    8.8811   36.4366 O   0  0  0  0  0  0  0  0  0  0  0  0
   24.3462    9.9431   33.4347 O   0  0  0  0  0  0  0  0  0  0  0  0
   21.2470    9.6890   30.7864 O   0  0  0  0  0  0  0  0  0  0  0  0
   20.2880    7.2660   25.9261 O   0  0  0  0  0  0  0  0  0  0  0  0
   28.5346   11.4445   35.4773 C   0  0  0  0  0  0  0  0  0  0  0  0
   26.9687   12.4014   35.8161 N   0  0  0  0  0  0  0  0  0  0  0  0
   23.3333    7.3057   34.6257 O   0  0  0  0  0  0  0  0  0  0  0  0
   19.8935   10.2586   32.2763 O   0  0  0  0  0  0  0  0  0  0  0  0
   29.6328   10.9906   35.4549 N   0  0  0  0  0  0  0  0  0  0  0  0
   15.1952    7.8587   26.5694 O   0  0  0  0  0  0  0  0  0  0  0  0
   17.6780    9.6757   28.5466 C   0  0  0  0  0  0  0  0  0  0  0  0
   23.0255    9.0553   32.6366 C   0  0  0  0  0  0  0  0  0  0  0  0
   20.3783    9.2489   31.1808 P   0  0  2  0  0  4  0  0  0  0  0  0
   21.5359    8.9560   28.9482 C   0  0  2  0  0  0  0  0  0  0  0  0
   19.8032    8.0128   31.4591 O   0  0  0  0  0  1  0  0  0  0  0  0
   16.7049    6.4545   26.0343 O   0  0  0  0  0  0  0  0  0  0  0  0
   19.0250    9.2816   28.2600 C   0  0  0  0  0  0  0  0  0  0  0  0
   28.2382    8.8195   34.8533 N   0  0  0  0  0  0  0  0  0  0  0  0
  5  1  1  0
  8  1  1  0
  8  7  1  0
 10  2  1  0
 11  1  1  0
 12  1  1  0
 12  5  1  0
 14  6  2  0
 15  3  1  0
 16  7  1  0
 16 15  1  0
  5 17  1  6
 19 15  2  3
 20 10  2  0
 21  2  1  0
 22  5  1  0
 23 13  1  0
 23 18  1  1
 24  4  1  6
 24 13  1  0
 24 22  1  0
 25 23  1  0
 26 10  1  0
 27  6  2  0
 27 21  1  0
 27 24  1  0
 28  3  1  0
 28  9  1  0
M  RAD  2  23   2  25   2
M  END
>  <ID>  (1) 
conformer_0

$$$$
