
     RDKit          3D

 32 32  0  0  0  0  0  0  0  0999 V2000
   29.3765    9.8376   35.0566 C   0  0  0  0  0  0  0  0  0  0  0  0
   23.0981    8.7627   33.9380 C   0  0  1  0  0  0  0  0  0  0  0  0
   17.4895    8.7746   27.6526 C   0  0  1  0  0  0  0  0  0  0  0  0
   26.3558   12.1844   35.7215 C   0  0  0  0  0  0  0  0  0  0  0  0
   23.0619    9.2487   32.3951 C   0  0  0  0  0  0  0  0  0  0  0  0
   18.3644    8.6397   27.8174 C   0  0  0  0  0  0  0  0  0  0  0  0
   21.7787    8.6582   28.4333 C   0  0  0  0  0  0  0  0  0  0  0  0
   16.6906    7.6617   26.5162 C   0  0  0  0  0  0  0  0  0  0  0  0
   29.7282    8.5586   34.9837 N   0  0  0  0  0  0  0  0  0  0  0  0
   26.1313   10.7285   34.8918 N   0  0  0  0  0  0  0  0  0  0  0  0
   24.7992    9.7408   33.5613 O   0  0  0  0  0  0  0  0  0  0  0  0
   23.1572    7.2803   34.8234 O   0  0  0  0  0  0  0  0  0  0  0  0
   21.2803    7.6312   26.1350 O   0  0  0  0  0  0  0  0  0  0  0  0
   24.1810    9.0301   36.3438 O   0  0  0  0  0  0  0  0  0  0  0  0
   19.6005    9.6578   32.5983 O   0  0  0  0  0  0  0  0  0  0  0  0
   20.2811    9.2277   31.6396 P   0  0  0  0  0  0  0  0  0  0  0  0
   21.6312    9.2802   32.0577 O   0  0  0  0  0  0  0  0  0  0  0  0
   28.9762   11.8298   35.7758 C   0  0  0  0  0  0  0  0  0  0  0  0
   15.2768    8.0179   26.5013 O   0  0  0  0  0  0  0  0  0  0  0  0
   27.0025   12.7057   35.9293 N   0  0  0  0  0  0  0  0  0  0  0  0
   29.7741   10.3728   35.2493 N   0  0  0  0  0  0  0  0  0  0  0  0
   25.2329    9.6943   34.5004 C   0  0  2  0  0  0  0  0  0  0  0  0
   21.1016    9.0080   29.1813 C   0  0  0  0  0  0  0  0  0  0  0  0
   19.7275    7.6090   31.1189 O   0  0  0  0  0  0  0  0  0  0  0  0
   19.3481    8.5504   27.7402 N   0  0  0  0  0  0  0  0  0  0  0  0
   27.6185   11.0202   35.1637 C   0  0  2  0  0  0  0  0  0  0  0  0
   17.6095    9.6671   28.8352 C   0  0  0  0  0  0  0  0  0  0  0  0
   17.5931    6.2248   26.1458 O   0  0  0  0  0  0  0  0  0  0  0  0
   30.3224   12.4689   36.2738 N   0  0  0  0  0  0  0  0  0  0  0  0
   20.3766    8.1983   27.0892 C   0  0  0  0  0  0  0  0  0  0  0  0
   20.3871    9.6672   30.4567 O   0  0  0  0  0  0  0  0  0  0  0  0
   23.6135    9.4719   35.0207 C   0  0  1  0  0  0  0  0  0  0  0  0
  5  2  1  0
  6  3  1  0
  8  3  1  0
  9  1  1  0
 10  4  1  0
  2 12  1  6
 16 15  1  0
 17  5  1  0
 17 16  1  0
 19  8  2  0
 20  4  2  3
 21  1  1  0
 21 18  1  0
 22 10  1  0
 22 11  1  6
 23  7  1  0
 24 23  2  0
 25  6  1  0
 26  4  1  0
 26 10  1  1
 26 18  1  0
  3 27  1  1
 28  8  1  0
 29 18  2  3
 30  7  1  0
 30 13  2  0
 30 25  1  0
 31 16  1  0
 31 23  1  0
 32  2  1  0
 32 14  1  1
 32 22  1  0
M  END
>  <ID>  (1) 
conformer_0

$$$$
