
     RDKit          3D

 27 28  0  0  0  0  0  0  0  0999 V2000
   24.5477    9.7312   34.9560 C   0  0  1  0  0  0  0  0  0  0  0  0
   28.7009    9.8737   35.0132 C   0  0  0  0  0  0  0  0  0  0  0  0
   20.4919    8.2433   26.8371 C   0  0  0  0  0  0  0  0  0  0  0  0
   23.6016    9.0040   34.4345 C   0  0  1  0  0  0  0  0  0  0  0  0
   17.7815    9.0322   27.7619 C   0  0  0  0  0  0  0  0  0  0  0  0
   26.9502   11.4472   35.4958 C   0  0  0  0  0  0  0  0  0  0  0  0
   21.5381    8.7619   28.0859 C   0  0  0  0  0  0  0  0  0  0  0  0
   29.9015    8.5277   34.7820 N   0  0  0  0  0  0  0  0  0  0  0  0
   26.0765   10.5754   35.0496 N   0  0  0  0  0  0  0  0  0  0  0  0
   18.7281    9.0709   28.0430 C   0  0  0  0  0  0  0  0  0  0  0  0
   23.1896    7.2375   34.7318 O   0  0  0  0  0  0  0  0  0  0  0  0
   21.1799    7.6403   25.8745 O   0  0  0  0  0  0  0  0  0  0  0  0
   28.8508   11.4883   35.6791 C   0  0  2  0  0  0  0  0  0  0  0  0
   30.0216   10.3680   35.4443 N   0  0  0  0  0  0  0  0  0  0  0  0
   15.9687    7.1078   26.5666 O   0  0  0  0  0  0  0  0  0  0  0  0
   24.6182    9.9217   33.5949 O   0  0  0  0  0  0  0  0  0  0  0  0
   27.2035   12.4282   35.8500 N   0  0  0  0  0  0  0  0  0  0  0  0
   23.8491    8.8431   36.3984 O   0  0  0  0  0  0  0  0  0  0  0  0
   19.9960   10.3295   32.2926 O   0  0  0  0  0  0  0  0  0  0  0  0
   19.9182    7.8977   31.3730 O   0  0  0  0  0  0  0  0  0  0  0  0
   20.5531    9.3444   31.7219 P   0  0  0  0  0  0  0  0  0  0  0  0
   18.3679    6.1021   26.5805 O   0  0  0  0  0  0  0  0  0  0  0  0
   23.1993    8.8593   32.8994 C   0  0  0  0  0  0  0  0  0  0  0  0
   30.2618   12.3204   36.2810 N   0  0  0  0  0  0  0  0  0  0  0  0
   16.8696    7.7952   26.9255 C   0  0  0  0  0  0  0  0  0  0  0  0
   21.6338    9.2453   31.6079 O   0  0  0  0  0  0  0  0  0  0  0  0
   21.0859    9.0044   28.9390 C   0  0  0  0  0  0  0  0  0  0  0  0
  4  1  1  0
  7  3  1  0
  8  2  1  0
  9  1  1  0
  9  6  1  0
 10  3  2  3
 10  5  1  0
  4 11  1  6
 12  3  1  0
 13  2  1  0
 13  6  1  0
 14  2  2  0
 14 13  1  0
 16  1  1  0
 16  4  1  0
 17  6  2  3
  1 18  1  1
 21 19  1  0
 21 20  1  0
 23  4  1  0
 13 24  1  6
 25  5  1  0
 25 15  2  0
 25 22  1  0
 26 21  1  0
 26 23  1  0
 27  7  1  0
 27 20  1  0
M  END
>  <ID>  (1) 
conformer_0

$$$$
