
     RDKit          3D

 29 31  0  0  0  0  0  0  0  0999 V2000
   26.8728   11.9896   35.6331 C   0  0  0  0  0  0  0  0  0  0  0  0
   24.5136    9.7853   34.9368 C   0  0  0  0  0  0  0  0  0  0  0  0
   17.5309    8.4014   27.6674 C   0  0  0  0  0  0  0  0  0  0  0  0
   21.5459    8.4867   28.0635 C   0  0  0  0  0  0  0  0  0  0  0  0
   23.3946    9.2340   34.3175 C   0  0  0  0  0  0  0  0  0  0  0  0
   18.6874    9.2550   27.5873 C   0  0  0  0  0  0  0  0  0  0  0  0
   29.0895    9.9874   35.0550 C   0  0  0  0  0  0  0  0  0  0  0  0
   26.2395   10.5627   34.8466 N   0  0  0  0  0  0  0  0  0  0  0  0
   24.0882    9.1473   36.3922 O   0  0  0  0  0  0  0  0  0  0  0  0
   30.2491    8.6023   34.8151 N   0  0  0  0  0  0  0  0  0  0  0  0
   24.7558    9.6212   33.6075 O   0  0  0  0  0  0  0  0  0  0  0  0
   21.0060    7.4668   25.9486 O   0  0  0  0  0  0  0  0  0  0  0  0
   27.0717   12.4951   35.8822 N   0  0  0  0  0  0  0  0  0  0  0  0
   30.0976   11.1055   35.7912 N   0  0  0  0  0  0  0  0  0  0  0  0
   23.2541    7.3697   34.7416 O   0  0  0  0  0  0  0  0  0  0  0  0
   20.0939    8.8950   31.5039 P   0  0  0  0  0  0  0  0  0  0  0  0
   28.8338   11.8323   35.7423 C   0  0  0  0  0  0  0  0  0  0  0  0
   16.5338    7.6553   26.7178 C   0  0  0  0  0  0  0  0  0  0  0  0
   15.2982    7.5621   26.6319 O   0  0  0  0  0  0  0  0  0  0  0  0
   19.6987    9.9527   32.4703 O   0  0  0  0  0  0  0  0  0  0  0  0
   19.5531    7.6124   31.3593 O   0  0  0  0  0  0  0  0  0  0  0  0
   17.7254    9.4162   28.6268 C   0  0  0  0  0  0  0  0  0  0  0  0
   22.9341    9.0550   32.7194 C   0  0  0  0  0  0  0  0  0  0  0  0
   20.6906    8.0349   26.6741 C   0  0  0  0  0  0  0  0  0  0  0  0
   20.3569    9.3265   30.0748 O   0  0  0  0  0  0  0  0  0  0  0  0
   28.2745    9.2076   34.7012 N   0  0  0  0  0  0  0  0  0  0  0  0
   21.4352    8.7665   32.0869 O   0  0  0  0  0  0  0  0  0  0  0  0
   27.4415   10.4387   34.8626 C   0  0  0  0  0  0  0  0  0  0  0  0
   20.4576    9.0857   28.9340 C   0  0  0  0  0  0  0  0  0  0  0  0
  5  2  1  0
  6  3  1  0
  8  1  1  0
  8  2  1  0
  9  2  1  0
 10  7  1  0
 11  2  1  0
 11  5  1  0
 13  1  1  0
 14  7  1  0
 15  5  1  0
 17 13  1  0
 17 14  1  0
 18  3  1  0
 19 18  2  0
 20 16  1  0
 21 16  1  0
 22  3  1  0
 22  6  1  0
 23  5  1  0
 24  4  1  0
 24 12  2  0
 26  7  1  0
 27 16  1  0
 27 23  1  0
 28  8  1  0
 28 26  1  0
 29  4  1  0
 29  6  1  0
 29 21  1  0
 29 25  1  0
M  END
>  <ID>  (1) 
conformer_0

$$$$
