
     RDKit          3D

 28 31  0  0  0  0  0  0  0  0999 V2000
   24.6383    9.6038   34.8933 C   0  0  2  0  0  0  0  0  0  0  0  0
   29.0834    9.7030   35.0510 C   0  0  0  0  0  0  0  0  0  0  0  0
   17.4382    8.9041   27.7189 C   0  0  0  0  0  0  0  0  0  0  0  0
   23.5666    9.1127   34.3308 C   0  0  1  0  0  0  0  0  0  0  0  0
   21.8262    8.7481   28.3325 C   0  0  0  0  0  0  0  0  0  0  0  0
   20.1897    8.3397   27.0318 C   0  0  1  0  0  0  0  0  0  0  0  0
   29.8610   10.5908   35.5494 N   0  0  0  0  0  0  0  0  0  0  0  0
   26.3470   11.9258   35.7116 C   0  0  0  0  0  0  0  0  0  0  0  0
   26.1540   10.5281   35.0201 N   0  0  0  0  0  0  0  0  0  0  0  0
   30.2075    8.2390   34.7761 N   0  0  0  0  0  0  0  0  0  0  0  0
   24.6474    9.7812   33.3539 O   0  0  0  0  0  0  0  0  0  0  0  0
   26.8659   12.4682   35.8877 N   0  0  0  0  0  0  0  0  0  0  0  0
   20.8385    7.3510   25.9786 O   0  0  0  0  0  0  0  0  0  0  0  0
   23.3560    7.3447   34.5598 O   0  0  0  0  0  0  0  0  0  0  0  0
   20.9467    9.4225   30.8155 O   0  0  0  0  0  0  0  0  0  0  0  0
   22.8849    9.0016   32.7617 C   0  0  0  0  0  0  0  0  0  0  0  0
   28.7492   11.8615   35.7877 C   0  0  0  0  0  0  0  0  0  0  0  0
   19.6629    9.9588   32.3040 O   0  0  0  0  0  0  0  0  0  0  0  0
   19.8417    9.0363   31.2661 P   0  0  2  0  0  4  0  0  0  0  0  0
   23.7865    8.9363   36.3144 O   0  0  0  0  0  0  0  0  0  0  0  0
   18.2450    7.4635   26.2852 C   0  0  1  0  0  0  0  0  0  0  0  0
   17.4025    9.9657   28.9340 C   0  0  0  0  0  0  0  0  0  0  0  0
   21.9657    9.2605   30.1194 C   0  0  1  0  0  0  0  0  0  0  0  0
   19.3250    7.8854   31.2231 O   0  0  0  0  0  1  0  0  0  0  0  0
   17.9625    5.8128   26.0788 O   0  0  0  0  0  0  0  0  0  0  0  0
   28.1450    8.8653   34.7333 N   0  0  0  0  0  0  0  0  0  0  0  0
   18.6764    9.3258   28.3930 C   0  0  0  0  0  0  0  0  0  0  0  0
   27.4659   10.6660   35.1762 C   0  0  2  0  0  0  0  0  0  0  0  0
  4  1  1  0
  6  5  1  0
  7  2  1  0
  9  1  1  0
  9  8  1  0
 10  2  1  0
 11  1  1  0
 11  4  1  0
 12  8  2  3
  6 13  1  6
  4 14  1  6
 16  4  1  0
 17  7  2  0
 19 15  1  0
 19 18  1  1
  1 20  1  6
 21  3  1  0
 21  6  1  0
 22  3  1  0
 23  5  1  6
 23 15  1  0
 23 16  1  0
 24 19  1  0
 21 25  1  1
 26  2  1  0
 27  3  1  0
 27 22  1  0
 28  2  1  0
 28  8  1  0
 28  9  1  6
 28 17  1  0
M  RAD  2  19   2  24   2
M  END
>  <ID>  (1) 
conformer_0

$$$$
