
     RDKit          3D

 28 29  0  0  0  0  0  0  0  0999 V2000
   24.5593    9.7822   35.0379 C   0  0  2  0  0  0  0  0  0  0  0  0
   29.2768   10.1630   35.1570 C   0  0  0  0  0  0  0  0  0  0  0  0
   20.2948    8.3162   27.7357 C   0  0  0  0  0  0  0  0  0  0  0  0
   23.3810    9.3843   34.9400 C   0  0  0  0  0  0  0  0  0  0  0  0
   17.5370    9.2381   28.1184 C   0  0  0  0  0  0  0  0  0  0  0  0
   26.6994   11.7755   35.4256 C   0  0  0  0  0  0  0  0  0  0  0  0
   20.4242    7.8487   26.4675 C   0  0  0  0  0  0  0  0  0  0  0  0
   26.0060   10.4347   34.8309 N   0  0  0  0  0  0  0  0  0  0  0  0
   29.7419    9.1707   34.8397 N   0  0  0  0  0  0  0  0  0  0  0  0
   24.2001   10.0229   33.4448 O   0  0  0  0  0  0  0  0  0  0  0  0
   22.7791    9.1699   33.5671 C   0  0  2  0  0  0  0  0  0  0  0  0
   23.7665    9.1563   36.6029 O   0  0  0  0  0  0  0  0  0  0  0  0
   21.4574    7.3195   25.5629 O   0  0  0  0  0  0  0  0  0  0  0  0
   22.9825    7.4973   34.9218 O   0  0  0  0  0  0  0  0  0  0  0  0
   19.5809    7.7481   31.9842 O   0  0  0  0  0  0  0  0  0  0  0  0
   17.3987    8.4717   26.6051 C   0  0  0  0  0  0  0  0  0  0  0  0
   26.9659   12.2715   35.7482 N   0  0  0  0  0  0  0  0  0  0  0  0
   20.0627    8.7181   31.2526 P   0  0  0  0  0  0  0  0  0  0  0  0
   28.8616   11.7925   35.7242 C   0  0  0  0  0  0  0  0  0  0  0  0
   30.1865   10.7520   35.7217 N   0  0  0  0  0  0  0  0  0  0  0  0
   19.1520    8.9244   28.2992 C   0  0  1  0  0  0  0  0  0  0  0  0
   19.5992    9.7459   32.1117 O   0  0  0  0  0  0  0  0  0  0  0  0
   22.7037    9.4740   31.5384 C   0  0  2  0  0  0  0  0  0  0  0  0
   17.8627    8.3372   25.8741 O   0  0  0  0  0  0  0  0  0  0  0  0
   21.4373    9.2752   31.4672 O   0  0  0  0  0  0  0  0  0  0  0  0
   27.4110   10.3274   34.8927 C   0  0  2  0  0  0  0  0  0  0  0  0
   21.9537    8.5612   28.2862 C   0  0  0  0  0  0  0  0  0  0  0  0
   19.8929    8.4657   30.0698 O   0  0  0  0  0  0  0  0  0  0  0  0
  4  1  1  0
  7  3  2  3
  1  8  1  1
  8  6  1  0
  9  2  2  3
 10  1  1  0
 11  4  1  0
 11 10  1  6
 12  4  1  0
 13  7  1  0
 14  4  1  0
 16  5  1  0
 17  6  2  3
 18 15  1  0
 20  2  1  0
 20 19  1  0
 21  3  1  0
 21  5  1  6
 22 18  1  0
 23 11  1  0
 24 16  2  0
 23 25  1  1
 26  2  1  0
 26  6  1  0
 26  8  1  1
 27  3  1  0
 27 23  1  0
 28 18  1  0
 28 21  1  0
M  END
>  <ID>  (1) 
conformer_0

$$$$
