
     RDKit          3D

 28 29  0  0  0  0  0  0  0  0999 V2000
   28.8804   10.1439   35.1212 C   0  0  2  0  0  0  0  0  0  0  0  0
   23.5050    9.1199   34.5753 C   0  0  2  0  0  0  0  0  0  0  0  0
   19.2618    9.0163   27.4440 C   0  0  0  0  0  0  0  0  0  0  0  0
   21.7049    8.7575   28.4472 C   0  0  0  0  0  0  0  0  0  0  0  0
   24.7558    9.4738   34.8238 C   0  0  2  0  0  0  0  0  0  0  0  0
   26.6773   11.4112   35.3182 C   0  0  0  0  0  0  0  0  0  0  0  0
   26.1777   10.5190   34.8963 N   0  0  0  0  0  0  0  0  0  0  0  0
   30.3171    8.5721   35.0825 N   0  0  0  0  0  0  0  0  0  0  0  0
   18.9854    9.5423   28.4263 C   0  0  0  0  0  0  0  0  0  0  0  0
   16.9168    8.0284   26.6740 C   0  0  0  0  0  0  0  0  0  0  0  0
   20.8902    7.3768   25.9412 O   0  0  0  0  0  0  0  0  0  0  0  0
   24.4374   10.0719   33.4684 O   0  0  0  0  0  0  0  0  0  0  0  0
   23.9109    8.9368   36.4779 O   0  0  0  0  0  0  0  0  0  0  0  0
   21.3744    8.9503   31.5590 O   0  0  0  0  0  0  0  0  0  0  0  0
   15.6347    7.7045   26.7980 O   0  0  0  0  0  0  0  0  0  0  0  0
   19.6894   10.0812   32.0548 O   0  0  0  0  0  0  0  0  0  0  0  0
   20.2363    8.9272   31.5332 P   0  0  0  0  0  0  0  0  0  0  0  0
   29.8412   10.8431   35.5640 N   0  0  0  0  0  0  0  0  0  0  0  0
   23.2581    7.3440   34.7434 O   0  0  0  0  0  0  0  0  0  0  0  0
   20.1238    8.2601   26.6980 C   0  0  0  0  0  0  0  0  0  0  0  0
   27.1051   12.3665   35.7266 N   0  0  0  0  0  0  0  0  0  0  0  0
   22.9931    9.1064   32.9517 C   0  0  0  0  0  0  0  0  0  0  0  0
   28.4859   11.5908   35.5488 C   0  0  0  0  0  0  0  0  0  0  0  0
   19.6444    7.8301   31.6491 O   0  0  0  0  0  0  0  0  0  0  0  0
   17.3930    6.9266   25.8363 N   0  0  0  0  0  0  0  0  0  0  0  0
   17.5256    9.4194   27.7578 C   0  0  0  0  0  0  0  0  0  0  0  0
   21.3375    9.3672   29.4569 C   0  0  0  0  0  0  0  0  0  0  0  0
   28.4431    9.0764   34.9123 N   0  0  0  0  0  0  0  0  0  0  0  0
  5  2  1  0
  7  5  1  0
  7  6  1  0
  9  3  1  0
 12  2  1  0
 12  5  1  0
  5 13  1  6
 15 10  2  0
 17 14  1  0
 17 16  1  0
 18  1  1  0
  2 19  1  6
 20  3  1  0
 20  4  2  3
 20 11  1  0
 21  6  1  0
 22  2  1  0
 22 14  1  0
 23  1  1  0
 23 18  2  0
 23 21  1  0
 24 17  1  0
 25 10  1  0
 26  9  1  0
 26 10  1  0
 27  4  1  0
 27 24  1  0
  1 28  1  1
 28  8  1  0
M  END
>  <ID>  (1) 
conformer_0

$$$$
