
     RDKit          3D

 29 30  0  0  0  0  0  0  0  0999 V2000
   24.3666    9.7130   34.9245 C   0  0  0  0  0  0  0  0  0  0  0  0
   29.1911    9.3403   34.9242 C   0  0  2  0  0  0  0  0  0  0  0  0
   17.2922   10.1529   28.6113 C   0  0  0  0  0  0  0  0  0  0  0  0
   21.6782    8.5864   28.1656 C   0  0  0  0  0  0  0  0  0  0  0  0
   23.4281    9.1050   34.4558 C   0  0  2  0  0  0  0  0  0  0  0  0
   18.8411    9.1594   28.2155 C   0  0  0  0  0  0  0  0  0  0  0  0
   26.2438   11.7438   35.4548 C   0  0  0  0  0  0  0  0  0  0  0  0
   25.9810   10.6821   34.9349 N   0  0  0  0  0  0  0  0  0  0  0  0
   30.0381    8.2540   34.8046 N   0  0  0  0  0  0  0  0  0  0  0  0
   30.0875   10.3657   35.4691 N   0  0  0  0  0  0  0  0  0  0  0  0
   24.4181   10.0328   33.3901 O   0  0  0  0  0  0  0  0  0  0  0  0
   17.1157    8.2525   26.6908 C   0  0  0  0  0  0  0  0  0  0  0  0
   23.7447    9.0071   36.4975 O   0  0  0  0  0  0  0  0  0  0  0  0
   21.0997    7.3642   25.8626 O   0  0  0  0  0  0  0  0  0  0  0  0
   19.7018   10.2110   32.3685 O   0  0  0  0  0  0  0  0  0  0  0  0
   23.4137    7.3491   34.6147 O   0  0  0  0  0  0  0  0  0  0  0  0
   19.3816    7.7006   31.5426 O   0  0  0  0  0  0  0  0  0  0  0  0
   15.7879    7.5737   26.5313 O   0  0  0  0  0  0  0  0  0  0  0  0
   27.2687   12.2917   35.6991 N   0  0  0  0  0  0  0  0  0  0  0  0
   28.8455   11.2893   35.5277 C   0  0  0  0  0  0  0  0  0  0  0  0
   22.9955    9.1393   32.7473 C   0  0  0  0  0  0  0  0  0  0  0  0
   20.1589    8.3102   26.8628 C   0  0  0  0  0  0  0  0  0  0  0  0
   21.3008    9.0964   29.4257 C   0  0  2  0  0  0  0  0  0  0  0  0
   27.8874    8.9904   34.6720 N   0  0  0  0  0  0  0  0  0  0  0  0
   19.9818    9.0219   31.8557 P   0  0  0  0  0  0  0  0  0  0  0  0
   17.7200    6.4021   26.4638 O   0  0  0  0  0  0  0  0  0  0  0  0
   17.2497    9.1938   27.7599 C   0  0  0  0  0  0  0  0  0  0  0  0
   27.5149   10.4811   34.9918 C   0  0  1  0  0  0  0  0  0  0  0  0
   20.9950    8.6976   31.7160 O   0  0  0  0  0  0  0  0  0  0  0  0
  5  1  1  0
  8  1  1  0
  8  7  1  0
  2  9  1  1
 10  2  1  0
 11  1  1  0
 13  1  1  0
  5 16  1  6
 18 12  1  0
 19  7  2  0
 20 10  2  0
 20 19  1  0
 21  5  1  0
 22  4  2  3
 22  6  1  0
 22 14  1  0
 23  4  1  0
 23 21  1  1
 24  2  1  0
 25 15  1  0
 25 23  1  0
 26 12  1  0
 27  3  2  3
 27  6  1  0
 27 12  1  0
 28  8  1  0
 28 20  1  0
 28 24  1  1
 29 17  1  0
 29 25  1  0
M  END
>  <ID>  (1) 
conformer_0

$$$$
