
     RDKit          3D

 27 27  0  0  0  0  0  0  0  0999 V2000
   24.6190    9.6256   34.7622 C   0  0  2  0  0  0  0  0  0  0  0  0
   28.5127   11.3206   35.5217 C   0  0  0  0  0  0  0  0  0  0  0  0
   18.6429    8.8613   27.9103 C   0  0  0  0  0  0  0  0  0  0  0  0
   21.1602    8.7121   28.1302 C   0  0  0  0  0  0  0  0  0  0  0  0
   23.3209    9.2352   34.5664 C   0  0  0  0  0  0  0  0  0  0  0  0
   26.6504   11.4932   35.3304 C   0  0  0  0  0  0  0  0  0  0  0  0
   17.1791    7.5355   26.3792 C   0  0  0  0  0  0  0  0  0  0  0  0
   26.2973   10.6107   34.9129 N   0  0  0  0  0  0  0  0  0  0  0  0
   24.8655    9.6978   33.4621 O   0  0  0  0  0  0  0  0  0  0  0  0
   30.2050    8.8154   34.7309 N   0  0  0  0  0  0  0  0  0  0  0  0
   23.8075    8.9883   36.4661 O   0  0  0  0  0  0  0  0  0  0  0  0
   19.9124   10.5660   32.7608 O   0  0  0  0  0  0  0  0  0  0  0  0
   20.4936    9.6957   30.3958 O   0  0  0  0  0  0  0  0  0  0  0  0
   27.3288   12.4234   35.7340 N   0  0  0  0  0  0  0  0  0  0  0  0
   20.3497    9.2668   31.9174 P   0  0  0  0  0  0  0  0  0  0  0  0
   28.1293    9.0911   34.6762 N   0  0  0  0  0  0  0  0  0  0  0  0
   19.9877    9.3857   28.8596 C   0  0  1  0  0  0  0  0  0  0  0  0
   19.4827    8.2099   32.4476 O   0  0  0  0  0  0  0  0  0  0  0  0
   23.2006    9.3021   32.7989 C   0  0  2  0  0  0  0  0  0  0  0  0
   19.8765    7.3283   25.7451 O   0  0  0  0  0  0  0  0  0  0  0  0
   22.9982    7.5682   34.8870 O   0  0  0  0  0  0  0  0  0  0  0  0
   29.0231    9.9193   35.1554 C   0  0  0  0  0  0  0  0  0  0  0  0
   19.3597    7.8171   26.5371 C   0  0  0  0  0  0  0  0  0  0  0  0
   17.5440    9.4353   28.4687 C   0  0  0  0  0  0  0  0  0  0  0  0
   30.5111   10.3106   35.9261 N   0  0  0  0  0  0  0  0  0  0  0  0
   16.9705    7.0887   25.4646 O   0  0  0  0  0  0  0  0  0  0  0  0
   21.7047    9.3085   32.2792 O   0  0  0  0  0  0  0  0  0  0  0  0
  5  1  1  0
  1  8  1  6
  8  6  1  0
  9  1  1  0
 11  5  1  0
 14  2  2  3
 14  6  1  0
 15 12  1  0
 17  3  1  0
 17  4  1  1
 17 13  1  0
 18 15  1  0
 18 17  1  0
 19  5  1  0
 19  9  1  0
 21  5  1  0
 22  2  1  0
 22 10  1  0
 22 16  1  0
 23  3  1  0
 23  7  1  0
 23 20  2  0
 24  3  2  3
 25 22  1  0
 26  7  1  0
 27 15  1  0
 19 27  1  1
M  END
>  <ID>  (1) 
conformer_0

$$$$
