
     RDKit          3D

 32 33  0  0  0  0  0  0  0  0999 V2000
   25.0489    9.6198   34.6003 C   0  0  2  0  0  0  0  0  0  0  0  0
   29.2528    9.7929   35.0170 C   0  0  0  0  0  0  0  0  0  0  0  0
   22.1579    8.2543   27.3604 C   0  0  0  0  0  0  0  0  0  0  0  0
   17.2468    7.9186   26.9660 C   0  0  0  0  0  0  0  0  0  0  0  0
   23.7178    9.4145   35.2134 C   0  0  2  0  0  0  0  0  0  0  0  0
   17.7260    9.4561   28.7010 C   0  0  0  0  0  0  0  0  0  0  0  0
   26.3307   11.8701   35.6248 C   0  0  0  0  0  0  0  0  0  0  0  0
   26.0909   10.5973   34.9302 N   0  0  0  0  0  0  0  0  0  0  0  0
   29.9913   10.8211   35.5498 N   0  0  0  0  0  0  0  0  0  0  0  0
   30.0693    8.5968   34.8528 N   0  0  0  0  0  0  0  0  0  0  0  0
   23.8919    8.9798   36.4993 O   0  0  0  0  0  0  0  0  0  0  0  0
   24.4762    9.9209   33.4053 O   0  0  0  0  0  0  0  0  0  0  0  0
   23.1978    7.2529   34.7479 O   0  0  0  0  0  0  0  0  0  0  0  0
   26.9803   12.5203   35.8791 N   0  0  0  0  0  0  0  0  0  0  0  0
   19.1883    7.6844   31.2056 O   0  0  0  0  0  0  0  0  0  0  0  0
   20.0434    8.9169   31.5892 P   0  0  0  0  0  0  0  0  0  0  0  0
   16.2580    7.8699   26.8311 O   0  0  0  0  0  0  0  0  0  0  0  0
   19.7671   10.1301   32.5968 O   0  0  0  0  0  0  0  0  0  0  0  0
   28.8179   11.8255   35.7300 C   0  0  0  0  0  3  0  0  0  0  0  0
   19.0311    7.4567   26.2806 C   0  0  2  0  0  0  0  0  0  0  0  0
   17.6365    6.3189   26.1770 O   0  0  0  0  0  0  0  0  0  0  0  0
   22.9985    8.7023   34.0686 C   0  0  2  0  0  0  0  0  0  0  0  0
   20.5661    8.6382   27.0768 C   0  0  0  0  0  0  0  0  0  0  0  0
   18.7203    9.4451   28.4676 C   0  0  1  0  0  0  0  0  0  0  0  0
   22.1606    8.8946   28.6398 C   0  0  0  0  0  0  0  0  0  0  0  0
   20.7639    9.4270   30.4527 O   0  0  0  0  0  0  0  0  0  0  0  0
   28.0807    9.2155   34.6318 N   0  0  0  0  0  0  0  0  0  0  0  0
   27.5733   10.7276   35.1038 C   0  0  0  0  0  0  0  0  0  0  0  0
   21.1729    8.6875   32.2922 O   0  0  0  0  0  0  0  0  0  0  0  0
   22.9846    9.1643   32.5335 C   0  0  0  0  0  0  0  0  0  0  0  0
   21.6754    9.5712   29.4527 C   0  0  0  0  0  0  0  0  0  0  0  0
   19.8171    7.9554   27.4868 C   0  0  1  0  0  0  0  0  0  0  0  0
  5  1  1  0
  8  1  1  0
  8  7  1  0
  9  2  2  0
 10  2  1  0
  5 11  1  1
  1 12  1  6
 14  7  2  3
 17  4  2  0
 18 16  1  0
 19  9  1  0
 20  4  1  0
 20 21  1  1
 22  5  1  0
 22 13  1  6
 23  3  1  0
 24  6  1  6
 24 15  1  0
 25  3  1  0
 26 16  1  0
 27  2  1  0
 28  7  1  0
 28  8  1  0
 28 19  1  0
 28 27  1  0
 29 16  1  0
 30 22  1  0
 30 29  1  0
 31 25  1  0
 31 26  1  0
 32 20  1  0
 32 23  1  6
 32 24  1  0
M  RAD  1  19   2
M  END
>  <ID>  (1) 
conformer_0

$$$$
