
     RDKit          3D

 31 34  0  0  0  0  0  0  0  0999 V2000
   24.4770    9.7387   35.0158 C   0  0  0  0  0  0  0  0  0  0  0  0
   29.1758    9.5272   34.9045 C   0  0  0  0  0  0  0  0  0  0  0  0
   17.6313    8.4687   27.6007 C   0  0  1  0  0  0  0  0  0  0  0  0
   18.9142    8.2476   28.1152 C   0  0  2  0  0  0  0  0  0  0  0  0
   23.1138    9.0927   34.5337 C   0  0  2  0  0  0  0  0  0  0  0  0
   22.0554    8.6407   28.1329 C   0  0  0  0  0  0  0  0  0  0  0  0
   28.6717   11.5295   35.6644 C   0  0  0  0  0  0  0  0  0  0  0  0
   25.9829   10.5673   35.1573 N   0  0  0  0  0  0  0  0  0  0  0  0
   23.8922    9.0148   36.5745 O   0  0  0  0  0  0  0  0  0  0  0  0
   30.2499    8.4959   34.6605 N   0  0  0  0  0  0  0  0  0  0  0  0
   30.0978   10.7191   35.5352 N   0  0  0  0  0  0  0  0  0  0  0  0
   24.5865    9.7209   33.5925 O   0  0  0  0  0  0  0  0  0  0  0  0
   18.6808    9.9290   28.7626 C   0  0  2  0  0  0  0  0  0  0  0  0
   21.2877    7.2323   25.8595 O   0  0  0  0  0  0  0  0  0  0  0  0
   16.9196    7.6119   26.6682 C   0  0  0  0  0  0  0  0  0  0  0  0
   27.0382   12.5314   35.9163 N   0  0  0  0  0  0  0  0  0  0  0  0
   15.8565    7.3523   26.7149 O   0  0  0  0  0  0  0  0  0  0  0  0
   26.1135   11.9269   35.7763 C   0  0  0  0  0  0  0  0  0  0  0  0
   20.3301    9.4879   30.5207 O   0  0  0  0  0  0  0  0  0  0  0  0
   20.0433    8.9711   31.6789 P   0  0  1  0  0  4  0  0  0  0  0  0
   19.6089   10.0638   32.7166 O   0  0  0  0  0  0  0  0  0  0  0  0
   22.9248    9.1516   32.9536 C   0  0  0  0  0  0  0  0  0  0  0  0
   28.1552    9.1887   34.6525 N   0  0  0  0  0  0  0  0  0  0  0  0
   23.0287    7.6482   35.2397 O   0  0  0  0  0  0  0  0  0  0  0  0
   19.4522    7.5153   31.2603 O   0  0  0  0  0  1  0  0  0  0  0  0
   27.4359   10.4670   35.1090 C   0  0  0  0  0  0  0  0  0  0  0  0
   17.4765    9.8833   28.6162 C   0  0  0  0  0  0  0  0  0  0  0  0
   19.8492    9.0735   28.4822 N   0  0  0  0  0  0  0  0  0  0  0  0
   21.3317    8.8079   32.2610 O   0  0  0  0  0  0  0  0  0  0  0  0
   21.4701    9.1502   28.8516 C   0  0  2  0  0  0  0  0  0  0  0  0
   21.1231    8.1563   26.9044 C   0  0  0  0  0  0  0  0  0  0  0  0
  4  3  1  0
  5  1  1  0
  8  1  1  0
  9  1  1  0
 10  2  1  0
 11  2  2  0
 11  7  1  0
 12  1  1  0
 12  5  1  0
 13  4  1  0
  3 15  1  1
 17 15  2  0
 18  8  1  0
 18 16  2  3
 20 19  1  0
 20 21  1  1
 22  5  1  0
 23  2  1  0
  5 24  1  1
 25 20  1  0
 26  7  2  0
 26  8  1  0
 26 23  1  0
 27  3  1  0
 13 27  1  6
  4 28  1  6
 28 13  1  0
 29 20  1  0
 29 22  1  0
 30  6  1  1
 30 19  1  0
 30 28  1  0
 31  6  1  0
 31 14  1  0
M  RAD  2  20   2  25   2
M  END
>  <ID>  (1) 
conformer_0

$$$$
