
     RDKit          3D

 36 39  0  0  0  0  0  0  0  0999 V2000
   24.9938    9.5465   34.6573 C   0  0  2  0  0  0  0  0  0  0  0  0
   29.0084    9.6925   35.1178 C   0  0  2  0  0  0  0  0  0  0  0  0
   18.1135    9.7093   29.0682 C   0  0  0  0  0  0  0  0  0  0  0  0
   21.7098    8.3459   27.4708 C   0  0  0  0  0  0  0  0  0  0  0  0
   23.4951    9.6068   35.1130 C   0  0  2  0  0  0  0  0  0  0  0  0
   19.1629    7.7195   26.2823 C   0  0  0  0  0  0  0  0  0  0  0  0
   26.4332   11.9582   35.6563 C   0  0  0  0  0  0  0  0  0  0  0  0
   26.1981   10.4865   34.9242 N   0  0  0  0  0  0  0  0  0  0  0  0
   30.1967    8.4400   34.9190 N   0  0  0  0  0  0  0  0  0  0  0  0
   23.7785    9.0042   36.4008 O   0  0  0  0  0  0  0  0  0  0  0  0
   24.7298    9.6680   33.3697 O   0  0  0  0  0  0  0  0  0  0  0  0
   20.0508    9.2348   31.6873 P   0  0  0  0  0  4  0  0  0  0  0  0
   17.6230    9.2884   28.0065 C   0  0  1  0  0  0  0  0  0  0  0  0
   17.1478    7.6742   26.3855 C   0  0  0  0  0  0  0  0  0  0  0  0
   30.0842   10.6403   35.7414 N   0  0  0  0  0  0  0  0  0  0  0  0
   23.2855    7.3463   34.5930 O   0  0  0  0  0  0  0  0  0  0  0  0
   20.2567   10.9110   31.4930 O   0  0  0  0  0  0  0  0  0  0  0  0
   27.0436   12.4689   35.8050 N   0  0  0  0  0  0  0  0  0  0  0  0
   19.4699    7.4981   31.5966 O   0  0  0  0  0  0  0  0  0  0  0  0
   19.3595    9.3956   32.7162 O   0  0  0  0  0  0  0  0  0  0  0  0
   28.7114   11.6661   35.7698 C   0  0  0  0  0  0  0  0  0  0  0  0
   23.3717    8.6415   33.7701 C   0  0  1  0  0  0  0  0  0  0  0  0
   19.0819    9.0801   28.6659 C   0  0  2  0  0  0  0  0  0  0  0  0
   15.8228    7.5132   26.5345 O   0  0  0  0  0  0  0  0  0  0  0  0
   20.9248    7.4978   25.4429 O   0  0  0  0  0  0  0  0  0  0  0  0
   17.3486    6.8157   25.3004 O   0  0  0  0  0  0  0  0  0  0  0  0
   19.6688    8.3419   27.1024 N   0  0  0  0  0  0  0  0  0  0  0  0
   28.2636    8.9939   34.7899 N   0  0  0  0  0  0  0  0  0  0  0  0
   27.3591   10.4769   35.1069 C   0  0  0  0  0  0  0  0  0  0  0  0
   21.5834    9.1816   32.1085 O   0  0  0  0  0  0  0  0  0  0  0  0
   20.9179    8.2239   27.0113 C   0  0  0  0  0  0  0  0  0  0  0  0
   22.9359    9.2170   32.6186 C   0  0  2  0  0  0  0  0  0  0  0  0
   17.8062    7.6694   27.5289 C   0  0  1  0  0  0  0  0  0  0  0  0
   21.9852    9.1321   29.7663 C   0  0  2  0  0  0  0  0  0  0  0  0
   22.2598    8.8073   28.7742 C   0  0  0  0  0  0  0  0  0  0  0  0
   20.0472    9.0417   30.3601 O   0  0  0  0  0  1  0  0  0  0  0  0
  5  1  1  0
  1  8  1  1
  8  7  1  0
  2  9  1  6
  5 10  1  1
 11  1  1  0
 13  3  1  1
 15  2  1  0
 18  7  1  0
 20 12  1  0
 21 15  1  0
 21 18  1  0
 22  5  1  0
 22 11  1  0
 22 16  1  1
 23  3  1  0
 23 13  1  0
 23 19  1  1
 24 14  1  0
 26 14  1  0
 27  6  1  0
 27 23  1  0
 28  2  1  0
 29  8  1  0
 29 28  1  0
 30 12  1  0
 31  4  1  0
 31 25  2  0
 31 27  1  0
 32 22  1  0
 32 30  1  1
 33  6  1  0
 33 13  1  0
 33 14  1  6
 34 17  1  6
 34 32  1  0
 35  4  2  3
 35 34  1  0
 36 12  1  0
M  RAD  2  12   2  36   2
M  END
>  <ID>  (1) 
conformer_0

$$$$
