
     RDKit          3D

 18 21  0  0  0  0  0  0  0  0999 V2000
   22.4383   23.4648   17.3159 C   0  0  0  0  0  0  0  0  0  0  0  0
   22.0121   22.9163   19.2736 C   0  0  0  0  0  0  0  0  0  0  0  0
   23.2675   23.0622   21.2689 C   0  0  0  0  0  0  0  0  0  0  0  0
   22.4052   19.9027   20.0374 C   0  0  0  0  0  0  0  0  0  0  0  0
   24.1894   23.1781   19.3340 C   0  0  0  0  0  0  0  0  0  0  0  0
   20.6238   22.4386   19.6594 C   0  0  0  0  0  0  0  0  0  0  0  0
   23.2756   18.7567   20.0357 O   0  0  0  0  0  0  0  0  0  0  0  0
   20.1265   23.2474   20.7810 C   0  0  0  0  0  0  0  0  0  0  0  0
   19.7798   23.4765   22.0655 O   0  0  0  0  0  0  0  0  0  0  0  0
   20.8373   20.7813   19.6769 C   0  0  0  0  0  0  0  0  0  0  0  0
   24.0716   22.3103   17.4407 C   0  0  0  0  0  0  0  0  0  0  0  0
   18.9492   23.4632   20.2154 O   0  0  0  0  0  0  0  0  0  0  0  0
   23.4152   20.3060   21.5789 C   0  0  0  0  0  0  0  0  0  0  0  0
   22.9776   24.0901   19.6411 C   0  0  0  0  0  0  0  0  0  0  0  0
   21.6136   23.6743   21.0165 C   0  0  0  0  0  0  0  0  0  0  0  0
   22.6830   21.6463   21.0644 C   0  0  0  0  0  0  0  0  0  0  0  0
   23.1017   21.6124   18.9651 C   0  0  0  0  0  0  0  0  0  0  0  0
   24.0219   23.8979   17.4595 C   0  0  0  0  0  0  0  0  0  0  0  0
  6  2  1  0
  7  4  1  0
  8  6  1  0
  9  8  1  0
 10  4  1  0
 10  6  1  0
 12  8  1  0
 13  4  1  0
 14  2  1  0
 14  3  1  0
 14  5  1  0
 15  2  1  0
 15  3  1  0
 15  8  1  0
 16  3  1  0
 16 13  1  0
 17  2  1  0
 17  5  1  0
 17 11  1  0
 18  1  1  0
 18 11  1  0
M  END
>  <ID>  (1) 
conformer_0

$$$$
