
     RDKit          3D

 18 21  0  0  0  0  0  0  0  0999 V2000
   23.5639   23.6275   18.8642 C   0  0  0  0  0  0  0  0  0  0  0  0
   21.7811   21.8275   18.9453 C   0  0  0  0  0  0  0  0  0  0  0  0
   23.9818   21.8580   18.4694 C   0  0  0  0  0  0  0  0  0  0  0  0
   22.6801   22.9912   21.4362 C   0  0  0  0  0  0  0  0  0  0  0  0
   22.0072   19.8088   20.1727 C   0  0  0  0  0  0  0  0  0  0  0  0
   23.9694   23.8531   17.2049 C   0  0  0  0  0  0  0  0  0  0  0  0
   19.8984   23.2367   20.7617 C   0  0  0  0  0  0  0  0  0  0  0  0
   18.8841   23.4167   20.1836 O   0  0  0  0  0  0  0  0  0  0  0  0
   19.7143   23.4770   22.0931 O   0  0  0  0  0  0  0  0  0  0  0  0
   23.4436   22.7592   17.1240 C   0  0  0  0  0  0  0  0  0  0  0  0
   22.4231   18.6395   19.8812 O   0  0  0  0  0  0  0  0  0  0  0  0
   23.6637   21.2740   21.6237 C   0  0  0  0  0  0  0  0  0  0  0  0
   21.6357   23.2798   20.6605 C   0  0  0  0  0  0  0  0  0  0  0  0
   20.7861   21.8100   19.8951 C   0  0  0  0  0  0  0  0  0  0  0  0
   24.4159   20.7369   21.5881 O   0  0  0  0  0  0  0  0  0  0  0  0
   23.7534   23.3400   20.3188 C   0  0  0  0  0  0  0  0  0  0  0  0
   23.1458   21.5597   19.9352 C   0  0  0  0  0  0  0  0  0  0  0  0
   23.1594   19.0792   21.3153 C   0  0  0  0  0  0  0  0  0  0  0  0
  3  1  1  0
  6  1  1  0
  8  7  1  0
  9  7  1  0
 10  3  1  0
 10  6  1  0
 11  5  1  0
 13  4  1  0
 13  7  1  0
 14  2  1  0
 14  7  1  0
 14 13  1  0
 15 12  1  0
 16  1  1  0
 16  4  1  0
 17  2  1  0
 17  3  1  0
 17 12  1  0
 17 16  1  0
 18 11  1  0
 18 15  1  0
M  END
>  <ID>  (1) 
conformer_0

$$$$
