
     RDKit          3D

 18 23  0  0  0  0  0  0  0  0999 V2000
   22.4664   22.7909   18.2691 C   0  0  0  0  0  0  0  0  0  0  0  0
   23.6619   24.2239   18.7145 C   0  0  0  0  0  0  0  0  0  0  0  0
   24.1515   23.3284   17.3055 C   0  0  0  0  0  0  0  0  0  0  0  0
   24.1949   21.9549   18.0194 C   0  0  0  0  0  0  0  0  0  0  0  0
   22.2078   19.8798   20.0705 C   0  0  0  0  0  0  0  0  0  0  0  0
   22.8932   21.2981   19.2140 C   0  0  0  0  0  0  0  0  0  0  0  0
   22.9574   23.9876   20.4158 C   0  0  0  0  0  0  0  0  0  0  0  0
   18.9706   23.5732   20.5719 O   0  0  0  0  0  0  0  0  0  0  0  0
   20.0650   23.1153   20.8689 C   0  0  0  0  0  0  0  0  0  0  0  0
   24.1528   19.2605   20.4327 O   0  0  0  0  0  0  0  0  0  0  0  0
   19.8833   23.4234   22.2962 O   0  0  0  0  0  0  0  0  0  0  0  0
   20.4915   21.6165   19.5935 C   0  0  0  0  0  0  0  0  0  0  0  0
   22.6455   21.9556   20.9976 C   0  0  0  0  0  0  0  0  0  0  0  0
   21.7068   23.4645   21.5627 C   0  0  0  0  0  0  0  0  0  0  0  0
   22.1825   18.9298   19.9206 O   0  0  0  0  0  0  0  0  0  0  0  0
   23.5872   20.0757   20.9335 C   0  0  0  0  0  0  0  0  0  0  0  0
   24.1066   23.0031   19.7214 C   0  0  0  0  0  0  0  0  0  0  0  0
   21.5085   22.7074   19.9934 C   0  0  0  0  0  0  0  0  0  0  0  0
  2  1  1  0
  3  2  1  0
  4  1  1  0
  4  3  1  0
  6  1  1  0
  6  4  1  0
  6  5  1  0
  7  2  1  0
  9  8  1  0
 11  9  1  0
 13  6  1  0
 14  7  1  0
 14  9  1  0
 14 13  1  0
 15  5  1  0
 16  5  1  0
 16 10  1  0
 17  2  1  0
 17  7  1  0
 18  9  1  0
 18 12  1  0
 18 13  1  0
 18 14  1  0
M  END
>  <ID>  (1) 
conformer_0

$$$$
