
     RDKit          3D

 17 20  0  0  0  0  0  0  0  0999 V2000
   21.5017   23.0636   21.2879 C   0  0  0  0  0  0  0  0  0  0  0  0
   20.7607   21.8911   19.9693 C   0  0  0  0  0  0  0  0  0  0  0  0
   24.0967   21.9910   19.3272 C   0  0  0  0  0  0  0  0  0  0  0  0
   22.0409   19.7494   20.3257 C   0  0  0  0  0  0  0  0  0  0  0  0
   24.5582   23.2172   17.3460 C   0  0  0  0  0  0  0  0  0  0  0  0
   23.2536   23.6828   17.2579 C   0  0  0  0  0  0  0  0  0  0  0  0
   19.7480   23.5622   22.5536 O   0  0  0  0  0  0  0  0  0  0  0  0
   18.8428   23.5015   20.6392 O   0  0  0  0  0  0  0  0  0  0  0  0
   19.9392   23.1830   21.0493 C   0  0  0  0  0  0  0  0  0  0  0  0
   22.2735   18.9216   19.5738 O   0  0  0  0  0  0  0  0  0  0  0  0
   22.2744   21.8960   20.3718 C   0  0  0  0  0  0  0  0  0  0  0  0
   24.0871   19.8239   20.7615 O   0  0  0  0  0  0  0  0  0  0  0  0
   22.0128   22.7270   18.5620 C   0  0  0  0  0  0  0  0  0  0  0  0
   23.3421   20.5862   20.6703 C   0  0  0  0  0  0  0  0  0  0  0  0
   23.7392   21.7544   18.0951 C   0  0  0  0  0  0  0  0  0  0  0  0
   23.1032   23.4550   20.5882 C   0  0  0  0  0  0  0  0  0  0  0  0
   23.7157   23.8437   19.1524 C   0  0  0  0  0  0  0  0  0  0  0  0
  2  1  1  0
  6  5  1  0
  9  1  1  0
  9  2  1  0
  9  7  1  0
  9  8  1  0
 10  4  1  0
 11  1  1  0
 11  2  1  0
 14  4  1  0
 14 11  1  0
 14 12  2  0
 15  3  1  0
 15  5  1  0
 15 13  1  0
 16  1  1  0
 16 11  1  0
 17  3  1  0
 17  6  1  0
 17 16  1  0
M  END
>  <ID>  (1) 
conformer_0

$$$$
