
     RDKit          3D

 17 18  0  0  0  0  0  0  0  0999 V2000
   20.6424   21.3898   19.8805 C   0  0  0  0  0  0  0  0  0  0  0  0
   23.6913   21.8403   18.0858 C   0  0  2  0  0  0  0  0  0  0  0  0
   22.4525   23.6378   20.6851 C   0  0  0  0  0  0  0  0  0  0  0  0
   22.4489   19.9809   20.3007 C   0  0  2  0  0  0  0  0  0  0  0  0
   24.5020   23.1798   17.4252 C   0  0  2  0  0  0  0  0  0  0  0  0
   23.5833   23.7251   19.0163 C   0  0  0  0  0  0  0  0  0  0  0  0
   19.7277   23.3358   22.4735 O   0  0  0  0  0  0  0  0  0  0  0  0
   18.8569   23.1437   20.4413 O   0  0  0  0  0  0  0  0  0  0  0  0
   20.0304   22.9871   21.0176 C   0  0  0  0  0  0  0  0  0  0  0  0
   22.9700   18.6914   19.7500 O   0  0  0  0  0  0  0  0  0  0  0  0
   22.5705   21.6697   20.3390 C   0  0  1  0  0  0  0  0  0  0  0  0
   21.0850   23.0408   20.7402 C   0  0  0  0  0  0  0  0  0  0  0  0
   23.6562   20.2879   21.4882 C   0  0  0  0  0  0  0  0  0  0  0  0
   24.2499   19.9206   20.8803 O   0  0  0  0  0  0  0  0  0  0  0  0
   24.0182   22.7621   19.9419 C   0  0  2  0  0  0  0  0  0  0  0  0
   23.2153   22.9352   16.9249 C   0  0  0  0  0  0  0  0  0  0  0  0
   22.0343   22.3887   18.7176 C   0  0  0  0  0  0  0  0  0  0  0  0
  5  2  1  0
  5  6  1  1
  9  7  1  0
  9  8  2  0
  4 10  1  6
 11  4  1  0
 12  1  1  0
 12  3  2  3
 12  9  1  0
 13  4  1  0
 14 13  1  0
 15  3  1  0
 15  6  1  6
 15 11  1  0
  2 16  1  6
 16  5  1  0
 17  2  1  0
 11 17  1  6
M  END
>  <ID>  (1) 
conformer_0

$$$$
