
     RDKit          3D

 20 23  0  0  0  0  0  0  0  0999 V2000
   22.3833   21.6906   20.4770 C   0  0  0  0  0  0  0  0  0  0  0  0
   24.2972   23.8745   18.2656 C   0  0  0  0  0  0  0  0  0  0  0  0
   21.3757   23.1982   20.9407 C   0  0  0  0  0  0  0  0  0  0  0  0
   21.8551   19.5592   20.2074 C   0  0  0  0  0  0  0  0  0  0  0  0
   20.8145   21.8389   19.7566 C   0  0  0  0  0  0  0  0  0  0  0  0
   19.6414   23.3907   20.8017 C   0  0  0  0  0  0  0  0  0  0  0  0
   23.0447   23.2563   20.9848 C   0  0  0  0  0  0  0  0  0  0  0  0
   19.6259   23.5400   22.1969 O   0  0  0  0  0  0  0  0  0  0  0  0
   18.8314   23.0260   20.3258 O   0  0  0  0  0  0  0  0  0  0  0  0
   21.5822   19.4087   19.4909 O   0  0  0  0  0  0  0  0  0  0  0  0
   23.5199   22.9490   16.9713 C   0  0  0  0  0  0  0  0  0  0  0  0
   24.9852   21.9867   17.2327 C   0  0  0  0  0  0  0  0  0  0  0  0
   23.7382   19.9095   21.9910 C   0  0  0  0  0  0  0  0  0  0  0  0
   24.4002   20.1531   21.0413 O   0  0  0  0  0  0  0  0  0  0  0  0
   23.2191   21.6196   18.2730 C   0  0  0  0  0  0  0  0  0  0  0  0
   23.7274   23.9386   19.8509 C   0  0  0  0  0  0  0  0  0  0  0  0
   23.0760   20.7670   20.4954 C   0  0  0  0  0  0  0  0  0  0  0  0
   24.3696   22.2343   19.0842 C   0  0  0  0  0  0  0  0  0  0  0  0
   23.5675   18.6437   19.7827 O   0  0  0  0  0  0  0  0  0  0  0  0
   22.2538   23.0969   18.7345 C   0  0  0  0  0  0  0  0  0  0  0  0
  3  1  1  0
  5  1  1  0
  5  3  1  0
  6  3  1  0
  7  1  1  0
  7  3  1  0
  8  6  1  0
  9  6  2  0
 10  4  1  0
 11  2  1  0
 12 11  1  0
 14 13  1  0
 15 11  1  0
 16  2  1  0
 16  7  1  0
 17  1  1  0
 17  4  1  0
 17 14  1  0
 18  2  1  0
 18 12  1  0
 18 15  1  0
 19  4  1  0
 20 15  1  0
M  END
>  <ID>  (1) 
conformer_0

$$$$
