
     RDKit          3D

 20 22  0  0  0  0  0  0  0  0999 V2000
   22.9238   24.1193   20.2831 C   0  0  0  0  0  0  0  0  0  0  0  0
   22.6914   21.4545   19.3141 C   0  0  0  0  0  0  0  0  0  0  0  0
   23.7377   23.1125   19.7272 C   0  0  0  0  0  0  0  0  0  0  0  0
   22.4905   23.0890   18.2446 C   0  0  0  0  0  0  0  0  0  0  0  0
   23.4792   21.2968   21.1504 C   0  0  0  0  0  0  0  0  0  0  0  0
   20.6364   21.3517   19.5570 C   0  0  0  0  0  0  0  0  0  0  0  0
   19.8494   23.2245   20.5982 C   0  0  0  0  0  0  0  0  0  0  0  0
   18.8132   23.2855   20.2501 O   0  0  0  0  0  0  0  0  0  0  0  0
   23.1030   18.2822   20.6731 O   0  0  0  0  0  0  0  0  0  0  0  0
   19.6912   23.9263   21.9212 O   0  0  0  0  0  0  0  0  0  0  0  0
   24.4155   20.6410   21.6004 O   0  0  0  0  0  0  0  0  0  0  0  0
   24.1945   21.7939   18.1978 C   0  0  0  0  0  0  0  0  0  0  0  0
   23.8607   23.9214   17.6484 C   0  0  0  0  0  0  0  0  0  0  0  0
   24.1244   22.8020   16.9328 C   0  0  0  0  0  0  0  0  0  0  0  0
   22.2255   20.1437   19.8264 C   0  0  0  0  0  0  0  0  0  0  0  0
   22.3374   22.0995   21.2274 C   0  0  0  0  0  0  0  0  0  0  0  0
   21.8157   23.8480   21.3175 C   0  0  0  0  0  0  0  0  0  0  0  0
   23.4448   19.3067   21.3180 C   0  0  0  0  0  0  0  0  0  0  0  0
   21.8426   18.9407   19.6679 O   0  0  0  0  0  0  0  0  0  0  0  0
   21.0523   22.8303   20.1752 C   0  0  0  0  0  0  0  0  0  0  0  0
  3  1  1  0
  4  2  1  0
  4  3  1  0
  8  7  2  0
 10  7  1  0
 11  5  1  0
 12  2  1  0
 13  4  1  0
 14 12  1  0
 14 13  1  0
 15  2  1  0
 16  5  1  0
 17  1  1  0
 17 16  1  0
 18  9  1  0
 18 11  1  0
 19  9  1  0
 19 15  1  0
 20  6  1  0
 20  7  1  0
 20 16  1  0
 20 17  1  0
M  END
>  <ID>  (1) 
conformer_0

$$$$
