
     RDKit          3D

 19 23  0  0  0  0  0  0  0  0999 V2000
   23.1420   23.2282   17.0513 C   0  0  0  0  0  0  0  0  0  0  0  0
   24.3835   23.6749   17.4164 C   0  0  0  0  0  0  0  0  0  0  0  0
   24.5183   22.0260   17.7070 C   0  0  0  0  0  0  0  0  0  0  0  0
   23.2114   23.7480   19.0718 C   0  0  0  0  0  0  0  0  0  0  0  0
   21.5857   20.4351   19.9299 C   0  0  0  0  0  0  0  0  0  0  0  0
   23.3758   23.6801   20.5818 C   0  0  0  0  0  0  0  0  0  0  0  0
   18.9218   23.3858   20.1760 O   0  0  0  0  0  0  0  0  0  0  0  0
   19.6763   23.3557   22.2394 O   0  0  0  0  0  0  0  0  0  0  0  0
   20.0479   23.3234   20.8931 C   0  0  0  0  0  0  0  0  0  0  0  0
   22.3743   18.9109   19.8832 O   0  0  0  0  0  0  0  0  0  0  0  0
   24.3962   19.9802   21.3906 O   0  0  0  0  0  0  0  0  0  0  0  0
   24.2372   22.1594   19.4543 C   0  0  0  0  0  0  0  0  0  0  0  0
   22.8229   21.7757   19.0680 C   0  0  0  0  0  0  0  0  0  0  0  0
   23.5448   21.2085   21.3765 C   0  0  0  0  0  0  0  0  0  0  0  0
   20.6140   21.1707   19.5503 C   0  0  0  0  0  0  0  0  0  0  0  0
   21.2413   22.7493   19.8197 C   0  0  0  0  0  0  0  0  0  0  0  0
   21.6060   23.7522   21.2894 C   0  0  0  0  0  0  0  0  0  0  0  0
   23.1333   19.4703   20.6853 C   0  0  0  0  0  0  0  0  0  0  0  0
   22.3501   22.2062   21.0711 C   0  0  0  0  0  0  0  0  0  0  0  0
  2  1  1  0
  3  2  1  0
  6  4  1  0
  9  7  1  0
  9  8  1  0
 10  5  1  0
 12  3  1  0
 12  4  1  0
 13 12  1  0
 14 11  1  0
 15  5  1  0
 16  9  1  0
 16 15  1  0
 17  6  1  0
 17  9  1  0
 17 16  1  0
 18 10  1  0
 18 11  1  0
 18 14  1  0
 19  6  1  0
 19 14  1  0
 19 16  1  0
 19 17  1  0
M  END
>  <ID>  (1) 
conformer_0

$$$$
