
     RDKit          3D

 19 23  0  0  0  0  0  0  0  0999 V2000
   24.4509   23.6698   18.5747 C   0  0  0  0  0  0  0  0  0  0  0  0
   23.0739   23.5641   16.9133 C   0  0  0  0  0  0  0  0  0  0  0  0
   22.3959   22.8024   17.9584 C   0  0  0  0  0  0  0  0  0  0  0  0
   23.1985   19.9811   20.3282 C   0  0  0  0  0  0  0  0  0  0  0  0
   23.1130   24.1102   19.5447 C   0  0  0  0  0  0  0  0  0  0  0  0
   23.3264   22.9230   20.2690 C   0  0  0  0  0  0  0  0  0  0  0  0
   20.1191   23.2926   20.9295 C   0  0  0  0  0  0  0  0  0  0  0  0
   19.7744   23.4203   22.2295 O   0  0  0  0  0  0  0  0  0  0  0  0
   23.4116   18.7318   20.0065 O   0  0  0  0  0  0  0  0  0  0  0  0
   24.3432   20.6697   21.3618 O   0  0  0  0  0  0  0  0  0  0  0  0
   18.9130   23.1165   20.1086 O   0  0  0  0  0  0  0  0  0  0  0  0
   21.5661   23.3389   20.5945 C   0  0  0  0  0  0  0  0  0  0  0  0
   23.8184   21.8607   18.9331 C   0  0  0  0  0  0  0  0  0  0  0  0
   21.5003   19.8146   20.3643 C   0  0  0  0  0  0  0  0  0  0  0  0
   21.9031   21.8624   20.3051 C   0  0  0  0  0  0  0  0  0  0  0  0
   20.5411   21.6643   19.6766 C   0  0  0  0  0  0  0  0  0  0  0  0
   21.6985   18.9903   19.8006 O   0  0  0  0  0  0  0  0  0  0  0  0
   23.2454   20.9322   21.8449 C   0  0  0  0  0  0  0  0  0  0  0  0
   24.3962   22.5741   17.3106 C   0  0  0  0  0  0  0  0  0  0  0  0
  3  2  1  0
  5  1  1  0
  6  5  1  0
  8  7  1  0
  9  4  1  0
 10  4  1  0
 11  7  2  0
 12  6  1  0
 12  7  1  0
 13  1  1  0
 13  3  1  0
 13  6  1  0
 14  4  1  0
 15  6  1  0
 15 12  1  0
 15 14  1  0
 16 15  1  0
 17  9  1  0
 17 14  1  0
 18 10  1  0
 19  1  1  0
 19  2  1  0
 19 13  1  0
M  END
>  <ID>  (1) 
conformer_0

$$$$
