
     RDKit          3D

 17 18  0  0  0  0  0  0  0  0999 V2000
   22.7480   23.1664   17.1431 C   0  0  0  0  0  0  0  0  0  0  0  0
   22.7295   22.7857   20.8258 C   0  0  0  0  0  0  0  0  0  0  0  0
   21.8597   22.7428   18.8619 C   0  0  0  0  0  0  0  0  0  0  0  0
   23.7913   21.2568   20.7723 C   0  0  0  0  0  0  0  0  0  0  0  0
   21.4687   23.3172   20.8978 C   0  0  0  0  0  0  0  0  0  0  0  0
   20.9702   21.8433   19.9393 C   0  0  0  0  0  0  0  0  0  0  0  0
   18.7130   23.2982   20.2556 O   0  0  0  0  0  0  0  0  0  0  0  0
   19.5967   23.6426   22.0163 O   0  0  0  0  0  0  0  0  0  0  0  0
   19.7778   23.2397   20.7457 C   0  0  0  0  0  0  0  0  0  0  0  0
   24.0010   18.7723   19.9426 O   0  0  0  0  0  0  0  0  0  0  0  0
   23.6494   23.4967   19.7511 C   0  0  0  0  0  0  0  0  0  0  0  0
   23.2504   19.2812   20.5136 C   0  0  0  0  0  0  0  0  0  0  0  0
   23.8195   23.5553   17.7835 C   0  0  0  0  0  0  0  0  0  0  0  0
   24.3015   22.1380   17.5945 C   0  0  0  0  0  0  0  0  0  0  0  0
   23.8220   21.9261   19.1035 C   0  0  0  0  0  0  0  0  0  0  0  0
   21.8903   18.6022   19.6954 O   0  0  0  0  0  0  0  0  0  0  0  0
   21.5716   20.0612   20.3085 C   0  0  0  0  0  0  0  0  0  0  0  0
  4  2  1  0
  5  2  1  0
  6  3  1  0
  6  5  1  0
  9  5  1  0
  9  7  2  0
  9  8  1  0
 11  2  1  0
 12 10  1  0
 13  1  1  0
 14 13  1  0
 15  4  1  0
 15 11  1  0
 15 14  1  0
 16 12  1  0
 17  6  1  0
 17 12  1  0
 17 16  1  0
M  END
>  <ID>  (1) 
conformer_0

$$$$
