
     RDKit          3D

 20 21  0  0  0  0  0  0  0  0999 V2000
   23.0060   21.8517   19.5200 C   0  0  0  0  0  0  0  0  0  0  0  0
   21.3382   23.2733   21.0482 C   0  0  0  0  0  0  0  0  0  0  0  0
   24.6889   22.7572   17.2046 C   0  0  0  0  0  0  0  0  0  0  0  0
   23.2423   18.8950   20.5161 C   0  0  0  0  0  0  0  0  0  0  0  0
   24.5620   23.3401   19.2102 C   0  0  0  0  0  0  0  0  0  0  0  0
   24.3349   21.6600   18.3228 C   0  0  0  0  0  0  0  0  0  0  0  0
   19.9598   23.1371   20.6876 C   0  0  0  0  0  0  0  0  0  0  0  0
   18.9200   23.1090   20.1065 O   0  0  0  0  0  0  0  0  0  0  0  0
   19.6479   23.4813   22.0812 O   0  0  0  0  0  0  0  0  0  0  0  0
   24.4624   20.3574   21.1715 O   0  0  0  0  0  0  0  0  0  0  0  0
   23.3451   18.8828   19.4354 O   0  0  0  0  0  0  0  0  0  0  0  0
   23.5873   24.3247   17.9067 C   0  0  0  0  0  0  0  0  0  0  0  0
   22.7241   22.7759   17.6817 C   0  0  0  0  0  0  0  0  0  0  0  0
   23.4607   20.9533   21.2397 C   0  0  0  0  0  0  0  0  0  0  0  0
   21.3227   19.6978   19.8629 O   0  0  0  0  0  0  0  0  0  0  0  0
   23.1424   23.5537   20.1270 C   0  0  0  0  0  0  0  0  0  0  0  0
   21.8052   20.2503   20.2436 C   0  0  0  0  0  0  0  0  0  0  0  0
   22.5534   22.1796   21.2728 C   0  0  0  0  0  0  0  0  0  0  0  0
   20.9107   21.7692   19.6116 C   0  0  0  0  0  0  0  0  0  0  0  0
   21.5430   23.1640   18.9608 C   0  0  0  0  0  0  0  0  0  0  0  0
  6  1  1  0
  6  3  1  0
  6  5  1  0
  7  2  1  0
  8  7  2  0
  9  7  1  0
 11  4  1  0
 12  5  1  0
 13 12  1  0
 14 10  1  0
 16  1  1  0
 16  5  1  0
 17  4  1  0
 17 15  2  0
 18  1  1  0
 18  2  1  0
 18 14  1  0
 18 16  1  0
 19 17  1  0
 20 13  1  0
 20 19  1  0
M  END
>  <ID>  (1) 
conformer_0

$$$$
