
     RDKit          3D

 19 21  0  0  0  0  0  0  0  0999 V2000
   21.0880   21.3339   19.5576 C   0  0  0  0  0  0  0  0  0  0  0  0
   21.1132   22.7850   20.0782 C   0  0  0  0  0  0  0  0  0  0  0  0
   22.4980   22.0362   20.8760 C   0  0  0  0  0  0  0  0  0  0  0  0
   23.4066   21.8231   19.1922 C   0  0  0  0  0  0  0  0  0  0  0  0
   23.4853   19.6121   21.8684 C   0  0  0  0  0  0  0  0  0  0  0  0
   23.8887   23.7969   17.1340 C   0  0  0  0  0  0  0  0  0  0  0  0
   19.9604   23.2177   20.8242 C   0  0  0  0  0  0  0  0  0  0  0  0
   19.6797   23.3674   22.1778 O   0  0  0  0  0  0  0  0  0  0  0  0
   18.9571   23.3197   20.3235 O   0  0  0  0  0  0  0  0  0  0  0  0
   22.4077   18.6996   19.8424 O   0  0  0  0  0  0  0  0  0  0  0  0
   24.3593   22.3769   17.1578 C   0  0  0  0  0  0  0  0  0  0  0  0
   23.0504   23.9355   19.3902 C   0  0  0  0  0  0  0  0  0  0  0  0
   24.0025   19.7235   20.9152 O   0  0  0  0  0  0  0  0  0  0  0  0
   21.9155   19.2177   20.2611 C   0  0  0  0  0  0  0  0  0  0  0  0
   22.5529   22.6109   18.0044 C   0  0  0  0  0  0  0  0  0  0  0  0
   24.6701   23.3689   18.7417 C   0  0  0  0  0  0  0  0  0  0  0  0
   22.7647   20.8049   20.4025 C   0  0  0  0  0  0  0  0  0  0  0  0
   21.8999   23.8145   21.2481 C   0  0  0  0  0  0  0  0  0  0  0  0
   23.6521   23.4321   20.5753 C   0  0  0  0  0  0  0  0  0  0  0  0
  2  1  1  0
  3  2  1  0
  7  2  1  0
  8  7  1  0
  9  7  2  0
 11  6  1  0
 13  5  1  0
 14 10  1  0
 15  4  1  0
 16  6  1  0
 16 11  1  0
 16 12  1  0
 17  3  1  0
 17  4  1  0
 17 13  1  0
 17 14  1  0
 18  2  1  0
 18  3  1  0
 19  3  1  0
 19 12  1  0
 19 18  1  0
M  END
>  <ID>  (1) 
conformer_0

$$$$
