
     RDKit          3D

 15 14  0  0  0  0  0  0  0  0999 V2000
   21.6275   22.9178   20.5355 C   0  0  0  0  0  0  0  0  0  0  0  0
   23.8872   21.8161   18.8626 C   0  0  0  0  0  0  0  0  0  0  0  0
   21.1664   21.9119   19.7017 C   0  0  0  0  0  0  0  0  0  0  0  0
   23.4107   20.4130   20.4485 C   0  0  0  0  0  0  0  0  0  0  0  0
   24.0502   23.5189   19.5747 C   0  0  0  0  0  0  0  0  0  0  0  0
   24.7291   22.6088   17.7855 C   0  0  0  0  0  0  0  0  0  0  0  0
   19.9843   23.1547   20.8402 C   0  0  0  0  0  0  0  0  0  0  0  0
   18.7314   23.4991   20.1395 O   0  0  0  0  0  0  0  0  0  0  0  0
   19.6805   23.6570   21.9409 O   0  0  0  0  0  0  0  0  0  0  0  0
   22.6883   18.7343   19.9018 O   0  0  0  0  0  0  0  0  0  0  0  0
   24.6790   20.5310   21.0349 O   0  0  0  0  0  0  0  0  0  0  0  0
   22.2089   23.2606   18.3571 C   0  0  0  0  0  0  0  0  0  0  0  0
   23.0417   22.9207   20.4778 C   0  0  0  0  0  0  0  0  0  0  0  0
   21.5982   20.0365   20.5264 C   0  0  0  0  0  0  0  0  0  0  0  0
   23.4056   23.6105   17.5269 C   0  0  0  0  0  0  0  0  0  0  0  0
  3  1  1  0
  5  2  1  0
  6  2  1  0
  7  1  1  0
  8  7  2  0
  9  7  1  0
 11  4  1  0
 13  1  1  0
 13  5  1  0
 14  3  1  0
 14  4  1  0
 14 10  1  0
 15  6  1  0
 15 12  1  0
M  END
>  <ID>  (1) 
conformer_0

$$$$
