
     RDKit          3D

 17 19  0  0  0  0  0  0  0  0999 V2000
   24.4706   22.6280   17.5428 C   0  0  0  0  0  0  0  0  0  0  0  0
   24.1124   23.7581   18.7653 C   0  0  0  0  0  0  0  0  0  0  0  0
   22.6087   22.8652   21.2754 C   0  0  0  0  0  0  0  0  0  0  0  0
   21.0029   21.3114   19.7741 C   0  0  0  0  0  0  0  0  0  0  0  0
   22.8722   19.5845   20.2477 C   0  0  0  0  0  0  0  0  0  0  0  0
   21.6141   23.0513   20.4570 C   0  0  0  0  0  0  0  0  0  0  0  0
   23.9502   21.5934   18.6076 C   0  0  0  0  0  0  0  0  0  0  0  0
   19.8754   22.9696   20.5313 C   0  0  0  0  0  0  0  0  0  0  0  0
   19.4889   23.4087   21.7795 O   0  0  0  0  0  0  0  0  0  0  0  0
   19.1018   22.8956   19.8277 O   0  0  0  0  0  0  0  0  0  0  0  0
   22.8203   18.7132   19.8493 O   0  0  0  0  0  0  0  0  0  0  0  0
   23.4865   23.6713   20.0105 C   0  0  0  0  0  0  0  0  0  0  0  0
   23.9302   19.9814   21.6132 O   0  0  0  0  0  0  0  0  0  0  0  0
   23.1688   20.7547   21.9302 C   0  0  0  0  0  0  0  0  0  0  0  0
   22.6713   21.4411   19.9722 C   0  0  0  0  0  0  0  0  0  0  0  0
   23.1521   23.5683   17.3651 C   0  0  0  0  0  0  0  0  0  0  0  0
   22.0270   22.8061   18.4556 C   0  0  0  0  0  0  0  0  0  0  0  0
  2  1  1  0
  6  3  1  0
  6  4  1  0
  7  1  1  0
  8  6  1  0
  9  8  1  0
 10  8  2  0
 11  5  2  0
 12  2  1  0
 12  3  1  0
 13  5  1  0
 14 13  1  0
 15  3  1  0
 15  4  1  0
 15  5  1  0
 15  7  1  0
 16  1  1  0
 16  2  1  0
 17 16  1  0
M  END
>  <ID>  (1) 
conformer_0

$$$$
