
     RDKit          3D

 14 14  0  0  0  0  0  0  0  0999 V2000
   22.2965   22.6087   20.9559 C   0  0  0  0  0  0  0  0  0  0  0  0
   21.1502   21.8504   19.6881 C   0  0  0  0  0  0  0  0  0  0  0  0
   23.9555   22.4192   17.5615 C   0  0  0  0  0  0  0  0  0  0  0  0
   23.8231   23.4617   17.7865 C   0  0  0  0  0  0  0  0  0  0  0  0
   22.3477   19.9884   20.4403 C   0  0  0  0  0  0  0  0  0  0  0  0
   22.2944   23.5997   20.4194 C   0  0  0  0  0  0  0  0  0  0  0  0
   20.2274   23.1289   20.6648 C   0  0  0  0  0  0  0  0  0  0  0  0
   18.9853   23.0179   20.1744 O   0  0  0  0  0  0  0  0  0  0  0  0
   22.9430   18.8461   20.0152 O   0  0  0  0  0  0  0  0  0  0  0  0
   19.7136   23.6572   21.8979 O   0  0  0  0  0  0  0  0  0  0  0  0
   22.0319   22.4697   18.4731 C   0  0  0  0  0  0  0  0  0  0  0  0
   23.7474   23.6373   19.4982 C   0  0  0  0  0  0  0  0  0  0  0  0
   23.7464   21.7554   19.1805 C   0  0  0  0  0  0  0  0  0  0  0  0
   23.4564   20.4541   21.6324 C   0  0  0  0  0  0  0  0  0  0  0  0
  2  1  1  0
  4  3  1  0
  6  1  1  0
  7  2  1  0
  7  5  1  0
  8  7  1  0
  9  5  1  0
 10  7  1  0
 11  2  1  0
 12  4  1  0
 12  6  1  0
 13  3  1  0
 13 12  1  0
 14  5  1  0
M  END
>  <ID>  (1) 
conformer_0

$$$$
