
     RDKit          3D

 16 17  0  0  0  0  0  0  0  0999 V2000
   22.8536   23.2900   18.1441 C   0  0  0  0  0  0  0  0  0  0  0  0
   24.0223   21.6994   18.4283 C   0  0  0  0  0  0  0  0  0  0  0  0
   22.2939   21.3216   19.5163 C   0  0  0  0  0  0  0  0  0  0  0  0
   24.3629   22.9943   17.5082 C   0  0  0  0  0  0  0  0  0  0  0  0
   23.2232   20.5777   21.0142 C   0  0  0  0  0  0  0  0  0  0  0  0
   20.8359   21.8433   19.6707 C   0  0  0  0  0  0  0  0  0  0  0  0
   23.4059   22.8976   20.1149 C   0  0  0  0  0  0  0  0  0  0  0  0
   19.8300   22.9926   20.7911 C   0  0  0  0  0  0  0  0  0  0  0  0
   22.4604   18.2672   20.1580 O   0  0  0  0  0  0  0  0  0  0  0  0
   18.8384   23.4913   20.4541 O   0  0  0  0  0  0  0  0  0  0  0  0
   19.6250   22.8629   22.0844 O   0  0  0  0  0  0  0  0  0  0  0  0
   24.1858   23.7064   19.1735 C   0  0  0  0  0  0  0  0  0  0  0  0
   21.4318   23.1951   20.5758 C   0  0  0  0  0  0  0  0  0  0  0  0
   22.3288   23.9671   20.5396 C   0  0  0  0  0  0  0  0  0  0  0  0
   23.9280   19.9074   20.7287 O   0  0  0  0  0  0  0  0  0  0  0  0
   22.1759   19.5510   20.3884 C   0  0  0  0  0  0  0  0  0  0  0  0
  4  1  1  0
  4  2  1  0
  5  3  1  0
  6  3  1  0
  8  6  1  0
 10  8  1  0
 11  8  1  0
 12  1  1  0
 12  4  1  0
 12  7  1  0
 13  6  1  0
 13  8  1  0
 14  7  1  0
 14 13  1  0
 15  5  1  0
 16  5  1  0
 16  9  1  0
M  END
>  <ID>  (1) 
conformer_0

$$$$
