
     RDKit          3D

 19 24  0  0  0  0  0  0  0  0999 V2000
   22.6117   22.9497   18.0577 C   0  0  0  0  0  0  0  0  0  0  0  0
   22.5105   23.8234   20.5994 C   0  0  0  0  0  0  0  0  0  0  0  0
   23.6881   23.6363   19.3754 C   0  0  0  0  0  0  0  0  0  0  0  0
   21.1064   22.7251   20.5929 C   0  0  0  0  0  0  0  0  0  0  0  0
   23.6690   21.0327   21.4611 C   0  0  0  0  0  0  0  0  0  0  0  0
   20.3908   21.7729   19.5951 C   0  0  0  0  0  0  0  0  0  0  0  0
   20.0067   23.4235   21.0149 C   0  0  0  0  0  0  0  0  0  0  0  0
   24.6388   20.3216   21.2312 O   0  0  0  0  0  0  0  0  0  0  0  0
   20.9450   19.2789   20.0138 O   0  0  0  0  0  0  0  0  0  0  0  0
   22.1791   21.4754   19.6773 C   0  0  0  0  0  0  0  0  0  0  0  0
   23.0770   22.3991   20.7683 C   0  0  0  0  0  0  0  0  0  0  0  0
   23.0474   19.6124   20.8316 C   0  0  0  0  0  0  0  0  0  0  0  0
   19.6927   23.3108   22.3038 O   0  0  0  0  0  0  0  0  0  0  0  0
   19.2590   24.0744   21.4211 N   0  0  0  0  0  0  0  0  0  0  0  0
   24.3755   22.5455   17.3155 C   0  0  0  0  0  0  0  0  0  0  0  0
   23.9120   21.6774   18.5538 C   0  0  0  0  0  0  0  0  0  0  0  0
   23.5551   23.9416   17.1959 C   0  0  0  0  0  0  0  0  0  0  0  0
   22.9115   18.9689   19.9993 O   0  0  0  0  0  0  0  0  0  0  0  0
   21.5552   20.1254   19.8324 C   0  0  0  0  0  0  0  0  0  0  0  0
  3  1  1  0
  3  2  1  0
  4  2  1  0
  6  4  1  0
  7  4  1  0
  8  5  1  0
 10  4  1  0
 10  6  1  0
 11  2  1  0
 11  3  1  0
 11  5  1  0
 11 10  1  0
 12  5  1  0
 14  7  1  0
 14 13  1  0
 15  1  1  0
 16  1  1  0
 16 15  1  0
 17  1  1  0
 17 15  1  0
 18 12  1  0
 19  9  2  0
 19 10  1  0
 19 12  1  0
M  END
>  <ID>  (1) 
conformer_0

$$$$
