
     RDKit          3D

 19 20  0  0  0  0  0  0  0  0999 V2000
   21.3031   22.6212   19.0745 C   0  0  0  0  0  0  0  0  0  0  0  0
   21.7421   23.0863   21.2186 C   0  0  0  0  0  0  0  0  0  0  0  0
   23.0017   21.0315   20.8237 C   0  0  0  0  0  0  0  0  0  0  0  0
   22.5852   23.1875   17.7758 C   0  0  0  0  0  0  0  0  0  0  0  0
   24.1703   23.4055   17.2973 C   0  0  0  0  0  0  0  0  0  0  0  0
   24.1620   23.6191   19.1212 C   0  0  0  0  0  0  0  0  0  0  0  0
   22.7894   18.4371   20.1855 O   0  0  0  0  0  0  0  0  0  0  0  0
   20.4093   23.2521   21.0228 C   0  0  0  0  0  0  0  0  0  0  0  0
   20.7530   19.6347   20.5071 O   0  0  0  0  0  0  0  0  0  0  0  0
   20.0703   23.7003   22.1395 O   0  0  0  0  0  0  0  0  0  0  0  0
   20.5367   21.6752   19.7072 C   0  0  0  0  0  0  0  0  0  0  0  0
   23.5977   19.7634   21.6230 C   0  0  0  0  0  0  0  0  0  0  0  0
   19.2613   23.4890   20.6391 O   0  0  0  0  0  0  0  0  0  0  0  0
   22.7885   22.4852   20.4229 C   0  0  0  0  0  0  0  0  0  0  0  0
   24.3845   21.9179   17.9636 C   0  0  0  0  0  0  0  0  0  0  0  0
   23.0512   21.5035   19.0126 C   0  0  0  0  0  0  0  0  0  0  0  0
   24.0893   19.7356   21.0571 O   0  0  0  0  0  0  0  0  0  0  0  0
   21.4791   20.0816   20.3222 C   0  0  0  0  0  0  0  0  0  0  0  0
   22.8303   24.1321   19.5757 C   0  0  0  0  0  0  0  0  0  0  0  0
  4  1  1  0
  5  4  1  0
  6  5  1  0
  8  2  1  0
 10  8  1  0
 11  1  1  0
 12  3  1  0
 13  8  2  0
 14  2  1  0
 14  3  1  0
 15  5  1  0
 16 14  1  0
 16 15  1  0
 17 12  1  0
 18  3  1  0
 18  7  1  0
 18  9  1  0
 18 11  1  0
 19  6  1  0
 19 14  1  0
M  END
>  <ID>  (1) 
conformer_0

$$$$
