
     RDKit          3D

 19 22  0  0  0  0  0  0  0  0999 V2000
   23.9980   23.7324   19.0307 C   0  0  0  0  0  0  0  0  0  0  0  0
   24.1166   23.0297   17.3458 C   0  0  0  0  0  0  0  0  0  0  0  0
   20.7813   22.0957   19.8038 C   0  0  0  0  0  0  0  0  0  0  0  0
   23.7232   20.6626   21.8779 C   0  0  0  0  0  0  0  0  0  0  0  0
   21.5743   23.1873   21.0229 C   0  0  0  0  0  0  0  0  0  0  0  0
   23.0510   23.7133   20.6506 C   0  0  0  0  0  0  0  0  0  0  0  0
   19.9708   23.3708   20.9579 C   0  0  0  0  0  0  0  0  0  0  0  0
   18.9218   23.6387   20.5538 O   0  0  0  0  0  0  0  0  0  0  0  0
   23.0705   18.7678   19.7357 O   0  0  0  0  0  0  0  0  0  0  0  0
   24.4841   20.1662   21.4026 O   0  0  0  0  0  0  0  0  0  0  0  0
   23.5745   22.5059   20.2188 C   0  0  0  0  0  0  0  0  0  0  0  0
   23.0811   19.8592   20.4701 C   0  0  0  0  0  0  0  0  0  0  0  0
   19.9790   23.5663   22.2518 O   0  0  0  0  0  0  0  0  0  0  0  0
   22.0736   22.8759   18.3450 C   0  0  0  0  0  0  0  0  0  0  0  0
   22.6316   23.4380   16.9925 C   0  0  0  0  0  0  0  0  0  0  0  0
   21.0968   19.4844   19.7599 O   0  0  0  0  0  0  0  0  0  0  0  0
   23.7253   21.7841   18.1855 C   0  0  0  0  0  0  0  0  0  0  0  0
   21.4747   20.2808   19.8595 C   0  0  0  0  0  0  0  0  0  0  0  0
   22.2558   21.5225   19.6786 C   0  0  0  0  0  0  0  0  0  0  0  0
  2  1  1  0
  5  3  1  0
  6  5  1  0
  7  3  1  0
  7  5  1  0
  8  7  1  0
 10  4  1  0
 11  1  1  0
 11  6  1  0
 12  4  1  0
 12  9  1  0
 13  7  1  0
 15  2  1  0
 15 14  1  0
 17  2  1  0
 18  3  1  0
 18 12  1  0
 18 16  1  0
 19  3  1  0
 19 11  1  0
 19 14  1  0
 19 18  1  0
M  END
>  <ID>  (1) 
conformer_0

$$$$
