
     RDKit          3D

 18 21  0  0  0  0  0  0  0  0999 V2000
   22.1337   21.8423   20.4146 C   0  0  0  0  0  0  0  0  0  0  0  0
   23.9318   22.8634   19.4242 C   0  0  0  0  0  0  0  0  0  0  0  0
   22.9828   23.2211   21.2006 C   0  0  0  0  0  0  0  0  0  0  0  0
   21.2713   23.4784   20.8314 C   0  0  0  0  0  0  0  0  0  0  0  0
   22.8089   19.8525   19.9613 C   0  0  0  0  0  0  0  0  0  0  0  0
   20.7148   21.6638   19.5852 C   0  0  0  0  0  0  0  0  0  0  0  0
   19.7203   23.1962   22.2393 O   0  0  0  0  0  0  0  0  0  0  0  0
   23.8310   18.8257   20.3507 O   0  0  0  0  0  0  0  0  0  0  0  0
   19.0038   23.3739   20.3189 O   0  0  0  0  0  0  0  0  0  0  0  0
   20.1591   23.3093   20.9597 C   0  0  0  0  0  0  0  0  0  0  0  0
   23.3680   21.4860   18.4569 C   0  0  0  0  0  0  0  0  0  0  0  0
   23.2213   24.2325   19.9814 C   0  0  0  0  0  0  0  0  0  0  0  0
   23.9339   23.9188   17.8957 C   0  0  0  0  0  0  0  0  0  0  0  0
   23.1309   20.6124   21.4088 C   0  0  0  0  0  0  0  0  0  0  0  0
   24.6191   22.2209   17.2988 C   0  0  0  0  0  0  0  0  0  0  0  0
   22.0816   23.0729   18.7902 C   0  0  0  0  0  0  0  0  0  0  0  0
   22.1432   18.7555   19.9373 O   0  0  0  0  0  0  0  0  0  0  0  0
   23.1319   23.0182   17.0111 C   0  0  0  0  0  0  0  0  0  0  0  0
  3  1  1  0
  4  1  1  0
  4  3  1  0
  6  1  1  0
  8  5  1  0
 10  4  1  0
 10  7  1  0
 10  9  2  0
 11  2  1  0
 12  2  1  0
 12  3  1  0
 13  2  1  0
 14  1  1  0
 14  5  1  0
 15 11  1  0
 15 13  1  0
 16  2  1  0
 17  5  1  0
 17  8  1  0
 18 13  1  0
 18 15  1  0
M  END
>  <ID>  (1) 
conformer_0

$$$$
