
     RDKit          3D

 17 22  0  0  0  0  0  0  0  0999 V2000
   24.7449   22.7131   18.8008 C   0  0  0  0  0  0  0  0  0  0  0  0
   23.4732   24.0004   19.8173 C   0  0  0  0  0  0  0  0  0  0  0  0
   21.0164   22.6916   19.8909 C   0  0  0  0  0  0  0  0  0  0  0  0
   21.2222   21.2018   19.9538 C   0  0  0  0  0  0  0  0  0  0  0  0
   23.3272   20.6779   21.0427 C   0  0  0  0  0  0  0  0  0  0  0  0
   20.1278   23.4873   20.9586 C   0  0  0  0  0  0  0  0  0  0  0  0
   24.4438   22.0856   17.3983 C   0  0  0  0  0  0  0  0  0  0  0  0
   18.8372   23.5780   20.4799 O   0  0  0  0  0  0  0  0  0  0  0  0
   20.0272   23.5808   22.2039 O   0  0  0  0  0  0  0  0  0  0  0  0
   23.5447   18.7129   19.9718 O   0  0  0  0  0  0  0  0  0  0  0  0
   22.7082   22.2411   20.9499 C   0  0  0  0  0  0  0  0  0  0  0  0
   21.8610   23.8777   20.7099 C   0  0  0  0  0  0  0  0  0  0  0  0
   22.4302   23.3158   18.5942 C   0  0  0  0  0  0  0  0  0  0  0  0
   21.4212   19.5949   20.3427 C   0  0  0  0  0  0  0  0  0  0  0  0
   23.3266   21.7483   19.4190 C   0  0  0  0  0  0  0  0  0  0  0  0
   24.1101   23.8463   17.9670 C   0  0  0  0  0  0  0  0  0  0  0  0
   23.2792   19.0032   20.0710 C   0  0  0  0  0  0  0  0  0  0  0  0
  4  3  1  0
  6  3  1  0
  7  1  1  0
  8  6  1  0
  9  6  1  0
 11  5  1  0
 12  2  1  0
 12  3  1  0
 12  6  1  0
 12 11  1  0
 13  2  1  0
 14  4  1  0
 15  1  1  0
 15  5  1  0
 15 11  1  0
 16  1  1  0
 16  2  1  0
 16  7  1  0
 16 13  1  0
 17  5  1  0
 17 10  2  0
 17 14  1  0
M  END
>  <ID>  (1) 
conformer_0

$$$$
