
     RDKit          3D

 18 24  0  0  0  0  0  0  0  0999 V2000
   24.5536   23.4570   19.3256 C   0  0  0  0  0  0  0  0  0  0  0  0
   24.7069   23.9799   17.6613 C   0  0  0  0  0  0  0  0  0  0  0  0
   23.4617   23.6275   20.5669 C   0  0  0  0  0  0  0  0  0  0  0  0
   22.4503   20.7894   20.1539 C   0  0  0  0  0  0  0  0  0  0  0  0
   21.4182   23.4943   20.6502 C   0  0  0  0  0  0  0  0  0  0  0  0
   22.4966   22.3421   21.0033 C   0  0  0  0  0  0  0  0  0  0  0  0
   19.6561   23.4033   22.0137 O   0  0  0  0  0  0  0  0  0  0  0  0
   18.7925   22.9320   20.1334 O   0  0  0  0  0  0  0  0  0  0  0  0
   19.7573   22.9204   20.5609 C   0  0  0  0  0  0  0  0  0  0  0  0
   22.7592   18.8617   19.7072 O   0  0  0  0  0  0  0  0  0  0  0  0
   23.2996   23.3337   17.2852 C   0  0  0  0  0  0  0  0  0  0  0  0
   24.3762   22.1227   17.5399 C   0  0  0  0  0  0  0  0  0  0  0  0
   23.5062   20.8006   21.9589 C   0  0  0  0  0  0  0  0  0  0  0  0
   21.8945   22.2639   18.4037 C   0  0  0  0  0  0  0  0  0  0  0  0
   20.9319   21.8248   19.6005 C   0  0  0  0  0  0  0  0  0  0  0  0
   23.4943   21.8726   19.0949 C   0  0  0  0  0  0  0  0  0  0  0  0
   23.2553   19.1831   20.7759 C   0  0  0  0  0  0  0  0  0  0  0  0
   22.7481   23.8820   19.1252 C   0  0  0  0  0  0  0  0  0  0  0  0
  2  1  1  0
  3  1  1  0
  6  3  1  0
  6  4  1  0
  6  5  1  0
  9  5  1  0
  9  7  1  0
  9  8  1  0
 11  2  1  0
 12  2  1  0
 12 11  1  0
 15  4  1  0
 15  9  1  0
 15 14  1  0
 16  1  1  0
 16  4  1  0
 16 12  1  0
 16 14  1  0
 17  4  1  0
 17 10  1  0
 17 13  1  0
 18  1  1  0
 18  3  1  0
 18 14  1  0
M  END
>  <ID>  (1) 
conformer_0

$$$$
