
     RDKit          3D

 18 23  0  0  0  0  0  0  0  0999 V2000
   23.1280   23.9339   19.7219 C   0  0  0  0  0  0  0  0  0  0  0  0
   21.7660   21.3166   20.0018 C   0  0  0  0  0  0  0  0  0  0  0  0
   21.7163   22.9140   18.9099 C   0  0  0  0  0  0  0  0  0  0  0  0
   23.2164   23.3967   17.1951 C   0  0  0  0  0  0  0  0  0  0  0  0
   23.3666   20.2803   20.7786 C   0  0  0  0  0  0  0  0  0  0  0  0
   20.2020   22.0771   19.6785 C   0  0  0  0  0  0  0  0  0  0  0  0
   23.7016   22.1864   19.5283 C   0  0  0  0  0  0  0  0  0  0  0  0
   19.7211   23.2404   22.3107 O   0  0  0  0  0  0  0  0  0  0  0  0
   19.8858   23.1550   20.8890 C   0  0  0  0  0  0  0  0  0  0  0  0
   18.7820   23.7205   20.4889 O   0  0  0  0  0  0  0  0  0  0  0  0
   22.3941   18.7837   19.9016 O   0  0  0  0  0  0  0  0  0  0  0  0
   24.3731   20.2655   20.8258 O   0  0  0  0  0  0  0  0  0  0  0  0
   23.1902   21.9266   18.0305 C   0  0  0  0  0  0  0  0  0  0  0  0
   21.5123   23.5853   21.0243 C   0  0  0  0  0  0  0  0  0  0  0  0
   22.3822   22.6894   21.1343 C   0  0  0  0  0  0  0  0  0  0  0  0
   21.9703   19.7773   20.4951 C   0  0  0  0  0  0  0  0  0  0  0  0
   24.4450   23.6657   18.6673 C   0  0  0  0  0  0  0  0  0  0  0  0
   24.8475   22.6206   17.4704 C   0  0  0  0  0  0  0  0  0  0  0  0
  3  1  1  0
  3  2  1  0
  6  2  1  0
  6  3  1  0
  7  1  1  0
  9  6  1  0
  9  8  1  0
 10  9  1  0
 12  5  1  0
 13  4  1  0
 13  7  1  0
 14  9  1  0
 15  2  1  0
 15 14  1  0
 16  2  1  0
 16  5  1  0
 16 11  1  0
 17  1  1  0
 17  4  1  0
 17  7  1  0
 18  4  1  0
 18 13  1  0
 18 17  1  0
M  END
>  <ID>  (1) 
conformer_0

$$$$
