
     RDKit          3D

 16 20  0  0  0  0  0  0  0  0999 V2000
   22.9914   22.8471   17.1198 C   0  0  0  0  0  0  0  0  0  0  0  0
   23.5180   21.5456   18.7902 C   0  0  0  0  0  0  0  0  0  0  0  0
   24.4919   22.5581   17.2530 C   0  0  0  0  0  0  0  0  0  0  0  0
   23.7251   20.6687   21.3456 C   0  0  0  0  0  0  0  0  0  0  0  0
   23.0381   22.4475   20.9687 C   0  0  0  0  0  0  0  0  0  0  0  0
   23.5218   23.6832   19.5149 C   0  0  0  0  0  0  0  0  0  0  0  0
   19.6805   23.2308   22.3333 O   0  0  0  0  0  0  0  0  0  0  0  0
   19.9961   23.1090   20.8955 C   0  0  0  0  0  0  0  0  0  0  0  0
   23.0096   18.8082   20.0401 O   0  0  0  0  0  0  0  0  0  0  0  0
   19.0099   23.3325   20.2674 O   0  0  0  0  0  0  0  0  0  0  0  0
   22.6491   19.7845   20.4419 C   0  0  0  0  0  0  0  0  0  0  0  0
   24.2691   23.7648   17.7751 C   0  0  0  0  0  0  0  0  0  0  0  0
   22.4926   22.4887   18.8122 C   0  0  0  0  0  0  0  0  0  0  0  0
   21.8602   23.2949   20.8240 C   0  0  0  0  0  0  0  0  0  0  0  0
   21.2359   21.9092   20.0685 C   0  0  0  0  0  0  0  0  0  0  0  0
   20.8896   20.2584   20.4076 C   0  0  0  0  0  0  0  0  0  0  0  0
  3  1  1  0
  5  4  1  0
  6  5  1  0
  8  7  1  0
 10  8  1  0
 11  4  1  0
 11  9  2  0
 12  1  1  0
 12  3  1  0
 12  6  1  0
 13  1  1  0
 13  2  1  0
 13  6  1  0
 14  5  1  0
 14  8  1  0
 15  8  1  0
 15 13  1  0
 15 14  1  0
 16 11  1  0
 16 15  1  0
M  END
>  <ID>  (1) 
conformer_0

$$$$
