
     RDKit          3D

 18 20  0  0  0  0  0  0  0  0999 V2000
   24.5580   22.8881   17.3082 C   0  0  0  0  0  0  0  0  0  0  0  0
   24.1676   21.8843   18.4152 C   0  0  0  0  0  0  0  0  0  0  0  0
   21.0096   20.8491   19.7300 C   0  0  0  0  0  0  0  0  0  0  0  0
   23.2427   23.6498   17.3748 C   0  0  0  0  0  0  0  0  0  0  0  0
   23.0869   20.6858   21.4752 C   0  0  0  0  0  0  0  0  0  0  0  0
   22.7964   21.2905   18.7937 C   0  0  0  0  0  0  0  0  0  0  0  0
   23.8629   23.7283   19.1074 C   0  0  0  0  0  0  0  0  0  0  0  0
   20.0094   23.1814   20.8651 C   0  0  0  0  0  0  0  0  0  0  0  0
   22.8018   18.2500   19.6720 O   0  0  0  0  0  0  0  0  0  0  0  0
   19.0179   23.4252   20.3134 O   0  0  0  0  0  0  0  0  0  0  0  0
   19.6909   23.4427   22.2320 O   0  0  0  0  0  0  0  0  0  0  0  0
   22.6603   24.0325   20.2250 C   0  0  0  0  0  0  0  0  0  0  0  0
   21.9093   23.6650   21.6190 C   0  0  0  0  0  0  0  0  0  0  0  0
   22.7485   19.6728   20.3721 C   0  0  0  0  0  0  0  0  0  0  0  0
   22.0693   22.9802   18.5258 C   0  0  0  0  0  0  0  0  0  0  0  0
   23.8068   19.5156   20.6921 O   0  0  0  0  0  0  0  0  0  0  0  0
   21.1223   22.5028   20.3539 C   0  0  0  0  0  0  0  0  0  0  0  0
   22.8821   22.4125   20.5332 C   0  0  0  0  0  0  0  0  0  0  0  0
  2  1  1  0
  4  1  1  0
  6  2  1  0
  7  4  1  0
 10  8  2  0
 11  8  1  0
 12  7  1  0
 13 12  1  0
 14  5  1  0
 14  9  1  0
 15  4  1  0
 15  6  1  0
 16 14  1  0
 17  3  1  0
 17  8  1  0
 17 13  1  0
 18  5  1  0
 18 12  1  0
 18 13  1  0
 18 17  1  0
M  END
>  <ID>  (1) 
conformer_0

$$$$
