
     RDKit          3D

 19 22  0  0  0  0  0  0  0  0999 V2000
   24.4171   22.3790   17.1099 C   0  0  0  0  0  0  0  0  0  0  0  0
   24.2319   23.5147   17.4338 C   0  0  0  0  0  0  0  0  0  0  0  0
   22.7148   23.2541   20.9181 C   0  0  0  0  0  0  0  0  0  0  0  0
   23.6547   21.4024   18.5504 C   0  0  0  0  0  0  0  0  0  0  0  0
   23.2818   19.1123   20.4883 C   0  0  0  0  0  0  0  0  0  0  0  0
   21.4401   23.4634   20.4760 C   0  0  0  0  0  0  0  0  0  0  0  0
   20.2038   23.3021   20.7595 C   0  0  0  0  0  0  0  0  0  0  0  0
   19.6948   23.5919   21.8830 O   0  0  0  0  0  0  0  0  0  0  0  0
   19.0442   23.3079   19.8991 O   0  0  0  0  0  0  0  0  0  0  0  0
   21.4864   18.9136   19.7264 O   0  0  0  0  0  0  0  0  0  0  0  0
   24.6566   20.3416   21.3347 O   0  0  0  0  0  0  0  0  0  0  0  0
   23.5589   24.0248   19.4844 C   0  0  0  0  0  0  0  0  0  0  0  0
   22.5035   21.4920   20.1815 C   0  0  0  0  0  0  0  0  0  0  0  0
   20.9780   21.7267   19.7483 C   0  0  0  0  0  0  0  0  0  0  0  0
   21.3782   19.9998   20.0415 C   0  0  0  0  0  0  0  0  0  0  0  0
   22.5515   22.9372   18.4575 C   0  0  0  0  0  0  0  0  0  0  0  0
   24.2109   22.6403   19.3498 C   0  0  0  0  0  0  0  0  0  0  0  0
   23.5536   18.7984   20.2111 O   0  0  0  0  0  0  0  0  0  0  0  0
   23.4292   20.9311   21.1987 C   0  0  0  0  0  0  0  0  0  0  0  0
  2  1  1  0
  4  1  1  0
  6  3  1  0
  7  6  1  0
  8  7  1  0
  9  7  2  0
 12  3  1  0
 13  3  1  0
 14  6  1  0
 14 13  1  0
 15 10  1  0
 15 13  1  0
 15 14  1  0
 16  4  1  0
 16 12  1  0
 17  4  1  0
 17 12  1  0
 17 16  1  0
 18  5  2  0
 19  5  1  0
 19 11  1  0
 19 13  1  0
M  END
>  <ID>  (1) 
conformer_0

$$$$
