
     RDKit          3D

 18 21  0  0  0  0  0  0  0  0999 V2000
   20.8814   22.4929   19.6286 C   0  0  0  0  0  0  0  0  0  0  0  0
   21.7895   23.6001   21.0430 C   0  0  0  0  0  0  0  0  0  0  0  0
   23.8137   23.5751   17.1161 C   0  0  0  0  0  0  0  0  0  0  0  0
   24.3538   22.2021   17.3221 C   0  0  0  0  0  0  0  0  0  0  0  0
   22.1336   19.8261   20.3986 C   0  0  0  0  0  0  0  0  0  0  0  0
   21.0026   20.9322   19.6360 C   0  0  0  0  0  0  0  0  0  0  0  0
   23.3431   21.2304   19.0004 C   0  0  0  0  0  0  0  0  0  0  0  0
   18.9169   23.2966   20.2671 O   0  0  0  0  0  0  0  0  0  0  0  0
   19.8143   23.2664   22.2092 O   0  0  0  0  0  0  0  0  0  0  0  0
   22.6646   18.4748   20.1029 O   0  0  0  0  0  0  0  0  0  0  0  0
   20.0110   23.0428   20.7678 C   0  0  0  0  0  0  0  0  0  0  0  0
   23.9632   20.2113   21.3483 O   0  0  0  0  0  0  0  0  0  0  0  0
   22.8374   23.8916   19.2057 C   0  0  0  0  0  0  0  0  0  0  0  0
   23.5130   23.5165   20.5077 C   0  0  0  0  0  0  0  0  0  0  0  0
   23.2832   20.6717   21.4791 C   0  0  0  0  0  0  0  0  0  0  0  0
   22.4701   22.1171   20.8773 C   0  0  0  0  0  0  0  0  0  0  0  0
   22.7056   22.3658   18.3723 C   0  0  0  0  0  0  0  0  0  0  0  0
   24.4170   23.4677   18.7305 C   0  0  0  0  0  0  0  0  0  0  0  0
  4  3  1  0
  6  1  1  0
  6  5  1  0
 10  5  1  0
 11  1  1  0
 11  2  1  0
 11  8  1  0
 11  9  1  0
 14  2  1  0
 14 13  1  0
 15  5  1  0
 15 12  1  0
 16  2  1  0
 16 14  1  0
 16 15  1  0
 17  4  1  0
 17  7  1  0
 17 13  1  0
 18  3  1  0
 18  4  1  0
 18 13  1  0
M  END
>  <ID>  (1) 
conformer_0

$$$$
