
     RDKit          3D

 16 16  0  0  0  0  0  0  0  0999 V2000
   21.5320   22.7271   20.5885 C   0  0  0  0  0  0  0  0  0  0  0  0
   22.3777   23.6160   20.4394 C   0  0  0  0  0  0  0  0  0  0  0  0
   24.0337   23.7741   19.1576 C   0  0  0  0  0  0  0  0  0  0  0  0
   21.8920   19.7049   20.4728 C   0  0  0  0  0  0  0  0  0  0  0  0
   24.5699   22.6282   17.6093 C   0  0  0  0  0  0  0  0  0  0  0  0
   23.4518   22.9888   17.1143 C   0  0  0  0  0  0  0  0  0  0  0  0
   20.0910   23.4630   20.8228 C   0  0  0  0  0  0  0  0  0  0  0  0
   22.9009   18.6467   19.9594 O   0  0  0  0  0  0  0  0  0  0  0  0
   23.8427   22.6504   20.2546 C   0  0  0  0  0  0  0  0  0  0  0  0
   24.2361   20.1036   21.4835 O   0  0  0  0  0  0  0  0  0  0  0  0
   19.0465   23.3515   20.1481 O   0  0  0  0  0  0  0  0  0  0  0  0
   23.5911   20.4622   20.8682 C   0  0  0  0  0  0  0  0  0  0  0  0
   19.5235   23.5440   21.9329 O   0  0  0  0  0  0  0  0  0  0  0  0
   21.5700   21.3486   19.9166 C   0  0  0  0  0  0  0  0  0  0  0  0
   22.3342   22.6587   18.2407 C   0  0  0  0  0  0  0  0  0  0  0  0
   23.7421   21.6243   19.0820 C   0  0  0  0  0  0  0  0  0  0  0  0
  2  1  1  0
  6  5  1  0
  7  1  1  0
  8  4  1  0
  9  2  1  0
  9  3  1  0
 11  7  2  0
 12  4  1  0
 12 10  2  0
 13  7  1  0
 14  1  1  0
 14  4  1  0
 15  6  1  0
 16  5  1  0
 16  9  1  0
 16 15  1  0
M  END
>  <ID>  (1) 
conformer_0

$$$$
