
     RDKit          3D

 17 18  0  0  0  0  0  0  0  0999 V2000
   23.4395   21.8617   19.8341 C   0  0  0  0  0  0  0  0  0  0  0  0
   24.2409   21.5059   18.5702 C   0  0  0  0  0  0  0  0  0  0  0  0
   23.5276   23.6821   19.2468 C   0  0  0  0  0  0  0  0  0  0  0  0
   22.2174   23.3195   21.0868 C   0  0  0  0  0  0  0  0  0  0  0  0
   24.1849   20.5222   20.9960 C   0  0  0  0  0  0  0  0  0  0  0  0
   22.4026   21.1419   20.8945 C   0  0  0  0  0  0  0  0  0  0  0  0
   20.1336   23.2236   21.0480 C   0  0  0  0  0  0  0  0  0  0  0  0
   19.7662   23.3235   22.3346 O   0  0  0  0  0  0  0  0  0  0  0  0
   18.8168   23.6079   20.5215 O   0  0  0  0  0  0  0  0  0  0  0  0
   22.1966   22.7143   18.5685 C   0  0  0  0  0  0  0  0  0  0  0  0
   23.8983   19.1410   20.1164 O   0  0  0  0  0  0  0  0  0  0  0  0
   24.6060   22.8492   17.7362 C   0  0  0  0  0  0  0  0  0  0  0  0
   23.3716   23.2722   17.2061 C   0  0  0  0  0  0  0  0  0  0  0  0
   22.2559   20.0644   20.0255 C   0  0  0  0  0  0  0  0  0  0  0  0
   21.2665   22.7906   20.3225 C   0  0  0  0  0  0  0  0  0  0  0  0
   20.5247   21.6508   19.5585 C   0  0  0  0  0  0  0  0  0  0  0  0
   21.8855   19.1409   19.6452 O   0  0  0  0  0  0  0  0  0  0  0  0
  2  1  1  0
  3  1  1  0
  5  1  1  0
  6  1  1  0
  6  5  1  0
  8  7  1  0
  9  7  2  0
 10  3  1  0
 11  5  1  0
 12  2  1  0
 13 10  1  0
 13 12  1  0
 14  6  1  0
 15  4  1  0
 15  7  1  0
 15 10  1  0
 16 15  1  0
 17 14  1  0
M  END
>  <ID>  (1) 
conformer_0

$$$$
