
     RDKit          3D

 20 26  0  0  0  0  0  0  0  0999 V2000
   24.3329   23.7077   17.6286 C   0  0  0  0  0  0  0  0  0  0  0  0
   24.2808   22.2677   17.0899 C   0  0  0  0  0  0  0  0  0  0  0  0
   23.0326   21.7082   18.8557 C   0  0  0  0  0  0  0  0  0  0  0  0
   21.3380   22.7110   20.6750 C   0  0  0  0  0  0  0  0  0  0  0  0
   22.8118   21.6211   20.7691 C   0  0  0  0  0  0  0  0  0  0  0  0
   20.8570   20.4611   20.2773 C   0  0  0  0  0  0  0  0  0  0  0  0
   20.2062   23.3072   21.0279 C   0  0  0  0  0  0  0  0  0  0  0  0
   19.8775   23.3440   22.2933 O   0  0  0  0  0  0  0  0  0  0  0  0
   19.0700   23.3914   20.3412 O   0  0  0  0  0  0  0  0  0  0  0  0
   22.4518   18.6220   19.8929 O   0  0  0  0  0  0  0  0  0  0  0  0
   20.6916   21.3230   19.6469 C   0  0  0  0  0  0  0  0  0  0  0  0
   22.1011   23.8317   21.0799 C   0  0  0  0  0  0  0  0  0  0  0  0
   23.6711   20.5022   20.9574 C   0  0  0  0  0  0  0  0  0  0  0  0
   21.6832   22.8140   18.8471 C   0  0  0  0  0  0  0  0  0  0  0  0
   22.7535   23.1478   17.0851 C   0  0  0  0  0  0  0  0  0  0  0  0
   23.6566   23.2588   20.3817 C   0  0  0  0  0  0  0  0  0  0  0  0
   23.8041   19.2665   20.8862 O   0  0  0  0  0  0  0  0  0  0  0  0
   23.1588   24.0276   19.1549 C   0  0  0  0  0  0  0  0  0  0  0  0
   24.5729   22.4871   19.0642 C   0  0  0  0  0  0  0  0  0  0  0  0
   22.3218   19.1654   20.4764 C   0  0  0  0  0  0  0  0  0  0  0  0
  2  1  1  0
  5  3  1  0
  5  4  1  0
  7  4  1  0
  8  7  1  0
  9  7  2  0
 11  4  1  0
 11  6  1  0
 12  4  1  0
 13  5  1  0
 14  3  1  0
 14 11  1  0
 15  1  1  0
 15  2  1  0
 16  5  1  0
 16 12  1  0
 17 13  1  0
 18  1  1  0
 18 14  1  0
 18 16  1  0
 19  1  1  0
 19  3  1  0
 19 16  1  0
 20  6  1  0
 20 10  2  0
 20 17  1  0
M  END
>  <ID>  (1) 
conformer_0

$$$$
