
     RDKit          3D

 18 21  0  0  0  0  0  0  0  0999 V2000
   23.4268   24.1688   18.8113 C   0  0  0  0  0  0  0  0  0  0  0  0
   24.2542   21.5478   18.2380 C   0  0  0  0  0  0  0  0  0  0  0  0
   21.4964   23.4328   20.8272 C   0  0  0  0  0  0  0  0  0  0  0  0
   20.7290   21.4226   19.7923 C   0  0  0  0  0  0  0  0  0  0  0  0
   21.8566   19.7128   20.4491 C   0  0  0  0  0  0  0  0  0  0  0  0
   18.9031   23.1767   20.1058 O   0  0  0  0  0  0  0  0  0  0  0  0
   23.3927   23.9223   20.4695 C   0  0  0  0  0  0  0  0  0  0  0  0
   19.7335   23.4074   22.1421 O   0  0  0  0  0  0  0  0  0  0  0  0
   20.0303   23.0577   20.6899 C   0  0  0  0  0  0  0  0  0  0  0  0
   22.4504   18.6947   20.0231 O   0  0  0  0  0  0  0  0  0  0  0  0
   22.6402   22.3132   20.8775 C   0  0  0  0  0  0  0  0  0  0  0  0
   22.9406   21.3022   19.1184 C   0  0  0  0  0  0  0  0  0  0  0  0
   24.0696   19.9759   21.2420 O   0  0  0  0  0  0  0  0  0  0  0  0
   23.2225   20.4793   21.0693 C   0  0  0  0  0  0  0  0  0  0  0  0
   21.6181   22.7839   19.2879 C   0  0  0  0  0  0  0  0  0  0  0  0
   24.3393   22.8673   19.4597 C   0  0  0  0  0  0  0  0  0  0  0  0
   24.1311   23.2807   17.2833 C   0  0  0  0  0  0  0  0  0  0  0  0
   22.7713   22.8114   17.7054 C   0  0  0  0  0  0  0  0  0  0  0  0
  7  1  1  0
  9  3  1  0
  9  6  2  0
  9  8  1  0
 10  5  1  0
 11  3  1  0
 11  7  1  0
 12  2  1  0
 14  5  1  0
 14 11  1  0
 14 13  2  0
 15  3  1  0
 15  4  1  0
 15 11  1  0
 16  1  1  0
 16  2  1  0
 16  7  1  0
 17  1  1  0
 18  1  1  0
 18 15  1  0
 18 17  1  0
M  END
>  <ID>  (1) 
conformer_0

$$$$
