
     RDKit          3D

 17 19  0  0  0  0  0  0  0  0999 V2000
   23.4411   21.5349   19.2455 C   0  0  0  0  0  0  0  0  0  0  0  0
   24.3769   23.5243   17.3571 C   0  0  0  0  0  0  0  0  0  0  0  0
   21.5188   23.5383   20.9230 C   0  0  0  0  0  0  0  0  0  0  0  0
   22.8215   22.7938   18.0201 C   0  0  0  0  0  0  0  0  0  0  0  0
   22.7151   19.9626   20.0988 C   0  0  0  0  0  0  0  0  0  0  0  0
   19.9874   23.0585   20.6858 C   0  0  0  0  0  0  0  0  0  0  0  0
   22.7532   22.8365   20.8843 C   0  0  0  0  0  0  0  0  0  0  0  0
   19.6939   23.4713   22.1175 O   0  0  0  0  0  0  0  0  0  0  0  0
   18.8832   23.4227   20.0552 O   0  0  0  0  0  0  0  0  0  0  0  0
   22.5103   18.7178   19.9694 O   0  0  0  0  0  0  0  0  0  0  0  0
   21.6072   21.7558   20.0162 C   0  0  0  0  0  0  0  0  0  0  0  0
   22.4708   20.4897   22.3989 O   0  0  0  0  0  0  0  0  0  0  0  0
   20.5350   21.4227   19.4862 C   0  0  0  0  0  0  0  0  0  0  0  0
   23.3473   20.3717   21.5776 C   0  0  0  0  0  0  0  0  0  0  0  0
   24.4001   23.4970   19.2253 C   0  0  0  0  0  0  0  0  0  0  0  0
   23.0431   23.8799   19.7274 C   0  0  0  0  0  0  0  0  0  0  0  0
   24.6737   22.1141   17.9106 C   0  0  0  0  0  0  0  0  0  0  0  0
  4  1  1  0
  4  2  1  0
  5  1  1  0
  6  3  1  0
  7  3  1  0
  8  6  1  0
  9  6  1  0
 10  5  2  0
 11  7  1  0
 13 11  3  0
 14  5  1  0
 14 12  1  0
 15  2  1  0
 16  3  1  0
 16  7  1  0
 16 15  1  0
 17  1  1  0
 17  2  1  0
 17 15  1  0
M  END
>  <ID>  (1) 
conformer_0

$$$$
