
     RDKit          3D

 18 21  0  0  0  0  0  0  0  0999 V2000
   23.8999   23.5523   19.6374 C   0  0  0  0  0  0  0  0  0  0  0  0
   24.6028   22.8856   17.0152 C   0  0  0  0  0  0  0  0  0  0  0  0
   24.0639   23.8685   17.6275 C   0  0  0  0  0  0  0  0  0  0  0  0
   23.5961   21.0357   20.2551 C   0  0  0  0  0  0  0  0  0  0  0  0
   22.6285   23.7480   20.7652 C   0  0  0  0  0  0  0  0  0  0  0  0
   19.7427   23.3495   22.4567 O   0  0  0  0  0  0  0  0  0  0  0  0
   19.9115   23.5185   21.1654 C   0  0  0  0  0  0  0  0  0  0  0  0
   18.8387   24.0288   20.6821 O   0  0  0  0  0  0  0  0  0  0  0  0
   21.0400   22.9782   20.5187 C   0  0  0  0  0  0  0  0  0  0  0  0
   22.3272   18.8075   19.8812 O   0  0  0  0  0  0  0  0  0  0  0  0
   21.3321   19.4816   20.3854 C   0  0  0  0  0  0  0  0  0  0  0  0
   24.5540   19.9382   20.8446 O   0  0  0  0  0  0  0  0  0  0  0  0
   22.5647   23.0562   18.4879 C   0  0  0  0  0  0  0  0  0  0  0  0
   24.5427   21.8760   18.2201 C   0  0  0  0  0  0  0  0  0  0  0  0
   20.8939   21.7718   19.6191 C   0  0  0  0  0  0  0  0  0  0  0  0
   22.4408   22.0628   20.9614 C   0  0  0  0  0  0  0  0  0  0  0  0
   23.2408   19.9615   21.3810 C   0  0  0  0  0  0  0  0  0  0  0  0
   23.3043   21.6622   19.2779 C   0  0  0  0  0  0  0  0  0  0  0  0
  3  2  1  0
  5  1  1  0
  7  6  1  0
  8  7  2  0
  9  5  1  0
  9  7  1  0
 11 10  1  0
 12  4  1  0
 13  1  1  0
 13  3  1  0
 14  2  1  0
 15  9  1  0
 16  4  1  0
 16  5  1  0
 16  9  1  0
 17  4  1  0
 17 10  1  0
 17 12  1  0
 18  4  1  0
 18 13  1  0
 18 14  2  0
M  END
>  <ID>  (1) 
conformer_0

$$$$
