
     RDKit          3D

 19 24  0  0  0  0  0  0  0  0999 V2000
   23.8989   24.0874   17.7461 C   0  0  0  0  0  0  0  0  0  0  0  0
   22.0471   22.9375   18.6811 C   0  0  0  0  0  0  0  0  0  0  0  0
   21.8201   21.1628   19.2413 C   0  0  0  0  0  0  0  0  0  0  0  0
   22.5576   22.4085   21.0277 C   0  0  0  0  0  0  0  0  0  0  0  0
   23.3134   19.6938   20.9158 C   0  0  0  0  0  0  0  0  0  0  0  0
   20.5135   22.0327   19.9266 C   0  0  0  0  0  0  0  0  0  0  0  0
   23.7646   21.5110   18.0480 C   0  0  0  0  0  0  0  0  0  0  0  0
   19.9548   23.1913   20.9617 C   0  0  0  0  0  0  0  0  0  0  0  0
   19.6377   23.2923   22.3338 O   0  0  0  0  0  0  0  0  0  0  0  0
   23.0394   18.5226   19.7344 O   0  0  0  0  0  0  0  0  0  0  0  0
   18.8278   23.7900   20.6429 O   0  0  0  0  0  0  0  0  0  0  0  0
   24.9863   23.0795   17.2456 C   0  0  0  0  0  0  0  0  0  0  0  0
   23.0178   23.7003   20.0686 C   0  0  0  0  0  0  0  0  0  0  0  0
   23.9558   19.7899   21.1081 O   0  0  0  0  0  0  0  0  0  0  0  0
   23.7148   21.6319   19.5050 C   0  0  0  0  0  0  0  0  0  0  0  0
   22.0622   20.5402   20.6618 C   0  0  0  0  0  0  0  0  0  0  0  0
   24.4101   23.3214   19.2275 C   0  0  0  0  0  0  0  0  0  0  0  0
   22.9862   22.8485   16.9995 C   0  0  0  0  0  0  0  0  0  0  0  0
   21.4434   23.5743   21.0193 C   0  0  0  0  0  0  0  0  0  0  0  0
  3  2  1  0
  6  3  1  0
  8  6  1  0
  9  8  1  0
 10  5  2  0
 11  8  1  0
 12  1  1  0
 13  2  1  0
 13  4  1  0
 14  5  1  0
 15  3  1  0
 15  7  1  0
 16  3  1  0
 16  4  1  0
 16  5  1  0
 17  1  1  0
 17 13  1  0
 17 15  1  0
 18  1  1  0
 18  2  1  0
 18  7  1  0
 19  4  1  0
 19  8  1  0
 19 13  1  0
M  END
>  <ID>  (1) 
conformer_0

$$$$
