
     RDKit          3D

 16 16  0  0  0  0  0  0  0  0999 V2000
   21.6699   23.3592   20.8842 C   0  0  0  0  0  0  0  0  0  0  0  0
   21.4484   22.2095   19.1977 C   0  0  0  0  0  0  0  0  0  0  0  0
   23.5171   22.4393   20.1519 C   0  0  0  0  0  0  0  0  0  0  0  0
   24.5715   23.2223   18.4361 C   0  0  0  0  0  0  0  0  0  0  0  0
   22.6097   19.5198   20.2644 C   0  0  0  0  0  0  0  0  0  0  0  0
   20.0009   22.9948   20.7295 C   0  0  0  0  0  0  0  0  0  0  0  0
   23.7977   23.3874   17.1600 C   0  0  0  0  0  0  0  0  0  0  0  0
   19.4561   23.5257   22.0461 O   0  0  0  0  0  0  0  0  0  0  0  0
   19.0351   22.9696   20.0036 O   0  0  0  0  0  0  0  0  0  0  0  0
   23.2052   18.4690   19.7117 O   0  0  0  0  0  0  0  0  0  0  0  0
   22.5533   23.4373   17.3548 C   0  0  0  0  0  0  0  0  0  0  0  0
   23.3620   23.8884   19.4883 C   0  0  0  0  0  0  0  0  0  0  0  0
   23.7598   20.3006   21.2709 C   0  0  0  0  0  0  0  0  0  0  0  0
   23.3605   19.6863   20.8206 N   0  0  0  0  0  0  0  0  0  0  0  0
   23.6065   21.8606   18.6015 C   0  0  0  0  0  0  0  0  0  0  0  0
   22.0049   21.8471   20.5930 C   0  0  0  0  0  0  0  0  0  0  0  0
  6  1  1  0
  7  4  1  0
  8  6  1  0
  9  6  2  0
 10  5  1  0
 11  7  1  0
 12  3  1  0
 12  4  1  0
 13  1  1  0
 14  5  1  0
 14 13  1  0
 15  3  1  0
 15  4  1  0
 16  1  1  0
 16  2  1  0
 16  3  1  0
M  END
>  <ID>  (1) 
conformer_0

$$$$
