
     RDKit          3D

 18 20  0  0  0  0  0  0  0  0999 V2000
   20.3244   21.1278   19.5234 C   0  0  0  0  0  0  0  0  0  0  0  0
   21.4523   22.9922   21.0166 C   0  0  0  0  0  0  0  0  0  0  0  0
   22.9654   22.8793   21.2280 C   0  0  0  0  0  0  0  0  0  0  0  0
   22.6286   23.9406   17.0782 C   0  0  0  0  0  0  0  0  0  0  0  0
   22.5425   19.6573   20.3741 C   0  0  0  0  0  0  0  0  0  0  0  0
   24.0007   23.6929   17.5406 C   0  0  0  0  0  0  0  0  0  0  0  0
   19.9661   23.1584   20.7954 C   0  0  0  0  0  0  0  0  0  0  0  0
   18.9420   23.3075   20.3698 O   0  0  0  0  0  0  0  0  0  0  0  0
   19.7849   23.4343   22.2290 O   0  0  0  0  0  0  0  0  0  0  0  0
   23.6675   18.9000   20.0780 O   0  0  0  0  0  0  0  0  0  0  0  0
   23.1222   22.3755   17.7833 C   0  0  0  0  0  0  0  0  0  0  0  0
   24.1974   20.8961   21.8392 O   0  0  0  0  0  0  0  0  0  0  0  0
   23.4043   20.7807   21.6220 C   0  0  0  0  0  0  0  0  0  0  0  0
   24.0801   21.5653   18.6169 C   0  0  0  0  0  0  0  0  0  0  0  0
   24.3586   23.0181   19.8931 C   0  0  0  0  0  0  0  0  0  0  0  0
   21.4412   22.4922   19.1915 C   0  0  0  0  0  0  0  0  0  0  0  0
   22.5568   21.4795   20.0046 C   0  0  0  0  0  0  0  0  0  0  0  0
   23.2375   23.6842   19.5034 C   0  0  0  0  0  0  0  0  0  0  0  0
  3  2  1  0
  6  4  1  0
  7  2  1  0
  8  7  2  0
  9  7  1  0
 10  5  1  0
 11  4  1  0
 11  6  1  0
 13  5  1  0
 13 12  1  0
 14 11  1  0
 15 14  1  0
 16  1  1  0
 16  2  1  0
 17  3  1  0
 17  5  1  0
 17 13  1  0
 17 16  1  0
 18  3  1  0
 18 15  1  0
M  END
>  <ID>  (1) 
conformer_0

$$$$
