
     RDKit          3D

 19 20  0  0  0  0  0  0  0  0999 V2000
   24.7948   21.9761   16.9042 C   0  0  0  0  0  0  0  0  0  0  0  0
   23.4049   22.9576   17.0654 C   0  0  0  0  0  0  0  0  0  0  0  0
   24.5738   21.9065   18.6446 C   0  0  0  0  0  0  0  0  0  0  0  0
   22.6812   23.5264   19.1263 C   0  0  0  0  0  0  0  0  0  0  0  0
   23.6194   20.2504   20.8018 C   0  0  0  0  0  0  0  0  0  0  0  0
   20.7729   21.3291   19.5998 C   0  0  0  0  0  0  0  0  0  0  0  0
   20.1175   23.1689   21.0676 C   0  0  0  0  0  0  0  0  0  0  0  0
   19.7593   23.4858   22.5006 O   0  0  0  0  0  0  0  0  0  0  0  0
   18.7735   23.3329   20.4162 O   0  0  0  0  0  0  0  0  0  0  0  0
   22.8523   18.8235   19.8631 O   0  0  0  0  0  0  0  0  0  0  0  0
   24.5063   20.5192   21.1110 O   0  0  0  0  0  0  0  0  0  0  0  0
   22.7810   22.0033   20.5573 C   0  0  0  0  0  0  0  0  0  0  0  0
   21.9677   23.5530   21.2530 C   0  0  0  0  0  0  0  0  0  0  0  0
   21.7591   19.8479   20.2992 C   0  0  0  0  0  0  0  0  0  0  0  0
   22.0433   19.8004   22.0111 O   0  0  0  0  0  0  0  0  0  0  0  0
   23.0877   21.5537   18.8706 C   0  0  0  0  0  0  0  0  0  0  0  0
   24.4591   23.7822   17.7735 C   0  0  0  0  0  0  0  0  0  0  0  0
   23.9605   23.4436   19.7284 C   0  0  0  0  0  0  0  0  0  0  0  0
   21.0080   22.5917   20.3636 C   0  0  0  0  0  0  0  0  0  0  0  0
  2  1  1  0
  3  1  1  0
  8  7  1  0
  9  7  2  0
 11  5  2  0
 12  5  1  0
 13 12  1  0
 14  5  1  0
 14  6  1  0
 14 10  1  0
 15 14  1  0
 16  3  1  0
 16 12  1  0
 17  2  1  0
 18  3  1  0
 18  4  1  0
 19  6  1  0
 19  7  1  0
 19 12  1  0
 19 13  1  0
M  END
>  <ID>  (1) 
conformer_0

$$$$
