
     RDKit          3D

 20 24  0  0  0  0  0  0  0  0999 V2000
   23.6152   22.1528   19.6407 C   0  0  0  0  0  0  0  0  0  0  0  0
   22.6869   23.9661   19.8983 C   0  0  0  0  0  0  0  0  0  0  0  0
   23.3382   23.5470   21.1850 C   0  0  0  0  0  0  0  0  0  0  0  0
   22.3536   20.4393   19.7841 C   0  0  0  0  0  0  0  0  0  0  0  0
   21.4811   23.3845   21.0473 C   0  0  0  0  0  0  0  0  0  0  0  0
   20.6975   21.8629   19.7634 C   0  0  0  0  0  0  0  0  0  0  0  0
   19.8871   23.4122   21.0292 C   0  0  0  0  0  0  0  0  0  0  0  0
   19.6925   23.2327   22.5253 O   0  0  0  0  0  0  0  0  0  0  0  0
   18.8207   23.6897   20.6083 O   0  0  0  0  0  0  0  0  0  0  0  0
   21.6997   18.9407   19.6154 O   0  0  0  0  0  0  0  0  0  0  0  0
   21.9713   21.7330   20.4126 C   0  0  0  0  0  0  0  0  0  0  0  0
   23.6702   20.3622   21.7932 O   0  0  0  0  0  0  0  0  0  0  0  0
   23.5069   20.8365   21.7230 C   0  0  0  0  0  0  0  0  0  0  0  0
   22.4647   23.4864   16.9945 C   0  0  0  0  0  0  0  0  0  0  0  0
   23.8699   24.0560   17.2870 C   0  0  0  0  0  0  0  0  0  0  0  0
   23.9913   23.8089   19.0192 C   0  0  0  0  0  0  0  0  0  0  0  0
   23.7012   18.6003   19.9717 O   0  0  0  0  0  0  0  0  0  0  0  0
   23.0421   19.0643   20.3879 C   0  0  0  0  0  0  0  0  0  0  0  0
   22.8320   22.0480   18.2332 C   0  0  0  0  0  0  0  0  0  0  0  0
   24.3536   22.4302   17.2662 C   0  0  0  0  0  0  0  0  0  0  0  0
  3  2  1  0
  5  2  1  0
  5  3  1  0
  7  5  1  0
  8  7  1  0
  9  7  2  0
 10  4  1  0
 11  1  1  0
 11  4  1  0
 11  5  1  0
 11  6  1  0
 13 12  1  0
 15 14  1  0
 16  1  1  0
 16  2  1  0
 16 15  1  0
 18  4  1  0
 18 10  1  0
 18 12  1  0
 18 17  1  0
 19  1  1  0
 19 14  1  0
 20 15  1  0
 20 19  1  0
M  END
>  <ID>  (1) 
conformer_0

$$$$
