
     RDKit          3D

 19 22  0  0  0  0  0  0  0  0999 V2000
   20.8254   21.1694   19.6655 C   0  0  0  0  0  0  0  0  0  0  0  0
   22.7811   21.7000   19.8967 C   0  0  0  0  0  0  0  0  0  0  0  0
   23.9095   23.1672   20.1047 C   0  0  0  0  0  0  0  0  0  0  0  0
   22.3979   23.8313   21.0474 C   0  0  0  0  0  0  0  0  0  0  0  0
   23.1440   19.5406   21.0518 C   0  0  0  0  0  0  0  0  0  0  0  0
   22.2825   22.5452   21.6694 C   0  0  0  0  0  0  0  0  0  0  0  0
   18.9143   23.1146   20.2783 O   0  0  0  0  0  0  0  0  0  0  0  0
   19.9804   23.0848   20.7527 C   0  0  0  0  0  0  0  0  0  0  0  0
   22.8996   18.6937   19.8799 O   0  0  0  0  0  0  0  0  0  0  0  0
   19.6731   23.6179   22.0160 O   0  0  0  0  0  0  0  0  0  0  0  0
   23.4770   23.8190   18.9047 C   0  0  0  0  0  0  0  0  0  0  0  0
   22.0652   22.7735   18.5483 C   0  0  0  0  0  0  0  0  0  0  0  0
   24.0855   20.2944   21.2052 O   0  0  0  0  0  0  0  0  0  0  0  0
   21.7937   19.9494   19.8380 C   0  0  0  0  0  0  0  0  0  0  0  0
   21.1465   22.7426   20.4311 C   0  0  0  0  0  0  0  0  0  0  0  0
   24.0555   22.2481   17.9765 C   0  0  0  0  0  0  0  0  0  0  0  0
   24.3167   23.2929   17.1308 C   0  0  0  0  0  0  0  0  0  0  0  0
   22.7867   23.6339   16.8433 C   0  0  0  0  0  0  0  0  0  0  0  0
   23.6870   21.1485   21.2477 C   0  0  0  0  0  0  0  0  0  0  0  0
  3  2  1  0
  4  3  1  0
  6  4  1  0
  8  7  2  0
  9  5  1  0
 10  8  1  0
 11  3  1  0
 12  2  1  0
 12 11  1  0
 13  5  1  0
 14  1  1  0
 14  5  1  0
 14  9  1  0
 15  1  1  0
 15  4  1  0
 15  6  1  0
 15  8  1  0
 16 11  1  0
 17 16  1  0
 18 17  1  0
 19  2  1  0
 19 13  1  0
M  END
>  <ID>  (1) 
conformer_0

$$$$
