
     RDKit          3D

 20 24  0  0  0  0  0  0  0  0999 V2000
   25.0249   22.4266   17.4047 C   0  0  0  0  0  0  0  0  0  0  0  0
   23.5823   23.2372   17.3186 C   0  0  0  0  0  0  0  0  0  0  0  0
   23.6508   21.5855   18.4348 C   0  0  0  0  0  0  0  0  0  0  0  0
   22.9987   24.2008   19.0424 C   0  0  0  0  0  0  0  0  0  0  0  0
   22.0281   18.9013   20.6411 C   0  0  0  0  0  0  0  0  0  0  0  0
   22.3815   21.3731   20.2292 C   0  0  0  0  0  0  0  0  0  0  0  0
   23.4497   22.6976   19.8789 C   0  0  0  0  0  0  0  0  0  0  0  0
   20.0766   23.3582   21.0203 C   0  0  0  0  0  0  0  0  0  0  0  0
   19.7292   23.1488   22.2756 O   0  0  0  0  0  0  0  0  0  0  0  0
   22.8671   18.7270   19.7157 O   0  0  0  0  0  0  0  0  0  0  0  0
   19.0684   23.4881   20.4814 O   0  0  0  0  0  0  0  0  0  0  0  0
   23.6445   20.1725   21.2738 C   0  0  0  0  0  0  0  0  0  0  0  0
   22.0572   22.4639   18.5399 C   0  0  0  0  0  0  0  0  0  0  0  0
   20.8121   19.7356   19.9417 O   0  0  0  0  0  0  0  0  0  0  0  0
   24.2401   20.3840   20.8896 O   0  0  0  0  0  0  0  0  0  0  0  0
   21.0041   22.2546   20.2099 C   0  0  0  0  0  0  0  0  0  0  0  0
   22.3592   23.9969   20.5555 C   0  0  0  0  0  0  0  0  0  0  0  0
   21.5988   23.5498   21.3311 C   0  0  0  0  0  0  0  0  0  0  0  0
   21.4711   20.6157   20.2262 C   0  0  0  0  0  0  0  0  0  0  0  0
   24.6073   23.6474   18.5898 C   0  0  0  0  0  0  0  0  0  0  0  0
  2  1  1  0
  3  1  1  0
  7  3  1  0
  7  4  1  0
  7  6  1  0
  9  8  1  0
 10  5  1  0
 11  8  1  0
 12  6  1  0
 13  3  1  0
 14  5  1  0
 15 12  1  0
 16  6  1  0
 16  8  1  0
 17  4  1  0
 17  7  1  0
 18  8  1  0
 18 16  1  0
 18 17  1  0
 19  6  1  0
 19 14  1  0
 20  1  1  0
 20  2  1  0
 20  4  1  0
M  END
>  <ID>  (1) 
conformer_0

$$$$
