
     RDKit          3D

 16 18  0  0  0  0  0  0  0  0999 V2000
   23.1047   23.4679   20.1174 C   0  0  0  0  0  0  0  0  0  0  0  0
   23.0958   21.4828   19.2133 C   0  0  0  0  0  0  0  0  0  0  0  0
   24.0638   23.4142   19.2541 C   0  0  0  0  0  0  0  0  0  0  0  0
   22.4672   22.7088   17.9920 C   0  0  0  0  0  0  0  0  0  0  0  0
   22.5670   20.4141   21.1304 C   0  0  0  0  0  0  0  0  0  0  0  0
   19.8599   23.1910   20.8349 C   0  0  0  0  0  0  0  0  0  0  0  0
   24.3808   22.4385   17.2633 C   0  0  0  0  0  0  0  0  0  0  0  0
   24.2365   23.4413   17.5886 C   0  0  0  0  0  0  0  0  0  0  0  0
   23.9022   19.8084   21.0135 O   0  0  0  0  0  0  0  0  0  0  0  0
   19.1883   22.7893   20.4359 O   0  0  0  0  0  0  0  0  0  0  0  0
   20.6089   20.3800   20.7376 O   0  0  0  0  0  0  0  0  0  0  0  0
   21.6050   23.2437   20.6171 C   0  0  0  0  0  0  0  0  0  0  0  0
   20.6919   21.2488   20.2628 C   0  0  0  0  0  0  0  0  0  0  0  0
   22.5466   21.8957   20.7923 C   0  0  0  0  0  0  0  0  0  0  0  0
   21.3063   21.7699   18.9917 C   0  0  0  0  0  0  0  0  0  0  0  0
   24.4945   20.0677   20.9545 C   0  0  0  0  0  0  0  0  0  0  0  0
  3  1  1  0
  4  2  1  0
  8  3  1  0
  8  4  1  0
  8  7  1  0
  9  5  1  0
 10  6  2  0
 12  1  1  0
 12  6  1  0
 13 11  2  0
 14  1  1  0
 14  2  1  0
 14  5  1  0
 14 12  1  0
 15  2  1  0
 15  4  1  0
 15 13  1  0
 16  9  1  0
M  END
>  <ID>  (1) 
conformer_0

$$$$
