
     RDKit          3D

 17 19  0  0  0  0  0  0  0  0999 V2000
   22.7085   21.5192   21.3103 C   0  0  0  0  0  0  0  0  0  0  0  0
   22.8129   23.3759   20.5737 C   0  0  0  0  0  0  0  0  0  0  0  0
   22.1541   21.4921   19.3344 C   0  0  0  0  0  0  0  0  0  0  0  0
   23.8421   21.6349   18.9695 C   0  0  0  0  0  0  0  0  0  0  0  0
   22.2751   19.9855   19.8206 C   0  0  0  0  0  0  0  0  0  0  0  0
   20.6339   21.6843   19.8443 C   0  0  0  0  0  0  0  0  0  0  0  0
   21.6309   23.3073   20.8553 C   0  0  0  0  0  0  0  0  0  0  0  0
   19.7750   23.2465   22.2228 O   0  0  0  0  0  0  0  0  0  0  0  0
   19.0386   23.7117   20.4046 O   0  0  0  0  0  0  0  0  0  0  0  0
   19.9502   23.1755   20.9086 C   0  0  0  0  0  0  0  0  0  0  0  0
   22.5570   18.6135   19.4536 O   0  0  0  0  0  0  0  0  0  0  0  0
   23.4954   20.3904   21.4641 C   0  0  0  0  0  0  0  0  0  0  0  0
   22.5073   23.3291   18.4402 C   0  0  0  0  0  0  0  0  0  0  0  0
   23.9228   23.6476   19.4446 C   0  0  0  0  0  0  0  0  0  0  0  0
   23.8824   22.3521   17.5973 C   0  0  0  0  0  0  0  0  0  0  0  0
   23.7890   23.9754   17.5290 C   0  0  0  0  0  0  0  0  0  0  0  0
   23.8150   19.3260   20.5804 O   0  0  0  0  0  0  0  0  0  0  0  0
  4  3  1  0
  5  3  1  0
  6  3  1  0
  7  2  1  0
 10  6  1  0
 10  7  1  0
 10  8  1  0
 10  9  1  0
 11  5  1  0
 12  1  1  0
 14  2  1  0
 14 13  1  0
 15  4  1  0
 15 13  1  0
 16 13  1  0
 16 14  1  0
 16 15  1  0
 17  5  1  0
 17 12  1  0
M  END
>  <ID>  (1) 
conformer_0

$$$$
