
     RDKit          3D

 16 15  0  0  0  0  0  0  0  0999 V2000
   23.1210   21.8166   19.1439 C   0  0  0  0  0  0  0  0  0  0  0  0
   24.2895   22.2684   18.1759 C   0  0  0  0  0  0  0  0  0  0  0  0
   23.7917   23.7457   19.4202 C   0  0  0  0  0  0  0  0  0  0  0  0
   23.3160   22.9548   20.8410 C   0  0  0  0  0  0  0  0  0  0  0  0
   22.0824   20.2102   20.4835 C   0  0  0  0  0  0  0  0  0  0  0  0
   21.4007   22.5797   20.1870 C   0  0  0  0  0  0  0  0  0  0  0  0
   20.9242   21.5644   19.5569 C   0  0  0  0  0  0  0  0  0  0  0  0
   20.1599   23.3147   20.8934 C   0  0  0  0  0  0  0  0  0  0  0  0
   22.2458   18.6346   20.0062 O   0  0  0  0  0  0  0  0  0  0  0  0
   19.7177   23.5991   21.9428 O   0  0  0  0  0  0  0  0  0  0  0  0
   18.8519   23.3604   20.2237 O   0  0  0  0  0  0  0  0  0  0  0  0
   24.2691   19.9031   20.7795 O   0  0  0  0  0  0  0  0  0  0  0  0
   22.2713   23.6348   20.7157 C   0  0  0  0  0  0  0  0  0  0  0  0
   22.5324   23.2132   17.6873 C   0  0  0  0  0  0  0  0  0  0  0  0
   23.7069   23.1875   17.3111 C   0  0  0  0  0  0  0  0  0  0  0  0
   23.5423   19.8719   20.7455 C   0  0  0  0  0  0  0  0  0  0  0  0
  2  1  1  0
  3  2  1  0
  4  3  1  0
  7  5  1  0
  7  6  1  0
  8  6  1  0
  9  5  1  0
 10  8  1  0
 11  8  2  0
 13  4  1  0
 13  6  1  0
 15  2  1  0
 15 14  1  0
 16  5  1  0
 16 12  1  0
M  END
>  <ID>  (1) 
conformer_0

$$$$
