
     RDKit          3D

 17 19  0  0  0  0  0  0  0  0999 V2000
   24.2028   23.5120   18.5119 C   0  0  2  0  0  0  0  0  0  0  0  0
   23.6903   23.6804   20.0290 C   0  0  1  0  0  0  0  0  0  0  0  0
   23.3754   23.3124   17.0789 C   0  0  2  0  0  0  0  0  0  0  0  0
   22.1990   19.7344   20.1128 C   0  0  0  0  0  0  0  0  0  0  0  0
   22.4313   23.1292   21.0765 C   0  0  2  0  0  0  0  0  0  0  0  0
   22.2599   23.1001   18.3675 C   0  0  0  0  0  0  0  0  0  0  0  0
   19.9269   23.4680   20.8094 C   0  0  0  0  0  0  0  0  0  0  0  0
   19.5151   23.5174   22.0730 O   0  0  0  0  0  0  0  0  0  0  0  0
   22.9899   18.3783   20.6047 O   0  0  0  0  0  0  0  0  0  0  0  0
   23.4662   20.7916   21.2077 C   0  0  1  0  0  0  0  0  0  0  0  0
   18.8921   23.8202   20.3968 O   0  0  0  0  0  0  0  0  0  0  0  0
   23.3071   21.9915   19.8160 C   0  0  2  0  0  0  0  0  0  0  0  0
   24.0449   22.0461   18.1031 C   0  0  2  0  0  0  0  0  0  0  0  0
   22.8767   20.4081   22.2826 O   0  0  0  0  0  0  0  0  0  0  0  0
   21.2563   23.0119   20.3719 C   0  0  0  0  0  0  0  0  0  0  0  0
   20.9371   21.8987   19.6545 C   0  0  0  0  0  0  0  0  0  0  0  0
   21.7642   19.0176   19.1608 O   0  0  0  0  0  0  0  0  0  0  0  0
  2  1  1  0
  1  3  1  6
  2  5  1  6
  3  6  1  1
  8  7  1  0
  9  4  1  0
 10  4  1  0
 11  7  2  0
 12  2  1  0
 12  5  1  0
 12 10  1  1
 13  1  1  0
 13  3  1  6
 13 12  1  0
 10 14  1  1
  5 15  1  6
 15  7  1  0
 16 15  2  3
 17  4  1  0
M  END
>  <ID>  (1) 
conformer_0

$$$$
