
     RDKit          3D

 19 22  0  0  0  0  0  0  0  0999 V2000
   23.9141   23.7600   18.8907 C   0  0  0  0  0  0  0  0  0  0  0  0
   24.1757   22.7650   16.9691 C   0  0  0  0  0  0  0  0  0  0  0  0
   22.7337   24.0251   20.1392 C   0  0  0  0  0  0  0  0  0  0  0  0
   22.9411   23.4190   17.2868 C   0  0  0  0  0  0  0  0  0  0  0  0
   22.9364   18.7599   20.9680 C   0  0  0  0  0  0  0  0  0  0  0  0
   22.9108   21.7807   18.8518 C   0  0  0  0  0  0  0  0  0  0  0  0
   19.8113   23.3175   20.9785 C   0  0  0  0  0  0  0  0  0  0  0  0
   18.7706   23.8851   20.6882 O   0  0  0  0  0  0  0  0  0  0  0  0
   19.7466   23.1377   22.3827 O   0  0  0  0  0  0  0  0  0  0  0  0
   24.2654   20.6814   21.7126 O   0  0  0  0  0  0  0  0  0  0  0  0
   24.3807   21.9964   18.4263 C   0  0  0  0  0  0  0  0  0  0  0  0
   23.8382   18.9311   20.5902 O   0  0  0  0  0  0  0  0  0  0  0  0
   21.8181   21.7764   20.3225 C   0  0  0  0  0  0  0  0  0  0  0  0
   21.8078   23.4198   21.2466 C   0  0  0  0  0  0  0  0  0  0  0  0
   22.0419   20.3209   19.8198 C   0  0  0  0  0  0  0  0  0  0  0  0
   23.6265   20.7142   20.9890 C   0  0  0  0  0  0  0  0  0  0  0  0
   23.5654   22.7918   20.4676 C   0  0  0  0  0  0  0  0  0  0  0  0
   20.5890   22.4484   19.9581 C   0  0  0  0  0  0  0  0  0  0  0  0
   21.9749   18.9833   19.7938 O   0  0  0  0  0  0  0  0  0  0  0  0
  3  1  1  0
  4  1  1  0
  4  2  1  0
  8  7  2  0
  9  7  1  0
 11  1  1  0
 11  2  1  0
 11  6  1  0
 12  5  1  0
 13  6  1  0
 14  3  1  0
 14 13  1  0
 15  6  1  0
 15 13  1  0
 16 10  1  0
 16 12  1  0
 17  1  1  0
 17  3  1  0
 18  7  1  0
 18 13  1  0
 19  5  1  0
 19 15  1  0
M  END
>  <ID>  (1) 
conformer_0

$$$$
