
     RDKit          3D

 19 23  0  0  0  0  0  0  0  0999 V2000
   22.8452   23.4618   16.9422 C   0  0  0  0  0  0  0  0  0  0  0  0
   24.6662   21.7487   18.8698 C   0  0  0  0  0  0  0  0  0  0  0  0
   20.7236   20.7610   19.8257 C   0  0  0  0  0  0  0  0  0  0  0  0
   24.3262   22.7565   17.2713 C   0  0  0  0  0  0  0  0  0  0  0  0
   23.1313   20.4206   20.6400 C   0  0  0  0  0  0  0  0  0  0  0  0
   22.6800   21.9386   20.3481 C   0  0  0  0  0  0  0  0  0  0  0  0
   22.9100   24.2726   20.6656 C   0  0  0  0  0  0  0  0  0  0  0  0
   20.2688   23.3041   21.1026 C   0  0  0  0  0  0  0  0  0  0  0  0
   22.7823   18.5075   19.7989 O   0  0  0  0  0  0  0  0  0  0  0  0
   19.8455   23.2670   22.3230 O   0  0  0  0  0  0  0  0  0  0  0  0
   22.0037   23.4252   21.4878 C   0  0  0  0  0  0  0  0  0  0  0  0
   19.1236   23.6190   20.7255 O   0  0  0  0  0  0  0  0  0  0  0  0
   21.6919   19.2898   20.5451 C   0  0  0  0  0  0  0  0  0  0  0  0
   20.9248   22.3846   20.2270 C   0  0  0  0  0  0  0  0  0  0  0  0
   23.8372   20.0635   20.9528 O   0  0  0  0  0  0  0  0  0  0  0  0
   22.0562   22.8556   18.7790 C   0  0  0  0  0  0  0  0  0  0  0  0
   23.7898   23.4106   19.8063 C   0  0  0  0  0  0  0  0  0  0  0  0
   23.6427   24.0330   18.2797 C   0  0  0  0  0  0  0  0  0  0  0  0
   23.3757   21.5230   18.4560 C   0  0  0  0  0  0  0  0  0  0  0  0
  4  1  1  0
  4  2  1  0
  6  5  1  0
 10  8  1  0
 11  7  1  0
 11  8  1  0
 12  8  1  0
 13  3  1  0
 13  5  1  0
 13  9  1  0
 14  3  1  0
 14  6  1  0
 14  8  1  0
 15  5  2  0
 16  6  1  0
 16 14  1  0
 17  6  1  0
 17  7  1  0
 18  1  1  0
 18  4  1  0
 18 17  1  0
 19  2  1  0
 19 16  1  0
M  END
>  <ID>  (1) 
conformer_0

$$$$
