
     RDKit          3D

 17 20  0  0  0  0  0  0  0  0999 V2000
   23.1062   23.9760   20.1850 C   0  0  0  0  0  0  0  0  0  0  0  0
   21.5451   23.4671   20.8326 C   0  0  0  0  0  0  0  0  0  0  0  0
   24.3171   23.0759   19.9322 C   0  0  0  0  0  0  0  0  0  0  0  0
   23.1752   20.8234   20.6576 C   0  0  0  0  0  0  0  0  0  0  0  0
   24.5100   23.7162   18.6071 C   0  0  0  0  0  0  0  0  0  0  0  0
   20.1767   23.1494   20.8603 C   0  0  0  0  0  0  0  0  0  0  0  0
   20.8396   21.5868   19.9018 C   0  0  0  0  0  0  0  0  0  0  0  0
   22.1775   18.6724   20.1696 O   0  0  0  0  0  0  0  0  0  0  0  0
   24.0159   20.1815   21.4516 O   0  0  0  0  0  0  0  0  0  0  0  0
   19.7714   23.4334   22.2915 O   0  0  0  0  0  0  0  0  0  0  0  0
   18.7930   23.0000   20.3103 O   0  0  0  0  0  0  0  0  0  0  0  0
   22.5142   22.1714   20.5620 C   0  0  0  0  0  0  0  0  0  0  0  0
   24.5047   22.6483   17.1778 C   0  0  0  0  0  0  0  0  0  0  0  0
   22.6108   19.3345   20.4169 C   0  0  0  0  0  0  0  0  0  0  0  0
   21.8197   22.6671   18.9286 C   0  0  0  0  0  0  0  0  0  0  0  0
   23.1495   23.2812   17.3811 C   0  0  0  0  0  0  0  0  0  0  0  0
   23.5594   21.8731   18.7792 C   0  0  0  0  0  0  0  0  0  0  0  0
  2  1  1  0
  3  1  1  0
  5  3  1  0
  6  2  1  0
  7  6  1  0
  9  4  1  0
 10  6  1  0
 11  6  1  0
 12  2  1  0
 12  4  1  0
 12  7  1  0
 13  5  1  0
 14  4  2  0
 14  8  2  0
 15  7  1  0
 15 12  1  0
 16  5  1  0
 16 13  1  0
 17  3  1  0
 17 15  1  0
M  END
>  <ID>  (1) 
conformer_0

$$$$
