
     RDKit          3D

 18 20  0  0  0  0  0  0  0  0999 V2000
   24.7448   23.1442   18.8269 C   0  0  0  0  0  0  0  0  0  0  0  0
   24.5768   22.3388   17.4572 C   0  0  0  0  0  0  0  0  0  0  0  0
   23.3501   23.4628   17.3779 C   0  0  0  0  0  0  0  0  0  0  0  0
   23.4014   18.9512   20.4290 C   0  0  0  0  0  0  0  0  0  0  0  0
   23.6442   21.7768   19.1866 C   0  0  0  0  0  0  0  0  0  0  0  0
   22.2179   22.7608   18.2667 C   0  0  0  0  0  0  0  0  0  0  0  0
   19.8328   22.8104   20.4416 C   0  0  0  0  0  0  0  0  0  0  0  0
   19.5099   23.6026   21.8046 O   0  0  0  0  0  0  0  0  0  0  0  0
   19.0135   22.9804   20.0902 O   0  0  0  0  0  0  0  0  0  0  0  0
   24.3262   20.1676   21.2582 O   0  0  0  0  0  0  0  0  0  0  0  0
   22.5536   18.9594   19.5957 O   0  0  0  0  0  0  0  0  0  0  0  0
   21.6003   23.3847   21.2918 C   0  0  0  0  0  0  0  0  0  0  0  0
   22.0656   22.2655   20.1713 C   0  0  0  0  0  0  0  0  0  0  0  0
   20.9586   21.4096   19.7400 C   0  0  0  0  0  0  0  0  0  0  0  0
   21.8114   20.3343   20.1083 C   0  0  0  0  0  0  0  0  0  0  0  0
   23.5315   20.5675   21.2957 C   0  0  0  0  0  0  0  0  0  0  0  0
   23.2513   23.1668   20.5828 C   0  0  0  0  0  0  0  0  0  0  0  0
   23.7451   24.1086   19.4486 C   0  0  0  0  0  0  0  0  0  0  0  0
  2  1  1  0
  3  2  1  0
  5  1  1  0
  6  3  1  0
  6  5  1  0
  8  7  1  0
  9  7  2  0
 10  4  1  0
 11  4  1  0
 13  5  1  0
 13 12  1  0
 14  7  1  0
 14 13  1  0
 15 11  1  0
 15 14  1  0
 16 10  1  0
 17 12  1  0
 17 13  1  0
 18  1  1  0
 18 17  1  0
M  END
>  <ID>  (1) 
conformer_0

$$$$
