
     RDKit          3D

 18 22  0  0  0  0  0  0  0  0999 V2000
   22.8179   23.6969   20.1142 C   0  0  0  0  0  0  0  0  0  0  0  0
   20.9014   21.8750   19.5446 C   0  0  0  0  0  0  0  0  0  0  0  0
   23.5626   23.6662   17.2820 C   0  0  0  0  0  0  0  0  0  0  0  0
   21.2998   23.0299   20.3699 C   0  0  0  0  0  0  0  0  0  0  0  0
   23.9219   20.8130   21.7096 C   0  0  0  0  0  0  0  0  0  0  0  0
   22.7233   21.4542   19.0689 C   0  0  0  0  0  0  0  0  0  0  0  0
   24.4051   22.4153   17.6507 C   0  0  0  0  0  0  0  0  0  0  0  0
   20.0442   23.3085   21.1210 C   0  0  0  0  0  0  0  0  0  0  0  0
   22.7176   18.7310   19.9635 O   0  0  0  0  0  0  0  0  0  0  0  0
   22.8935   19.8944   20.3324 C   0  0  0  0  0  0  0  0  0  0  0  0
   24.3071   21.5883   18.6914 C   0  0  0  0  0  0  0  0  0  0  0  0
   24.5621   20.3281   20.9300 O   0  0  0  0  0  0  0  0  0  0  0  0
   19.5375   22.8718   22.2623 O   0  0  0  0  0  0  0  0  0  0  0  0
   22.9682   22.2652   20.8928 C   0  0  0  0  0  0  0  0  0  0  0  0
   22.3836   23.1639   18.1737 C   0  0  0  0  0  0  0  0  0  0  0  0
   19.6181   24.4466   21.4209 O   0  0  0  0  0  0  0  0  0  0  0  0
   20.8504   20.4098   19.7968 C   0  0  0  0  0  0  0  0  0  0  0  0
   23.9839   23.5534   19.1359 C   0  0  0  0  0  0  0  0  0  0  0  0
  4  1  1  0
  4  2  1  0
  6  2  1  0
  7  3  1  0
  8  4  1  0
 10  9  2  0
 11  6  1  0
 11  7  1  0
 12  5  1  0
 12 10  1  0
 13  8  1  0
 14  1  1  0
 14  4  1  0
 14  5  1  0
 15  3  1  0
 15  6  1  0
 16  8  2  0
 17  2  1  0
 18  1  1  0
 18  3  1  0
 18  7  1  0
 18 15  1  0
M  END
>  <ID>  (1) 
conformer_0

$$$$
