
     RDKit          3D

 19 23  0  0  0  0  0  0  0  0999 V2000
   24.0471   24.0972   17.2047 C   0  0  0  0  0  0  0  0  0  0  0  0
   24.5200   22.3466   17.2982 C   0  0  0  0  0  0  0  0  0  0  0  0
   20.4671   21.7853   19.9003 C   0  0  0  0  0  0  0  0  0  0  0  0
   22.3446   20.0809   20.2755 C   0  0  0  0  0  0  0  0  0  0  0  0
   23.5524   21.6291   18.7385 C   0  0  0  0  0  0  0  0  0  0  0  0
   23.2402   24.2816   18.9922 C   0  0  0  0  0  0  0  0  0  0  0  0
   24.5685   23.2350   19.1321 C   0  0  0  0  0  0  0  0  0  0  0  0
   20.0218   23.2754   20.9057 C   0  0  0  0  0  0  0  0  0  0  0  0
   18.7426   23.5983   20.3651 O   0  0  0  0  0  0  0  0  0  0  0  0
   19.7754   23.4308   22.1922 O   0  0  0  0  0  0  0  0  0  0  0  0
   22.4246   18.4893   20.0674 O   0  0  0  0  0  0  0  0  0  0  0  0
   22.2779   21.0305   21.2040 C   0  0  0  0  0  0  0  0  0  0  0  0
   24.4046   19.4061   20.6847 O   0  0  0  0  0  0  0  0  0  0  0  0
   23.6094   19.7940   21.2665 C   0  0  0  0  0  0  0  0  0  0  0  0
   21.7439   22.7323   19.4625 C   0  0  0  0  0  0  0  0  0  0  0  0
   22.9557   24.0885   20.6468 C   0  0  0  0  0  0  0  0  0  0  0  0
   21.4082   23.4943   20.9993 C   0  0  0  0  0  0  0  0  0  0  0  0
   23.1456   22.2762   20.2260 C   0  0  0  0  0  0  0  0  0  0  0  0
   22.8703   23.1496   17.4060 C   0  0  0  0  0  0  0  0  0  0  0  0
  2  1  1  0
  5  2  1  0
  6  1  1  0
  7  5  1  0
  7  6  1  0
  8  3  1  0
  9  8  1  0
 10  8  1  0
 11  4  1  0
 12  4  1  0
 14  4  1  0
 14 13  1  0
 15  3  1  0
 16  6  1  0
 17  8  1  0
 17 15  1  0
 17 16  1  0
 18  5  1  0
 18 12  1  0
 18 15  1  0
 18 16  1  0
 19  1  1  0
 19  2  1  0
M  END
>  <ID>  (1) 
conformer_0

$$$$
