
     RDKit          3D

 19 21  0  0  0  0  0  0  0  0999 V2000
   23.7657   23.6011   19.5412 C   0  0  0  0  0  0  0  0  0  0  0  0
   22.5637   23.0898   18.0290 C   0  0  0  0  0  0  0  0  0  0  0  0
   22.1057   23.5121   20.7497 C   0  0  0  0  0  0  0  0  0  0  0  0
   24.0646   22.9120   16.9033 C   0  0  0  0  0  0  0  0  0  0  0  0
   23.5097   20.6203   22.2505 C   0  0  0  0  0  0  0  0  0  0  0  0
   21.2458   22.4631   20.0652 C   0  0  0  0  0  0  0  0  0  0  0  0
   19.9779   23.2054   20.7171 C   0  0  0  0  0  0  0  0  0  0  0  0
   18.8394   23.4902   20.3598 O   0  0  0  0  0  0  0  0  0  0  0  0
   19.8079   23.3858   22.2328 O   0  0  0  0  0  0  0  0  0  0  0  0
   24.5172   19.9648   21.2033 O   0  0  0  0  0  0  0  0  0  0  0  0
   20.8529   19.5929   19.8910 O   0  0  0  0  0  0  0  0  0  0  0  0
   20.3460   21.7664   19.2090 C   0  0  0  0  0  0  0  0  0  0  0  0
   23.1132   20.5189   20.5927 C   0  0  0  0  0  0  0  0  0  0  0  0
   23.3584   22.3883   20.1870 C   0  0  0  0  0  0  0  0  0  0  0  0
   22.4938   21.5592   18.7901 C   0  0  0  0  0  0  0  0  0  0  0  0
   24.3430   21.9509   18.3642 C   0  0  0  0  0  0  0  0  0  0  0  0
   21.4351   20.0736   19.9653 C   0  0  0  0  0  0  0  0  0  0  0  0
   22.7479   19.0151   20.0073 O   0  0  0  0  0  0  0  0  0  0  0  0
   24.6815   23.6539   17.7359 C   0  0  0  0  0  0  0  0  0  0  0  0
  4  2  1  0
  6  3  1  0
  7  6  1  0
  8  7  2  0
  9  7  1  0
 10  5  1  0
 12  6  1  0
 13  5  1  0
 13 10  1  0
 14  1  1  0
 14  3  1  0
 15  2  1  0
 15 14  1  0
 16  4  1  0
 16 15  1  0
 17 11  1  0
 17 12  1  0
 17 13  1  0
 18 13  1  0
 18 17  1  0
 19  4  1  0
M  END
>  <ID>  (1) 
conformer_0

$$$$
