
     RDKit          3D

 19 20  0  0  0  0  0  0  0  0999 V2000
   22.5001   23.0738   18.0529 C   0  0  0  0  0  0  0  0  0  0  0  0
   24.0163   22.9989   16.9252 C   0  0  0  0  0  0  0  0  0  0  0  0
   24.3964   21.8962   17.9193 C   0  0  0  0  0  0  0  0  0  0  0  0
   22.7001   20.6746   20.9364 C   0  0  0  0  0  0  0  0  0  0  0  0
   22.8425   23.9641   20.0734 C   0  0  0  0  0  0  0  0  0  0  0  0
   21.0902   21.3837   19.6990 C   0  0  0  0  0  0  0  0  0  0  0  0
   23.8338   23.3314   19.4910 C   0  0  0  0  0  0  0  0  0  0  0  0
   22.6510   18.7037   19.6700 O   0  0  0  0  0  0  0  0  0  0  0  0
   19.9248   23.2324   20.6670 C   0  0  0  0  0  0  0  0  0  0  0  0
   19.6510   23.0884   22.0407 O   0  0  0  0  0  0  0  0  0  0  0  0
   19.0927   23.7312   20.3828 O   0  0  0  0  0  0  0  0  0  0  0  0
   23.8319   20.5096   22.0256 C   0  0  0  0  0  0  0  0  0  0  0  0
   21.9275   20.0490   21.9870 O   0  0  0  0  0  0  0  0  0  0  0  0
   23.0823   21.3922   19.0831 C   0  0  0  0  0  0  0  0  0  0  0  0
   21.1637   23.0183   20.3076 C   0  0  0  0  0  0  0  0  0  0  0  0
   22.0157   23.6758   21.4109 C   0  0  0  0  0  0  0  0  0  0  0  0
   22.8944   21.8532   20.7190 C   0  0  0  0  0  0  0  0  0  0  0  0
   21.6641   19.6878   20.0320 C   0  0  0  0  0  0  0  0  0  0  0  0
   23.9356   24.2649   17.6921 C   0  0  0  0  0  0  0  0  0  0  0  0
  2  1  1  0
  3  2  1  0
  7  5  1  0
 10  9  1  0
 11  9  2  0
 12  4  1  0
 13  4  1  0
 14  3  1  0
 15  5  1  0
 15  6  1  0
 15  9  1  0
 16  5  1  0
 16 15  1  0
 17  4  1  0
 17 14  1  0
 18  4  1  0
 18  6  1  0
 18  8  1  0
 19  1  1  0
 19  2  1  0
M  END
>  <ID>  (1) 
conformer_0

$$$$
