
     RDKit          3D

 18 19  0  0  0  0  0  0  0  0999 V2000
   24.6275   22.8898   18.8490 C   0  0  0  0  0  0  0  0  0  0  0  0
   20.4126   21.7265   19.5871 C   0  0  0  0  0  0  0  0  0  0  0  0
   23.4829   23.7938   19.5000 C   0  0  1  0  0  0  0  0  0  0  0  0
   23.8389   23.3020   17.3069 C   0  0  0  0  0  0  0  0  0  0  0  0
   24.8581   22.3092   17.1856 C   0  0  0  0  0  0  0  0  0  0  0  0
   23.5858   20.2741   21.0469 C   0  0  0  0  0  0  0  0  0  0  0  0
   18.8037   23.6199   20.2075 O   0  0  0  0  0  0  0  0  0  0  0  0
   19.8892   23.2859   20.8767 C   0  0  0  0  0  0  0  0  0  0  0  0
   19.5367   23.5765   22.1400 O   0  0  0  0  0  0  0  0  0  0  0  0
   22.4189   18.8673   19.8255 O   0  0  0  0  0  0  0  0  0  0  0  0
   21.2897   22.9761   21.2903 C   0  0  0  0  0  0  0  0  0  0  0  0
   21.9962   23.5314   20.6110 C   0  0  1  0  0  0  0  0  0  0  0  0
   23.9889   20.2281   21.5046 O   0  0  0  0  0  0  0  0  0  0  0  0
   22.2017   22.6616   18.5050 C   0  0  0  0  0  0  0  0  0  0  0  0
   22.1141   20.0851   19.9560 C   0  0  0  0  0  0  0  0  0  0  0  0
   21.6665   21.3737   20.0371 C   0  0  0  0  0  0  0  0  0  0  0  0
   23.4796   21.5569   18.6138 C   0  0  0  0  0  0  0  0  0  0  0  0
   23.3333   22.3636   20.5202 C   0  0  1  0  0  0  0  0  0  0  0  0
  3  1  1  6
  4  1  1  0
  5  1  1  0
  5  4  1  0
  8  7  2  0
  9  8  1  0
 11  8  1  0
 12  3  1  0
 12 11  1  6
 13  6  2  0
 15  6  2  0
 15 10  1  0
 16  2  2  3
 16 15  1  0
 17  1  1  0
 17 14  1  0
 18  3  1  0
 18 12  1  0
 18 16  1  6
M  END
>  <ID>  (1) 
conformer_0

$$$$
