
     RDKit          3D

 18 20  0  0  0  0  0  0  0  0999 V2000
   22.3282   23.2665   18.4267 C   0  0  0  0  0  0  0  0  0  0  0  0
   23.6900   23.5111   19.6352 C   0  0  0  0  0  0  0  0  0  0  0  0
   20.9489   22.4955   20.3351 C   0  0  0  0  0  0  0  0  0  0  0  0
   21.7593   20.0740   20.0646 C   0  0  0  0  0  0  0  0  0  0  0  0
   21.8779   23.6980   20.8420 C   0  0  0  0  0  0  0  0  0  0  0  0
   21.1492   21.7438   18.9804 C   0  0  0  0  0  0  0  0  0  0  0  0
   19.8661   23.3989   20.9888 C   0  0  0  0  0  0  0  0  0  0  0  0
   18.6683   23.5330   20.5003 O   0  0  0  0  0  0  0  0  0  0  0  0
   22.2052   18.9508   19.7443 O   0  0  0  0  0  0  0  0  0  0  0  0
   19.6624   23.9480   21.8934 O   0  0  0  0  0  0  0  0  0  0  0  0
   23.6712   23.7355   17.5848 C   0  0  0  0  0  0  0  0  0  0  0  0
   25.0225   22.9917   17.5760 C   0  0  0  0  0  0  0  0  0  0  0  0
   24.1680   19.8826   20.7441 O   0  0  0  0  0  0  0  0  0  0  0  0
   23.4168   19.8654   21.7022 C   0  0  0  0  0  0  0  0  0  0  0  0
   24.9503   21.7544   18.3839 C   0  0  0  0  0  0  0  0  0  0  0  0
   23.5279   21.9655   19.2872 C   0  0  0  0  0  0  0  0  0  0  0  0
   22.5272   22.2913   21.1842 C   0  0  0  0  0  0  0  0  0  0  0  0
   23.5187   20.6423   19.8743 C   0  0  0  0  0  0  0  0  0  0  0  0
  2  1  1  0
  5  3  1  0
  6  1  1  0
  6  3  1  0
  7  3  1  0
  8  7  2  0
  9  4  1  0
 10  7  1  0
 11  1  1  0
 12 11  1  0
 14 13  1  0
 15 12  1  0
 16  1  1  0
 16  2  1  0
 16 15  1  0
 17  3  1  0
 17  5  1  0
 18  4  1  0
 18 13  1  0
 18 16  1  0
M  END
>  <ID>  (1) 
conformer_0

$$$$
