
     RDKit          3D

 20 26  0  0  0  0  0  0  0  0999 V2000
   20.5809   21.5495   19.5338 C   0  0  0  0  0  0  0  0  0  0  0  0
   24.3530   23.1336   17.2886 C   0  0  0  0  0  0  0  0  0  0  0  0
   22.8372   23.2135   17.6464 C   0  0  0  0  0  0  0  0  0  0  0  0
   21.6217   23.5686   21.0257 C   0  0  0  0  0  0  0  0  0  0  0  0
   23.3649   20.5417   20.8687 C   0  0  0  0  0  0  0  0  0  0  0  0
   23.1812   23.8622   20.7084 C   0  0  0  0  0  0  0  0  0  0  0  0
   23.9206   24.0626   19.0444 C   0  0  0  0  0  0  0  0  0  0  0  0
   20.2963   23.3103   20.8939 C   0  0  0  0  0  0  0  0  0  0  0  0
   24.5151   19.8983   20.0044 O   0  0  0  0  0  0  0  0  0  0  0  0
   19.0335   23.2619   20.2362 O   0  0  0  0  0  0  0  0  0  0  0  0
   19.8061   23.3606   22.0419 O   0  0  0  0  0  0  0  0  0  0  0  0
   22.8079   18.8718   19.8485 O   0  0  0  0  0  0  0  0  0  0  0  0
   21.3942   20.2246   20.2404 C   0  0  0  0  0  0  0  0  0  0  0  0
   24.0917   21.7840   18.0276 C   0  0  0  0  0  0  0  0  0  0  0  0
   22.3850   22.0913   20.9623 C   0  0  0  0  0  0  0  0  0  0  0  0
   24.4977   19.0616   19.4938 C   0  0  0  0  0  0  0  0  0  0  0  0
   21.7627   22.8002   19.0947 C   0  0  0  0  0  0  0  0  0  0  0  0
   20.8472   19.5327   20.3150 O   0  0  0  0  0  0  0  0  0  0  0  0
   22.6636   21.3776   19.4401 C   0  0  0  0  0  0  0  0  0  0  0  0
   24.0067   22.6857   19.6055 C   0  0  0  0  0  0  0  0  0  0  0  0
  3  2  1  0
  6  4  1  0
  7  3  1  0
  7  6  1  0
  8  4  1  0
  9  5  1  0
 10  8  2  0
 11  8  1  0
 13  1  1  0
 14  2  1  0
 14  3  1  0
 15  4  1  0
 15  5  1  0
 15  6  1  0
 16  9  1  0
 16 12  1  0
 17  1  1  0
 17  3  1  0
 18 13  1  0
 19  5  1  0
 19 15  1  0
 19 17  1  0
 20  6  1  0
 20  7  1  0
 20 14  1  0
 20 19  1  0
M  END
>  <ID>  (1) 
conformer_0

$$$$
