
     RDKit          3D

 18 22  0  0  0  0  0  0  0  0999 V2000
   24.3830   22.0866   17.6906 C   0  0  0  0  0  0  0  0  0  0  0  0
   20.7263   21.4826   19.6514 C   0  0  0  0  0  0  0  0  0  0  0  0
   22.9318   23.1258   17.0918 C   0  0  0  0  0  0  0  0  0  0  0  0
   23.4099   20.0469   20.7496 C   0  0  0  0  0  0  0  0  0  0  0  0
   23.4706   21.4737   19.1247 C   0  0  0  0  0  0  0  0  0  0  0  0
   24.5886   23.4079   17.1350 C   0  0  0  0  0  0  0  0  0  0  0  0
   19.7673   23.4213   22.1589 O   0  0  0  0  0  0  0  0  0  0  0  0
   19.9435   23.0358   20.7441 C   0  0  0  0  0  0  0  0  0  0  0  0
   22.4653   18.6626   20.0929 O   0  0  0  0  0  0  0  0  0  0  0  0
   18.8394   23.4268   20.3629 O   0  0  0  0  0  0  0  0  0  0  0  0
   22.2825   21.4882   20.4533 C   0  0  0  0  0  0  0  0  0  0  0  0
   23.4331   20.9908   22.1145 C   0  0  0  0  0  0  0  0  0  0  0  0
   22.7947   23.0023   19.0523 C   0  0  0  0  0  0  0  0  0  0  0  0
   24.2584   19.9245   21.0063 O   0  0  0  0  0  0  0  0  0  0  0  0
   21.3912   23.3149   20.6815 C   0  0  0  0  0  0  0  0  0  0  0  0
   22.8498   23.7161   20.4870 C   0  0  0  0  0  0  0  0  0  0  0  0
   21.6782   20.1897   20.2397 C   0  0  0  0  0  0  0  0  0  0  0  0
   24.1091   23.6062   19.0712 C   0  0  0  0  0  0  0  0  0  0  0  0
  3  1  1  0
  5  1  1  0
  6  1  1  0
  6  3  1  0
  8  7  1  0
 10  8  1  0
 11  2  1  0
 11  4  1  0
 11  5  1  0
 12  4  1  0
 13  3  1  0
 13  5  1  0
 14  4  1  0
 15  8  1  0
 16 13  1  0
 16 15  1  0
 17  2  1  0
 17  4  1  0
 17  9  1  0
 17 11  1  0
 18 13  1  0
 18 16  1  0
M  END
>  <ID>  (1) 
conformer_0

$$$$
