
     RDKit          3D

 19 20  0  0  0  0  0  0  0  0999 V2000
   23.6982   23.7621   19.4539 C   0  0  0  0  0  0  0  0  0  0  0  0
   23.1179   23.6887   21.0821 C   0  0  0  0  0  0  0  0  0  0  0  0
   23.6940   23.9344   17.4621 C   0  0  0  0  0  0  0  0  0  0  0  0
   21.5013   23.4405   20.9362 C   0  0  0  0  0  0  0  0  0  0  0  0
   21.9323   19.6473   20.2900 C   0  0  0  0  0  0  0  0  0  0  0  0
   20.5176   22.0627   19.5377 C   0  0  0  0  0  0  0  0  0  0  0  0
   19.7772   23.5200   22.1406 O   0  0  0  0  0  0  0  0  0  0  0  0
   20.2381   23.4163   20.9157 C   0  0  0  0  0  0  0  0  0  0  0  0
   22.1686   18.5519   19.6267 O   0  0  0  0  0  0  0  0  0  0  0  0
   18.9146   23.2265   20.2478 O   0  0  0  0  0  0  0  0  0  0  0  0
   21.5593   21.1551   19.6922 C   0  0  0  0  0  0  0  0  0  0  0  0
   23.7602   21.7380   19.3157 C   0  0  0  0  0  0  0  0  0  0  0  0
   23.6193   21.0963   21.4686 C   0  0  0  0  0  0  0  0  0  0  0  0
   22.3603   23.7377   16.5769 C   0  0  0  0  0  0  0  0  0  0  0  0
   23.8284   19.0109   20.4707 O   0  0  0  0  0  0  0  0  0  0  0  0
   22.6474   22.1083   20.8845 C   0  0  0  0  0  0  0  0  0  0  0  0
   22.2979   23.0640   18.9207 C   0  0  0  0  0  0  0  0  0  0  0  0
   23.5834   19.2886   20.5024 C   0  0  0  0  0  0  0  0  0  0  0  0
   23.9714   22.4213   17.6816 C   0  0  0  0  0  0  0  0  0  0  0  0
  2  1  1  0
  3  1  1  0
  4  2  1  0
  8  4  1  0
  8  6  1  0
  8  7  1  0
  9  5  1  0
 10  8  1  0
 11  5  1  0
 11  6  1  0
 14  3  1  0
 16  2  1  0
 16  4  1  0
 16 11  1  0
 16 13  1  0
 17  1  1  0
 18  5  1  0
 18 15  2  0
 19  3  1  0
 19 12  1  0
M  END
>  <ID>  (1) 
conformer_0

$$$$
