
     RDKit          3D

 18 22  0  0  0  0  0  0  0  0999 V2000
   23.3209   23.6289   17.2705 C   0  0  0  0  0  0  0  0  0  0  0  0
   24.3065   22.3101   17.5386 C   0  0  0  0  0  0  0  0  0  0  0  0
   24.3651   23.6868   18.7242 C   0  0  0  0  0  0  0  0  0  0  0  0
   23.3079   20.0222   21.1297 C   0  0  0  0  0  0  0  0  0  0  0  0
   20.7325   21.6847   19.8050 C   0  0  0  0  0  0  0  0  0  0  0  0
   22.1266   21.2229   20.6458 C   0  0  0  0  0  0  0  0  0  0  0  0
   20.1541   23.4888   21.0755 C   0  0  0  0  0  0  0  0  0  0  0  0
   19.8142   23.3650   22.3019 O   0  0  0  0  0  0  0  0  0  0  0  0
   19.0043   23.6814   20.3932 O   0  0  0  0  0  0  0  0  0  0  0  0
   23.4434   22.5136   19.9828 C   0  0  0  0  0  0  0  0  0  0  0  0
   24.0931   19.5157   20.5518 O   0  0  0  0  0  0  0  0  0  0  0  0
   22.0148   23.0452   18.2649 C   0  0  0  0  0  0  0  0  0  0  0  0
   21.7673   19.2935   20.3792 C   0  0  0  0  0  0  0  0  0  0  0  0
   22.3325   18.6939   19.7827 O   0  0  0  0  0  0  0  0  0  0  0  0
   23.4028   21.5331   18.7649 C   0  0  0  0  0  0  0  0  0  0  0  0
   21.4727   23.0525   20.0857 C   0  0  0  0  0  0  0  0  0  0  0  0
   23.1081   24.1464   19.8236 C   0  0  0  0  0  0  0  0  0  0  0  0
   21.9539   23.5278   21.3490 C   0  0  0  0  0  0  0  0  0  0  0  0
  2  1  1  0
  3  1  1  0
  3  2  1  0
  6  4  1  0
  6  5  1  0
  8  7  1  0
  9  7  1  0
 10  3  1  0
 10  6  1  0
 11  4  1  0
 12  1  1  0
 13  4  1  0
 14 13  1  0
 15  2  1  0
 15 10  1  0
 16  5  1  0
 16  7  1  0
 16 12  1  0
 17  3  1  0
 17 10  1  0
 18  7  1  0
 18 16  1  0
M  END
>  <ID>  (1) 
conformer_0

$$$$
