
     RDKit          3D

 14 17  0  0  0  0  0  0  0  0999 V2000
   23.7200   23.7374   19.1913 C   0  0  0  0  0  0  0  0  0  0  0  0
   24.0446   22.7462   17.1399 C   0  0  0  0  0  0  0  0  0  0  0  0
   22.4798   23.8801   20.3848 C   0  0  0  0  0  0  0  0  0  0  0  0
   22.9672   23.5073   17.7491 C   0  0  0  0  0  0  0  0  0  0  0  0
   23.6414   20.0505   20.7736 C   0  0  0  0  0  0  0  0  0  0  0  0
   19.6881   23.2241   22.2855 O   0  0  0  0  0  0  0  0  0  0  0  0
   20.2354   23.0647   20.8033 C   0  0  0  0  0  0  0  0  0  0  0  0
   21.1413   21.9245   19.9998 C   0  0  0  0  0  0  0  0  0  0  0  0
   23.0401   18.7267   19.8138 O   0  0  0  0  0  0  0  0  0  0  0  0
   19.1698   23.8576   20.4115 O   0  0  0  0  0  0  0  0  0  0  0  0
   21.9993   22.8787   20.6873 C   0  0  0  0  0  0  0  0  0  0  0  0
   21.9518   19.8158   20.6779 C   0  0  0  0  0  0  0  0  0  0  0  0
   23.4633   22.1641   19.7022 C   0  0  0  0  0  0  0  0  0  0  0  0
   24.2440   22.0548   18.1290 C   0  0  0  0  0  0  0  0  0  0  0  0
  3  1  1  0
  4  1  1  0
  4  2  1  0
  7  6  1  0
  8  7  1  0
  9  5  1  0
 10  7  1  0
 11  3  1  0
 11  7  1  0
 11  8  1  0
 12  5  1  0
 12  8  1  0
 12  9  1  0
 13  1  1  0
 13 11  1  0
 14  2  1  0
 14 13  1  0
M  END
>  <ID>  (1) 
conformer_0

$$$$
