
     RDKit          3D

 17 19  0  0  0  0  0  0  0  0999 V2000
   23.2140   21.7129   19.0880 C   0  0  0  0  0  0  0  0  0  0  0  0
   22.5147   23.6254   19.3278 C   0  0  0  0  0  0  0  0  0  0  0  0
   24.2611   22.1702   17.9739 C   0  0  0  0  0  0  0  0  0  0  0  0
   23.7086   19.6211   21.2694 C   0  0  0  0  0  0  0  0  0  0  0  0
   24.0604   23.1594   19.5041 C   0  0  0  0  0  0  0  0  0  0  0  0
   24.1064   24.0940   17.6195 C   0  0  0  0  0  0  0  0  0  0  0  0
   20.0990   23.1566   21.0493 C   0  0  0  0  0  0  0  0  0  0  0  0
   19.6939   23.3606   22.5130 O   0  0  0  0  0  0  0  0  0  0  0  0
   18.8025   23.3617   20.3287 O   0  0  0  0  0  0  0  0  0  0  0  0
   22.4492   18.9761   19.5097 O   0  0  0  0  0  0  0  0  0  0  0  0
   24.6061   19.8703   20.6810 O   0  0  0  0  0  0  0  0  0  0  0  0
   23.1517   23.5763   17.2927 C   0  0  0  0  0  0  0  0  0  0  0  0
   21.8238   19.5961   20.1201 C   0  0  0  0  0  0  0  0  0  0  0  0
   22.4479   21.8263   20.9923 C   0  0  0  0  0  0  0  0  0  0  0  0
   20.9769   21.9591   19.8604 C   0  0  0  0  0  0  0  0  0  0  0  0
   21.7381   23.2753   20.8597 C   0  0  0  0  0  0  0  0  0  0  0  0
   23.9323   20.5294   19.7588 C   0  0  0  0  0  0  0  0  0  0  0  0
  3  1  1  0
  5  1  1  0
  5  2  1  0
  5  3  1  0
  8  7  1  0
  9  7  1  0
 11  4  1  0
 12  3  1  0
 12  6  1  0
 13  4  1  0
 13 10  1  0
 15  7  1  0
 15 14  1  0
 16  2  1  0
 16  7  1  0
 16 14  1  0
 16 15  1  0
 17  1  1  0
 17 11  1  0
M  END
>  <ID>  (1) 
conformer_0

$$$$
