
     RDKit          3D

 17 18  0  0  0  0  0  0  0  0999 V2000
   24.4412   22.6526   17.6661 C   0  0  0  0  0  0  0  0  0  0  0  0
   23.7284   23.3103   17.1850 C   0  0  0  0  0  0  0  0  0  0  0  0
   22.4559   22.5979   21.3005 C   0  0  0  0  0  0  0  0  0  0  0  0
   21.4761   21.9593   19.9380 C   0  0  0  0  0  0  0  0  0  0  0  0
   21.6630   20.1194   20.0513 C   0  0  0  0  0  0  0  0  0  0  0  0
   23.4101   21.6168   18.5356 C   0  0  0  0  0  0  0  0  0  0  0  0
   19.9984   23.3466   20.8014 C   0  0  0  0  0  0  0  0  0  0  0  0
   19.0328   23.3111   19.9502 O   0  0  0  0  0  0  0  0  0  0  0  0
   22.8301   18.4099   19.9267 O   0  0  0  0  0  0  0  0  0  0  0  0
   19.6075   23.5969   21.9322 O   0  0  0  0  0  0  0  0  0  0  0  0
   22.3597   23.3475   18.2400 C   0  0  0  0  0  0  0  0  0  0  0  0
   23.4297   23.8379   19.4006 C   0  0  0  0  0  0  0  0  0  0  0  0
   23.2885   20.8282   21.7334 C   0  0  0  0  0  0  0  0  0  0  0  0
   21.5714   23.4041   20.4106 C   0  0  0  0  0  0  0  0  0  0  0  0
   24.1690   19.5832   20.8179 O   0  0  0  0  0  0  0  0  0  0  0  0
   23.6751   22.4299   19.9734 C   0  0  0  0  0  0  0  0  0  0  0  0
   23.3656   19.3633   20.2859 C   0  0  0  0  0  0  0  0  0  0  0  0
  2  1  1  0
  4  3  1  0
  5  4  1  0
  6  1  1  0
  8  7  2  0
 10  7  1  0
 11  2  1  0
 12 11  1  0
 14  3  1  0
 14  4  1  0
 14  7  1  0
 15 13  1  0
 16  3  1  0
 16  6  1  0
 16 12  1  0
 17  5  1  0
 17  9  2  0
 17 15  1  0
M  END
>  <ID>  (1) 
conformer_0

$$$$
