
     RDKit          3D

 20 22  0  0  0  0  0  0  0  0999 V2000
   23.6279   23.2728   17.1014 C   0  0  0  0  0  0  0  0  0  0  0  0
   24.7886   22.5721   17.5408 C   0  0  0  0  0  0  0  0  0  0  0  0
   22.5315   23.8814   20.8271 C   0  0  0  0  0  0  0  0  0  0  0  0
   22.2300   21.6394   19.5213 C   0  0  0  0  0  0  0  0  0  0  0  0
   23.7084   20.3632   20.6034 C   0  0  0  0  0  0  0  0  0  0  0  0
   20.7598   21.8791   19.5906 C   0  0  0  0  0  0  0  0  0  0  0  0
   21.5848   23.2044   20.8741 C   0  0  0  0  0  0  0  0  0  0  0  0
   20.1234   23.4410   21.0344 C   0  0  0  0  0  0  0  0  0  0  0  0
   19.6921   23.2335   22.3012 O   0  0  0  0  0  0  0  0  0  0  0  0
   21.8547   18.7280   19.5375 O   0  0  0  0  0  0  0  0  0  0  0  0
   19.0346   23.6255   20.5937 O   0  0  0  0  0  0  0  0  0  0  0  0
   21.1763   19.0183   21.2413 O   0  0  0  0  0  0  0  0  0  0  0  0
   23.4686   20.4064   21.7724 O   0  0  0  0  0  0  0  0  0  0  0  0
   24.2512   23.7691   18.9549 C   0  0  0  0  0  0  0  0  0  0  0  0
   23.7882   21.5384   18.4709 C   0  0  0  0  0  0  0  0  0  0  0  0
   22.2808   19.1137   20.3980 C   0  0  0  0  0  0  0  0  0  0  0  0
   23.6186   23.0924   20.0507 C   0  0  0  0  0  0  0  0  0  0  0  0
   22.3536   23.0038   18.2940 C   0  0  0  0  0  0  0  0  0  0  0  0
   23.7018   18.6803   20.0298 O   0  0  0  0  0  0  0  0  0  0  0  0
   21.8175   21.0332   20.7543 C   0  0  0  0  0  0  0  0  0  0  0  0
  2  1  1  0
  6  4  1  0
  7  3  1  0
  8  7  1  0
  9  8  1  0
 11  8  2  0
 13  5  1  0
 14  2  1  0
 15  2  1  0
 15  4  1  0
 16  5  1  0
 16 10  1  0
 16 12  1  0
 17  3  1  0
 17 14  1  0
 18  1  1  0
 18  4  1  0
 19  5  1  0
 19 16  1  0
 20  4  1  0
 20  5  1  0
 20  6  1  0
M  END
>  <ID>  (1) 
conformer_0

$$$$
