
     RDKit          3D

 15 16  0  0  0  0  0  0  0  0999 V2000
   24.0133   23.1890   17.4175 C   0  0  0  0  0  0  0  0  0  0  0  0
   23.9055   22.1856   18.3340 C   0  0  0  0  0  0  0  0  0  0  0  0
   22.9825   23.9897   19.4713 C   0  0  0  0  0  0  0  0  0  0  0  0
   23.5942   20.2987   20.6531 C   0  0  0  0  0  0  0  0  0  0  0  0
   23.7873   24.2136   18.3440 C   0  0  0  0  0  0  0  0  0  0  0  0
   23.2042   21.9302   19.6595 C   0  0  0  0  0  0  0  0  0  0  0  0
   20.1453   23.0588   21.0353 C   0  0  0  0  0  0  0  0  0  0  0  0
   19.9231   23.4288   22.3894 O   0  0  0  0  0  0  0  0  0  0  0  0
   21.7049   23.2968   20.0564 C   0  0  0  0  0  0  0  0  0  0  0  0
   21.9476   18.8809   19.7982 O   0  0  0  0  0  0  0  0  0  0  0  0
   18.9074   23.3576   20.5609 O   0  0  0  0  0  0  0  0  0  0  0  0
   23.7748   19.4382   21.0623 O   0  0  0  0  0  0  0  0  0  0  0  0
   21.9430   20.0956   20.5039 C   0  0  0  0  0  0  0  0  0  0  0  0
   22.2112   22.5472   20.9871 C   0  0  0  0  0  0  0  0  0  0  0  0
   20.5734   21.8360   19.6914 C   0  0  0  0  0  0  0  0  0  0  0  0
  2  1  1  0
  5  1  1  0
  5  3  1  0
  6  2  2  0
  6  4  1  0
  8  7  1  0
  9  3  1  0
  9  7  1  0
 11  7  1  0
 12  4  2  0
 13  4  1  0
 13 10  1  0
 14  6  1  0
 14  9  1  0
 15  7  1  0
 15  9  1  0
M  END
>  <ID>  (1) 
conformer_0

$$$$
