
     RDKit          3D

 19 19  0  0  0  0  0  0  0  0999 V2000
   21.0818   22.8071   20.6271 C   0  0  0  0  0  0  0  0  0  0  0  0
   20.6170   21.8493   19.2388 C   0  0  0  0  0  0  0  0  0  0  0  0
   23.9186   23.8452   19.2655 C   0  0  0  0  0  0  0  0  0  0  0  0
   22.4369   22.8530   17.6128 C   0  0  0  0  0  0  0  0  0  0  0  0
   23.0075   19.0064   20.3479 C   0  0  0  0  0  0  0  0  0  0  0  0
   19.7297   23.1408   20.7285 C   0  0  0  0  0  0  0  0  0  0  0  0
   23.9274   23.8234   17.2424 C   0  0  0  0  0  0  0  0  0  0  0  0
   18.6861   23.3298   20.1794 O   0  0  0  0  0  0  0  0  0  0  0  0
   19.6319   23.4404   21.9888 O   0  0  0  0  0  0  0  0  0  0  0  0
   23.4385   21.3296   18.6365 C   0  0  0  0  0  0  0  0  0  0  0  0
   22.5426   18.5399   19.8805 O   0  0  0  0  0  0  0  0  0  0  0  0
   21.9898   23.2802   18.9801 C   0  0  0  0  0  0  0  0  0  0  0  0
   23.9749   19.4953   21.2757 O   0  0  0  0  0  0  0  0  0  0  0  0
   23.8258   20.6570   21.6292 C   0  0  0  0  0  0  0  0  0  0  0  0
   22.5604   21.6658   20.1692 C   0  0  0  0  0  0  0  0  0  0  0  0
   24.5161   22.6135   17.9158 C   0  0  0  0  0  0  0  0  0  0  0  0
   22.0443   20.5948   20.4337 C   0  0  0  0  0  0  0  0  0  0  0  0
   22.7996   23.4428   21.0175 C   0  0  0  0  0  0  0  0  0  0  0  0
   24.2816   22.4918   20.0748 C   0  0  0  0  0  0  0  0  0  0  0  0
  2  1  1  0
  6  1  1  0
  7  4  1  0
  8  6  2  0
  9  6  1  0
 11  5  2  0
 12  4  1  0
 13  5  1  0
 14 13  1  0
 15  1  1  0
 15 10  1  0
 16  3  1  0
 16  7  1  0
 16 10  1  0
 17  5  1  0
 17 15  1  0
 18  1  1  0
 19  3  1  0
 19 15  1  0
M  END
>  <ID>  (1) 
conformer_0

$$$$
