
     RDKit          3D

 19 22  0  0  0  0  0  0  0  0999 V2000
   22.0583   23.1318   18.9295 C   0  0  0  0  0  0  0  0  0  0  0  0
   20.5782   21.4708   19.6968 C   0  0  0  0  0  0  0  0  0  0  0  0
   24.0032   22.2276   19.2712 C   0  0  0  0  0  0  0  0  0  0  0  0
   24.1903   22.7368   17.2834 C   0  0  0  0  0  0  0  0  0  0  0  0
   22.7324   23.4971   16.9121 C   0  0  0  0  0  0  0  0  0  0  0  0
   22.4824   19.8542   19.8583 C   0  0  0  0  0  0  0  0  0  0  0  0
   19.7117   23.3873   22.1356 O   0  0  0  0  0  0  0  0  0  0  0  0
   22.9675   22.3507   21.1910 C   0  0  0  0  0  0  0  0  0  0  0  0
   20.2343   23.2319   20.9904 C   0  0  0  0  0  0  0  0  0  0  0  0
   22.3312   18.8620   19.8144 O   0  0  0  0  0  0  0  0  0  0  0  0
   23.1490   21.5590   18.3913 C   0  0  0  0  0  0  0  0  0  0  0  0
   23.3804   20.5708   21.6576 C   0  0  0  0  0  0  0  0  0  0  0  0
   18.7787   23.2930   20.2081 O   0  0  0  0  0  0  0  0  0  0  0  0
   22.6251   24.0362   20.3648 C   0  0  0  0  0  0  0  0  0  0  0  0
   23.8322   24.1259   17.9631 C   0  0  0  0  0  0  0  0  0  0  0  0
   24.0162   19.4986   20.7763 O   0  0  0  0  0  0  0  0  0  0  0  0
   21.9692   21.3625   20.2790 C   0  0  0  0  0  0  0  0  0  0  0  0
   21.1657   23.1598   20.6482 C   0  0  0  0  0  0  0  0  0  0  0  0
   23.9974   23.7665   19.7060 C   0  0  0  0  0  0  0  0  0  0  0  0
  5  4  1  0
  9  7  1  0
 10  6  2  0
 11  3  1  0
 11  4  1  0
 12  8  1  0
 13  9  2  0
 14  1  1  0
 14  8  1  0
 15  4  1  0
 15  5  1  0
 16  6  1  0
 16 12  1  0
 17  2  1  0
 17  6  1  0
 17  8  1  0
 18  1  1  0
 18  9  1  0
 18 14  1  0
 19  3  1  0
 19 14  1  0
 19 15  1  0
M  END
>  <ID>  (1) 
conformer_0

$$$$
