
     RDKit          3D

 18 20  0  0  0  0  0  0  0  0999 V2000
   22.6691   23.5473   20.9452 C   0  0  0  0  0  0  0  0  0  0  0  0
   22.1893   21.7981   20.1516 C   0  0  0  0  0  0  0  0  0  0  0  0
   23.8869   20.8370   21.2789 C   0  0  0  0  0  0  0  0  0  0  0  0
   22.6049   22.7971   18.1077 C   0  0  0  0  0  0  0  0  0  0  0  0
   24.3617   22.6445   17.2836 C   0  0  0  0  0  0  0  0  0  0  0  0
   20.6110   21.5507   19.3621 C   0  0  0  0  0  0  0  0  0  0  0  0
   19.9183   22.9894   20.6502 C   0  0  0  0  0  0  0  0  0  0  0  0
   18.8629   23.0883   20.1708 O   0  0  0  0  0  0  0  0  0  0  0  0
   22.9998   18.6186   19.7931 O   0  0  0  0  0  0  0  0  0  0  0  0
   19.6339   23.4206   22.0548 O   0  0  0  0  0  0  0  0  0  0  0  0
   23.9290   20.1643   21.4588 O   0  0  0  0  0  0  0  0  0  0  0  0
   23.2502   24.0577   17.0588 C   0  0  0  0  0  0  0  0  0  0  0  0
   24.0333   23.6369   19.1535 C   0  0  0  0  0  0  0  0  0  0  0  0
   21.7953   20.7488   20.4335 C   0  0  0  0  0  0  0  0  0  0  0  0
   23.7157   21.6628   18.5806 C   0  0  0  0  0  0  0  0  0  0  0  0
   21.4363   23.2666   20.8864 C   0  0  0  0  0  0  0  0  0  0  0  0
   23.0522   19.1803   20.6109 C   0  0  0  0  0  0  0  0  0  0  0  0
   23.8995   22.5606   20.3542 C   0  0  0  0  0  0  0  0  0  0  0  0
  5  4  1  0
  6  2  1  0
  8  7  2  0
 10  7  1  0
 11  3  1  0
 12  4  1  0
 12  5  1  0
 13  4  1  0
 14  2  1  0
 15  4  1  0
 15  5  1  0
 16  1  1  0
 16  2  1  0
 16  7  1  0
 17  9  2  0
 17 11  1  0
 18  1  1  0
 18  2  1  0
 18  3  1  0
 18 13  1  0
M  END
>  <ID>  (1) 
conformer_0

$$$$
