
     RDKit          3D

 20 23  0  0  0  0  0  0  0  0999 V2000
   23.1687   23.1886   21.1420 C   0  0  0  0  0  0  0  0  0  0  0  0
   24.0993   23.7079   19.6594 C   0  0  0  0  0  0  0  0  0  0  0  0
   23.0627   21.4208   18.2757 C   0  0  0  0  0  0  0  0  0  0  0  0
   24.2672   24.0638   17.4634 C   0  0  0  0  0  0  0  0  0  0  0  0
   21.8026   19.1238   20.7986 C   0  0  0  0  0  0  0  0  0  0  0  0
   23.2975   23.1675   16.9590 C   0  0  0  0  0  0  0  0  0  0  0  0
   20.0256   23.4581   20.7394 C   0  0  0  0  0  0  0  0  0  0  0  0
   18.8277   23.2983   20.1088 O   0  0  0  0  0  0  0  0  0  0  0  0
   19.7421   23.9254   21.7618 O   0  0  0  0  0  0  0  0  0  0  0  0
   24.1922   20.1322   21.1552 O   0  0  0  0  0  0  0  0  0  0  0  0
   24.5267   22.4915   18.2744 C   0  0  0  0  0  0  0  0  0  0  0  0
   20.8665   19.4527   20.6128 O   0  0  0  0  0  0  0  0  0  0  0  0
   23.5342   20.3856   22.1107 C   0  0  0  0  0  0  0  0  0  0  0  0
   21.6996   23.8119   20.6268 C   0  0  0  0  0  0  0  0  0  0  0  0
   21.1095   22.3206   20.4043 C   0  0  0  0  0  0  0  0  0  0  0  0
   21.1772   21.6480   19.0605 C   0  0  0  0  0  0  0  0  0  0  0  0
   22.8341   18.5396   20.4069 O   0  0  0  0  0  0  0  0  0  0  0  0
   22.4693   20.7835   20.4620 C   0  0  0  0  0  0  0  0  0  0  0  0
   22.5414   23.2582   18.7649 C   0  0  0  0  0  0  0  0  0  0  0  0
   23.2819   21.9452   20.0231 C   0  0  0  0  0  0  0  0  0  0  0  0
  2  1  1  0
  6  4  1  0
  8  7  1  0
  9  7  1  0
 11  2  1  0
 11  3  1  0
 11  4  1  0
 12  5  1  0
 13 10  1  0
 14  1  1  0
 14  7  1  0
 15  7  1  0
 15 14  1  0
 16 15  1  0
 17  5  1  0
 18  5  1  0
 18 13  1  0
 19  2  1  0
 19  6  1  0
 20  1  1  0
 20  3  1  0
 20 18  1  0
 20 19  1  0
M  END
>  <ID>  (1) 
conformer_0

$$$$
