
     RDKit          3D

 19 20  0  0  0  0  0  0  0  0999 V2000
   24.6482   22.2905   17.6921 C   0  0  0  0  0  0  0  0  0  0  0  0
   23.2739   21.2568   18.7387 C   0  0  0  0  0  0  0  0  0  0  0  0
   24.7544   23.8034   17.4160 C   0  0  0  0  0  0  0  0  0  0  0  0
   21.5830   20.1938   20.4400 C   0  0  0  0  0  0  0  0  0  0  0  0
   23.7019   23.6642   19.2150 C   0  0  0  0  0  0  0  0  0  0  0  0
   22.3506   21.8435   20.5809 C   0  0  0  0  0  0  0  0  0  0  0  0
   20.4973   21.4905   19.6637 C   0  0  0  0  0  0  0  0  0  0  0  0
   18.9501   23.1259   20.0074 O   0  0  0  0  0  0  0  0  0  0  0  0
   22.1862   18.6557   19.7611 O   0  0  0  0  0  0  0  0  0  0  0  0
   19.4609   23.6150   21.8959 O   0  0  0  0  0  0  0  0  0  0  0  0
   19.8756   23.1357   20.5768 C   0  0  0  0  0  0  0  0  0  0  0  0
   22.5664   23.6819   20.8672 C   0  0  0  0  0  0  0  0  0  0  0  0
   21.1075   23.6544   20.9440 C   0  0  0  0  0  0  0  0  0  0  0  0
   23.2456   20.0345   22.1892 C   0  0  0  0  0  0  0  0  0  0  0  0
   23.9516   19.0215   20.4920 O   0  0  0  0  0  0  0  0  0  0  0  0
   21.8670   22.6385   19.2143 C   0  0  0  0  0  0  0  0  0  0  0  0
   23.1717   23.2043   17.2472 C   0  0  0  0  0  0  0  0  0  0  0  0
   24.1397   22.3117   19.6118 C   0  0  0  0  0  0  0  0  0  0  0  0
   23.4693   20.0603   20.3401 C   0  0  0  0  0  0  0  0  0  0  0  0
  3  1  1  0
  6  4  1  0
  7  4  1  0
  9  4  1  0
 11  8  1  0
 11 10  1  0
 12  5  1  0
 12  6  1  0
 13 11  1  0
 13 12  1  0
 16  6  1  0
 16  7  1  0
 17  1  1  0
 17  3  1  0
 18  1  1  0
 18  2  1  0
 18  5  1  0
 19  4  1  0
 19 14  1  0
 19 15  1  0
M  END
>  <ID>  (1) 
conformer_0

$$$$
