
     RDKit          3D

 18 18  0  0  0  0  0  0  0  0999 V2000
   21.1027   23.1517   20.6910 C   0  0  0  0  0  0  0  0  0  0  0  0
   20.7235   21.3943   19.6719 C   0  0  0  0  0  0  0  0  0  0  0  0
   22.5615   23.7052   20.5424 C   0  0  0  0  0  0  0  0  0  0  0  0
   23.8445   20.0186   21.8000 C   0  0  0  0  0  0  0  0  0  0  0  0
   24.0897   22.9084   19.8055 C   0  0  0  0  0  0  0  0  0  0  0  0
   23.7812   21.7513   18.6145 C   0  0  0  0  0  0  0  0  0  0  0  0
   19.7311   23.3760   20.8401 C   0  0  0  0  0  0  0  0  0  0  0  0
   19.6115   23.4050   22.0921 O   0  0  0  0  0  0  0  0  0  0  0  0
   18.8048   23.5374   20.3436 O   0  0  0  0  0  0  0  0  0  0  0  0
   22.8890   18.7399   19.6848 O   0  0  0  0  0  0  0  0  0  0  0  0
   23.4861   23.2347   17.1359 C   0  0  0  0  0  0  0  0  0  0  0  0
   24.7697   22.5054   17.4886 C   0  0  0  0  0  0  0  0  0  0  0  0
   24.0993   20.3101   21.2350 O   0  0  0  0  0  0  0  0  0  0  0  0
   22.4078   19.3344   20.3508 C   0  0  0  0  0  0  0  0  0  0  0  0
   22.2213   21.7677   20.3556 C   0  0  0  0  0  0  0  0  0  0  0  0
   23.6671   23.9718   18.7672 C   0  0  0  0  0  0  0  0  0  0  0  0
   22.0255   23.0226   18.6964 C   0  0  0  0  0  0  0  0  0  0  0  0
   22.7844   21.0290   20.5945 C   0  0  0  0  0  0  0  0  0  0  0  0
  3  1  1  0
  5  3  1  0
  6  5  1  0
  7  1  1  0
  8  7  1  0
  9  7  2  0
 12  6  1  0
 12 11  1  0
 13  4  1  0
 14 10  2  0
 15  1  1  0
 15  2  1  0
 16  5  1  0
 16 11  1  0
 17 16  1  0
 18 13  1  0
 18 14  1  0
 18 15  1  0
M  END
>  <ID>  (1) 
conformer_0

$$$$
