
     RDKit          3D

 18 21  0  0  0  0  0  0  0  0999 V2000
   23.7238   21.7126   18.5429 C   0  0  0  0  0  0  0  0  0  0  0  0
   22.6320   23.0819   18.6881 C   0  0  2  0  0  0  0  0  0  0  0  0
   23.6756   23.6422   19.9324 C   0  0  1  0  0  0  0  0  0  0  0  0
   22.0161   20.4031   20.0553 C   0  0  0  0  0  3  0  0  0  0  0  0
   21.1971   21.2397   19.7451 C   0  0  0  0  0  0  0  0  0  0  0  0
   21.8822   23.6725   21.1668 C   0  0  0  0  0  0  0  0  0  0  0  0
   19.4471   23.4972   22.1682 O   0  0  0  0  0  0  0  0  0  0  0  0
   18.8138   23.2557   20.1764 O   0  0  0  0  0  0  0  0  0  0  0  0
   19.7008   23.3242   20.9303 C   0  0  0  0  0  0  0  0  0  0  0  0
   22.6628   18.3644   19.7796 O   0  0  0  0  0  0  0  0  0  0  0  0
   22.9288   22.1806   20.3580 C   0  0  1  0  0  0  0  0  0  0  0  0
   21.0655   22.7784   20.5593 C   0  0  2  0  0  0  0  0  0  0  0  0
   23.5717   20.7312   21.6975 C   0  0  0  0  0  0  0  0  0  0  0  0
   23.9140   19.6147   20.7224 O   0  0  0  0  0  0  0  0  0  0  0  0
   24.5422   23.6630   18.2814 C   0  0  1  0  0  0  0  0  0  0  0  0
   24.7101   22.3261   17.3036 C   0  0  2  0  0  0  0  0  0  0  0  0
   23.4197   23.4690   17.0434 C   0  0  1  0  0  0  0  0  0  0  0  0
   23.2926   19.1125   20.4302 C   0  0  0  0  0  0  0  0  0  0  0  0
  2  1  1  1
  3  2  1  0
  5  4  2  3
  9  7  1  0
  9  8  2  0
 11  2  1  0
  3 11  1  1
 12  5  1  0
 12  6  1  1
 12  9  1  0
 11 12  1  1
 14 13  1  0
 15  3  1  0
 16  1  1  1
 15 16  1  1
 17  2  1  0
 17 15  1  0
 17 16  1  6
 18  4  1  0
 18 10  2  0
 18 14  1  0
M  RAD  1   4   2
M  END
>  <ID>  (1) 
conformer_0

$$$$
