
     RDKit          3D

 16 20  0  0  0  0  0  0  0  0999 V2000
   22.8104   23.8824   19.7533 C   0  0  0  0  0  0  0  0  0  0  0  0
   21.1620   22.2227   19.6737 C   0  0  0  0  0  0  0  0  0  0  0  0
   24.0466   23.6994   19.5141 C   0  0  0  0  0  0  0  0  0  0  0  0
   21.5509   19.7793   20.5044 C   0  0  0  0  0  0  0  0  0  0  0  0
   23.9080   23.3349   17.6693 C   0  0  0  0  0  0  0  0  0  0  0  0
   24.4378   22.1324   17.0594 C   0  0  0  0  0  0  0  0  0  0  0  0
   20.0430   22.8560   20.6080 C   0  0  0  0  0  0  0  0  0  0  0  0
   19.7620   23.2401   22.2218 O   0  0  0  0  0  0  0  0  0  0  0  0
   19.0174   23.4248   20.3608 O   0  0  0  0  0  0  0  0  0  0  0  0
   22.3512   18.4773   20.0768 O   0  0  0  0  0  0  0  0  0  0  0  0
   23.7300   22.0169   18.7250 C   0  0  0  0  0  0  0  0  0  0  0  0
   23.4288   21.2358   20.7602 C   0  0  0  0  0  0  0  0  0  0  0  0
   23.9813   19.5548   20.3060 O   0  0  0  0  0  0  0  0  0  0  0  0
   22.6289   21.9725   20.2857 C   0  0  0  0  0  0  0  0  0  0  0  0
   21.8820   23.3640   21.0444 C   0  0  0  0  0  0  0  0  0  0  0  0
   23.3858   19.2270   20.2288 C   0  0  0  0  0  0  0  0  0  0  0  0
  3  1  1  0
  5  3  1  0
  6  5  1  0
  7  2  1  0
  8  7  1  0
  9  7  1  0
 10  4  1  0
 11  3  1  0
 11  5  1  0
 11  6  1  0
 13 12  1  0
 14  2  1  0
 14 11  1  0
 14 12  1  0
 15  1  1  0
 15  2  1  0
 15  7  1  0
 15 14  1  0
 16 10  1  0
 16 13  1  0
M  END
>  <ID>  (1) 
conformer_0

$$$$
