
     RDKit          3D

 17 19  0  0  0  0  0  0  0  0999 V2000
   21.4224   22.3457   19.0098 C   0  0  0  0  0  0  0  0  0  0  0  0
   23.6156   21.7100   19.0817 C   0  0  0  0  0  0  0  0  0  0  0  0
   24.3230   22.7036   17.4132 C   0  0  0  0  0  0  0  0  0  0  0  0
   23.6659   23.9950   17.3620 C   0  0  0  0  0  0  0  0  0  0  0  0
   22.1308   19.9273   20.5341 C   0  0  0  0  0  0  0  0  0  0  0  0
   18.9725   22.7031   20.1228 O   0  0  0  0  0  0  0  0  0  0  0  0
   21.6098   23.1610   20.7880 C   0  0  0  0  0  0  0  0  0  0  0  0
   19.5471   22.9459   22.1050 O   0  0  0  0  0  0  0  0  0  0  0  0
   23.3373   18.7620   19.9161 O   0  0  0  0  0  0  0  0  0  0  0  0
   19.9140   22.5273   20.5161 C   0  0  0  0  0  0  0  0  0  0  0  0
   22.4683   23.2794   17.9292 C   0  0  0  0  0  0  0  0  0  0  0  0
   23.5624   21.5322   21.6027 C   0  0  0  0  0  0  0  0  0  0  0  0
   24.4272   23.0537   19.1864 C   0  0  0  0  0  0  0  0  0  0  0  0
   22.9035   22.4397   20.7580 C   0  0  0  0  0  0  0  0  0  0  0  0
   23.1400   23.9057   19.8010 C   0  0  0  0  0  0  0  0  0  0  0  0
   21.2490   21.1475   19.7497 C   0  0  0  0  0  0  0  0  0  0  0  0
   23.8477   19.3281   20.4813 C   0  0  0  0  0  0  0  0  0  0  0  0
  4  3  1  0
  7  1  1  0
 10  6  1  0
 10  7  1  0
 10  8  1  0
 11  1  1  0
 11  4  1  0
 13  2  1  0
 13  3  1  0
 14  2  1  0
 14  7  1  0
 14 12  1  0
 15  7  1  0
 15 13  1  0
 15 14  1  0
 16  1  1  0
 16  5  1  0
 17  5  1  0
 17  9  1  0
M  END
>  <ID>  (1) 
conformer_0

$$$$
