
     RDKit          3D

 19 20  0  0  0  0  0  0  0  0999 V2000
   20.7568   21.7199   19.7692 C   0  0  0  0  0  0  0  0  0  0  0  0
   22.8505   24.0764   20.5337 C   0  0  0  0  0  0  0  0  0  0  0  0
   23.8935   23.9523   18.6104 C   0  0  0  0  0  0  0  0  0  0  0  0
   23.0260   21.5207   19.3737 C   0  0  0  0  0  0  0  0  0  0  0  0
   22.1101   19.8402   20.0451 C   0  0  0  0  0  0  0  0  0  0  0  0
   24.7084   22.2674   17.7842 C   0  0  0  0  0  0  0  0  0  0  0  0
   24.0005   22.7120   16.9198 C   0  0  0  0  0  0  0  0  0  0  0  0
   20.2340   23.4685   21.0801 C   0  0  0  0  0  0  0  0  0  0  0  0
   19.8430   23.5931   22.2688 O   0  0  0  0  0  0  0  0  0  0  0  0
   22.7218   18.6542   19.5537 O   0  0  0  0  0  0  0  0  0  0  0  0
   18.9532   23.4738   20.3477 O   0  0  0  0  0  0  0  0  0  0  0  0
   22.2360   19.8407   22.1118 O   0  0  0  0  0  0  0  0  0  0  0  0
   22.4542   22.7372   17.9512 C   0  0  0  0  0  0  0  0  0  0  0  0
   23.4161   20.1121   21.2384 C   0  0  0  0  0  0  0  0  0  0  0  0
   24.1578   19.4555   20.7302 O   0  0  0  0  0  0  0  0  0  0  0  0
   22.6215   21.9342   20.9111 C   0  0  0  0  0  0  0  0  0  0  0  0
   21.5098   23.3663   21.2260 C   0  0  0  0  0  0  0  0  0  0  0  0
   24.0138   23.1522   19.7604 C   0  0  0  0  0  0  0  0  0  0  0  0
   21.5343   23.0551   19.4606 C   0  0  0  0  0  0  0  0  0  0  0  0
  7  6  1  0
  9  8  1  0
 10  5  1  0
 11  8  2  0
 13  4  1  0
 13  7  1  0
 14  5  1  0
 14 12  1  0
 15 14  1  0
 16  4  1  0
 16 14  1  0
 17  2  1  0
 17  8  1  0
 17 16  1  0
 18  2  1  0
 18  3  1  0
 18  4  1  0
 19  1  1  0
 19 13  1  0
 19 17  1  0
M  END
>  <ID>  (1) 
conformer_0

$$$$
