
     RDKit          3D

 20 22  0  0  0  0  0  0  0  0999 V2000
   21.9169   23.8617   20.9581 C   0  0  0  0  0  0  0  0  0  0  0  0
   20.8473   22.0829   19.5010 C   0  0  0  0  0  0  0  0  0  0  0  0
   23.7903   24.0263   19.6676 C   0  0  0  0  0  0  0  0  0  0  0  0
   22.8769   20.7441   20.0765 C   0  0  0  0  0  0  0  0  0  0  0  0
   23.0693   21.4718   19.2524 C   0  0  0  0  0  0  0  0  0  0  0  0
   24.4214   22.7061   19.0900 C   0  0  0  0  0  0  0  0  0  0  0  0
   19.8062   23.4238   20.9093 C   0  0  0  0  0  0  0  0  0  0  0  0
   18.7724   23.6053   20.3327 O   0  0  0  0  0  0  0  0  0  0  0  0
   19.6883   23.4134   22.2612 O   0  0  0  0  0  0  0  0  0  0  0  0
   21.1038   19.5468   20.1091 O   0  0  0  0  0  0  0  0  0  0  0  0
   24.5008   21.5669   17.7677 C   0  0  0  0  0  0  0  0  0  0  0  0
   24.7339   22.8781   17.1764 C   0  0  0  0  0  0  0  0  0  0  0  0
   22.3109   19.3070   20.4156 C   0  0  0  0  0  0  0  0  0  0  0  0
   24.4491   19.8705   20.7552 O   0  0  0  0  0  0  0  0  0  0  0  0
   22.8979   22.8802   17.5075 C   0  0  0  0  0  0  0  0  0  0  0  0
   21.1455   22.3791   20.8694 C   0  0  0  0  0  0  0  0  0  0  0  0
   22.9459   22.4250   21.2667 C   0  0  0  0  0  0  0  0  0  0  0  0
   22.8331   18.6733   19.6373 O   0  0  0  0  0  0  0  0  0  0  0  0
   23.5212   20.7513   22.0723 C   0  0  0  0  0  0  0  0  0  0  0  0
   22.4421   23.3619   19.2602 C   0  0  0  0  0  0  0  0  0  0  0  0
  5  4  1  0
  6  3  1  0
  6  5  1  0
  8  7  2  0
  9  7  1  0
 11  6  1  0
 12  6  1  0
 12 11  1  0
 13  4  1  0
 13 10  1  0
 15 12  1  0
 16  1  1  0
 16  2  1  0
 16  7  1  0
 17  1  1  0
 17 16  1  0
 18 13  1  0
 19 14  1  0
 19 17  1  0
 20  1  1  0
 20  3  1  0
 20 15  1  0
M  END
>  <ID>  (1) 
conformer_0

$$$$
