
     RDKit          3D

 18 19  0  0  0  0  0  0  0  0999 V2000
   24.5712   22.0515   17.5733 C   0  0  0  0  0  0  0  0  0  0  0  0
   23.7855   23.1589   17.1572 C   0  0  0  0  0  0  0  0  0  0  0  0
   22.7525   23.4663   17.4657 C   0  0  0  0  0  0  0  0  0  0  0  0
   23.7506   21.8003   18.9094 C   0  0  0  0  0  0  0  0  0  0  0  0
   21.4696   20.6097   19.9883 C   0  0  0  0  0  0  0  0  0  0  0  0
   23.3001   22.4750   20.8244 C   0  0  0  0  0  0  0  0  0  0  0  0
   19.8257   23.1520   20.7917 C   0  0  0  0  0  0  0  0  0  0  0  0
   19.6287   23.5622   22.2004 O   0  0  0  0  0  0  0  0  0  0  0  0
   18.7045   23.4906   20.2893 O   0  0  0  0  0  0  0  0  0  0  0  0
   23.5632   18.4125   20.4728 O   0  0  0  0  0  0  0  0  0  0  0  0
   21.7729   23.1778   20.9326 C   0  0  2  0  0  0  0  0  0  0  0  0
   24.6601   20.4113   21.0607 O   0  0  0  0  0  0  0  0  0  0  0  0
   24.0950   20.3752   21.5221 C   0  0  0  0  0  0  0  0  0  0  0  0
   21.8651   22.5688   19.4471 C   0  0  2  0  0  0  0  0  0  0  0  0
   20.5270   21.8154   19.8153 C   0  0  1  0  0  0  0  0  0  0  0  0
   22.8183   19.4285   20.4956 C   0  0  0  0  0  0  0  0  0  0  0  0
   23.5629   23.3157   19.5003 C   0  0  2  0  0  0  0  0  0  0  0  0
   21.6974   18.7114   19.9878 O   0  0  0  0  0  0  0  0  0  0  0  0
  2  1  1  0
  3  2  2  3
  4  1  1  0
  8  7  1  0
  9  7  1  0
 11  6  1  1
 11  7  1  0
 13 12  1  0
 14 11  1  0
 15  5  1  1
 15  7  1  0
 14 15  1  1
 16  5  1  0
 16 10  1  0
 16 13  1  0
 17  4  1  6
 17  6  1  0
 17 14  1  0
 18 16  1  0
M  END
>  <ID>  (1) 
conformer_0

$$$$
