
     RDKit          3D

 18 19  0  0  0  0  0  0  0  0999 V2000
   21.0811   21.2035   20.1493 C   0  0  0  0  0  0  0  0  0  0  0  0
   22.3995   22.6035   21.1712 C   0  0  1  0  0  0  0  0  0  0  0  0
   23.2379   23.6053   19.9411 C   0  0  2  0  0  0  0  0  0  0  0  0
   24.4000   21.9641   17.6750 C   0  0  0  0  0  0  0  0  0  0  0  0
   23.8622   19.3688   20.6611 C   0  0  0  0  0  0  0  0  0  0  0  0
   23.9848   23.2429   17.5155 C   0  0  0  0  0  0  0  0  0  0  0  0
   19.7611   23.0129   20.5897 C   0  0  0  0  0  0  0  0  0  0  0  0
   23.0174   18.4872   19.8743 O   0  0  0  0  0  0  0  0  0  0  0  0
   18.6880   23.3594   20.3330 O   0  0  0  0  0  0  0  0  0  0  0  0
   19.7412   23.6786   21.8260 O   0  0  0  0  0  0  0  0  0  0  0  0
   21.1845   23.1091   20.3350 C   0  0  2  0  0  0  0  0  0  0  0  0
   21.9904   23.2314   18.6334 C   0  0  1  0  0  0  0  0  0  0  0  0
   22.9976   21.5605   19.4167 C   0  0  0  0  0  0  0  0  0  0  0  0
   21.6454   20.2595   20.5824 C   0  0  0  0  0  0  0  0  0  0  0  0
   23.9029   19.6477   21.0650 O   0  0  0  0  0  0  0  0  0  0  0  0
   22.6871   23.5542   17.2029 C   0  0  0  0  0  0  0  0  0  0  0  0
   24.3467   22.7218   19.3310 C   0  0  2  0  0  0  0  0  0  0  0  0
   23.3559   21.1131   21.5735 C   0  0  0  0  0  0  0  0  0  0  0  0
  3  2  1  0
  6  4  1  0
  8  5  1  0
  9  7  1  0
 10  7  1  0
 11  1  1  0
 11  2  1  0
 11  7  1  1
 12  3  1  0
 12 11  1  0
 14  1  2  3
 15  5  1  0
 16  6  1  0
 12 16  1  6
  3 17  1  6
 17  4  1  0
 17 13  1  1
  2 18  1  6
 18 15  1  0
M  END
>  <ID>  (1) 
conformer_0

$$$$
