
     RDKit          3D

 19 22  0  0  0  0  0  0  0  0999 V2000
   23.0607   23.6943   17.6226 C   0  0  0  0  0  0  0  0  0  0  0  0
   24.2683   23.1113   17.2857 C   0  0  0  0  0  0  0  0  0  0  0  0
   23.8898   23.0081   19.3969 C   0  0  0  0  0  0  0  0  0  0  0  0
   23.2634   19.4335   20.6392 C   0  0  0  0  0  0  0  0  0  0  0  0
   24.1073   21.7452   17.9554 C   0  0  0  0  0  0  0  0  0  0  0  0
   22.9905   21.5044   19.3810 C   0  0  0  0  0  0  0  0  0  0  0  0
   20.0461   23.2124   20.8526 C   0  0  0  0  0  0  0  0  0  0  0  0
   19.8093   23.3391   22.2274 O   0  0  0  0  0  0  0  0  0  0  0  0
   18.9048   23.2995   20.1860 O   0  0  0  0  0  0  0  0  0  0  0  0
   23.4708   18.6374   19.8140 O   0  0  0  0  0  0  0  0  0  0  0  0
   20.7730   21.5642   20.0505 C   0  0  0  0  0  0  0  0  0  0  0  0
   24.4333   20.2524   21.3397 O   0  0  0  0  0  0  0  0  0  0  0  0
   23.6584   20.7941   21.5916 C   0  0  0  0  0  0  0  0  0  0  0  0
   23.0694   24.1857   19.3435 C   0  0  0  0  0  0  0  0  0  0  0  0
   22.6756   22.0344   21.2416 C   0  0  0  0  0  0  0  0  0  0  0  0
   21.9900   23.4857   21.0877 C   0  0  0  0  0  0  0  0  0  0  0  0
   21.6190   19.2611   19.6720 O   0  0  0  0  0  0  0  0  0  0  0  0
   21.7974   20.3594   20.0703 C   0  0  0  0  0  0  0  0  0  0  0  0
   21.4702   23.1001   19.7991 C   0  0  0  0  0  0  0  0  0  0  0  0
  2  1  1  0
  5  2  1  0
  5  3  1  0
  6  3  1  0
  6  5  1  0
  8  7  1  0
  9  7  2  0
 10  4  2  0
 12  4  1  0
 13 12  1  0
 14  1  1  0
 14  3  1  0
 15  6  1  0
 15 13  1  0
 16 15  1  0
 18  4  1  0
 18  6  1  0
 18 11  1  0
 18 17  1  0
 19  7  1  0
 19 11  1  0
 19 16  1  0
M  END
>  <ID>  (1) 
conformer_0

$$$$
