
     RDKit          3D

 20 21  0  0  0  0  0  0  0  0999 V2000
   20.5583   21.7078   19.5697 C   0  0  0  0  0  0  0  0  0  0  0  0
   21.4125   23.7392   20.8115 C   0  0  0  0  0  0  0  0  0  0  0  0
   23.0075   24.2885   20.1835 C   0  0  0  0  0  0  0  0  0  0  0  0
   23.5776   19.4071   20.3987 C   0  0  0  0  0  0  0  0  0  0  0  0
   23.9018   23.8413   18.2459 C   0  0  0  0  0  0  0  0  0  0  0  0
   23.0852   22.7153   16.9865 C   0  0  0  0  0  0  0  0  0  0  0  0
   19.9466   23.2550   20.7863 C   0  0  0  0  0  0  0  0  0  0  0  0
   19.7591   23.4749   22.0909 O   0  0  0  0  0  0  0  0  0  0  0  0
   23.1975   18.6242   20.0384 O   0  0  0  0  0  0  0  0  0  0  0  0
   18.8308   23.5385   20.4290 O   0  0  0  0  0  0  0  0  0  0  0  0
   21.8051   21.7448   20.4533 C   0  0  0  0  0  0  0  0  0  0  0  0
   24.4443   20.1045   21.0971 O   0  0  0  0  0  0  0  0  0  0  0  0
   23.1090   22.7818   20.5199 C   0  0  0  0  0  0  0  0  0  0  0  0
   21.8546   20.3396   20.3415 C   0  0  0  0  0  0  0  0  0  0  0  0
   22.0796   23.1377   18.8153 C   0  0  0  0  0  0  0  0  0  0  0  0
   24.3971   22.1784   17.3189 C   0  0  0  0  0  0  0  0  0  0  0  0
   23.3469   21.6228   18.8556 C   0  0  0  0  0  0  0  0  0  0  0  0
   21.4736   19.1824   20.2106 O   0  0  0  0  0  0  0  0  0  0  0  0
   23.5602   20.4473   21.9033 C   0  0  0  0  0  0  0  0  0  0  0  0
   24.4270   23.0550   19.3254 C   0  0  0  0  0  0  0  0  0  0  0  0
  3  2  1  0
  6  5  1  0
  7  2  1  0
  8  7  1  0
  9  4  2  0
 10  7  1  0
 11  1  1  0
 12  4  1  0
 13  2  1  0
 13  3  1  0
 13 11  1  0
 14  4  1  0
 14 11  1  0
 16  6  1  0
 17 15  1  0
 17 16  1  0
 18 14  2  0
 19 12  1  0
 20  5  1  0
 20 13  1  0
 20 17  1  0
M  END
>  <ID>  (1) 
conformer_0

$$$$
