
     RDKit          3D

 17 21  0  0  0  0  0  0  0  0999 V2000
   22.1994   21.5713   20.5081 C   0  0  0  0  0  0  0  0  0  0  0  0
   20.7133   21.7930   19.8923 C   0  0  0  0  0  0  0  0  0  0  0  0
   23.0565   23.2361   17.4277 C   0  0  0  0  0  0  0  0  0  0  0  0
   23.6964   23.8341   19.0833 C   0  0  0  0  0  0  0  0  0  0  0  0
   23.6616   20.5144   20.5397 C   0  0  0  0  0  0  0  0  0  0  0  0
   20.1544   23.0560   20.6820 C   0  0  0  0  0  0  0  0  0  0  0  0
   23.4544   21.7827   19.1349 C   0  0  0  0  0  0  0  0  0  0  0  0
   22.5998   18.9557   19.5914 O   0  0  0  0  0  0  0  0  0  0  0  0
   19.6493   23.3363   22.0863 O   0  0  0  0  0  0  0  0  0  0  0  0
   22.0432   23.4685   20.9891 C   0  0  0  0  0  0  0  0  0  0  0  0
   24.2609   20.2296   20.7747 O   0  0  0  0  0  0  0  0  0  0  0  0
   21.9565   22.9857   18.8969 C   0  0  0  0  0  0  0  0  0  0  0  0
   22.0073   19.7604   20.2571 C   0  0  0  0  0  0  0  0  0  0  0  0
   19.2792   23.2963   20.1564 O   0  0  0  0  0  0  0  0  0  0  0  0
   23.3905   23.4766   20.6081 C   0  0  0  0  0  0  0  0  0  0  0  0
   24.4230   22.8862   17.4853 C   0  0  0  0  0  0  0  0  0  0  0  0
   24.5585   21.5956   18.4965 C   0  0  0  0  0  0  0  0  0  0  0  0
  2  1  1  0
  4  3  1  0
  5  1  1  0
  6  2  1  0
  7  1  1  0
  7  5  1  0
  9  6  1  0
 10  6  1  0
 11  5  1  0
 12  3  1  0
 12  4  1  0
 12  7  1  0
 13  1  1  0
 13  5  1  0
 13  8  1  0
 14  6  1  0
 15  4  1  0
 15 10  1  0
 16  3  1  0
 17  7  1  0
 17 16  1  0
M  END
>  <ID>  (1) 
conformer_0

$$$$
