
     RDKit          3D

 20 26  0  0  0  0  0  0  0  0999 V2000
   22.7394   23.3107   16.9548 C   0  0  0  0  0  0  0  0  0  0  0  0
   22.1884   23.0815   18.6023 C   0  0  0  0  0  0  0  0  0  0  0  0
   24.5023   22.9970   19.3174 C   0  0  0  0  0  0  0  0  0  0  0  0
   23.4497   19.3763   20.6360 C   0  0  0  0  0  0  0  0  0  0  0  0
   23.3650   23.9050   19.7862 C   0  0  0  0  0  0  0  0  0  0  0  0
   22.7984   23.0401   21.1085 C   0  0  0  0  0  0  0  0  0  0  0  0
   19.9446   23.0002   20.8371 C   0  0  0  0  0  0  0  0  0  0  0  0
   23.1756   18.5049   19.6707 O   0  0  0  0  0  0  0  0  0  0  0  0
   19.7128   23.3705   22.2201 O   0  0  0  0  0  0  0  0  0  0  0  0
   18.7915   23.4191   20.3643 O   0  0  0  0  0  0  0  0  0  0  0  0
   23.4559   21.6342   18.7969 C   0  0  0  0  0  0  0  0  0  0  0  0
   24.5828   20.2755   21.3851 O   0  0  0  0  0  0  0  0  0  0  0  0
   23.6265   21.0249   21.6192 C   0  0  0  0  0  0  0  0  0  0  0  0
   22.4667   21.3304   20.2486 C   0  0  0  0  0  0  0  0  0  0  0  0
   21.4007   23.3584   20.7566 C   0  0  0  0  0  0  0  0  0  0  0  0
   20.7739   21.6824   19.8590 C   0  0  0  0  0  0  0  0  0  0  0  0
   21.7258   20.2247   19.9024 C   0  0  0  0  0  0  0  0  0  0  0  0
   24.3813   22.4320   17.3062 C   0  0  0  0  0  0  0  0  0  0  0  0
   24.2251   23.9091   17.7934 C   0  0  0  0  0  0  0  0  0  0  0  0
   21.5625   19.1083   19.4948 O   0  0  0  0  0  0  0  0  0  0  0  0
  2  1  1  0
  5  2  1  0
  5  3  1  0
  6  5  1  0
  8  4  1  0
  9  7  1  0
 10  7  1  0
 11  2  1  0
 11  3  1  0
 12  4  1  0
 13 12  1  0
 14 11  1  0
 14 13  1  0
 15  6  1  0
 15  7  1  0
 16  7  1  0
 16 14  1  0
 17 14  1  0
 17 16  1  0
 18  1  1  0
 18 11  1  0
 19  1  1  0
 19  3  1  0
 19 18  1  0
 20  8  1  0
 20 17  1  0
M  END
>  <ID>  (1) 
conformer_0

$$$$
