
     RDKit          3D

 16 17  0  0  0  0  0  0  0  0999 V2000
   21.1028   21.5956   19.6777 C   0  0  0  0  0  0  0  0  0  0  0  0
   23.2289   21.8776   19.7481 C   0  0  0  0  0  0  0  0  0  0  0  0
   24.4534   22.0215   18.4333 C   0  0  0  0  0  0  0  0  0  0  0  0
   23.1448   23.7706   17.2050 C   0  0  0  0  0  0  0  0  0  0  0  0
   23.4419   20.5785   20.7592 C   0  0  0  0  0  0  0  0  0  0  0  0
   22.4895   22.9161   18.4603 C   0  0  0  0  0  0  0  0  0  0  0  0
   18.9052   23.4281   20.2673 O   0  0  0  0  0  0  0  0  0  0  0  0
   19.9807   23.2710   20.7725 C   0  0  0  0  0  0  0  0  0  0  0  0
   23.9836   19.0185   20.1070 O   0  0  0  0  0  0  0  0  0  0  0  0
   19.6811   23.3251   22.0351 O   0  0  0  0  0  0  0  0  0  0  0  0
   24.3851   23.4664   18.0489 C   0  0  0  0  0  0  0  0  0  0  0  0
   21.5262   19.7871   20.5090 C   0  0  0  0  0  0  0  0  0  0  0  0
   23.5070   23.7043   19.8406 C   0  0  0  0  0  0  0  0  0  0  0  0
   21.7081   22.6556   20.7759 C   0  0  0  0  0  0  0  0  0  0  0  0
   21.9176   23.7721   20.8825 C   0  0  0  0  0  0  0  0  0  0  0  0
   22.0805   18.5910   19.8106 O   0  0  0  0  0  0  0  0  0  0  0  0
  3  2  1  0
  5  2  1  0
  6  2  1  0
  6  4  1  0
  8  7  2  0
  9  5  1  0
 10  8  1  0
 11  3  1  0
 11  4  1  0
 12  1  1  0
 13  2  1  0
 13  6  1  0
 14  1  1  0
 14  8  1  0
 15 13  1  0
 15 14  1  0
 16 12  1  0
M  END
>  <ID>  (1) 
conformer_0

$$$$
