
     RDKit          3D

 17 18  0  0  0  0  0  0  0  0999 V2000
   21.5558   23.4602   20.8597 C   0  0  0  0  0  0  0  0  0  0  0  0
   21.0602   21.9277   19.7936 C   0  0  0  0  0  0  0  0  0  0  0  0
   22.4901   22.7017   20.8716 C   0  0  0  0  0  0  0  0  0  0  0  0
   23.5209   20.1753   20.9645 C   0  0  0  0  0  0  0  0  0  0  0  0
   23.4061   23.4782   17.2079 C   0  0  0  0  0  0  0  0  0  0  0  0
   24.3998   22.3415   17.2790 C   0  0  0  0  0  0  0  0  0  0  0  0
   20.0206   23.3904   20.9979 C   0  0  0  0  0  0  0  0  0  0  0  0
   19.7263   23.4211   22.2490 O   0  0  0  0  0  0  0  0  0  0  0  0
   18.8465   23.4609   20.3260 O   0  0  0  0  0  0  0  0  0  0  0  0
   20.9524   19.5575   20.4461 O   0  0  0  0  0  0  0  0  0  0  0  0
   24.3293   19.8736   21.1865 O   0  0  0  0  0  0  0  0  0  0  0  0
   23.2827   21.6036   19.1014 C   0  0  0  0  0  0  0  0  0  0  0  0
   22.0165   22.8246   18.5491 C   0  0  0  0  0  0  0  0  0  0  0  0
   22.0936   20.1195   20.4349 C   0  0  0  0  0  0  0  0  0  0  0  0
   24.0621   23.3259   18.5735 C   0  0  0  0  0  0  0  0  0  0  0  0
   23.5922   23.4214   20.1438 C   0  0  0  0  0  0  0  0  0  0  0  0
   23.0797   18.9431   19.8241 O   0  0  0  0  0  0  0  0  0  0  0  0
  2  1  1  0
  3  1  1  0
  6  5  1  0
  7  1  1  0
  8  7  1  0
  9  7  2  0
 11  4  1  0
 13  2  1  0
 13 12  1  0
 14  4  1  0
 14 10  1  0
 15  4  1  0
 15  5  1  0
 15  6  1  0
 16  3  1  0
 16 15  1  0
 17  4  1  0
 17 14  1  0
M  END
>  <ID>  (1) 
conformer_0

$$$$
