
     RDKit          3D

 19 18  0  0  0  0  0  0  0  0999 V2000
   23.3914   23.9052   19.8497 C   0  0  0  0  0  0  0  0  0  0  0  0
   22.8123   22.9389   21.0801 C   0  0  0  0  0  0  0  0  0  0  0  0
   23.1608   23.7068   17.4352 C   0  0  0  0  0  0  0  0  0  0  0  0
   22.6372   21.6056   20.2382 C   0  0  0  0  0  0  0  0  0  0  0  0
   21.4658   19.7145   20.1540 C   0  0  0  0  0  0  0  0  0  0  0  0
   22.2403   22.9124   18.5706 C   0  0  0  0  0  0  0  0  0  0  0  0
   19.8492   23.4915   22.2631 O   0  0  0  0  0  0  0  0  0  0  0  0
   19.9700   23.4072   20.9675 C   0  0  0  0  0  0  0  0  0  0  0  0
   18.8119   23.7130   20.3440 O   0  0  0  0  0  0  0  0  0  0  0  0
   23.4350   18.7822   19.7703 O   0  0  0  0  0  0  0  0  0  0  0  0
   21.2387   22.9761   20.5636 C   0  0  0  0  0  0  0  0  0  0  0  0
   21.1300   19.4199   20.0068 O   0  0  0  0  0  0  0  0  0  0  0  0
   20.6148   21.9201   19.7474 C   0  0  0  0  0  0  0  0  0  0  0  0
   24.5314   20.8943   21.0971 O   0  0  0  0  0  0  0  0  0  0  0  0
   23.0163   18.8535   20.2897 C   0  0  0  0  0  0  0  0  0  0  0  0
   24.4011   23.2136   19.4960 C   0  0  0  0  0  0  0  0  0  0  0  0
   24.1780   21.6702   18.7344 C   0  0  0  0  0  0  0  0  0  0  0  0
   24.1935   22.5512   17.5893 C   0  0  0  0  0  0  0  0  0  0  0  0
   23.6092   21.1059   20.6898 C   0  0  0  0  0  0  0  0  0  0  0  0
  2  1  1  0
  4  2  1  0
  6  3  1  0
  8  7  1  0
  9  8  2  0
 11  2  1  0
 11  8  1  0
 12  5  2  0
 13  5  1  0
 13 11  1  0
 15  5  1  0
 15 10  2  0
 16  1  1  0
 17 16  1  0
 18  3  1  0
 18 17  1  0
 19  4  1  0
 19 14  1  0
M  END
>  <ID>  (1) 
conformer_0

$$$$
