
     RDKit          3D

 20 22  0  0  0  0  0  0  0  0999 V2000
   24.2259   21.5161   18.7805 C   0  0  0  0  0  0  0  0  0  0  0  0
   23.1985   24.0244   19.3166 C   0  0  0  0  0  0  0  0  0  0  0  0
   24.1033   22.7864   17.1514 C   0  0  0  0  0  0  0  0  0  0  0  0
   23.5491   20.9707   21.4637 C   0  0  0  0  0  0  0  0  0  0  0  0
   23.1268   23.7950   17.1740 C   0  0  0  0  0  0  0  0  0  0  0  0
   22.3823   22.5054   18.2880 C   0  0  0  0  0  0  0  0  0  0  0  0
   19.6491   23.1948   22.4553 O   0  0  0  0  0  0  0  0  0  0  0  0
   19.6784   23.3752   21.0266 C   0  0  0  0  0  0  0  0  0  0  0  0
   18.7728   23.7531   20.6126 O   0  0  0  0  0  0  0  0  0  0  0  0
   24.4374   19.7282   20.6896 O   0  0  0  0  0  0  0  0  0  0  0  0
   24.3787   23.2828   19.0195 C   0  0  0  0  0  0  0  0  0  0  0  0
   22.3854   19.4428   20.5797 C   0  0  0  0  0  0  0  0  0  0  0  0
   23.4177   22.5016   20.5858 C   0  0  0  0  0  0  0  0  0  0  0  0
   21.0760   19.8940   19.8563 O   0  0  0  0  0  0  0  0  0  0  0  0
   20.5821   21.0237   19.5740 C   0  0  0  0  0  0  0  0  0  0  0  0
   22.3061   21.2195   20.1316 C   0  0  0  0  0  0  0  0  0  0  0  0
   22.1418   23.6825   20.5102 C   0  0  0  0  0  0  0  0  0  0  0  0
   21.1601   22.9680   20.9580 C   0  0  0  0  0  0  0  0  0  0  0  0
   20.5370   22.1006   19.6573 C   0  0  0  0  0  0  0  0  0  0  0  0
   24.3200   19.5117   20.0424 C   0  0  0  0  0  0  0  0  0  0  0  0
  5  3  1  0
  6  5  1  0
  8  7  1  0
  9  8  2  0
 10  4  1  0
 11  1  1  0
 11  2  1  0
 11  3  1  0
 13  4  1  0
 14 12  1  0
 15 14  1  0
 16  4  1  0
 16 12  1  0
 16 13  1  0
 16 15  1  0
 17  2  1  0
 17 13  1  0
 18  8  1  0
 18 17  1  0
 19 15  1  0
 19 18  1  0
 20 10  1  0
M  END
>  <ID>  (1) 
conformer_0

$$$$
