
     RDKit          3D

 17 18  0  0  0  0  0  0  0  0999 V2000
   23.2175   23.1553   17.0483 C   0  0  0  0  0  0  0  0  0  0  0  0
   22.0304   22.7362   18.5933 C   0  0  0  0  0  0  0  0  0  0  0  0
   22.5251   23.4968   20.6739 C   0  0  0  0  0  0  0  0  0  0  0  0
   20.9516   21.5972   19.7412 C   0  0  0  0  0  0  0  0  0  0  0  0
   22.2716   20.0008   20.1666 C   0  0  0  0  0  0  0  0  0  0  0  0
   23.8811   23.3748   19.9531 C   0  0  0  0  0  0  0  0  0  0  0  0
   22.5395   18.8567   19.8273 O   0  0  0  0  0  0  0  0  0  0  0  0
   24.3096   20.9097   21.5411 O   0  0  0  0  0  0  0  0  0  0  0  0
   19.7631   22.8353   20.4960 C   0  0  0  0  0  0  0  0  0  0  0  0
   18.9568   22.8433   20.0887 O   0  0  0  0  0  0  0  0  0  0  0  0
   21.6689   22.6441   20.8661 C   0  0  0  0  0  0  0  0  0  0  0  0
   19.5530   23.3350   21.9728 O   0  0  0  0  0  0  0  0  0  0  0  0
   23.5670   20.3623   21.7346 C   0  0  0  0  0  0  0  0  0  0  0  0
   23.9397   21.5502   18.3035 C   0  0  0  0  0  0  0  0  0  0  0  0
   23.1627   21.5470   19.6273 C   0  0  0  0  0  0  0  0  0  0  0  0
   24.5527   22.7170   17.5102 C   0  0  0  0  0  0  0  0  0  0  0  0
   23.7642   23.9064   18.8054 C   0  0  0  0  0  0  0  0  0  0  0  0
  4  2  1  0
  6  3  1  0
  7  5  1  0
  9  4  1  0
 10  9  1  0
 11  3  1  0
 11  4  1  0
 11  9  1  0
 12  9  1  0
 13  5  1  0
 13  8  2  0
 15  2  1  0
 15  5  1  0
 15 14  1  0
 16  1  1  0
 16 14  1  0
 17  6  1  0
 17 16  1  0
M  END
>  <ID>  (1) 
conformer_0

$$$$
