
     RDKit          3D

 19 24  0  0  0  0  0  0  0  0999 V2000
   24.6113   22.3329   17.4247 C   0  0  0  0  0  0  0  0  0  0  0  0
   23.4037   24.0152   19.4886 C   0  0  0  0  0  0  0  0  0  0  0  0
   24.2343   23.9693   17.6290 C   0  0  0  0  0  0  0  0  0  0  0  0
   23.7435   20.7552   21.3188 C   0  0  0  0  0  0  0  0  0  0  0  0
   24.4593   22.9978   19.6477 C   0  0  0  0  0  0  0  0  0  0  0  0
   22.9738   23.0951   17.7169 C   0  0  0  0  0  0  0  0  0  0  0  0
   19.6567   23.5692   21.9159 O   0  0  0  0  0  0  0  0  0  0  0  0
   19.7450   23.2467   20.7552 C   0  0  0  0  0  0  0  0  0  0  0  0
   18.7508   23.4896   20.2024 O   0  0  0  0  0  0  0  0  0  0  0  0
   23.0729   18.5874   19.9734 O   0  0  0  0  0  0  0  0  0  0  0  0
   22.7110   21.8302   20.3889 C   0  0  0  0  0  0  0  0  0  0  0  0
   23.0486   23.4358   20.9760 C   0  0  0  0  0  0  0  0  0  0  0  0
   21.5399   20.1476   20.2620 C   0  0  0  0  0  0  0  0  0  0  0  0
   23.5522   21.6463   18.7411 C   0  0  0  0  0  0  0  0  0  0  0  0
   21.0947   19.0084   20.0749 O   0  0  0  0  0  0  0  0  0  0  0  0
   21.6924   22.4242   18.9735 C   0  0  0  0  0  0  0  0  0  0  0  0
   21.3124   22.9588   20.7574 C   0  0  0  0  0  0  0  0  0  0  0  0
   20.6175   21.5056   19.6856 C   0  0  0  0  0  0  0  0  0  0  0  0
   23.1216   19.1219   20.6333 C   0  0  0  0  0  0  0  0  0  0  0  0
  3  1  1  0
  5  2  1  0
  6  1  1  0
  6  3  1  0
  8  7  1  0
  9  8  2  0
 11  4  1  0
 12  2  1  0
 12 11  1  0
 14  1  1  0
 14  5  1  0
 14  6  1  0
 15 13  2  0
 16  6  1  0
 16 11  1  0
 17  8  1  0
 17 11  1  0
 17 12  1  0
 17 16  1  0
 18 13  1  0
 18 16  1  0
 19  4  1  0
 19 10  1  0
 19 13  1  0
M  END
>  <ID>  (1) 
conformer_0

$$$$
