
     RDKit          3D

 20 22  0  0  0  0  0  0  0  0999 V2000
   24.2542   24.0024   17.8387 C   0  0  0  0  0  0  0  0  0  0  0  0
   20.7923   21.0627   19.9086 C   0  0  0  0  0  0  0  0  0  0  0  0
   22.7790   23.3247   17.2590 C   0  0  0  0  0  0  0  0  0  0  0  0
   23.9666   23.8544   20.1692 C   0  0  0  0  0  0  0  0  0  0  0  0
   23.8683   20.2197   21.5096 C   0  0  0  0  0  0  0  0  0  0  0  0
   24.4132   22.5333   19.1006 C   0  0  0  0  0  0  0  0  0  0  0  0
   22.4567   23.5798   21.2013 C   0  0  0  0  0  0  0  0  0  0  0  0
   19.6629   23.3253   22.3538 O   0  0  0  0  0  0  0  0  0  0  0  0
   19.8890   23.2676   21.0075 C   0  0  0  0  0  0  0  0  0  0  0  0
   18.9542   23.4610   20.5093 O   0  0  0  0  0  0  0  0  0  0  0  0
   22.7643   18.7013   19.8252 O   0  0  0  0  0  0  0  0  0  0  0  0
   24.3232   20.3971   21.0223 O   0  0  0  0  0  0  0  0  0  0  0  0
   22.7472   21.8240   20.5072 C   0  0  0  0  0  0  0  0  0  0  0  0
   21.1247   23.0101   20.8817 C   0  0  0  0  0  0  0  0  0  0  0  0
   21.8372   18.9644   20.6321 C   0  0  0  0  0  0  0  0  0  0  0  0
   21.3913   22.1640   18.8687 C   0  0  0  0  0  0  0  0  0  0  0  0
   22.7809   23.6704   19.2089 C   0  0  0  0  0  0  0  0  0  0  0  0
   22.6552   20.6681   19.8766 C   0  0  0  0  0  0  0  0  0  0  0  0
   23.1953   21.5455   18.3986 C   0  0  0  0  0  0  0  0  0  0  0  0
   24.7312   22.4878   17.3574 C   0  0  0  0  0  0  0  0  0  0  0  0
  3  1  1  0
  6  1  1  0
  6  4  1  0
  7  4  1  0
  9  8  1  0
 10  9  2  0
 12  5  1  0
 13  7  1  0
 14  7  1  0
 14  9  1  0
 15  5  1  0
 15 11  1  0
 16  2  1  0
 17  4  1  0
 18  2  1  0
 18 13  1  0
 18 15  1  0
 19  6  1  0
 19 16  1  0
 19 18  1  0
 20  1  1  0
 20  6  1  0
M  END
>  <ID>  (1) 
conformer_0

$$$$
