
     RDKit          3D

 19 21  0  0  0  0  0  0  0  0999 V2000
   22.2234   22.6675   21.2558 C   0  0  0  0  0  0  0  0  0  0  0  0
   21.0346   22.8634   20.2567 C   0  0  2  0  0  0  0  0  0  0  0  0
   24.2640   22.9485   19.8201 C   0  0  0  0  0  0  0  0  0  0  0  0
   23.1343   19.3030   21.4679 C   0  0  0  0  0  0  0  0  0  0  0  0
   23.7158   21.7473   18.2688 C   0  0  0  0  0  0  0  0  0  0  0  0
   23.1750   23.3303   17.0179 C   0  0  0  0  0  0  0  0  0  0  0  0
   19.0333   23.4291   20.3437 O   0  0  0  0  0  0  0  0  0  0  0  0
   22.6759   18.1968   19.9119 O   0  0  0  0  0  0  0  0  0  0  0  0
   19.8173   23.2114   22.2066 O   0  0  0  0  0  0  0  0  0  0  0  0
   20.1264   23.2255   20.9267 C   0  0  0  0  0  0  0  0  0  0  0  0
   22.8984   21.4611   19.8186 C   0  0  0  0  0  0  0  0  0  0  0  0
   20.9669   20.9820   19.7229 C   0  0  0  0  0  0  0  0  0  0  0  0
   21.4042   19.5235   20.4803 C   0  0  0  0  0  0  0  0  0  0  0  0
   24.0764   19.6288   20.7344 O   0  0  0  0  0  0  0  0  0  0  0  0
   22.7301   24.0309   20.1807 C   0  0  2  0  0  0  0  0  0  0  0  0
   22.1274   22.9184   18.7876 C   0  0  2  0  0  0  0  0  0  0  0  0
   24.0269   24.0803   18.9719 C   0  0  2  0  0  0  0  0  0  0  0  0
   24.5451   23.0075   17.4358 C   0  0  1  0  0  0  0  0  0  0  0  0
   23.0668   20.7896   20.5883 C   0  0  0  0  0  0  0  0  0  0  0  0
  2  1  1  0
 10  2  1  0
 10  7  2  0
 10  9  1  0
 11  5  1  0
  2 12  1  6
 13  8  1  0
 13 12  1  0
 14  4  1  0
 15  1  1  1
 15  3  1  0
 16  2  1  0
 16 11  1  1
 16 15  1  0
 17  3  1  1
 17 15  1  0
 18  5  1  0
 18  6  1  6
 18 17  1  0
 19 11  2  3
 19 14  1  0
M  END
>  <ID>  (1) 
conformer_0

$$$$
