
     RDKit          3D

 17 20  0  0  0  0  0  0  0  0999 V2000
   23.3247   21.8662   19.3260 C   0  0  0  0  0  0  0  0  0  0  0  0
   22.5846   23.1172   18.1502 C   0  0  0  0  0  0  0  0  0  0  0  0
   24.4919   22.6539   18.1256 C   0  0  0  0  0  0  0  0  0  0  0  0
   24.0461   23.4771   17.4386 C   0  0  0  0  0  0  0  0  0  0  0  0
   21.7335   19.0044   20.4815 C   0  0  0  0  0  0  0  0  0  0  0  0
   19.9890   23.2257   20.7999 C   0  0  0  0  0  0  0  0  0  0  0  0
   21.9626   23.7459   20.6930 C   0  0  0  0  0  0  0  0  0  0  0  0
   19.7981   23.3551   22.1851 O   0  0  0  0  0  0  0  0  0  0  0  0
   18.8623   23.7096   20.5569 O   0  0  0  0  0  0  0  0  0  0  0  0
   24.0272   19.6934   21.4494 O   0  0  0  0  0  0  0  0  0  0  0  0
   22.7122   18.3995   19.6643 O   0  0  0  0  0  0  0  0  0  0  0  0
   23.7962   20.4524   21.2742 C   0  0  0  0  0  0  0  0  0  0  0  0
   23.5199   23.7420   19.5408 C   0  0  0  0  0  0  0  0  0  0  0  0
   22.5990   22.4944   20.8296 C   0  0  0  0  0  0  0  0  0  0  0  0
   21.2060   22.3094   19.8241 C   0  0  0  0  0  0  0  0  0  0  0  0
   20.8711   19.4644   19.9751 O   0  0  0  0  0  0  0  0  0  0  0  0
   22.2716   20.7036   19.9953 C   0  0  0  0  0  0  0  0  0  0  0  0
  2  1  1  0
  3  1  1  0
  4  2  1  0
  4  3  1  0
  8  6  1  0
  9  6  2  0
 11  5  1  0
 12  5  1  0
 12 10  1  0
 13  2  1  0
 13  7  1  0
 14  1  1  0
 14  7  1  0
 15  6  1  0
 15  7  1  0
 15 14  1  0
 16  5  1  0
 17  1  1  0
 17  5  1  0
 17 15  1  0
M  END
>  <ID>  (1) 
conformer_0

$$$$
