
     RDKit          3D

 18 21  0  0  0  0  0  0  0  0999 V2000
   22.6013   21.4540   20.6172 C   0  0  0  0  0  0  0  0  0  0  0  0
   22.1738   23.3499   21.1679 C   0  0  0  0  0  0  0  0  0  0  0  0
   24.6219   22.8051   17.1260 C   0  0  0  0  0  0  0  0  0  0  0  0
   24.4187   23.9019   17.9860 C   0  0  0  0  0  0  0  0  0  0  0  0
   23.5838   20.1742   20.8168 C   0  0  0  0  0  0  0  0  0  0  0  0
   19.6782   23.1784   22.5462 O   0  0  0  0  0  0  0  0  0  0  0  0
   20.6557   21.4023   19.8489 C   0  0  0  0  0  0  0  0  0  0  0  0
   20.0529   23.2895   21.1725 C   0  0  0  0  0  0  0  0  0  0  0  0
   18.9541   24.0625   20.8135 O   0  0  0  0  0  0  0  0  0  0  0  0
   23.0128   23.9263   19.5853 C   0  0  0  0  0  0  0  0  0  0  0  0
   24.1334   19.5554   20.9405 O   0  0  0  0  0  0  0  0  0  0  0  0
   22.5860   18.8260   19.7197 O   0  0  0  0  0  0  0  0  0  0  0  0
   22.9571   23.1639   17.1768 C   0  0  0  0  0  0  0  0  0  0  0  0
   23.9021   22.8148   19.7251 C   0  0  0  0  0  0  0  0  0  0  0  0
   21.8242   19.8978   20.3458 C   0  0  0  0  0  0  0  0  0  0  0  0
   23.8134   21.5014   18.4707 C   0  0  0  0  0  0  0  0  0  0  0  0
   22.3334   22.1718   18.8281 C   0  0  0  0  0  0  0  0  0  0  0  0
   21.0422   23.0129   20.4723 C   0  0  0  0  0  0  0  0  0  0  0  0
  4  3  1  0
  5  1  1  0
  8  6  1  0
  9  8  2  0
 10  2  1  0
 11  5  2  0
 13  3  1  0
 13  4  1  0
 14 10  1  0
 15  1  1  0
 15  5  1  0
 15  7  1  0
 15 12  1  0
 16 14  1  0
 17  1  1  0
 17 13  1  0
 17 14  1  0
 17 16  1  0
 18  2  1  0
 18  7  1  0
 18  8  1  0
M  END
>  <ID>  (1) 
conformer_0

$$$$
