
     RDKit          3D

 16 19  0  0  0  0  0  0  0  0999 V2000
   23.7395   24.0936   19.5021 C   0  0  0  0  0  0  0  0  0  0  0  0
   21.0998   21.8402   19.7094 C   0  0  0  0  0  0  0  0  0  0  0  0
   22.8577   22.1376   20.2666 C   0  0  0  0  0  0  0  0  0  0  0  0
   22.9347   20.2578   20.5347 C   0  0  0  0  0  0  0  0  0  0  0  0
   24.1842   22.5035   17.2459 C   0  0  0  0  0  0  0  0  0  0  0  0
   23.6788   23.5659   17.4991 C   0  0  0  0  0  0  0  0  0  0  0  0
   20.0839   23.5245   21.0541 C   0  0  0  0  0  0  0  0  0  0  0  0
   18.8218   23.5143   20.3211 O   0  0  0  0  0  0  0  0  0  0  0  0
   19.7131   23.6261   22.0768 O   0  0  0  0  0  0  0  0  0  0  0  0
   23.7376   18.8049   20.0165 O   0  0  0  0  0  0  0  0  0  0  0  0
   22.6799   24.0620   20.4912 C   0  0  0  0  0  0  0  0  0  0  0  0
   21.2750   23.3216   20.6099 C   0  0  0  0  0  0  0  0  0  0  0  0
   21.8769   19.1861   20.5025 C   0  0  0  0  0  0  0  0  0  0  0  0
   22.1394   22.9586   18.4184 C   0  0  0  0  0  0  0  0  0  0  0  0
   24.5337   22.8740   19.0854 C   0  0  0  0  0  0  0  0  0  0  0  0
   23.1652   21.5840   18.6410 C   0  0  0  0  0  0  0  0  0  0  0  0
  3  2  1  0
  4  3  1  0
  6  5  1  0
  8  7  2  0
  9  7  1  0
 10  4  1  0
 11  1  1  0
 11  3  1  0
 12  2  1  0
 12  7  1  0
 12 11  1  0
 13  4  1  0
 14  6  1  0
 15  1  1  0
 15  5  1  0
 16  3  1  0
 16  5  1  0
 16 14  1  0
 16 15  1  0
M  END
>  <ID>  (1) 
conformer_0

$$$$
