
     RDKit          3D

 20 24  0  0  0  0  0  0  0  0999 V2000
   24.2680   23.1483   17.0396 C   0  0  0  0  0  0  0  0  0  0  0  0
   23.8443   23.4266   19.1907 C   0  0  0  0  0  0  0  0  0  0  0  0
   22.6969   23.0615   16.9663 C   0  0  0  0  0  0  0  0  0  0  0  0
   24.2411   21.8983   17.6133 C   0  0  0  0  0  0  0  0  0  0  0  0
   23.6794   20.6572   21.3863 C   0  0  0  0  0  0  0  0  0  0  0  0
   23.3905   23.9630   20.8967 C   0  0  0  0  0  0  0  0  0  0  0  0
   20.1421   23.3206   20.8374 C   0  0  0  0  0  0  0  0  0  0  0  0
   22.8625   18.6042   20.0860 O   0  0  0  0  0  0  0  0  0  0  0  0
   19.7715   23.5301   22.1189 O   0  0  0  0  0  0  0  0  0  0  0  0
   22.3623   23.1369   18.6314 C   0  0  0  0  0  0  0  0  0  0  0  0
   18.9102   23.6355   20.3506 O   0  0  0  0  0  0  0  0  0  0  0  0
   24.4597   20.3481   21.4823 O   0  0  0  0  0  0  0  0  0  0  0  0
   23.0006   19.5363   20.2096 C   0  0  0  0  0  0  0  0  0  0  0  0
   20.3616   22.0699   19.5762 C   0  0  0  0  0  0  0  0  0  0  0  0
   21.6663   23.5643   20.7511 C   0  0  0  0  0  0  0  0  0  0  0  0
   23.5098   21.4719   18.9872 C   0  0  0  0  0  0  0  0  0  0  0  0
   21.0413   20.2657   19.9421 C   0  0  0  0  0  0  0  0  0  0  0  0
   21.8582   21.8194   19.8614 C   0  0  0  0  0  0  0  0  0  0  0  0
   21.2194   19.3021   19.9351 O   0  0  0  0  0  0  0  0  0  0  0  0
   23.1763   22.4829   20.9299 C   0  0  0  0  0  0  0  0  0  0  0  0
  3  1  1  0
  4  1  1  0
  6  2  1  0
  9  7  1  0
 10  2  1  0
 10  3  1  0
 11  7  1  0
 12  5  1  0
 13  5  1  0
 13  8  1  0
 14  7  1  0
 15  6  1  0
 15  7  1  0
 16  4  1  0
 17 14  1  0
 18 10  1  0
 18 14  1  0
 18 17  1  0
 19 13  1  0
 19 17  1  0
 20  5  1  0
 20  6  1  0
 20 15  1  0
 20 18  1  0
M  END
>  <ID>  (1) 
conformer_0

$$$$
