
     RDKit          3D

 18 21  0  0  0  0  0  0  0  0999 V2000
   22.7512   21.4202   19.4157 C   0  0  0  0  0  0  0  0  0  0  0  0
   21.0628   22.9003   20.4560 C   0  0  0  0  0  0  0  0  0  0  0  0
   22.0311   22.8638   18.5113 C   0  0  0  0  0  0  0  0  0  0  0  0
   23.5914   19.9593   21.1678 C   0  0  0  0  0  0  0  0  0  0  0  0
   20.7231   21.3515   19.6663 C   0  0  0  0  0  0  0  0  0  0  0  0
   24.8309   22.4654   17.0004 C   0  0  0  0  0  0  0  0  0  0  0  0
   19.5769   23.5144   22.2084 O   0  0  0  0  0  0  0  0  0  0  0  0
   19.9524   23.2591   20.9889 C   0  0  0  0  0  0  0  0  0  0  0  0
   18.7408   23.3796   20.2846 O   0  0  0  0  0  0  0  0  0  0  0  0
   23.0615   18.3925   20.0876 O   0  0  0  0  0  0  0  0  0  0  0  0
   24.7029   20.3454   21.2818 O   0  0  0  0  0  0  0  0  0  0  0  0
   24.0928   21.7640   18.2250 C   0  0  0  0  0  0  0  0  0  0  0  0
   22.7997   22.4521   20.7079 C   0  0  0  0  0  0  0  0  0  0  0  0
   22.0688   19.6979   20.4218 C   0  0  0  0  0  0  0  0  0  0  0  0
   23.8887   23.3862   19.5348 C   0  0  0  0  0  0  0  0  0  0  0  0
   22.7317   24.1014   20.3406 C   0  0  0  0  0  0  0  0  0  0  0  0
   23.8547   23.5390   17.8243 C   0  0  0  0  0  0  0  0  0  0  0  0
   22.8282   22.9824   16.7948 C   0  0  0  0  0  0  0  0  0  0  0  0
  3  1  1  0
  5  2  1  0
  8  2  1  0
  8  7  1  0
  9  8  2  0
 11  4  1  0
 12  1  1  0
 12  6  1  0
 13  1  1  0
 13  2  1  0
 14  4  1  0
 14  5  1  0
 14 10  1  0
 15 13  1  0
 16 13  1  0
 16 15  1  0
 17  6  1  0
 17 12  1  0
 17 15  1  0
 18  3  1  0
 18 17  1  0
M  END
>  <ID>  (1) 
conformer_0

$$$$
