
     RDKit          3D

 19 21  0  0  0  0  0  0  0  0999 V2000
   21.8000   23.6310   20.9897 C   0  0  0  0  0  0  0  0  0  0  0  0
   23.4966   23.2060   21.0426 C   0  0  0  0  0  0  0  0  0  0  0  0
   22.5550   21.8084   20.7591 C   0  0  0  0  0  0  0  0  0  0  0  0
   24.2874   21.9736   17.5094 C   0  0  0  0  0  0  0  0  0  0  0  0
   22.5525   19.1030   20.5633 C   0  0  0  0  0  0  0  0  0  0  0  0
   20.7341   21.4422   19.5994 C   0  0  0  0  0  0  0  0  0  0  0  0
   20.0238   23.1559   20.7005 C   0  0  0  0  0  0  0  0  0  0  0  0
   19.0406   23.6005   20.5645 O   0  0  0  0  0  0  0  0  0  0  0  0
   23.1624   18.6708   20.0340 O   0  0  0  0  0  0  0  0  0  0  0  0
   20.0476   23.2140   22.2250 O   0  0  0  0  0  0  0  0  0  0  0  0
   22.6441   23.0728   17.6152 C   0  0  0  0  0  0  0  0  0  0  0  0
   23.9509   23.5990   17.1602 C   0  0  0  0  0  0  0  0  0  0  0  0
   23.6009   20.6096   21.5903 C   0  0  0  0  0  0  0  0  0  0  0  0
   23.9644   20.0855   21.3969 O   0  0  0  0  0  0  0  0  0  0  0  0
   23.0696   21.4423   18.8652 C   0  0  0  0  0  0  0  0  0  0  0  0
   23.2589   23.7465   19.3905 C   0  0  0  0  0  0  0  0  0  0  0  0
   24.4536   22.4855   19.3567 C   0  0  0  0  0  0  0  0  0  0  0  0
   21.4539   22.8607   19.4944 C   0  0  0  0  0  0  0  0  0  0  0  0
   21.3852   20.3330   20.1935 C   0  0  0  0  0  0  0  0  0  0  0  0
  2  1  1  0
  3  2  1  0
  7  1  1  0
  8  7  1  0
  9  5  2  0
 10  7  1  0
 12  4  1  0
 12 11  1  0
 13  3  1  0
 14 13  2  0
 15  4  1  0
 16  2  1  0
 17  4  1  0
 17 15  1  0
 17 16  1  0
 18  1  1  0
 18  6  1  0
 18  7  1  0
 19  3  1  0
 19  5  1  0
 19  6  1  0
M  END
>  <ID>  (1) 
conformer_0

$$$$
