
     RDKit          3D

 17 19  0  0  0  0  0  0  0  0999 V2000
   21.6494   23.5243   20.6090 C   0  0  0  0  0  0  0  0  0  0  0  0
   20.8741   22.0424   19.8703 C   0  0  0  0  0  0  0  0  0  0  0  0
   23.4855   23.5234   19.6119 C   0  0  0  0  0  0  0  0  0  0  0  0
   21.9565   20.5982   19.8684 C   0  0  0  0  0  0  0  0  0  0  0  0
   24.3479   22.3395   18.4951 C   0  0  0  0  0  0  0  0  0  0  0  0
   23.7352   23.3281   17.2554 C   0  0  0  0  0  0  0  0  0  0  0  0
   19.9702   23.5141   20.9097 C   0  0  0  0  0  0  0  0  0  0  0  0
   22.3467   19.0711   19.6204 O   0  0  0  0  0  0  0  0  0  0  0  0
   19.5989   23.8578   21.8416 O   0  0  0  0  0  0  0  0  0  0  0  0
   24.0282   19.9617   21.5772 O   0  0  0  0  0  0  0  0  0  0  0  0
   23.6541   20.8837   21.6667 C   0  0  0  0  0  0  0  0  0  0  0  0
   23.8078   21.9338   19.8915 C   0  0  0  0  0  0  0  0  0  0  0  0
   18.9348   23.3658   20.3841 O   0  0  0  0  0  0  0  0  0  0  0  0
   22.5671   23.2693   17.3771 C   0  0  0  0  0  0  0  0  0  0  0  0
   22.0007   22.2842   18.8376 C   0  0  0  0  0  0  0  0  0  0  0  0
   22.5188   22.5565   21.1704 C   0  0  0  0  0  0  0  0  0  0  0  0
   22.7174   19.4246   20.7795 C   0  0  0  0  0  0  0  0  0  0  0  0
  2  1  1  0
  4  2  1  0
  5  3  1  0
  6  5  1  0
  7  1  1  0
  8  4  1  0
  9  7  1  0
 11 10  1  0
 12  3  1  0
 12  5  1  0
 13  7  2  0
 14  6  1  0
 15  2  1  0
 15 14  1  0
 16  1  1  0
 16 12  1  0
 17  4  1  0
 17  8  1  0
 17 10  1  0
M  END
>  <ID>  (1) 
conformer_0

$$$$
