
     RDKit          3D

 16 20  0  0  0  0  0  0  0  0999 V2000
   21.3743   23.2702   20.6567 C   0  0  0  0  0  0  0  0  0  0  0  0
   22.6352   21.7279   20.2574 C   0  0  0  0  0  0  0  0  0  0  0  0
   20.7757   21.8757   19.7481 C   0  0  0  0  0  0  0  0  0  0  0  0
   21.5337   20.3568   20.4081 C   0  0  0  0  0  0  0  0  0  0  0  0
   24.3214   23.4958   17.8435 C   0  0  0  0  0  0  0  0  0  0  0  0
   24.2187   22.5184   17.2913 C   0  0  0  0  0  0  0  0  0  0  0  0
   19.7886   23.1506   20.6398 C   0  0  0  0  0  0  0  0  0  0  0  0
   18.7474   23.1435   20.1793 O   0  0  0  0  0  0  0  0  0  0  0  0
   19.6175   23.5841   21.9899 O   0  0  0  0  0  0  0  0  0  0  0  0
   23.4043   18.9989   19.8941 O   0  0  0  0  0  0  0  0  0  0  0  0
   23.7037   21.4578   18.6695 C   0  0  0  0  0  0  0  0  0  0  0  0
   23.5644   20.9006   21.8089 C   0  0  0  0  0  0  0  0  0  0  0  0
   22.4832   23.1606   18.6265 C   0  0  0  0  0  0  0  0  0  0  0  0
   24.3753   22.9144   19.5318 C   0  0  0  0  0  0  0  0  0  0  0  0
   22.9275   23.3864   20.6184 C   0  0  0  0  0  0  0  0  0  0  0  0
   23.1405   19.8341   20.2150 C   0  0  0  0  0  0  0  0  0  0  0  0
  3  1  1  0
  3  2  1  0
  4  2  1  0
  4  3  1  0
  6  5  1  0
  7  1  1  0
  7  3  1  0
  8  7  1  0
  9  7  1  0
 11  2  1  0
 11  6  1  0
 13  5  1  0
 14  5  1  0
 14 11  1  0
 15  1  1  0
 15  2  1  0
 15 14  1  0
 16  4  1  0
 16 10  2  0
 16 12  1  0
M  END
>  <ID>  (1) 
conformer_0

$$$$
