
     RDKit          3D

 15 14  0  0  0  0  0  0  0  0999 V2000
   23.5938   23.5595   17.4797 C   0  0  0  0  0  0  0  0  0  0  0  0
   22.4542   23.3208   18.2565 C   0  0  0  0  0  0  0  0  0  0  0  0
   21.3240   22.6893   19.9577 C   0  0  0  0  0  0  0  0  0  0  0  0
   23.0839   23.4333   20.2322 C   0  0  0  0  0  0  0  0  0  0  0  0
   22.4747   22.8098   21.3196 C   0  0  0  0  0  0  0  0  0  0  0  0
   22.1642   19.6144   20.0955 C   0  0  0  0  0  0  0  0  0  0  0  0
   20.0288   23.1151   20.8372 C   0  0  0  0  0  0  0  0  0  0  0  0
   19.6838   23.3657   22.1828 O   0  0  0  0  0  0  0  0  0  0  0  0
   18.8648   23.3196   20.2980 O   0  0  0  0  0  0  0  0  0  0  0  0
   24.4919   23.0233   17.8330 C   0  0  0  0  0  0  0  0  0  0  0  0
   22.8526   18.7909   19.7133 O   0  0  0  0  0  0  0  0  0  0  0  0
   24.0319   22.3894   19.3045 C   0  0  0  0  0  0  0  0  0  0  0  0
   23.9804   19.9269   21.4036 O   0  0  0  0  0  0  0  0  0  0  0  0
   22.0293   21.5804   19.7236 C   0  0  0  0  0  0  0  0  0  0  0  0
   23.5402   20.5846   21.1918 C   0  0  0  0  0  0  0  0  0  0  0  0
  2  1  1  0
  5  3  1  0
  5  4  1  0
  7  3  1  0
  8  7  1  0
  9  7  2  0
 10  1  1  0
 11  6  1  0
 12  4  1  0
 12 10  1  0
 14  3  1  0
 14  6  1  0
 15  6  1  0
 15 13  1  0
M  END
>  <ID>  (1) 
conformer_0

$$$$
