
     RDKit          3D

 16 22  0  0  0  0  0  0  0  0999 V2000
   23.3116   22.4502   20.8121 C   0  0  0  0  0  0  0  0  0  0  0  0
   23.5142   24.0978   20.0972 C   0  0  0  0  0  0  0  0  0  0  0  0
   21.7644   23.3915   20.6795 C   0  0  0  0  0  0  0  0  0  0  0  0
   21.1535   21.9488   20.2862 C   0  0  0  0  0  0  0  0  0  0  0  0
   23.9228   20.1976   21.0568 C   0  0  0  0  0  0  0  0  0  0  0  0
   22.9364   23.4102   17.1775 C   0  0  0  0  0  0  0  0  0  0  0  0
   22.2975   23.5139   18.8781 C   0  0  0  0  0  0  0  0  0  0  0  0
   20.1676   22.8180   20.9592 C   0  0  0  0  0  0  0  0  0  0  0  0
   23.7398   19.1799   19.9762 O   0  0  0  0  0  0  0  0  0  0  0  0
   19.9892   23.2507   22.2714 O   0  0  0  0  0  0  0  0  0  0  0  0
   19.0294   22.4389   20.3216 O   0  0  0  0  0  0  0  0  0  0  0  0
   24.0531   23.6823   18.2416 C   0  0  0  0  0  0  0  0  0  0  0  0
   21.9884   19.8019   20.1841 C   0  0  0  0  0  0  0  0  0  0  0  0
   22.5354   21.4414   19.5385 C   0  0  0  0  0  0  0  0  0  0  0  0
   24.2965   22.3296   19.5206 C   0  0  0  0  0  0  0  0  0  0  0  0
   23.9639   22.3071   17.8716 C   0  0  0  0  0  0  0  0  0  0  0  0
  2  1  1  0
  3  1  1  0
  4  3  1  0
  7  2  1  0
  7  3  1  0
  7  6  1  0
  8  3  1  0
  8  4  1  0
  9  5  1  0
 10  8  1  0
 11  8  1  0
 12  6  1  0
 12  7  1  0
 13  9  1  0
 14  1  1  0
 14  4  1  0
 14 13  1  0
 15  1  1  0
 15 12  1  0
 16  6  1  0
 16 12  1  0
 16 15  1  0
M  END
>  <ID>  (1) 
conformer_0

$$$$
