
     RDKit          3D

 18 18  0  0  0  0  0  0  0  0999 V2000
   22.1393   22.8781   18.7448 C   0  0  0  0  0  0  0  0  0  0  0  0
   23.7446   22.5426   20.1309 C   0  0  0  0  0  0  0  0  0  0  0  0
   23.0957   23.3891   17.2506 C   0  0  0  0  0  0  0  0  0  0  0  0
   21.3283   23.1687   20.8343 C   0  0  0  0  0  0  0  0  0  0  0  0
   22.4232   19.7763   19.8473 C   0  0  0  0  0  0  0  0  0  0  0  0
   19.9246   23.2071   20.9402 C   0  0  0  0  0  0  0  0  0  0  0  0
   19.6600   23.4332   22.3048 O   0  0  0  0  0  0  0  0  0  0  0  0
   20.6473   21.5412   19.4841 C   0  0  0  0  0  0  0  0  0  0  0  0
   22.3967   23.1782   21.6180 C   0  0  0  0  0  0  0  0  0  0  0  0
   18.8770   23.4073   20.2557 O   0  0  0  0  0  0  0  0  0  0  0  0
   22.6835   18.8608   19.5344 O   0  0  0  0  0  0  0  0  0  0  0  0
   23.9851   19.9722   21.4270 O   0  0  0  0  0  0  0  0  0  0  0  0
   22.1452   21.4396   20.2504 C   0  0  0  0  0  0  0  0  0  0  0  0
   23.6968   21.4603   18.5661 C   0  0  0  0  0  0  0  0  0  0  0  0
   23.6804   20.4027   21.0331 C   0  0  0  0  0  0  0  0  0  0  0  0
   24.2171   23.7787   18.6611 C   0  0  0  0  0  0  0  0  0  0  0  0
   23.3754   24.1034   20.1033 C   0  0  0  0  0  0  0  0  0  0  0  0
   24.3396   22.2990   17.3107 C   0  0  0  0  0  0  0  0  0  0  0  0
  3  1  1  0
  6  4  1  0
  7  6  1  0
  9  4  1  0
 10  6  2  0
 11  5  2  0
 13  2  1  0
 13  4  1  0
 13  5  1  0
 13  8  1  0
 14  2  1  0
 15  5  1  0
 15 12  2  0
 16  3  1  0
 17  2  1  0
 17 16  1  0
 18  3  1  0
 18 14  1  0
M  END
>  <ID>  (1) 
conformer_0

$$$$
