
     RDKit          3D

 18 21  0  0  0  0  0  0  0  0999 V2000
   20.9474   21.7564   19.6266 C   0  0  0  0  0  0  0  0  0  0  0  0
   21.2181   23.1451   20.8557 C   0  0  0  0  0  0  0  0  0  0  0  0
   22.2764   23.8130   20.7319 C   0  0  0  0  0  0  0  0  0  0  0  0
   23.3040   22.9119   17.1042 C   0  0  0  0  0  0  0  0  0  0  0  0
   21.9199   19.7178   20.1015 C   0  0  0  0  0  0  0  0  0  0  0  0
   24.9906   23.2311   17.3187 C   0  0  0  0  0  0  0  0  0  0  0  0
   19.9056   23.3342   22.4996 O   0  0  0  0  0  0  0  0  0  0  0  0
   19.0837   22.8398   20.1907 O   0  0  0  0  0  0  0  0  0  0  0  0
   23.6529   19.2054   20.1184 O   0  0  0  0  0  0  0  0  0  0  0  0
   20.2613   23.1768   21.0355 C   0  0  0  0  0  0  0  0  0  0  0  0
   23.3196   22.5281   19.9562 C   0  0  0  0  0  0  0  0  0  0  0  0
   22.3403   21.3538   20.9789 C   0  0  0  0  0  0  0  0  0  0  0  0
   21.5601   19.3021   19.6336 O   0  0  0  0  0  0  0  0  0  0  0  0
   22.0607   23.1481   18.8470 C   0  0  0  0  0  0  0  0  0  0  0  0
   23.2644   20.2016   20.9924 C   0  0  0  0  0  0  0  0  0  0  0  0
   23.3200   21.5020   18.5397 C   0  0  0  0  0  0  0  0  0  0  0  0
   23.7977   23.8351   18.7759 C   0  0  0  0  0  0  0  0  0  0  0  0
   24.9380   22.2115   18.4580 C   0  0  0  0  0  0  0  0  0  0  0  0
  2  1  1  0
  3  2  1  0
  6  4  1  0
  9  5  1  0
 10  2  1  0
 10  7  1  0
 10  8  2  0
 11  3  1  0
 12  1  1  0
 12  5  1  0
 13  5  1  0
 14  1  1  0
 14 11  1  0
 15  5  1  0
 15  9  1  0
 15 12  1  0
 16 11  1  0
 17 11  1  0
 17 14  1  0
 18  6  1  0
 18 16  1  0
M  END
>  <ID>  (1) 
conformer_0

$$$$
