
     RDKit          3D

 21 21  0  0  0  0  0  0  0  0999 V2000
   10.3174    3.7919   33.5899 C   0  0  0  0  0  0  0  0  0  0  0  0
   14.5637   -0.5053   30.1835 N   0  0  0  0  0  0  0  0  0  0  0  0
   13.2242    0.6207   32.2200 C   0  0  0  0  0  0  0  0  0  0  0  0
    8.7343    2.2708   34.8343 O   0  0  0  0  0  0  0  0  0  0  0  0
   14.0179    1.4545   31.5206 C   0  0  0  0  0  0  0  0  0  0  0  0
   10.1374   -3.7580   33.6886 O   0  0  0  0  0  0  0  0  0  0  0  0
   14.3781    2.7617   31.9005 C   0  0  0  0  0  0  0  0  0  0  0  0
   12.3592   -2.8274   33.2620 C   0  0  0  0  0  0  0  0  0  0  0  0
   11.1562   -3.8102   32.9515 C   0  0  0  0  0  0  0  0  0  0  0  0
   13.8115   -1.2751   31.0526 C   0  0  0  0  0  0  0  0  0  0  0  0
   12.0482   -1.4149   32.8800 C   0  0  0  0  0  0  0  0  0  0  0  0
   11.5806    3.5389   32.9195 C   0  0  0  0  0  0  0  0  0  0  0  0
   11.1163   -0.6770   33.4578 O   0  0  0  0  0  0  0  0  0  0  0  0
    9.6734    4.9103   32.7601 C   0  0  0  0  0  0  0  0  0  0  0  0
   12.8134    3.6994   33.5419 C   0  0  0  0  0  0  0  0  0  0  0  0
   13.0266   -0.6949   32.0585 C   0  0  0  0  0  0  0  0  0  0  0  0
   14.0506    3.5238   32.9342 C   0  0  0  0  0  0  0  0  0  0  0  0
   11.2032   -4.4363   31.8485 O   0  0  0  0  0  0  0  0  0  0  0  0
    9.6864    2.5633   34.0628 C   0  0  0  0  0  0  0  0  0  0  0  0
   15.3454    1.7765   29.1262 Cl  0  0  0  0  0  0  0  0  0  0  0  0
   14.6154    0.8596   30.3559 C   0  0  0  0  0  0  0  0  0  0  0  0
  1 12  1  0
  1 14  1  0
  1 19  1  0
  2 10  1  0
  2 21  2  0
  3  5  1  0
  3 16  2  0
  4 19  2  0
  5  7  2  3
  5 21  1  0
  6  9  2  0
  7 17  1  0
  8  9  1  0
  8 11  1  0
  9 18  1  0
 10 16  1  0
 11 13  1  0
 11 16  1  0
 12 15  2  3
 15 17  1  0
 20 21  1  0
M  END
>  <ID>  (1) 
conformer_0

$$$$
