
     RDKit          3D

 15 15  0  0  0  0  0  0  0  0999 V2000
   12.5567    1.4105   32.4280 C   0  0  0  0  0  0  0  0  0  0  0  0
   14.3739    0.1329   30.7311 C   0  0  0  0  0  0  0  0  0  0  0  0
   11.2907   -4.3903   33.4437 O   0  0  0  0  0  0  0  0  0  0  0  0
   13.2038   -2.5487   32.8390 C   0  0  0  0  0  0  0  0  0  0  0  0
   10.6741   -4.0841   31.3986 O   0  0  0  0  0  0  0  0  0  0  0  0
   15.3068    2.2916   29.9535 C   0  0  0  0  0  0  0  0  0  0  0  0
   13.8813   -1.9812   31.6828 O   0  0  0  0  0  0  0  0  0  0  0  0
   15.1523   -0.4950   29.8072 O   0  0  0  0  0  0  0  0  0  0  0  0
   12.6894    0.0636   32.3747 C   0  0  0  0  0  0  0  0  0  0  0  0
   13.6254   -0.5890   31.5798 C   0  0  0  0  0  0  0  0  0  0  0  0
   13.2967    3.9493   31.7991 Cl  0  0  0  0  0  0  0  0  0  0  0  0
   13.4248    2.1432   31.6353 C   0  0  0  0  0  0  0  0  0  0  0  0
   11.6551   -2.2226   32.6136 C   0  0  0  0  0  0  0  0  0  0  0  0
   14.3678    1.5146   30.7536 C   0  0  0  0  0  0  0  0  0  0  0  0
   11.0620   -3.6580   32.5073 C   0  0  0  0  0  0  0  0  0  0  0  0
  1  9  2  0
  1 12  1  0
  2  8  1  0
  2 10  2  0
  2 14  1  0
  3 15  2  0
  4  7  1  0
  4 13  1  0
  5 15  1  0
  6 14  1  0
  7 10  1  0
  9 10  1  0
 11 12  1  0
 12 14  2  0
 13 15  1  0
M  END
>  <ID>  (1) 
conformer_0

$$$$
