
     RDKit          3D

 19 19  0  0  0  0  0  0  0  0999 V2000
   13.8549   -2.9776   31.1821 O   0  0  0  0  0  1  0  0  0  0  0  0
   14.1990    0.3107   30.5792 C   0  0  0  0  0  0  0  0  0  0  0  0
   15.1301    0.1647   29.5941 C   0  0  0  0  0  0  0  0  0  0  0  0
   13.2661    2.2784   31.9404 C   0  0  0  0  0  0  0  0  0  0  0  0
   13.4672    3.5003   32.3168 O   0  0  0  0  0  0  0  0  0  0  0  0
   10.0812    1.6644   33.8056 O   0  0  0  0  0  0  0  0  0  0  0  0
   14.1433    1.5846   31.0097 C   0  0  0  0  0  0  0  0  0  0  0  0
   10.7446   -1.5396   32.2768 O   0  0  0  0  0  0  0  0  0  0  0  0
   11.9034   -4.1408   32.3906 O   0  0  0  0  0  0  0  0  0  0  0  0
   10.7812    3.5668   32.9120 O   0  0  0  0  0  0  0  0  0  0  0  0
   15.7160    1.4974   29.4259 C   0  0  0  0  0  0  0  0  0  0  0  0
   12.8237   -1.7943   33.2196 O   0  0  0  0  0  0  0  0  0  0  0  0
   11.8115   -0.9546   32.6370 C   0  0  0  0  0  0  0  0  0  0  0  0
   12.1236    0.2729   32.4795 C   0  0  0  0  0  3  0  0  0  0  0  0
   12.1312    1.5595   32.5262 C   0  0  0  0  0  0  0  0  0  0  0  0
   13.2151   -3.2319   32.5855 P   0  0  0  0  0  4  0  0  0  0  0  0
   15.0894    2.3224   30.3168 C   0  0  0  0  0  0  0  0  0  0  0  0
   14.1099   -3.8654   33.6972 O   0  0  0  0  0  0  0  0  0  0  0  0
   10.9595    2.3180   33.0790 C   0  0  0  0  0  0  0  0  0  0  0  0
  1 16  2  0
  2  3  1  0
  2  7  1  0
  3 11  1  0
  4  5  1  0
  4  7  2  3
  4 15  1  0
  6 19  2  0
  7 17  1  0
  8 13  2  0
  9 16  1  0
 10 19  1  0
 11 17  1  0
 12 13  1  0
 12 16  1  0
 13 14  1  0
 14 15  2  0
 15 19  1  0
 16 18  1  0
M  END
>  <ID>  (1) 
conformer_0

$$$$
