
     RDKit          3D

 25 28  0  0  0  0  0  0  0  0999 V2000
   13.5209    1.1973   31.7684 C   0  0  0  0  0  0  0  0  0  0  0  0
    9.9050    2.9842   31.7629 O   0  0  0  0  0  0  0  0  0  0  0  0
   13.9295   -0.2069   31.3340 C   0  0  0  0  0  0  0  0  0  0  0  0
   14.2436    2.2451   31.2439 C   0  0  0  0  0  0  0  0  0  0  0  0
   14.7846   -0.1899   30.2026 C   0  0  0  0  0  0  0  0  0  0  0  0
   12.2402   -2.2416   32.3638 C   0  0  0  0  0  0  0  0  0  0  0  0
   12.6088    2.8996   33.2004 N   0  0  0  0  0  0  0  0  0  0  0  0
   13.5793    5.0503   33.6702 C   0  0  0  0  0  0  0  0  0  0  0  0
   15.1696    2.2040   30.2555 C   0  0  0  0  0  0  0  0  0  0  0  0
   13.8798    5.3883   35.0368 O   0  0  0  0  0  0  0  0  0  0  0  0
   11.2846   -1.0210   32.2429 N   0  0  0  0  0  0  0  0  0  0  0  0
   13.6916   -1.6111   31.8475 C   0  0  0  0  0  0  0  0  0  0  0  0
   12.3484   -2.6476   33.7531 O   0  0  0  0  0  0  0  0  0  0  0  0
   15.4073    0.9538   29.7086 C   0  0  0  0  0  0  0  0  0  0  0  0
    9.9067   -0.6235   33.9796 O   0  0  0  0  0  0  0  0  0  0  0  0
   10.6934   -0.2053   33.1230 C   0  0  0  0  0  0  0  0  0  0  0  0
   14.5254   -2.8725   31.7438 O   0  0  0  0  0  0  0  0  0  0  0  0
   11.8960   -3.4141   31.6270 O   0  0  0  0  0  0  0  0  0  0  0  0
   12.0245    5.1573   33.4268 C   0  0  0  0  0  0  0  0  0  0  0  0
   11.0082    1.1991   33.0846 C   0  0  0  0  0  0  0  0  0  0  0  0
   10.1947    2.5590   33.2166 C   0  0  0  0  0  0  0  0  0  0  0  0
   11.3414    3.5851   35.1427 O   0  0  0  0  0  0  0  0  0  0  0  0
   11.4029    3.6573   33.6752 C   0  0  0  0  0  0  0  0  0  0  0  0
   13.8746    3.5503   33.4499 C   0  0  0  0  0  0  0  0  0  0  0  0
   12.3977    1.5326   32.6937 C   0  0  0  0  0  0  0  0  0  0  0  0
  1  3  1  0
  1  4  1  0
  1 25  1  0
  2 21  1  0
  3  5  1  0
  3 12  1  0
  4  9  2  0
  5 14  2  0
  6 11  1  0
  6 12  1  0
  6 13  1  0
  6 18  1  0
  7 23  1  0
  7 24  1  0
  7 25  1  0
  8 10  1  0
  8 19  1  0
  8 24  1  0
  9 14  1  0
 11 16  1  0
 12 17  1  0
 15 16  2  0
 16 20  1  0
 19 23  1  0
 20 21  1  0
 20 25  1  0
 21 23  1  0
 22 23  1  0
M  END
>  <ID>  (1) 
conformer_0

$$$$
