
     RDKit          3D

 21 22  0  0  0  0  0  0  0  0999 V2000
   13.1673    2.1018   32.1306 C   0  0  0  0  0  0  0  0  0  0  0  0
   10.9943   -4.8437   31.9944 O   0  0  0  0  0  1  0  0  0  0  0  0
   10.7885   -3.7812   32.9401 P   0  0  0  0  0  0  0  0  0  0  0  0
   12.6717    3.3270   32.7459 C   0  0  0  0  0  0  0  0  0  0  0  0
   12.0127    5.6276   32.4122 C   0  0  0  0  0  0  0  0  0  0  0  0
   14.0536    2.3322   31.1130 C   0  0  0  0  0  0  0  0  0  0  0  0
   12.8124   -2.4857   33.3099 C   0  0  0  0  0  0  0  0  0  0  0  0
   12.3186    3.4221   34.0496 C   0  0  0  0  0  0  0  0  0  0  0  0
   14.7344    0.2006   30.2895 C   0  0  0  0  0  0  0  0  0  0  0  0
   12.0862   -1.4392   32.5202 C   0  0  0  0  0  0  0  0  0  0  0  0
   13.9899   -0.6611   31.0778 C   0  0  0  0  0  0  0  0  0  0  0  0
    9.6023   -3.0933   33.0429 O   0  0  0  0  0  1  0  0  0  0  0  0
   14.7573    1.5796   30.3257 C   0  0  0  0  0  0  0  0  0  0  0  0
   12.5554    4.4627   31.9534 C   0  0  0  0  0  0  0  0  0  0  0  0
   11.8098    4.5933   34.5527 C   0  0  0  0  0  0  0  0  0  0  0  0
   11.6180    5.7309   33.7491 C   0  0  0  0  0  0  0  0  0  0  0  0
   15.5278   -0.3445   29.3640 O   0  0  0  0  0  0  0  0  0  0  0  0
   14.2143   -1.9785   30.8893 O   0  0  0  0  0  0  0  0  0  0  0  0
   12.9755   -0.3412   32.0152 C   0  0  0  0  0  0  0  0  0  0  0  0
   12.7129    0.8997   32.5064 C   0  0  0  0  0  0  0  0  0  0  0  0
   11.8606   -3.5016   33.8719 O   0  0  0  0  0  0  0  0  0  0  0  0
  1  4  1  0
  1  6  1  0
  1 20  2  0
  2  3  1  0
  3 12  1  0
  3 21  1  0
  4  8  2  0
  4 14  1  0
  5 14  2  0
  5 16  1  0
  6 13  2  0
  7 10  1  0
  7 21  1  0
  8 15  1  0
  9 11  2  0
  9 13  1  0
  9 17  1  0
 10 19  1  0
 11 18  1  0
 11 19  1  0
 15 16  2  0
 19 20  1  0
M  END
>  <ID>  (1) 
conformer_0

$$$$
