
     RDKit          3D

 25 27  0  0  0  0  0  0  0  0999 V2000
   12.7666   -3.2027   33.4745 C   0  0  0  0  0  0  0  0  0  0  0  0
   11.1389   -3.9131   31.7505 O   0  0  0  0  0  0  0  0  0  0  0  0
   10.8089    1.9867   33.8426 C   0  0  0  0  0  0  0  0  0  0  0  0
    9.5035    2.2637   34.1033 C   0  0  0  0  0  0  0  0  0  0  0  0
   14.8978    1.3447   30.1303 C   0  0  0  0  0  0  0  0  0  0  0  0
   15.4245    0.8730   28.9379 F   0  0  0  0  0  0  0  0  0  0  0  0
   14.3284    3.0926   31.6801 C   0  0  0  0  0  0  0  0  0  0  0  0
   13.0311   -0.2754   32.6180 C   0  0  0  0  0  0  0  0  0  0  0  0
   13.6570    2.1896   32.4964 C   0  0  0  0  0  0  0  0  0  0  0  0
   13.6127    0.8764   32.1000 C   0  0  0  0  0  0  0  0  0  0  0  0
   10.0093    4.6305   34.3843 C   0  0  0  0  0  0  0  0  0  0  0  0
   10.3707   -3.5265   34.0181 C   0  0  0  0  0  0  0  0  0  0  0  0
   11.3577    4.3144   34.1134 C   0  0  0  0  0  0  0  0  0  0  0  0
   11.3244   -3.1853   32.9297 C   0  0  0  0  0  0  0  0  0  0  0  0
   14.3158    0.4615   30.9345 C   0  0  0  0  0  0  0  0  0  0  0  0
    9.0932    3.5771   34.3755 C   0  0  0  0  0  0  0  0  0  0  0  0
   11.7604    3.0066   33.8597 C   0  0  0  0  0  0  0  0  0  0  0  0
   13.1661    2.7128   33.7250 C   0  0  0  0  0  0  0  0  0  0  0  0
   14.2602   -0.9188   30.7594 O   0  0  0  0  0  0  0  0  0  0  0  0
   14.9306    2.6667   30.5197 C   0  0  0  0  0  0  0  0  0  0  0  0
   13.5445   -1.3686   31.9019 C   0  0  0  0  0  0  0  0  0  0  0  0
   10.1178   -4.9176   33.9742 O   0  0  0  0  0  0  0  0  0  0  0  0
   13.5665   -2.7875   32.2630 C   0  0  0  0  0  0  0  0  0  0  0  0
   14.8857   -3.2858   32.2301 O   0  0  0  0  0  0  0  0  0  0  0  0
   13.4032   -2.3422   34.5582 O   0  0  0  0  0  0  0  0  0  0  0  0
  1 14  1  0
  1 23  1  0
  1 25  1  0
  2 14  1  0
  3  4  2  0
  3 17  1  0
  4 16  1  0
  5  6  1  0
  5 15  2  0
  5 20  1  0
  7  9  1  0
  7 20  2  0
  8 10  1  0
  8 21  1  0
  9 10  2  0
  9 18  1  0
 10 15  1  0
 11 13  1  0
 11 16  2  0
 12 14  1  0
 12 22  1  0
 13 17  2  0
 15 19  1  0
 17 18  1  0
 19 21  1  0
 21 23  1  0
 23 24  1  0
M  END
>  <ID>  (1) 
conformer_0

$$$$
