
     RDKit          3D

 15 17  0  0  0  0  0  0  0  0999 V2000
   14.9765   -0.3643   30.3526 N   0  0  0  0  0  0  0  0  0  0  0  0
   10.8229   -4.0343   31.6546 O   0  0  0  0  0  0  0  0  0  0  0  0
   13.2416   -0.0620   31.9303 C   0  0  0  0  0  0  0  0  0  0  0  0
   12.2391   -0.8074   32.5615 C   0  0  0  0  0  0  0  0  0  0  0  0
   13.4720    1.2793   31.9066 C   0  0  0  0  0  0  0  0  0  0  0  0
   12.3246   -2.1777   32.0987 C   0  0  0  0  0  0  0  0  0  0  0  0
   13.3511    3.4856   32.1444 C   0  0  0  0  0  0  0  0  0  0  0  0
   12.2787   -4.1386   33.3687 O   0  0  0  0  0  0  0  0  0  0  0  0
   15.0211    0.9542   30.1308 C   0  0  0  0  0  0  0  0  0  0  0  0
   14.3487    3.1758   31.1902 C   0  0  0  0  0  0  0  0  0  0  0  0
   13.6557   -2.2575   31.4672 C   0  0  0  0  0  0  0  0  0  0  0  0
   14.0837   -0.9009   31.2135 C   0  0  0  0  0  0  0  0  0  0  0  0
   12.9465    2.2779   32.6309 N   0  0  0  0  0  0  0  0  0  0  0  0
   14.3533    1.8378   30.9651 C   0  0  0  0  0  0  0  0  0  0  0  0
   11.7570   -3.5855   32.3995 C   0  0  0  0  0  0  0  0  0  0  0  0
  1  9  2  0
  1 12  1  0
  2 15  2  0
  3  4  1  0
  3  5  2  0
  3 12  1  0
  4  6  1  0
  5 13  1  0
  5 14  1  0
  6 11  1  0
  6 15  1  0
  7 10  1  0
  7 13  1  0
  8 15  1  0
  9 14  1  0
 10 14  1  0
 11 12  1  0
M  END
>  <ID>  (1) 
conformer_0

$$$$
