
     RDKit          3D

 27 27  0  0  0  0  0  0  0  0999 V2000
   14.9900   -0.2582   29.5694 O   0  0  0  0  0  0  0  0  0  0  0  0
   10.5516    3.3494   32.0873 C   0  0  0  0  0  0  0  0  0  0  0  0
   10.4001   -2.5318   32.5529 O   0  0  0  0  0  0  0  0  0  0  0  0
   13.3165    0.0879   32.4159 N   0  0  0  0  0  0  0  0  0  0  0  0
    9.1903    3.5035   34.9353 C   0  0  0  0  0  0  0  0  0  0  0  0
   12.1840   -2.2773   34.7303 O   0  0  0  0  0  0  0  0  0  0  0  0
   12.1007    3.2305   34.0376 C   0  0  0  0  0  0  0  0  0  0  0  0
   14.0189   -3.5846   31.9956 C   0  0  0  0  0  0  0  0  0  0  0  0
   13.2412   -1.2647   32.2492 C   0  0  0  0  0  0  0  0  0  0  0  0
   13.9655    0.8452   31.5244 C   0  0  0  0  0  0  0  0  0  0  0  0
    9.8169    2.2150   32.8263 C   0  0  0  0  0  0  0  0  0  0  0  0
    9.5871    2.2605   34.3116 C   0  0  0  0  0  0  0  0  0  0  0  0
   14.5294   -3.7747   34.3472 O   0  0  0  0  0  0  0  0  0  0  0  0
   11.1348   -3.5090   32.8363 C   0  0  0  0  0  0  0  0  0  0  0  0
   12.2066   -3.2977   33.8489 C   0  0  0  0  0  0  0  0  0  0  0  0
   13.4344    3.4816   33.8938 O   0  0  0  0  0  0  0  0  0  0  0  0
   14.6251    2.9234   31.0603 F   0  0  0  0  0  0  0  0  0  0  0  0
    9.6980    0.9028   35.0182 C   0  0  0  0  0  0  0  0  0  0  0  0
   13.8524    2.2099   31.8956 C   0  0  0  0  0  0  0  0  0  0  0  0
   12.7449    0.9289   33.3566 O   0  0  0  0  0  0  0  0  0  0  0  0
   13.0089    2.3658   33.0992 C   0  0  0  0  0  0  0  0  0  0  0  0
   15.1879    2.0444   30.0447 N   0  0  0  0  0  0  0  0  0  0  0  0
   11.2431    4.1849   33.1942 C   0  0  0  0  0  0  0  0  0  0  0  0
   14.1181   -2.1398   31.6431 N   0  0  0  0  0  0  0  0  0  0  0  0
   11.1821   -4.5789   32.0951 O   0  0  0  0  0  0  0  0  0  0  0  0
   14.7303    0.7173   30.3195 C   0  0  0  0  0  0  0  0  0  0  0  0
   13.5337   -3.7453   33.3904 C   0  0  0  0  0  0  0  0  0  0  0  0
  1 26  2  0
  2 11  1  0
  2 23  1  0
  3 14  2  0
  4  9  1  0
  4 10  1  0
  4 20  1  0
  5 12  1  0
  6 15  1  0
  7 16  1  0
  7 23  1  0
  8 24  1  0
  8 27  1  0
  9 24  1  0
 10 19  2  0
 10 26  1  0
 11 12  1  0
 12 18  1  0
 13 27  1  0
 14 15  1  0
 14 25  1  0
 15 27  1  0
 16 21  1  0
 17 19  1  0
 19 21  1  0
 20 21  1  0
 22 26  1  0
M  END
>  <ID>  (1) 
conformer_0

$$$$
