
     RDKit          3D

 14 15  0  0  0  0  0  0  0  0999 V2000
   16.0017    1.3892   30.1461 F   0  0  0  0  0  0  0  0  0  0  0  0
   13.4184    3.0285   30.4386 F   0  0  0  0  0  0  0  0  0  0  0  0
   12.1437   -2.9246   31.9254 C   0  0  0  0  0  0  0  0  0  0  0  0
   11.4173   -2.0200   32.6925 C   0  0  0  0  0  0  0  0  0  0  0  0
   13.2464    1.1346   32.2681 C   0  0  0  0  0  0  0  0  0  0  0  0
   11.8014   -0.7105   32.7720 C   0  0  0  0  0  0  0  0  0  0  0  0
   14.6626   -0.4816   30.5248 N   0  0  0  0  0  0  0  0  0  0  0  0
   13.2794   -2.4650   31.2490 C   0  0  0  0  0  0  0  0  0  0  0  0
   12.8779   -0.2345   32.0791 C   0  0  0  0  0  0  0  0  0  0  0  0
   14.7205    0.9346   30.1812 C   0  0  0  0  0  0  0  0  0  0  0  0
   14.2266    1.2657   28.9398 F   0  0  0  0  0  0  0  0  0  0  0  0
   13.9257    1.7952   31.2110 C   0  0  0  0  0  0  0  0  0  0  0  0
   13.6109   -1.0676   31.2913 C   0  0  0  0  0  0  0  0  0  0  0  0
   11.6921   -4.1958   31.8241 O   0  0  0  0  0  0  0  0  0  0  0  0
  1 10  1  0
  2 12  1  0
  3  4  2  0
  3  8  1  0
  3 14  1  0
  4  6  1  0
  5  9  1  0
  5 12  1  0
  6  9  2  0
  7 10  1  0
  7 13  1  0
  8 13  2  0
  9 13  1  0
 10 11  1  0
 10 12  1  0
M  END
>  <ID>  (1) 
conformer_0

$$$$
