
     RDKit          3D

 26 28  0  0  0  0  0  0  0  0999 V2000
   10.1618   -1.0604   33.2237 O   0  0  0  0  0  0  0  0  0  0  0  0
   11.7519   -2.1582   34.6922 C   0  0  0  0  0  0  0  0  0  0  0  0
   13.4176   -0.6648   31.5837 N   0  0  0  0  0  0  0  0  0  0  0  0
   14.9021    0.1375   29.9206 C   0  0  0  0  0  0  0  0  0  0  0  0
   10.4723   -1.5349   34.4523 C   0  0  0  0  0  0  0  0  0  0  0  0
   15.6671    1.0965   29.3760 C   0  0  0  0  0  0  0  0  0  0  0  0
   14.7603    2.6650   30.8935 C   0  0  0  0  0  0  0  0  0  0  0  0
   11.0583    4.2543   32.0445 C   0  0  0  0  0  0  0  0  0  0  0  0
   14.0322    0.3909   30.9943 C   0  0  0  0  0  0  0  0  0  0  0  0
   10.9677   -4.2496   32.4577 C   0  0  0  0  0  0  0  0  0  0  0  0
   15.6226    2.3719   29.9363 C   0  0  0  0  0  0  0  0  0  0  0  0
   13.1418   -3.0246   31.4720 C   0  0  0  0  0  0  0  0  0  0  0  0
   12.6922    2.3912   32.0872 C   0  0  0  0  0  0  0  0  0  0  0  0
   13.8150   -2.0080   33.3857 O   0  0  0  0  0  0  0  0  0  0  0  0
    9.8663   -0.8647   35.5974 C   0  0  0  0  0  0  0  0  0  0  0  0
   10.0378    0.5420   35.6209 O   0  0  0  0  0  0  0  0  0  0  0  0
   13.9487   -1.8570   31.9863 C   0  0  0  0  0  0  0  0  0  0  0  0
   10.5272    3.8065   33.2799 C   0  0  0  0  0  0  0  0  0  0  0  0
   10.4471   -4.6042   33.5902 O   0  0  0  0  0  0  0  0  0  0  0  0
   12.1012    3.5547   31.5093 C   0  0  0  0  0  0  0  0  0  0  0  0
   12.0549   -3.2557   32.4178 C   0  0  0  0  0  0  0  0  0  0  0  0
   11.1161    2.6972   33.8577 C   0  0  0  0  0  0  0  0  0  0  0  0
   10.3622   -4.5909   31.3433 O   0  0  0  0  0  0  0  0  0  0  0  0
   12.6301   -2.8238   33.7241 C   0  0  0  0  0  0  0  0  0  0  0  0
   12.1714    2.0278   33.2915 C   0  0  0  0  0  0  0  0  0  0  0  0
   13.8035    1.7603   31.3875 C   0  0  0  0  0  0  0  0  0  0  0  0
  1  5  1  0
  2  5  1  0
  2 24  1  0
  3  9  1  0
  3 17  1  0
  4  6  2  0
  4  9  1  0
  5 15  1  0
  6 11  1  0
  7 11  2  0
  7 26  1  0
  8 18  2  0
  8 20  1  0
  9 26  1  0
 10 19  2  0
 10 21  1  0
 10 23  1  0
 12 17  1  0
 12 21  1  0
 13 20  2  0
 13 25  1  0
 13 26  1  0
 14 17  1  0
 14 24  1  0
 15 16  1  0
 18 22  1  0
 21 24  1  0
 22 25  2  0
M  END
>  <ID>  (1) 
conformer_0

$$$$
