
     RDKit          3D

 17 18  0  0  0  0  0  0  0  0999 V2000
   12.7517    2.5240   33.2545 N   0  0  0  0  0  0  0  0  0  0  0  0
   14.6169    1.3858   30.2420 C   0  0  0  0  0  0  0  0  0  0  0  0
   13.5774   -3.7266   33.7829 O   0  0  0  0  0  0  0  0  0  0  0  0
   13.7792    1.7039   31.3476 C   0  0  0  0  0  0  0  0  0  0  0  0
   11.6412   -3.7501   32.4739 C   0  0  0  0  0  0  0  0  0  0  0  0
   14.8786    0.0662   29.9416 C   0  0  0  0  0  0  0  0  0  0  0  0
   12.9497   -3.0211   32.7720 C   0  0  0  0  0  0  0  0  0  0  0  0
   14.3392   -0.9639   30.7193 C   0  0  0  0  0  0  0  0  0  0  0  0
   12.9837   -1.6369   32.7511 C   0  0  0  0  0  0  0  0  0  0  0  0
   12.6010    1.0886   33.2719 C   0  0  0  0  0  0  0  0  0  0  0  0
   11.3083   -4.8110   33.0944 O   0  0  0  0  0  0  0  0  0  0  0  0
   14.1707    3.9971   31.9463 O   0  0  0  0  0  0  0  0  0  0  0  0
   11.9575    3.4670   31.1736 C   0  0  0  0  0  0  0  0  0  0  0  0
   13.5467   -0.7021   31.8595 C   0  0  0  0  0  0  0  0  0  0  0  0
   13.3120    0.6767   32.1179 C   0  0  0  0  0  0  0  0  0  0  0  0
   10.9553   -3.4528   31.4408 O   0  0  0  0  0  0  0  0  0  0  0  0
   13.2323    3.0264   31.9118 C   0  0  0  0  0  0  0  0  0  0  0  0
  1 10  1  0
  1 17  1  0
  2  4  1  0
  2  6  2  0
  3  7  1  0
  4 15  2  0
  4 17  1  0
  5  7  1  0
  5 11  2  0
  5 16  1  0
  6  8  1  0
  7  9  1  0
  8 14  1  0
  9 14  2  3
 10 15  1  0
 12 17  1  0
 13 17  1  0
 14 15  1  0
M  END
>  <ID>  (1) 
conformer_0

$$$$
