
     RDKit          3D

 22 25  0  0  0  0  0  0  0  0999 V2000
   13.8973    0.1032   31.0722 C   0  0  0  0  0  0  0  0  0  0  0  0
   11.3215   -1.5317   32.9770 C   0  0  0  0  0  0  0  0  0  0  0  0
   11.3626   -3.9748   32.8028 C   0  0  0  0  0  0  0  0  0  0  0  0
   10.7529   -4.4055   31.6985 O   0  0  0  0  0  0  0  0  0  0  0  0
   13.4684   -2.0308   32.2487 N   0  0  0  0  0  0  0  0  0  0  0  0
   12.4114   -3.7611   33.4902 O   0  0  0  0  0  0  0  0  0  0  0  0
    9.3230    3.7284   34.0005 C   0  0  0  0  0  0  0  0  0  0  0  0
   12.0612   -0.2760   32.6043 C   0  0  0  0  0  0  0  0  0  0  0  0
   11.8057    1.1382   32.7007 C   0  0  0  0  0  0  0  0  0  0  0  0
   14.6216    2.3358   30.6202 C   0  0  0  0  0  0  0  0  0  0  0  0
   11.3255    3.9454   32.5651 C   0  0  0  0  0  0  0  0  0  0  0  0
   16.3150    2.7277   29.1679 F   0  0  0  0  0  0  0  0  0  0  0  0
   15.4929    1.8599   29.7284 C   0  0  0  0  0  0  0  0  0  0  0  0
   10.7789    1.7404   33.4329 C   0  0  0  0  0  0  0  0  0  0  0  0
   15.5184    0.5474   29.3752 C   0  0  0  0  0  0  0  0  0  0  0  0
   13.1941   -0.7238   31.9312 C   0  0  0  0  0  0  0  0  0  0  0  0
   12.6418    2.0009   31.9565 C   0  0  0  0  0  0  0  0  0  0  0  0
   12.3784    3.3720   31.9374 C   0  0  0  0  0  0  0  0  0  0  0  0
   10.4955    3.1018   33.3363 C   0  0  0  0  0  0  0  0  0  0  0  0
   12.1853   -2.6993   32.6268 C   0  0  0  0  0  0  0  0  0  0  0  0
   14.7337   -0.3276   30.0634 C   0  0  0  0  0  0  0  0  0  0  0  0
   13.7287    1.4784   31.2160 C   0  0  0  0  0  0  0  0  0  0  0  0
  1 16  1  0
  1 21  1  0
  1 22  1  0
  2  8  1  0
  2 20  1  0
  3  4  1  0
  3  6  1  0
  5 16  1  0
  5 20  1  0
  6 20  1  0
  7 19  1  0
  8  9  2  0
  8 16  1  0
  9 14  1  0
  9 17  1  0
 10 13  2  0
 10 22  1  0
 11 18  2  0
 11 19  1  0
 12 13  1  0
 13 15  1  0
 14 19  2  0
 15 21  2  0
 17 18  1  0
 17 22  2  0
M  END
>  <ID>  (1) 
conformer_0

$$$$
