
     RDKit          3D

 22 24  0  0  0  0  0  0  0  0999 V2000
   12.9156   -1.9074   32.9357 C   0  0  0  0  0  0  0  0  0  0  0  0
   13.2096   -4.1704   34.1026 O   0  0  0  0  0  0  0  0  0  0  0  0
   13.6533   -2.9005   33.7990 C   0  0  0  0  0  0  0  0  0  0  0  0
   10.1776    3.4581   33.0356 O   0  0  0  0  0  0  0  0  0  0  0  0
   14.7786   -0.3393   30.1521 N   0  0  0  0  0  0  0  0  0  0  0  0
   10.9256   -3.6691   32.9178 C   0  0  0  0  0  0  0  0  0  0  0  0
   12.3387    4.3544   33.6601 C   0  0  0  0  0  0  0  0  0  0  0  0
   13.8619   -0.5621   31.1547 C   0  0  0  0  0  0  0  0  0  0  0  0
   13.8406    1.7446   31.4990 C   0  0  0  0  0  0  0  0  0  0  0  0
   13.6462    3.9800   32.8613 C   0  0  0  0  0  0  0  0  0  0  0  0
   10.9776   -4.2643   31.7530 O   0  0  0  0  0  0  0  0  0  0  0  0
   13.2604    2.6749   32.3085 N   0  0  0  0  0  0  0  0  0  0  0  0
   13.2546    0.4928   31.7647 C   0  0  0  0  0  0  0  0  0  0  0  0
   11.3837    3.1273   33.6534 C   0  0  0  0  0  0  0  0  0  0  0  0
   15.1806    0.9358   29.9157 C   0  0  0  0  0  0  0  0  0  0  0  0
   10.3349   -4.2291   33.8829 O   0  0  0  0  0  0  0  0  0  0  0  0
   13.5414   -1.9227   31.5903 C   0  0  0  0  0  0  0  0  0  0  0  0
   12.1342    2.0616   32.9283 C   0  0  0  0  0  0  0  0  0  0  0  0
   11.4850   -2.2844   33.0618 C   0  0  0  0  0  0  0  0  0  0  0  0
   13.9091   -3.0348   31.1384 O   0  0  0  0  0  0  0  0  0  0  0  0
   14.7511    1.9596   30.5680 N   0  0  0  0  0  0  0  0  0  0  0  0
   12.1695    0.6896   32.6568 C   0  0  0  0  0  0  0  0  0  0  0  0
  1  3  1  0
  1 17  1  0
  1 19  1  0
  2  3  1  0
  4 14  1  0
  5  8  2  0
  5 15  1  0
  6 11  2  0
  6 16  1  0
  6 19  1  0
  7 10  1  0
  7 14  1  0
  8 13  1  0
  8 17  1  0
  9 12  1  0
  9 13  2  0
  9 21  1  0
 10 12  1  0
 12 18  1  0
 13 22  1  0
 14 18  1  0
 15 21  2  0
 17 20  2  0
 18 22  1  0
M  END
>  <ID>  (1) 
conformer_0

$$$$
