
     RDKit          3D

 22 24  0  0  0  0  0  0  0  0999 V2000
   13.8859    1.5492   31.2795 C   0  0  0  0  0  0  0  0  0  0  0  0
   11.7944    0.3212   32.6497 C   0  0  0  0  0  0  0  0  0  0  0  0
   15.3661    0.0945   29.5007 C   0  0  0  0  0  0  0  0  0  0  0  0
   11.1737    4.8781   33.1496 C   0  0  0  0  0  0  0  0  0  0  0  0
   12.4769   -1.9002   32.1491 C   0  0  0  0  0  0  0  0  0  0  0  0
   13.0495    2.3532   32.0631 C   0  0  0  0  0  0  0  0  0  0  0  0
   12.4734    4.7673   32.6280 C   0  0  0  0  0  0  0  0  0  0  0  0
   10.9080    2.4797   33.1726 C   0  0  0  0  0  0  0  0  0  0  0  0
   11.0125   -3.9440   32.6791 C   0  0  0  0  0  0  0  0  0  0  0  0
   13.1680    3.7304   32.2109 C   0  0  0  0  0  0  0  0  0  0  0  0
   11.6874   -2.6596   33.2097 C   0  0  0  0  0  0  0  0  0  0  0  0
   10.5891   -4.1404   31.4449 O   0  0  0  0  0  0  0  0  0  0  0  0
   13.7322    0.1577   31.2375 C   0  0  0  0  0  0  0  0  0  0  0  0
   10.7102   -0.1819   33.0686 O   0  0  0  0  0  0  0  0  0  0  0  0
   12.7602   -0.5268   32.0331 N   0  0  0  0  0  0  0  0  0  0  0  0
   15.5318    1.4606   29.5672 C   0  0  0  0  0  0  0  0  0  0  0  0
   11.9064    1.7347   32.6656 C   0  0  0  0  0  0  0  0  0  0  0  0
   10.4330    3.6926   33.4063 C   0  0  0  0  0  0  0  0  0  0  0  0
   10.6970   -4.8309   33.5243 O   0  0  0  0  0  0  0  0  0  0  0  0
   13.2206   -3.0051   31.5031 C   0  0  0  0  0  0  0  0  0  0  0  0
   14.5002   -0.5395   30.3317 C   0  0  0  0  0  0  0  0  0  0  0  0
   14.8207    2.1618   30.4504 C   0  0  0  0  0  0  0  0  0  0  0  0
  1  6  1  0
  1 13  2  0
  1 22  1  0
  2 14  2  0
  2 15  1  0
  2 17  1  0
  3 16  1  0
  3 21  2  0
  4  7  1  0
  4 18  1  0
  5 11  1  0
  5 15  1  0
  5 20  1  0
  6 10  1  0
  6 17  2  0
  7 10  2  0
  8 17  1  0
  8 18  2  0
  9 11  1  0
  9 12  2  0
  9 19  1  0
 13 15  1  0
 13 21  1  0
 16 22  2  0
M  END
>  <ID>  (1) 
conformer_0

$$$$
