
     RDKit          3D

 29 31  0  0  0  0  0  0  0  0999 V2000
   13.2511    0.1443   32.0774 C   0  0  0  0  0  0  0  0  0  0  0  0
   15.1211    0.2928   29.8724 C   0  0  0  0  0  0  0  0  0  0  0  0
   10.9117    1.9662   33.1085 C   0  0  0  0  0  0  0  0  0  0  0  0
   14.1754    2.1774   31.0847 C   0  0  0  0  0  0  0  0  0  0  0  0
   12.4432    2.1859   32.8678 C   0  0  0  0  0  0  0  0  0  0  0  0
   11.9373    4.7539   31.6757 C   0  0  0  0  0  0  0  0  0  0  0  0
   10.7246    1.2283   34.2809 O   0  0  0  0  0  0  0  0  0  0  0  0
   15.0320    1.6432   30.1653 C   0  0  0  0  0  0  0  0  0  0  0  0
   13.5287   -2.3202   31.9468 C   0  0  0  0  0  0  0  0  0  0  0  0
   14.6381   -0.7613   30.4211 C   0  0  0  0  0  0  0  0  0  0  0  0
   13.7729   -0.9556   31.5122 C   0  0  0  0  0  0  0  0  0  0  0  0
   11.5942   -3.6104   33.0211 C   0  0  0  0  0  0  0  0  0  0  0  0
   12.9714    3.3701   33.4979 C   0  0  0  0  0  0  0  0  0  0  0  0
   10.7279    5.7512   31.7216 C   0  0  0  0  0  0  0  0  0  0  0  0
   14.0866    3.8900   34.0815 N   0  0  0  0  0  0  0  0  0  0  0  0
   10.4963    3.5679   33.2714 C   0  0  0  0  0  0  0  0  0  0  0  0
   12.8506   -2.7599   33.1511 C   0  0  0  0  0  0  0  0  0  0  0  0
   10.5022   -2.9848   33.8637 C   0  0  0  0  0  0  0  0  0  0  0  0
   11.0354   -2.1148   34.8839 O   0  0  0  0  0  0  0  0  0  0  0  0
   13.9697   -3.2832   31.0767 O   0  0  0  0  0  0  0  0  0  0  0  0
   13.3046    1.4981   31.9593 C   0  0  0  0  0  0  0  0  0  0  0  0
   10.1397    1.4700   32.0954 O   0  0  0  0  0  0  0  0  0  0  0  0
   13.7428   -3.3227   34.0877 O   0  0  0  0  0  0  0  0  0  0  0  0
   11.8566    4.3458   33.1766 C   0  0  0  0  0  0  0  0  0  0  0  0
   13.8669    4.6938   35.2260 C   0  0  0  0  0  0  0  0  0  0  0  0
   11.8200    5.5740   34.0101 C   0  0  0  0  0  0  0  0  0  0  0  0
   11.2785   -3.9808   31.7217 O   0  0  0  0  0  0  0  0  0  0  0  0
   15.8466    2.4284   29.5217 F   0  0  0  0  0  0  0  0  0  0  0  0
   12.6872    5.5832   35.1880 C   0  0  0  0  0  0  0  0  0  0  0  0
  1 11  2  0
  1 21  1  0
  2  8  1  0
  2 10  2  0
  3  5  1  0
  3  7  1  0
  3 16  1  0
  3 22  1  0
  4  8  2  0
  4 21  1  0
  5 13  1  0
  5 21  1  0
  6 14  1  0
  6 24  1  0
  8 28  1  0
  9 11  1  0
  9 17  1  0
  9 20  1  0
 10 11  1  0
 12 17  1  0
 12 18  1  0
 12 27  1  0
 13 15  1  0
 13 24  1  0
 15 25  1  0
 16 24  1  0
 17 23  1  0
 18 19  1  0
 24 26  1  0
 25 29  2  0
 26 29  1  0
M  END
>  <ID>  (1) 
conformer_0

$$$$
