
     RDKit          3D

 15 17  0  0  0  0  0  0  0  0999 V2000
   13.0156   -2.9537   32.2194 C   0  0  0  0  0  0  0  0  0  0  0  0
   11.5847    1.2864   33.0819 C   0  0  0  0  0  0  0  0  0  0  0  0
   11.9940    0.0543   32.7010 C   0  0  0  0  0  0  0  0  0  0  0  0
   10.7581   -3.5278   31.7700 O   0  0  0  0  0  0  0  0  0  0  0  0
   14.1970    2.1404   30.8179 C   0  0  0  0  0  0  0  0  0  0  0  0
   12.3074    2.2628   32.4344 N   0  0  0  0  0  0  0  0  0  0  0  0
   12.9241   -4.0086   33.1226 O   0  0  0  0  0  0  0  0  0  0  0  0
   14.0134   -2.0937   31.5988 C   0  0  0  0  0  0  0  0  0  0  0  0
   13.0547    0.2285   31.8497 C   0  0  0  0  0  0  0  0  0  0  0  0
   13.9320   -0.6743   31.2699 C   0  0  0  0  0  0  0  0  0  0  0  0
   14.8830   -0.1493   30.3023 C   0  0  0  0  0  0  0  0  0  0  0  0
   11.4055   -1.2567   33.0398 C   0  0  0  0  0  0  0  0  0  0  0  0
   14.9894    1.2241   30.1260 C   0  0  0  0  0  0  0  0  0  0  0  0
   11.5394   -2.4119   32.0919 C   0  0  0  0  0  0  0  0  0  0  0  0
   13.2220    1.5949   31.6705 C   0  0  0  0  0  0  0  0  0  0  0  0
  1  7  1  0
  1  8  1  0
  1 14  1  0
  2  3  1  0
  2  6  1  0
  3  9  2  0
  3 12  1  0
  4 14  1  0
  5 13  1  0
  5 15  2  0
  6 15  1  0
  8 10  1  0
  9 10  1  0
  9 15  1  0
 10 11  2  0
 11 13  1  0
 12 14  1  0
M  END
>  <ID>  (1) 
conformer_0

$$$$
