
     RDKit          3D

 20 22  0  0  0  0  0  0  0  0999 V2000
   14.2912    0.0218   30.8430 C   0  0  0  0  0  0  0  0  0  0  0  0
   13.4506    0.9848   31.4021 C   0  0  0  0  0  0  0  0  0  0  0  0
   13.2055   -3.1080   32.5180 C   0  0  0  0  0  0  0  0  0  0  0  0
   11.0043   -5.0260   32.2068 O   0  0  0  0  0  0  0  0  0  0  0  0
   12.1512   -3.4541   33.5587 C   0  0  0  0  0  0  0  0  0  0  0  0
   14.1595   -1.2733   31.1458 N   0  0  0  0  0  0  0  0  0  0  0  0
   12.3558   -0.6745   32.6946 C   0  0  0  0  0  0  0  0  0  0  0  0
   12.9790    3.4075   31.4711 C   0  0  0  0  0  0  0  0  0  0  0  0
   11.8366    3.7200   32.1057 C   0  0  0  0  0  0  0  0  0  0  0  0
   15.5890    1.6786   29.7746 C   0  0  0  0  0  0  0  0  0  0  0  0
    9.8262   -3.3184   32.9572 O   0  0  0  0  0  0  0  0  0  0  0  0
   11.4257    1.4609   32.7214 C   0  0  0  0  0  0  0  0  0  0  0  0
   13.2492   -1.6342   32.0916 C   0  0  0  0  0  0  0  0  0  0  0  0
   13.7209    2.3111   31.1000 C   0  0  0  0  0  0  0  0  0  0  0  0
   14.8460    2.6236   30.3516 C   0  0  0  0  0  0  0  0  0  0  0  0
   11.5419   -0.9612   33.6857 O   0  0  0  0  0  0  0  0  0  0  0  0
   10.8881   -3.9797   32.8870 C   0  0  0  0  0  0  0  0  0  0  0  0
   11.0280    2.7452   32.7145 C   0  0  0  0  0  0  0  0  0  0  0  0
   15.3056    0.3639   29.9451 C   0  0  0  0  0  0  0  0  0  0  0  0
   12.4034    0.6400   32.2562 C   0  0  0  0  0  0  0  0  0  0  0  0
  1  2  1  0
  1  6  2  0
  1 19  1  0
  2 14  2  0
  2 20  1  0
  3  5  1  0
  3 13  2  3
  4 17  2  0
  5 17  1  0
  6 13  1  0
  7 13  1  0
  7 16  1  0
  7 20  2  0
  8  9  2  0
  8 14  1  0
  9 18  1  0
 10 15  2  0
 10 19  1  0
 11 17  1  0
 12 18  2  0
 12 20  1  0
 14 15  1  0
M  END
>  <ID>  (1) 
conformer_0

$$$$
