
     RDKit          3D

 20 22  0  0  0  0  0  0  0  0999 V2000
    9.8207   -3.3545   33.1942 O   0  0  0  0  0  0  0  0  0  0  0  0
   12.9942   -2.5190   32.4730 C   0  0  0  0  0  0  0  0  0  0  0  0
   13.8875    3.3778   31.6748 C   0  0  0  0  0  0  0  0  0  0  0  0
   13.2702   -1.1866   32.7023 N   0  0  0  0  0  0  0  0  0  0  0  0
   10.9513   -3.8673   32.9722 C   0  0  0  0  0  0  0  0  0  0  0  0
   15.0848    1.8606   30.2339 C   0  0  0  0  0  0  0  0  0  0  0  0
   12.1834   -3.2251   33.4825 C   0  0  0  0  0  0  0  0  0  0  0  0
   13.6359   -3.0918   31.5021 O   0  0  0  0  0  0  0  0  0  0  0  0
   12.6268   -0.0491   32.3883 C   0  0  0  0  0  0  0  0  0  0  0  0
   14.2888    2.0716   31.4253 C   0  0  0  0  0  0  0  0  0  0  0  0
   12.1376   -2.5345   34.7575 C   0  0  0  0  0  0  0  0  0  0  0  0
   11.3567    0.2085   32.7649 C   0  0  0  0  0  0  0  0  0  0  0  0
   12.5640    3.4115   32.2544 C   0  0  0  0  0  0  0  0  0  0  0  0
   15.0370    0.4423   29.6732 C   0  0  0  0  0  0  0  0  0  0  0  0
   10.4143    2.8570   32.8408 C   0  0  0  0  0  0  0  0  0  0  0  0
   12.2704    2.0812   32.3457 C   0  0  0  0  0  0  0  0  0  0  0  0
   11.0790   -4.9140   32.1981 O   0  0  0  0  0  0  0  0  0  0  0  0
   13.2638    1.1858   31.9314 C   0  0  0  0  0  0  0  0  0  0  0  0
   11.0715    1.6187   32.7606 N   0  0  0  0  0  0  0  0  0  0  0  0
   11.3164    3.8576   32.6211 N   0  0  0  0  0  0  0  0  0  0  0  0
  1  5  2  0
  2  4  1  0
  2  7  1  0
  2  8  2  0
  3 10  1  0
  3 13  1  0
  4  9  1  0
  5  7  1  0
  5 17  1  0
  6 10  1  0
  6 14  1  0
  7 11  1  0
  9 12  1  0
  9 18  1  0
 10 18  1  0
 12 19  1  0
 13 16  2  0
 13 20  1  0
 15 19  1  0
 15 20  1  0
 16 18  1  0
 16 19  1  0
M  END
>  <ID>  (1) 
conformer_0

$$$$
