
     RDKit          3D

 11 10  0  0  0  0  0  0  0  0999 V2000
   13.6321   -3.1084   31.2081 O   0  0  0  0  0  0  0  0  0  0  0  0
   14.8878    1.3596   30.0871 C   0  0  0  0  0  0  0  0  0  0  0  0
   12.8104   -1.2192   32.4649 C   0  0  0  0  0  0  0  0  0  0  0  0
   10.4301   -1.4113   32.8513 O   0  0  0  0  0  0  0  0  0  0  0  0
   13.5270   -0.1819   31.6862 C   0  0  0  0  0  0  0  0  0  0  0  0
   14.1794    2.0235   31.0559 C   0  0  0  0  0  0  0  0  0  0  0  0
   12.5646   -3.5375   33.0850 O   0  0  0  0  0  0  0  0  0  0  0  0
   12.9858   -2.7028   32.2553 C   0  0  0  0  0  0  0  0  0  0  0  0
   14.7724    0.1161   30.0930 N   0  0  0  0  0  0  0  0  0  0  0  0
   11.5791   -0.7498   33.1001 C   0  0  0  0  0  0  0  0  0  0  0  0
   13.4541    1.1152   31.8713 C   0  0  0  0  0  0  0  0  0  0  0  0
  1  8  2  0
  2  6  1  0
  2  9  2  0
  3  5  1  0
  3  8  1  0
  3 10  1  0
  4 10  1  0
  5 11  2  3
  6 11  1  0
  7  8  1  0
M  END
>  <ID>  (1) 
conformer_0

$$$$
