
     RDKit          3D

 19 21  0  0  0  0  0  0  0  0999 V2000
   14.6701   -3.2444   31.9085 O   0  0  0  0  0  0  0  0  0  0  0  0
    9.9223   -3.7308   33.1847 O   0  0  0  0  0  0  0  0  0  0  0  0
   11.1919   -1.8193   33.2445 C   0  0  0  0  0  0  0  0  0  0  0  0
   12.5490    0.0126   32.4777 C   0  0  0  0  0  0  0  0  0  0  0  0
   12.7626   -3.5393   33.0569 C   0  0  0  0  0  0  0  0  0  0  0  0
   11.7647    1.0677   32.8259 C   0  0  0  0  0  0  0  0  0  0  0  0
   10.8109   -1.6119   34.5840 O   0  0  0  0  0  0  0  0  0  0  0  0
   13.8531    1.4389   31.0394 C   0  0  0  0  0  0  0  0  0  0  0  0
   13.0584    2.5147   31.4245 C   0  0  0  0  0  0  0  0  0  0  0  0
   14.1802   -1.0759   31.2073 C   0  0  0  0  0  0  0  0  0  0  0  0
   11.2517   -3.3653   32.8675 C   0  0  0  0  0  0  0  0  0  0  0  0
   12.5079   -1.2798   32.9665 C   0  0  0  0  0  0  0  0  0  0  0  0
   13.5623    0.1513   31.5496 C   0  0  0  0  0  0  0  0  0  0  0  0
   13.3037    3.7022   30.8983 F   0  0  0  0  0  0  0  0  0  0  0  0
   11.6477   -3.8627   31.6505 O   0  0  0  0  0  0  0  0  0  0  0  0
   13.4822   -2.2293   32.2578 C   0  0  0  0  0  0  0  0  0  0  0  0
   14.8758   -1.2493   30.2272 O   0  0  0  0  0  0  0  0  0  0  0  0
   12.0100    2.3427   32.3014 C   0  0  0  0  0  0  0  0  0  0  0  0
   15.1599    1.7375   29.9609 Cl  0  0  0  0  0  0  0  0  0  0  0  0
  1 16  1  0
  2 11  1  0
  3  7  1  0
  3 11  1  0
  3 12  1  0
  4  6  1  0
  4 12  1  0
  4 13  2  0
  5 11  1  0
  5 16  1  0
  6 18  2  0
  8  9  2  0
  8 13  1  0
  8 19  1  0
  9 14  1  0
  9 18  1  0
 10 13  1  0
 10 16  1  0
 10 17  2  0
 11 15  1  0
 12 16  1  0
M  END
>  <ID>  (1) 
conformer_0

$$$$
