
     RDKit          3D

 17 17  0  0  0  0  0  0  0  0999 V2000
   13.1381    3.6954   33.1222 C   0  0  0  0  0  0  0  0  0  0  0  0
   11.6927   -3.3298   32.3330 P   0  0  0  0  0  4  0  0  0  0  0  0
   14.8518    3.6597   31.4289 O   0  0  0  0  0  0  0  0  0  0  0  0
   14.2758    0.7751   30.8598 C   0  0  0  0  0  0  0  0  0  0  0  0
   12.1092   -4.1032   33.6026 O   0  0  0  0  0  1  0  0  0  0  0  0
   11.0565   -4.2883   31.3278 O   0  0  0  0  0  0  0  0  0  0  0  0
   12.6657   -0.3636   32.7757 C   0  0  0  0  0  0  0  0  0  0  0  0
   13.6751    1.5921   31.8702 C   0  0  0  0  0  0  0  0  0  0  0  0
   11.9233    4.2313   32.7169 N   0  0  0  0  0  0  0  0  0  0  0  0
   13.0740   -2.5883   31.8184 O   0  0  0  0  0  0  0  0  0  0  0  0
   10.6083   -2.2912   32.7416 O   0  0  0  0  0  0  0  0  0  0  0  0
   12.8131    0.9639   32.7705 C   0  0  0  0  0  0  0  0  0  0  0  0
   13.2780   -1.1857   31.8383 C   0  0  0  0  0  0  0  0  0  0  0  0
   13.9347    3.0317   32.0452 C   0  0  0  0  0  0  0  0  0  0  0  0
   14.1015   -0.6030   30.8781 C   0  0  0  0  0  0  0  0  0  0  0  0
   13.8405    3.6555   34.3832 O   0  0  0  0  0  0  0  0  0  0  0  0
   15.0913    1.2491   29.6527 C   0  0  0  0  0  0  0  0  0  0  0  0
  1  9  1  0
  1 14  1  0
  1 16  2  0
  2  5  2  0
  2  6  1  0
  2 10  1  0
  2 11  1  0
  3 14  2  0
  4  8  2  0
  4 15  1  0
  4 17  1  0
  7 12  2  0
  7 13  1  0
  8 12  1  0
  8 14  1  0
 10 13  1  0
 13 15  2  0
M  END
>  <ID>  (1) 
conformer_0

$$$$
