
     RDKit          3D

 21 23  0  0  0  0  0  0  0  0999 V2000
   10.5513    2.2040   33.1297 C   0  0  0  0  0  0  0  0  0  0  0  0
   14.6728   -0.2581   30.2695 C   0  0  0  0  0  0  0  0  0  0  0  0
   11.2135   -4.9634   33.0335 O   0  0  0  0  0  1  0  0  0  0  0  0
   13.0762   -2.9065   33.7619 C   0  0  0  0  0  0  0  0  0  0  0  0
   13.5174   -1.5250   33.0273 C   0  0  0  0  0  0  0  0  0  0  0  0
   13.8104    0.3214   31.1971 C   0  0  0  0  0  0  0  0  0  0  0  0
   10.2740    3.5264   32.9063 C   0  0  0  0  0  0  0  0  0  0  0  0
   11.0610    4.2827   32.0479 C   0  0  0  0  0  0  0  0  0  0  0  0
   12.1623    3.7003   31.5002 C   0  0  0  0  0  0  0  0  0  0  0  0
   13.9022   -2.7108   34.9833 O   0  0  0  0  0  0  0  0  0  0  0  0
   11.8199   -3.5942   32.6447 P   0  0  0  0  0  4  0  0  0  0  0  0
   10.6308   -2.6627   32.4257 O   0  0  0  0  0  0  0  0  0  0  0  0
   15.5361    0.5393   29.5404 C   0  0  0  0  0  0  0  0  0  0  0  0
   12.5140    2.3785   31.7169 C   0  0  0  0  0  0  0  0  0  0  0  0
   12.5638   -3.7246   31.3189 O   0  0  0  0  0  0  0  0  0  0  0  0
   13.6611    1.7058   31.1646 C   0  0  0  0  0  0  0  0  0  0  0  0
   14.6433    2.4753   30.5457 C   0  0  0  0  0  0  0  0  0  0  0  0
   15.5747    1.8928   29.7571 C   0  0  0  0  0  0  0  0  0  0  0  0
   11.9743    0.2500   32.7304 N   0  0  0  0  0  0  0  0  0  0  0  0
   11.6629    1.5899   32.5440 C   0  0  0  0  0  0  0  0  0  0  0  0
   13.0587   -0.4103   32.1728 C   0  0  0  0  0  0  0  0  0  0  0  0
  1  7  2  0
  1 20  1  0
  2  6  1  0
  2 13  2  0
  3 11  2  0
  4  5  1  0
  4 10  1  0
  4 11  1  0
  5 21  1  0
  6 16  1  0
  6 21  1  0
  7  8  1  0
  8  9  2  0
  9 14  1  0
 11 12  1  0
 11 15  1  0
 13 18  1  0
 14 16  1  0
 14 20  2  0
 16 17  1  0
 17 18  2  0
 19 20  1  0
 19 21  1  0
M  END
>  <ID>  (1) 
conformer_0

$$$$
