
     RDKit          3D

 32 34  0  0  0  0  0  0  0  0999 V2000
   14.2733    2.8989   31.4931 C   0  0  0  0  0  0  0  0  0  0  0  0
   15.8229    2.5726   29.6844 C   0  0  0  0  0  0  0  0  0  0  0  0
    7.8314    4.6212   33.1634 C   0  0  0  0  0  0  0  0  0  0  0  0
   14.0519    5.1979   34.7937 N   0  0  0  0  0  0  0  0  0  0  0  0
   10.5221    4.1115   33.6724 C   0  0  0  0  0  0  0  0  0  0  0  0
   10.0897   -3.8889   33.9493 O   0  0  0  0  0  1  0  0  0  0  0  0
   12.0754    5.4720   35.7287 C   0  0  0  0  0  0  0  0  0  0  0  0
   10.5836   -4.3294   31.5500 O   0  0  0  0  0  1  0  0  0  0  0  0
   11.9703    3.6757   33.8900 C   0  0  0  0  0  0  0  0  0  0  0  0
   12.3773   -4.1387   33.1674 O   0  0  0  0  0  0  0  0  0  0  0  0
   12.2186    2.7580   32.9992 N   0  0  0  0  0  0  0  0  0  0  0  0
   13.2777   -3.1964   33.4625 C   0  0  0  0  0  0  0  0  0  0  0  0
   13.5634   -1.3801   31.9998 C   0  0  0  0  0  0  0  0  0  0  0  0
   13.3287    6.2779   35.9879 C   0  0  0  0  0  0  0  0  0  0  0  0
   12.6144    1.6037   32.5493 C   0  0  0  0  0  0  0  0  0  0  0  0
   13.9775   -2.6543   32.3637 O   0  0  0  0  0  0  0  0  0  0  0  0
    9.5908    3.9924   34.6827 C   0  0  0  0  0  0  0  0  0  0  0  0
   14.9042    0.4060   29.9186 C   0  0  0  0  0  0  0  0  0  0  0  0
   14.1720    0.5660   30.9705 C   0  0  0  0  0  0  0  0  0  0  0  0
   14.9940    4.6679   35.6962 C   0  0  0  0  0  0  0  0  0  0  0  0
   14.8484    3.3866   35.9970 O   0  0  0  0  0  0  0  0  0  0  0  0
   12.5991   -0.8014   32.7210 C   0  0  0  0  0  0  0  0  0  0  0  0
   10.1295    4.5088   32.3790 C   0  0  0  0  0  0  0  0  0  0  0  0
   15.2330    3.2285   30.6728 C   0  0  0  0  0  0  0  0  0  0  0  0
   15.6834    1.2651   29.2988 C   0  0  0  0  0  0  0  0  0  0  0  0
   13.7142    1.6619   31.6328 C   0  0  0  0  0  0  0  0  0  0  0  0
   14.1749   -0.6926   30.9756 C   0  0  0  0  0  0  0  0  0  0  0  0
   12.7887    4.5643   34.6953 C   0  0  0  0  0  0  0  0  0  0  0  0
    8.7918    4.7498   32.1190 C   0  0  0  0  0  0  0  0  0  0  0  0
   10.9280   -4.0877   32.8911 P   0  0  0  0  0  0  0  0  0  0  0  0
    8.2501    4.2443   34.4449 C   0  0  0  0  0  0  0  0  0  0  0  0
   12.1388    0.3807   32.9090 C   0  0  0  0  0  0  0  0  0  0  0  0
  1 24  2  0
  1 26  1  0
  2 24  1  0
  2 25  1  0
  3 29  2  0
  3 31  1  0
  4 20  1  0
  4 28  1  0
  5  9  1  0
  5 17  1  0
  5 23  2  0
  6 30  1  0
  7 14  1  0
  7 28  1  0
  8 30  1  0
  9 11  1  0
  9 28  1  0
 10 12  1  0
 10 30  1  0
 11 15  1  0
 12 16  1  0
 13 16  1  0
 13 22  1  0
 13 27  1  0
 15 26  2  0
 15 32  1  0
 17 31  2  0
 18 19  1  0
 18 25  2  0
 19 26  1  0
 19 27  2  0
 20 21  1  0
 22 32  2  0
 23 29  1  0
M  END
>  <ID>  (1) 
conformer_0

$$$$
