
     RDKit          3D

 29 32  0  0  0  0  0  0  0  0999 V2000
   11.8956    6.1679   34.4069 C   0  0  0  0  0  0  0  0  0  0  0  0
   12.3521    2.4053   32.6987 N   0  0  0  0  0  0  0  0  0  0  0  0
   10.9379    5.1952   34.6738 C   0  0  0  0  0  0  0  0  0  0  0  0
   14.4194    2.9103   31.0014 C   0  0  0  0  0  0  0  0  0  0  0  0
   11.4943   -1.6602   33.1725 C   0  0  0  0  0  0  0  0  0  0  0  0
   15.0723    1.8519   30.1369 N   0  0  0  0  0  0  0  0  0  0  0  0
   13.5471    0.8190   31.4316 C   0  0  0  0  0  0  0  0  0  0  0  0
   12.4408   -1.1299   32.3880 C   0  0  0  0  0  0  0  0  0  0  0  0
   10.5474   -4.0456   32.9295 C   0  0  0  0  0  0  0  0  0  0  0  0
   12.1218    3.6424   33.2927 C   0  0  0  0  0  0  0  0  0  0  0  0
   10.5816   -0.7498   33.7791 C   0  0  0  0  0  0  0  0  0  0  0  0
   14.8389   -3.6715   34.4933 O   0  0  0  0  0  0  0  0  0  0  0  0
   11.8356    1.0970   32.9356 C   0  0  0  0  0  0  0  0  0  0  0  0
   11.0660    3.9281   34.1045 C   0  0  0  0  0  0  0  0  0  0  0  0
   15.9658    2.1673   29.2432 N   0  0  0  0  0  0  0  0  0  0  0  0
   13.4411    2.2415   31.7548 C   0  0  0  0  0  0  0  0  0  0  0  0
   14.7438   -0.5289   29.8976 O   0  0  0  0  0  0  0  0  0  0  0  0
   14.4768    0.6117   30.4415 C   0  0  0  0  0  0  0  0  0  0  0  0
    9.9104   -4.5292   33.9296 O   0  0  0  0  0  0  0  0  0  0  0  0
   10.7780    0.6387   33.6479 C   0  0  0  0  0  0  0  0  0  0  0  0
   12.7448   -3.8919   33.6528 O   0  0  0  0  0  0  0  0  0  0  0  0
   11.6047   -3.1387   33.4284 C   0  0  0  0  0  0  0  0  0  0  0  0
   12.6285    0.1757   32.2245 C   0  0  0  0  0  0  0  0  0  0  0  0
   14.5575   -3.2247   32.2801 O   0  0  0  0  0  0  0  0  0  0  0  0
   13.0368    4.6741   33.0368 C   0  0  0  0  0  0  0  0  0  0  0  0
    9.8975    1.4532   34.2193 O   0  0  0  0  0  0  0  0  0  0  0  0
   12.9690    5.8879   33.5655 C   0  0  0  0  0  0  0  0  0  0  0  0
   10.4847   -4.3480   31.6871 O   0  0  0  0  0  0  0  0  0  0  0  0
   14.0593   -3.5530   33.4716 C   0  0  0  0  0  0  0  0  0  0  0  0
  1  3  2  0
  1 27  1  0
  2 10  1  0
  2 13  1  0
  2 16  1  0
  3 14  1  0
  4  6  1  0
  4 16  1  0
  5  8  1  0
  5 11  2  0
  5 22  1  0
  6 15  1  0
  6 18  1  0
  7 16  2  0
  7 18  1  0
  7 23  1  0
  8 23  2  0
  9 19  2  0
  9 22  1  0
  9 28  1  0
 10 14  2  0
 10 25  1  0
 11 20  1  0
 12 29  2  0
 13 20  2  0
 13 23  1  0
 17 18  2  0
 20 26  1  0
 21 22  1  0
 21 29  1  0
 24 29  1  0
 25 27  2  0
M  END
>  <ID>  (1) 
conformer_0

$$$$
