
     RDKit          3D

 21 23  0  0  0  0  0  0  0  0999 V2000
   10.6245   -4.0470   31.5425 O   0  0  0  0  0  0  0  0  0  0  0  0
   11.8078    1.3427   32.2086 C   0  0  0  0  0  0  0  0  0  0  0  0
   13.9883    0.8865   31.4427 C   0  0  0  0  0  0  0  0  0  0  0  0
   10.6951    3.4956   32.1041 C   0  0  0  0  0  0  0  0  0  0  0  0
   13.5962   -2.8990   31.7872 C   0  0  0  0  0  0  0  0  0  0  0  0
   12.9354    1.9013   31.6215 C   0  0  0  0  0  0  0  0  0  0  0  0
   14.0526   -1.5512   31.8039 N   0  0  0  0  0  0  0  0  0  0  0  0
   11.6809   -2.7136   33.3574 C   0  0  0  0  0  0  0  0  0  0  0  0
   14.0588   -3.0938   34.0682 O   0  0  0  0  0  0  0  0  0  0  0  0
   11.4059   -1.4162   32.6273 C   0  0  0  0  0  0  0  0  0  0  0  0
   15.2410    0.0387   29.6432 O   0  0  0  0  0  0  0  0  0  0  0  0
   12.0578   -0.1050   32.4268 C   0  0  0  0  0  0  0  0  0  0  0  0
   11.8015    4.0382   31.5324 C   0  0  0  0  0  0  0  0  0  0  0  0
   14.9274    0.9879   30.3753 C   0  0  0  0  0  0  0  0  0  0  0  0
   13.0681   -3.3040   33.1480 C   0  0  0  0  0  0  0  0  0  0  0  0
   10.7767   -3.8614   32.8023 C   0  0  0  0  0  0  0  0  0  0  0  0
   15.4673    2.1379   30.1673 N   0  0  0  0  0  0  0  0  0  0  0  0
   13.4498   -0.3661   31.8978 C   0  0  0  0  0  0  0  0  0  0  0  0
   12.9206    3.2397   31.3106 C   0  0  0  0  0  0  0  0  0  0  0  0
   10.5724   -4.7939   33.5906 O   0  0  0  0  0  0  0  0  0  0  0  0
   10.6945    2.1533   32.4459 C   0  0  0  0  0  0  0  0  0  0  0  0
  1 16  2  0
  2  6  2  0
  2 12  1  0
  2 21  1  0
  3  6  1  0
  3 14  1  0
  3 18  1  0
  4 13  1  0
  4 21  2  0
  5  7  1  0
  5 15  1  0
  6 19  1  0
  7 18  1  0
  8 10  1  0
  8 15  1  0
  8 16  1  0
  9 15  1  0
 10 12  1  0
 11 14  2  0
 12 18  2  0
 13 19  2  0
 14 17  1  0
 16 20  1  0
M  END
>  <ID>  (1) 
conformer_0

$$$$
