
     RDKit          3D

 12 12  0  0  0  0  0  0  0  0999 V2000
   11.9052   -1.3953   32.6341 C   0  0  0  0  0  0  0  0  0  0  0  0
   14.6679    1.1913   30.5261 C   0  0  0  0  0  0  0  0  0  0  0  0
   14.6709   -0.1602   30.3194 C   0  0  0  0  0  0  0  0  0  0  0  0
   15.6333    2.1009   29.5754 Cl  0  0  0  0  0  0  0  0  0  0  0  0
   13.2301   -3.3985   32.0224 O   0  0  0  0  0  0  0  0  0  0  0  0
   10.9945   -3.5756   31.8877 O   0  0  0  0  0  0  0  0  0  0  0  0
   12.9085   -0.4854   31.9636 C   0  0  0  0  0  0  0  0  0  0  0  0
   13.8232   -0.9752   31.0380 C   0  0  0  0  0  0  0  0  0  0  0  0
   13.8527    1.7278   31.4986 C   0  0  0  0  0  0  0  0  0  0  0  0
   12.9742    0.8953   32.2121 C   0  0  0  0  0  0  0  0  0  0  0  0
   12.0467   -2.8664   32.1455 C   0  0  0  0  0  0  0  0  0  0  0  0
   10.6518   -1.0431   32.9845 O   0  0  0  0  0  0  0  0  0  0  0  0
  1  7  1  0
  1 11  1  0
  1 12  1  0
  2  3  2  0
  2  4  1  0
  2  9  1  0
  3  8  1  0
  5 11  2  0
  6 11  1  0
  7  8  2  0
  7 10  1  0
  9 10  2  0
M  END
>  <ID>  (1) 
conformer_0

$$$$
