
     RDKit          3D

 13 12  0  0  0  0  0  0  0  0999 V2000
   12.3602   -0.8023   32.3823 C   0  0  0  0  0  0  0  0  0  0  0  0
   15.6860    2.0620   29.6319 C   0  0  0  0  0  0  0  0  0  0  0  0
   14.6668    1.9902   30.7612 C   0  0  0  0  0  0  0  0  0  0  0  0
   13.8558   -3.1881   31.0919 O   0  0  0  0  0  0  0  0  0  0  0  0
   10.9626    0.7150   33.6080 O   0  0  0  0  0  0  0  0  0  0  0  0
   14.1152    0.5852   30.8544 C   0  0  0  0  0  0  0  0  0  0  0  0
   11.1066   -0.4308   33.0789 C   0  0  0  0  0  0  0  0  0  0  0  0
   14.6917   -0.2707   29.9698 O   0  0  0  0  0  0  0  0  0  0  0  0
   13.3408    0.2361   32.0200 C   0  0  0  0  0  0  0  0  0  0  0  0
   11.8755   -3.9337   31.7568 O   0  0  0  0  0  0  0  0  0  0  0  0
   12.8821   -2.1311   32.9631 C   0  0  0  0  0  0  0  0  0  0  0  0
   10.2720   -1.3763   33.2706 O   0  0  0  0  0  0  0  0  0  0  0  0
   12.9141   -3.2280   31.9202 C   0  0  0  0  0  0  0  0  0  0  0  0
  1  7  1  0
  1  9  1  0
  1 11  1  0
  2  3  1  0
  3  6  1  0
  4 13  2  0
  5  7  2  0
  6  8  1  0
  6  9  1  0
  7 12  1  0
 10 13  1  0
 11 13  1  0
M  END
>  <ID>  (1) 
conformer_0

$$$$
