
     RDKit          3D

 21 23  0  0  0  0  0  0  0  0999 V2000
   13.9900   -3.3975   33.4436 C   0  0  0  0  0  0  0  0  0  0  0  0
   11.2059   -3.9776   32.6792 C   0  0  0  0  0  0  0  0  0  0  0  0
   13.4549    0.5385   31.8194 C   0  0  0  0  0  0  0  0  0  0  0  0
   10.9431   -4.9999   32.0915 O   0  0  0  0  0  0  0  0  0  0  0  0
   12.9062    4.1866   31.8031 C   0  0  0  0  0  0  0  0  0  0  0  0
   16.1078    1.2155   29.5121 F   0  0  0  0  0  0  0  0  0  0  0  0
   11.9748    4.1611   32.8322 N   0  0  0  0  0  0  0  0  0  0  0  0
   13.5316    2.9716   31.5182 C   0  0  0  0  0  0  0  0  0  0  0  0
   14.2969    0.3914   30.7464 C   0  0  0  0  0  0  0  0  0  0  0  0
   14.6813    2.7543   30.7747 C   0  0  0  0  0  0  0  0  0  0  0  0
   13.4898   -2.8025   32.3262 C   0  0  0  0  0  0  0  0  0  0  0  0
   14.9725    1.4869   30.2552 C   0  0  0  0  0  0  0  0  0  0  0  0
   12.4090   -1.8016   32.4508 C   0  0  0  0  0  0  0  0  0  0  0  0
   10.3736    0.0102   32.9778 O   0  0  0  0  0  0  0  0  0  0  0  0
   12.6195   -0.3811   32.5145 N   0  0  0  0  0  0  0  0  0  0  0  0
   11.1134   -2.5260   32.7100 C   0  0  0  0  0  0  0  0  0  0  0  0
   11.8657    1.8018   32.8874 C   0  0  0  0  0  0  0  0  0  0  0  0
   11.3052    3.0322   33.0740 N   0  0  0  0  0  0  0  0  0  0  0  0
   13.0071    1.8473   32.0989 C   0  0  0  0  0  0  0  0  0  0  0  0
   11.5756    0.3584   33.0041 C   0  0  0  0  0  0  0  0  0  0  0  0
   13.7667   -3.1428   31.1429 O   0  0  0  0  0  0  0  0  0  0  0  0
  1 11  1  0
  2  4  2  0
  2 16  1  0
  3  9  1  0
  3 15  1  0
  3 19  1  0
  5  7  1  0
  5  8  2  0
  6 12  1  0
  7 18  1  0
  8 10  1  0
  8 19  1  0
  9 12  1  0
 10 12  1  0
 11 13  1  0
 11 21  2  0
 13 15  1  0
 13 16  1  0
 14 20  2  0
 15 20  1  0
 17 18  1  0
 17 19  2  0
 17 20  1  0
M  END
>  <ID>  (1) 
conformer_0

$$$$
