
     RDKit          3D

 12 12  0  0  0  0  0  0  0  0999 V2000
   10.9045   -2.7575   33.0669 O   0  0  0  0  0  0  0  0  0  0  0  0
   13.7402    0.2044   31.5845 C   0  0  0  0  0  0  0  0  0  0  0  0
   11.9900   -3.0333   32.5345 C   0  0  0  0  0  0  0  0  0  0  0  0
   15.1517    0.4740   29.6335 C   0  0  0  0  0  0  0  0  0  0  0  0
   13.7027    1.4865   32.0288 C   0  0  0  0  0  0  0  0  0  0  0  0
   12.1112   -3.9570   31.6862 O   0  0  0  0  0  0  0  0  0  0  0  0
   15.4435    1.7760   29.6357 C   0  0  0  0  0  0  0  0  0  0  0  0
   15.0729    2.7386   30.5274 C   0  0  0  0  0  0  0  0  0  0  0  0
   14.4242   -0.2356   30.4894 C   0  0  0  0  0  0  0  0  0  0  0  0
   14.2559    2.5940   31.6043 C   0  0  0  0  0  0  0  0  0  0  0  0
   13.2814   -2.1241   32.6524 C   0  0  0  0  0  0  0  0  0  0  0  0
   12.8911   -0.7254   32.3444 C   0  0  0  0  0  0  0  0  0  0  0  0
  1  3  2  0
  2  5  1  0
  2  9  1  0
  2 12  1  0
  3  6  1  0
  3 11  1  0
  4  7  1  0
  4  9  2  0
  5 10  2  0
  7  8  2  0
  8 10  1  0
 11 12  1  0
M  END
>  <ID>  (1) 
conformer_0

$$$$
