
     RDKit          3D

 16 17  0  0  0  0  0  0  0  0999 V2000
   14.3629    2.6704   30.8058 C   0  0  0  0  0  0  0  0  0  0  0  0
   13.7429   -1.5525   31.4020 O   0  0  0  0  0  0  0  0  0  0  0  0
   12.7928   -1.6490   32.4318 C   0  0  0  0  0  0  0  0  0  0  0  0
   13.1657    0.5120   32.1521 C   0  0  0  0  0  0  0  0  0  0  0  0
   14.7312    0.3342   30.1932 C   0  0  0  0  0  0  0  0  0  0  0  0
   13.9294   -0.1529   31.2147 C   0  0  0  0  0  0  0  0  0  0  0  0
   12.1637   -2.7993   32.9735 C   0  0  0  0  0  0  0  0  0  0  0  0
   11.3861   -3.7690   32.6474 C   0  0  0  0  0  0  0  0  0  0  0  0
   15.3667    2.0464   28.8271 F   0  0  0  0  0  0  0  0  0  0  0  0
   12.9534    1.8013   32.5083 N   0  0  0  0  0  0  0  0  0  0  0  0
   10.7950   -4.3853   31.7259 O   0  0  0  0  0  0  0  0  0  0  0  0
   12.4783   -0.4178   32.8938 N   0  0  0  0  0  0  0  0  0  0  0  0
   15.4309   -0.4522   29.4122 F   0  0  0  0  0  0  0  0  0  0  0  0
   14.8106    1.7116   29.9811 C   0  0  0  0  0  0  0  0  0  0  0  0
   12.5712   -3.9282   33.2543 O   0  0  0  0  0  0  0  0  0  0  0  0
   13.5826    2.7568   31.8775 C   0  0  0  0  0  0  0  0  0  0  0  0
  1 14  1  0
  1 16  1  0
  2  3  1  0
  2  6  1  0
  3  7  1  0
  3 12  1  0
  4  6  2  0
  4 10  1  0
  4 12  1  0
  5  6  1  0
  5 13  1  0
  5 14  2  0
  7  8  1  0
  7 15  1  0
  8 11  2  0
  9 14  1  0
 10 16  2  0
M  END
>  <ID>  (1) 
conformer_0

$$$$
