
     RDKit          3D

 32 35  0  0  0  0  0  0  0  0999 V2000
   12.8100   -0.2730   32.6227 C   0  0  0  0  0  0  0  0  0  0  0  0
   12.2562   -3.3513   33.0233 C   0  0  0  0  0  0  0  0  0  0  0  0
   16.0145    2.6409   29.2858 F   0  0  0  0  0  0  0  0  0  0  0  0
    9.8222   -3.9075   33.8372 O   0  0  0  0  0  1  0  0  0  0  0  0
   12.8267    5.8662   34.6449 C   0  0  0  0  0  0  0  0  0  0  0  0
   11.6930   -2.1100   33.9042 C   0  0  0  0  0  0  0  0  0  0  0  0
   11.8150    5.5772   33.7383 C   0  0  0  0  0  0  0  0  0  0  0  0
   14.3107   -0.2557   30.5591 C   0  0  0  0  0  0  0  0  0  0  0  0
   15.2043    1.8876   29.9880 C   0  0  0  0  0  0  0  0  0  0  0  0
   13.6224   -1.3758   32.8136 N   0  0  0  0  0  0  0  0  0  0  0  0
   10.4478    5.2129   31.5019 C   0  0  0  0  0  0  0  0  0  0  0  0
   13.4137   -2.6955   32.3709 C   0  0  0  0  0  0  0  0  0  0  0  0
   11.1091   -5.6273   32.6911 O   0  0  0  0  0  0  0  0  0  0  0  0
   13.5554    1.7098   31.7157 C   0  0  0  0  0  0  0  0  0  0  0  0
   12.6049    2.0901   32.7411 C   0  0  0  0  0  0  0  0  0  0  0  0
    9.6339    1.1746   33.7813 O   0  0  0  0  0  0  0  0  0  0  0  0
   14.3855    2.4945   30.9349 C   0  0  0  0  0  0  0  0  0  0  0  0
   13.6050    0.3099   31.5853 C   0  0  0  0  0  0  0  0  0  0  0  0
   11.9659    0.8470   33.1907 C   0  0  0  0  0  0  0  0  0  0  0  0
   10.3395   -3.8753   31.3715 O   0  0  0  0  0  0  0  0  0  0  0  0
   12.7887    3.3572   33.3484 C   0  0  0  0  0  0  0  0  0  0  0  0
   10.6435   -1.0140   34.1295 C   0  0  0  0  0  0  0  0  0  0  0  0
    9.8339   -1.1006   35.2697 O   0  0  0  0  0  0  0  0  0  0  0  0
   13.8197    3.7097   34.1947 C   0  0  0  0  0  0  0  0  0  0  0  0
   10.8144    3.9613   32.1932 O   0  0  0  0  0  0  0  0  0  0  0  0
   14.0459   -3.1855   31.3988 O   0  0  0  0  0  0  0  0  0  0  0  0
   10.8324   -4.1772   32.7198 P   0  0  0  0  0  4  0  0  0  0  0  0
   15.1135    0.5078   29.7608 C   0  0  0  0  0  0  0  0  0  0  0  0
   11.7994    4.3310   33.1127 C   0  0  0  0  0  0  0  0  0  0  0  0
   13.8426    4.9429   34.8464 C   0  0  0  0  0  0  0  0  0  0  0  0
   12.6516   -2.0929   34.9446 O   0  0  0  0  0  0  0  0  0  0  0  0
   10.6629    0.3945   33.5876 C   0  0  0  0  0  0  0  0  0  0  0  0
  1 10  1  0
  1 18  1  0
  1 19  1  0
  2  6  1  0
  2 12  1  0
  2 27  1  0
  3  9  1  0
  4 27  2  0
  5  7  2  0
  5 30  1  0
  6 22  1  0
  6 31  1  0
  7 29  1  0
  8 18  2  0
  8 28  1  0
  9 17  1  0
  9 28  2  0
 10 12  1  0
 11 25  1  0
 12 26  2  0
 13 27  1  0
 14 15  1  0
 14 17  2  0
 14 18  1  0
 15 19  1  0
 15 21  1  0
 16 32  1  0
 19 32  1  0
 20 27  1  0
 21 24  1  0
 21 29  2  0
 22 23  1  0
 22 32  1  0
 24 30  2  0
 25 29  1  0
M  END
>  <ID>  (1) 
conformer_0

$$$$
