
     RDKit          3D

 29 31  0  0  0  0  0  0  0  0999 V2000
   13.5413   -1.6425   32.6336 O   0  0  0  0  0  0  0  0  0  0  0  0
   10.5723   -3.6795   33.3415 C   0  0  0  0  0  0  0  0  0  0  0  0
    9.9781    4.9230   34.4151 O   0  0  0  0  0  0  0  0  0  0  0  0
   15.6811   -5.9937   34.6643 O   0  0  0  0  0  0  0  0  0  0  0  0
   17.8089   -4.8043   33.5890 O   0  0  0  0  0  0  0  0  0  0  0  0
   14.6203    2.5403   30.5718 C   0  0  0  0  0  0  0  0  0  0  0  0
   10.2114    2.4819   34.5204 N   0  0  0  0  0  0  0  0  0  0  0  0
   11.4817    3.6627   33.0308 C   0  0  0  0  0  0  0  0  0  0  0  0
    9.6856   -2.7957   33.1332 O   0  0  0  0  0  0  0  0  0  0  0  0
   14.1090   -3.4952   33.8706 O   0  0  0  0  0  0  0  0  0  0  0  0
   14.5047   -0.2541   30.4465 C   0  0  0  0  0  0  0  0  0  0  0  0
   11.7561   -0.3063   32.9621 N   0  0  0  0  0  0  0  0  0  0  0  0
   10.2119   -4.7239   33.9418 O   0  0  0  0  0  0  0  0  0  0  0  0
   13.6933    0.4092   31.3569 C   0  0  0  0  0  0  0  0  0  0  0  0
   16.7133   -4.4803   32.7800 C   0  0  0  0  0  0  0  0  0  0  0  0
   11.9454   -3.5886   32.8228 C   0  0  0  0  0  0  0  0  0  0  0  0
   15.7794   -4.6801   34.8956 C   0  0  0  0  0  0  0  0  0  0  0  0
   12.9475   -0.4237   32.2807 C   0  0  0  0  0  0  0  0  0  0  0  0
   12.6894    2.6693   31.9771 C   0  0  0  0  0  0  0  0  0  0  0  0
   11.9055   -3.8922   31.5015 O   0  0  0  0  0  0  0  0  0  0  0  0
   10.6628    1.5940   33.6632 C   0  0  0  0  0  0  0  0  0  0  0  0
   15.4191    1.8343   29.7466 C   0  0  0  0  0  0  0  0  0  0  0  0
   10.5796    0.2347   33.6086 C   0  0  0  0  0  0  0  0  0  0  0  0
   15.3347    0.4887   29.6415 C   0  0  0  0  0  0  0  0  0  0  0  0
   13.0617   -2.7550   33.2923 C   0  0  0  0  0  0  0  0  0  0  0  0
   10.4995    3.8087   34.1138 C   0  0  0  0  0  0  0  0  0  0  0  0
   15.4516   -3.9016   33.5813 C   0  0  0  0  0  0  0  0  0  0  0  0
   13.6804    1.8360   31.3329 C   0  0  0  0  0  0  0  0  0  0  0  0
   11.6949    2.1966   32.8500 C   0  0  0  0  0  0  0  0  0  0  0  0
  1 18  1  0
  1 25  1  0
  2  9  2  0
  2 13  1  0
  2 16  1  0
  3 26  2  0
  4 17  1  0
  5 15  1  0
  6 22  2  0
  6 28  1  0
  7 21  1  0
  7 26  1  0
  8 26  1  0
  8 29  1  0
 10 25  1  0
 10 27  1  0
 11 14  1  0
 11 24  2  0
 12 18  1  0
 12 23  1  0
 14 18  1  0
 14 28  1  0
 15 27  1  0
 16 20  1  0
 16 25  1  0
 17 27  1  0
 19 28  2  0
 19 29  1  0
 21 23  1  0
 21 29  1  0
 22 24  1  0
M  END
>  <ID>  (1) 
conformer_0

$$$$
