
     RDKit          3D

 11 12  0  0  0  0  0  0  0  0999 V2000
   11.8883   -1.2128   32.6373 C   0  0  0  0  0  0  0  0  0  0  0  0
   10.8112   -1.9469   32.9165 O   0  0  0  0  0  0  0  0  0  0  0  0
   14.7831   -0.3504   30.1964 C   0  0  0  0  0  0  0  0  0  0  0  0
   13.7828   -0.5862   31.2091 C   0  0  0  0  0  0  0  0  0  0  0  0
   12.7683   -3.3402   31.9180 O   0  0  0  0  0  0  0  0  0  0  0  0
   13.0949   -1.8340   31.8520 C   0  0  0  0  0  0  0  0  0  0  0  0
   14.6213    2.0312   30.4433 C   0  0  0  0  0  0  0  0  0  0  0  0
   12.1618    0.2498   32.7230 C   0  0  0  0  0  0  0  0  0  0  0  0
   15.1727    0.9292   29.8355 C   0  0  0  0  0  0  0  0  0  0  0  0
   13.2110    0.5519   31.7590 C   0  0  0  0  0  0  0  0  0  0  0  0
   13.6289    1.8442   31.4052 C   0  0  0  0  0  0  0  0  0  0  0  0
  1  2  1  0
  1  6  1  0
  1  8  1  0
  3  4  2  0
  3  9  1  0
  4  6  1  0
  4 10  1  0
  5  6  1  0
  7  9  2  0
  7 11  1  0
  8 10  1  0
 10 11  2  0
M  END
>  <ID>  (1) 
conformer_0

$$$$
