
     RDKit          3D

 21 23  0  0  0  0  0  0  0  0999 V2000
   12.4709   -0.4038   32.3679 C   0  0  0  0  0  0  0  0  0  0  0  0
   14.2907    2.4910   30.8631 C   0  0  0  0  0  0  0  0  0  0  0  0
   15.6515    1.1385   29.4853 C   0  0  0  0  0  0  0  0  0  0  0  0
   14.2447   -3.3196   31.8551 O   0  0  0  0  0  0  0  0  0  0  0  0
   13.4371   -2.7142   32.7400 C   0  0  0  0  0  0  0  0  0  0  0  0
   12.0465   -3.9843   32.7485 O   0  0  0  0  0  0  0  0  0  0  0  0
   15.3196    2.3281   30.0868 C   0  0  0  0  0  0  0  0  0  0  0  0
   10.1511   -2.6995   33.0514 O   0  0  0  0  0  0  0  0  0  0  0  0
   12.2588    2.4118   32.0704 C   0  0  0  0  0  0  0  0  0  0  0  0
   11.7406    0.3989   33.2643 C   0  0  0  0  0  0  0  0  0  0  0  0
   13.3441    0.2873   31.4641 C   0  0  0  0  0  0  0  0  0  0  0  0
   12.3355   -1.8709   32.2949 C   0  0  0  0  0  0  0  0  0  0  0  0
   11.6389    1.7802   33.1670 C   0  0  0  0  0  0  0  0  0  0  0  0
   10.9793    4.4454   32.4853 C   0  0  0  0  0  0  0  0  0  0  0  0
   10.9337    2.6030   34.0712 C   0  0  0  0  0  0  0  0  0  0  0  0
   13.3114    1.7033   31.4348 C   0  0  0  0  0  0  0  0  0  0  0  0
   15.0760   -0.0219   29.7550 C   0  0  0  0  0  0  0  0  0  0  0  0
   10.6061    3.9280   33.7510 C   0  0  0  0  0  0  0  0  0  0  0  0
   11.2569   -2.8593   32.6757 C   0  0  0  0  0  0  0  0  0  0  0  0
   11.8103    3.6713   31.6817 C   0  0  0  0  0  0  0  0  0  0  0  0
   14.1804   -0.3934   30.6112 N   0  0  0  0  0  0  0  0  0  0  0  0
  1 10  1  0
  1 11  2  0
  1 12  1  0
  2  7  2  0
  2 16  1  0
  3  7  1  0
  3 17  1  0
  4  5  1  0
  5 12  1  0
  6 19  2  0
  8 19  1  0
  9 13  1  0
  9 16  1  0
  9 20  1  0
 10 13  2  0
 11 16  1  0
 11 21  1  0
 12 19  1  0
 13 15  1  0
 14 18  1  0
 14 20  2  0
 15 18  2  0
 17 21  2  0
M  END
>  <ID>  (1) 
conformer_0

$$$$
