
     RDKit          3D

 13 14  0  0  0  0  0  0  0  0999 V2000
   15.1406    0.7071   30.0371 C   0  0  0  0  0  0  0  0  0  0  0  0
   14.0272   -3.3444   31.1654 O   0  0  0  0  0  0  0  0  0  0  0  0
   13.0210    0.8088   31.9493 C   0  0  0  0  0  0  0  0  0  0  0  0
   13.5706   -0.3366   31.4102 C   0  0  0  0  0  0  0  0  0  0  0  0
   15.0863    1.9454   30.3275 C   0  0  0  0  0  0  0  0  0  0  0  0
   13.3424    2.1451   31.9328 C   0  0  0  0  0  0  0  0  0  0  0  0
   14.5746   -0.4170   30.4521 O   0  0  0  0  0  0  0  0  0  0  0  0
   11.8876    0.4167   32.7713 C   0  0  0  0  0  0  0  0  0  0  0  0
   11.7972   -0.9786   32.7598 N   0  0  0  0  0  0  0  0  0  0  0  0
   13.0359   -2.9519   31.7925 C   0  0  0  0  0  0  0  0  0  0  0  0
   14.3366    2.7155   31.1733 C   0  0  0  0  0  0  0  0  0  0  0  0
   12.8618   -1.4859   31.9634 C   0  0  0  0  0  0  0  0  0  0  0  0
   12.1103   -3.7365   32.0500 O   0  0  0  0  0  0  0  0  0  0  0  0
  1  5  2  0
  1  7  1  0
  2 10  2  0
  3  4  2  0
  3  6  1  0
  3  8  1  0
  4  7  1  0
  4 12  1  0
  5 11  1  0
  6 11  2  0
  8  9  1  0
  9 12  1  0
 10 12  1  0
 10 13  1  0
M  END
>  <ID>  (1) 
conformer_0

$$$$
