
     RDKit          3D

 11 11  0  0  0  0  0  0  0  0999 V2000
   12.7608   -1.2407   32.4504 C   0  0  0  0  0  0  0  0  0  0  0  0
   12.9022   -2.7272   31.9381 C   0  0  0  0  0  0  0  0  0  0  0  0
   13.5610   -0.2546   31.6128 C   0  0  0  0  0  0  0  0  0  0  0  0
   13.3987    1.1379   31.7292 C   0  0  0  0  0  0  0  0  0  0  0  0
   14.1598    1.9807   30.9129 C   0  0  0  0  0  0  0  0  0  0  0  0
   15.0197    1.4356   29.9670 C   0  0  0  0  0  0  0  0  0  0  0  0
   11.9002   -3.5052   31.9911 O   0  0  0  0  0  0  0  0  0  0  0  0
   14.4485   -0.7481   30.6695 C   0  0  0  0  0  0  0  0  0  0  0  0
   15.1668    0.0918   29.8464 C   0  0  0  0  0  0  0  0  0  0  0  0
   13.9428   -3.2101   31.3679 O   0  0  0  0  0  0  0  0  0  0  0  0
   12.4947    1.7450   32.6538 C   0  0  0  0  0  0  0  0  0  0  0  0
  1  2  1  0
  1  3  1  0
  2  7  2  0
  2 10  1  0
  3  4  2  0
  3  8  1  0
  4  5  1  0
  4 11  1  0
  5  6  2  0
  6  9  1  0
  8  9  2  0
M  END
>  <ID>  (1) 
conformer_0

$$$$
