
     RDKit          3D

  9  9  0  0  0  0  0  0  0  0999 V2000
   14.3521    1.1997   31.0518 C   0  0  0  0  0  0  0  0  0  0  0  0
   15.2372    1.8443   30.1078 C   0  0  0  0  0  0  0  0  0  0  0  0
   13.3625   -2.1517   31.8527 C   0  0  0  0  0  0  0  0  0  0  0  0
   13.6642   -0.7258   32.0319 C   0  0  0  0  0  0  0  0  0  0  0  0
   12.3608   -2.6568   32.4613 O   0  0  0  0  0  0  0  0  0  0  0  0
   14.7585   -0.0852   31.4645 N   0  0  0  0  0  0  0  0  0  0  0  0
   14.0484   -2.9223   31.1186 O   0  0  0  0  0  0  0  0  0  0  0  0
   13.1895    1.5544   31.7861 C   0  0  0  0  0  0  0  0  0  0  0  0
   12.6187    0.2813   32.2997 C   0  0  0  0  0  0  0  0  0  0  0  0
  1  2  1  0
  1  6  1  0
  1  8  1  0
  3  4  1  0
  3  5  2  0
  3  7  1  0
  4  6  1  0
  4  9  1  0
  8  9  1  0
M  END
>  <ID>  (1) 
conformer_0

$$$$
