
     RDKit          3D

 14 15  0  0  0  0  0  0  0  0999 V2000
   14.2114    2.3144   31.1267 C   0  0  0  0  0  0  0  0  0  0  0  0
   10.5962   -2.4246   32.9352 O   0  0  0  0  0  1  0  0  0  0  0  0
   12.9386   -1.5380   32.1003 C   0  0  0  0  0  0  0  0  0  0  0  0
   13.4337    3.1261   31.9866 C   0  0  0  0  0  0  0  0  0  0  0  0
   15.1856    0.7923   29.7609 C   0  0  0  0  0  0  0  0  0  0  0  0
   12.5971    2.3303   32.7704 N   0  0  0  0  0  0  0  0  0  0  0  0
   11.9983   -2.9429   32.5756 P   0  0  0  0  0  4  0  0  0  0  0  0
   12.4709   -0.3045   32.8552 C   0  0  0  0  0  0  0  0  0  0  0  0
   13.7679    0.9922   31.4262 C   0  0  0  0  0  0  0  0  0  0  0  0
   11.7291   -4.1319   31.5706 O   0  0  0  0  0  0  0  0  0  0  0  0
   12.8387    1.0088   32.4011 C   0  0  0  0  0  0  0  0  0  0  0  0
   15.1393    2.1013   30.1042 N   0  0  0  0  0  0  0  0  0  0  0  0
   12.7915   -3.5071   33.7523 O   0  0  0  0  0  0  0  0  0  0  0  0
   14.3734    0.1002   30.6112 C   0  0  0  0  0  0  0  0  0  0  0  0
  1  4  1  0
  1  9  1  0
  1 12  1  0
  2  7  2  0
  3  7  1  0
  3  8  1  0
  4  6  1  0
  5 12  1  0
  5 14  1  0
  6 11  1  0
  7 10  1  0
  7 13  1  0
  8 11  1  0
  9 11  2  0
  9 14  1  0
M  END
>  <ID>  (1) 
conformer_0

$$$$
