
     RDKit          3D

 24 26  0  0  0  0  0  0  0  0999 V2000
   14.3183    1.8747   31.0637 C   0  0  0  0  0  0  0  0  0  0  0  0
   10.1173    0.7146   34.5326 C   0  0  0  0  0  0  0  0  0  0  0  0
   13.8541   -2.9642   31.1696 O   0  0  0  0  0  0  0  0  0  0  0  0
   13.6886   -1.8530   31.9536 C   0  0  0  0  0  0  0  0  0  0  0  0
   14.7865   -0.6743   30.1562 N   0  0  0  0  0  0  0  0  0  0  0  0
   13.0450   -2.2267   33.2007 C   0  0  0  0  0  0  0  0  0  0  0  0
   12.2060    3.3086   32.9416 N   0  0  0  0  0  0  0  0  0  0  0  0
   13.3122    3.8423   32.3160 C   0  0  0  0  0  0  0  0  0  0  0  0
   10.1110   -0.5756   33.9531 N   0  0  0  0  0  0  0  0  0  0  0  0
   11.7689    1.9578   33.0526 C   0  0  0  0  0  0  0  0  0  0  0  0
    9.8782   -2.9571   33.3471 C   0  0  0  0  0  0  0  0  0  0  0  0
   12.4834    0.9783   32.5062 C   0  0  0  0  0  0  0  0  0  0  0  0
   10.6576   -4.6368   31.8050 O   0  0  0  0  0  0  0  0  0  0  0  0
   12.2607   -3.4755   33.2519 C   0  0  0  0  0  0  0  0  0  0  0  0
   15.1064    1.6444   29.9379 C   0  0  0  0  0  0  0  0  0  0  0  0
   13.4432    5.2485   32.4394 O   0  0  0  0  0  0  0  0  0  0  0  0
   10.5559    1.9082   33.9055 C   0  0  0  0  0  0  0  0  0  0  0  0
   13.5940    0.7625   31.6333 C   0  0  0  0  0  0  0  0  0  0  0  0
   13.5390   -3.4828   33.6389 O   0  0  0  0  0  0  0  0  0  0  0  0
   14.0128   -0.5540   31.2865 C   0  0  0  0  0  0  0  0  0  0  0  0
   10.4479   -1.9294   34.2711 C   0  0  0  0  0  0  0  0  0  0  0  0
   10.9582   -3.7116   32.7089 C   0  0  0  0  0  0  0  0  0  0  0  0
   14.3268    3.1897   31.5819 C   0  0  0  0  0  0  0  0  0  0  0  0
   15.2933    0.3716   29.5133 C   0  0  0  0  0  0  0  0  0  0  0  0
  1 15  2  0
  1 18  1  0
  1 23  1  0
  2  9  1  0
  2 17  1  0
  3  4  1  0
  4  6  1  0
  4 20  1  0
  5 20  1  0
  5 24  2  0
  6 14  1  0
  7  8  1  0
  7 10  2  0
  8 16  2  0
  8 23  1  0
  9 21  2  0
 10 12  1  0
 10 17  1  0
 11 21  1  0
 11 22  1  0
 12 18  2  0
 13 22  1  0
 14 19  1  0
 14 22  1  0
 15 24  1  0
 18 20  1  0
M  END
>  <ID>  (1) 
conformer_0

$$$$
