
     RDKit          3D

 22 23  0  0  0  0  0  0  0  0999 V2000
   13.7305   -3.9185   34.0360 O   0  0  0  0  0  0  0  0  0  0  0  0
   14.8041    1.6384   30.2224 C   0  0  0  0  0  0  0  0  0  0  0  0
   13.2179   -2.6007   33.9550 C   0  0  0  0  0  0  0  0  0  0  0  0
   11.4647   -3.7646   32.6032 C   0  0  0  0  0  0  0  0  0  0  0  0
   13.1794   -0.8438   32.1663 N   0  0  0  0  0  0  0  0  0  0  0  0
   12.0804    2.3300   32.6078 C   0  0  0  0  0  0  0  0  0  0  0  0
   11.1043    0.1771   33.3623 C   0  0  0  0  0  0  0  0  0  0  0  0
   11.0054   -4.8900   32.3126 O   0  0  0  0  0  0  0  0  0  0  0  0
    9.9236   -0.3875   35.7348 O   0  0  0  0  0  0  0  0  0  0  0  0
   12.5526   -3.2090   31.7911 O   0  0  0  0  0  0  0  0  0  0  0  0
   14.0255    2.5143   31.0319 C   0  0  0  0  0  0  0  0  0  0  0  0
   13.1321    1.7015   31.8508 C   0  0  0  0  0  0  0  0  0  0  0  0
   14.9020   -0.7513   29.9582 O   0  0  0  0  0  0  0  0  0  0  0  0
   10.7583   -2.6095   33.1824 C   0  0  0  0  0  0  0  0  0  0  0  0
   11.1700    1.4706   33.2661 C   0  0  0  0  0  0  0  0  0  0  0  0
   13.1729   -2.1115   32.5344 C   0  0  0  0  0  0  0  0  0  0  0  0
    9.7122   -1.2134   34.7097 C   0  0  0  0  0  0  0  0  0  0  0  0
   15.6738    1.9388   29.2933 O   0  0  0  0  0  0  0  0  0  0  0  0
   11.9675    3.6340   32.6968 O   0  0  0  0  0  0  0  0  0  0  0  0
   10.8441   -1.1261   33.6058 C   0  0  0  0  0  0  0  0  0  0  0  0
   13.4697    0.3195   31.6342 C   0  0  0  0  0  0  0  0  0  0  0  0
   14.4508    0.3115   30.5600 C   0  0  0  0  0  0  0  0  0  0  0  0
  1  3  1  0
  2 11  1  0
  2 18  1  0
  2 22  2  0
  3 16  1  0
  4  8  2  0
  4 10  1  0
  4 14  1  0
  5 16  1  0
  5 21  1  0
  6 12  2  0
  6 15  1  0
  6 19  1  0
  7 15  2  0
  7 20  2  0
  9 17  1  0
 10 16  1  0
 11 12  1  0
 12 21  1  0
 13 22  1  0
 14 20  1  0
 17 20  1  0
 21 22  1  0
M  END
>  <ID>  (1) 
conformer_0

$$$$
