
     RDKit          3D

 12 12  0  0  0  0  0  0  0  0999 V2000
   10.5918   -2.4140   32.6669 O   0  0  0  0  0  0  0  0  0  0  0  0
   12.2626    2.9968   32.3921 C   0  0  0  0  0  0  0  0  0  0  0  0
   11.6515   -3.0520   32.4707 C   0  0  0  0  0  0  0  0  0  0  0  0
   15.1536    1.9737   30.1782 N   0  0  0  0  0  0  0  0  0  0  0  0
   13.5640   -1.4576   31.8672 C   0  0  0  0  0  0  0  0  0  0  0  0
   14.7456    0.5013   30.2111 C   0  0  0  0  0  0  0  0  0  0  0  0
   11.6940   -4.2113   31.8853 O   0  0  0  0  0  0  0  0  0  0  0  0
   12.9729   -2.3710   32.9083 C   0  0  0  0  0  0  0  0  0  0  0  0
   13.4476    3.2553   31.4661 C   0  0  0  0  0  0  0  0  0  0  0  0
   13.3188   -0.0673   32.0554 C   0  0  0  0  0  0  0  0  0  0  0  0
   14.3003    2.2058   31.3386 C   0  0  0  0  0  0  0  0  0  0  0  0
   13.8655    0.8299   31.2971 C   0  0  0  0  0  0  0  0  0  0  0  0
  1  3  2  0
  2  9  1  0
  3  7  1  0
  3  8  1  0
  4  6  1  0
  4 11  1  0
  5  8  1  0
  5 10  2  3
  6 12  1  0
  9 11  1  0
 10 12  1  0
 11 12  1  0
M  END
>  <ID>  (1) 
conformer_0

$$$$
