
     RDKit          3D

 30 31  0  0  0  0  0  0  0  0999 V2000
   10.2619   -4.6729   33.7104 O   0  0  0  0  0  0  0  0  0  0  0  0
   13.7084    0.4254   31.2223 C   0  0  0  0  0  0  0  0  0  0  0  0
   13.9304    1.7820   31.2967 C   0  0  0  0  0  0  0  0  0  0  0  0
   15.1567    0.1827   29.3794 C   0  0  0  0  0  0  0  0  0  0  0  0
   14.2998   -0.3923   30.3037 C   0  0  0  0  0  0  0  0  0  0  0  0
   12.6119    5.0776   33.6553 C   0  0  0  0  0  0  0  0  0  0  0  0
   10.1337   -0.9764   33.5677 O   0  0  0  0  0  0  0  0  0  0  0  0
   15.4516    1.5436   29.4390 C   0  0  0  0  0  0  0  0  0  0  0  0
   14.2035    3.9120   32.4015 C   0  0  0  0  0  0  0  0  0  0  0  0
   13.8794    4.9880   33.1276 C   0  0  0  0  0  0  0  0  0  0  0  0
   12.0761    2.8798   32.7611 C   0  0  0  0  0  0  0  0  0  0  0  0
   11.9173   -3.1965   33.1254 C   0  0  0  0  0  0  0  0  0  0  0  0
   15.6326   -4.9673   34.9495 C   0  0  0  0  0  0  0  0  0  0  0  0
   14.8700    2.3178   30.3591 C   0  0  0  0  0  0  0  0  0  0  0  0
   10.8915    1.6647   32.6316 S   0  0  0  0  0  4  0  0  0  0  0  0
    9.9856    1.7984   33.7359 O   0  0  0  0  0  1  0  0  0  0  0  0
   13.3582    2.8012   32.1839 C   0  0  0  0  0  0  0  0  0  0  0  0
   10.9029   -4.0321   32.8049 C   0  0  0  0  0  0  0  0  0  0  0  0
   14.8237    5.9337   33.2501 O   0  0  0  0  0  0  0  0  0  0  0  0
   15.1467   -4.1371   33.8286 C   0  0  0  0  0  0  0  0  0  0  0  0
   11.7447    0.3386   32.7365 N   0  0  0  0  0  0  0  0  0  0  0  0
   14.0695   -3.3969   33.8811 N   0  0  0  0  0  0  0  0  0  0  0  0
   12.2030   -2.0323   33.2490 C   0  0  0  0  0  0  0  0  0  0  0  0
   17.3552   -4.5366   32.8537 C   0  0  0  0  0  0  0  0  0  0  0  0
   16.0392   -4.0240   32.7417 O   0  0  0  0  0  0  0  0  0  0  0  0
   11.3957   -0.8988   33.1946 C   0  0  0  0  0  0  0  0  0  0  0  0
   13.0379   -2.9129   33.4792 C   0  0  0  0  0  0  0  0  0  0  0  0
   10.2274    1.7972   31.3684 O   0  0  0  0  0  1  0  0  0  0  0  0
   10.5442   -4.2429   31.5788 O   0  0  0  0  0  0  0  0  0  0  0  0
   11.7277    4.0128   33.4644 C   0  0  0  0  0  0  0  0  0  0  0  0
  1 18  2  0
  2  3  1  0
  2  5  2  0
  3 14  1  0
  3 17  1  0
  4  5  1  0
  4  8  1  0
  6 10  2  0
  6 30  1  0
  7 26  2  0
  8 14  2  0
  9 10  1  0
  9 17  2  0
 10 19  1  0
 11 15  1  0
 11 17  1  0
 11 30  2  0
 12 18  1  0
 12 23  2  3
 12 27  1  0
 13 20  1  0
 15 16  1  0
 15 21  1  0
 15 28  1  0
 18 29  1  0
 20 22  1  0
 20 25  1  0
 21 26  1  0
 22 27  1  0
 23 26  1  0
 24 25  1  0
M  END
>  <ID>  (1) 
conformer_0

$$$$
