
     RDKit          3D

 13 13  0  0  0  0  0  0  0  0999 V2000
   13.9731   -2.6597   31.0959 O   0  0  0  0  0  0  0  0  0  0  0  0
   13.8435   -0.1722   31.4645 C   0  0  0  0  0  0  0  0  0  0  0  0
   15.9036    1.8513   29.2935 F   0  0  0  0  0  0  0  0  0  0  0  0
   12.1199   -3.3782   32.6978 C   0  0  0  0  0  0  0  0  0  0  0  0
   12.9224   -3.8420   33.5418 O   0  0  0  0  0  0  0  0  0  0  0  0
   13.2811    0.8424   32.2327 C   0  0  0  0  0  0  0  0  0  0  0  0
   15.0252    1.5339   30.2354 C   0  0  0  0  0  0  0  0  0  0  0  0
   14.6990    0.2098   30.4247 C   0  0  0  0  0  0  0  0  0  0  0  0
   11.3617   -4.0987   31.9356 O   0  0  0  0  0  0  0  0  0  0  0  0
   13.4941   -1.5679   31.7037 C   0  0  0  0  0  0  0  0  0  0  0  0
   13.5972    2.1564   32.0383 C   0  0  0  0  0  0  0  0  0  0  0  0
   14.4786    2.5173   31.0375 C   0  0  0  0  0  0  0  0  0  0  0  0
   12.2071   -1.8238   32.4866 C   0  0  0  0  0  0  0  0  0  0  0  0
  1 10  1  0
  2  6  2  0
  2  8  1  0
  2 10  1  0
  3  7  1  0
  4  5  2  0
  4  9  1  0
  4 13  1  0
  6 11  1  0
  7  8  2  0
  7 12  1  0
 10 13  1  0
 11 12  2  0
M  END
>  <ID>  (1) 
conformer_0

$$$$
