
     RDKit          3D

 24 25  0  0  0  0  0  0  0  0999 V2000
   14.2868   -2.8616   32.9170 O   0  0  0  0  0  1  0  0  0  0  0  0
   14.1035   -0.2979   30.8823 C   0  0  0  0  0  0  0  0  0  0  0  0
   13.0846    3.4207   32.4580 C   0  0  0  0  0  0  0  0  0  0  0  0
    9.6750    1.1815   32.2044 O   0  0  0  0  0  0  0  0  0  0  0  0
   15.2410    1.4707   29.9730 C   0  0  0  0  0  0  0  0  0  0  0  0
   14.3500    1.9934   31.0345 C   0  0  0  0  0  0  0  0  0  0  0  0
   15.9702    2.2000   29.3081 N   0  0  0  0  0  0  0  0  0  0  0  0
   12.3110    2.3742   32.8302 C   0  0  0  0  0  0  0  0  0  0  0  0
   14.1227    3.2364   31.5496 N   0  0  0  0  0  0  0  0  0  0  0  0
   10.0287   -3.6841   33.9100 O   0  0  0  0  0  1  0  0  0  0  0  0
   11.1253   -3.7122   32.9220 P   0  0  0  0  0  4  0  0  0  0  0  0
    9.6703   -0.8957   34.4053 O   0  0  0  0  0  0  0  0  0  0  0  0
   11.8421   -2.1576   32.7744 O   0  0  0  0  0  0  0  0  0  0  0  0
   15.0249    0.0462   29.8960 N   0  0  0  0  0  0  0  0  0  0  0  0
   13.6392   -1.4512   31.1703 N   0  0  0  0  0  0  0  0  0  0  0  0
   10.7466   -4.2234   31.5441 O   0  0  0  0  0  0  0  0  0  0  0  0
   12.6729    1.1547   32.4178 N   0  0  0  0  0  0  0  0  0  0  0  0
   11.0272    2.5721   33.6852 C   0  0  0  0  0  0  0  0  0  0  0  0
   12.2692   -4.5603   33.4597 O   0  0  0  0  0  0  0  0  0  0  0  0
   13.2615   -2.0782   32.3317 P   0  0  0  0  0  4  0  0  0  0  0  0
   10.1160    1.3960   33.4951 C   0  0  0  0  0  0  0  0  0  0  0  0
   10.2702    0.2661   34.4526 C   0  0  0  0  0  0  0  0  0  0  0  0
   10.2625    3.7516   33.4612 O   0  0  0  0  0  0  0  0  0  0  0  0
   13.6322    0.9252   31.5300 C   0  0  0  0  0  0  0  0  0  0  0  0
  1 20  2  0
  2 14  1  0
  2 15  1  0
  2 24  2  0
  3  8  1  0
  3  9  2  0
  4 21  1  0
  5  6  1  0
  5  7  2  0
  5 14  1  0
  6  9  1  0
  6 24  1  0
  8 17  2  0
  8 18  1  0
 10 11  2  0
 11 13  1  0
 11 16  1  0
 11 19  1  0
 12 22  1  0
 13 20  1  0
 15 20  1  0
 17 24  1  0
 18 21  1  0
 18 23  1  0
 21 22  1  0
M  END
>  <ID>  (1) 
conformer_0

$$$$
