
     RDKit          3D

 19 21  0  0  0  0  0  0  0  0999 V2000
   11.9125    2.0895   33.1433 C   0  0  0  0  0  0  0  0  0  0  0  0
   13.8259   -0.4980   31.1264 C   0  0  0  0  0  0  0  0  0  0  0  0
   14.5208    4.0823   31.6853 O   0  0  0  0  0  0  0  0  0  0  0  0
   13.8344   -1.7343   31.6995 N   0  0  0  0  0  0  0  0  0  0  0  0
   13.2713    0.7062   31.7346 C   0  0  0  0  0  0  0  0  0  0  0  0
   10.8572   -2.8593   32.5583 C   0  0  0  0  0  0  0  0  0  0  0  0
   13.7530    3.0675   31.9740 C   0  0  0  0  0  0  0  0  0  0  0  0
   11.4644   -3.8883   33.5515 C   0  0  0  0  0  0  0  0  0  0  0  0
   12.6972    3.2019   32.8364 C   0  0  0  0  0  0  0  0  0  0  0  0
   11.3336   -0.1803   32.9472 O   0  0  0  0  0  0  0  0  0  0  0  0
   15.0272    1.4646   30.2741 C   0  0  0  0  0  0  0  0  0  0  0  0
   12.1821    0.8760   32.6001 C   0  0  0  0  0  0  0  0  0  0  0  0
   10.5361   -3.6146   31.4577 O   0  0  0  0  0  0  0  0  0  0  0  0
   13.4531   -2.9054   32.5267 N   0  0  0  0  0  0  0  0  0  0  0  0
   11.1808   -1.4916   33.1645 C   0  0  0  0  0  0  0  0  0  0  0  0
   12.8592   -3.7684   33.6581 C   0  0  0  0  0  0  0  0  0  0  0  0
   14.8517   -0.0897   30.1174 C   0  0  0  0  0  0  0  0  0  0  0  0
   10.6584   -4.8693   33.7514 O   0  0  0  0  0  0  0  0  0  0  0  0
   14.0291    1.8172   31.3458 C   0  0  0  0  0  0  0  0  0  0  0  0
  1  9  2  0
  1 12  1  0
  2  4  1  0
  2  5  1  0
  2 17  1  0
  3  7  1  0
  4 14  1  0
  5 12  2  0
  5 19  1  0
  6  8  1  0
  6 13  1  0
  6 15  1  0
  7  9  1  0
  7 19  2  0
  8 16  1  0
  8 18  2  0
 10 12  1  0
 10 15  1  0
 11 17  1  0
 11 19  1  0
 14 16  1  0
M  END
>  <ID>  (1) 
conformer_0

$$$$
