
     RDKit          3D

 22 24  0  0  0  0  0  0  0  0999 V2000
   12.6659    1.3305   32.4689 C   0  0  0  0  0  0  0  0  0  0  0  0
   14.3432    2.2390   30.9802 C   0  0  0  0  0  0  0  0  0  0  0  0
   14.9751   -0.1879   29.9553 C   0  0  0  0  0  0  0  0  0  0  0  0
   12.4948    2.6060   33.1239 C   0  0  0  0  0  0  0  0  0  0  0  0
   10.9581   -3.7415   31.7279 O   0  0  0  0  0  0  0  0  0  0  0  0
   11.4272   -0.7927   32.7267 C   0  0  0  0  0  0  0  0  0  0  0  0
   13.6901    1.1374   31.4848 C   0  0  0  0  0  0  0  0  0  0  0  0
   12.2101   -1.7534   32.1164 C   0  0  0  0  0  0  0  0  0  0  0  0
   11.8732   -3.1802   32.3925 C   0  0  0  0  0  0  0  0  0  0  0  0
   11.7298    0.4447   32.7917 C   0  0  0  0  0  0  0  0  0  0  0  0
   14.1066   -2.5380   31.1094 O   0  0  0  0  0  0  0  0  0  0  0  0
   12.7014    4.0083   34.9971 O   0  0  0  0  0  0  0  0  0  0  0  0
   14.5573    3.7761   33.6892 O   0  0  0  0  0  0  0  0  0  0  0  0
   13.4149   -1.3831   31.3961 C   0  0  0  0  0  0  0  0  0  0  0  0
   12.4604   -3.7481   33.3490 O   0  0  0  0  0  0  0  0  0  0  0  0
   13.3361    3.4893   33.8600 C   0  0  0  0  0  0  0  0  0  0  0  0
   11.3342    4.6466   34.7390 C   0  0  0  0  0  0  0  0  0  0  0  0
   10.6987    4.1131   33.4309 C   0  0  0  0  0  0  0  0  0  0  0  0
   15.5906    0.9349   29.4816 C   0  0  0  0  0  0  0  0  0  0  0  0
   15.2945    2.1510   30.0314 C   0  0  0  0  0  0  0  0  0  0  0  0
   13.9982   -0.1416   30.9888 C   0  0  0  0  0  0  0  0  0  0  0  0
   11.0850    2.7136   33.3667 N   0  0  0  0  0  0  0  0  0  0  0  0
  1  4  1  0
  1  7  1  0
  1 10  1  0
  2  7  2  0
  2 20  1  0
  3 19  1  0
  3 21  2  0
  4 16  1  0
  4 22  1  0
  5  9  2  0
  6  8  1  0
  6 10  2  0
  7 21  1  0
  8  9  1  0
  8 14  2  0
  9 15  1  0
 11 14  1  0
 12 16  1  0
 12 17  1  0
 13 16  2  0
 14 21  1  0
 17 18  1  0
 18 22  1  0
 19 20  2  0
M  END
>  <ID>  (1) 
conformer_0

$$$$
