
     RDKit          3D

 18 18  0  0  0  0  0  0  0  0999 V2000
   14.3781   -2.8918   31.7100 O   0  0  0  0  0  0  0  0  0  0  0  0
   13.5314    2.5095   31.8518 C   0  0  0  0  0  0  0  0  0  0  0  0
    9.9314   -3.2598   33.2054 O   0  0  0  0  0  0  0  0  0  0  0  0
   15.5328    1.0208   29.1845 F   0  0  0  0  0  0  0  0  0  0  0  0
   11.9004    1.4008   33.1996 N   0  0  0  0  0  0  0  0  0  0  0  0
   13.3354   -2.2597   32.1663 C   0  0  0  0  0  0  0  0  0  0  0  0
   14.4810    2.3848   30.8169 C   0  0  0  0  0  0  0  0  0  0  0  0
   10.8874   -3.7820   32.5928 C   0  0  0  0  0  0  0  0  0  0  0  0
   12.9517    1.3461   32.3398 C   0  0  0  0  0  0  0  0  0  0  0  0
   13.1825   -1.0175   32.6781 O   0  0  0  0  0  0  0  0  0  0  0  0
   13.1789    3.8794   32.3653 C   0  0  0  0  0  0  0  0  0  0  0  0
   14.4602    4.6798   32.3261 O   0  0  0  0  0  0  0  0  0  0  0  0
   14.2792    0.0084   30.8596 C   0  0  0  0  0  0  0  0  0  0  0  0
   14.7797    1.1387   30.2823 C   0  0  0  0  0  0  0  0  0  0  0  0
   12.8526   -3.8511   33.8325 O   0  0  0  0  0  0  0  0  0  0  0  0
   10.8238   -4.9305   32.0152 O   0  0  0  0  0  0  0  0  0  0  0  0
   12.2762   -3.2113   32.7467 C   0  0  0  0  0  0  0  0  0  0  0  0
   13.4372    0.1025   31.9569 C   0  0  0  0  0  0  0  0  0  0  0  0
  1  6  2  0
  2  7  1  0
  2  9  2  0
  2 11  1  0
  3  8  2  0
  4 14  1  0
  5  9  1  0
  6 10  1  0
  6 17  1  0
  7 14  1  0
  8 16  1  0
  8 17  1  0
  9 18  1  0
 10 18  1  0
 11 12  1  0
 13 14  2  0
 13 18  1  0
 15 17  1  0
M  END
>  <ID>  (1) 
conformer_0

$$$$
