
     RDKit          3D

 27 29  0  0  0  0  0  0  0  0999 V2000
   11.9626    3.2996   33.1247 C   0  0  0  0  0  0  0  0  0  0  0  0
   15.1452    0.8096   29.5340 C   0  0  0  0  0  0  0  0  0  0  0  0
   13.4135    1.5285   31.6094 C   0  0  0  0  0  0  0  0  0  0  0  0
   12.3661    6.2085   35.0826 C   0  0  0  0  0  0  0  0  0  0  0  0
   14.4201   -0.1590   30.2103 C   0  0  0  0  0  0  0  0  0  0  0  0
   12.3634    2.0746   32.4475 C   0  0  0  0  0  0  0  0  0  0  0  0
   14.3282    2.4697   31.0722 C   0  0  0  0  0  0  0  0  0  0  0  0
   11.7141    5.2454   34.3911 C   0  0  0  0  0  0  0  0  0  0  0  0
   15.1542    2.1206   29.9856 C   0  0  0  0  0  0  0  0  0  0  0  0
   12.6585    4.3483   33.7737 N   0  0  0  0  0  0  0  0  0  0  0  0
   10.3112   -1.2427   32.1427 O   0  0  0  0  0  0  0  0  0  0  0  0
   10.5624    3.5674   33.2897 C   0  0  0  0  0  0  0  0  0  0  0  0
   13.0199   -3.4180   32.0937 O   0  0  0  0  0  0  0  0  0  0  0  0
   13.9695    4.8691   34.0920 C   0  0  0  0  0  0  0  0  0  0  0  0
   13.7734    6.0147   34.9090 C   0  0  0  0  0  0  0  0  0  0  0  0
   11.7590   -3.4729   32.8085 C   0  0  0  0  0  0  0  0  0  0  0  0
   11.7269   -2.2953   33.6875 C   0  0  0  0  0  0  0  0  0  0  0  0
   11.4275    0.2241   33.5164 C   0  0  0  0  0  0  0  0  0  0  0  0
   11.1939    1.1880   32.4133 N   0  0  0  0  0  0  0  0  0  0  0  0
   10.7444   -4.0539   32.2012 O   0  0  0  0  0  0  0  0  0  0  0  0
   15.2808   -3.5095   32.5456 O   0  0  0  0  0  0  0  0  0  0  0  0
   13.5899    0.2304   31.2392 C   0  0  0  0  0  0  0  0  0  0  0  0
   13.8825   -3.8068   34.2682 O   0  0  0  0  0  0  0  0  0  0  0  0
   14.4713    3.6827   31.6030 O   0  0  0  0  0  0  0  0  0  0  0  0
   11.3749   -1.1158   32.8643 C   0  0  0  0  0  0  0  0  0  0  0  0
   14.0896   -3.5272   33.0462 C   0  0  0  0  0  0  0  0  0  0  0  0
   10.4187    4.8101   34.0812 C   0  0  0  0  0  0  0  0  0  0  0  0
  1  6  1  0
  1 10  1  0
  1 12  1  0
  2  5  2  0
  2  9  1  0
  3  6  1  0
  3  7  1  0
  3 22  2  0
  4  8  1  0
  4 15  1  0
  5 22  1  0
  6 19  1  0
  7  9  2  0
  7 24  1  0
  8 10  1  0
  8 27  1  0
 10 14  1  0
 11 25  1  0
 12 27  1  0
 13 16  1  0
 13 26  1  0
 14 15  1  0
 16 17  1  0
 16 20  2  0
 17 25  1  0
 18 19  1  0
 18 25  1  0
 21 26  2  0
 23 26  1  0
M  END
>  <ID>  (1) 
conformer_0

$$$$
