
     RDKit          3D

 26 29  0  0  0  0  0  0  0  0999 V2000
   15.3139    0.3684   29.4886 C   0  0  0  0  0  0  0  0  0  0  0  0
   12.2885   -3.2668   32.9885 C   0  0  0  0  0  0  0  0  0  0  0  0
   16.2441    3.6272   30.4032 F   0  0  0  0  0  0  0  0  0  0  0  0
   10.7687    5.1298   34.1354 C   0  0  0  0  0  0  0  0  0  0  0  0
   13.0267    5.6766   34.2213 C   0  0  0  0  0  0  0  0  0  0  0  0
   10.2110   -4.2327   33.8869 O   0  0  0  0  0  0  0  0  0  0  0  0
   11.0973    3.9622   33.5430 N   0  0  0  0  0  0  0  0  0  0  0  0
   11.4495    1.5422   33.0004 C   0  0  0  0  0  0  0  0  0  0  0  0
   11.2363    0.2288   33.2665 C   0  0  0  0  0  0  0  0  0  0  0  0
   13.2821    0.2112   31.8204 C   0  0  0  0  0  0  0  0  0  0  0  0
   12.2213   -1.7032   33.1111 C   0  0  0  0  0  0  0  0  0  0  0  0
   15.7370    1.5464   29.5393 C   0  0  0  0  0  0  0  0  0  0  0  0
   13.3337    4.5064   33.6371 C   0  0  0  0  0  0  0  0  0  0  0  0
   14.4412    2.4804   31.2877 C   0  0  0  0  0  0  0  0  0  0  0  0
   14.6351   -0.5625   30.0362 C   0  0  0  0  0  0  0  0  0  0  0  0
   12.3752    3.6155   33.2634 C   0  0  0  0  0  0  0  0  0  0  0  0
   13.0664   -3.4861   31.8053 O   0  0  0  0  0  0  0  0  0  0  0  0
   13.8318   -0.7286   31.0072 C   0  0  0  0  0  0  0  0  0  0  0  0
   10.8560   -1.3168   33.6331 C   0  0  0  0  0  0  0  0  0  0  0  0
   12.4060   -0.3152   32.7245 N   0  0  0  0  0  0  0  0  0  0  0  0
   10.9435   -3.9536   32.8580 C   0  0  0  0  0  0  0  0  0  0  0  0
   13.5206    1.6009   31.8214 C   0  0  0  0  0  0  0  0  0  0  0  0
   15.4636    2.6137   30.3738 C   0  0  0  0  0  0  0  0  0  0  0  0
   11.7231    6.0146   34.5024 N   0  0  0  0  0  0  0  0  0  0  0  0
   12.5589    2.2709   32.7271 C   0  0  0  0  0  0  0  0  0  0  0  0
   10.5884   -4.3503   31.6360 O   0  0  0  0  0  0  0  0  0  0  0  0
  1 12  2  0
  1 15  1  0
  2 11  1  0
  2 17  1  0
  2 21  1  0
  3 23  1  0
  4  7  2  0
  4 24  1  0
  5 13  1  0
  5 24  2  0
  6 21  2  0
  7 16  1  0
  8  9  1  0
  8 25  1  0
  9 19  1  0
  9 20  1  0
 10 18  1  0
 10 20  1  0
 10 22  2  0
 11 19  1  0
 11 20  1  0
 12 23  1  0
 13 16  2  0
 14 22  1  0
 14 23  2  0
 15 18  2  0
 16 25  1  0
 21 26  1  0
 22 25  1  0
M  END
>  <ID>  (1) 
conformer_0

$$$$
