
     RDKit          3D

 28 29  0  0  0  0  0  0  0  0999 V2000
   11.2617    5.7803   34.9048 C   0  0  0  0  0  0  0  0  0  0  0  0
   10.3911   -0.7981   33.3971 C   0  0  0  0  0  0  0  0  0  0  0  0
   12.4574    2.2009   32.6248 C   0  0  0  0  0  0  0  0  0  0  0  0
    9.3230    5.1027   33.5705 O   0  0  0  0  0  0  0  0  0  0  0  0
   11.4802    0.0372   32.8931 C   0  0  0  0  0  0  0  0  0  0  0  0
   10.4164   -2.0748   32.7614 N   0  0  0  0  0  0  0  0  0  0  0  0
   13.1653    4.7834   33.5975 C   0  0  0  0  0  0  0  0  0  0  0  0
   11.6996   -2.7786   34.7239 O   0  0  0  0  0  1  0  0  0  0  0  0
   14.7421    4.4983   33.7600 C   0  0  0  0  0  0  0  0  0  0  0  0
   10.3336    5.4067   36.0402 N   0  0  0  0  0  0  0  0  0  0  0  0
   14.3155    2.4132   31.0012 C   0  0  0  0  0  0  0  0  0  0  0  0
   13.3996    0.2708   31.5198 C   0  0  0  0  0  0  0  0  0  0  0  0
   15.1261    1.8296   30.0860 C   0  0  0  0  0  0  0  0  0  0  0  0
   10.4812    4.8306   33.9732 C   0  0  0  0  0  0  0  0  0  0  0  0
   10.6084   -4.5776   33.1867 C   0  0  0  0  0  0  0  0  0  0  0  0
   11.4306   -3.1421   33.3746 P   0  0  0  0  0  4  0  0  0  0  0  0
   12.6434    5.2423   34.9086 O   0  0  0  0  0  0  0  0  0  0  0  0
   12.6550   -3.4598   32.5571 O   0  0  0  0  0  0  0  0  0  0  0  0
   13.0558    4.5243   36.1663 C   0  0  0  0  0  0  0  0  0  0  0  0
   14.3039   -0.3713   30.6147 C   0  0  0  0  0  0  0  0  0  0  0  0
   14.3534   -1.6491   30.5732 O   0  0  0  0  0  0  0  0  0  0  0  0
   12.3806    3.5959   33.0675 C   0  0  0  0  0  0  0  0  0  0  0  0
   15.1360    0.4375   29.8509 C   0  0  0  0  0  0  0  0  0  0  0  0
   13.4261    1.6755   31.7070 C   0  0  0  0  0  0  0  0  0  0  0  0
   10.4345   -4.6259   31.7372 O   0  0  0  0  0  0  0  0  0  0  0  0
   11.0536    3.6993   33.6984 N   0  0  0  0  0  0  0  0  0  0  0  0
   11.4912    1.3619   33.1277 C   0  0  0  0  0  0  0  0  0  0  0  0
   12.4663   -0.4505   32.1440 C   0  0  0  0  0  0  0  0  0  0  0  0
  1 10  1  0
  1 14  1  0
  1 17  1  0
  2  5  1  0
  2  6  1  0
  3 22  1  0
  3 24  1  0
  3 27  1  0
  4 14  2  0
  5 27  2  0
  5 28  1  0
  6 16  1  0
  7  9  1  0
  7 22  1  0
  8 16  2  0
 11 13  1  0
 11 24  2  0
 12 20  1  0
 12 24  1  0
 12 28  2  0
 13 23  2  0
 14 26  1  0
 15 16  1  0
 15 25  1  0
 16 18  1  0
 17 19  1  0
 20 21  2  0
 20 23  1  0
 22 26  1  0
M  END
>  <ID>  (1) 
conformer_0

$$$$
