
     RDKit          3D

 30 32  0  0  0  0  0  0  0  0999 V2000
   13.8183    4.7453   32.5840 C   0  0  0  0  0  0  0  0  0  0  0  0
   14.1096   -0.0732   31.2129 C   0  0  0  0  0  0  0  0  0  0  0  0
   11.0544    0.6500   33.6657 C   0  0  0  0  0  0  0  0  0  0  0  0
   15.5599    0.5514   29.3880 Cl  0  0  0  0  0  0  0  0  0  0  0  0
    9.3983    2.7140   33.7271 C   0  0  0  0  0  0  0  0  0  0  0  0
    9.5306   -3.4850   33.1202 O   0  0  0  0  0  0  0  0  0  0  0  0
   13.5797   -3.3584   30.9388 O   0  0  0  0  0  0  0  0  0  0  0  0
   13.1679   -2.6029   33.1463 C   0  0  0  0  0  0  0  0  0  0  0  0
   10.7784   -3.7107   32.9305 C   0  0  0  0  0  0  0  0  0  0  0  0
   13.8483   -3.7807   33.6886 O   0  0  0  0  0  0  0  0  0  0  0  0
    9.9674   -0.8610   35.1629 C   0  0  0  0  0  0  0  0  0  0  0  0
   11.0806   -1.8175   34.4765 C   0  0  0  0  0  0  0  0  0  0  0  0
   14.8012    0.9322   30.5152 C   0  0  0  0  0  0  0  0  0  0  0  0
   13.8237    2.4393   32.0294 C   0  0  0  0  0  0  0  0  0  0  0  0
   11.2085   -4.8236   32.4554 O   0  0  0  0  0  0  0  0  0  0  0  0
   17.1599   -5.0003   33.8705 O   0  0  0  0  0  0  0  0  0  0  0  0
   14.1072    3.4015   32.9695 O   0  0  0  0  0  0  0  0  0  0  0  0
   12.7744    1.5161   32.2765 C   0  0  0  0  0  0  0  0  0  0  0  0
   15.5308   -4.7151   35.3676 O   0  0  0  0  0  0  0  0  0  0  0  0
   10.5273    2.7581   32.8801 C   0  0  0  0  0  0  0  0  0  0  0  0
   13.7424   -2.4065   31.7531 C   0  0  0  0  0  0  0  0  0  0  0  0
    9.1444    1.5948   34.5393 C   0  0  0  0  0  0  0  0  0  0  0  0
   10.0390    0.5250   34.4404 C   0  0  0  0  0  0  0  0  0  0  0  0
   15.9749   -4.6933   34.1752 C   0  0  0  0  0  0  0  0  0  0  0  0
   11.4480    1.6986   32.9363 C   0  0  0  0  0  0  0  0  0  0  0  0
   14.6772    2.2124   30.9586 C   0  0  0  0  0  0  0  0  0  0  0  0
   14.5346   -1.3945   31.1460 N   0  0  0  0  0  0  0  0  0  0  0  0
   13.0869    0.2278   31.9449 C   0  0  0  0  0  0  0  0  0  0  0  0
   11.7338   -2.7419   33.5470 C   0  0  0  0  0  0  0  0  0  0  0  0
   15.1937   -3.8974   33.2006 C   0  0  0  0  0  0  0  0  0  0  0  0
  1 17  1  0
  2 13  1  0
  2 27  2  0
  2 28  1  0
  3 23  2  0
  3 25  1  0
  4 13  1  0
  5 20  1  0
  5 22  2  0
  6  9  2  0
  7 21  2  0
  8 10  1  0
  8 21  1  0
  8 29  1  0
  9 15  1  0
  9 29  1  0
 10 30  1  0
 11 12  1  0
 11 23  1  0
 12 29  1  0
 13 26  2  0
 14 17  1  0
 14 18  1  0
 14 26  1  0
 16 24  2  0
 18 25  1  0
 18 28  2  0
 19 24  1  0
 20 25  2  0
 21 27  1  0
 22 23  1  0
 24 30  1  0
M  END
>  <ID>  (1) 
conformer_0

$$$$
