
     RDKit          3D

 25 26  0  0  0  0  0  0  0  0999 V2000
   13.7365    3.1859   32.2579 C   0  0  0  0  0  0  0  0  0  0  0  0
   10.7354   -4.1030   32.7412 C   0  0  0  0  0  0  0  0  0  0  0  0
   14.8729    2.1561   30.3860 C   0  0  0  0  0  0  0  0  0  0  0  0
   10.6081    1.6649   33.5726 C   0  0  0  0  0  0  0  0  0  0  0  0
   13.0078    5.3813   33.7309 C   0  0  0  0  0  0  0  0  0  0  0  0
   13.5909   -3.1831   31.2646 O   0  0  0  0  0  0  0  0  0  0  0  0
   10.3672   -4.6287   31.4512 O   0  0  0  0  0  0  0  0  0  0  0  0
   15.3048    1.1404   29.6081 C   0  0  0  0  0  0  0  0  0  0  0  0
   14.1043    5.4494   32.9585 N   0  0  0  0  0  0  0  0  0  0  0  0
   13.8387   -3.1361   33.5894 C   0  0  0  0  0  0  0  0  0  0  0  0
   10.0161    0.3593   33.2102 C   0  0  0  0  0  0  0  0  0  0  0  0
   14.8890   -0.1755   29.8824 C   0  0  0  0  0  0  0  0  0  0  0  0
   10.0113    2.3004   34.5613 O   0  0  0  0  0  0  0  0  0  0  0  0
   11.8177    1.9725   33.1098 N   0  0  0  0  0  0  0  0  0  0  0  0
   13.0467   -3.2984   32.4544 C   0  0  0  0  0  0  0  0  0  0  0  0
   11.5989   -2.9044   32.5065 C   0  0  0  0  0  0  0  0  0  0  0  0
   14.4420    4.3600   32.2591 C   0  0  0  0  0  0  0  0  0  0  0  0
   14.0777   -0.3590   30.9740 C   0  0  0  0  0  0  0  0  0  0  0  0
   13.6859    0.6734   31.7530 C   0  0  0  0  0  0  0  0  0  0  0  0
   11.0667   -0.4547   32.4381 C   0  0  0  0  0  0  0  0  0  0  0  0
   11.3542   -1.6471   33.2490 C   0  0  0  0  0  0  0  0  0  0  0  0
   11.5169   -1.6400   34.5290 O   0  0  0  0  0  0  0  0  0  0  0  0
   12.5621    3.1385   33.0797 C   0  0  0  0  0  0  0  0  0  0  0  0
   12.2783    4.2572   33.7521 N   0  0  0  0  0  0  0  0  0  0  0  0
   14.0426    1.9678   31.5043 C   0  0  0  0  0  0  0  0  0  0  0  0
  1 17  1  0
  1 23  1  0
  1 25  1  0
  2  7  1  0
  2 16  1  0
  3  8  2  0
  3 25  1  0
  4 11  1  0
  4 13  2  0
  4 14  1  0
  5  9  1  0
  5 24  1  0
  6 15  1  0
  8 12  1  0
  9 17  2  0
 10 15  1  0
 11 20  1  0
 12 18  1  0
 14 23  1  0
 15 16  1  0
 16 21  1  0
 18 19  2  0
 19 25  1  0
 20 21  1  0
 21 22  1  0
 23 24  2  0
M  END
>  <ID>  (1) 
conformer_0

$$$$
