
     RDKit          3D

 18 19  0  0  0  0  0  0  0  0999 V2000
   12.0120    4.2480   33.2618 C   0  0  0  0  0  0  0  0  0  0  0  0
   14.2650    4.8123   32.6473 C   0  0  0  0  0  0  0  0  0  0  0  0
   13.0736    5.1862   33.2490 C   0  0  0  0  0  0  0  0  0  0  0  0
   10.7852   -2.3375   32.8727 O   0  0  0  0  0  0  0  0  0  0  0  0
   13.3955    2.5925   32.1320 C   0  0  0  0  0  0  0  0  0  0  0  0
   13.1325    0.1013   32.0625 C   0  0  0  0  0  0  0  0  0  0  0  0
   13.5570   -1.1601   31.6328 C   0  0  0  0  0  0  0  0  0  0  0  0
   15.2816    2.2956   30.0580 O   0  0  0  0  0  0  0  0  0  0  0  0
   13.0977   -2.4548   32.1804 C   0  0  0  0  0  0  0  0  0  0  0  0
   14.3899    3.5940   32.0961 C   0  0  0  0  0  0  0  0  0  0  0  0
   11.7527   -3.0474   32.3527 C   0  0  0  0  0  0  0  0  0  0  0  0
   14.0281   -2.9909   33.0618 O   0  0  0  0  0  0  0  0  0  0  0  0
   12.1771    2.9707   32.7383 C   0  0  0  0  0  0  0  0  0  0  0  0
   13.6929    1.2694   31.5939 C   0  0  0  0  0  0  0  0  0  0  0  0
   14.5422   -1.1642   30.6037 C   0  0  0  0  0  0  0  0  0  0  0  0
   14.6839    1.2161   30.5493 C   0  0  0  0  0  0  0  0  0  0  0  0
   15.0610   -0.0067   30.0255 C   0  0  0  0  0  0  0  0  0  0  0  0
   11.5121   -4.2279   31.8980 O   0  0  0  0  0  0  0  0  0  0  0  0
  1  3  2  0
  1 13  1  0
  2  3  1  0
  2 10  2  0
  4 11  2  0
  5 10  1  0
  5 13  2  0
  5 14  1  0
  6  7  2  0
  6 14  1  0
  7  9  1  0
  7 15  1  0
  8 16  1  0
  9 11  1  0
  9 12  1  0
 11 18  1  0
 14 16  2  0
 15 17  2  0
 16 17  1  0
M  END
>  <ID>  (1) 
conformer_0

$$$$
