
     RDKit          3D

 20 21  0  0  0  0  0  0  0  0999 V2000
   12.5040   -0.2256   32.3960 C   0  0  0  0  0  0  0  0  0  0  0  0
   13.6355    1.7158   31.7193 C   0  0  0  0  0  0  0  0  0  0  0  0
   12.7218    2.1395   32.6589 N   0  0  0  0  0  0  0  0  0  0  0  0
   13.5734   -2.6649   31.4348 O   0  0  0  0  0  0  0  0  0  0  0  0
   10.4994    2.4179   34.3771 O   0  0  0  0  0  0  0  0  0  0  0  0
   14.5660    2.4745   30.9585 C   0  0  0  0  0  0  0  0  0  0  0  0
   14.3202   -0.2599   30.5683 C   0  0  0  0  0  0  0  0  0  0  0  0
   15.3192    1.8238   29.9691 C   0  0  0  0  0  0  0  0  0  0  0  0
   12.7318   -2.5567   34.4717 O   0  0  0  0  0  0  0  0  0  0  0  0
   12.0639   -2.5381   33.3100 C   0  0  0  0  0  0  0  0  0  0  0  0
   10.3761   -4.1186   33.7372 O   0  0  0  0  0  0  0  0  0  0  0  0
   11.8724    1.0054   33.0264 C   0  0  0  0  0  0  0  0  0  0  0  0
   11.0615   -4.0262   31.5852 O   0  0  0  0  0  0  0  0  0  0  0  0
   15.1598    0.4779   29.7594 C   0  0  0  0  0  0  0  0  0  0  0  0
   12.7481   -1.7737   32.2407 C   0  0  0  0  0  0  0  0  0  0  0  0
    9.8359    0.3356   33.9869 O   0  0  0  0  0  0  0  0  0  0  0  0
   16.1835    2.5045   29.2397 F   0  0  0  0  0  0  0  0  0  0  0  0
   10.6678    1.3141   33.7789 C   0  0  0  0  0  0  0  0  0  0  0  0
   13.5244    0.3518   31.5247 C   0  0  0  0  0  0  0  0  0  0  0  0
   11.2004   -3.6770   32.8683 C   0  0  0  0  0  0  0  0  0  0  0  0
  1 12  1  0
  1 15  2  3
  1 19  1  0
  2  3  1  0
  2  6  1  0
  2 19  2  0
  3 12  1  0
  4 15  1  0
  5 18  2  0
  6  8  1  0
  7 14  1  0
  7 19  1  0
  8 14  2  0
  8 17  1  0
  9 10  1  0
 10 15  1  0
 10 20  1  0
 11 20  2  0
 12 18  1  0
 13 20  1  0
 16 18  1  0
M  END
>  <ID>  (1) 
conformer_0

$$$$
