
     RDKit          3D

 21 23  0  0  0  0  0  0  0  0999 V2000
   14.2519    1.5723   31.0812 C   0  0  0  0  0  0  0  0  0  0  0  0
   14.9850   -0.3262   29.8614 C   0  0  0  0  0  0  0  0  0  0  0  0
   11.0019   -4.2672   32.9627 C   0  0  0  0  0  0  0  0  0  0  0  0
   14.2180    2.8783   31.6050 C   0  0  0  0  0  0  0  0  0  0  0  0
   10.7450    1.5274   32.6034 Cl  0  0  0  0  0  0  0  0  0  0  0  0
   15.7264    1.8410   29.2974 O   0  0  0  0  0  0  0  0  0  0  0  0
   11.9660    5.8112   34.4443 C   0  0  0  0  0  0  0  0  0  0  0  0
   13.4333   -0.5918   31.7299 C   0  0  0  0  0  0  0  0  0  0  0  0
   12.1114   -3.4720   33.6673 C   0  0  0  0  0  0  0  0  0  0  0  0
   13.1691    2.9151   32.5651 C   0  0  0  0  0  0  0  0  0  0  0  0
   13.2854    0.7745   31.7778 C   0  0  0  0  0  0  0  0  0  0  0  0
   15.0115    1.0402   30.0356 C   0  0  0  0  0  0  0  0  0  0  0  0
   11.7986    4.3972   33.9696 N   0  0  0  0  0  0  0  0  0  0  0  0
   14.0312    5.0542   33.6559 C   0  0  0  0  0  0  0  0  0  0  0  0
   13.0383    3.9361   33.5233 C   0  0  0  0  0  0  0  0  0  0  0  0
   12.7773   -2.7779   32.5627 C   0  0  0  0  0  0  0  0  0  0  0  0
   13.4373    5.8401   34.8543 C   0  0  0  0  0  0  0  0  0  0  0  0
   12.8416   -1.4088   32.6925 N   0  0  0  0  0  0  0  0  0  0  0  0
   12.9686   -3.4987   31.4957 O   0  0  0  0  0  0  0  0  0  0  0  0
   12.4874    1.6832   32.4411 C   0  0  0  0  0  0  0  0  0  0  0  0
   14.2222   -1.1209   30.7362 C   0  0  0  0  0  0  0  0  0  0  0  0
  1  4  1  0
  1 11  1  0
  1 12  1  0
  2 12  2  0
  2 21  1  0
  3  9  1  0
  4 10  1  0
  5 20  1  0
  6 12  1  0
  7 13  1  0
  7 17  1  0
  8 11  1  0
  8 18  1  0
  8 21  2  0
  9 16  1  0
 10 15  1  0
 10 20  1  0
 11 20  1  0
 13 15  1  0
 14 15  1  0
 14 17  1  0
 16 18  1  0
 16 19  2  0
M  END
>  <ID>  (1) 
conformer_0

$$$$
