
     RDKit          3D

 27 28  0  0  0  0  0  0  0  0999 V2000
   12.4722    2.5417   32.8518 N   0  0  0  0  0  0  0  0  0  0  0  0
   13.7681   -3.3645   33.3274 P   0  0  0  0  0  4  0  0  0  0  0  0
   11.4727   -0.5127   33.4659 C   0  0  0  0  0  0  0  0  0  0  0  0
   13.7065    2.9272   32.6124 C   0  0  0  0  0  0  0  0  0  0  0  0
   12.3729   -4.0738   33.1270 O   0  0  0  0  0  0  0  0  0  0  0  0
   14.1902    2.0598   31.5482 C   0  0  0  0  0  0  0  0  0  0  0  0
   10.8362   -4.0549   32.7993 P   0  0  0  0  0  4  0  0  0  0  0  0
    9.9422    4.4006   34.2718 N   0  0  0  0  0  0  0  0  0  0  0  0
    9.3476    2.0989   34.5441 C   0  0  0  0  0  0  0  0  0  0  0  0
   11.3541    2.7411   33.4463 C   0  0  0  0  0  0  0  0  0  0  0  0
   13.7588    0.7687   31.4333 C   0  0  0  0  0  0  0  0  0  0  0  0
   10.6443   -4.2648   31.3419 O   0  0  0  0  0  1  0  0  0  0  0  0
   10.9549   -1.7984   34.0995 C   0  0  0  0  0  0  0  0  0  0  0  0
   14.2163   -0.0051   30.4172 C   0  0  0  0  0  0  0  0  0  0  0  0
    9.1204    3.4333   34.7399 C   0  0  0  0  0  0  0  0  0  0  0  0
   10.1754   -2.6383   33.2051 O   0  0  0  0  0  0  0  0  0  0  0  0
   14.7375   -4.3522   34.0116 O   0  0  0  0  0  1  0  0  0  0  0  0
   11.0633    4.0454   33.6476 C   0  0  0  0  0  0  0  0  0  0  0  0
   15.1035    2.5791   30.6223 C   0  0  0  0  0  0  0  0  0  0  0  0
   13.6648   -2.2057   34.2899 O   0  0  0  0  0  0  0  0  0  0  0  0
   14.4056    3.6993   33.2681 O   0  0  0  0  0  0  0  0  0  0  0  0
   10.4291    1.7418   33.8522 C   0  0  0  0  0  0  0  0  0  0  0  0
   10.6197    0.4608   33.3609 O   0  0  0  0  0  0  0  0  0  0  0  0
   15.5646    1.7705   29.6097 C   0  0  0  0  0  0  0  0  0  0  0  0
   10.2219   -5.0552   33.7100 O   0  0  0  0  0  0  0  0  0  0  0  0
   14.2953   -2.8597   31.9718 O   0  0  0  0  0  0  0  0  0  0  0  0
   15.1056    0.4942   29.4922 C   0  0  0  0  0  0  0  0  0  0  0  0
  1  4  1  0
  1 10  1  0
  2  5  1  0
  2 17  2  0
  2 20  1  0
  2 26  1  0
  3 13  1  0
  3 23  1  0
  4  6  1  0
  4 21  2  0
  5  7  1  0
  6 11  2  0
  6 19  1  0
  7 12  2  0
  7 16  1  0
  7 25  1  0
  8 15  2  0
  8 18  1  0
  9 15  1  0
  9 22  2  0
 10 18  2  0
 10 22  1  0
 11 14  1  0
 13 16  1  0
 14 27  2  0
 19 24  2  0
 22 23  1  0
 24 27  1  0
M  END
>  <ID>  (1) 
conformer_0

$$$$
