
     RDKit          3D

 23 25  0  0  0  0  0  0  0  0999 V2000
   12.7658    3.5413   33.5567 N   0  0  0  0  0  0  0  0  0  0  0  0
   15.1445   -3.4451   32.4734 O   0  0  0  0  0  0  0  0  0  0  0  0
   11.1842   -3.7004   31.4746 O   0  0  0  0  0  0  0  0  0  0  0  0
   13.5208    1.9337   31.8402 C   0  0  0  0  0  0  0  0  0  0  0  0
   14.2167   -0.1212   30.7255 C   0  0  0  0  0  0  0  0  0  0  0  0
   13.4311   -2.8016   34.1780 O   0  0  0  0  0  0  0  0  0  0  0  0
   12.5221    0.0108   32.6251 C   0  0  0  0  0  0  0  0  0  0  0  0
   15.0301    0.6048   29.8634 C   0  0  0  0  0  0  0  0  0  0  0  0
   10.6318    0.9697   33.8675 C   0  0  0  0  0  0  0  0  0  0  0  0
   10.9145   -1.4013   33.6631 C   0  0  0  0  0  0  0  0  0  0  0  0
   14.3808    2.6338   31.0190 C   0  0  0  0  0  0  0  0  0  0  0  0
   12.2660   -3.7518   32.3640 C   0  0  0  0  0  0  0  0  0  0  0  0
   12.5445    2.4135   32.8364 C   0  0  0  0  0  0  0  0  0  0  0  0
   14.1483    4.1013   33.6451 C   0  0  0  0  0  0  0  0  0  0  0  0
   12.1168    3.8266   34.8322 C   0  0  0  0  0  0  0  0  0  0  0  0
   13.4628    0.5262   31.7077 C   0  0  0  0  0  0  0  0  0  0  0  0
   11.8336    1.1648   33.2025 C   0  0  0  0  0  0  0  0  0  0  0  0
   10.1584   -0.3367   34.1026 C   0  0  0  0  0  0  0  0  0  0  0  0
   15.1309    1.9884   30.0236 C   0  0  0  0  0  0  0  0  0  0  0  0
   12.1410   -1.2662   32.9881 C   0  0  0  0  0  0  0  0  0  0  0  0
    9.8920    1.9960   34.2961 O   0  0  0  0  0  0  0  0  0  0  0  0
   12.9946   -2.5207   32.8216 C   0  0  0  0  0  0  0  0  0  0  0  0
   14.2155   -2.4634   31.9502 C   0  0  0  0  0  0  0  0  0  0  0  0
  1 13  1  0
  1 14  1  0
  1 15  1  0
  2 23  1  0
  3 12  1  0
  4 11  2  0
  4 13  1  0
  4 16  1  0
  5  8  2  0
  5 16  1  0
  6 22  1  0
  7 16  2  0
  7 17  1  0
  7 20  1  0
  8 19  1  0
  9 17  2  0
  9 18  1  0
  9 21  1  0
 10 18  2  0
 10 20  1  0
 11 19  1  0
 12 22  1  0
 13 17  1  0
 20 22  1  0
 22 23  1  0
M  END
>  <ID>  (1) 
conformer_0

$$$$
