
     RDKit          3D

 23 24  0  0  0  0  0  0  0  0999 V2000
   11.0100   -5.0822   32.2180 O   0  0  0  0  0  1  0  0  0  0  0  0
   15.1071   -0.0211   29.6056 C   0  0  0  0  0  0  0  0  0  0  0  0
   15.2871    2.3347   30.0280 C   0  0  0  0  0  0  0  0  0  0  0  0
   11.9773    3.7178   31.7923 C   0  0  0  0  0  0  0  0  0  0  0  0
   11.5211   -3.7102   32.6397 P   0  0  0  0  0  0  0  0  0  0  0  0
   13.3187   -1.9071   32.1225 C   0  0  0  0  0  0  0  0  0  0  0  0
   11.0900    4.6105   32.0908 C   0  0  0  0  0  0  0  0  0  0  0  0
   15.5950    1.2092   29.3422 C   0  0  0  0  0  0  0  0  0  0  0  0
   10.1380    3.9086   34.1994 C   0  0  0  0  0  0  0  0  0  0  0  0
   13.5735    0.3874   31.5073 C   0  0  0  0  0  0  0  0  0  0  0  0
   12.3717   -3.0121   31.5010 O   0  0  0  0  0  0  0  0  0  0  0  0
   10.8914    2.7714   34.2203 C   0  0  0  0  0  0  0  0  0  0  0  0
   14.2833   -0.2671   30.5701 C   0  0  0  0  0  0  0  0  0  0  0  0
   10.2112    4.8731   33.1473 C   0  0  0  0  0  0  0  0  0  0  0  0
   11.8511    2.1362   33.5155 C   0  0  0  0  0  0  0  0  0  0  0  0
   14.4972   -2.9159   32.5136 C   0  0  0  0  0  0  0  0  0  0  0  0
   13.4839    1.8025   31.6236 C   0  0  0  0  0  0  0  0  0  0  0  0
   13.9616   -3.5842   33.7812 C   0  0  0  0  0  0  0  0  0  0  0  0
   12.4481    2.4942   32.3224 C   0  0  0  0  0  0  0  0  0  0  0  0
   14.3936    2.5792   30.9258 C   0  0  0  0  0  0  0  0  0  0  0  0
   10.4675   -2.7519   33.0109 O   0  0  0  0  0  1  0  0  0  0  0  0
   12.8671   -0.4976   32.4346 O   0  0  0  0  0  0  0  0  0  0  0  0
   12.5862   -3.9860   33.8256 O   0  0  0  0  0  0  0  0  0  0  0  0
  1  5  1  0
  2  8  1  0
  2 13  2  0
  3  8  1  0
  3 20  2  0
  4  7  2  0
  4 19  1  0
  5 11  1  0
  5 21  1  0
  6 11  1  0
  6 16  1  0
  6 22  1  0
  7 14  1  0
  9 12  1  0
  9 14  2  0
 10 13  1  0
 10 17  1  0
 10 22  1  0
 12 15  2  0
 15 19  1  0
 16 18  1  0
 17 19  1  0
 17 20  1  0
 18 23  1  0
M  END
>  <ID>  (1) 
conformer_0

$$$$
