
     RDKit          3D

 15 16  0  0  0  0  0  0  0  0999 V2000
   10.9736   -2.8663   32.2448 O   0  0  0  0  0  0  0  0  0  0  0  0
   12.2611    2.9641   32.0466 C   0  0  0  0  0  0  0  0  0  0  0  0
   12.2732    0.5419   32.3030 C   0  0  0  0  0  0  0  0  0  0  0  0
   14.1620   -0.5012   31.1299 N   0  0  0  0  0  0  0  0  0  0  0  0
   13.4940    0.6862   31.4905 C   0  0  0  0  0  0  0  0  0  0  0  0
   14.1325    1.9182   31.0112 C   0  0  0  0  0  0  0  0  0  0  0  0
   14.2301   -2.7877   30.9378 O   0  0  0  0  0  0  0  0  0  0  0  0
   13.5442    3.0818   31.4412 N   0  0  0  0  0  0  0  0  0  0  0  0
   11.6371   -1.8840   32.9928 C   0  0  0  0  0  0  0  0  0  0  0  0
   13.1671   -1.9336   32.7888 C   0  0  0  0  0  0  0  0  0  0  0  0
   11.2589   -0.4223   32.7216 N   0  0  0  0  0  0  0  0  0  0  0  0
   11.8341    1.8515   32.7712 C   0  0  0  0  0  0  0  0  0  0  0  0
   15.4019    1.8573   29.9414 C   0  0  0  0  0  0  0  0  0  0  0  0
   13.7708   -1.7139   31.5171 C   0  0  0  0  0  0  0  0  0  0  0  0
   11.3721   -2.1232   34.2904 O   0  0  0  0  0  0  0  0  0  0  0  0
  1  9  1  0
  2  8  1  0
  2 12  1  0
  3  5  1  0
  3 11  1  0
  3 12  1  0
  4  5  2  0
  4 14  1  0
  5  6  1  0
  6  8  2  0
  6 13  1  0
  7 14  2  0
  9 10  1  0
  9 11  1  0
  9 15  1  0
 10 14  1  0
M  END
>  <ID>  (1) 
conformer_0

$$$$
