
     RDKit          3D

 31 34  0  0  0  0  0  0  0  0999 V2000
   10.0936   -1.9556   32.8000 O   0  0  0  0  0  1  0  0  0  0  0  0
   10.2522    1.9407   32.6590 C   0  0  0  0  0  0  0  0  0  0  0  0
   12.5593    2.3710   32.2811 C   0  0  0  0  0  0  0  0  0  0  0  0
   15.4908    1.3510   29.6476 C   0  0  0  0  0  0  0  0  0  0  0  0
   11.2875   -4.3133   32.8089 C   0  0  0  0  0  0  0  0  0  0  0  0
   11.1460   -2.4118   34.9190 O   0  0  0  0  0  0  0  0  0  0  0  0
   13.6914    1.9383   31.6096 C   0  0  0  0  0  0  0  0  0  0  0  0
   10.3884   -3.0770   33.7473 P   0  0  0  0  0  4  0  0  0  0  0  0
   13.8835    0.5917   31.2967 C   0  0  0  0  0  0  0  0  0  0  0  0
   14.7146    4.0834   31.9689 C   0  0  0  0  0  0  0  0  0  0  0  0
   11.5593    1.4522   32.5666 C   0  0  0  0  0  0  0  0  0  0  0  0
   10.0899    3.3203   32.6046 C   0  0  0  0  0  0  0  0  0  0  0  0
   12.4960   -3.6041   32.1159 C   0  0  0  0  0  0  0  0  0  0  0  0
   14.0295    5.3161   33.8294 N   0  0  0  0  0  0  0  0  0  0  0  0
   10.4040   -4.7667   31.7823 O   0  0  0  0  0  0  0  0  0  0  0  0
   12.0430    0.1342   32.7639 N   0  0  0  0  0  0  0  0  0  0  0  0
   13.6687    4.4533   32.8159 C   0  0  0  0  0  0  0  0  0  0  0  0
   14.6381    4.7737   34.9993 C   0  0  0  0  0  0  0  0  0  0  0  0
   15.5238    2.5919   30.1981 C   0  0  0  0  0  0  0  0  0  0  0  0
   14.7160   -0.8241   29.6740 O   0  0  0  0  0  0  0  0  0  0  0  0
    9.1408   -3.7913   34.2796 O   0  0  0  0  0  0  0  0  0  0  0  0
   14.6711    2.8952   31.2501 C   0  0  0  0  0  0  0  0  0  0  0  0
   13.8188   -3.4569   34.0489 O   0  0  0  0  0  0  0  0  0  0  0  0
   13.7297   -1.4716   32.7711 N   0  0  0  0  0  0  0  0  0  0  0  0
    8.7585    3.7746   32.4457 F   0  0  0  0  0  0  0  0  0  0  0  0
   14.7173    0.3337   30.1712 C   0  0  0  0  0  0  0  0  0  0  0  0
   13.2323   -0.3356   32.1813 C   0  0  0  0  0  0  0  0  0  0  0  0
   11.1209    4.2019   32.6709 C   0  0  0  0  0  0  0  0  0  0  0  0
   13.3908   -2.8103   33.0059 C   0  0  0  0  0  0  0  0  0  0  0  0
   12.4304    3.7186   32.6267 C   0  0  0  0  0  0  0  0  0  0  0  0
   13.7308    6.7010   33.7877 C   0  0  0  0  0  0  0  0  0  0  0  0
  1  8  2  0
  2 11  2  0
  2 12  1  0
  3  7  2  0
  3 11  1  0
  3 30  1  0
  4 19  2  0
  4 26  1  0
  5  8  1  0
  5 13  1  0
  5 15  1  0
  6  8  1  0
  7  9  1  0
  7 22  1  0
  8 21  1  0
  9 26  1  0
  9 27  1  0
 10 17  1  0
 10 22  2  0
 11 16  1  0
 12 25  1  0
 12 28  2  0
 13 29  1  0
 14 17  1  0
 14 18  1  0
 14 31  1  0
 16 27  2  0
 17 30  1  0
 19 22  1  0
 20 26  2  0
 23 29  2  0
 24 27  1  0
 24 29  1  0
 28 30  1  0
M  END
>  <ID>  (1) 
conformer_0

$$$$
