
     RDKit          3D

 23 24  0  0  0  0  0  0  0  0999 V2000
   13.8884    2.3285   32.5576 C   0  0  0  0  0  0  0  0  0  0  0  0
   12.3303   -3.5979   32.9995 O   0  0  0  0  0  0  0  0  0  0  0  0
   12.2441   -2.0963   33.2073 C   0  0  0  0  0  0  0  0  0  0  0  0
   11.8738    2.9403   33.8918 C   0  0  0  0  0  0  0  0  0  0  0  0
   15.0204    2.4169   30.4329 C   0  0  0  0  0  0  0  0  0  0  0  0
    9.7005    3.2145   32.9275 C   0  0  0  0  0  0  0  0  0  0  0  0
   14.6124    4.1672   34.0419 C   0  0  0  0  0  0  0  0  0  0  0  0
   15.3854    0.6071   28.9614 C   0  0  0  0  0  0  0  0  0  0  0  0
   10.2684    3.1814   31.6432 C   0  0  0  0  0  0  0  0  0  0  0  0
   15.5175    1.9225   29.2708 C   0  0  0  0  0  0  0  0  0  0  0  0
   10.5904   -4.4965   31.5453 O   0  0  0  0  0  1  0  0  0  0  0  0
   14.8012    3.4753   32.7933 O   0  0  0  0  0  0  0  0  0  0  0  0
   11.0003   -4.1708   32.8557 P   0  0  0  0  0  0  0  0  0  0  0  0
   11.6374    2.9963   31.5130 C   0  0  0  0  0  0  0  0  0  0  0  0
   10.1596   -4.2517   33.9518 O   0  0  0  0  0  1  0  0  0  0  0  0
   13.9835   -2.0728   31.4559 C   0  0  0  0  0  0  0  0  0  0  0  0
   12.4359   -0.7226   32.5058 C   0  0  0  0  0  0  0  0  0  0  0  0
   14.3306    1.6071   31.3354 C   0  0  0  0  0  0  0  0  0  0  0  0
   14.7100   -0.2130   29.7995 C   0  0  0  0  0  0  0  0  0  0  0  0
   13.6204   -0.7415   31.7431 N   0  0  0  0  0  0  0  0  0  0  0  0
   14.2007    0.2299   30.9925 C   0  0  0  0  0  0  0  0  0  0  0  0
   10.5022    3.1064   34.0508 C   0  0  0  0  0  0  0  0  0  0  0  0
   12.4613    2.8061   32.6446 C   0  0  0  0  0  0  0  0  0  0  0  0
  1 12  1  0
  1 18  1  0
  1 23  1  0
  2  3  1  0
  2 13  1  0
  3 17  1  0
  4 22  2  0
  4 23  1  0
  5 10  2  0
  5 18  1  0
  6  9  2  0
  6 22  1  0
  7 12  1  0
  8 10  1  0
  8 19  2  0
  9 14  1  0
 11 13  1  0
 13 15  1  0
 14 23  2  0
 16 20  1  0
 17 20  1  0
 18 21  2  0
 19 21  1  0
 20 21  1  0
M  END
>  <ID>  (1) 
conformer_0

$$$$
