
     RDKit          3D

 24 25  0  0  0  0  0  0  0  0999 V2000
   12.2953    0.9157   33.0728 O   0  0  0  0  0  0  0  0  0  0  0  0
   15.0971    2.3771   30.2601 C   0  0  0  0  0  0  0  0  0  0  0  0
   12.0600    5.0577   32.1485 C   0  0  0  0  0  0  0  0  0  0  0  0
   12.0707    4.9723   33.6592 C   0  0  0  0  0  0  0  0  0  0  0  0
   10.8054   -4.5867   31.9433 O   0  0  0  0  0  0  0  0  0  0  0  0
   10.9264    5.7032   31.6792 O   0  0  0  0  0  0  0  0  0  0  0  0
   11.8815   -3.1077   33.4680 C   0  0  0  0  0  0  0  0  0  0  0  0
   11.4980    6.1666   34.1477 O   0  0  0  0  0  0  0  0  0  0  0  0
   15.5442    1.4574   29.3455 C   0  0  0  0  0  0  0  0  0  0  0  0
   13.4328    4.4465   34.2254 C   0  0  0  0  0  0  0  0  0  0  0  0
   13.8618    0.6182   31.3472 C   0  0  0  0  0  0  0  0  0  0  0  0
   13.1061   -1.0695   32.8629 N   0  0  0  0  0  0  0  0  0  0  0  0
   14.3810    3.9623   32.9970 C   0  0  0  0  0  0  0  0  0  0  0  0
   14.1701   -3.3479   34.1007 O   0  0  0  0  0  0  0  0  0  0  0  0
   14.2974   -0.2738   30.4072 C   0  0  0  0  0  0  0  0  0  0  0  0
   13.0227    0.1773   32.4583 C   0  0  0  0  0  0  0  0  0  0  0  0
   14.2002    2.0040   31.2568 C   0  0  0  0  0  0  0  0  0  0  0  0
   15.1264    0.1687   29.3801 C   0  0  0  0  0  0  0  0  0  0  0  0
   11.9243   -1.6443   33.4953 C   0  0  0  0  0  0  0  0  0  0  0  0
   13.2133   -3.5919   33.0036 C   0  0  0  0  0  0  0  0  0  0  0  0
   12.4923    3.7890   31.4583 C   0  0  0  0  0  0  0  0  0  0  0  0
   13.6542    3.0494   32.0914 C   0  0  0  0  0  0  0  0  0  0  0  0
   10.6519   -3.6638   32.8614 C   0  0  0  0  0  0  0  0  0  0  0  0
    9.5295   -3.1527   33.2062 O   0  0  0  0  0  0  0  0  0  0  0  0
  1 16  2  0
  2  9  2  0
  2 17  1  0
  3  4  1  0
  3  6  1  0
  3 21  1  0
  4  8  1  0
  4 10  1  0
  5 23  2  0
  7 19  1  0
  7 20  1  0
  7 23  1  0
  9 18  1  0
 10 13  1  0
 11 15  1  0
 11 16  1  0
 11 17  2  0
 12 16  1  0
 12 19  1  0
 13 22  1  0
 14 20  1  0
 15 18  2  0
 17 22  1  0
 21 22  1  0
 23 24  1  0
M  END
>  <ID>  (1) 
conformer_0

$$$$
