
     RDKit          3D

 27 28  0  0  0  0  0  0  0  0999 V2000
   15.0146    0.0743   29.7958 C   0  0  0  0  0  0  0  0  0  0  0  0
   11.8016    5.2728   32.1423 C   0  0  0  0  0  0  0  0  0  0  0  0
   14.2681   -0.6645   30.6460 C   0  0  0  0  0  0  0  0  0  0  0  0
   10.1961   -4.8287   33.7680 O   0  0  0  0  0  1  0  0  0  0  0  0
   16.8027   -4.4473   33.1516 O   0  0  0  0  0  0  0  0  0  0  0  0
   15.9007   -4.5768   34.0870 C   0  0  0  0  0  0  0  0  0  0  0  0
   10.4789    5.3056   32.6774 C   0  0  0  0  0  0  0  0  0  0  0  0
   16.2316   -5.0449   35.4326 C   0  0  0  0  0  0  0  0  0  0  0  0
   12.5746   -1.1229   32.3720 C   0  0  0  0  0  0  0  0  0  0  0  0
   14.3576   -3.1053   32.7528 C   0  0  0  0  0  0  0  0  0  0  0  0
   14.5795   -3.9451   34.0270 C   0  0  0  0  0  0  0  0  0  0  0  0
   11.0044   -3.8448   33.1059 P   0  0  0  0  0  4  0  0  0  0  0  0
   10.9962   -3.9906   31.6590 O   0  0  0  0  0  0  0  0  0  0  0  0
   12.1630    3.2478   33.0214 C   0  0  0  0  0  0  0  0  0  0  0  0
   13.6169    3.4937   32.3683 C   0  0  0  0  0  0  0  0  0  0  0  0
   11.3665   -0.7353   32.2793 O   0  0  0  0  0  0  0  0  0  0  0  0
   10.0655    4.2210   33.4380 C   0  0  0  0  0  0  0  0  0  0  0  0
   13.4813    1.0982   32.1221 C   0  0  0  0  0  0  0  0  0  0  0  0
   10.9323    3.1581   33.6314 C   0  0  0  0  0  0  0  0  0  0  0  0
   11.0143   -2.5453   34.1526 O   0  0  0  0  0  0  0  0  0  0  0  0
   15.1901    1.3967   29.7932 C   0  0  0  0  0  0  0  0  0  0  0  0
   13.9702    2.2441   31.7033 C   0  0  0  0  0  0  0  0  0  0  0  0
   13.1267   -2.2730   32.9710 N   0  0  0  0  0  0  0  0  0  0  0  0
   13.4934   -0.2150   31.7035 C   0  0  0  0  0  0  0  0  0  0  0  0
   14.8236    2.3626   30.5958 N   0  0  0  0  0  0  0  0  0  0  0  0
   12.2053   -3.0835   33.8263 C   0  0  0  0  0  0  0  0  0  0  0  0
   12.5240    4.1282   32.3805 C   0  0  0  0  0  0  0  0  0  0  0  0
  1  3  2  0
  1 21  1  0
  2  7  2  0
  2 27  1  0
  3 24  1  0
  4 12  2  0
  5  6  1  0
  6  8  1  0
  6 11  1  0
  7 17  1  0
  9 16  2  0
  9 23  1  0
  9 24  1  0
 10 11  1  0
 10 23  1  0
 12 13  1  0
 12 26  1  0
 14 19  1  0
 14 27  2  0
 15 22  1  0
 15 27  1  0
 17 19  2  0
 18 22  2  0
 18 24  1  0
 20 26  1  0
 21 25  2  0
 22 25  1  0
 23 26  1  0
M  END
>  <ID>  (1) 
conformer_0

$$$$
