
     RDKit          3D

  9  9  0  0  0  0  0  0  0  0999 V2000
   14.5561   -0.3889   30.4961 C   0  0  0  0  0  0  0  0  0  0  0  0
   13.2745    0.6988   32.1890 C   0  0  0  0  0  0  0  0  0  0  0  0
   12.0571   -1.8213   32.7286 O   0  0  0  0  0  0  0  0  0  0  0  0
   13.0660   -1.8031   31.9514 C   0  0  0  0  0  0  0  0  0  0  0  0
   14.9967    0.8679   30.0444 C   0  0  0  0  0  0  0  0  0  0  0  0
   14.5943    2.0053   30.6875 C   0  0  0  0  0  0  0  0  0  0  0  0
   13.6604   -0.4920   31.5662 C   0  0  0  0  0  0  0  0  0  0  0  0
   13.7471    1.9411   31.7566 C   0  0  0  0  0  0  0  0  0  0  0  0
   13.5309   -2.8885   31.3920 O   0  0  0  0  0  0  0  0  0  0  0  0
  1  5  2  0
  1  7  1  0
  2  7  2  0
  2  8  1  0
  3  4  2  0
  4  7  1  0
  4  9  1  0
  5  6  1  0
  6  8  2  0
M  END
>  <ID>  (1) 
conformer_0

$$$$
