
     RDKit          3D

 18 19  0  0  0  0  0  0  0  0999 V2000
   14.9003   -3.6908   33.3597 O   0  0  0  0  0  0  0  0  0  0  0  0
   11.9554   -1.7531   32.8022 N   0  0  0  0  0  0  0  0  0  0  0  0
   13.7937    0.3166   31.4037 C   0  0  0  0  0  0  0  0  0  0  0  0
   12.7437    2.0378   32.5213 C   0  0  0  0  0  0  0  0  0  0  0  0
   14.3486    1.4592   30.8036 C   0  0  0  0  0  0  0  0  0  0  0  0
   15.9615    2.3120   29.1330 C   0  0  0  0  0  0  0  0  0  0  0  0
   15.0550    1.5465   29.7647 O   0  0  0  0  0  0  0  0  0  0  0  0
   14.4245   -2.1470   31.7386 N   0  0  0  0  0  0  0  0  0  0  0  0
   11.0226    0.0463   33.6880 O   0  0  0  0  0  0  0  0  0  0  0  0
   10.6293   -2.4656   32.8646 C   0  0  0  0  0  0  0  0  0  0  0  0
   12.7647    0.6422   32.3106 C   0  0  0  0  0  0  0  0  0  0  0  0
   13.7772    2.8047   31.5813 S   0  0  0  0  0  0  0  0  0  0  0  0
   14.2736   -1.0073   31.1405 C   0  0  0  0  0  0  0  0  0  0  0  0
   11.8929   -0.3164   32.9332 C   0  0  0  0  0  0  0  0  0  0  0  0
   12.5979   -3.3963   32.9461 C   0  0  0  0  0  0  0  0  0  0  0  0
   10.8377   -4.6940   31.8748 O   0  0  0  0  0  0  0  0  0  0  0  0
   14.0168   -3.1250   32.6550 C   0  0  0  0  0  0  0  0  0  0  0  0
   11.1896   -3.9309   32.9318 C   0  0  0  0  0  0  0  0  0  0  0  0
  1 17  2  0
  2 10  1  0
  2 14  1  0
  3  5  1  0
  3 11  2  0
  3 13  1  0
  4 11  1  0
  4 12  1  0
  5  7  1  0
  5 12  1  0
  6  7  1  0
  8 13  1  0
  8 17  1  0
  9 14  2  0
 10 18  1  0
 11 14  1  0
 15 17  1  0
 15 18  1  0
 16 18  1  0
M  END
>  <ID>  (1) 
conformer_0

$$$$
