
     RDKit          3D

 17 18  0  0  0  0  0  0  0  0999 V2000
   11.8631   -0.7278   32.5045 C   0  0  0  0  0  0  0  0  0  0  0  0
   13.3152    2.5028   31.6367 C   0  0  0  0  0  0  0  0  0  0  0  0
   14.9768    1.3055   30.1596 C   0  0  0  0  0  0  0  0  0  0  0  0
   11.3201   -4.3037   31.5403 O   0  0  0  0  0  1  0  0  0  0  0  0
   12.8790   -0.0084   31.8401 C   0  0  0  0  0  0  0  0  0  0  0  0
   15.9707    1.5919   29.3022 F   0  0  0  0  0  0  0  0  0  0  0  0
   11.4020   -1.9930   32.4433 O   0  0  0  0  0  0  0  0  0  0  0  0
   14.4122    2.3996   30.7781 C   0  0  0  0  0  0  0  0  0  0  0  0
   11.0804    0.2458   33.2138 C   0  0  0  0  0  0  0  0  0  0  0  0
   12.8806   -3.6807   33.4820 O   0  0  0  0  0  0  0  0  0  0  0  0
   12.8691    3.7111   32.0595 N   0  0  0  0  0  0  0  0  0  0  0  0
   11.5458    1.4857   32.9386 N   0  0  0  0  0  0  0  0  0  0  0  0
   10.3617   -4.0582   33.7647 O   0  0  0  0  0  0  0  0  0  0  0  0
   12.6442    1.3104   32.0844 C   0  0  0  0  0  0  0  0  0  0  0  0
   11.4482   -3.4894   32.8241 P   0  0  0  0  0  4  0  0  0  0  0  0
   13.8252   -0.6343   31.1083 N   0  0  0  0  0  0  0  0  0  0  0  0
   14.6941    0.0001   30.3244 C   0  0  0  0  0  0  0  0  0  0  0  0
  1  5  2  0
  1  7  1  0
  1  9  1  0
  2  8  1  0
  2 11  1  0
  2 14  2  0
  3  6  1  0
  3  8  2  0
  3 17  1  0
  4 15  2  0
  5 14  1  0
  5 16  1  0
  7 15  1  0
  9 12  1  0
 10 15  1  0
 12 14  1  0
 13 15  1  0
 16 17  2  0
M  END
>  <ID>  (1) 
conformer_0

$$$$
