
     RDKit          3D

 13 13  0  0  0  0  0  0  0  0999 V2000
   14.3210   -0.3437   30.7300 C   0  0  0  0  0  0  0  0  0  0  0  0
   10.5455   -2.7054   33.1561 O   0  0  0  0  0  1  0  0  0  0  0  0
   12.9978   -2.3171   31.8902 C   0  0  0  0  0  0  0  0  0  0  0  0
   14.9141    1.8988   30.1905 C   0  0  0  0  0  0  0  0  0  0  0  0
   11.2096   -4.6257   31.7207 O   0  0  0  0  0  0  0  0  0  0  0  0
   15.0672    0.5471   29.9681 C   0  0  0  0  0  0  0  0  0  0  0  0
   13.9877    2.3926   31.1090 C   0  0  0  0  0  0  0  0  0  0  0  0
   12.6602   -4.0168   33.7305 O   0  0  0  0  0  0  0  0  0  0  0  0
   11.7642   -3.4534   32.5964 P   0  0  0  0  0  4  0  0  0  0  0  0
   12.7812   -0.9020   32.5381 C   0  0  0  0  0  0  0  0  0  0  0  0
   13.4219    0.1149   31.6915 C   0  0  0  0  0  0  0  0  0  0  0  0
   13.1989    1.4958   31.8220 C   0  0  0  0  0  0  0  0  0  0  0  0
   11.9375    2.1872   32.8147 Cl  0  0  0  0  0  0  0  0  0  0  0  0
  1  6  2  0
  1 11  1  0
  2  9  2  0
  3  9  1  0
  3 10  1  0
  4  6  1  0
  4  7  2  0
  5  9  1  0
  7 12  1  0
  8  9  1  0
 10 11  1  0
 11 12  2  0
 12 13  1  0
M  END
>  <ID>  (1) 
conformer_0

$$$$
