
     RDKit          3D

 21 22  0  0  0  0  0  0  0  0999 V2000
   11.4414    0.4546   32.9143 C   0  0  0  0  0  0  0  0  0  0  0  0
   15.2281    1.9368   30.2296 C   0  0  0  0  0  0  0  0  0  0  0  0
   10.0383    3.9089   33.7536 C   0  0  0  0  0  0  0  0  0  0  0  0
   10.4452   -0.0623   32.2305 O   0  0  0  0  0  0  0  0  0  0  0  0
   15.3455    0.6472   29.6990 C   0  0  0  0  0  0  0  0  0  0  0  0
   11.5059   -4.6867   32.2829 O   0  0  0  0  0  0  0  0  0  0  0  0
   13.6831   -4.1199   33.7233 O   0  0  0  0  0  0  0  0  0  0  0  0
   12.6358   -3.3268   32.8704 P   0  0  0  0  0  5  0  0  0  0  0  0
   11.2646    2.7916   33.2686 C   0  0  0  0  0  0  0  0  0  0  0  0
   12.3532    1.6571   32.6741 C   0  0  0  0  0  0  0  0  0  0  0  0
   16.0341    2.8621   29.7888 O   0  0  0  0  0  0  0  0  0  0  0  0
   13.1720   -3.2452   31.3458 O   0  0  0  0  0  0  0  0  0  0  0  0
   10.2797    1.6889   33.8494 C   0  0  0  0  0  0  0  0  0  0  0  0
    9.1817    2.6390   34.1386 O   0  0  0  0  0  0  0  0  0  0  0  0
   13.7091   -0.0732   31.2136 C   0  0  0  0  0  0  0  0  0  0  0  0
   12.3445   -0.6644   33.1267 N   0  0  0  0  0  0  0  0  0  0  0  0
   14.2863    2.2119   31.2011 C   0  0  0  0  0  0  0  0  0  0  0  0
   14.5716   -0.3587   30.1971 C   0  0  0  0  0  0  0  0  0  0  0  0
   13.4420    1.2039   31.7300 C   0  0  0  0  0  0  0  0  0  0  0  0
   11.4514   -3.0179   33.7844 O   0  0  0  0  0  0  0  0  0  0  0  0
   13.3752   -1.5566   33.2344 N   0  0  0  0  0  0  0  0  0  0  0  0
  1  4  1  0
  1 10  1  0
  1 16  1  0
  2  5  1  0
  2 11  1  0
  2 17  2  0
  3  9  1  0
  3 14  1  0
  5 18  1  0
  6  8  1  0
  7  8  1  0
  8 12  1  0
  8 20  1  0
  8 21  1  0
  9 10  1  0
  9 13  1  0
 10 19  1  0
 13 14  1  0
 15 18  2  0
 15 19  1  0
 16 21  1  0
 17 19  1  0
M  END
>  <ID>  (1) 
conformer_0

$$$$
