
     RDKit          3D

 17 19  0  0  0  0  0  0  0  0999 V2000
   14.0837   -3.7930   31.3379 O   0  0  0  0  0  0  0  0  0  0  0  0
   11.9260   -1.1603   32.7812 C   0  0  0  0  0  0  0  0  0  0  0  0
   11.8871    1.1866   33.3002 C   0  0  0  0  0  0  0  0  0  0  0  0
   13.8168    2.1357   32.2000 C   0  0  0  0  0  0  0  0  0  0  0  0
   13.7796   -1.3487   31.2648 C   0  0  0  0  0  0  0  0  0  0  0  0
   14.6260    2.4726   31.0709 C   0  0  0  0  0  0  0  0  0  0  0  0
   15.0422    1.6244   30.0669 C   0  0  0  0  0  0  0  0  0  0  0  0
   13.4644   -2.7186   31.5614 C   0  0  0  0  0  0  0  0  0  0  0  0
   14.9348    0.3253   29.8721 C   0  0  0  0  0  0  0  0  0  0  0  0
   11.0133   -3.2790   31.7644 O   0  0  0  0  0  0  0  0  0  0  0  0
   12.9985    0.9116   32.4041 C   0  0  0  0  0  0  0  0  0  0  0  0
   12.3433   -3.6715   33.4687 O   0  0  0  0  0  0  0  0  0  0  0  0
   14.6095   -0.8419   30.3031 C   0  0  0  0  0  0  0  0  0  0  0  0
   12.0907   -2.7852   32.4607 C   0  0  0  0  0  0  0  0  0  0  0  0
   11.1934   -0.0469   33.5583 C   0  0  0  0  0  0  0  0  0  0  0  0
   13.8594    3.0064   33.1864 O   0  0  0  0  0  0  0  0  0  0  0  0
   12.9926   -0.4837   32.0814 C   0  0  0  0  0  0  0  0  0  0  0  0
  1  8  2  0
  2 14  1  0
  2 15  1  0
  2 17  1  0
  3 11  1  0
  3 15  1  0
  4  6  2  0
  4 11  1  0
  4 16  1  0
  5  8  1  0
  5 13  2  0
  5 17  1  0
  6  7  1  0
  7  9  2  0
  8 14  1  0
  9 13  1  0
 10 14  1  0
 11 17  2  0
 12 14  1  0
M  END
>  <ID>  (1) 
conformer_0

$$$$
