
     RDKit          3D

 31 32  0  0  0  0  0  0  0  0999 V2000
   17.1026   -4.4289   32.9298 C   0  0  0  0  0  0  0  0  0  0  0  0
   13.3168    2.8001   32.4291 C   0  0  0  0  0  0  0  0  0  0  0  0
    9.5542    4.6928   34.2276 C   0  0  0  0  0  0  0  0  0  0  0  0
   15.9823   -4.5044   33.8296 C   0  0  0  0  0  0  0  0  0  0  0  0
   15.0508    2.6249   30.6466 C   0  0  0  0  0  0  0  0  0  0  0  0
   14.9331    0.6904   29.1490 O   0  0  0  0  0  0  0  0  0  0  0  0
   11.0792    3.4470   35.9616 C   0  0  0  0  0  0  0  0  0  0  0  0
   14.4161    3.3236   31.6950 C   0  0  0  0  0  0  0  0  0  0  0  0
   10.1245   -2.4121   33.1020 O   0  0  0  0  0  0  0  0  0  0  0  0
   12.9803   -1.2927   32.0412 C   0  0  0  0  0  0  0  0  0  0  0  0
   14.6285    1.3437   30.2761 C   0  0  0  0  0  0  0  0  0  0  0  0
   12.2756   -3.0924   33.6668 C   0  0  0  0  0  0  0  0  0  0  0  0
   14.7281   -3.9938   33.5411 C   0  0  0  0  0  0  0  0  0  0  0  0
   16.0118   -5.0970   35.0766 O   0  0  0  0  0  0  0  0  0  0  0  0
   12.6683    3.5613   35.9283 C   0  0  0  0  0  0  0  0  0  0  0  0
   10.6386    4.7753   35.2684 C   0  0  0  0  0  0  0  0  0  0  0  0
   13.0160    1.4766   32.0904 C   0  0  0  0  0  0  0  0  0  0  0  0
   10.8484   -4.3353   31.6123 O   0  0  0  0  0  1  0  0  0  0  0  0
   12.3391    3.5232   33.3740 C   0  0  0  0  0  0  0  0  0  0  0  0
   11.5089    5.8763   35.1115 O   0  0  0  0  0  0  0  0  0  0  0  0
   11.0243    2.6875   33.5272 C   0  0  0  0  0  0  0  0  0  0  0  0
   11.3565   -1.7907   34.0400 C   0  0  0  0  0  0  0  0  0  0  0  0
   13.2102    4.0504   34.5559 C   0  0  0  0  0  0  0  0  0  0  0  0
   13.7928    0.7426   31.2654 C   0  0  0  0  0  0  0  0  0  0  0  0
   13.8868   -0.5998   31.4233 N   0  0  0  0  0  0  0  0  0  0  0  0
   10.7977   -3.8190   32.9886 P   0  0  0  0  0  0  0  0  0  0  0  0
   14.5501   -3.0860   32.5540 N   0  0  0  0  0  0  0  0  0  0  0  0
   10.1572   -4.7390   33.9412 O   0  0  0  0  0  1  0  0  0  0  0  0
   13.1806   -2.6815   32.4812 C   0  0  0  0  0  0  0  0  0  0  0  0
    9.5860    3.2148   33.6004 C   0  0  0  0  0  0  0  0  0  0  0  0
   10.5623   -0.5430   34.5797 C   0  0  0  0  0  0  0  0  0  0  0  0
  1  4  1  0
  2  8  1  0
  2 17  2  0
  2 19  1  0
  3 16  1  0
  3 30  1  0
  4 13  1  0
  4 14  1  0
  5  8  2  0
  5 11  1  0
  6 11  1  0
  7 15  1  0
  7 16  1  0
  9 22  1  0
  9 26  1  0
 10 25  2  3
 10 29  1  0
 11 24  1  0
 12 22  1  0
 12 29  1  0
 13 27  1  0
 15 23  1  0
 16 20  1  0
 17 24  1  0
 18 26  1  0
 19 21  1  0
 19 23  1  0
 21 30  1  0
 22 31  1  0
 24 25  1  0
 26 28  1  0
 27 29  1  0
M  END
>  <ID>  (1) 
conformer_0

$$$$
