
     RDKit          3D

 29 32  0  0  0  0  0  0  0  0999 V2000
   10.5168    3.3828   31.3826 C   0  0  0  0  0  0  0  0  0  0  0  0
   13.4349    1.5487   31.5082 C   0  0  0  0  0  0  0  0  0  0  0  0
   10.0168   -4.1164   34.0400 O   0  0  0  0  0  0  0  0  0  0  0  0
   10.6798   -4.0484   33.0069 C   0  0  0  0  0  0  0  0  0  0  0  0
   13.6917    0.2297   31.1692 C   0  0  0  0  0  0  0  0  0  0  0  0
   16.1123    3.0722   29.3863 C   0  0  0  0  0  0  0  0  0  0  0  0
   13.4674   -2.1139   31.6138 C   0  0  0  0  0  0  0  0  0  0  0  0
   13.9419    3.7539   33.3066 C   0  0  0  0  0  0  0  0  0  0  0  0
   11.5031    4.2758   33.4122 C   0  0  0  0  0  0  0  0  0  0  0  0
   12.7523   -3.1915   32.0374 C   0  0  0  0  0  0  0  0  0  0  0  0
   13.0870   -0.8133   31.8595 C   0  0  0  0  0  0  0  0  0  0  0  0
   11.5484    3.1477   32.4584 N   0  0  0  0  0  0  0  0  0  0  0  0
   11.6973    0.8095   33.1186 C   0  0  0  0  0  0  0  0  0  0  0  0
   15.4018    4.5933   35.9070 C   0  0  0  0  0  0  0  0  0  0  0  0
   10.6209   -4.8704   32.0017 O   0  0  0  0  0  0  0  0  0  0  0  0
   10.5542    5.1930   33.3974 O   0  0  0  0  0  0  0  0  0  0  0  0
   12.0402   -0.5384   32.7659 C   0  0  0  0  0  0  0  0  0  0  0  0
   14.5490   -0.0921   30.1095 C   0  0  0  0  0  0  0  0  0  0  0  0
   11.5895   -2.9040   32.7839 C   0  0  0  0  0  0  0  0  0  0  0  0
   15.2291    2.1697   30.0224 C   0  0  0  0  0  0  0  0  0  0  0  0
   12.2908    1.9094   32.3226 C   0  0  0  0  0  0  0  0  0  0  0  0
   14.4151    3.6766   31.9067 O   0  0  0  0  0  0  0  0  0  0  0  0
   14.6967    5.6189   35.0798 C   0  0  0  0  0  0  0  0  0  0  0  0
   12.9256    4.8868   33.5490 C   0  0  0  0  0  0  0  0  0  0  0  0
   11.3157   -1.6561   33.1937 C   0  0  0  0  0  0  0  0  0  0  0  0
   14.3894    2.4977   31.0573 C   0  0  0  0  0  0  0  0  0  0  0  0
   15.2708    0.8517   29.5149 C   0  0  0  0  0  0  0  0  0  0  0  0
   15.3213    5.9375   33.9215 O   0  0  0  0  0  0  0  0  0  0  0  0
   13.2050    5.5735   34.9105 C   0  0  0  0  0  0  0  0  0  0  0  0
  1 12  1  0
  2  5  1  0
  2 21  1  0
  2 26  1  0
  3  4  2  0
  4 15  1  0
  4 19  1  0
  5 11  2  0
  5 18  1  0
  6 20  1  0
  7 10  2  0
  7 11  1  0
  8 22  1  0
  8 24  1  0
  9 12  1  0
  9 16  1  0
  9 24  1  0
 10 19  1  0
 11 17  1  0
 12 21  1  0
 13 17  2  0
 13 21  1  0
 14 23  1  0
 17 25  1  0
 18 27  2  0
 19 25  2  0
 20 26  1  0
 20 27  1  0
 22 26  1  0
 23 28  1  0
 23 29  1  0
 24 29  1  0
M  END
>  <ID>  (1) 
conformer_0

$$$$
