
     RDKit          3D

 30 33  0  0  0  0  0  0  0  0999 V2000
   13.6529    3.6863   31.7332 C   0  0  0  0  0  0  0  0  0  0  0  0
   13.9389   -0.0040   31.1728 C   0  0  0  0  0  0  0  0  0  0  0  0
   11.8262    2.5063   32.7752 C   0  0  0  0  0  0  0  0  0  0  0  0
   15.2680    1.4955   29.1625 C   0  0  0  0  0  0  0  0  0  0  0  0
   14.9086    2.0368   30.4135 C   0  0  0  0  0  0  0  0  0  0  0  0
   12.6575   -4.0327   33.6332 C   0  0  0  0  0  0  0  0  0  0  0  0
   13.4554    4.5167   32.9341 C   0  0  0  0  0  0  0  0  0  0  0  0
   16.1672   -4.5691   33.2652 C   0  0  0  0  0  0  0  0  0  0  0  0
   17.2126   -4.4948   32.5735 O   0  0  0  0  0  0  0  0  0  0  0  0
   15.0241   -3.6291   32.8707 C   0  0  0  0  0  0  0  0  0  0  0  0
   13.0476    2.3328   31.9162 C   0  0  0  0  0  0  0  0  0  0  0  0
   12.0858    4.9150   32.4596 C   0  0  0  0  0  0  0  0  0  0  0  0
   14.0396   -3.8826   33.9456 C   0  0  0  0  0  0  0  0  0  0  0  0
   14.7396   -2.2952   32.3506 N   0  0  0  0  0  0  0  0  0  0  0  0
   13.5576    4.8324   34.3569 O   0  0  0  0  0  0  0  0  0  0  0  0
   13.2992   -2.0968   32.2373 C   0  0  0  0  0  0  0  0  0  0  0  0
   12.9518   -0.6874   31.9521 C   0  0  0  0  0  0  0  0  0  0  0  0
   14.7773   -0.5990   30.2334 C   0  0  0  0  0  0  0  0  0  0  0  0
   10.9537    1.1987   32.5974 C   0  0  0  0  0  0  0  0  0  0  0  0
   15.9605   -5.3969   34.2060 O   0  0  0  0  0  0  0  0  0  0  0  0
   10.9026   -2.4276   32.7474 O   0  0  0  0  0  0  0  0  0  0  0  0
   14.0727    3.9086   36.6234 C   0  0  0  0  0  0  0  0  0  0  0  0
   13.8157    1.4153   31.0960 C   0  0  0  0  0  0  0  0  0  0  0  0
   15.2527    0.0764   29.1063 C   0  0  0  0  0  0  0  0  0  0  0  0
   12.1090   -3.1203   32.4924 C   0  0  0  0  0  0  0  0  0  0  0  0
   11.9546    0.0324   32.7637 C   0  0  0  0  0  0  0  0  0  0  0  0
   11.9080    2.6735   34.1474 O   0  0  0  0  0  0  0  0  0  0  0  0
   14.6206    4.3055   35.1623 C   0  0  0  0  0  0  0  0  0  0  0  0
   11.5893   -4.0642   31.5991 O   0  0  0  0  0  0  0  0  0  0  0  0
   11.1264    3.7464   32.1992 C   0  0  0  0  0  0  0  0  0  0  0  0
  1  7  1  0
  1 11  1  0
  2 17  1  0
  2 18  1  0
  2 23  1  0
  3 11  1  0
  3 19  1  0
  3 27  1  0
  3 30  1  0
  4  5  1  0
  4 24  1  0
  5 23  1  0
  6 13  1  0
  6 25  1  0
  7 12  1  0
  7 15  1  0
  8  9  2  0
  8 10  1  0
  8 20  1  0
 10 13  1  0
 10 14  1  0
 11 23  1  0
 12 30  1  0
 14 16  1  0
 15 28  1  0
 16 17  1  0
 16 25  1  0
 17 26  1  0
 18 24  1  0
 19 26  1  0
 21 25  1  0
 22 28  1  0
 25 29  1  0
M  END
>  <ID>  (1) 
conformer_0

$$$$
