
     RDKit          3D

 26 28  0  0  0  0  0  0  0  0999 V2000
    9.1149    3.0550   33.8011 C   0  0  0  0  0  0  0  0  0  0  0  0
   14.7468   -0.3339   30.2281 C   0  0  0  0  0  0  0  0  0  0  0  0
   13.9232   -2.2350   31.4673 O   0  0  0  0  0  0  0  0  0  0  0  0
   13.3587    1.2712   31.9959 C   0  0  0  0  0  0  0  0  0  0  0  0
   13.2023    3.5122   34.6285 C   0  0  0  0  0  0  0  0  0  0  0  0
   11.0541   -3.6392   32.5339 P   0  0  0  0  0  4  0  0  0  0  0  0
    9.4221    3.8805   34.8545 C   0  0  0  0  0  0  0  0  0  0  0  0
   10.7576    4.0400   35.1987 C   0  0  0  0  0  0  0  0  0  0  0  0
   10.6014   -4.4316   33.7525 O   0  0  0  0  0  1  0  0  0  0  0  0
   13.7646    2.9143   33.4570 O   0  0  0  0  0  0  0  0  0  0  0  0
   12.6260    2.1629   32.8205 C   0  0  0  0  0  0  0  0  0  0  0  0
   13.2787   -0.0484   32.1077 C   0  0  0  0  0  0  0  0  0  0  0  0
   10.8315   -4.4850   31.3853 O   0  0  0  0  0  0  0  0  0  0  0  0
   11.7168    3.4252   34.4420 C   0  0  0  0  0  0  0  0  0  0  0  0
   12.9093   -3.0366   32.0596 C   0  0  0  0  0  0  0  0  0  0  0  0
   13.9992   -0.8514   31.2770 C   0  0  0  0  0  0  0  0  0  0  0  0
   14.8495    1.0378   30.1456 C   0  0  0  0  0  0  0  0  0  0  0  0
   11.4332    2.5885   33.3672 C   0  0  0  0  0  0  0  0  0  0  0  0
   14.5198    3.1511   31.0040 F   0  0  0  0  0  0  0  0  0  0  0  0
   15.5280   -3.9317   32.3700 O   0  0  0  0  0  0  0  0  0  0  0  0
   10.5139   -2.2527   32.6101 O   0  0  0  0  0  0  0  0  0  0  0  0
   14.7199   -3.7433   33.5020 C   0  0  0  0  0  0  0  0  0  0  0  0
   14.2462    1.8391   31.0913 C   0  0  0  0  0  0  0  0  0  0  0  0
   10.1172    2.4295   33.0252 C   0  0  0  0  0  0  0  0  0  0  0  0
   13.3818   -3.1553   33.5852 C   0  0  0  0  0  0  0  0  0  0  0  0
   15.4811    1.6210   29.1350 F   0  0  0  0  0  0  0  0  0  0  0  0
  1  7  2  0
  1 24  1  0
  2 16  2  0
  2 17  1  0
  3 15  1  0
  3 16  1  0
  4 11  1  0
  4 12  2  0
  4 23  1  0
  5 10  1  0
  5 14  1  0
  6  9  2  0
  6 13  1  0
  6 15  1  0
  6 21  1  0
  7  8  1  0
  8 14  2  0
 10 11  1  0
 11 18  1  0
 12 16  1  0
 14 18  1  0
 15 25  1  0
 17 23  2  0
 17 26  1  0
 18 24  2  0
 19 23  1  0
 20 22  1  0
 22 25  1  0
M  END
>  <ID>  (1) 
conformer_0

$$$$
