
     RDKit          3D

 21 22  0  0  0  0  0  0  0  0999 V2000
   10.6244    4.4429   33.6495 C   0  0  0  0  0  0  0  0  0  0  0  0
   10.5962   -4.5864   33.1968 O   0  0  0  0  0  0  0  0  0  0  0  0
   10.4212    3.7050   34.9298 C   0  0  0  0  0  0  0  0  0  0  0  0
   12.9048    0.7027   31.9999 C   0  0  0  0  0  0  0  0  0  0  0  0
   13.4563    4.1246   33.0379 C   0  0  0  0  0  0  0  0  0  0  0  0
   14.7635    0.2324   30.3746 C   0  0  0  0  0  0  0  0  0  0  0  0
   11.5670   -2.4218   33.3657 C   0  0  0  0  0  0  0  0  0  0  0  0
   13.8089   -0.1313   31.3664 C   0  0  0  0  0  0  0  0  0  0  0  0
   11.7127    2.5810   32.5228 C   0  0  0  0  0  0  0  0  0  0  0  0
   11.3062   -3.6975   32.6127 C   0  0  0  0  0  0  0  0  0  0  0  0
   12.9174    2.0858   31.9565 C   0  0  0  0  0  0  0  0  0  0  0  0
   15.1337   -0.5670   29.5397 O   0  0  0  0  0  0  0  0  0  0  0  0
   12.3918   -1.3336   32.6138 C   0  0  0  0  0  0  0  0  0  0  0  0
   11.9793   -3.9377   31.5282 O   0  0  0  0  0  0  0  0  0  0  0  0
   11.7848   -2.9212   34.7857 C   0  0  0  0  0  0  0  0  0  0  0  0
   15.4199    1.4030   30.3044 N   0  0  0  0  0  0  0  0  0  0  0  0
   12.0546   -0.0508   32.7389 N   0  0  0  0  0  0  0  0  0  0  0  0
   11.9294    3.9804   33.0113 C   0  0  0  0  0  0  0  0  0  0  0  0
   13.4812   -1.3990   31.7737 N   0  0  0  0  0  0  0  0  0  0  0  0
   14.0561    2.9393   32.2942 C   0  0  0  0  0  0  0  0  0  0  0  0
    9.5920    4.3108   32.6777 O   0  0  0  0  0  0  0  0  0  0  0  0
  1  3  1  0
  1 18  1  0
  1 21  1  0
  2 10  2  0
  4  8  2  0
  4 11  1  0
  4 17  1  0
  5 18  1  0
  5 20  1  0
  6  8  1  0
  6 12  2  0
  6 16  1  0
  7 10  1  0
  7 13  1  0
  7 15  1  0
  8 19  1  0
  9 11  1  0
  9 18  1  0
 10 14  1  0
 11 20  1  0
 13 17  2  0
 13 19  1  0
M  END
>  <ID>  (1) 
conformer_0

$$$$
