
     RDKit          3D

 31 33  0  0  0  0  0  0  0  0999 V2000
   16.6245    1.2441   27.0328 C   0  0  0  0  0  0  0  0  0  0  0  0
   14.8526    2.1942   30.0571 C   0  0  0  0  0  0  0  0  0  0  0  0
    9.4876    4.8414   34.5110 C   0  0  0  0  0  0  0  0  0  0  0  0
   13.8995   -0.0188   31.3247 C   0  0  0  0  0  0  0  0  0  0  0  0
   10.8717   -3.8637   33.0641 C   0  0  0  0  0  0  0  0  0  0  0  0
   17.0234    0.6653   25.7397 C   0  0  0  0  0  0  0  0  0  0  0  0
   11.4933    4.7567   33.2095 C   0  0  0  0  0  0  0  0  0  0  0  0
   13.8127    5.0160   34.3192 C   0  0  0  0  0  0  0  0  0  0  0  0
   12.0840   -3.0082   33.2489 C   0  0  0  0  0  0  0  0  0  0  0  0
   17.2227    1.8025   24.7776 C   0  0  0  0  0  0  0  0  0  0  0  0
   16.2127    0.6126   28.1912 N   0  0  0  0  0  0  0  0  0  0  0  0
   14.0646    2.2925   31.2134 C   0  0  0  0  0  0  0  0  0  0  0  0
   10.1337    4.6339   33.2893 C   0  0  0  0  0  0  0  0  0  0  0  0
   10.8703   -4.7806   32.1119 O   0  0  0  0  0  0  0  0  0  0  0  0
   17.1264    2.9907   25.5757 C   0  0  0  0  0  0  0  0  0  0  0  0
   14.6788   -0.1703   30.1183 C   0  0  0  0  0  0  0  0  0  0  0  0
   14.2834    4.2723   33.0233 C   0  0  0  0  0  0  0  0  0  0  0  0
   18.8510   -0.1189   23.5357 O   0  0  0  0  0  0  0  0  0  0  0  0
   17.4162    1.7899   23.4295 C   0  0  0  0  0  0  0  0  0  0  0  0
   11.6262    5.2088   35.5679 C   0  0  0  0  0  0  0  0  0  0  0  0
   15.1256    0.9535   29.5497 C   0  0  0  0  0  0  0  0  0  0  0  0
   18.1796    0.5578   21.5461 O   0  0  0  0  0  0  0  0  0  0  0  0
   13.5819    1.1928   31.8783 C   0  0  0  0  0  0  0  0  0  0  0  0
   13.6564    3.6691   31.7801 C   0  0  0  0  0  0  0  0  0  0  0  0
   12.1036   -1.6485   32.4894 C   0  0  0  0  0  0  0  0  0  0  0  0
    9.9989   -3.9868   33.9969 O   0  0  0  0  0  0  0  0  0  0  0  0
   10.2386    5.1490   35.6519 C   0  0  0  0  0  0  0  0  0  0  0  0
   18.1397    0.7393   22.8234 C   0  0  0  0  0  0  0  0  0  0  0  0
   12.2699    5.0024   34.3629 C   0  0  0  0  0  0  0  0  0  0  0  0
   16.7494    2.7965   26.9296 C   0  0  0  0  0  0  0  0  0  0  0  0
   13.3856   -1.2125   32.1281 C   0  0  0  0  0  0  0  0  0  0  0  0
  1  6  1  0
  1 11  1  0
  1 30  1  0
  2 12  2  0
  2 21  1  0
  3 13  2  0
  3 27  1  0
  4 16  1  0
  4 23  2  0
  4 31  1  0
  5  9  1  0
  5 14  2  0
  5 26  1  0
  6 10  1  0
  7 13  1  0
  7 29  2  0
  8 17  1  0
  8 29  1  0
  9 25  1  0
 10 15  2  0
 10 19  1  0
 11 21  1  0
 12 23  1  0
 12 24  1  0
 15 30  1  0
 16 21  2  0
 17 24  1  0
 18 28  2  0
 19 28  1  0
 20 27  2  0
 20 29  1  0
 22 28  1  0
 25 31  1  0
M  END
>  <ID>  (1) 
conformer_0

$$$$
