
     RDKit          3D

 12 12  0  0  0  0  0  0  0  0999 V2000
   12.3367   -0.7926   32.7128 O   0  0  0  0  0  0  0  0  0  0  0  0
   13.9656   -2.1914   30.9751 O   0  0  0  0  0  0  0  0  0  0  0  0
   14.0489    2.6810   31.4429 C   0  0  0  0  0  0  0  0  0  0  0  0
   13.0659    2.6768   32.4020 C   0  0  0  0  0  0  0  0  0  0  0  0
   15.7094    1.7948   29.6632 Cl  0  0  0  0  0  0  0  0  0  0  0  0
   13.9363    0.2570   31.2473 C   0  0  0  0  0  0  0  0  0  0  0  0
   15.1162   -0.8914   29.5344 O   0  0  0  0  0  0  0  0  0  0  0  0
   12.9286    0.3109   32.2325 C   0  0  0  0  0  0  0  0  0  0  0  0
   12.6601    3.8267   32.9626 O   0  0  0  0  0  0  0  0  0  0  0  0
   14.4726    1.5145   30.8757 C   0  0  0  0  0  0  0  0  0  0  0  0
   12.5181    1.4839   32.7858 C   0  0  0  0  0  0  0  0  0  0  0  0
   14.3779   -0.9985   30.5662 C   0  0  0  0  0  0  0  0  0  0  0  0
  1  8  1  0
  2 12  2  0
  3  4  2  0
  3 10  1  0
  4  9  1  0
  4 11  1  0
  5 10  1  0
  6  8  1  0
  6 10  2  0
  6 12  1  0
  7 12  1  0
  8 11  2  0
M  END
>  <ID>  (1) 
conformer_0

$$$$
