
     RDKit          3D

 11 11  0  0  0  0  0  0  0  0999 V2000
   13.7645   -2.9255   31.1597 O   0  0  0  0  0  0  0  0  0  0  0  0
   11.8557   -2.6032   32.4016 C   0  0  0  0  0  0  0  0  0  0  0  0
   13.5841    1.3894   32.4586 C   0  0  0  0  0  0  0  0  0  0  0  0
   14.1759    2.5448   31.8476 C   0  0  0  0  0  0  0  0  0  0  0  0
   14.7048    0.6672   30.6186 C   0  0  0  0  0  0  0  0  0  0  0  0
   15.5188   -0.0617   29.9047 O   0  0  0  0  0  0  0  0  0  0  0  0
   14.8400    2.0915   30.6092 C   0  0  0  0  0  0  0  0  0  0  0  0
   13.6782   -0.9234   32.2053 N   0  0  0  0  0  0  0  0  0  0  0  0
   13.9466    0.2460   31.6763 C   0  0  0  0  0  0  0  0  0  0  0  0
   11.4316   -3.8898   31.8043 O   0  0  0  0  0  0  0  0  0  0  0  0
   13.1427   -2.0865   31.8951 C   0  0  0  0  0  0  0  0  0  0  0  0
  1 11  2  0
  2 10  1  0
  2 11  1  0
  3  4  1  0
  3  9  1  0
  4  7  1  0
  5  6  1  0
  5  7  1  0
  5  9  1  0
  8  9  1  0
  8 11  1  0
M  END
>  <ID>  (1) 
conformer_0

$$$$
