
     RDKit          3D

 14 14  0  0  0  0  0  0  0  0999 V2000
   11.1073   -4.3357   31.8190 O   0  0  0  0  0  0  0  0  0  0  0  0
   12.9962    1.9412   32.2294 C   0  0  0  0  0  0  0  0  0  0  0  0
   12.6082   -2.4765   31.6697 C   0  0  0  0  0  0  0  0  0  0  0  0
   13.6868   -0.2016   31.2864 C   0  0  0  0  0  0  0  0  0  0  0  0
   12.3719    2.6626   33.2865 C   0  0  0  0  0  0  0  0  0  0  0  0
   14.7773    1.8615   30.5328 C   0  0  0  0  0  0  0  0  0  0  0  0
   13.9795    2.5970   31.4385 C   0  0  0  0  0  0  0  0  0  0  0  0
   13.6183   -1.5839   31.5183 C   0  0  0  0  0  0  0  0  0  0  0  0
   14.5420    0.4596   30.3912 C   0  0  0  0  0  0  0  0  0  0  0  0
   12.4843   -3.8582   33.5423 O   0  0  0  0  0  0  0  0  0  0  0  0
   12.0446   -3.6306   32.4131 C   0  0  0  0  0  0  0  0  0  0  0  0
   11.7187   -0.0449   32.7418 C   0  0  0  0  0  0  0  0  0  0  0  0
   12.8015    0.5574   32.0691 C   0  0  0  0  0  0  0  0  0  0  0  0
   15.3626   -0.1190   29.0640 Cl  0  0  0  0  0  0  0  0  0  0  0  0
  1 11  2  0
  2  5  1  0
  2  7  2  0
  2 13  1  0
  3  8  1  0
  3 11  1  0
  4  8  1  0
  4  9  1  0
  4 13  1  0
  6  7  1  0
  6  9  2  0
  9 14  1  0
 10 11  1  0
 12 13  1  0
M  END
>  <ID>  (1) 
conformer_0

$$$$
