
     RDKit          3D

 13 14  0  0  0  0  0  0  0  0999 V2000
   13.4078    0.1309   31.9372 C   0  0  0  0  0  0  0  0  0  0  0  0
   13.5713   -2.4336   32.2559 C   0  0  0  0  0  0  0  0  0  0  0  0
   14.8169    1.3610   30.3883 C   0  0  0  0  0  0  0  0  0  0  0  0
   12.8770    1.3374   32.3743 C   0  0  0  0  0  0  0  0  0  0  0  0
   12.9560   -1.0868   32.5395 C   0  0  0  0  0  0  0  0  0  0  0  0
   11.5741   -3.9695   31.7799 O   0  0  0  0  0  0  0  0  0  0  0  0
   13.9459   -2.9938   31.0621 O   0  0  0  0  0  0  0  0  0  0  0  0
   12.1348   -3.2144   32.7017 C   0  0  0  0  0  0  0  0  0  0  0  0
   14.3166    2.5384   30.8845 C   0  0  0  0  0  0  0  0  0  0  0  0
   13.3357    2.5262   31.8644 C   0  0  0  0  0  0  0  0  0  0  0  0
   14.3712    0.1613   30.9328 C   0  0  0  0  0  0  0  0  0  0  0  0
   12.3736   -3.6539   33.9265 O   0  0  0  0  0  0  0  0  0  0  0  0
   11.5543   -1.6892   32.8404 C   0  0  0  0  0  0  0  0  0  0  0  0
  1  4  1  0
  1  5  1  0
  1 11  2  0
  2  5  1  0
  2  7  1  0
  2  8  1  0
  3  9  2  0
  3 11  1  0
  4 10  2  0
  5 13  1  0
  6  8  1  0
  8 12  1  0
  8 13  1  0
  9 10  1  0
M  END
>  <ID>  (1) 
conformer_0

$$$$
