
     RDKit          3D

 28 31  0  0  0  0  0  0  0  0999 V2000
   13.6783   -3.1189   32.2976 C   0  0  0  0  0  0  0  0  0  0  0  0
   11.6896   -0.2874   33.0157 N   0  0  0  0  0  0  0  0  0  0  0  0
   11.9776   -1.4274   33.0385 C   0  0  0  0  0  0  0  0  0  0  0  0
   11.9591    0.9531   32.6237 C   0  0  0  0  0  0  0  0  0  0  0  0
   13.2457    1.0900   31.7990 C   0  0  0  0  0  0  0  0  0  0  0  0
    7.9786    3.4472   34.8102 O   0  0  0  0  0  0  0  0  0  0  0  0
   10.0361    2.6541   33.8171 C   0  0  0  0  0  0  0  0  0  0  0  0
   12.7369    5.4221   32.9671 C   0  0  0  0  0  0  0  0  0  0  0  0
   14.9479    2.4524   30.7239 C   0  0  0  0  0  0  0  0  0  0  0  0
    8.7408    4.4248   32.7251 C   0  0  0  0  0  0  0  0  0  0  0  0
   10.8173    1.7033   32.9492 N   0  0  0  0  0  0  0  0  0  0  0  0
   11.3565   -4.5793   33.4238 O   0  0  0  0  0  0  0  0  0  0  0  0
   13.7126    3.3512   32.7087 C   0  0  0  0  0  0  0  0  0  0  0  0
   13.9823    2.3194   31.7386 C   0  0  0  0  0  0  0  0  0  0  0  0
   11.3206   -3.7569   32.5056 C   0  0  0  0  0  0  0  0  0  0  0  0
   15.3238    1.3678   29.9018 C   0  0  0  0  0  0  0  0  0  0  0  0
   14.0739    4.7994   32.4998 C   0  0  0  0  0  0  0  0  0  0  0  0
   14.4327   -3.3121   33.2253 O   0  0  0  0  0  0  0  0  0  0  0  0
   10.2521    4.7685   32.5805 C   0  0  0  0  0  0  0  0  0  0  0  0
   10.6476   -4.0122   31.4744 O   0  0  0  0  0  0  0  0  0  0  0  0
    8.6118    3.1811   33.6428 C   0  0  0  0  0  0  0  0  0  0  0  0
   13.7226    0.0118   31.0584 C   0  0  0  0  0  0  0  0  0  0  0  0
   11.5617    5.4024   31.8997 C   0  0  0  0  0  0  0  0  0  0  0  0
   14.7160    0.1282   30.1217 C   0  0  0  0  0  0  0  0  0  0  0  0
   12.3728    3.6575   33.2352 N   0  0  0  0  0  0  0  0  0  0  0  0
   12.3063   -2.6322   32.5634 C   0  0  0  0  0  0  0  0  0  0  0  0
   13.9728   -3.1555   31.0493 O   0  0  0  0  0  0  0  0  0  0  0  0
   10.9514    3.9605   33.7643 C   0  0  0  0  0  0  0  0  0  0  0  0
  1 18  2  0
  1 26  1  0
  1 27  1  0
  2  3  1  0
  2  4  2  3
  3 26  1  0
  4  5  1  0
  4 11  1  0
  5 14  1  0
  5 22  1  0
  6 21  1  0
  7 11  1  0
  7 21  1  0
  7 28  1  0
  8 17  1  0
  8 23  1  0
  9 14  1  0
  9 16  2  0
 10 19  1  0
 10 21  1  0
 12 15  2  0
 13 14  1  0
 13 17  1  0
 13 25  1  0
 15 20  1  0
 15 26  1  0
 16 24  1  0
 19 23  1  0
 19 28  1  0
 22 24  2  0
 25 28  1  0
M  END
>  <ID>  (1) 
conformer_0

$$$$
