
     RDKit          3D

 25 28  0  0  0  0  0  0  0  0999 V2000
   15.0222   -0.3658   29.4856 F   0  0  0  0  0  0  0  0  0  0  0  0
   12.3623   -0.9156   32.7655 C   0  0  0  0  0  0  0  0  0  0  0  0
    9.7487   -3.5646   32.8646 O   0  0  0  0  0  0  0  0  0  0  0  0
   11.3606   -4.7607   31.9936 O   0  0  0  0  0  0  0  0  0  0  0  0
   13.0452    2.4802   32.2957 C   0  0  0  0  0  0  0  0  0  0  0  0
   10.8726    3.7314   32.5665 C   0  0  0  0  0  0  0  0  0  0  0  0
   14.0815    4.4879   32.5906 O   0  0  0  0  0  0  0  0  0  0  0  0
   10.0674    4.3817   33.7304 C   0  0  0  0  0  0  0  0  0  0  0  0
   15.2621    1.8134   30.2071 C   0  0  0  0  0  0  0  0  0  0  0  0
   15.0239    2.9401   30.9191 C   0  0  0  0  0  0  0  0  0  0  0  0
   12.0596    0.3828   32.9032 C   0  0  0  0  0  0  0  0  0  0  0  0
   12.2579    4.6198   34.9890 C   0  0  0  0  0  0  0  0  0  0  0  0
   10.8880    5.3241   34.6628 C   0  0  0  0  0  0  0  0  0  0  0  0
   13.4121   -3.5068   33.8366 C   0  0  0  0  0  0  0  0  0  0  0  0
   11.7228   -1.8581   33.6945 C   0  0  0  0  0  0  0  0  0  0  0  0
   12.9613    4.4711   33.5623 C   0  0  0  0  0  0  0  0  0  0  0  0
   14.6503    0.5894   30.3590 C   0  0  0  0  0  0  0  0  0  0  0  0
   12.9203    1.1551   32.1581 C   0  0  0  0  0  0  0  0  0  0  0  0
   10.9498   -3.9546   32.8431 C   0  0  0  0  0  0  0  0  0  0  0  0
   11.9767   -3.2309   33.6303 N   0  0  0  0  0  0  0  0  0  0  0  0
   13.3811   -1.0426   31.6994 O   0  0  0  0  0  0  0  0  0  0  0  0
   13.7133    0.2915   31.3549 C   0  0  0  0  0  0  0  0  0  0  0  0
   12.2001    3.2687   33.0476 N   0  0  0  0  0  0  0  0  0  0  0  0
   10.5583   -1.4196   34.4554 C   0  0  0  0  0  0  0  0  0  0  0  0
   14.0815    3.2379   31.8601 C   0  0  0  0  0  0  0  0  0  0  0  0
  1 17  1  0
  2 11  1  0
  2 15  1  0
  2 21  1  0
  3 19  2  0
  4 19  1  0
  5 18  2  0
  5 23  1  0
  5 25  1  0
  6  8  1  0
  6 23  1  0
  7 16  1  0
  7 25  1  0
  8 13  1  0
  9 10  1  0
  9 17  2  0
 10 25  2  0
 11 18  1  0
 12 13  1  0
 12 16  1  0
 14 20  1  0
 15 20  1  0
 15 24  1  0
 16 23  1  0
 17 22  1  0
 18 22  1  0
 19 20  1  0
 21 22  1  0
M  END
>  <ID>  (1) 
conformer_0

$$$$
