
     RDKit          3D

 27 30  0  0  0  0  0  0  0  0999 V2000
   14.8557   -3.8673   33.2836 C   0  0  0  0  0  0  0  0  0  0  0  0
   13.7603    2.4976   31.3253 C   0  0  0  0  0  0  0  0  0  0  0  0
   17.2922   -4.3819   32.7846 C   0  0  0  0  0  0  0  0  0  0  0  0
   11.2120   -3.7765   32.6904 C   0  0  0  0  0  0  0  0  0  0  0  0
   16.4178   -4.9716   34.9410 C   0  0  0  0  0  0  0  0  0  0  0  0
   12.1107    0.9619   32.4842 N   0  0  0  0  0  0  0  0  0  0  0  0
   15.1981    1.1449   29.9662 C   0  0  0  0  0  0  0  0  0  0  0  0
   12.5220   -2.8735   32.5131 C   0  0  0  0  0  0  0  0  0  0  0  0
   10.8739   -1.2627   33.3988 C   0  0  0  0  0  0  0  0  0  0  0  0
   14.0486   -2.8847   32.4633 N   0  0  0  0  0  0  0  0  0  0  0  0
   10.9055    3.4746   33.1316 C   0  0  0  0  0  0  0  0  0  0  0  0
   10.9659    1.0676   33.2234 C   0  0  0  0  0  0  0  0  0  0  0  0
   13.7438   -0.3431   31.2719 C   0  0  0  0  0  0  0  0  0  0  0  0
   16.2105   -4.4170   33.6815 C   0  0  0  0  0  0  0  0  0  0  0  0
   13.9677   -4.1762   34.1710 O   0  0  0  0  0  0  0  0  0  0  0  0
   12.0419    3.3881   32.4194 C   0  0  0  0  0  0  0  0  0  0  0  0
   10.3589    2.2752   33.4915 C   0  0  0  0  0  0  0  0  0  0  0  0
   12.0341   -1.4336   32.6304 C   0  0  0  0  0  0  0  0  0  0  0  0
   12.6397   -0.2889   32.1432 C   0  0  0  0  0  0  0  0  0  0  0  0
   14.6241   -0.0546   30.3656 C   0  0  0  0  0  0  0  0  0  0  0  0
   12.6593    2.1896   32.0638 C   0  0  0  0  0  0  0  0  0  0  0  0
   18.5500   -4.7485   33.1952 C   0  0  0  0  0  0  0  0  0  0  0  0
   17.6810   -5.3354   35.3520 C   0  0  0  0  0  0  0  0  0  0  0  0
   10.3564   -0.0707   33.6979 C   0  0  0  0  0  0  0  0  0  0  0  0
   14.7117    2.3775   30.5050 C   0  0  0  0  0  0  0  0  0  0  0  0
   18.7625   -5.2308   34.4895 C   0  0  0  0  0  0  0  0  0  0  0  0
   10.7704   -4.2082   31.3348 O   0  0  0  0  0  0  0  0  0  0  0  0
  1 10  1  0
  1 14  1  0
  1 15  2  0
  2 21  2  0
  2 25  2  0
  3 14  2  0
  3 22  1  0
  4  8  1  0
  4 27  1  0
  5 14  1  0
  5 23  2  0
  6 12  1  0
  6 19  1  0
  6 21  1  0
  7 20  1  0
  7 25  1  0
  8 10  1  0
  8 18  1  0
  9 18  1  0
  9 24  2  0
 11 16  1  0
 11 17  1  0
 12 17  2  0
 12 24  1  0
 13 19  2  0
 13 20  2  0
 16 21  1  0
 18 19  1  0
 22 26  2  0
 23 26  1  0
M  END
>  <ID>  (1) 
conformer_0

$$$$
