
     RDKit          3D

  6  5  0  0  0  0  0  0  0  0999 V2000
   14.7035    0.1480   30.1627 S   0  0  0  0  0  0  0  0  0  0  0  0
   12.3067   -1.7040   32.3816 O   0  0  0  0  0  0  0  0  0  0  0  0
   14.8446    1.8265   30.1772 C   0  0  0  0  0  0  0  0  0  0  0  0
   13.4120   -1.6137   31.6993 C   0  0  0  0  0  0  0  0  0  0  0  0
   13.8580   -0.1793   31.5035 C   0  0  0  0  0  0  0  0  0  0  0  0
   13.9451   -2.6683   31.1717 O   0  0  0  0  0  0  0  0  0  0  0  0
  1  3  1  0
  1  5  1  0
  2  4  2  0
  4  5  1  0
  4  6  1  0
M  END
>  <ID>  (1) 
conformer_0

$$$$
