
     RDKit          3D

 18 19  0  0  0  0  0  0  0  0999 V2000
   11.3076    4.0834   31.7202 C   0  0  0  0  0  0  0  0  0  0  0  0
   11.7778    4.9178   32.8856 C   0  0  0  0  0  0  0  0  0  0  0  0
   13.0138   -0.7148   32.0546 C   0  0  0  0  0  0  0  0  0  0  0  0
   12.2923   -3.4204   33.7066 O   0  0  0  0  0  0  0  0  0  0  0  0
   13.2769   -2.1487   31.9582 C   0  0  0  0  0  0  0  0  0  0  0  0
   12.1302   -0.1494   32.9904 C   0  0  0  0  0  0  0  0  0  0  0  0
   14.9188    1.3149   29.6409 C   0  0  0  0  0  0  0  0  0  0  0  0
   13.4791    1.5532   31.3263 C   0  0  0  0  0  0  0  0  0  0  0  0
   11.5797   -3.8918   31.6666 O   0  0  0  0  0  0  0  0  0  0  0  0
   14.1433    2.2598   30.3788 O   0  0  0  0  0  0  0  0  0  0  0  0
   12.5022    3.6308   32.5669 C   0  0  0  0  0  0  0  0  0  0  0  0
   13.7132    3.7820   33.6544 C   0  0  0  0  0  0  0  0  0  0  0  0
   13.6978    0.2186   31.2040 C   0  0  0  0  0  0  0  0  0  0  0  0
   11.9296    1.2170   33.1184 C   0  0  0  0  0  0  0  0  0  0  0  0
   14.1601   -2.6943   31.0895 O   0  0  0  0  0  0  0  0  0  0  0  0
   12.2846   -3.1994   32.4778 C   0  0  0  0  0  0  0  0  0  0  0  0
   12.6341    2.1104   32.3173 C   0  0  0  0  0  0  0  0  0  0  0  0
   14.6143    0.0389   30.1894 O   0  0  0  0  0  0  0  0  0  0  0  0
  1  2  1  0
  2 11  1  0
  3  5  1  0
  3  6  1  0
  3 13  1  0
  4 16  2  0
  5 15  1  0
  5 16  1  0
  6 14  2  0
  7 10  1  0
  7 18  1  0
  8 10  1  0
  8 13  2  0
  8 17  1  0
  9 16  1  0
 11 12  1  0
 11 17  1  0
 13 18  1  0
 14 17  1  0
M  END
>  <ID>  (1) 
conformer_0

$$$$
