
     RDKit          3D

 23 24  0  0  0  0  0  0  0  0999 V2000
   14.7272   -0.1462   30.4409 C   0  0  0  0  0  0  0  0  0  0  0  0
   13.9314    1.9967   30.9433 C   0  0  0  0  0  0  0  0  0  0  0  0
   15.8014    1.7579   29.6072 O   0  0  0  0  0  0  0  0  0  0  0  0
   13.7929   -0.6554   31.3398 C   0  0  0  0  0  0  0  0  0  0  0  0
   11.8335   -3.7444   31.4034 O   0  0  0  0  0  1  0  0  0  0  0  0
   10.2871   -2.7516   33.2558 O   0  0  0  0  0  0  0  0  0  0  0  0
   12.0730    2.7005   32.2890 C   0  0  0  0  0  0  0  0  0  0  0  0
   11.3313   -3.9717   32.7824 P   0  0  0  0  0  4  0  0  0  0  0  0
   11.0180    5.4348   32.7493 C   0  0  0  0  0  0  0  0  0  0  0  0
   12.8156    0.1527   32.0540 C   0  0  0  0  0  0  0  0  0  0  0  0
   10.8555    4.3799   33.6922 C   0  0  0  0  0  0  0  0  0  0  0  0
   12.1238    3.8251   31.3947 C   0  0  0  0  0  0  0  0  0  0  0  0
   12.5792   -3.8520   33.6763 O   0  0  0  0  0  0  0  0  0  0  0  0
   11.7297   -0.2485   32.9906 N   0  0  0  0  0  0  0  0  0  0  0  0
   11.0897   -1.4126   33.3513 O   0  0  0  0  0  0  0  0  0  0  0  0
   11.6692    5.0513   31.5444 C   0  0  0  0  0  0  0  0  0  0  0  0
   11.0347    0.7652   33.5785 O   0  0  0  0  0  0  0  0  0  0  0  0
   14.8148    1.2172   30.3027 C   0  0  0  0  0  0  0  0  0  0  0  0
   10.7067   -5.4007   32.8347 O   0  0  0  0  0  0  0  0  0  0  0  0
   10.2281    0.9704   34.6491 O   0  0  0  0  0  0  0  0  0  0  0  0
   12.9018    1.5372   31.8053 C   0  0  0  0  0  0  0  0  0  0  0  0
   13.9081   -1.9628   31.4835 O   0  0  0  0  0  0  0  0  0  0  0  0
   11.3146    3.0991   33.4259 C   0  0  0  0  0  0  0  0  0  0  0  0
  1  4  2  0
  1 18  1  0
  2 18  2  0
  2 21  1  0
  3 18  1  0
  4 10  1  0
  4 22  1  0
  5  8  2  0
  6  8  1  0
  6 15  1  0
  7 12  1  0
  7 21  1  0
  7 23  1  0
  8 13  1  0
  8 19  1  0
  9 11  1  0
  9 16  1  0
 10 14  1  0
 10 21  2  0
 11 23  2  0
 12 16  2  0
 14 15  1  0
 14 17  1  0
 17 20  1  0
M  END
>  <ID>  (1) 
conformer_0

$$$$
