
     RDKit          3D

 17 18  0  0  0  0  0  0  0  0999 V2000
   13.6186   -3.0648   31.2754 O   0  0  0  0  0  0  0  0  0  0  0  0
   11.1150   -2.1527   33.0241 C   0  0  0  0  0  0  0  0  0  0  0  0
   15.8541    1.8927   29.3127 Cl  0  0  0  0  0  0  0  0  0  0  0  0
   11.6538   -3.6500   32.6958 C   0  0  0  0  0  0  0  0  0  0  0  0
   13.0115    2.0557   32.0808 C   0  0  0  0  0  0  0  0  0  0  0  0
   13.1917    0.6907   31.9589 C   0  0  0  0  0  0  0  0  0  0  0  0
   10.8757    2.0932   33.0216 O   0  0  0  0  0  0  0  0  0  0  0  0
   12.6012   -1.5858   32.9216 C   0  0  0  0  0  0  0  0  0  0  0  0
   14.7491    1.6004   30.5022 C   0  0  0  0  0  0  0  0  0  0  0  0
   14.1797    0.3864   30.9448 O   0  0  0  0  0  0  0  0  0  0  0  0
   14.1308    2.8013   31.2220 S   0  0  0  0  0  0  0  0  0  0  0  0
   13.9316   -3.4133   33.5532 O   0  0  0  0  0  0  0  0  0  0  0  0
   13.1802   -3.1099   32.5027 C   0  0  0  0  0  0  0  0  0  0  0  0
   11.0273   -4.2454   31.6375 O   0  0  0  0  0  0  0  0  0  0  0  0
   12.6583   -0.2471   32.6911 N   0  0  0  0  0  0  0  0  0  0  0  0
   11.9363    2.7763   32.7303 C   0  0  0  0  0  0  0  0  0  0  0  0
   12.0530    4.0256   32.9963 O   0  0  0  0  0  0  0  0  0  0  0  0
  1 13  1  0
  2  4  1  0
  2  8  1  0
  3  9  1  0
  4 13  1  0
  4 14  1  0
  5  6  1  0
  5 11  1  0
  5 16  1  0
  6 10  1  0
  6 15  2  3
  7 16  2  0
  8 13  1  0
  8 15  1  0
  9 10  1  0
  9 11  1  0
 12 13  1  0
 16 17  1  0
M  END
>  <ID>  (1) 
conformer_0

$$$$
