
     RDKit          3D

 28 30  0  0  0  0  0  0  0  0999 V2000
   12.6477   -2.8286   34.1147 C   0  0  0  0  0  0  0  0  0  0  0  0
    9.9001   -0.2216   34.6476 O   0  0  0  0  0  0  0  0  0  0  0  0
   14.2523    2.2183   31.0070 C   0  0  0  0  0  0  0  0  0  0  0  0
   15.8898   -3.2613   32.5120 O   0  0  0  0  0  0  0  0  0  0  0  0
   14.7499   -0.2628   30.1300 N   0  0  0  0  0  0  0  0  0  0  0  0
   10.6436   -4.0187   31.9518 O   0  0  0  0  0  0  0  0  0  0  0  0
   10.5622   -2.1820   33.4851 C   0  0  0  0  0  0  0  0  0  0  0  0
   12.0024   -1.9338   33.3366 O   0  0  0  0  0  0  0  0  0  0  0  0
   10.6049    3.3136   32.9943 C   0  0  0  0  0  0  0  0  0  0  0  0
   14.8669   -2.4056   33.0181 C   0  0  0  0  0  0  0  0  0  0  0  0
   10.2690   -1.4902   34.8103 C   0  0  0  0  0  0  0  0  0  0  0  0
   15.3773    0.7984   29.5723 C   0  0  0  0  0  0  0  0  0  0  0  0
   13.9887   -0.2053   31.2899 C   0  0  0  0  0  0  0  0  0  0  0  0
   13.5466   -2.6976   31.0692 O   0  0  0  0  0  0  0  0  0  0  0  0
   14.1072   -1.6677   31.9656 C   0  0  0  0  0  0  0  0  0  0  0  0
    9.4922    3.7042   33.4699 O   0  0  0  0  0  0  0  0  0  0  0  0
   12.6520    3.3567   32.1118 C   0  0  0  0  0  0  0  0  0  0  0  0
   13.4555    1.2026   31.5627 C   0  0  0  0  0  0  0  0  0  0  0  0
   11.6365    4.1448   32.5084 N   0  0  0  0  0  0  0  0  0  0  0  0
   10.4352   -3.6682   33.1832 C   0  0  0  0  0  0  0  0  0  0  0  0
   15.2055    2.0652   30.0589 C   0  0  0  0  0  0  0  0  0  0  0  0
   11.0419    1.9549   32.7918 N   0  0  0  0  0  0  0  0  0  0  0  0
   12.3477    1.9241   32.2183 C   0  0  0  0  0  0  0  0  0  0  0  0
   10.1534   -4.4963   34.0278 O   0  0  0  0  0  0  0  0  0  0  0  0
   14.3741   -4.4568   34.3125 O   0  0  0  0  0  0  0  0  0  0  0  0
   13.8550    3.5314   31.4741 C   0  0  0  0  0  0  0  0  0  0  0  0
   13.7358   -3.6293   33.4674 C   0  0  0  0  0  0  0  0  0  0  0  0
   10.6843   -1.8311   35.9098 O   0  0  0  0  0  0  0  0  0  0  0  0
  1  8  1  0
  1 27  1  0
  2 11  2  0
  3 18  1  0
  3 21  2  0
  3 26  1  0
  4 10  1  0
  5 12  2  0
  5 13  1  0
  6 20  2  0
  7  8  1  0
  7 11  1  0
  7 20  1  0
  9 16  2  0
  9 19  1  0
  9 22  1  0
 10 15  1  0
 10 27  1  0
 11 28  1  0
 12 21  1  0
 13 15  1  0
 13 18  1  0
 14 15  1  0
 17 19  1  0
 17 23  2  0
 17 26  1  0
 18 23  1  0
 20 24  1  0
 22 23  1  0
 25 27  1  0
M  END
>  <ID>  (1) 
conformer_0

$$$$
