
     RDKit          3D

 23 26  0  0  0  0  0  0  0  0999 V2000
   11.1016   -4.6730   32.0257 O   0  0  0  0  0  0  0  0  0  0  0  0
   15.2185    2.6158   30.3648 C   0  0  0  0  0  0  0  0  0  0  0  0
   14.2528    2.8790   31.0992 C   0  0  0  0  0  0  0  0  0  0  0  0
   11.9922   -2.7461   33.2649 C   0  0  0  0  0  0  0  0  0  0  0  0
   13.1066    2.6332   31.7995 C   0  0  0  0  0  0  0  0  0  0  0  0
   13.1445   -0.9471   32.2312 C   0  0  0  0  0  0  0  0  0  0  0  0
   11.0435   -0.1812   33.0994 C   0  0  0  0  0  0  0  0  0  0  0  0
   14.1309   -1.8360   32.6437 N   0  0  0  0  0  0  0  0  0  0  0  0
   11.8426   -1.3196   32.6184 C   0  0  0  0  0  0  0  0  0  0  0  0
   15.8047    1.6213   29.6513 C   0  0  0  0  0  0  0  0  0  0  0  0
   12.3949    3.6988   32.2283 N   0  0  0  0  0  0  0  0  0  0  0  0
   10.8261    2.2713   33.2398 C   0  0  0  0  0  0  0  0  0  0  0  0
   13.3734   -3.1828   32.7992 C   0  0  0  0  0  0  0  0  0  0  0  0
   13.4411   -3.6444   31.4346 O   0  0  0  0  0  0  0  0  0  0  0  0
   11.9851   -2.4813   34.6470 O   0  0  0  0  0  0  0  0  0  0  0  0
   11.5543    1.1526   32.8052 C   0  0  0  0  0  0  0  0  0  0  0  0
    9.7318   -3.4483   33.2505 O   0  0  0  0  0  0  0  0  0  0  0  0
   12.7010    1.3268   32.0714 C   0  0  0  0  0  0  0  0  0  0  0  0
   11.2654    3.5445   32.9358 C   0  0  0  0  0  0  0  0  0  0  0  0
   14.3446    0.0245   30.5694 C   0  0  0  0  0  0  0  0  0  0  0  0
   13.4638    0.2234   31.5781 C   0  0  0  0  0  0  0  0  0  0  0  0
   10.9200   -3.7464   32.8896 C   0  0  0  0  0  0  0  0  0  0  0  0
   15.2579    0.3067   29.7096 C   0  0  0  0  0  0  0  0  0  0  0  0
  1 22  2  0
  2  3  2  0
  2 10  1  0
  3  5  2  0
  4  9  1  0
  4 13  1  0
  4 15  1  0
  4 22  1  0
  5 11  1  0
  5 18  1  0
  6  8  1  0
  6  9  1  0
  6 21  1  0
  7  9  1  0
  7 16  1  0
  8 13  1  0
 10 23  1  0
 11 19  2  0
 12 16  1  0
 12 19  1  0
 13 14  1  0
 16 18  2  0
 17 22  1  0
 18 21  1  0
 20 21  2  0
 20 23  2  0
M  END
>  <ID>  (1) 
conformer_0

$$$$
