
     RDKit          3D

 28 32  0  0  0  0  0  0  0  0999 V2000
   11.1417    1.2691   33.5611 N   0  0  0  0  0  0  0  0  0  0  0  0
   12.2883    3.5156   33.3361 C   0  0  0  0  0  0  0  0  0  0  0  0
   10.9414    5.5081   32.8842 C   0  0  0  0  0  0  0  0  0  0  0  0
   11.1661    2.6303   33.8963 C   0  0  0  0  0  0  0  0  0  0  0  0
   13.5625    2.9712   32.9365 C   0  0  0  0  0  0  0  0  0  0  0  0
   11.6433    4.3346   32.1941 C   0  0  0  0  0  0  0  0  0  0  0  0
   14.9975    0.9779   30.2308 C   0  0  0  0  0  0  0  0  0  0  0  0
   11.9848    0.2861   33.0992 C   0  0  0  0  0  0  0  0  0  0  0  0
   14.5804    2.0421   30.9798 C   0  0  0  0  0  0  0  0  0  0  0  0
   14.0999   -3.6704   33.6048 O   0  0  0  0  0  0  0  0  0  0  0  0
   11.6412   -1.0115   33.3646 O   0  0  0  0  0  0  0  0  0  0  0  0
   15.9686    1.1526   29.3659 F   0  0  0  0  0  0  0  0  0  0  0  0
   14.4418   -0.2486   30.4029 C   0  0  0  0  0  0  0  0  0  0  0  0
   10.0785    3.4938   34.3183 O   0  0  0  0  0  0  0  0  0  0  0  0
   13.6769    1.8499   32.0272 C   0  0  0  0  0  0  0  0  0  0  0  0
   11.4520    5.5620   34.3623 C   0  0  0  0  0  0  0  0  0  0  0  0
   11.4121   -3.5811   32.3945 C   0  0  0  0  0  0  0  0  0  0  0  0
   12.9627   -1.8537   31.6065 C   0  0  0  0  0  0  0  0  0  0  0  0
   13.1562   -2.2200   35.0120 O   0  0  0  0  0  0  0  0  0  0  0  0
   10.6871   -3.6585   31.3709 O   0  0  0  0  0  0  0  0  0  0  0  0
   12.2177   -2.2544   32.7958 C   0  0  0  0  0  0  0  0  0  0  0  0
   10.7773    4.5528   36.5119 C   0  0  0  0  0  0  0  0  0  0  0  0
   11.6674   -4.7387   32.8928 O   0  0  0  0  0  0  0  0  0  0  0  0
   13.0782   -2.9171   33.9159 C   0  0  0  0  0  0  0  0  0  0  0  0
   13.0433    0.5812   32.1751 C   0  0  0  0  0  0  0  0  0  0  0  0
   13.4806   -0.4855   31.4185 C   0  0  0  0  0  0  0  0  0  0  0  0
   12.6745    4.5889   34.3740 C   0  0  0  0  0  0  0  0  0  0  0  0
   10.2877    4.7608   35.0858 C   0  0  0  0  0  0  0  0  0  0  0  0
  1  4  1  0
  1  8  1  0
  2  4  1  0
  2  5  1  0
  2  6  1  0
  2 27  1  0
  3  6  1  0
  3 16  1  0
  4 14  1  0
  5 15  1  0
  7  9  1  0
  7 12  1  0
  7 13  2  0
  8 11  1  0
  8 25  1  0
  9 15  2  0
 10 24  2  0
 11 21  1  0
 13 26  1  0
 14 28  1  0
 15 25  1  0
 16 27  1  0
 16 28  1  0
 17 20  2  0
 17 21  1  0
 17 23  1  0
 18 21  1  0
 18 26  1  0
 19 24  1  0
 21 24  1  0
 22 28  1  0
 25 26  2  0
M  END
>  <ID>  (1) 
conformer_0

$$$$
