
     RDKit          3D

 19 20  0  0  0  0  0  0  0  0999 V2000
   13.7439   -0.2525   31.4218 C   0  0  0  0  0  0  0  0  0  0  0  0
   13.0498    0.7150   32.0853 C   0  0  0  0  0  0  0  0  0  0  0  0
   14.9655    1.5239   30.2914 C   0  0  0  0  0  0  0  0  0  0  0  0
   12.8826   -2.7811   31.3824 O   0  0  0  0  0  0  0  0  0  0  0  0
   14.6504    0.1632   30.4446 C   0  0  0  0  0  0  0  0  0  0  0  0
   13.3463    4.1382   33.1842 C   0  0  0  0  0  0  0  0  0  0  0  0
   12.2330    4.9139   33.7609 C   0  0  0  0  0  0  0  0  0  0  0  0
   14.3098    2.4209   31.0370 N   0  0  0  0  0  0  0  0  0  0  0  0
   13.3432    2.0388   31.9204 C   0  0  0  0  0  0  0  0  0  0  0  0
   11.7284   -3.5402   32.3877 P   0  0  0  0  0  4  0  0  0  0  0  0
   10.7050   -4.2157   31.4545 O   0  0  0  0  0  1  0  0  0  0  0  0
   13.6942   -1.6779   33.2274 O   0  0  0  0  0  0  0  0  0  0  0  0
   15.2333   -0.6486   29.6094 O   0  0  0  0  0  0  0  0  0  0  0  0
   11.2693    3.2662   32.3979 C   0  0  0  0  0  0  0  0  0  0  0  0
   12.7003    2.9819   32.5828 N   0  0  0  0  0  0  0  0  0  0  0  0
   13.4959   -1.6591   31.8875 C   0  0  0  0  0  0  0  0  0  0  0  0
   11.0404    3.9650   33.7023 C   0  0  0  0  0  0  0  0  0  0  0  0
   12.4194   -4.5317   33.2636 O   0  0  0  0  0  0  0  0  0  0  0  0
   11.1225   -2.4868   33.3065 O   0  0  0  0  0  0  0  0  0  0  0  0
  1  2  2  0
  1  5  1  0
  1 16  1  0
  2  9  1  0
  3  5  2  0
  3  8  1  0
  4 10  1  0
  4 16  1  0
  5 13  1  0
  6  7  1  0
  6 15  1  0
  7 17  1  0
  8  9  2  0
  9 15  1  0
 10 11  2  0
 10 18  1  0
 10 19  1  0
 12 16  2  0
 14 15  1  0
 14 17  1  0
M  END
>  <ID>  (1) 
conformer_0

$$$$
