
     RDKit          3D

 30 32  0  0  0  0  0  0  0  0999 V2000
    8.4088    3.8264   33.7285 C   0  0  0  0  0  0  0  0  0  0  0  0
   15.2264    4.4791   33.7669 O   0  0  0  0  0  0  0  0  0  0  0  0
   10.0518   -2.3261   33.1808 O   0  0  0  0  0  1  0  0  0  0  0  0
   13.9102    4.0702   34.3096 C   0  0  0  0  0  0  0  0  0  0  0  0
   13.9888    2.0730   31.4196 C   0  0  0  0  0  0  0  0  0  0  0  0
   13.8319   -0.3074   31.5704 C   0  0  0  0  0  0  0  0  0  0  0  0
   13.1418    3.0539   33.3830 C   0  0  0  0  0  0  0  0  0  0  0  0
   10.2857    0.9126   34.7481 C   0  0  0  0  0  0  0  0  0  0  0  0
   13.5499   -2.7000   32.6676 P   0  0  0  0  0  4  0  0  0  0  0  0
   10.2247    3.5785   32.2156 C   0  0  0  0  0  0  0  0  0  0  0  0
   13.6917   -1.1395   32.7795 O   0  0  0  0  0  0  0  0  0  0  0  0
   12.1308    1.9192   32.9172 C   0  0  0  0  0  0  0  0  0  0  0  0
    9.0267    4.2530   32.5347 C   0  0  0  0  0  0  0  0  0  0  0  0
   14.6515    0.0687   30.4123 C   0  0  0  0  0  0  0  0  0  0  0  0
   10.0878   -4.6221   34.1720 O   0  0  0  0  0  0  0  0  0  0  0  0
   13.4496   -3.0523   31.2048 O   0  0  0  0  0  1  0  0  0  0  0  0
   10.7608   -3.6523   33.1391 P   0  0  0  0  0  4  0  0  0  0  0  0
   12.2682   -3.4046   33.5050 O   0  0  0  0  0  0  0  0  0  0  0  0
   13.7345    4.3958   31.5785 O   0  0  0  0  0  0  0  0  0  0  0  0
   14.6206    1.5098   30.3008 C   0  0  0  0  0  0  0  0  0  0  0  0
    8.8323    2.8898   34.3718 C   0  0  0  0  0  0  0  0  0  0  0  0
   14.9956   -0.6323   29.4189 O   0  0  0  0  0  0  0  0  0  0  0  0
   10.7898   -4.3446   31.7510 O   0  0  0  0  0  0  0  0  0  0  0  0
   14.7049   -3.3402   33.3509 O   0  0  0  0  0  0  0  0  0  0  0  0
   15.6944    2.0787   29.5254 C   0  0  0  0  0  0  0  0  0  0  0  0
    9.9404    2.1515   34.0769 C   0  0  0  0  0  0  0  0  0  0  0  0
   13.0875    1.0247   32.0585 C   0  0  0  0  0  0  0  0  0  0  0  0
    7.9222    3.5530   34.6670 O   0  0  0  0  0  0  0  0  0  0  0  0
   10.7324    2.5663   33.0298 C   0  0  0  0  0  0  0  0  0  0  0  0
   13.8459    3.3108   32.0756 C   0  0  0  0  0  0  0  0  0  0  0  0
  1 13  1  0
  1 21  1  0
  1 28  2  0
  2  4  1  0
  3 17  2  0
  4  7  1  0
  5 20  1  0
  5 27  1  0
  5 30  1  0
  6 11  1  0
  6 14  1  0
  6 27  1  0
  7 12  1  0
  7 30  1  0
  8 26  1  0
  9 11  1  0
  9 16  2  0
  9 18  1  0
  9 24  1  0
 10 13  1  0
 10 29  2  0
 12 27  1  0
 12 29  1  0
 14 20  1  0
 14 22  2  0
 15 17  1  0
 17 18  1  0
 17 23  1  0
 19 30  2  0
 20 25  1  0
 21 26  2  0
 26 29  1  0
M  END
>  <ID>  (1) 
conformer_0

$$$$
