
     RDKit          3D

 14 15  0  0  0  0  0  0  0  0999 V2000
   12.9910    0.3546   32.1796 C   0  0  0  0  0  0  0  0  0  0  0  0
   13.6355   -2.2188   31.3365 C   0  0  0  0  0  0  0  0  0  0  0  0
   12.7333    1.6329   32.6804 C   0  0  0  0  0  0  0  0  0  0  0  0
   15.3806    1.1750   29.0513 Cl  0  0  0  0  0  0  0  0  0  0  0  0
   13.9607    0.1902   31.1908 C   0  0  0  0  0  0  0  0  0  0  0  0
   13.3514    2.7330   32.1521 C   0  0  0  0  0  0  0  0  0  0  0  0
   12.2816   -0.7570   32.6519 C   0  0  0  0  0  0  0  0  0  0  0  0
   14.5006    1.3308   30.5375 C   0  0  0  0  0  0  0  0  0  0  0  0
   14.2485    2.6030   31.0527 C   0  0  0  0  0  0  0  0  0  0  0  0
   12.0818   -4.3321   32.7212 O   0  0  0  0  0  0  0  0  0  0  0  0
   11.6134   -3.2188   32.4918 C   0  0  0  0  0  0  0  0  0  0  0  0
   12.5139   -2.0488   32.1629 C   0  0  0  0  0  0  0  0  0  0  0  0
   14.3338   -1.1156   30.8485 C   0  0  0  0  0  0  0  0  0  0  0  0
   10.3762   -3.0127   32.6639 O   0  0  0  0  0  0  0  0  0  0  0  0
  1  3  1  0
  1  5  1  0
  1  7  2  0
  2 12  1  0
  2 13  2  0
  3  6  2  0
  4  8  1  0
  5  8  2  0
  5 13  1  0
  6  9  1  0
  7 12  1  0
  8  9  1  0
 10 11  2  0
 11 12  1  0
 11 14  1  0
M  END
>  <ID>  (1) 
conformer_0

$$$$
