
     RDKit          3D

  9  8  0  0  0  0  0  0  0  0999 V2000
  135.6646   53.0564   32.3569 C   0  0  0  0  0  0  0  0  0  0  0  0
  134.2703   53.1285   32.7948 C   0  0  0  0  0  0  0  0  0  0  0  0
  130.7848   52.5804   32.1565 C   0  0  0  0  0  0  0  0  0  0  0  0
  135.5531   54.0639   30.7238 C   0  0  0  0  0  0  0  0  0  0  0  0
  135.1342   54.8628   30.5124 O   0  0  0  0  0  0  0  0  0  0  0  0
  130.1838   52.3495   31.7262 O   0  0  0  0  0  0  0  0  0  0  0  0
  137.1358   53.7500   30.3227 O   0  0  0  0  0  0  0  0  0  0  0  0
  132.4115   52.7769   32.7036 C   0  0  0  0  0  0  0  0  0  0  0  0
  137.0438   53.0165   31.7739 C   0  0  0  0  0  0  0  0  0  0  0  0
  2  1  1  0
  4  1  1  0
  5  4  2  0
  6  3  1  0
  8  2  1  0
  8  3  3  0
  9  1  1  0
  9  7  1  0
M  END
>  <ID>  (1) 
conformer_0

$$$$
