
     RDKit          3D

  9  8  0  0  0  0  0  0  0  0999 V2000
  133.2924   53.4384   32.8934 C   0  0  0  0  0  0  0  0  0  0  0  0
  136.6008   53.6164   30.5139 C   0  0  0  0  0  0  0  0  0  0  0  0
  129.9653   53.1818   31.8415 N   0  0  0  0  0  0  0  0  0  0  0  0
  134.6433   53.3146   32.9628 C   0  0  0  0  0  0  0  0  0  0  0  0
  136.0416   54.3465   29.9563 O   0  0  0  0  0  0  0  0  0  0  0  0
  130.5387   52.5238   31.9935 C   0  0  0  0  0  0  0  0  0  0  0  0
  129.7446   51.1992   32.3622 C   0  0  0  0  0  0  0  0  0  0  0  0
  136.0725   53.1633   32.1009 C   0  0  0  0  0  0  0  0  0  0  0  0
  132.1044   53.0315   32.6371 C   0  0  0  0  0  0  0  0  0  0  0  0
  4  1  1  0
  5  2  2  0
  6  3  1  0
  7  6  1  0
  8  2  1  0
  8  4  1  0
  9  1  2  0
  9  6  2  0
M  END
>  <ID>  (1) 
conformer_0

$$$$
