
     RDKit          3D

 10  9  0  0  0  0  0  0  0  0999 V2000
  133.4075   53.2508   32.9854 C   0  0  0  0  0  0  0  0  0  0  0  0
  136.4825   53.8306   30.3811 C   0  0  0  0  0  0  0  0  0  0  0  0
  131.1631   52.4196   32.3206 C   0  0  0  0  0  0  0  0  0  0  0  0
  132.0122   53.0485   32.6442 C   0  0  0  0  0  0  0  0  0  0  0  0
  135.3749   54.8316   30.4424 O   0  0  0  0  0  0  0  0  0  0  0  0
  137.4811   53.6065   29.7123 O   0  0  0  0  0  0  0  0  0  0  0  0
  130.6568   51.3637   32.4737 O   0  0  0  0  0  0  0  0  0  0  0  0
  136.0387   53.4291   31.9626 C   0  0  0  0  0  0  0  0  0  0  0  0
  134.5544   53.5083   32.7621 C   0  0  0  0  0  0  0  0  0  0  0  0
  129.2168   51.6633   31.9591 C   0  0  0  0  0  0  0  0  0  0  0  0
  4  1  1  0
  4  3  1  0
  5  2  2  0
  6  2  1  0
  7  3  1  0
  8  2  1  0
  9  1  3  0
  9  8  1  0
 10  7  1  0
M  END
>  <ID>  (1) 
conformer_0

$$$$
