
     RDKit          3D

  8  7  0  0  0  0  0  0  0  0999 V2000
  134.6743   53.3539   32.9516 C   0  0  0  0  0  0  0  0  0  0  0  0
  136.2309   53.4541   31.3690 C   0  0  0  0  0  0  0  0  0  0  0  0
  133.4408   53.3788   32.9702 C   0  0  0  0  0  0  0  0  0  0  0  0
  130.3117   52.3043   31.9913 C   0  0  0  0  0  0  0  0  0  0  0  0
  135.5782   54.8914   30.3990 O   0  0  0  0  0  0  0  0  0  0  0  0
  137.0930   53.5617   29.7524 O   0  0  0  0  0  0  0  0  0  0  0  0
  132.0873   53.2453   32.5032 C   0  0  0  0  0  0  0  0  0  0  0  0
  129.9044   52.8356   31.9739 N   0  0  0  0  0  0  0  0  0  0  0  0
  2  1  1  0
  3  1  1  0
  5  2  1  0
  6  2  1  0
  7  3  3  0
  7  4  1  0
  8  4  1  0
M  END
>  <ID>  (1) 
conformer_0

$$$$
