
     RDKit          3D

  9  8  0  0  0  0  0  0  0  0999 V2000
  132.1095   53.4369   32.4627 C   0  0  0  0  0  0  0  0  0  0  0  0
  136.4292   52.8984   32.1147 C   0  0  0  0  0  0  0  0  0  0  0  0
  133.5647   53.0695   33.0643 C   0  0  0  0  0  0  0  0  0  0  0  0
  135.3967   54.8658   30.3487 O   0  0  0  0  0  0  0  0  0  0  0  0
  136.9192   53.6267   29.7858 O   0  0  0  0  0  0  0  0  0  0  0  0
  130.4363   52.2936   32.1094 C   0  0  0  0  0  0  0  0  0  0  0  0
  130.2506   52.5536   32.1770 N   0  0  0  0  0  0  0  0  0  0  0  0
  134.5903   53.4848   32.6412 C   0  0  0  0  0  0  0  0  0  0  0  0
  136.2792   53.8279   30.5513 C   0  0  0  0  0  0  0  0  0  0  0  0
  3  1  1  0
  6  1  1  0
  7  6  1  0
  8  2  1  0
  8  3  1  0
  9  2  1  0
  9  4  2  0
  9  5  1  0
M  END
>  <ID>  (1) 
conformer_0

$$$$
