
     RDKit          3D

  9  8  0  0  0  0  0  0  0  0999 V2000
  134.8111   52.9390   32.8970 C   0  0  0  0  0  0  0  0  0  0  0  0
  133.4304   53.4044   33.0232 C   0  0  0  0  0  0  0  0  0  0  0  0
  135.9995   53.2515   32.0858 C   0  0  0  0  0  0  0  0  0  0  0  0
  130.3928   52.0547   32.1767 C   0  0  0  0  0  0  0  0  0  0  0  0
  135.0401   54.8704   30.2996 O   0  0  0  0  0  0  0  0  0  0  0  0
  136.9046   53.7003   29.4694 O   0  0  0  0  0  0  0  0  0  0  0  0
  132.2343   52.8861   32.9026 C   0  0  0  0  0  0  0  0  0  0  0  0
  130.0048   53.0765   32.0351 N   0  0  0  0  0  0  0  0  0  0  0  0
  136.1015   54.0429   30.2677 C   0  0  0  0  0  0  0  0  0  0  0  0
  2  1  1  0
  3  1  1  0
  7  2  1  0
  7  4  1  0
  8  4  1  0
  9  3  1  0
  9  5  2  0
  9  6  1  0
M  END
>  <ID>  (1) 
conformer_0

$$$$
