
     RDKit          3D

 10  9  0  0  0  0  0  0  0  0999 V2000
  134.7416   53.1142   32.7559 C   0  0  0  0  0  0  0  0  0  0  0  0
  136.1847   53.1458   32.1699 C   0  0  0  0  0  0  0  0  0  0  0  0
  133.4426   53.6340   32.8967 C   0  0  0  0  0  0  0  0  0  0  0  0
  131.3980   52.6887   32.2024 C   0  0  0  0  0  0  0  0  0  0  0  0
  137.3066   53.6250   30.0598 O   0  0  0  0  0  0  0  0  0  0  0  0
  135.5125   54.7584   29.8644 O   0  0  0  0  0  0  0  0  0  0  0  0
  130.2601   52.3791   32.2218 N   0  0  0  0  0  0  0  0  0  0  0  0
  136.3198   53.8345   30.4552 C   0  0  0  0  0  0  0  0  0  0  0  0
  132.2169   53.0241   32.6482 C   0  0  0  0  0  0  0  0  0  0  0  0
  129.6752   51.6719   32.0373 C   0  0  0  0  0  0  0  0  0  0  0  0
  2  1  1  0
  3  1  1  0
  7  4  1  0
  8  2  1  0
  8  5  1  0
  8  6  2  0
  9  3  2  0
  9  4  2  0
 10  7  1  0
M  END
>  <ID>  (1) 
conformer_0

$$$$
