
     RDKit          3D

  9  8  0  0  0  0  0  0  0  0999 V2000
  134.7398   53.3956   32.7476 C   0  0  0  0  0  0  0  0  0  0  0  0
  133.3301   53.6630   32.8603 C   0  0  0  0  0  0  0  0  0  0  0  0
  136.2835   53.1807   31.9741 C   0  0  0  0  0  0  0  0  0  0  0  0
  135.3593   54.9148   30.0996 O   0  0  0  0  0  0  0  0  0  0  0  0
  137.3012   53.5786   29.9551 O   0  0  0  0  0  0  0  0  0  0  0  0
  129.9671   52.0080   32.0962 C   0  0  0  0  0  0  0  0  0  0  0  0
  131.9443   53.2717   32.5286 C   0  0  0  0  0  0  0  0  0  0  0  0
  137.1107   52.6547   32.2694 O   0  0  0  0  0  0  0  0  0  0  0  0
  136.1394   53.9201   30.3563 C   0  0  0  0  0  0  0  0  0  0  0  0
  2  1  2  0
  3  1  2  0
  7  2  1  0
  7  6  1  0
  8  3  1  0
  9  3  1  0
  9  4  2  0
  9  5  1  0
M  END
>  <ID>  (1) 
conformer_0

$$$$
