
     RDKit          3D

 10 10  0  0  0  0  0  0  0  0999 V2000
  134.9936   53.0427   33.0427 C   0  0  0  0  0  0  0  0  0  0  0  0
  133.8417   54.0340   32.5005 C   0  0  0  0  0  0  0  0  0  0  0  0
  136.3163   53.9864   29.9053 C   0  0  0  0  0  0  0  0  0  0  0  0
  136.8832   53.2175   31.9801 O   0  0  0  0  0  0  0  0  0  0  0  0
  130.1059   52.2254   31.9757 C   0  0  0  0  0  0  0  0  0  0  0  0
  137.2603   53.7188   29.7536 O   0  0  0  0  0  0  0  0  0  0  0  0
  130.1007   52.8912   31.8963 N   0  0  0  0  0  0  0  0  0  0  0  0
  131.8251   52.9962   32.3915 C   0  0  0  0  0  0  0  0  0  0  0  0
  136.1659   53.4917   31.8011 C   0  0  0  0  0  0  0  0  0  0  0  0
  133.0870   52.7131   32.9992 C   0  0  0  0  0  0  0  0  0  0  0  0
  2  1  1  0
  6  3  1  0
  7  5  1  0
  8  7  1  0
  9  1  1  0
  9  3  1  0
  9  4  2  0
 10  1  1  0
 10  2  1  0
 10  8  1  0
M  END
>  <ID>  (1) 
conformer_0

$$$$
