
     RDKit          3D

  9  8  0  0  0  0  0  0  0  0999 V2000
  132.9899   53.9910   32.5724 C   0  0  0  0  0  0  0  0  0  0  0  0
  131.6153   52.7310   32.4442 C   0  0  0  0  0  0  0  0  0  0  0  0
  136.3713   53.4039   31.2772 C   0  0  0  0  0  0  0  0  0  0  0  0
  137.1966   53.2521   32.1859 O   0  0  0  0  0  0  0  0  0  0  0  0
  130.3869   52.3486   32.0638 C   0  0  0  0  0  0  0  0  0  0  0  0
  136.9675   53.8452   30.0462 O   0  0  0  0  0  0  0  0  0  0  0  0
  135.2078   54.6172   30.4510 O   0  0  0  0  0  0  0  0  0  0  0  0
  133.8675   53.1090   33.0697 C   0  0  0  0  0  0  0  0  0  0  0  0
  135.2136   53.3600   32.5822 C   0  0  0  0  0  0  0  0  0  0  0  0
  2  1  1  0
  4  3  1  0
  5  2  2  3
  6  3  1  0
  7  3  1  0
  8  1  1  0
  9  3  1  0
  9  8  1  0
M  END
>  <ID>  (1) 
conformer_0

$$$$
