
     RDKit          3D

  7  6  0  0  0  0  0  0  0  0999 V2000
  131.8521   53.1295   32.5228 C   0  0  0  0  0  0  0  0  0  0  0  0
  133.4632   53.2811   32.8735 C   0  0  0  0  0  0  0  0  0  0  0  0
  136.5136   53.5097   30.9875 C   0  0  0  0  0  0  0  0  0  0  0  0
  129.9195   52.4753   31.8862 C   0  0  0  0  0  0  0  0  0  0  0  0
  137.3489   53.8982   30.1040 O   0  0  0  0  0  0  0  0  0  0  0  0
  135.4132   54.6370   30.2859 O   0  0  0  0  0  0  0  0  0  0  0  0
  135.1420   53.1261   32.4990 C   0  0  0  0  0  0  0  0  0  0  0  0
  2  1  1  0
  4  1  1  0
  5  3  1  0
  6  3  2  0
  7  2  1  0
  7  3  1  0
M  END
>  <ID>  (1) 
conformer_0

$$$$
