
     RDKit          3D

  8  7  0  0  0  0  0  0  0  0999 V2000
  133.4984   53.6220   32.9567 C   0  0  0  0  0  0  0  0  0  0  0  0
  136.3668   53.4211   31.2295 C   0  0  0  0  0  0  0  0  0  0  0  0
  134.8855   53.3478   32.7831 C   0  0  0  0  0  0  0  0  0  0  0  0
  130.2866   52.1488   32.1164 C   0  0  0  0  0  0  0  0  0  0  0  0
  137.4064   53.6552   29.9516 O   0  0  0  0  0  0  0  0  0  0  0  0
  135.3309   54.3352   30.5641 O   0  0  0  0  0  0  0  0  0  0  0  0
  130.1800   53.1358   31.7059 N   0  0  0  0  0  0  0  0  0  0  0  0
  132.2863   52.8709   32.8811 C   0  0  0  0  0  0  0  0  0  0  0  0
  3  1  1  0
  3  2  1  0
  5  2  1  0
  6  2  2  0
  7  4  1  0
  8  1  1  0
  8  4  1  0
M  END
>  <ID>  (1) 
conformer_0

$$$$
