
     RDKit          3D

  8  7  0  0  0  0  0  0  0  0999 V2000
  131.5112   52.4584   32.5675 C   0  0  0  0  0  0  0  0  0  0  0  0
  132.6186   53.4346   32.7204 C   0  0  0  0  0  0  0  0  0  0  0  0
  136.5028   53.4975   30.9674 C   0  0  0  0  0  0  0  0  0  0  0  0
  135.5480   54.7730   30.4313 O   0  0  0  0  0  0  0  0  0  0  0  0
  137.6643   53.5502   30.3559 O   0  0  0  0  0  0  0  0  0  0  0  0
  134.0741   53.2389   32.9113 C   0  0  0  0  0  0  0  0  0  0  0  0
  130.1687   52.6541   31.7355 C   0  0  0  0  0  0  0  0  0  0  0  0
  135.5199   53.2080   32.4152 C   0  0  0  0  0  0  0  0  0  0  0  0
  2  1  1  0
  4  3  2  0
  5  3  1  0
  6  2  1  0
  7  1  1  0
  8  3  1  0
  8  6  2  3
M  END
>  <ID>  (1) 
conformer_0

$$$$
