
     RDKit          3D

 11 10  0  0  0  0  0  0  0  0999 V2000
  132.4400   52.9336   32.7333 C   0  0  0  0  0  0  0  0  0  0  0  0
  131.3026   53.4348   32.1015 C   0  0  0  0  0  0  0  0  0  0  0  0
  136.0611   53.2603   32.0291 C   0  0  0  0  0  0  0  0  0  0  0  0
  129.9616   52.2771   31.9375 C   0  0  0  0  0  0  0  0  0  0  0  0
  137.3735   53.7203   29.9576 O   0  0  0  0  0  0  0  0  0  0  0  0
  135.3782   54.4449   30.4496 O   0  0  0  0  0  0  0  0  0  0  0  0
  134.7728   53.2809   32.7367 C   0  0  0  0  0  0  0  0  0  0  0  0
  130.1119   52.1636   32.2716 N   0  0  0  0  0  0  0  0  0  0  0  0
  136.6264   53.4143   30.4337 C   0  0  0  0  0  0  0  0  0  0  0  0
  136.9002   52.7812   32.5170 N   0  0  0  0  0  0  0  0  0  0  0  0
  133.4539   53.9829   32.5998 C   0  0  0  0  0  0  0  0  0  0  0  0
  2  1  1  0
  4  2  1  0
  7  3  1  0
  8  4  1  0
  9  3  1  0
  9  5  1  0
  9  6  1  0
 10  3  1  0
 11  1  1  0
 11  7  1  0
M  END
>  <ID>  (1) 
conformer_0

$$$$
