
     RDKit          3D

  8  7  0  0  0  0  0  0  0  0999 V2000
  135.1920   53.1649   32.5662 C   0  0  0  0  0  0  0  0  0  0  0  0
  134.0951   53.9004   32.8177 C   0  0  0  0  0  0  0  0  0  0  0  0
  130.7642   52.5500   32.1119 C   0  0  0  0  0  0  0  0  0  0  0  0
  136.3085   53.5457   31.3430 C   0  0  0  0  0  0  0  0  0  0  0  0
  137.0693   53.7869   30.2663 O   0  0  0  0  0  0  0  0  0  0  0  0
  131.3431   53.4785   31.2006 O   0  0  0  0  0  0  0  0  0  0  0  0
  135.3849   54.4882   30.6513 O   0  0  0  0  0  0  0  0  0  0  0  0
  132.6476   53.1194   32.8291 C   0  0  0  0  0  0  0  0  0  0  0  0
  2  1  1  0
  4  1  1  0
  5  4  1  0
  6  3  1  0
  7  4  2  0
  8  2  1  0
  8  3  1  0
M  END
>  <ID>  (1) 
conformer_0

$$$$
