
     RDKit          3D

  8  7  0  0  0  0  0  0  0  0999 V2000
  134.4965   53.2199   32.9797 C   0  0  0  0  0  0  0  0  0  0  0  0
  133.4905   53.9701   32.6577 C   0  0  0  0  0  0  0  0  0  0  0  0
  136.2765   53.5138   31.2846 C   0  0  0  0  0  0  0  0  0  0  0  0
  130.1996   52.4666   31.8892 C   0  0  0  0  0  0  0  0  0  0  0  0
  136.8909   53.2480   32.3807 O   0  0  0  0  0  0  0  0  0  0  0  0
  137.3947   53.5206   30.2187 O   0  0  0  0  0  0  0  0  0  0  0  0
  135.3973   54.5396   30.4852 O   0  0  0  0  0  0  0  0  0  0  0  0
  132.1189   53.1645   32.5491 C   0  0  0  0  0  0  0  0  0  0  0  0
  2  1  1  0
  3  1  1  0
  5  3  1  0
  6  3  1  0
  7  3  1  0
  8  2  1  0
  8  4  1  0
M  END
>  <ID>  (1) 
conformer_0

$$$$
