
     RDKit          3D

  7  6  0  0  0  0  0  0  0  0999 V2000
  133.5984   53.1076   33.0131 C   0  0  0  0  0  0  0  0  0  0  0  0
  132.3362   53.1461   32.6387 C   0  0  0  0  0  0  0  0  0  0  0  0
  135.8836   53.6526   31.2877 C   0  0  0  0  0  0  0  0  0  0  0  0
  135.2620   55.0276   30.0528 O   0  0  0  0  0  1  0  0  0  0  0  0
  137.0609   53.6791   30.5311 O   0  0  0  0  0  0  0  0  0  0  0  0
  130.5445   52.3323   32.1711 C   0  0  0  0  0  0  0  0  0  0  0  0
  134.7783   53.5580   32.4190 C   0  0  0  0  0  0  0  0  0  0  0  0
  2  1  1  0
  4  3  1  0
  5  3  1  0
  6  2  1  0
  7  1  2  0
  7  3  2  0
M  RAD  1   4   2
M  END
>  <ID>  (1) 
conformer_0

$$$$
