
     RDKit          3D

  8  7  0  0  0  0  0  0  0  0999 V2000
  134.7870   53.3356   32.7061 C   0  0  0  0  0  0  0  0  0  0  0  0
  133.3979   53.2093   32.8282 C   0  0  0  0  0  0  0  0  0  0  0  0
  136.3286   53.4188   31.3661 C   0  0  0  0  0  0  0  0  0  0  0  0
  135.7193   54.4439   30.2753 O   0  0  0  0  0  0  0  0  0  0  0  0
  137.2323   53.5846   30.3316 O   0  0  0  0  0  0  0  0  0  0  0  0
  132.1650   53.3511   32.4330 C   0  0  0  0  0  0  0  0  0  0  0  0
  130.4679   52.6143   31.9578 C   0  0  0  0  0  0  0  0  0  0  0  0
  130.5090   52.0731   32.2511 C   0  0  0  0  0  0  0  0  0  0  0  0
  2  1  1  0
  3  1  1  0
  4  3  1  0
  5  3  1  0
  6  2  1  0
  7  6  1  0
  8  7  1  0
M  END
>  <ID>  (1) 
conformer_0

$$$$
