
     RDKit          3D

 10  9  0  0  0  0  0  0  0  0999 V2000
  133.4277   53.4463   32.7340 C   0  0  0  0  0  0  0  0  0  0  0  0
  136.5732   53.7681   30.2939 C   0  0  0  0  0  0  0  0  0  0  0  0
  134.7447   53.2115   32.7561 C   0  0  0  0  0  0  0  0  0  0  0  0
  131.1942   52.5868   32.1635 C   0  0  0  0  0  0  0  0  0  0  0  0
  135.4371   54.8206   30.1236 O   0  0  0  0  0  0  0  0  0  0  0  0
  136.8918   53.7345   29.7430 O   0  0  0  0  0  0  0  0  0  0  0  0
  136.7779   53.5669   31.9696 O   0  0  0  0  0  0  0  0  0  0  0  0
  129.3366   51.3465   32.2573 C   0  0  0  0  0  0  0  0  0  0  0  0
  132.1677   53.2315   32.4961 C   0  0  0  0  0  0  0  0  0  0  0  0
  135.9522   53.4241   31.9695 C   0  0  0  0  0  0  0  0  0  0  0  0
  3  1  1  0
  5  2  2  0
  6  2  1  0
  7  2  1  0
  8  4  1  0
  9  1  1  0
  9  4  3  0
 10  3  1  0
 10  7  1  0
M  END
>  <ID>  (1) 
conformer_0

$$$$
