
     RDKit          3D

 10  9  0  0  0  0  0  0  0  0999 V2000
  132.0100   52.8455   32.7014 C   0  0  0  0  0  0  0  0  0  0  0  0
  132.9424   54.0816   32.7944 C   0  0  0  0  0  0  0  0  0  0  0  0
  136.2144   53.5869   31.2686 C   0  0  0  0  0  0  0  0  0  0  0  0
  137.1316   52.9269   32.0891 O   0  0  0  0  0  0  0  0  0  0  0  0
  130.6358   52.2041   32.1831 C   0  0  0  0  0  0  0  0  0  0  0  0
  135.2318   54.9718   30.3649 O   0  0  0  0  0  0  0  0  0  0  0  0
  136.9439   53.7522   30.0639 O   0  0  0  0  0  0  0  0  0  0  0  0
  134.9370   53.7913   32.5889 C   0  0  0  0  0  0  0  0  0  0  0  0
  130.2452   52.4259   31.7270 N   0  0  0  0  0  0  0  0  0  0  0  0
  134.1318   52.7378   32.9220 C   0  0  0  0  0  0  0  0  0  0  0  0
  2  1  1  0
  4  3  1  0
  5  1  1  0
  6  3  1  0
  7  3  1  0
  8  3  1  0
  9  5  1  0
 10  2  1  0
 10  8  1  0
M  END
>  <ID>  (1) 
conformer_0

$$$$
