
     RDKit          3D

  8  7  0  0  0  0  0  0  0  0999 V2000
  134.2041   53.3941   33.0813 C   0  0  0  0  0  0  0  0  0  0  0  0
  131.6131   52.9183   32.3115 C   0  0  0  0  0  0  0  0  0  0  0  0
  136.5625   53.4871   30.9103 C   0  0  0  0  0  0  0  0  0  0  0  0
  135.7262   54.4230   30.0126 O   0  0  0  0  0  0  0  0  0  0  0  0
  130.2139   52.4937   31.9129 C   0  0  0  0  0  0  0  0  0  0  0  0
  137.6241   53.6162   30.1855 O   0  0  0  0  0  0  0  0  0  0  0  0
  135.3542   53.1523   32.5564 C   0  0  0  0  0  0  0  0  0  0  0  0
  132.8589   53.1033   32.9801 C   0  0  0  0  0  0  0  0  0  0  0  0
  4  3  2  0
  5  2  1  0
  6  3  1  0
  7  1  1  0
  7  3  1  0
  8  1  1  0
  8  2  3  0
M  END
>  <ID>  (1) 
conformer_0

$$$$
