
     RDKit          3D

 10  9  0  0  0  0  0  0  0  0999 V2000
  131.3966   53.5378   32.0583 C   0  0  0  0  0  0  0  0  0  0  0  0
  132.3194   52.5447   32.8452 C   0  0  0  0  0  0  0  0  0  0  0  0
  136.3616   53.4140   30.9763 C   0  0  0  0  0  0  0  0  0  0  0  0
  130.4227   52.5635   31.9741 C   0  0  0  0  0  0  0  0  0  0  0  0
  137.2129   53.4958   30.0201 O   0  0  0  0  0  0  0  0  0  0  0  0
  133.3019   53.9278   32.9086 C   0  0  0  0  0  0  0  0  0  0  0  0
  135.4059   54.4884   30.3003 O   0  0  0  0  0  0  0  0  0  0  0  0
  130.0684   52.1239   32.1427 N   0  0  0  0  0  0  0  0  0  0  0  0
  134.3668   52.8158   33.2129 C   0  0  0  0  0  0  0  0  0  0  0  0
  135.4070   53.2725   32.3553 C   0  0  0  0  0  0  0  0  0  0  0  0
  2  1  1  0
  4  1  1  0
  5  3  1  0
  6  2  1  0
  7  3  2  0
  8  4  1  0
  9  6  1  0
 10  3  1  0
 10  9  1  0
M  END
>  <ID>  (1) 
conformer_0

$$$$
