
     RDKit          3D

  8  7  0  0  0  0  0  0  0  0999 V2000
  133.6166   53.6216   32.8719 C   0  0  0  0  0  0  0  0  0  0  0  0
  134.9311   53.4119   32.5235 C   0  0  0  0  0  0  0  0  0  0  0  0
  136.1563   53.4857   31.1540 C   0  0  0  0  0  0  0  0  0  0  0  0
  135.6010   54.8088   30.0585 O   0  0  0  0  0  0  0  0  0  0  0  0
  137.1905   53.5496   30.1542 O   0  0  0  0  0  0  0  0  0  0  0  0
  130.4732   52.3322   32.1507 C   0  0  0  0  0  0  0  0  0  0  0  0
  132.3067   52.8673   32.8366 C   0  0  0  0  0  0  0  0  0  0  0  0
  130.3110   52.7475   31.8036 N   0  0  0  0  0  0  0  0  0  0  0  0
  2  1  1  0
  3  2  1  0
  4  3  2  0
  5  3  1  0
  7  1  1  0
  7  6  1  0
  8  6  1  0
M  END
>  <ID>  (1) 
conformer_0

$$$$
