
     RDKit          3D

 10  9  0  0  0  0  0  0  0  0999 V2000
  133.3681   53.3231   32.8591 C   0  0  0  0  0  0  0  0  0  0  0  0
  135.9967   53.2627   32.0279 C   0  0  0  0  0  0  0  0  0  0  0  0
  132.2152   53.5862   32.4854 C   0  0  0  0  0  0  0  0  0  0  0  0
  131.0310   52.9804   31.9982 C   0  0  0  0  0  0  0  0  0  0  0  0
  135.2018   54.7881   30.5903 O   0  0  0  0  0  0  0  0  0  0  0  0
  137.5059   53.6017   30.1515 O   0  0  0  0  0  0  0  0  0  0  0  0
  130.7245   52.0878   32.0492 O   0  0  0  0  0  0  0  0  0  0  0  0
  134.7096   53.1096   32.8119 C   0  0  0  0  0  0  0  0  0  0  0  0
  136.2438   53.8862   30.5667 C   0  0  0  0  0  0  0  0  0  0  0  0
  129.7248   51.4534   32.1392 C   0  0  0  0  0  0  0  0  0  0  0  0
  3  1  2  0
  4  3  1  0
  7  4  1  0
  8  1  2  0
  8  2  1  0
  9  2  1  0
  9  5  2  0
  9  6  1  0
 10  7  1  0
M  END
>  <ID>  (1) 
conformer_0

$$$$
