
     RDKit          3D

  8  7  0  0  0  0  0  0  0  0999 V2000
  132.6618   53.1426   32.8211 C   0  0  0  0  0  0  0  0  0  0  0  0
  136.8658   53.2878   30.8112 C   0  0  0  0  0  0  0  0  0  0  0  0
  135.3161   54.8230   30.3573 O   0  0  0  0  0  0  0  0  0  0  0  0
  137.3221   53.7586   29.6899 O   0  0  0  0  0  0  0  0  0  0  0  0
  130.5042   52.5286   32.0157 C   0  0  0  0  0  0  0  0  0  0  0  0
  134.0285   53.1868   33.0078 C   0  0  0  0  0  0  0  0  0  0  0  0
  130.1097   53.0399   32.0102 N   0  0  0  0  0  0  0  0  0  0  0  0
  135.6213   53.4124   31.8708 C   0  0  0  0  0  0  0  0  0  0  0  0
  4  2  1  0
  5  1  1  0
  6  1  1  0
  7  5  1  0
  8  2  1  0
  8  3  1  0
  8  6  1  0
M  END
>  <ID>  (1) 
conformer_0

$$$$
