
     RDKit          3D

  8  7  0  0  0  0  0  0  0  0999 V2000
  134.8295   53.3432   32.7685 C   0  0  0  0  0  0  0  0  0  0  0  0
  136.2045   53.4869   31.2824 C   0  0  0  0  0  0  0  0  0  0  0  0
  133.6851   53.6968   32.9554 C   0  0  0  0  0  0  0  0  0  0  0  0
  130.3482   52.3164   32.0469 C   0  0  0  0  0  0  0  0  0  0  0  0
  135.4799   54.7344   30.0093 O   0  0  0  0  0  0  0  0  0  0  0  0
  137.3166   53.5689   30.0691 O   0  0  0  0  0  0  0  0  0  0  0  0
  132.3376   52.6554   32.7655 C   0  0  0  0  0  0  0  0  0  0  0  0
  130.4048   53.3588   31.9911 N   0  0  0  0  0  0  0  0  0  0  0  0
  2  1  1  0
  3  1  1  0
  5  2  2  0
  6  2  1  0
  7  3  1  0
  7  4  1  0
  8  4  1  0
M  END
>  <ID>  (1) 
conformer_0

$$$$
