
     RDKit          3D

 10  9  0  0  0  0  0  0  0  0999 V2000
  133.1399   53.5971   32.8439 C   0  0  0  0  0  0  0  0  0  0  0  0
  131.8549   52.8120   32.6114 C   0  0  0  0  0  0  0  0  0  0  0  0
  137.1229   53.8216   29.9350 O   0  0  0  0  0  0  0  0  0  0  0  0
  129.9697   51.9852   32.1328 C   0  0  0  0  0  0  0  0  0  0  0  0
  136.1649   54.0037   30.0296 C   0  0  0  0  0  0  0  0  0  0  0  0
  135.2146   54.9317   29.7199 O   0  0  0  0  0  0  0  0  0  0  0  0
  134.4293   53.1207   33.0516 C   0  0  0  0  0  0  0  0  0  0  0  0
  136.2098   52.7848   32.2800 C   0  0  0  0  0  0  0  0  0  0  0  0
  129.9031   52.6224   31.7788 N   0  0  0  0  0  0  0  0  0  0  0  0
  136.3432   53.8115   31.8700 O   0  0  0  0  0  0  0  0  0  0  0  0
  2  1  1  0
  4  2  1  0
  5  3  1  0
  6  5  1  0
  7  1  1  0
  8  7  1  0
  9  4  1  0
 10  5  1  0
 10  8  1  0
M  END
>  <ID>  (1) 
conformer_0

$$$$
