
     RDKit          3D

 12 11  0  0  0  0  0  0  0  0999 V2000
  132.0316   52.8412   32.7705 C   0  0  0  0  0  0  0  0  0  0  0  0
  133.4036   54.3362   32.7953 C   0  0  0  0  0  0  0  0  0  0  0  0
  136.6717   53.2057   31.5459 C   0  0  0  0  0  0  0  0  0  0  0  0
  129.4416   51.4095   32.1541 C   0  0  0  0  0  0  0  0  0  0  0  0
  135.2357   54.8613   30.2435 O   0  0  0  0  0  0  0  0  0  0  0  0
  137.1258   53.8097   29.7600 O   0  0  0  0  0  0  0  0  0  0  0  0
  130.1268   52.8933   31.7675 N   0  0  0  0  0  0  0  0  0  0  0  0
  137.2049   52.8024   31.6435 O   0  0  0  0  0  0  0  0  0  0  0  0
  133.9552   53.0788   33.1161 C   0  0  0  0  0  0  0  0  0  0  0  0
  135.3445   53.3909   32.5652 C   0  0  0  0  0  0  0  0  0  0  0  0
  131.1309   52.6487   32.1615 C   0  0  0  0  0  0  0  0  0  0  0  0
  135.9645   54.0166   30.2107 C   0  0  0  0  0  0  0  0  0  0  0  0
  7  4  1  0
  8  3  2  0
  9  1  1  0
  9  2  1  0
 10  3  1  0
 10  9  1  0
 11  1  1  0
 11  7  1  0
 12  3  1  0
 12  5  1  0
 12  6  1  0
M  END
>  <ID>  (1) 
conformer_0

$$$$
