
     RDKit          3D

 10  9  0  0  0  0  0  0  0  0999 V2000
  133.3535   53.7610   32.8706 C   0  0  0  0  0  0  0  0  0  0  0  0
  136.2378   53.2174   31.9244 C   0  0  0  0  0  0  0  0  0  0  0  0
  130.1988   52.7012   31.9658 N   0  0  0  0  0  0  0  0  0  0  0  0
  134.7911   54.8263   30.9713 O   0  0  0  0  0  0  0  0  0  0  0  0
  132.2999   52.9580   32.7233 C   0  0  0  0  0  0  0  0  0  0  0  0
  136.9061   54.0650   30.1031 O   0  0  0  0  0  0  0  0  0  0  0  0
  131.4490   52.6050   32.1889 C   0  0  0  0  0  0  0  0  0  0  0  0
  135.5910   54.1545   30.5126 C   0  0  0  0  0  0  0  0  0  0  0  0
  134.7631   53.1801   32.8525 C   0  0  0  0  0  0  0  0  0  0  0  0
  129.6601   51.4220   32.1882 C   0  0  0  0  0  0  0  0  0  0  0  0
  5  1  1  0
  7  3  1  0
  7  5  1  0
  8  2  1  0
  8  4  1  0
  8  6  1  0
  9  1  1  0
  9  2  1  0
 10  3  1  0
M  END
>  <ID>  (1) 
conformer_0

$$$$
