
     RDKit          3D

 11 10  0  0  0  0  0  0  0  0999 V2000
  133.2071   52.7623   33.1439 C   0  0  0  0  0  0  0  0  0  0  0  0
  131.8307   53.3464   32.5215 C   0  0  0  0  0  0  0  0  0  0  0  0
  136.9437   53.5839   29.9662 C   0  0  0  0  0  0  0  0  0  0  0  0
  129.4428   51.7635   32.0623 C   0  0  0  0  0  0  0  0  0  0  0  0
  135.5404   54.5444   30.3311 O   0  0  0  0  0  0  0  0  0  0  0  0
  137.3069   53.8165   29.3425 O   0  0  0  0  0  0  0  0  0  0  0  0
  133.9413   53.9931   32.7942 C   0  0  0  0  0  0  0  0  0  0  0  0
  135.2042   53.2077   32.7198 C   0  0  0  0  0  0  0  0  0  0  0  0
  136.8514   53.2353   31.3649 O   0  0  0  0  0  0  0  0  0  0  0  0
  136.1328   53.3619   31.6552 C   0  0  0  0  0  0  0  0  0  0  0  0
  131.3007   52.4290   32.2943 C   0  0  0  0  0  0  0  0  0  0  0  0
  2  1  1  0
  5  3  2  0
  6  3  1  0
  7  1  1  0
  8  7  1  0
  9  3  1  0
 10  8  2  3
 10  9  1  0
 11  2  1  0
 11  4  1  0
M  END
>  <ID>  (1) 
conformer_0

$$$$
