
     RDKit          3D

 11 12  0  0  0  0  0  0  0  0999 V2000
  133.6448   53.7038   32.7114 C   0  0  0  0  0  0  0  0  0  0  0  0
  137.0872   53.3901   30.4318 C   0  0  1  0  0  0  0  0  0  0  0  0
  132.3924   53.1515   32.7721 C   0  0  0  0  0  0  0  0  0  0  0  0
  131.2664   52.8632   32.1430 C   0  0  0  0  0  0  0  0  0  0  0  0
  130.2190   52.4757   32.2782 N   0  0  0  0  0  0  0  0  0  0  0  0
  135.7569   54.5940   30.2953 O   0  0  0  0  0  0  0  0  0  0  0  0
  137.4453   53.5163   29.7446 O   0  0  0  0  0  0  0  0  0  0  0  0
  137.2850   53.4536   31.9075 O   0  0  0  0  0  0  0  0  0  0  0  0
  129.4162   51.5487   32.1431 C   0  0  0  0  0  0  0  0  0  0  0  0
  134.8846   53.2022   32.8422 C   0  0  0  0  0  0  0  0  0  0  0  0
  135.8318   53.5671   31.8224 C   0  0  2  0  0  0  0  0  0  0  0  0
  3  1  1  0
  4  3  2  3
  5  4  1  0
  6  2  1  0
  2  7  1  6
  8  2  1  0
  9  5  1  0
 10  1  1  0
 11  2  1  0
 11  6  1  0
 11  8  1  0
 11 10  1  1
M  END
>  <ID>  (1) 
conformer_0

$$$$
