
     RDKit          3D

 10  9  0  0  0  0  0  0  0  0999 V2000
  134.9188   53.2819   32.7909 C   0  0  0  0  0  0  0  0  0  0  0  0
  136.0927   53.0408   32.1246 C   0  0  0  0  0  0  0  0  0  0  0  0
  133.5968   53.2723   32.9232 C   0  0  0  0  0  0  0  0  0  0  0  0
  131.3411   52.5555   32.2909 C   0  0  0  0  0  0  0  0  0  0  0  0
  135.3023   54.9268   30.2259 O   0  0  0  0  0  0  0  0  0  0  0  0
  137.0493   53.6989   30.3513 O   0  0  0  0  0  0  0  0  0  0  0  0
  130.5404   52.5434   31.7836 O   0  0  0  0  0  0  0  0  0  0  0  0
  132.2717   53.1932   32.6730 C   0  0  0  0  0  0  0  0  0  0  0  0
  135.9411   54.0455   30.4318 C   0  0  0  0  0  0  0  0  0  0  0  0
  129.3490   52.2283   31.8215 C   0  0  0  0  0  0  0  0  0  0  0  0
  2  1  1  0
  3  1  2  0
  7  4  1  0
  8  3  2  0
  8  4  1  0
  9  2  1  0
  9  5  2  0
  9  6  1  0
 10  7  1  0
M  END
>  <ID>  (1) 
conformer_0

$$$$
