
     RDKit          3D

  9  8  0  0  0  0  0  0  0  0999 V2000
  132.2294   53.0585   32.7757 C   0  0  0  0  0  0  0  0  0  0  0  0
  133.6013   53.4251   32.9609 C   0  0  0  0  0  0  0  0  0  0  0  0
  136.9518   53.2545   30.6425 C   0  0  0  0  0  0  0  0  0  0  0  0
  135.0527   55.0140   30.9129 O   0  0  0  0  0  0  0  0  0  0  0  0
  131.2244   52.5387   32.2122 C   0  0  0  0  0  0  0  0  0  0  0  0
  137.4443   53.6987   29.5688 O   0  0  0  0  0  0  0  0  0  0  0  0
  135.2342   53.1775   32.6474 C   0  0  0  0  0  0  0  0  0  0  0  0
  135.4267   54.0587   31.3309 C   0  0  0  0  0  0  0  0  0  0  0  0
  129.5350   51.3948   32.2114 C   0  0  0  0  0  0  0  0  0  0  0  0
  2  1  2  0
  5  1  2  0
  6  3  1  0
  7  2  1  0
  8  3  1  0
  8  4  2  0
  8  7  1  0
  9  5  1  0
M  END
>  <ID>  (1) 
conformer_0

$$$$
