
     RDKit          3D

  8  7  0  0  0  0  0  0  0  0999 V2000
  135.1921   53.0909   32.6985 C   0  0  0  0  0  0  0  0  0  0  0  0
  134.0197   54.0115   32.7897 C   0  0  0  0  0  0  0  0  0  0  0  0
  136.0168   53.6824   31.1609 C   0  0  0  0  0  0  0  0  0  0  0  0
  130.2030   52.0299   32.1958 C   0  0  0  0  0  0  0  0  0  0  0  0
  135.4149   54.7905   30.0687 O   0  0  0  0  0  0  0  0  0  0  0  0
  137.2834   53.5897   30.1643 O   0  0  0  0  0  0  0  0  0  0  0  0
  133.1053   52.8386   33.0876 C   0  0  0  0  0  0  0  0  0  0  0  0
  131.9024   52.9269   32.5189 C   0  0  0  0  0  0  0  0  0  0  0  0
  2  1  1  0
  3  1  1  0
  5  3  2  0
  6  3  1  0
  7  2  1  0
  8  4  1  0
  8  7  1  0
M  END
>  <ID>  (1) 
conformer_0

$$$$
