
     RDKit          3D

 11 10  0  0  0  0  0  0  0  0999 V2000
  134.6055   52.8766   32.8512 C   0  0  0  0  0  0  0  0  0  0  0  0
  133.9264   54.0744   32.6852 C   0  0  0  0  0  0  0  0  0  0  0  0
  135.8639   53.1992   32.1258 C   0  0  0  0  0  0  0  0  0  0  0  0
  130.0604   52.8085   31.8321 N   0  0  0  0  0  0  0  0  0  0  0  0
  135.2334   54.9941   30.4618 O   0  0  0  0  0  0  0  0  0  0  0  0
  136.9812   53.3768   29.8549 O   0  0  0  0  0  0  0  0  0  0  0  0
  130.5382   52.4094   32.0527 C   0  0  0  0  0  0  0  0  0  0  0  0
  136.3307   53.4256   31.8023 O   0  0  0  0  0  0  0  0  0  0  0  0
  132.1706   53.8153   32.4778 C   0  0  0  0  0  0  0  0  0  0  0  0
  136.4575   53.6820   30.5734 C   0  0  0  0  0  0  0  0  0  0  0  0
  132.2055   52.4927   32.7771 C   0  0  0  0  0  0  0  0  0  0  0  0
  2  1  1  0
  3  1  1  0
  7  4  1  0
  8  3  1  0
  9  2  1  0
 10  5  2  0
 10  6  1  0
 10  8  1  0
 11  7  1  0
 11  9  1  0
M  END
>  <ID>  (1) 
conformer_0

$$$$
