
     RDKit          3D

 10  9  0  0  0  0  0  0  0  0999 V2000
  136.1001   53.0028   32.2089 C   0  0  0  0  0  0  0  0  0  0  0  0
  134.9948   52.6947   33.2425 C   0  0  0  0  0  0  0  0  0  0  0  0
  135.1595   54.8190   30.2423 O   0  0  0  0  0  0  0  0  0  0  0  0
  136.2573   53.7044   30.5877 C   0  0  0  0  0  0  0  0  0  0  0  0
  137.3508   53.7515   30.2573 O   0  0  0  0  0  0  0  0  0  0  0  0
  132.7451   53.0888   33.0782 C   0  0  0  0  0  0  0  0  0  0  0  0
  130.2202   52.3922   32.0028 C   0  0  0  0  0  0  0  0  0  0  0  0
  130.0241   52.4147   32.0138 N   0  0  0  0  0  0  0  0  0  0  0  0
  131.7032   53.3143   32.2255 C   0  0  0  0  0  0  0  0  0  0  0  0
  134.0539   53.7910   32.6777 C   0  0  0  0  0  0  0  0  0  0  0  0
  2  1  1  0
  4  1  1  0
  4  3  2  0
  5  4  1  0
  8  7  1  0
  9  6  1  0
  9  7  1  0
 10  2  1  0
 10  6  1  0
M  END
>  <ID>  (1) 
conformer_0

$$$$
