
     RDKit          3D

  8  7  0  0  0  0  0  0  0  0999 V2000
  132.6142   53.0659   32.7342 C   0  0  0  0  0  0  0  0  0  0  0  0
  133.4814   53.9246   32.6066 C   0  0  0  0  0  0  0  0  0  0  0  0
  136.1620   53.3546   31.3625 C   0  0  0  0  0  0  0  0  0  0  0  0
  131.5205   53.2815   32.0101 C   0  0  0  0  0  0  0  0  0  0  0  0
  137.1523   53.7857   30.0501 O   0  0  0  0  0  0  0  0  0  0  0  0
  130.4532   52.6601   32.0992 N   0  0  0  0  0  0  0  0  0  0  0  0
  134.8799   53.0216   32.7276 C   0  0  0  0  0  0  0  0  0  0  0  0
  130.1143   51.5898   32.2494 C   0  0  0  0  0  0  0  0  0  0  0  0
  2  1  1  0
  4  1  1  0
  5  3  1  0
  6  4  1  0
  7  2  1  0
  7  3  1  0
  8  6  1  0
M  END
>  <ID>  (1) 
conformer_0

$$$$
