
     RDKit          3D

  9  8  0  0  0  0  0  0  0  0999 V2000
  132.3913   53.1995   32.6795 C   0  0  0  0  0  0  0  0  0  0  0  0
  133.5609   53.6990   32.6772 C   0  0  0  0  0  0  0  0  0  0  0  0
  136.1688   53.6192   30.8601 C   0  0  0  0  0  0  0  0  0  0  0  0
  135.2572   54.9249   30.0153 O   0  0  0  0  0  0  0  0  0  0  0  0
  130.3990   52.1294   32.1947 C   0  0  0  0  0  0  0  0  0  0  0  0
  137.1330   53.6115   29.5432 O   0  0  0  0  0  0  0  0  0  0  0  0
  136.3908   53.7245   30.9623 N   0  0  0  0  0  0  0  0  0  0  0  0
  134.6911   53.1551   32.9805 C   0  0  0  0  0  0  0  0  0  0  0  0
  130.3450   52.5131   32.0249 N   0  0  0  0  0  0  0  0  0  0  0  0
  2  1  1  0
  4  3  1  0
  6  3  1  0
  7  3  1  0
  8  2  1  0
  8  3  1  0
  9  1  1  0
  9  5  1  0
M  END
>  <ID>  (1) 
conformer_0

$$$$
