
     RDKit          3D

  9  8  0  0  0  0  0  0  0  0999 V2000
  134.3312   53.9072   32.7298 C   0  0  0  0  0  0  0  0  0  0  0  0
  133.2555   52.8637   33.0018 C   0  0  0  0  0  0  0  0  0  0  0  0
  136.3185   53.5894   30.9350 C   0  0  0  0  0  0  0  0  0  0  0  0
  130.6053   52.6091   32.0195 C   0  0  0  0  0  0  0  0  0  0  0  0
  136.9988   53.6717   30.0639 O   0  0  0  0  0  0  0  0  0  0  0  0
  135.5502   52.9794   32.2876 C   0  0  0  0  0  0  0  0  0  0  0  0
  130.3238   52.6388   31.8838 N   0  0  0  0  0  0  0  0  0  0  0  0
  135.5512   54.5756   30.2717 O   0  0  0  0  0  0  0  0  0  0  0  0
  132.1562   53.4691   32.6316 C   0  0  0  0  0  0  0  0  0  0  0  0
  2  1  1  0
  5  3  1  0
  6  1  1  0
  6  3  1  0
  7  4  1  0
  8  3  2  0
  9  2  1  0
  9  4  2  3
M  END
>  <ID>  (1) 
conformer_0

$$$$
