
     RDKit          3D

  8  7  0  0  0  0  0  0  0  0999 V2000
  132.5349   53.4075   32.5581 C   0  0  0  0  0  0  0  0  0  0  0  0
  136.5233   53.5928   30.6977 C   0  0  0  0  0  0  0  0  0  0  0  0
  136.8959   53.3328   32.1148 O   0  0  0  0  0  0  0  0  0  0  0  0
  130.7225   52.1246   32.2731 C   0  0  0  0  0  0  0  0  0  0  0  0
  137.3917   53.8276   29.9260 O   0  0  0  0  0  0  0  0  0  0  0  0
  134.1575   53.5551   32.8238 C   0  0  0  0  0  0  0  0  0  0  0  0
  134.9106   53.9519   31.2095 O   0  0  0  0  0  0  0  0  0  0  0  0
  135.0760   53.6382   31.7672 C   0  0  0  0  0  0  0  0  0  0  0  0
  3  2  2  0
  4  1  1  0
  5  2  1  0
  6  1  1  0
  8  2  1  0
  8  6  1  0
  8  7  2  0
M  END
>  <ID>  (1) 
conformer_0

$$$$
