
     RDKit          3D

 10  9  0  0  0  0  0  0  0  0999 V2000
  135.0004   53.4460   32.6328 C   0  0  0  0  0  0  0  0  0  0  0  0
  133.8656   53.8565   32.8198 C   0  0  0  0  0  0  0  0  0  0  0  0
  136.2411   53.8906   30.3263 C   0  0  0  0  0  0  0  0  0  0  0  0
  131.6304   52.6295   32.4321 C   0  0  0  0  0  0  0  0  0  0  0  0
  135.5398   54.6674   30.1674 O   0  0  0  0  0  0  0  0  0  0  0  0
  130.5017   53.0159   31.6550 N   0  0  0  0  0  0  0  0  0  0  0  0
  136.9742   53.7113   30.0032 O   0  0  0  0  0  0  0  0  0  0  0  0
  132.7523   52.9467   32.8689 C   0  0  0  0  0  0  0  0  0  0  0  0
  136.2773   53.0162   32.1486 C   0  0  0  0  0  0  0  0  0  0  0  0
  129.7724   52.0908   31.9106 C   0  0  0  0  0  0  0  0  0  0  0  0
  2  1  1  0
  5  3  2  0
  6  4  1  0
  7  3  1  0
  8  2  1  0
  8  4  2  3
  9  1  1  0
  9  3  1  0
 10  6  1  0
M  END
>  <ID>  (1) 
conformer_0

$$$$
