
     RDKit          3D

  8  7  0  0  0  0  0  0  0  0999 V2000
  132.3025   52.8756   32.8977 C   0  0  0  0  0  0  0  0  0  0  0  0
  133.5938   53.6288   32.9377 C   0  0  0  0  0  0  0  0  0  0  0  0
  136.5754   53.4254   30.9690 C   0  0  0  0  0  0  0  0  0  0  0  0
  130.4577   52.7249   31.9475 C   0  0  0  0  0  0  0  0  0  0  0  0
  135.4681   54.7084   30.5410 O   0  0  0  0  0  0  0  0  0  0  0  0
  137.2111   53.6466   29.6123 O   0  0  0  0  0  0  0  0  0  0  0  0
  134.7234   53.0749   32.9645 C   0  0  0  0  0  0  0  0  0  0  0  0
  136.0649   52.7207   32.3177 C   0  0  0  0  0  0  0  0  0  0  0  0
  2  1  1  0
  4  1  1  0
  5  3  2  0
  6  3  1  0
  7  2  1  0
  8  3  1  0
  8  7  2  3
M  END
>  <ID>  (1) 
conformer_0

$$$$
