
     RDKit          3D

  8  7  0  0  0  0  0  0  0  0999 V2000
  132.1611   52.8198   32.7738 C   0  0  0  0  0  0  0  0  0  0  0  0
  136.0486   53.5824   31.2026 C   0  0  0  0  0  0  0  0  0  0  0  0
  133.4506   53.6413   32.7806 C   0  0  0  0  0  0  0  0  0  0  0  0
  136.9260   53.4640   32.0210 O   0  0  0  0  0  0  0  0  0  0  0  0
  137.1281   53.5810   29.9858 O   0  0  0  0  0  0  0  0  0  0  0  0
  130.7078   52.3913   32.1306 C   0  0  0  0  0  0  0  0  0  0  0  0
  130.0524   53.2525   31.8674 N   0  0  0  0  0  0  0  0  0  0  0  0
  134.5918   53.3873   32.7280 C   0  0  0  0  0  0  0  0  0  0  0  0
  3  1  1  0
  4  2  2  0
  5  2  1  0
  6  1  1  0
  7  6  1  0
  8  2  1  0
  8  3  1  0
M  END
>  <ID>  (1) 
conformer_0

$$$$
