
     RDKit          3D

  9  8  0  0  0  0  0  0  0  0999 V2000
  133.2663   53.5788   32.8933 C   0  0  0  0  0  0  0  0  0  0  0  0
  136.3510   53.6624   30.4262 C   0  0  0  0  0  0  0  0  0  0  0  0
  132.1966   52.9282   32.8549 C   0  0  0  0  0  0  0  0  0  0  0  0
  137.0793   53.5843   29.8742 O   0  0  0  0  0  0  0  0  0  0  0  0
  130.5758   52.2862   32.1075 C   0  0  0  0  0  0  0  0  0  0  0  0
  135.2980   54.7274   30.3926 O   0  0  0  0  0  0  0  0  0  0  0  0
  136.5028   53.9131   32.3785 O   0  0  0  0  0  0  0  0  0  0  0  0
  134.5614   53.3114   32.5965 C   0  0  0  0  0  0  0  0  0  0  0  0
  135.8302   53.3824   32.1056 C   0  0  0  0  0  0  0  0  0  0  0  0
  3  1  1  0
  4  2  1  0
  5  3  1  0
  6  2  2  0
  8  1  2  0
  9  2  1  0
  9  7  1  0
  9  8  2  0
M  END
>  <ID>  (1) 
conformer_0

$$$$
