
     RDKit          3D

  7  6  0  0  0  0  0  0  0  0999 V2000
  134.0699   53.7139   32.8119 C   0  0  0  0  0  0  0  0  0  0  0  0
  132.7923   53.1052   32.9015 C   0  0  0  0  0  0  0  0  0  0  0  0
  136.2982   53.5629   30.8713 C   0  0  0  0  0  0  0  0  0  0  0  0
  137.0953   53.4895   29.8591 O   0  0  0  0  0  0  0  0  0  0  0  0
  130.7471   52.4489   32.2265 C   0  0  0  0  0  0  0  0  0  0  0  0
  135.5270   54.6741   30.1695 O   0  0  0  0  0  0  0  0  0  0  0  0
  135.2706   53.0522   32.5260 C   0  0  0  0  0  0  0  0  0  0  0  0
  2  1  1  0
  4  3  1  0
  5  2  1  0
  6  3  2  0
  7  1  1  0
  7  3  1  0
M  END
>  <ID>  (1) 
conformer_0

$$$$
