
     RDKit          3D

 10  9  0  0  0  0  0  0  0  0999 V2000
  134.4504   53.5251   32.7934 C   0  0  0  0  0  0  0  0  0  0  0  0
  136.1145   53.0164   32.2600 C   0  0  0  0  0  0  0  0  0  0  0  0
  131.5975   52.8897   32.2768 C   0  0  0  0  0  0  0  0  0  0  0  0
  135.4059   54.7320   30.1672 O   0  0  0  0  0  0  0  0  0  0  0  0
  137.4908   53.4087   30.1293 O   0  0  0  0  0  0  0  0  0  0  0  0
  130.9153   52.4003   32.0237 O   0  0  0  0  0  0  0  0  0  0  0  0
  136.3724   53.5242   31.9575 O   0  0  0  0  0  0  0  0  0  0  0  0
  129.4481   51.7935   31.9310 C   0  0  0  0  0  0  0  0  0  0  0  0
  133.0717   53.6586   32.7461 C   0  0  0  0  0  0  0  0  0  0  0  0
  136.2854   53.8657   30.5087 C   0  0  0  0  0  0  0  0  0  0  0  0
  2  1  1  0
  6  3  1  0
  7  2  1  0
  8  6  1  0
  9  1  1  0
  9  3  1  0
 10  4  2  0
 10  5  1  0
 10  7  1  0
M  END
>  <ID>  (1) 
conformer_0

$$$$
