
     RDKit          3D

 10  9  0  0  0  0  0  0  0  0999 V2000
  131.7851   53.2073   32.3881 C   0  0  0  0  0  0  0  0  0  0  0  0
  133.0324   52.8440   33.0868 C   0  0  0  0  0  0  0  0  0  0  0  0
  136.3117   52.9033   32.2085 C   0  0  0  0  0  0  0  0  0  0  0  0
  135.4212   54.7155   30.2414 O   0  0  0  0  0  0  0  0  0  0  0  0
  137.1525   53.4005   30.0090 O   0  0  0  0  0  0  0  0  0  0  0  0
  129.9684   52.7242   32.0158 N   0  0  0  0  0  0  0  0  0  0  0  0
  130.3440   52.1931   32.0621 C   0  0  0  0  0  0  0  0  0  0  0  0
  135.2016   53.2676   32.7401 C   0  0  0  0  0  0  0  0  0  0  0  0
  136.2850   53.7466   30.5995 C   0  0  0  0  0  0  0  0  0  0  0  0
  133.8440   54.0784   32.6322 C   0  0  0  0  0  0  0  0  0  0  0  0
  2  1  1  0
  7  1  1  0
  7  6  1  0
  8  3  1  0
  9  3  1  0
  9  4  2  0
  9  5  1  0
 10  2  1  0
 10  8  1  0
M  END
>  <ID>  (1) 
conformer_0

$$$$
