
     RDKit          3D

  7  6  0  0  0  0  0  0  0  0999 V2000
  132.4471   52.9293   32.9784 C   0  0  0  0  0  0  0  0  0  0  0  0
  133.5132   53.6621   33.0418 C   0  0  0  0  0  0  0  0  0  0  0  0
  136.2128   53.6107   30.9118 C   0  0  0  0  0  0  0  0  0  0  0  0
  130.4328   52.4337   32.0153 C   0  0  0  0  0  0  0  0  0  0  0  0
  135.3134   54.6082   30.1832 O   0  0  0  0  0  0  0  0  0  0  0  0
  137.2522   53.6821   30.0635 O   0  0  0  0  0  0  0  0  0  0  0  0
  134.8151   53.1817   32.7763 C   0  0  0  0  0  0  0  0  0  0  0  0
  2  1  1  0
  4  1  1  0
  5  3  2  0
  6  3  1  0
  7  2  1  0
  7  3  1  0
M  END
>  <ID>  (1) 
conformer_0

$$$$
