
     RDKit          3D

 10  9  0  0  0  0  0  0  0  0999 V2000
  134.8411   53.1825   32.5529 C   0  0  0  0  0  0  0  0  0  0  0  0
  136.4416   52.9834   31.8328 C   0  0  0  0  0  0  0  0  0  0  0  0
  133.8908   53.8293   32.8418 C   0  0  0  0  0  0  0  0  0  0  0  0
  131.5685   52.7497   32.3699 C   0  0  0  0  0  0  0  0  0  0  0  0
  130.5285   52.7836   32.2190 N   0  0  0  0  0  0  0  0  0  0  0  0
  136.5251   53.6123   30.9757 N   0  0  0  0  0  0  0  0  0  0  0  0
  136.4917   53.8434   30.1974 C   0  0  0  0  0  0  0  0  0  0  0  0
  137.0671   53.3341   29.3033 O   0  0  0  0  0  0  0  0  0  0  0  0
  132.5363   53.2089   32.6787 C   0  0  0  0  0  0  0  0  0  0  0  0
  129.7241   52.1120   31.9001 C   0  0  0  0  0  0  0  0  0  0  0  0
  2  1  1  0
  3  1  1  0
  5  4  1  0
  6  2  1  0
  7  6  1  0
  8  7  1  0
  9  3  2  0
  9  4  2  0
 10  5  1  0
M  END
>  <ID>  (1) 
conformer_0

$$$$
