
     RDKit          3D

  7  6  0  0  0  0  0  0  0  0999 V2000
  133.8266   53.6113   32.5883 C   0  0  0  0  0  0  0  0  0  0  0  0
  132.4155   53.1267   32.6799 C   0  0  0  0  0  0  0  0  0  0  0  0
  136.1590   53.5270   31.3244 C   0  0  0  0  0  0  0  0  0  0  0  0
  137.1340   53.7433   30.2978 O   0  0  0  0  0  0  0  0  0  0  0  0
  135.1864   54.7302   30.3766 O   0  0  0  0  0  0  0  0  0  0  0  0
  130.6183   52.4873   32.0369 C   0  0  0  0  0  0  0  0  0  0  0  0
  135.1732   53.1335   32.5476 C   0  0  0  0  0  0  0  0  0  0  0  0
  2  1  1  0
  4  3  1  0
  5  3  2  0
  6  2  1  0
  7  1  1  0
  7  3  1  0
M  END
>  <ID>  (1) 
conformer_0

$$$$
