
     RDKit          3D

 11 12  0  0  0  0  0  0  0  0999 V2000
  135.1735   53.0899   32.7845 C   0  0  0  0  0  0  0  0  0  0  0  0
  133.3148   52.7604   33.2002 C   0  0  0  0  0  0  0  0  0  0  0  0
  136.2039   53.1017   32.2259 C   0  0  0  0  0  0  0  0  0  0  0  0
  135.4809   54.6224   30.1694 O   0  0  0  0  0  0  0  0  0  0  0  0
  131.6687   52.4807   32.4478 C   0  0  0  0  0  0  0  0  0  0  0  0
  137.2013   53.3587   30.5277 O   0  0  0  0  0  0  0  0  0  0  0  0
  130.5692   52.7319   32.0571 N   0  0  0  0  0  0  0  0  0  0  0  0
  133.7719   54.0664   32.3749 C   0  0  0  0  0  0  0  0  0  0  0  0
  136.2028   53.8151   30.4047 C   0  0  0  0  0  0  0  0  0  0  0  0
  132.1039   53.6191   32.2715 C   0  0  0  0  0  0  0  0  0  0  0  0
  129.8045   52.2601   31.8442 C   0  0  0  0  0  0  0  0  0  0  0  0
  2  1  1  0
  3  1  1  0
  7  5  1  0
  8  1  1  0
  8  2  1  0
  9  3  1  0
  9  4  2  0
  9  6  1  0
 10  2  1  0
 10  5  1  0
 10  8  1  0
 11  7  1  0
M  END
>  <ID>  (1) 
conformer_0

$$$$
