
     RDKit          3D

  6  5  0  0  0  0  0  0  0  0999 V2000
  134.6668   53.2300   32.8846 C   0  0  0  0  0  0  0  0  0  0  0  0
  135.9943   53.5897   31.1899 C   0  0  0  0  0  0  0  0  0  0  0  0
  130.9245   52.5909   32.1422 C   0  0  0  0  0  0  0  0  0  0  0  0
  135.2915   54.7634   29.9830 O   0  0  0  0  0  0  0  0  0  0  0  0
  133.3525   53.1385   33.0231 C   0  0  0  0  0  0  0  0  0  0  0  0
  137.0385   53.6346   30.2160 O   0  0  0  0  0  0  0  0  0  0  0  0
  2  1  1  0
  4  2  2  0
  5  1  1  0
  5  3  1  0
  6  2  1  0
M  END
>  <ID>  (1) 
conformer_0

$$$$
