
     RDKit          3D

 12 11  0  0  0  0  0  0  0  0999 V2000
  134.1893   52.8940   33.1617 C   0  0  0  0  0  0  0  0  0  0  0  0
  134.9943   53.6552   32.6081 C   0  0  0  0  0  0  0  0  0  0  0  0
  130.1208   52.9761   31.6221 N   0  0  0  0  0  0  0  0  0  0  0  0
  136.2503   53.4135   31.7913 C   0  0  0  0  0  0  0  0  0  0  0  0
  131.1832   53.0280   32.0844 C   0  0  0  0  0  0  0  0  0  0  0  0
  135.6455   54.5718   30.1621 O   0  0  0  0  0  0  0  0  0  0  0  0
  137.3747   53.4302   30.1378 O   0  0  0  0  0  0  0  0  0  0  0  0
  137.0423   53.3076   32.1747 O   0  0  0  0  0  0  0  0  0  0  0  0
  132.1210   53.0089   32.6546 C   0  0  0  0  0  0  0  0  0  0  0  0
  129.6609   51.5474   32.2198 C   0  0  0  0  0  0  0  0  0  0  0  0
  136.4771   53.7372   29.8599 C   0  0  0  0  0  0  0  0  0  0  0  0
  133.0181   54.1484   32.6281 C   0  0  0  0  0  0  0  0  0  0  0  0
  2  1  1  0
  4  2  1  0
  5  3  1  0
  8  4  2  0
  9  5  1  0
 10  3  1  0
 11  4  1  0
 11  6  1  0
 11  7  1  0
 12  1  1  0
 12  9  1  0
M  END
>  <ID>  (1) 
conformer_0

$$$$
