
     RDKit          3D

 10  9  0  0  0  0  0  0  0  0999 V2000
  135.0307   53.0908   32.8575 C   0  0  0  0  0  0  0  0  0  0  0  0
  135.6003   53.7537   31.5277 C   0  0  0  0  0  0  0  0  0  0  0  0
  131.4438   52.7539   32.2349 C   0  0  0  0  0  0  0  0  0  0  0  0
  133.8025   53.5734   32.9709 C   0  0  0  0  0  0  0  0  0  0  0  0
  135.3581   54.5996   30.5889 O   0  0  0  0  0  0  0  0  0  0  0  0
  137.7260   53.7910   30.1278 O   0  0  0  0  0  0  0  0  0  0  0  0
  131.0992   52.4786   31.9138 O   0  0  0  0  0  0  0  0  0  0  0  0
  132.4392   53.0086   32.9922 C   0  0  0  0  0  0  0  0  0  0  0  0
  136.9583   53.3531   30.7078 C   0  0  0  0  0  0  0  0  0  0  0  0
  129.5696   52.2794   31.7708 C   0  0  0  0  0  0  0  0  0  0  0  0
  2  1  1  0
  4  1  1  0
  5  2  1  0
  7  3  1  0
  8  3  1  0
  8  4  1  0
  9  2  1  0
  9  6  1  0
 10  7  1  0
M  END
>  <ID>  (1) 
conformer_0

$$$$
