
     RDKit          3D

 11 11  0  0  0  0  0  0  0  0999 V2000
  135.6075   53.2508   32.3801 C   0  0  0  0  0  0  0  0  0  0  0  0
  134.2253   54.2387   32.3239 C   0  0  0  0  0  0  0  0  0  0  0  0
  135.6483   54.0017   30.6922 C   0  0  0  0  0  0  0  0  0  0  0  0
  131.6653   52.8649   32.1387 C   0  0  0  0  0  0  0  0  0  0  0  0
  130.2550   52.4587   32.0693 N   0  0  0  0  0  0  0  0  0  0  0  0
  135.3249   54.6475   30.1975 O   0  0  0  0  0  0  0  0  0  0  0  0
  137.4561   53.7076   30.3647 O   0  0  0  0  0  0  0  0  0  0  0  0
  133.5886   52.9657   32.8695 C   0  0  0  0  0  0  0  0  0  0  0  0
  132.2718   53.4596   32.5030 C   0  0  0  0  0  0  0  0  0  0  0  0
  129.9926   51.8073   32.1726 C   0  0  0  0  0  0  0  0  0  0  0  0
  137.0025   52.9560   31.5812 C   0  0  0  0  0  0  0  0  0  0  0  0
  2  1  1  0
  3  1  1  0
  5  4  1  0
  6  3  2  0
  8  2  1  0
  9  4  1  0
  9  8  1  0
 10  5  1  0
 11  1  1  0
 11  3  1  0
 11  7  1  0
M  END
>  <ID>  (1) 
conformer_0

$$$$
