
     RDKit          3D

 12 11  0  0  0  0  0  0  0  0999 V2000
  134.8308   53.1772   32.8152 C   0  0  0  0  0  0  0  0  0  0  0  0
  136.1134   54.0509   30.1621 C   0  0  0  0  0  0  0  0  0  0  0  0
  133.8705   53.9030   32.5945 C   0  0  0  0  0  0  0  0  0  0  0  0
  129.8478   51.7649   32.0296 C   0  0  0  0  0  0  0  0  0  0  0  0
  135.2858   54.8962   30.4011 O   0  0  0  0  0  0  0  0  0  0  0  0
  136.9370   53.8119   29.9750 O   0  0  0  0  0  0  0  0  0  0  0  0
  129.0245   51.5543   32.1249 C   0  0  0  0  0  0  0  0  0  0  0  0
  136.2500   53.0664   31.9899 C   0  0  1  0  0  0  0  0  0  0  0  0
  137.0348   52.8265   32.7731 N   0  0  0  0  0  0  0  0  0  0  0  0
  130.5904   52.6067   32.0701 N   0  0  0  0  0  0  0  0  0  0  0  0
  132.4926   53.3402   32.6570 C   0  0  0  0  0  0  0  0  0  0  0  0
  131.6404   52.9393   32.1285 C   0  0  0  0  0  0  0  0  0  0  0  0
  3  1  1  0
  5  2  1  0
  6  2  1  0
  7  4  2  3
  8  1  1  0
  8  2  1  0
  8  9  1  1
 10  4  1  0
 11  3  1  0
 12 10  1  0
 12 11  2  3
M  END
>  <ID>  (1) 
conformer_0

$$$$
