
     RDKit          3D

  8  7  0  0  0  0  0  0  0  0999 V2000
  134.9323   53.0756   32.9872 C   0  0  0  0  0  0  0  0  0  0  0  0
  133.7897   53.2719   33.2217 C   0  0  0  0  0  0  0  0  0  0  0  0
  136.2374   53.1575   31.7730 C   0  0  0  0  0  0  0  0  0  0  0  0
  130.4490   52.8042   31.9268 C   0  0  0  0  0  0  0  0  0  0  0  0
  135.7282   54.5912   29.9982 O   0  0  0  0  0  0  0  0  0  0  0  0
  137.2882   53.3808   29.9618 O   0  0  0  0  0  0  0  0  0  0  0  0
  132.2841   53.2138   32.7906 C   0  0  0  0  0  0  0  0  0  0  0  0
  136.2915   53.9216   29.7181 C   0  0  0  0  0  0  0  0  0  0  0  0
  2  1  1  0
  3  1  2  3
  7  2  1  0
  7  4  1  0
  8  3  1  0
  8  5  1  0
  8  6  1  0
M  END
>  <ID>  (1) 
conformer_0

$$$$
