
     RDKit          3D

 10  9  0  0  0  0  0  0  0  0999 V2000
  132.4606   53.6991   32.5112 C   0  0  0  0  0  0  0  0  0  0  0  0
  133.6792   53.0662   33.1647 C   0  0  0  0  0  0  0  0  0  0  0  0
  136.9745   53.5209   30.3195 C   0  0  0  0  0  0  0  0  0  0  0  0
  135.9241   54.3690   30.1345 O   0  0  0  0  0  0  0  0  0  0  0  0
  129.9207   52.5198   31.8661 C   0  0  0  0  0  0  0  0  0  0  0  0
  137.9515   53.6088   29.8601 O   0  0  0  0  0  0  0  0  0  0  0  0
  129.7501   53.1850   31.8001 N   0  0  0  0  0  0  0  0  0  0  0  0
  134.9144   53.4282   32.8461 C   0  0  0  0  0  0  0  0  0  0  0  0
  136.4312   53.0274   32.1467 C   0  0  0  0  0  0  0  0  0  0  0  0
  131.5959   52.6071   32.5014 C   0  0  0  0  0  0  0  0  0  0  0  0
  2  1  1  0
  4  3  2  0
  6  3  1  0
  7  5  1  0
  8  2  1  0
  9  3  1  0
  9  8  1  0
 10  1  1  0
 10  5  1  0
M  END
>  <ID>  (1) 
conformer_0

$$$$
