
     RDKit          3D

 11 10  0  0  0  0  0  0  0  0999 V2000
  134.8863   52.9185   32.8894 C   0  0  0  0  0  0  0  0  0  0  0  0
  133.7258   53.4189   32.9064 C   0  0  0  0  0  0  0  0  0  0  0  0
  136.2968   53.7650   30.4343 C   0  0  0  0  0  0  0  0  0  0  0  0
  134.9624   54.6191   30.3861 O   0  0  0  0  0  0  0  0  0  0  0  0
  137.3891   53.8713   30.0877 O   0  0  0  0  0  0  0  0  0  0  0  0
  129.2690   51.7539   31.9245 C   0  0  0  0  0  0  0  0  0  0  0  0
  130.2721   52.5711   31.5862 O   0  0  0  0  0  0  0  0  0  0  0  0
  137.2980   53.0424   32.6936 N   0  0  0  0  0  0  0  0  0  0  0  0
  132.3603   53.3131   32.6103 C   0  0  0  0  0  0  0  0  0  0  0  0
  136.2829   53.1364   32.1196 C   0  0  0  0  0  0  0  0  0  0  0  0
  131.2514   52.8785   32.0648 C   0  0  0  0  0  0  0  0  0  0  0  0
  2  1  1  0
  4  3  2  0
  5  3  1  0
  7  6  1  0
  9  2  1  0
 10  1  1  0
 10  3  1  0
 10  8  1  0
 11  7  1  0
 11  9  3  0
M  END
>  <ID>  (1) 
conformer_0

$$$$
