
     RDKit          3D

 12 11  0  0  0  0  0  0  0  0999 V2000
  131.3049   53.2833   32.2157 C   0  0  0  0  0  0  0  0  0  0  0  0
  129.7087   51.9128   31.9457 C   0  0  0  0  0  0  0  0  0  0  0  0
  136.6711   52.9746   32.1138 C   0  0  0  0  0  0  0  0  0  0  0  0
  132.0678   52.2951   32.8534 C   0  0  0  0  0  0  0  0  0  0  0  0
  137.5134   53.7665   30.2616 O   0  0  0  0  0  0  0  0  0  0  0  0
  135.3659   54.8155   30.3735 O   0  0  0  0  0  0  0  0  0  0  0  0
  133.1848   53.6058   33.0337 C   0  0  0  0  0  0  0  0  0  0  0  0
  137.3761   52.9624   32.6498 N   0  0  0  0  0  0  0  0  0  0  0  0
  130.0880   52.3330   31.8917 C   0  0  0  0  0  0  0  0  0  0  0  0
  134.2983   53.0954   33.1758 C   0  0  0  0  0  0  0  0  0  0  0  0
  136.2874   53.8246   30.4119 C   0  0  0  0  0  0  0  0  0  0  0  0
  135.5622   53.3957   31.9792 C   0  0  0  0  0  0  0  0  0  0  0  0
  4  1  1  0
  7  4  1  0
  8  3  1  0
  9  1  1  0
  9  2  3  0
 10  7  1  0
 11  5  1  0
 11  6  1  0
 12  3  1  0
 12 10  1  0
 12 11  1  0
M  END
>  <ID>  (1) 
conformer_0

$$$$
