
     RDKit          3D

  9  8  0  0  0  0  0  0  0  0999 V2000
  132.3568   53.4472   32.5268 C   0  0  0  0  0  0  0  0  0  0  0  0
  133.6918   53.4808   32.9069 C   0  0  0  0  0  0  0  0  0  0  0  0
  131.3478   53.4052   31.9775 C   0  0  0  0  0  0  0  0  0  0  0  0
  136.3059   53.4870   31.1980 C   0  0  0  0  0  0  0  0  0  0  0  0
  135.5096   54.3545   30.8405 O   0  0  0  0  0  0  0  0  0  0  0  0
  137.4458   53.5794   30.3073 O   0  0  0  0  0  0  0  0  0  0  0  0
  130.5984   52.2596   31.8758 O   0  0  0  0  0  0  0  0  0  0  0  0
  135.0923   53.2005   32.7462 C   0  0  0  0  0  0  0  0  0  0  0  0
  130.0949   51.8241   32.1432 C   0  0  0  0  0  0  0  0  0  0  0  0
  2  1  2  0
  3  1  2  0
  5  4  2  0
  6  4  1  0
  7  3  1  0
  8  2  1  0
  8  4  1  0
  9  7  1  0
M  END
>  <ID>  (1) 
conformer_0

$$$$
