
     RDKit          3D

 10  9  0  0  0  0  0  0  0  0999 V2000
  134.0195   53.8405   32.7913 C   0  0  0  0  0  0  0  0  0  0  0  0
  135.1113   52.8421   32.8054 C   0  0  0  0  0  0  0  0  0  0  0  0
  136.1820   53.4458   31.3885 C   0  0  0  0  0  0  0  0  0  0  0  0
  136.7217   53.7400   29.7794 O   0  0  0  0  0  0  0  0  0  0  0  0
  130.1624   52.2958   31.9933 C   0  0  0  0  0  0  0  0  0  0  0  0
  135.4681   54.8760   30.7275 O   0  0  0  0  0  0  0  0  0  0  0  0
  131.7111   52.9958   32.3942 C   0  0  0  0  0  0  0  0  0  0  0  0
  130.0114   53.1043   31.8282 N   0  0  0  0  0  0  0  0  0  0  0  0
  137.4197   52.9362   32.5835 N   0  0  0  0  0  0  0  0  0  0  0  0
  132.9337   52.8720   32.9429 C   0  0  0  0  0  0  0  0  0  0  0  0
  2  1  1  0
  3  2  1  0
  4  3  1  0
  6  3  1  0
  7  5  1  0
  8  5  1  0
  9  3  1  0
 10  1  1  0
 10  7  2  3
M  END
>  <ID>  (1) 
conformer_0

$$$$
