
     RDKit          3D

  8  7  0  0  0  0  0  0  0  0999 V2000
  132.1395   53.2117   32.3828 C   0  0  0  0  0  0  0  0  0  0  0  0
  133.6678   53.5537   32.7998 C   0  0  0  0  0  0  0  0  0  0  0  0
  136.5574   53.2909   31.3899 C   0  0  0  0  0  0  0  0  0  0  0  0
  130.4292   52.9456   31.7270 C   0  0  0  0  0  0  0  0  0  0  0  0
  137.0736   53.5293   30.1543 O   0  0  0  0  0  0  0  0  0  0  0  0
  137.4136   52.8875   32.3820 O   0  0  0  0  0  0  0  0  0  0  0  0
  135.4217   54.6608   30.3996 O   0  0  0  0  0  0  0  0  0  0  0  0
  135.0114   53.3978   32.6609 C   0  0  0  0  0  0  0  0  0  0  0  0
  2  1  1  0
  4  1  1  0
  5  3  1  0
  6  3  1  0
  7  3  1  0
  8  2  1  0
  8  3  1  0
M  END
>  <ID>  (1) 
conformer_0

$$$$
