
     RDKit          3D

  8  7  0  0  0  0  0  0  0  0999 V2000
  133.0882   53.7221   32.8095 C   0  0  0  0  0  0  0  0  0  0  0  0
  132.1342   52.9014   32.7364 C   0  0  0  0  0  0  0  0  0  0  0  0
  136.1382   53.5699   31.1393 C   0  0  0  0  0  0  0  0  0  0  0  0
  137.2058   53.7257   30.1081 O   0  0  0  0  0  0  0  0  0  0  0  0
  135.2216   54.7322   30.2881 O   0  0  0  0  0  0  0  0  0  0  0  0
  130.6594   52.1976   32.1977 C   0  0  0  0  0  0  0  0  0  0  0  0
  134.7167   53.7738   32.7137 C   0  0  0  0  0  0  0  0  0  0  0  0
  135.2795   52.5418   32.8081 C   0  0  0  0  0  0  0  0  0  0  0  0
  2  1  1  0
  4  3  1  0
  5  3  1  0
  6  2  1  0
  7  1  1  0
  7  3  1  0
  8  7  1  0
M  END
>  <ID>  (1) 
conformer_0

$$$$
