
     RDKit          3D

 10  9  0  0  0  0  0  0  0  0999 V2000
  133.2730   54.0035   32.9485 C   0  0  0  0  0  0  0  0  0  0  0  0
  132.2116   52.8054   32.8917 C   0  0  0  0  0  0  0  0  0  0  0  0
  136.3244   53.5243   31.0396 C   0  0  0  0  0  0  0  0  0  0  0  0
  130.2948   52.8424   31.6848 N   0  0  0  0  0  0  0  0  0  0  0  0
  135.1909   54.7193   30.9562 O   0  0  0  0  0  0  0  0  0  0  0  0
  137.3846   53.5857   30.1712 O   0  0  0  0  0  0  0  0  0  0  0  0
  131.5009   52.4226   32.3675 C   0  0  0  0  0  0  0  0  0  0  0  0
  134.3184   53.0211   33.0942 C   0  0  0  0  0  0  0  0  0  0  0  0
  135.6408   52.9965   32.2891 C   0  0  0  0  0  0  0  0  0  0  0  0
  129.4959   52.2228   31.7557 C   0  0  0  0  0  0  0  0  0  0  0  0
  2  1  1  0
  5  3  2  0
  6  3  1  0
  7  2  1  0
  7  4  1  0
  8  1  1  0
  9  3  1  0
  9  8  1  0
 10  4  1  0
M  END
>  <ID>  (1) 
conformer_0

$$$$
