
     RDKit          3D

 10  9  0  0  0  0  0  0  0  0999 V2000
  132.1794   53.1879   32.7103 C   0  0  0  0  0  0  0  0  0  0  0  0
  136.1871   53.0947   32.1765 C   0  0  0  0  0  0  0  0  0  0  0  0
  130.6675   52.8158   31.8519 C   0  0  0  0  0  0  0  0  0  0  0  0
  133.3268   53.5974   32.8846 C   0  0  0  0  0  0  0  0  0  0  0  0
  135.3055   54.7188   30.5229 O   0  0  0  0  0  0  0  0  0  0  0  0
  129.8346   52.6329   32.0045 N   0  0  0  0  0  0  0  0  0  0  0  0
  136.6220   52.8168   32.8808 N   0  0  0  0  0  0  0  0  0  0  0  0
  137.6932   53.0048   30.9743 C   0  0  0  0  0  0  0  0  0  0  0  0
  136.4284   53.7582   30.3261 C   0  0  0  0  0  0  0  0  0  0  0  0
  134.6067   53.1343   32.7146 C   0  0  0  0  0  0  0  0  0  0  0  0
  3  1  2  0
  4  1  2  0
  6  3  1  0
  7  2  1  0
  8  2  1  0
  9  5  1  0
  9  8  1  0
 10  2  2  0
 10  4  2  0
M  END
>  <ID>  (1) 
conformer_0

$$$$
