
     RDKit          3D

  9  8  0  0  0  0  0  0  0  0999 V2000
  134.0716   53.9125   32.8137 C   0  0  0  0  0  0  0  0  0  0  0  0
  135.0816   53.0942   32.9992 C   0  0  0  0  0  0  0  0  0  0  0  0
  136.0216   53.8231   30.6389 C   0  0  0  0  0  0  0  0  0  0  0  0
  135.3944   55.0212   30.1069 O   0  0  0  0  0  0  0  0  0  0  0  0
  137.0066   53.6101   30.2381 O   0  0  0  0  0  0  0  0  0  0  0  0
  130.1035   52.4715   31.7341 N   0  0  0  0  0  0  0  0  0  0  0  0
  130.3839   52.2220   32.1021 C   0  0  0  0  0  0  0  0  0  0  0  0
  132.9402   52.7524   33.1534 C   0  0  0  0  0  0  0  0  0  0  0  0
  131.8965   53.1720   32.4314 C   0  0  0  0  0  0  0  0  0  0  0  0
  2  1  1  0
  3  2  1  0
  4  3  2  0
  5  3  1  0
  7  6  1  0
  8  1  1  0
  9  7  1  0
  9  8  1  0
M  END
>  <ID>  (1) 
conformer_0

$$$$
