
     RDKit          3D

 12 11  0  0  0  0  0  0  0  0999 V2000
  135.3097   52.8821   32.7302 C   0  0  0  0  0  0  0  0  0  0  0  0
  136.8625   53.5033   30.4869 C   0  0  0  0  0  0  0  0  0  0  0  0
  133.1703   52.9218   32.9233 C   0  0  0  0  0  0  0  0  0  0  0  0
  131.2198   53.1345   31.9979 C   0  0  0  0  0  0  0  0  0  0  0  0
  137.0654   53.4187   29.5711 O   0  0  0  0  0  0  0  0  0  0  0  0
  135.5252   54.7957   30.3909 O   0  0  0  0  0  0  0  0  0  0  0  0
  129.8744   52.4792   31.5101 O   0  0  0  0  0  0  0  0  0  0  0  0
  137.2691   53.3172   32.0818 O   0  0  0  0  0  0  0  0  0  0  0  0
  132.0294   53.5156   32.3711 C   0  0  0  0  0  0  0  0  0  0  0  0
  129.8441   51.5294   32.3137 C   0  0  0  0  0  0  0  0  0  0  0  0
  136.1094   53.2270   31.8750 C   0  0  0  0  0  0  0  0  0  0  0  0
  134.1839   54.0150   32.7581 C   0  0  0  0  0  0  0  0  0  0  0  0
  5  2  1  0
  6  2  1  0
  7  4  1  0
  9  3  1  0
  9  4  1  0
 10  7  1  0
 11  1  1  0
 11  2  1  0
 11  8  2  0
 12  1  1  0
 12  3  1  0
M  END
>  <ID>  (1) 
conformer_0

$$$$
