
     RDKit          3D

 10 10  0  0  0  0  0  0  0  0999 V2000
  135.9795   52.5170   32.6808 C   0  0  0  0  0  0  0  0  0  0  0  0
  134.6947   53.7322   32.6982 C   0  0  0  0  0  0  0  0  0  0  0  0
  136.0694   53.7177   31.0653 C   0  0  0  0  0  0  0  0  0  0  0  0
  135.2329   54.8951   30.5774 O   0  0  0  0  0  0  0  0  0  0  0  0
  130.4524   52.6248   31.8499 C   0  0  0  0  0  0  0  0  0  0  0  0
  130.1149   52.6778   31.9446 N   0  0  0  0  0  0  0  0  0  0  0  0
  134.1591   52.5482   33.4071 C   0  0  0  0  0  0  0  0  0  0  0  0
  136.8450   53.8748   29.9018 O   0  0  0  0  0  0  0  0  0  0  0  0
  132.7662   53.7580   32.6613 C   0  0  0  0  0  0  0  0  0  0  0  0
  131.9785   52.6529   32.5013 C   0  0  0  0  0  0  0  0  0  0  0  0
  2  1  1  0
  3  1  1  0
  4  3  2  0
  6  5  1  0
  7  1  1  0
  7  2  1  0
  8  3  1  0
  9  2  1  0
 10  5  1  0
 10  9  1  0
M  END
>  <ID>  (1) 
conformer_0

$$$$
