
     RDKit          3D

  9  8  0  0  0  0  0  0  0  0999 V2000
  135.1137   52.9858   32.8002 C   0  0  0  0  0  0  0  0  0  0  0  0
  133.9478   54.1235   32.8816 C   0  0  0  0  0  0  0  0  0  0  0  0
  136.5332   52.9376   31.7844 C   0  0  0  0  0  0  0  0  0  0  0  0
  135.3889   54.7066   30.3846 O   0  0  0  0  0  0  0  0  0  0  0  0
  130.2592   52.4419   31.9765 C   0  0  0  0  0  0  0  0  0  0  0  0
  137.4725   53.5273   29.8395 O   0  0  0  0  0  0  0  0  0  0  0  0
  132.9167   53.2090   32.9672 C   0  0  0  0  0  0  0  0  0  0  0  0
  131.7108   53.5871   32.3305 C   0  0  0  0  0  0  0  0  0  0  0  0
  136.3838   53.6756   30.4332 C   0  0  0  0  0  0  0  0  0  0  0  0
  2  1  1  0
  3  1  1  0
  7  2  1  0
  8  5  1  0
  8  7  2  3
  9  3  1  0
  9  4  2  0
  9  6  1  0
M  END
>  <ID>  (1) 
conformer_0

$$$$
