
     RDKit          3D

  7  6  0  0  0  0  0  0  0  0999 V2000
  132.8216   52.9375   32.8892 C   0  0  0  0  0  0  0  0  0  0  0  0
  135.8381   53.7160   31.0359 C   0  0  0  0  0  0  0  0  0  0  0  0
  135.2233   54.9997   30.0587 O   0  0  0  0  0  0  0  0  0  0  0  0
  137.1467   53.7104   30.1763 O   0  0  0  0  0  0  0  0  0  0  0  0
  134.2818   53.4313   32.6816 C   0  0  0  0  0  0  0  0  0  0  0  0
  130.7293   52.3187   32.1554 C   0  0  0  0  0  0  0  0  0  0  0  0
  130.4677   53.1515   31.9823 N   0  0  0  0  0  0  0  0  0  0  0  0
  3  2  2  0
  4  2  1  0
  5  1  2  3
  5  2  1  0
  6  1  1  0
  7  6  1  0
M  END
>  <ID>  (1) 
conformer_0

$$$$
