
     RDKit          3D

  7  6  0  0  0  0  0  0  0  0999 V2000
  133.8149   53.5039   32.9016 C   0  0  0  0  0  0  0  0  0  0  0  0
  134.9397   53.0749   32.6049 C   0  0  0  0  0  0  0  0  0  0  0  0
  136.3564   53.5011   30.8948 C   0  0  0  0  0  0  0  0  0  0  0  0
  130.6625   52.3900   32.1015 C   0  0  0  0  0  0  0  0  0  0  0  0
  136.8790   53.8422   29.7681 O   0  0  0  0  0  0  0  0  0  0  0  0
  136.0267   54.2511   31.0230 O   0  0  0  0  0  0  0  0  0  0  0  0
  132.5685   53.0833   32.8044 C   0  0  0  0  0  0  0  0  0  0  0  0
  2  1  1  0
  3  2  1  0
  5  3  1  0
  6  3  1  0
  7  1  1  0
  7  4  1  0
M  END
>  <ID>  (1) 
conformer_0

$$$$
