
     RDKit          3D

  8  7  0  0  0  0  0  0  0  0999 V2000
  132.3641   53.0245   32.8476 C   0  0  0  0  0  0  0  0  0  0  0  0
  136.2948   53.0723   31.8334 C   0  0  0  0  0  0  0  0  0  0  0  0
  133.1249   54.0635   32.6459 C   0  0  0  0  0  0  0  0  0  0  0  0
  130.5352   52.0273   32.3874 C   0  0  0  0  0  0  0  0  0  0  0  0
  135.3458   54.7881   30.4064 O   0  0  0  0  0  0  0  0  0  0  0  0
  137.4515   53.5825   29.6201 O   0  0  0  0  0  0  0  0  0  0  0  0
  134.5492   52.9995   32.9580 C   0  0  0  0  0  0  0  0  0  0  0  0
  136.3657   53.8227   30.1882 C   0  0  0  0  0  0  0  0  0  0  0  0
  3  1  1  0
  4  1  1  0
  7  2  1  0
  7  3  1  0
  8  2  1  0
  8  5  2  0
  8  6  1  0
M  END
>  <ID>  (1) 
conformer_0

$$$$
