
     RDKit          3D

  7  6  0  0  0  0  0  0  0  0999 V2000
  134.6134   53.0483   32.8245 C   0  0  0  0  0  0  0  0  0  0  0  0
  132.7334   53.1308   32.6970 C   0  0  0  0  0  0  0  0  0  0  0  0
  136.5084   52.8869   32.1576 C   0  0  0  0  0  0  0  0  0  0  0  0
  130.5621   52.7332   31.9281 C   0  0  0  0  0  0  0  0  0  0  0  0
  136.9742   53.8498   30.3074 O   0  0  0  0  0  0  0  0  0  0  0  0
  130.2471   53.2047   31.7147 N   0  0  0  0  0  0  0  0  0  0  0  0
  135.9330   54.0038   30.3125 C   0  0  0  0  0  0  0  0  0  0  0  0
  2  1  3  0
  3  1  1  0
  4  2  1  0
  6  4  1  0
  7  3  1  0
  7  5  1  0
M  END
>  <ID>  (1) 
conformer_0

$$$$
