
     RDKit          3D

 10  9  0  0  0  0  0  0  0  0999 V2000
  135.2958   53.4558   32.2390 C   0  0  0  0  0  0  0  0  0  0  0  0
  134.2205   53.1360   32.8784 C   0  0  0  0  0  0  0  0  0  0  0  0
  136.4211   53.6330   30.8656 C   0  0  0  0  0  0  0  0  0  0  0  0
  130.4883   52.1710   32.1811 C   0  0  0  0  0  0  0  0  0  0  0  0
  135.6431   54.7164   30.0234 O   0  0  0  0  0  0  0  0  0  0  0  0
  137.2728   53.5644   29.9529 O   0  0  0  0  0  0  0  0  0  0  0  0
  130.0378   53.0770   31.4976 N   0  0  0  0  0  0  0  0  0  0  0  0
  132.8247   53.8150   32.6113 C   0  0  0  0  0  0  0  0  0  0  0  0
  137.2715   53.4367   31.7387 O   0  0  0  0  0  0  0  0  0  0  0  0
  131.9345   52.6878   32.6664 C   0  0  0  0  0  0  0  0  0  0  0  0
  2  1  1  0
  3  1  1  0
  5  3  1  0
  6  3  1  0
  7  4  1  0
  8  2  1  0
  9  3  1  0
 10  4  1  0
 10  8  1  0
M  END
>  <ID>  (1) 
conformer_0

$$$$
