
     RDKit          3D

 10  9  0  0  0  0  0  0  0  0999 V2000
  132.6414   53.0871   32.8385 C   0  0  0  0  0  0  0  0  0  0  0  0
  136.3813   53.3885   31.1656 C   0  0  0  0  0  0  0  0  0  0  0  0
  133.7826   53.7477   32.9351 C   0  0  0  0  0  0  0  0  0  0  0  0
  131.5064   53.1866   32.1017 C   0  0  0  0  0  0  0  0  0  0  0  0
  136.9335   53.6956   29.9888 O   0  0  0  0  0  0  0  0  0  0  0  0
  135.0971   54.5880   30.3037 O   0  0  0  0  0  0  0  0  0  0  0  0
  130.2936   52.9103   32.2567 N   0  0  0  0  0  0  0  0  0  0  0  0
  137.1824   53.1793   31.7098 O   0  0  0  0  0  0  0  0  0  0  0  0
  129.9784   51.5663   32.2246 C   0  0  0  0  0  0  0  0  0  0  0  0
  135.1520   53.3167   32.6090 C   0  0  0  0  0  0  0  0  0  0  0  0
  3  1  1  0
  4  1  1  0
  5  2  1  0
  6  2  1  0
  7  4  1  0
  8  2  1  0
  9  7  1  0
 10  2  1  0
 10  3  1  0
M  END
>  <ID>  (1) 
conformer_0

$$$$
