
     RDKit          3D

  7  6  0  0  0  0  0  0  0  0999 V2000
  134.9068   52.9839   32.8591 C   0  0  0  0  0  0  0  0  0  0  0  0
  133.7174   53.5481   32.8229 C   0  0  0  0  0  0  0  0  0  0  0  0
  135.6837   53.7652   31.2641 C   0  0  0  0  0  0  0  0  0  0  0  0
  135.2472   55.0711   30.0204 O   0  0  0  0  0  0  0  0  0  0  0  0
  130.8234   52.2994   32.1981 C   0  0  0  0  0  0  0  0  0  0  0  0
  136.9453   53.6493   30.2042 O   0  0  0  0  0  0  0  0  0  0  0  0
  132.4490   52.8504   32.8778 C   0  0  0  0  0  0  0  0  0  0  0  0
  2  1  1  0
  3  1  1  0
  4  3  2  0
  6  3  1  0
  7  2  1  0
  7  5  1  0
M  END
>  <ID>  (1) 
conformer_0

$$$$
