
     RDKit          3D

 12 11  0  0  0  0  0  0  0  0999 V2000
  134.3888   53.2052   33.1029 C   0  0  0  0  0  0  0  0  0  0  0  0
  133.1255   53.6166   32.7365 C   0  0  0  0  0  0  0  0  0  0  0  0
  136.4798   53.1656   31.9000 C   0  0  0  0  0  0  0  0  0  0  0  0
  135.1552   55.0649   30.3128 O   0  0  0  0  0  0  0  0  0  0  0  0
  137.0020   53.7193   29.6906 O   0  0  0  0  0  0  0  0  0  0  0  0
  128.9453   51.7709   31.7135 C   0  0  0  0  0  0  0  0  0  0  0  0
  131.9822   52.9664   32.4115 C   0  0  0  0  0  0  0  0  0  0  0  0
  129.7812   53.2054   31.9201 N   0  0  0  0  0  0  0  0  0  0  0  0
  137.3928   53.1643   32.3065 N   0  0  0  0  0  0  0  0  0  0  0  0
  135.9356   54.1163   30.4328 C   0  0  0  0  0  0  0  0  0  0  0  0
  135.4447   52.5143   32.9323 C   0  0  0  0  0  0  0  0  0  0  0  0
  130.8425   52.7230   32.0269 C   0  0  0  0  0  0  0  0  0  0  0  0
  2  1  1  0
  7  2  2  0
  8  6  1  0
  9  3  1  0
 10  3  1  0
 10  4  2  0
 10  5  1  0
 11  1  1  0
 11  3  1  0
 12  7  2  0
 12  8  1  0
M  END
>  <ID>  (1) 
conformer_0

$$$$
