
     RDKit          3D

 11 10  0  0  0  0  0  0  0  0999 V2000
  133.9507   53.7784   32.9242 C   0  0  0  0  0  0  0  0  0  0  0  0
  136.0528   54.0679   29.9727 C   0  0  0  0  0  0  0  0  0  0  0  0
  132.7949   53.1499   32.9528 C   0  0  0  0  0  0  0  0  0  0  0  0
  137.0569   53.6012   29.6670 O   0  0  0  0  0  0  0  0  0  0  0  0
  136.5589   53.6435   32.2946 O   0  0  0  0  0  0  0  0  0  0  0  0
  131.5252   52.7963   32.3060 C   0  0  0  0  0  0  0  0  0  0  0  0
  135.3749   54.9464   30.2983 O   0  0  0  0  0  0  0  0  0  0  0  0
  130.9605   52.7867   31.7293 O   0  0  0  0  0  0  0  0  0  0  0  0
  136.1498   53.0914   31.9127 C   0  0  0  0  0  0  0  0  0  0  0  0
  134.9756   52.4863   33.0461 C   0  0  0  0  0  0  0  0  0  0  0  0
  129.4027   51.8660   31.9834 C   0  0  0  0  0  0  0  0  0  0  0  0
  3  1  1  0
  4  2  1  0
  6  3  1  0
  7  2  1  0
  8  6  1  0
  9  2  1  0
  9  5  1  0
 10  1  1  0
 10  9  1  0
 11  8  1  0
M  END
>  <ID>  (1) 
conformer_0

$$$$
