
     RDKit          3D

 11 10  0  0  0  0  0  0  0  0999 V2000
  131.9078   52.9077   32.7305 C   0  0  0  0  0  0  0  0  0  0  0  0
  133.0678   54.0922   32.8346 C   0  0  0  0  0  0  0  0  0  0  0  0
  136.1251   53.4743   31.6404 C   0  0  0  0  0  0  0  0  0  0  0  0
  131.2745   52.3964   32.3455 C   0  0  0  0  0  0  0  0  0  0  0  0
  135.3681   54.8243   30.5089 O   0  0  0  0  0  0  0  0  0  0  0  0
  137.3182   53.4802   29.6818 O   0  0  0  0  0  0  0  0  0  0  0  0
  129.8500   52.5997   31.8066 N   0  0  0  0  0  0  0  0  0  0  0  0
  134.0154   52.9668   33.0481 C   0  0  0  0  0  0  0  0  0  0  0  0
  136.2345   53.8580   30.0280 C   0  0  0  0  0  0  0  0  0  0  0  0
  129.5385   51.3500   32.3027 C   0  0  0  0  0  0  0  0  0  0  0  0
  135.2050   53.5711   32.4543 C   0  0  0  0  0  0  0  0  0  0  0  0
  2  1  1  0
  4  1  1  0
  7  4  1  0
  8  2  1  0
  9  3  1  0
  9  5  1  0
  9  6  1  0
 10  7  1  0
 11  3  1  0
 11  8  1  0
M  END
>  <ID>  (1) 
conformer_0

$$$$
