
     RDKit          3D

 11 11  0  0  0  0  0  0  0  0999 V2000
  133.0983   54.0249   32.6469 C   0  0  0  0  0  0  0  0  0  0  0  0
  132.0990   52.5444   32.7659 C   0  0  0  0  0  0  0  0  0  0  0  0
  136.0655   53.6585   31.0515 C   0  0  0  0  0  0  0  0  0  0  0  0
  131.2016   52.6547   32.1820 C   0  0  0  0  0  0  0  0  0  0  0  0
  135.3566   54.7755   30.1561 O   0  0  0  0  0  0  0  0  0  0  0  0
  129.9030   52.4714   32.1543 N   0  0  0  0  0  0  0  0  0  0  0  0
  136.8115   53.5551   30.6063 N   0  0  0  0  0  0  0  0  0  0  0  0
  137.7842   53.6465   30.5910 O   0  0  0  0  0  0  0  0  0  0  0  0
  133.9037   52.7643   33.2076 C   0  0  0  0  0  0  0  0  0  0  0  0
  129.6287   51.3206   32.2526 C   0  0  0  0  0  0  0  0  0  0  0  0
  135.0961   53.4999   32.6780 C   0  0  0  0  0  0  0  0  0  0  0  0
  2  1  1  0
  4  2  1  0
  5  3  2  0
  6  4  1  0
  7  3  1  0
  8  7  1  0
  9  1  1  0
  9  2  1  0
 10  6  1  0
 11  3  1  0
 11  9  1  0
M  END
>  <ID>  (1) 
conformer_0

$$$$
