
     RDKit          3D

 11 10  0  0  0  0  0  0  0  0999 V2000
  133.6478   53.4614   33.0544 C   0  0  0  0  0  0  0  0  0  0  0  0
  134.8339   53.2862   32.9238 C   0  0  0  0  0  0  0  0  0  0  0  0
  136.0969   54.1356   29.8985 C   0  0  0  0  0  0  0  0  0  0  0  0
  130.2375   52.8272   31.9371 N   0  0  0  0  0  0  0  0  0  0  0  0
  129.5719   51.4994   32.1840 C   0  0  0  0  0  0  0  0  0  0  0  0
  135.2821   55.1309   29.9372 O   0  0  0  0  0  0  0  0  0  0  0  0
  137.1384   53.7529   29.7548 O   0  0  0  0  0  0  0  0  0  0  0  0
  136.0081   53.3112   31.4169 O   0  0  0  0  0  0  0  0  0  0  0  0
  132.3667   52.7641   32.8912 C   0  0  0  0  0  0  0  0  0  0  0  0
  136.1859   53.2410   31.6827 C   0  0  0  0  0  0  0  0  0  0  0  0
  131.3541   52.5664   32.2919 C   0  0  0  0  0  0  0  0  0  0  0  0
  2  1  1  0
  5  4  1  0
  6  3  2  0
  7  3  1  0
  8  3  1  0
  9  1  1  0
 10  2  1  0
 10  8  1  0
 11  4  1  0
 11  9  1  0
M  END
>  <ID>  (1) 
conformer_0

$$$$
