
     RDKit          3D

  8  7  0  0  0  0  0  0  0  0999 V2000
  132.2881   53.2488   32.5546 C   0  0  0  0  0  0  0  0  0  0  0  0
  136.0804   53.2750   31.9702 C   0  0  0  0  0  0  0  0  0  0  0  0
  133.5204   53.1707   32.9563 C   0  0  0  0  0  0  0  0  0  0  0  0
  130.5018   52.3415   32.2002 C   0  0  0  0  0  0  0  0  0  0  0  0
  135.4393   54.7334   30.0173 O   0  0  0  0  0  0  0  0  0  0  0  0
  137.2447   53.5545   30.0145 O   0  0  0  0  0  0  0  0  0  0  0  0
  134.7424   53.3545   32.6114 C   0  0  0  0  0  0  0  0  0  0  0  0
  136.4040   53.7178   30.3263 C   0  0  0  0  0  0  0  0  0  0  0  0
  3  1  1  0
  4  1  1  0
  7  2  2  0
  7  3  2  0
  8  2  1  0
  8  5  2  0
  8  6  1  0
M  END
>  <ID>  (1) 
conformer_0

$$$$
