
     RDKit          3D

  8  7  0  0  0  0  0  0  0  0999 V2000
  135.7248   52.8641   32.4142 C   0  0  0  0  0  0  0  0  0  0  0  0
  134.4673   53.2332   33.0265 C   0  0  0  0  0  0  0  0  0  0  0  0
  136.2583   53.5185   31.1526 C   0  0  0  0  0  0  0  0  0  0  0  0
  135.1240   54.8596   30.5911 O   0  0  0  0  0  0  0  0  0  0  0  0
  137.0514   53.9529   30.0608 O   0  0  0  0  0  0  0  0  0  0  0  0
  130.3754   52.4914   31.8680 C   0  0  0  0  0  0  0  0  0  0  0  0
  133.2242   53.4743   32.9950 C   0  0  0  0  0  0  0  0  0  0  0  0
  132.0699   52.7998   32.8313 C   0  0  0  0  0  0  0  0  0  0  0  0
  2  1  1  0
  3  1  1  0
  4  3  2  0
  5  3  1  0
  7  2  1  0
  8  6  1  0
  8  7  1  0
M  END
>  <ID>  (1) 
conformer_0

$$$$
