
     RDKit          3D

 11 10  0  0  0  0  0  0  0  0999 V2000
  133.1803   53.9761   32.5859 C   0  0  0  0  0  0  0  0  0  0  0  0
  134.4720   53.6877   32.6527 C   0  0  0  0  0  0  0  0  0  0  0  0
  136.4663   53.5240   30.9907 C   0  0  0  0  0  0  0  0  0  0  0  0
  137.6643   53.4508   31.8756 O   0  0  0  0  0  0  0  0  0  0  0  0
  136.9649   53.6245   29.9119 O   0  0  0  0  0  0  0  0  0  0  0  0
  131.4190   52.9190   32.1747 C   0  0  0  0  0  0  0  0  0  0  0  0
  130.3844   53.0769   31.9437 N   0  0  0  0  0  0  0  0  0  0  0  0
  135.4489   54.6230   30.4076 O   0  0  0  0  0  0  0  0  0  0  0  0
  135.6798   53.0819   32.1171 C   0  0  0  0  0  0  0  0  0  0  0  0
  129.5903   51.9297   31.9794 C   0  0  0  0  0  0  0  0  0  0  0  0
  132.1629   52.6833   32.7894 C   0  0  0  0  0  0  0  0  0  0  0  0
  2  1  1  0
  4  3  1  0
  5  3  1  0
  7  6  1  0
  8  3  1  0
  9  2  1  0
  9  3  1  0
 10  7  1  0
 11  1  1  0
 11  6  1  0
M  END
>  <ID>  (1) 
conformer_0

$$$$
