
     RDKit          3D

  9  8  0  0  0  0  0  0  0  0999 V2000
  132.4818   52.8033   32.9301 C   0  0  0  0  0  0  0  0  0  0  0  0
  133.4982   53.7808   32.8514 C   0  0  0  0  0  0  0  0  0  0  0  0
  136.3675   53.5703   30.9133 C   0  0  0  0  0  0  0  0  0  0  0  0
  130.5501   52.5892   31.7707 O   0  0  0  0  0  0  0  0  0  0  0  0
  131.3408   52.6720   32.2950 C   0  0  0  0  0  0  0  0  0  0  0  0
  135.6064   54.7118   30.2777 O   0  0  0  0  0  0  0  0  0  0  0  0
  137.2253   53.7811   30.2142 O   0  0  0  0  0  0  0  0  0  0  0  0
  134.8397   53.3214   32.7350 C   0  0  0  0  0  0  0  0  0  0  0  0
  129.6263   51.4073   32.2962 C   0  0  0  0  0  0  0  0  0  0  0  0
  2  1  1  0
  5  1  1  0
  5  4  1  0
  6  3  2  0
  7  3  1  0
  8  2  1  0
  8  3  1  0
  9  4  1  0
M  END
>  <ID>  (1) 
conformer_0

$$$$
