
     RDKit          3D

  8  7  0  0  0  0  0  0  0  0999 V2000
  135.1091   53.2048   32.7587 C   0  0  0  0  0  0  0  0  0  0  0  0
  136.1373   53.4039   31.0540 C   0  0  0  0  0  0  0  0  0  0  0  0
  133.7053   53.4030   32.7592 C   0  0  0  0  0  0  0  0  0  0  0  0
  130.7232   52.4170   32.1835 C   0  0  0  0  0  0  0  0  0  0  0  0
  135.4023   54.8060   30.0038 O   0  0  0  0  0  0  0  0  0  0  0  0
  137.0886   53.4901   29.7825 O   0  0  0  0  0  0  0  0  0  0  0  0
  130.4156   52.6091   31.9979 N   0  0  0  0  0  0  0  0  0  0  0  0
  132.3217   53.3375   32.6285 C   0  0  0  0  0  0  0  0  0  0  0  0
  2  1  1  0
  3  1  2  0
  5  2  2  0
  6  2  1  0
  7  4  1  0
  8  3  2  0
  8  4  1  0
M  END
>  <ID>  (1) 
conformer_0

$$$$
