
     RDKit          3D

 10  9  0  0  0  0  0  0  0  0999 V2000
  133.0271   53.6022   32.9266 C   0  0  0  0  0  0  0  0  0  0  0  0
  131.9747   52.9798   32.6129 C   0  0  0  0  0  0  0  0  0  0  0  0
  136.6181   53.2902   31.6073 C   0  0  0  0  0  0  0  0  0  0  0  0
  129.9790   52.6924   31.9437 N   0  0  0  0  0  0  0  0  0  0  0  0
  137.0060   53.5850   29.4931 O   0  0  0  0  0  0  0  0  0  0  0  0
  130.3067   52.2383   31.9844 C   0  0  0  0  0  0  0  0  0  0  0  0
  135.5896   54.8552   30.2467 O   0  0  0  0  0  0  0  0  0  0  0  0
  134.4779   53.1406   33.0876 C   0  0  0  0  0  0  0  0  0  0  0  0
  135.5657   53.1875   32.4222 C   0  0  0  0  0  0  0  0  0  0  0  0
  136.2741   53.9796   30.0748 C   0  0  0  0  0  0  0  0  0  0  0  0
  2  1  1  0
  6  2  1  0
  6  4  1  0
  8  1  1  0
  9  3  1  0
  9  8  1  0
 10  3  1  0
 10  5  1  0
 10  7  2  0
M  END
>  <ID>  (1) 
conformer_0

$$$$
