
     RDKit          3D

 10 10  0  0  0  0  0  0  0  0999 V2000
  132.5751   52.9500   32.9410 C   0  0  0  0  0  0  0  0  0  0  0  0
  136.5492   53.7841   29.9300 C   0  0  0  0  0  0  0  0  0  0  0  0
  133.5902   53.6336   32.9242 C   0  0  0  0  0  0  0  0  0  0  0  0
  131.4904   52.7274   32.2880 C   0  0  0  0  0  0  0  0  0  0  0  0
  130.6949   52.7833   31.7904 O   0  0  0  0  0  0  0  0  0  0  0  0
  135.3499   54.6112   30.5368 O   0  0  0  0  0  0  0  0  0  0  0  0
  136.9219   53.8871   29.3718 O   0  0  0  0  0  0  0  0  0  0  0  0
  134.9354   53.1100   32.8757 C   0  0  0  0  0  0  0  0  0  0  0  0
  129.7167   51.7112   32.1400 C   0  0  0  0  0  0  0  0  0  0  0  0
  135.9786   53.4373   31.5267 C   0  0  0  0  0  0  0  0  0  0  0  0
  3  1  1  0
  4  1  1  0
  5  4  1  0
  6  2  1  0
  7  2  1  0
  8  3  1  0
  9  5  1  0
 10  2  1  0
 10  6  1  0
 10  8  1  0
M  END
>  <ID>  (1) 
conformer_0

$$$$
