
     RDKit          3D

  8  7  0  0  0  0  0  0  0  0999 V2000
  133.5606   53.4072   32.6256 C   0  0  0  0  0  0  0  0  0  0  0  0
  135.2394   53.1841   32.5250 C   0  0  0  0  0  0  0  0  0  0  0  0
  136.6382   53.4036   31.2635 C   0  0  0  0  0  0  0  0  0  0  0  0
  130.2627   52.1864   32.0613 C   0  0  0  0  0  0  0  0  0  0  0  0
  135.4297   54.6421   30.2756 O   0  0  0  0  0  0  0  0  0  0  0  0
  137.3516   53.5784   30.2987 O   0  0  0  0  0  0  0  0  0  0  0  0
  131.9721   53.3933   32.2508 C   0  0  0  0  0  0  0  0  0  0  0  0
  137.7639   52.9747   32.2156 O   0  0  0  0  0  0  0  0  0  0  0  0
  2  1  2  0
  3  2  1  0
  5  3  1  0
  6  3  1  0
  7  1  2  0
  7  4  1  0
  8  3  1  0
M  END
>  <ID>  (1) 
conformer_0

$$$$
