
     RDKit          3D

  7  6  0  0  0  0  0  0  0  0999 V2000
  133.7610   53.4637   32.7453 C   0  0  0  0  0  0  0  0  0  0  0  0
  132.2280   52.9049   32.2541 C   0  0  0  0  0  0  0  0  0  0  0  0
  135.8757   53.6361   31.2421 C   0  0  0  0  0  0  0  0  0  0  0  0
  134.7696   52.9538   32.9765 C   0  0  0  0  0  0  0  0  0  0  0  0
  130.1851   51.8899   32.1346 C   0  0  0  0  0  0  0  0  0  0  0  0
  135.6586   54.8870   30.5129 O   0  0  0  0  0  0  0  0  0  0  0  0
  130.8301   52.8682   31.7015 O   0  0  0  0  0  0  0  0  0  0  0  0
  2  1  1  0
  4  1  1  0
  4  3  1  0
  6  3  1  0
  7  2  1  0
  7  5  1  0
M  END
>  <ID>  (1) 
conformer_0

$$$$
