
     RDKit          3D

 11 10  0  0  0  0  0  0  0  0999 V2000
  134.8616   52.9935   33.0497 C   0  0  0  0  0  0  0  0  0  0  0  0
  135.8678   53.5158   31.8622 C   0  0  0  0  0  0  0  0  0  0  0  0
  131.2598   53.2934   31.9725 C   0  0  0  0  0  0  0  0  0  0  0  0
  135.1523   54.8496   30.4535 O   0  0  0  0  0  0  0  0  0  0  0  0
  133.9166   53.6564   32.8051 C   0  0  0  0  0  0  0  0  0  0  0  0
  137.4234   53.5402   29.6408 O   0  0  0  0  0  0  0  0  0  0  0  0
  129.9070   52.2812   32.0494 N   0  0  0  0  0  0  0  0  0  0  0  0
  130.3240   51.4771   32.3292 C   0  0  0  0  0  0  0  0  0  0  0  0
  132.5453   53.3226   32.7755 C   0  0  0  0  0  0  0  0  0  0  0  0
  136.5262   53.6180   31.6575 O   0  0  0  0  0  0  0  0  0  0  0  0
  136.4780   53.6973   30.2294 C   0  0  0  0  0  0  0  0  0  0  0  0
  2  1  1  0
  5  1  1  0
  7  3  1  0
  8  7  1  0
  9  3  1  0
  9  5  1  0
 10  2  1  0
 11  4  2  0
 11  6  1  0
 11 10  1  0
M  END
>  <ID>  (1) 
conformer_0

$$$$
