
     RDKit          3D

  7  6  0  0  0  0  0  0  0  0999 V2000
  134.2941   53.3915   32.6632 C   0  0  0  0  0  0  0  0  0  0  0  0
  136.1656   53.4619   31.3462 C   0  0  0  0  0  0  0  0  0  0  0  0
  132.8722   53.5441   32.5911 C   0  0  0  0  0  0  0  0  0  0  0  0
  130.1636   52.8608   31.6700 N   0  0  0  0  0  0  0  0  0  0  0  0
  135.1919   54.7826   30.3002 O   0  0  0  0  0  0  0  0  0  0  0  0
  137.1340   53.6814   30.1259 O   0  0  0  0  0  0  0  0  0  0  0  0
  130.6227   52.1475   32.2778 C   0  0  0  0  0  0  0  0  0  0  0  0
  2  1  1  0
  3  1  1  0
  5  2  1  0
  6  2  1  0
  7  3  1  0
  7  4  1  0
M  END
>  <ID>  (1) 
conformer_0

$$$$
