
     RDKit          3D

  8  7  0  0  0  0  0  0  0  0999 V2000
  132.9176   52.9812   32.8507 C   0  0  0  0  0  0  0  0  0  0  0  0
  131.9657   53.8194   32.2213 C   0  0  0  0  0  0  0  0  0  0  0  0
  136.4596   53.3661   31.3029 C   0  0  0  0  0  0  0  0  0  0  0  0
  130.3273   52.4931   32.0070 C   0  0  0  0  0  0  0  0  0  0  0  0
  135.7140   54.3328   30.3023 O   0  0  0  0  0  0  0  0  0  0  0  0
  137.4117   53.7222   31.2535 O   0  0  0  0  0  0  0  0  0  0  0  0
  134.1634   53.8347   32.5148 C   0  0  0  0  0  0  0  0  0  0  0  0
  135.4633   52.8357   32.5641 C   0  0  0  0  0  0  0  0  0  0  0  0
  2  1  1  0
  4  2  1  0
  5  3  2  0
  6  3  1  0
  7  1  1  0
  8  3  1  0
  8  7  1  0
M  END
>  <ID>  (1) 
conformer_0

$$$$
