
     RDKit          3D

 10  9  0  0  0  0  0  0  0  0999 V2000
  134.9890   53.4089   32.5948 C   0  0  0  0  0  0  0  0  0  0  0  0
  133.7070   53.7668   32.6418 C   0  0  0  0  0  0  0  0  0  0  0  0
  136.5000   53.6997   30.1755 C   0  0  0  0  0  0  0  0  0  0  0  0
  129.4701   51.6646   32.0789 C   0  0  0  0  0  0  0  0  0  0  0  0
  137.1343   53.3364   31.8264 O   0  0  0  0  0  0  0  0  0  0  0  0
  136.8804   53.8697   29.9340 O   0  0  0  0  0  0  0  0  0  0  0  0
  132.4337   53.2304   32.7222 C   0  0  0  0  0  0  0  0  0  0  0  0
  130.5770   52.1540   32.2079 C   0  0  0  0  0  0  0  0  0  0  0  0
  130.9892   52.9415   32.0565 C   0  0  0  0  0  0  0  0  0  0  0  0
  136.0831   53.4068   31.8861 C   0  0  0  0  0  0  0  0  0  0  0  0
  2  1  1  0
  6  3  1  0
  7  2  1  0
  8  4  1  0
  9  7  1  0
  9  8  2  3
 10  1  1  0
 10  3  1  0
 10  5  2  0
M  END
>  <ID>  (1) 
conformer_0

$$$$
