
     RDKit          3D

 12 11  0  0  0  0  0  0  0  0999 V2000
  133.1756   52.9492   32.9623 C   0  0  0  0  0  0  0  0  0  0  0  0
  131.8887   53.2783   32.4607 C   0  0  0  0  0  0  0  0  0  0  0  0
  136.5888   53.6322   30.2999 C   0  0  0  0  0  0  0  0  0  0  0  0
  131.3135   52.7117   32.2186 C   0  0  0  0  0  0  0  0  0  0  0  0
  137.4171   53.4874   31.9912 O   0  0  0  0  0  0  0  0  0  0  0  0
  136.9357   53.7868   29.6007 O   0  0  0  0  0  0  0  0  0  0  0  0
  135.5403   54.6005   30.6340 O   0  0  0  0  0  0  0  0  0  0  0  0
  135.4417   52.8880   32.6963 C   0  0  0  0  0  0  0  0  0  0  0  0
  130.3848   52.7713   31.8534 O   0  0  0  0  0  0  0  0  0  0  0  0
  129.4135   52.6496   31.4494 C   0  0  0  0  0  0  0  0  0  0  0  0
  136.3116   53.2688   32.0406 C   0  0  0  0  0  0  0  0  0  0  0  0
  134.1853   53.9575   32.5169 C   0  0  0  0  0  0  0  0  0  0  0  0
  2  1  1  0
  4  2  2  3
  6  3  1  0
  7  3  2  0
  9  4  1  0
 10  9  1  0
 11  3  1  0
 11  5  2  0
 11  8  1  0
 12  1  1  0
 12  8  1  0
M  END
>  <ID>  (1) 
conformer_0

$$$$
