
     RDKit          3D

  7  6  0  0  0  0  0  0  0  0999 V2000
  132.0692   53.1265   32.4691 C   0  0  0  0  0  0  0  0  0  0  0  0
  133.2786   53.3748   32.7645 C   0  0  0  0  0  0  0  0  0  0  0  0
  130.4754   52.6265   32.0429 C   0  0  0  0  0  0  0  0  0  0  0  0
  137.0456   53.2638   32.1012 O   0  0  0  0  0  0  0  0  0  0  0  0
  136.4081   53.4643   31.0760 C   0  0  0  0  0  0  0  0  0  0  0  0
  136.4548   53.7359   30.4502 N   0  0  0  0  0  0  0  0  0  0  0  0
  134.7098   52.9115   32.9249 C   0  0  0  0  0  0  0  0  0  0  0  0
  2  1  1  0
  3  1  1  0
  5  4  2  0
  6  5  1  0
  7  2  1  0
  7  5  1  0
M  END
>  <ID>  (1) 
conformer_0

$$$$
