
     RDKit          3D

  9  8  0  0  0  0  0  0  0  0999 V2000
  135.5917   52.5620   32.8051 C   0  0  0  0  0  0  0  0  0  0  0  0
  134.4662   53.8177   32.3737 C   0  0  0  0  0  0  0  0  0  0  0  0
  135.9977   54.0064   30.3080 C   0  0  0  0  0  0  0  0  0  0  0  0
  130.7965   52.4907   32.1718 C   0  0  0  0  0  0  0  0  0  0  0  0
  136.9517   53.3624   29.7918 O   0  0  0  0  0  0  0  0  0  0  0  0
  135.4323   54.8525   30.3247 O   0  0  0  0  0  0  0  0  0  0  0  0
  133.4120   52.9332   32.9808 C   0  0  0  0  0  0  0  0  0  0  0  0
  132.0871   53.4538   32.4923 C   0  0  0  0  0  0  0  0  0  0  0  0
  136.2748   53.0171   31.8906 C   0  0  0  0  0  0  0  0  0  0  0  0
  2  1  1  0
  5  3  1  0
  6  3  2  0
  7  2  1  0
  8  4  1  0
  8  7  1  0
  9  1  1  0
  9  3  1  0
M  END
>  <ID>  (1) 
conformer_0

$$$$
