
     RDKit          3D

 10  9  0  0  0  0  0  0  0  0999 V2000
  132.5080   52.8351   32.9073 C   0  0  0  0  0  0  0  0  0  0  0  0
  133.4209   53.6344   32.9668 C   0  0  0  0  0  0  0  0  0  0  0  0
  135.1614   54.6689   30.8825 O   0  0  0  0  0  0  0  0  0  0  0  0
  136.7189   53.4934   30.4867 C   0  0  0  0  0  0  0  0  0  0  0  0
  137.1171   53.4755   29.6667 O   0  0  0  0  0  0  0  0  0  0  0  0
  131.4576   53.0380   32.2277 C   0  0  0  0  0  0  0  0  0  0  0  0
  130.5549   52.5590   32.2420 N   0  0  0  0  0  0  0  0  0  0  0  0
  134.9422   53.2535   32.7387 C   0  0  0  0  0  0  0  0  0  0  0  0
  129.8831   51.7053   32.1733 C   0  0  0  0  0  0  0  0  0  0  0  0
  135.2930   53.8058   31.8844 C   0  0  2  0  0  0  0  0  0  0  0  0
  2  1  1  0
  5  4  1  0
  6  1  2  3
  7  6  1  0
  8  2  1  0
  9  7  1  0
 10  3  1  6
 10  4  1  0
 10  8  1  0
M  END
>  <ID>  (1) 
conformer_0

$$$$
