
     RDKit          3D

 10  9  0  0  0  0  0  0  0  0999 V2000
  134.7885   53.3013   32.7808 C   0  0  0  0  0  0  0  0  0  0  0  0
  133.4793   53.3299   33.0392 C   0  0  0  0  0  0  0  0  0  0  0  0
  136.3887   53.8280   30.3263 C   0  0  0  0  0  0  0  0  0  0  0  0
  129.9796   52.4846   31.8407 C   0  0  0  0  0  0  0  0  0  0  0  0
  135.5462   54.7730   30.2056 O   0  0  0  0  0  0  0  0  0  0  0  0
  137.3985   53.7073   30.0087 O   0  0  0  0  0  0  0  0  0  0  0  0
  132.0812   53.1524   32.7199 C   0  0  0  0  0  0  0  0  0  0  0  0
  137.0082   53.0053   32.1095 O   0  0  0  0  0  0  0  0  0  0  0  0
  130.4251   52.1993   31.7989 O   0  0  0  0  0  0  0  0  0  0  0  0
  136.2947   53.2589   31.9469 C   0  0  0  0  0  0  0  0  0  0  0  0
  2  1  2  0
  5  3  2  0
  6  3  1  0
  7  2  1  0
  9  4  1  0
  9  7  1  0
 10  1  2  0
 10  3  1  0
 10  8  1  0
M  END
>  <ID>  (1) 
conformer_0

$$$$
