
     RDKit          3D

 14 14  0  0  0  0  0  0  0  0999 V2000
   22.9224  -51.0267   52.2279 C   0  0  0  0  0  0  0  0  0  0  0  0
   21.1029  -52.6077   52.4170 C   0  0  0  0  0  0  0  0  0  0  0  0
   23.3822  -53.2301   53.0237 C   0  0  0  0  0  0  0  0  0  0  0  0
   19.9607  -50.6388   51.5546 C   0  0  0  0  0  0  0  0  0  0  0  0
   22.4139  -52.2771   52.5208 C   0  0  0  0  0  0  0  0  0  0  0  0
   20.0340  -51.9349   52.0092 C   0  0  0  0  0  0  0  0  0  0  0  0
   18.6649  -50.1441   51.1590 N   0  0  0  0  0  0  0  0  0  0  0  0
   25.1931  -54.6310   52.4693 F   0  0  0  0  0  0  0  0  0  0  0  0
   23.2040  -55.4543   52.7234 F   0  0  0  0  0  0  0  0  0  0  0  0
   23.7050  -54.1923   50.9183 F   0  0  0  0  0  0  0  0  0  0  0  0
   23.8191  -53.1501   54.1653 F   0  0  0  0  0  0  0  0  0  0  0  0
   23.8729  -54.4431   52.2196 C   0  0  0  0  0  0  0  0  0  0  0  0
   22.2704  -49.9637   51.7515 C   0  0  0  0  0  0  0  0  0  0  0  0
   20.9887  -49.7733   51.4513 C   0  0  0  0  0  0  0  0  0  0  0  0
  1  5  2  0
  1 13  1  0
  2  5  1  0
  2  6  2  0
  3  5  1  0
  3 11  1  0
  3 12  1  0
  4  6  1  0
  4  7  1  0
  4 14  1  0
  8 12  1  0
  9 12  1  0
 10 12  1  0
 13 14  2  0
M  END
>  <ID>  (1) 
conformer_0

$$$$
