
     RDKit          3D

 27 29  0  0  0  0  0  0  0  0999 V2000
   20.5464  -52.9408   52.5516 C   0  0  0  0  0  0  0  0  0  0  0  0
   23.7533  -49.1552   49.9202 C   0  0  0  0  0  0  0  0  0  0  0  0
   21.2642  -50.6203   52.2038 C   0  0  0  0  0  0  0  0  0  0  0  0
   23.4282  -45.6912   54.9728 O   0  0  0  0  0  0  0  0  0  0  0  0
   22.6131  -51.6571   50.3211 C   0  0  0  0  0  0  0  0  0  0  0  0
   23.0755  -55.3535   52.4261 C   0  0  0  0  0  0  0  0  0  0  0  0
   23.9261  -50.1399   48.9567 C   0  0  0  0  0  0  0  0  0  0  0  0
   23.4834  -46.8037   54.3670 C   0  0  0  0  0  0  0  0  0  0  0  0
   24.1257  -55.8593   53.1838 C   0  0  0  0  0  0  0  0  0  0  0  0
   18.8974  -51.4171   51.8008 C   0  0  0  0  0  0  0  0  0  0  0  0
   24.5984  -49.8671   47.8741 O   0  0  0  0  0  0  0  0  0  0  0  0
   18.6229  -49.9601   51.3637 C   0  0  0  0  0  0  0  0  0  0  0  0
   21.2246  -49.6336   53.1235 C   0  0  0  0  0  0  0  0  0  0  0  0
   22.6771  -54.0436   52.5794 C   0  0  0  0  0  0  0  0  0  0  0  0
   21.5650  -53.5984   51.7615 C   0  0  0  0  0  0  0  0  0  0  0  0
   24.5801  -47.4041   54.1153 O   0  0  0  0  0  0  0  0  0  0  0  0
   23.3975  -51.4550   49.1924 C   0  0  0  0  0  0  0  0  0  0  0  0
   22.2978  -50.6133   51.1956 C   0  0  0  0  0  0  0  0  0  0  0  0
   20.2686  -51.6147   52.2173 N   0  0  0  0  0  0  0  0  0  0  0  0
   23.3525  -53.2140   53.4607 C   0  0  0  0  0  0  0  0  0  0  0  0
   24.4085  -53.6854   54.1976 C   0  0  0  0  0  0  0  0  0  0  0  0
   22.1287  -48.6139   53.1127 C   0  0  0  0  0  0  0  0  0  0  0  0
   22.1144  -47.4468   54.0883 C   0  0  0  0  0  0  0  0  0  0  0  0
   23.0504  -48.5839   52.1010 N   0  0  0  0  0  0  0  0  0  0  0  0
   24.7783  -55.0294   54.0628 C   0  0  0  0  0  0  0  0  0  0  0  0
   23.0635  -49.4503   51.0848 C   0  0  0  0  0  0  0  0  0  0  0  0
   19.9049  -53.4636   53.4127 O   0  0  0  0  0  0  0  0  0  0  0  0
  1 15  1  0
  1 19  1  0
  1 27  2  0
  2  7  2  0
  2 26  1  0
  3 13  2  0
  3 18  1  0
  3 19  1  0
  4  8  2  0
  5 17  2  0
  5 18  1  0
  6  9  2  0
  6 14  1  0
  7 11  1  0
  7 17  1  0
  8 16  1  0
  8 23  1  0
  9 25  1  0
 10 12  1  0
 10 19  1  0
 13 22  1  0
 14 15  1  0
 14 20  2  0
 18 26  1  0
 20 21  1  0
 21 25  2  0
 22 23  1  0
 22 24  1  0
 24 26  2  0
M  END
>  <ID>  (1) 
conformer_0

$$$$
