
     RDKit          3D

 33 37  0  0  0  0  0  0  0  0999 V2000
   22.4612  -50.2160   50.8852 O   0  0  0  0  0  0  0  0  0  0  0  0
   23.8306  -49.5370   53.0706 C   0  0  0  0  0  0  0  0  0  0  0  0
   24.9633  -49.5442   53.8421 C   0  0  0  0  0  0  0  0  0  0  0  0
   21.6629  -56.4055   52.9115 C   0  0  0  0  0  0  0  0  0  0  0  0
   21.5560  -52.5709   51.3095 C   0  0  0  0  0  0  0  0  0  0  0  0
   24.2198  -54.6496   52.3658 C   0  0  0  0  0  0  0  0  0  0  0  0
   24.0824  -57.1629   53.2214 C   0  0  0  0  0  0  0  0  0  0  0  0
   23.3561  -58.3695   53.0373 C   0  0  0  0  0  0  0  0  0  0  0  0
   25.6522  -53.3570   55.4447 C   0  0  0  0  0  0  0  0  0  0  0  0
   26.0700  -52.3605   57.3963 F   0  0  0  0  0  0  0  0  0  0  0  0
   22.9975  -48.4985   52.9017 C   0  0  0  0  0  0  0  0  0  0  0  0
   25.4716  -50.8131   54.3430 C   0  0  0  0  0  0  0  0  0  0  0  0
   21.3917  -54.9604   52.6005 C   0  0  0  0  0  0  0  0  0  0  0  0
   21.7513  -48.6989   52.3481 N   0  0  0  0  0  0  0  0  0  0  0  0
   24.6738  -47.1328   54.0355 C   0  0  0  0  0  0  0  0  0  0  0  0
   21.4772  -49.8714   51.6774 C   0  0  0  0  0  0  0  0  0  0  0  0
   25.3104  -53.1850   54.1276 C   0  0  0  0  0  0  0  0  0  0  0  0
   25.9127  -50.9844   55.6373 C   0  0  0  0  0  0  0  0  0  0  0  0
   22.6222  -53.2980   51.4257 C   0  0  0  0  0  0  0  0  0  0  0  0
   22.7307  -54.4359   52.2573 C   0  0  0  0  0  0  0  0  0  0  0  0
   22.2427  -58.4920   53.9171 N   0  0  0  0  0  0  0  0  0  0  0  0
   24.9660  -54.2888   53.4012 N   0  0  0  0  0  0  0  0  0  0  0  0
   21.3693  -57.3434   53.9651 C   0  0  0  0  0  0  0  0  0  0  0  0
   23.0457  -56.5452   52.5543 C   0  0  0  0  0  0  0  0  0  0  0  0
   20.0783  -50.4217   51.6063 C   0  0  0  0  0  0  0  0  0  0  0  0
   25.8895  -52.2346   56.1765 C   0  0  0  0  0  0  0  0  0  0  0  0
   23.4155  -47.2203   53.3475 C   0  0  0  0  0  0  0  0  0  0  0  0
   20.2954  -54.1688   52.3836 C   0  0  0  0  0  0  0  0  0  0  0  0
   25.3289  -51.9494   53.5702 N   0  0  0  0  0  0  0  0  0  0  0  0
   19.1747  -49.6065   51.1382 O   0  0  0  0  0  0  0  0  0  0  0  0
   20.3658  -52.8415   51.9376 C   0  0  0  0  0  0  0  0  0  0  0  0
   19.6299  -51.6764   51.8939 N   0  0  0  0  0  0  0  0  0  0  0  0
   25.4181  -48.2819   54.2540 C   0  0  0  0  0  0  0  0  0  0  0  0
  1 16  2  0
  2  3  2  0
  2 11  1  0
  3 12  1  0
  3 33  1  0
  4 13  1  0
  4 23  1  0
  4 24  1  0
  5 19  2  0
  5 31  1  0
  6 20  1  0
  6 22  1  0
  7  8  1  0
  7 24  1  0
  8 21  1  0
  9 17  1  0
  9 26  1  0
 10 26  1  0
 11 14  1  0
 11 27  2  0
 12 18  1  0
 12 29  1  0
 13 20  1  0
 13 28  2  0
 14 16  1  0
 15 27  1  0
 15 33  2  0
 16 25  1  0
 17 22  1  0
 17 29  2  0
 18 26  2  0
 19 20  1  0
 21 23  1  0
 25 30  2  0
 25 32  1  0
 28 31  1  0
 31 32  1  0
M  END
>  <ID>  (1) 
conformer_0

$$$$
