
     RDKit          3D

 11 11  0  0  0  0  0  0  0  0999 V2000
   19.7878  -49.2307   51.3116 C   0  0  0  0  0  0  0  0  0  0  0  0
   20.9940  -48.5689   51.3341 C   0  0  0  0  0  0  0  0  0  0  0  0
   23.6832  -52.6082   52.8790 O   0  0  0  0  0  0  0  0  0  0  0  0
   22.5241  -50.4130   51.8817 C   0  0  0  0  0  0  0  0  0  0  0  0
   22.4646  -52.7430   52.4927 C   0  0  0  0  0  0  0  0  0  0  0  0
   19.7058  -52.7836   51.9118 N   0  0  0  0  0  0  0  0  0  0  0  0
   21.7685  -51.5404   52.0556 C   0  0  0  0  0  0  0  0  0  0  0  0
   22.2070  -49.1364   51.5813 C   0  0  0  0  0  0  0  0  0  0  0  0
   20.3576  -51.5822   51.8257 C   0  0  0  0  0  0  0  0  0  0  0  0
   21.9829  -53.9142   52.5099 O   0  0  0  0  0  0  0  0  0  0  0  0
   19.5617  -50.5224   51.5352 C   0  0  0  0  0  0  0  0  0  0  0  0
  1  2  1  0
  1 11  2  0
  2  8  1  0
  3  5  2  0
  4  7  1  0
  4  8  2  0
  5  7  1  0
  5 10  1  0
  6  9  1  0
  7  9  2  0
  9 11  1  0
M  END
>  <ID>  (1) 
conformer_0

$$$$
