
     RDKit          3D

 31 32  0  0  0  0  0  0  0  0999 V2000
   24.2529  -56.5973   52.7090 C   0  0  0  0  0  0  0  0  0  0  0  0
   19.5729  -53.4289   53.6371 O   0  0  0  0  0  0  0  0  0  0  0  0
   24.3587  -57.9768   52.2364 C   0  0  0  0  0  0  0  0  0  0  0  0
   20.3442  -54.2067   53.1006 C   0  0  0  0  0  0  0  0  0  0  0  0
   24.3607  -53.0312   54.3972 C   0  0  0  0  0  0  0  0  0  0  0  0
   24.7203  -49.6075   53.6644 C   0  0  0  0  0  0  0  0  0  0  0  0
   23.8203  -54.1723   53.5744 C   0  0  0  0  0  0  0  0  0  0  0  0
   21.5979  -53.6723   52.4044 C   0  0  0  0  0  0  0  0  0  0  0  0
   26.2366  -48.1264   46.3005 C   0  0  0  0  0  0  0  0  0  0  0  0
   22.7236  -54.5735   52.6237 C   0  0  0  0  0  0  0  0  0  0  0  0
   25.6603  -56.0226   52.8527 C   0  0  0  0  0  0  0  0  0  0  0  0
   23.7683  -51.7706   53.9591 O   0  0  0  0  0  0  0  0  0  0  0  0
   23.7681  -49.4109   49.6469 C   0  0  0  0  0  0  0  0  0  0  0  0
   25.6559  -52.4000   56.5557 C   0  0  0  0  0  3  0  0  0  0  0  0
   21.6802  -52.3182   52.3215 N   0  0  0  0  0  0  0  0  0  0  0  0
   23.2523  -50.2087   51.8138 C   0  0  0  0  0  0  0  0  0  0  0  0
   24.3206  -49.1504   47.2777 C   0  0  0  0  0  0  0  0  0  0  0  0
   18.9798  -49.8935   51.5582 C   0  0  0  0  0  0  0  0  0  0  0  0
   21.7581  -50.0059   51.8737 C   0  0  0  0  0  0  0  0  0  0  0  0
   22.8974  -55.9921   52.4579 N   0  0  0  0  0  0  0  0  0  0  0  0
   25.7091  -51.2935   55.6261 N   0  0  0  0  0  0  0  0  0  0  0  0
   21.0040  -51.1621   52.0010 C   0  0  0  0  0  0  0  0  0  0  0  0
   21.0929  -48.7958   51.7970 C   0  0  0  0  0  0  0  0  0  0  0  0
   24.8281  -49.0210   48.7170 C   0  0  0  0  0  0  0  0  0  0  0  0
   19.6458  -51.0883   51.7743 C   0  0  0  0  0  0  0  0  0  0  0  0
   24.2438  -50.4275   50.6777 C   0  0  0  0  0  0  0  0  0  0  0  0
   25.4049  -50.0772   54.9588 C   0  0  0  0  0  0  0  0  0  0  0  0
   25.3289  -49.3018   46.3951 O   0  0  0  0  0  0  0  0  0  0  0  0
   19.7184  -48.7216   51.6359 C   0  0  0  0  0  0  0  0  0  0  0  0
   20.1905  -55.4357   53.1904 O   0  0  0  0  0  0  0  0  0  0  0  0
   23.8339  -50.6981   53.0542 C   0  0  0  0  0  0  0  0  0  0  0  0
  1  3  1  0
  1 11  1  0
  1 20  2  3
  2  4  2  0
  4  8  1  0
  4 30  1  0
  5  7  1  0
  5 12  1  0
  6 27  1  0
  6 31  1  0
  7 10  2  0
  8 10  1  0
  8 15  1  0
  9 28  1  0
 10 20  1  0
 12 31  1  0
 13 24  1  0
 13 26  1  0
 14 21  2  0
 15 22  2  0
 16 19  1  0
 16 26  1  0
 16 31  1  0
 17 24  1  0
 17 28  1  0
 18 25  2  0
 18 29  1  0
 19 22  1  0
 19 23  1  0
 21 27  1  0
 22 25  1  0
 23 29  2  0
M  END
>  <ID>  (1) 
conformer_0

$$$$
