
     RDKit          3D

 25 29  0  0  0  0  0  0  0  0999 V2000
   20.7590  -48.9462   51.4681 C   0  0  0  0  0  0  0  0  0  0  0  0
   19.4619  -54.3846   52.7907 C   0  0  0  0  0  0  0  0  0  0  0  0
   23.2721  -57.1053   53.7627 C   0  0  0  0  0  0  0  0  0  0  0  0
   23.0600  -52.9417   51.2214 C   0  0  0  0  0  0  0  0  0  0  0  0
   21.5032  -55.5771   53.2254 N   0  0  0  0  0  0  0  0  0  0  0  0
   21.4581  -59.1029   54.2049 C   0  0  0  0  0  0  0  0  0  0  0  0
   22.0441  -53.3477   52.0307 N   0  0  0  0  0  0  0  0  0  0  0  0
   23.7419  -58.3622   54.1170 C   0  0  0  0  0  0  0  0  0  0  0  0
   21.0147  -57.8129   53.8658 C   0  0  0  0  0  0  0  0  0  0  0  0
   22.8255  -59.3559   54.3252 C   0  0  0  0  0  0  0  0  0  0  0  0
   22.3288  -54.6389   52.6483 C   0  0  0  0  0  0  0  0  0  0  0  0
   20.9897  -51.2221   51.7681 C   0  0  0  0  0  0  0  0  0  0  0  0
   20.0675  -55.4075   53.5508 C   0  0  0  0  0  0  0  0  0  0  0  0
   20.9550  -52.5197   52.2521 C   0  0  0  0  0  0  0  0  0  0  0  0
   24.1581  -50.8196   50.2233 F   0  0  0  0  0  0  0  0  0  0  0  0
   18.6618  -50.1584   51.8796 C   0  0  0  0  0  0  0  0  0  0  0  0
   23.0011  -52.1442   49.1555 F   0  0  0  0  0  0  0  0  0  0  0  0
   21.9303  -56.8385   53.6042 C   0  0  0  0  0  0  0  0  0  0  0  0
   20.0829  -50.1575   51.8112 C   0  0  0  0  0  0  0  0  0  0  0  0
   24.2290  -56.0592   53.5249 C   0  0  0  0  0  0  0  0  0  0  0  0
   22.0762  -49.3694   51.0267 C   0  0  0  0  0  0  0  0  0  0  0  0
   19.7460  -53.0180   52.9563 C   0  0  0  0  0  0  0  0  0  0  0  0
   22.1292  -50.7612   51.0690 C   0  0  0  0  0  0  0  0  0  0  0  0
   23.7533  -55.0005   52.6941 N   0  0  0  0  0  0  0  0  0  0  0  0
   23.0503  -51.6475   50.4744 C   0  0  0  0  0  0  0  0  0  0  0  0
  1 19  1  0
  1 21  1  0
  2 13  1  0
  2 22  1  0
  3  8  1  0
  3 18  1  0
  3 20  1  0
  4  7  1  0
  4 25  1  0
  5 11  1  0
  5 13  1  0
  5 18  1  0
  6  9  1  0
  6 10  1  0
  7 11  1  0
  7 14  1  0
  8 10  2  0
  9 18  2  0
 11 24  2  0
 12 14  2  0
 12 19  1  0
 12 23  1  0
 14 22  1  0
 15 25  1  0
 16 19  1  0
 17 25  1  0
 20 24  1  0
 21 23  1  0
 23 25  1  0
M  END
>  <ID>  (1) 
conformer_0

$$$$
