
     RDKit          3D

 23 27  0  0  0  0  0  0  0  0999 V2000
   21.3766  -52.8782   52.1295 O   0  0  0  0  0  0  0  0  0  0  0  0
   24.4266  -51.2259   53.4459 C   0  0  0  0  0  0  0  0  0  0  0  0
   25.2331  -52.2835   53.7823 C   0  0  0  0  0  0  0  0  0  0  0  0
   20.4269  -49.2476   51.7746 C   0  0  0  0  0  0  0  0  0  0  0  0
   22.5459  -57.3759   53.2415 N   0  0  0  0  0  0  0  0  0  0  0  0
   24.5711  -49.8121   53.5596 C   0  0  0  0  0  0  0  0  0  0  0  0
   22.2334  -55.9367   53.3088 O   0  0  0  0  0  0  0  0  0  0  0  0
   23.1505  -51.4984   52.8802 C   0  0  0  0  0  0  0  0  0  0  0  0
   18.5688  -50.6087   51.2481 C   0  0  0  0  0  0  0  0  0  0  0  0
   19.1502  -49.3573   51.3326 C   0  0  0  0  0  0  0  0  0  0  0  0
   23.3358  -49.1820   53.0472 C   0  0  0  0  0  0  0  0  0  0  0  0
   23.3083  -55.2709   52.8194 C   0  0  0  0  0  0  0  0  0  0  0  0
   22.4580  -50.2790   52.6210 C   0  0  0  0  0  0  0  0  0  0  0  0
   23.5559  -53.8628   52.9619 C   0  0  0  0  0  0  0  0  0  0  0  0
   24.4756  -58.8361   52.4571 C   0  0  0  0  0  0  0  0  0  0  0  0
   24.2284  -56.2429   52.3497 N   0  0  0  0  0  0  0  0  0  0  0  0
   23.7548  -57.5041   52.6803 C   0  0  0  0  0  0  0  0  0  0  0  0
   24.7930  -53.5471   53.5216 C   0  0  0  0  0  0  0  0  0  0  0  0
   19.2872  -51.7921   51.5500 C   0  0  0  0  0  0  0  0  0  0  0  0
   21.1674  -50.3857   52.1031 C   0  0  0  0  0  0  0  0  0  0  0  0
   20.6399  -51.6956   51.9351 C   0  0  0  0  0  0  0  0  0  0  0  0
   25.5438  -49.2321   54.0117 O   0  0  0  0  0  0  0  0  0  0  0  0
   22.6771  -52.7724   52.6423 C   0  0  0  0  0  0  0  0  0  0  0  0
  1 21  1  0
  1 23  1  0
  2  3  2  0
  2  6  1  0
  2  8  1  0
  3 18  1  0
  4 10  2  0
  4 20  1  0
  5  7  1  0
  5 17  2  0
  6 11  1  0
  6 22  2  0
  7 12  1  0
  8 13  1  0
  8 23  2  0
  9 10  1  0
  9 19  2  0
 11 13  1  0
 12 14  1  0
 12 16  1  0
 13 20  2  0
 14 18  2  0
 14 23  1  0
 15 17  1  0
 16 17  1  0
 19 21  1  0
 20 21  1  0
M  END
>  <ID>  (1) 
conformer_0

$$$$
