
     RDKit          3D

 19 20  0  0  0  0  0  0  0  0999 V2000
   18.2222  -49.2696   51.5127 C   0  0  0  0  0  0  0  0  0  0  0  0
   21.9719  -49.8460   51.9485 C   0  0  0  0  0  0  0  0  0  0  0  0
   21.2135  -56.0052   53.2225 C   0  0  0  0  0  0  0  0  0  0  0  0
   19.8010  -54.1038   53.0700 C   0  0  0  0  0  0  0  0  0  0  0  0
   21.8031  -51.2883   52.0777 C   0  0  0  0  0  0  0  0  0  0  0  0
   22.8154  -49.5157   50.8947 O   0  0  0  0  0  0  0  0  0  0  0  0
   23.1128  -53.1659   51.7269 O   0  0  0  0  0  0  0  0  0  0  0  0
   22.7335  -49.3925   53.1070 O   0  0  0  0  0  0  0  0  0  0  0  0
   19.4884  -49.9669   51.7689 C   0  0  0  0  0  0  0  0  0  0  0  0
   22.2882  -55.2393   52.6802 C   0  0  0  0  0  0  0  0  0  0  0  0
   24.0849  -49.8756   53.2548 C   0  0  0  0  0  0  0  0  0  0  0  0
   19.4755  -51.3113   52.0201 C   0  0  0  0  0  0  0  0  0  0  0  0
   20.8331  -53.3599   52.5410 C   0  0  0  0  0  0  0  0  0  0  0  0
   25.1127  -50.6218   54.0310 C   0  0  0  0  0  0  0  0  0  0  0  0
   19.9569  -55.4233   53.4198 C   0  0  0  0  0  0  0  0  0  0  0  0
   20.5984  -49.2281   51.7675 C   0  0  0  0  0  0  0  0  0  0  0  0
   20.7023  -51.9648   52.2063 C   0  0  0  0  0  0  0  0  0  0  0  0
   23.1005  -53.0730   50.2657 C   0  0  0  0  0  0  0  0  0  0  0  0
   22.1007  -53.9138   52.3106 C   0  0  0  0  0  0  0  0  0  0  0  0
  1  9  1  0
  2  5  1  0
  2  6  1  0
  2  8  1  0
  2 16  1  0
  3 10  2  0
  3 15  1  0
  4 13  1  0
  4 15  2  0
  5 17  2  0
  7 18  1  0
  7 19  1  0
  8 11  1  0
  9 12  1  0
  9 16  2  0
 10 19  1  0
 11 14  1  0
 12 17  1  0
 13 17  1  0
 13 19  2  0
M  END
>  <ID>  (1) 
conformer_0

$$$$
