
     RDKit          3D

 19 22  0  0  0  0  0  0  0  0999 V2000
   24.0716  -58.5308   52.4222 N   0  0  0  0  0  0  0  0  0  0  0  0
   22.9236  -49.1806   51.7562 C   0  0  0  0  0  0  0  0  0  0  0  0
   23.6296  -57.3575   52.9224 C   0  0  0  0  0  0  0  0  0  0  0  0
   21.0967  -54.8894   52.7460 C   0  0  0  0  0  0  0  0  0  0  0  0
   18.9773  -50.5585   51.5862 C   0  0  0  0  0  0  0  0  0  0  0  0
   22.5039  -52.9171   52.5501 C   0  0  0  0  0  0  0  0  0  0  0  0
   22.2905  -57.0017   53.0134 N   0  0  0  0  0  0  0  0  0  0  0  0
   23.4623  -55.0909   52.9587 C   0  0  0  0  0  0  0  0  0  0  0  0
   21.2756  -53.5664   52.5473 C   0  0  0  0  0  0  0  0  0  0  0  0
   22.6037  -51.5166   52.2530 C   0  0  0  0  0  0  0  0  0  0  0  0
   21.5454  -49.5260   51.6881 C   0  0  0  0  0  0  0  0  0  0  0  0
   19.2131  -49.2127   51.3444 C   0  0  0  0  0  0  0  0  0  0  0  0
   20.4707  -48.6942   51.4000 C   0  0  0  0  0  0  0  0  0  0  0  0
   23.6152  -53.6728   52.8177 C   0  0  0  0  0  0  0  0  0  0  0  0
   22.2469  -55.6267   52.9273 C   0  0  0  0  0  0  0  0  0  0  0  0
   20.0619  -51.3633   51.8954 C   0  0  0  0  0  0  0  0  0  0  0  0
   23.6124  -50.6061   52.2221 O   0  0  0  0  0  0  0  0  0  0  0  0
   21.3386  -50.8623   51.9500 C   0  0  0  0  0  0  0  0  0  0  0  0
   24.3977  -56.1889   53.0418 N   0  0  0  0  0  0  0  0  0  0  0  0
  1  3  2  0
  2 11  1  0
  2 17  1  0
  3  7  1  0
  3 19  1  0
  4  9  2  0
  4 15  1  0
  5 12  1  0
  5 16  1  0
  6  9  1  0
  6 10  2  3
  6 14  1  0
  7 15  1  0
  8 14  1  0
  8 15  2  0
  8 19  1  0
 10 17  1  0
 10 18  1  0
 11 13  1  0
 11 18  1  0
 12 13  2  0
 16 18  2  0
M  END
>  <ID>  (1) 
conformer_0

$$$$
