
     RDKit          3D

 29 33  0  0  0  0  0  0  0  0999 V2000
   18.7112  -47.9810   51.8840 C   0  0  0  0  0  0  0  0  0  0  0  0
   25.0909  -49.4518   53.8830 C   0  0  0  0  0  0  0  0  0  0  0  0
   20.8898  -49.6868   52.3346 C   0  0  0  0  0  0  0  0  0  0  0  0
   22.1560  -58.2257   53.9736 C   0  0  0  0  0  0  0  0  0  0  0  0
   21.9729  -47.7853   53.3867 N   0  0  0  0  0  0  0  0  0  0  0  0
   21.9814  -55.9910   53.1682 C   0  0  0  0  0  0  0  0  0  0  0  0
   21.8617  -50.7346   52.3739 N   0  0  0  0  0  0  0  0  0  0  0  0
   22.7844  -57.0583   53.4219 C   0  0  0  0  0  0  0  0  0  0  0  0
   19.8112  -51.5725   51.4714 C   0  0  0  0  0  0  0  0  0  0  0  0
   22.8993  -59.0845   54.4528 O   0  0  0  0  0  0  0  0  0  0  0  0
   24.9780  -56.0573   52.8021 C   0  0  0  0  0  0  0  0  0  0  0  0
   24.0231  -47.0448   53.0239 O   0  0  0  0  0  0  0  0  0  0  0  0
   23.4779  -54.1230   52.7392 C   0  0  0  0  0  0  0  0  0  0  0  0
   24.1536  -57.0544   53.1544 C   0  0  0  0  0  0  0  0  0  0  0  0
   19.8497  -47.5136   52.5121 C   0  0  0  0  0  0  0  0  0  0  0  0
   23.3837  -52.8260   52.6479 O   0  0  0  0  0  0  0  0  0  0  0  0
   23.9587  -51.7462   53.0976 C   0  0  0  0  0  0  0  0  0  0  0  0
   25.7234  -50.6366   54.0771 C   0  0  0  0  0  0  0  0  0  0  0  0
   25.1560  -51.8028   53.6910 N   0  0  0  0  0  0  0  0  0  0  0  0
   22.2857  -54.7726   52.8650 C   0  0  0  0  0  0  0  0  0  0  0  0
   20.9469  -48.3465   52.7441 C   0  0  0  0  0  0  0  0  0  0  0  0
   23.8355  -49.3675   53.3195 C   0  0  0  0  0  0  0  0  0  0  0  0
   23.2012  -50.5569   52.9117 C   0  0  0  0  0  0  0  0  0  0  0  0
   21.2138  -51.9325   51.7730 C   0  0  0  0  0  0  0  0  0  0  0  0
   24.6985  -54.7558   52.6618 C   0  0  0  0  0  0  0  0  0  0  0  0
   23.2901  -48.0233   53.2142 C   0  0  0  0  0  0  0  0  0  0  0  0
   19.7332  -50.1453   51.7638 C   0  0  0  0  0  0  0  0  0  0  0  0
   20.8944  -58.1661   54.1949 O   0  0  0  0  0  0  0  0  0  0  0  0
   18.6481  -49.2962   51.5131 C   0  0  0  0  0  0  0  0  0  0  0  0
  1 15  2  0
  1 29  1  0
  2 18  1  0
  2 22  2  0
  3  7  1  0
  3 21  2  0
  3 27  1  0
  4  8  1  0
  4 10  2  0
  4 28  1  0
  5 21  1  0
  5 26  1  0
  6  8  1  0
  6 20  2  0
  7 23  1  0
  7 24  1  0
  8 14  1  0
  9 24  1  0
  9 27  1  0
 11 14  2  0
 11 25  1  0
 12 26  2  0
 13 16  1  0
 13 20  1  0
 13 25  2  0
 15 21  1  0
 16 17  1  0
 17 19  1  0
 17 23  2  0
 18 19  2  0
 22 23  1  0
 22 26  1  0
 27 29  2  0
M  END
>  <ID>  (1) 
conformer_0

$$$$
