
     RDKit          3D

 22 24  0  0  0  0  0  0  0  0999 V2000
   23.7222  -55.2980   52.6730 C   0  0  0  0  0  0  0  0  0  0  0  0
   24.4224  -48.2039   53.2699 C   0  0  0  0  0  0  0  0  0  0  0  0
   20.7796  -52.2191   52.2919 O   0  0  0  0  0  0  0  0  0  0  0  0
   20.0505  -55.0203   52.6379 O   0  0  0  0  0  0  0  0  0  0  0  0
   21.3524  -54.7109   52.6194 C   0  0  0  0  0  0  0  0  0  0  0  0
   21.6764  -53.3844   52.5541 C   0  0  0  0  0  0  0  0  0  0  0  0
   23.9559  -50.6066   52.9651 C   0  0  0  0  0  0  0  0  0  0  0  0
   24.4671  -46.7404   54.5261 N   0  0  0  0  0  0  0  0  0  0  0  0
   23.0476  -51.5984   52.6848 C   0  0  0  0  0  0  0  0  0  0  0  0
   19.5006  -51.2405   51.8157 C   0  0  0  0  0  0  0  0  0  0  0  0
   21.4117  -49.9904   51.9407 C   0  0  0  0  0  0  0  0  0  0  0  0
   23.0496  -52.9951   52.6987 C   0  0  0  0  0  0  0  0  0  0  0  0
   26.4248  -49.6371   54.5203 O   0  0  0  0  0  0  0  0  0  0  0  0
   21.7177  -51.2182   52.3040 C   0  0  0  0  0  0  0  0  0  0  0  0
   25.9920  -47.3323   56.1430 O   0  0  0  0  0  0  0  0  0  0  0  0
   22.3703  -48.9957   52.1388 C   0  0  0  0  0  0  0  0  0  0  0  0
   20.1238  -49.9450   51.4532 O   0  0  0  0  0  0  0  0  0  0  0  0
   25.3933  -48.7621   54.3104 C   0  0  0  0  0  0  0  0  0  0  0  0
   22.3872  -55.6812   52.6602 C   0  0  0  0  0  0  0  0  0  0  0  0
   25.3286  -47.5926   55.2386 C   0  0  0  0  0  0  0  0  0  0  0  0
   23.5565  -49.2797   52.7777 C   0  0  0  0  0  0  0  0  0  0  0  0
   24.0465  -53.9371   52.7191 C   0  0  0  0  0  0  0  0  0  0  0  0
  1 19  2  0
  1 22  1  0
  2 18  1  0
  2 21  1  0
  3  6  1  0
  3 14  1  0
  4  5  1  0
  5  6  2  0
  5 19  1  0
  6 12  1  0
  7  9  2  0
  7 21  1  0
  8 20  1  0
  9 12  1  0
  9 14  1  0
 10 17  1  0
 11 14  2  0
 11 16  1  0
 11 17  1  0
 12 22  2  0
 13 18  1  0
 15 20  2  0
 16 21  2  0
 18 20  1  0
M  END
>  <ID>  (1) 
conformer_0

$$$$
