
     RDKit          3D

 20 22  0  0  0  0  0  0  0  0999 V2000
   22.0555  -51.6140   52.4110 C   0  0  0  0  0  0  0  0  0  0  0  0
   23.6822  -55.8804   53.0029 C   0  0  0  0  0  0  0  0  0  0  0  0
   24.1818  -51.1221   53.3011 C   0  0  0  0  0  0  0  0  0  0  0  0
   21.0644  -49.4330   52.0716 C   0  0  0  0  0  0  0  0  0  0  0  0
   24.9521  -56.2453   53.0635 O   0  0  0  0  0  0  0  0  0  0  0  0
   23.1267  -54.5933   52.7876 C   0  0  0  0  0  0  0  0  0  0  0  0
   18.7278  -49.0118   50.9035 Cl  0  0  0  0  0  0  0  0  0  0  0  0
   25.1587  -53.4877   52.6778 O   0  0  0  0  0  0  0  0  0  0  0  0
   23.9210  -53.3998   52.6895 C   0  0  0  0  0  0  0  0  0  0  0  0
   23.4185  -49.8661   53.0857 C   0  0  0  0  0  0  0  0  0  0  0  0
   22.1239  -50.2300   52.5078 C   0  0  0  0  0  0  0  0  0  0  0  0
   21.7687  -54.7241   52.7077 C   0  0  0  0  0  0  0  0  0  0  0  0
   19.7663  -51.3628   51.5187 C   0  0  0  0  0  0  0  0  0  0  0  0
   20.8235  -52.1366   51.9299 C   0  0  0  0  0  0  0  0  0  0  0  0
   21.3691  -56.0761   52.8866 C   0  0  0  0  0  0  0  0  0  0  0  0
   25.2515  -51.0803   54.0878 O   0  0  0  0  0  0  0  0  0  0  0  0
   19.9327  -49.9948   51.5482 C   0  0  0  0  0  0  0  0  0  0  0  0
   23.3231  -52.1736   52.8387 N   0  0  0  0  0  0  0  0  0  0  0  0
   22.6231  -56.8003   53.0651 C   0  0  0  0  0  0  0  0  0  0  0  0
   23.6723  -48.7056   53.5135 O   0  0  0  0  0  0  0  0  0  0  0  0
  1 11  2  0
  1 14  1  0
  1 18  1  0
  2  5  1  0
  2  6  2  0
  2 19  1  0
  3 10  1  0
  3 16  2  0
  3 18  1  0
  4 11  1  0
  4 17  2  0
  6  9  1  0
  6 12  1  0
  7 17  1  0
  8  9  2  0
  9 18  1  0
 10 11  1  0
 10 20  2  0
 12 15  1  0
 13 14  2  0
 13 17  1  0
 15 19  1  0
M  END
>  <ID>  (1) 
conformer_0

$$$$
