
     RDKit          3D

 23 26  0  0  0  0  0  0  0  0999 V2000
   18.5677  -50.2533   51.3711 C   0  0  0  0  0  0  0  0  0  0  0  0
   22.6271  -49.4653   52.4677 C   0  0  0  0  0  0  0  0  0  0  0  0
   21.9565  -51.7634   52.2847 C   0  0  0  0  0  0  0  0  0  0  0  0
   22.7512  -48.8836   53.6462 O   0  0  0  0  0  0  0  0  0  0  0  0
   23.5485  -55.0858   52.3492 C   0  0  0  0  0  0  0  0  0  0  0  0
   24.7934  -55.6488   52.4077 C   0  0  0  0  0  0  0  0  0  0  0  0
   23.8658  -57.7231   53.0538 C   0  0  0  0  0  0  0  0  0  0  0  0
   19.8186  -53.6429   53.0869 O   0  0  0  0  0  0  0  0  0  0  0  0
   19.4941  -51.2458   51.7115 C   0  0  0  0  0  0  0  0  0  0  0  0
   21.1515  -49.6008   52.0145 C   0  0  0  0  0  0  0  0  0  0  0  0
   22.6371  -57.1864   53.0394 N   0  0  0  0  0  0  0  0  0  0  0  0
   18.9798  -48.9181   51.3072 C   0  0  0  0  0  0  0  0  0  0  0  0
   21.1811  -55.3156   52.7701 N   0  0  0  0  0  0  0  0  0  0  0  0
   20.8117  -50.9645   52.0033 C   0  0  0  0  0  0  0  0  0  0  0  0
   20.2716  -48.6109   51.6643 C   0  0  0  0  0  0  0  0  0  0  0  0
   23.2662  -53.7629   51.9073 C   0  0  0  0  0  0  0  0  0  0  0  0
   20.9508  -54.0013   52.7404 C   0  0  0  0  0  0  0  0  0  0  0  0
   22.0537  -53.1423   52.4340 C   0  0  0  0  0  0  0  0  0  0  0  0
   23.0812  -50.9391   52.4798 C   0  0  0  0  0  0  0  0  0  0  0  0
   23.4544  -48.6502   51.4591 C   0  0  0  0  0  0  0  0  0  0  0  0
   22.4658  -55.8662   52.7303 C   0  0  0  0  0  0  0  0  0  0  0  0
   24.9690  -56.9844   52.7654 C   0  0  0  0  0  0  0  0  0  0  0  0
   23.6073  -53.3394   50.6719 O   0  0  0  0  0  0  0  0  0  0  0  0
  1  9  2  0
  1 12  1  0
  2  4  1  0
  2 10  1  0
  2 19  1  0
  2 20  1  0
  3 14  1  0
  3 18  1  0
  3 19  1  0
  5  6  2  0
  5 16  1  0
  5 21  1  0
  6 22  1  0
  7 11  1  0
  7 22  2  0
  8 17  2  0
  9 14  1  0
 10 14  2  0
 10 15  1  0
 11 21  2  0
 12 15  2  0
 13 17  1  0
 13 21  1  0
 16 18  1  0
 16 23  1  0
 17 18  1  0
M  END
>  <ID>  (1) 
conformer_0

$$$$
