
     RDKit          3D

 27 28  0  0  0  0  0  0  0  0999 V2000
   21.7862  -57.2744   53.7782 C   0  0  0  0  0  0  0  0  0  0  0  0
   23.9184  -48.7099   51.3066 C   0  0  0  0  0  0  0  0  0  0  0  0
   21.2818  -55.3303   52.8396 N   0  0  0  0  0  0  0  0  0  0  0  0
   22.5502  -48.9649   53.1969 C   0  0  0  0  0  0  0  0  0  0  0  0
   19.6280  -51.2201   52.3261 C   0  0  0  0  0  0  0  0  0  0  0  0
   23.5138  -50.6548   49.7431 C   0  0  0  0  0  0  0  0  0  0  0  0
   19.7718  -53.6394   52.6882 C   0  0  0  0  0  0  0  0  0  0  0  0
   18.9381  -54.5594   52.8826 O   0  0  0  0  0  0  0  0  0  0  0  0
   24.5668  -58.2962   53.5198 C   0  0  0  0  0  0  0  0  0  0  0  0
   19.0521  -52.4337   52.5519 N   0  0  0  0  0  0  0  0  0  0  0  0
   23.5193  -58.9563   54.2150 C   0  0  0  0  0  0  0  0  0  0  0  0
   24.8298  -48.8562   48.9910 N   0  0  0  0  0  0  0  0  0  0  0  0
   22.2888  -58.3154   54.2289 C   0  0  0  0  0  0  0  0  0  0  0  0
   22.9083  -52.2324   51.9521 C   0  0  0  0  0  0  0  0  0  0  0  0
   24.1816  -49.8153   48.6285 C   0  0  0  0  0  0  0  0  0  0  0  0
   20.9995  -51.1126   52.4947 C   0  0  0  0  0  0  0  0  0  0  0  0
   22.1945  -56.1640   53.0800 C   0  0  0  0  0  0  0  0  0  0  0  0
   18.8568  -50.1109   51.7445 C   0  0  0  0  0  0  0  0  0  0  0  0
   24.1097  -50.1635   47.5072 O   0  0  0  0  0  0  0  0  0  0  0  0
   22.1272  -50.1286   52.7175 C   0  0  0  0  0  3  0  0  0  0  0  0
   21.2036  -53.9343   52.5903 C   0  0  0  0  0  0  0  0  0  0  0  0
   23.5180  -48.1462   52.5105 C   0  0  0  0  0  0  0  0  0  0  0  0
   24.4291  -57.1080   52.8711 C   0  0  0  0  0  0  0  0  0  0  0  0
   22.3965  -53.4219   52.2544 C   0  0  0  0  0  0  0  0  0  0  0  0
   23.6690  -49.8049   50.7180 C   0  0  0  0  0  0  0  0  0  0  0  0
   22.1005  -51.1937   52.3165 C   0  0  0  0  0  0  0  0  0  0  0  0
   23.5148  -56.1965   52.6657 C   0  0  0  0  0  0  0  0  0  0  0  0
  1 13  2  0
  1 17  1  0
  2 22  1  0
  2 25  1  0
  3 17  1  0
  3 21  1  0
  4 20  2  0
  4 22  1  0
  5 10  1  0
  5 16  2  0
  5 18  1  0
  6 15  1  0
  6 25  1  0
  7  8  2  0
  7 10  1  0
  7 21  1  0
  9 11  1  0
  9 23  2  0
 11 13  1  0
 12 15  1  0
 14 24  1  0
 14 26  1  0
 15 19  2  0
 16 26  2  0
 17 27  2  0
 20 26  1  0
 21 24  2  0
 23 27  1  0
M  END
>  <ID>  (1) 
conformer_0

$$$$
