
     RDKit          3D

 19 20  0  0  0  0  0  0  0  0999 V2000
   20.6513  -50.0202   51.3625 C   0  0  0  0  0  0  0  0  0  0  0  0
   26.1616  -48.2052   45.9224 C   0  0  0  0  0  0  0  0  0  0  0  0
   23.6452  -53.3436   53.5723 C   0  0  0  0  0  0  0  0  0  0  0  0
   23.0157  -49.4920   50.4124 O   0  0  0  0  0  0  0  0  0  0  0  0
   25.6149  -48.8745   48.3118 O   0  0  0  0  0  0  0  0  0  0  0  0
   22.0569  -54.8034   52.5748 C   0  0  0  0  0  0  0  0  0  0  0  0
   22.8346  -55.9036   52.9986 C   0  0  0  0  0  0  0  0  0  0  0  0
   20.4014  -52.2014   52.4513 C   0  0  0  0  0  0  0  0  0  0  0  0
   22.0173  -50.2479   51.1740 C   0  0  0  0  0  0  0  0  0  0  0  0
   23.9942  -55.6987   53.7452 N   0  0  0  0  0  0  0  0  0  0  0  0
   23.8576  -48.6199   46.9078 C   0  0  0  0  0  0  0  0  0  0  0  0
   22.5502  -51.3139   51.7985 C   0  0  0  0  0  0  0  0  0  0  0  0
   24.0919  -49.0963   49.1011 C   0  0  0  0  0  0  0  0  0  0  0  0
   25.2473  -48.5704   46.9824 C   0  0  0  0  0  0  0  0  0  0  0  0
   24.3567  -54.3974   54.0278 C   0  0  0  0  0  0  0  0  0  0  0  0
   21.7718  -52.3323   52.3704 C   0  0  0  0  0  0  0  0  0  0  0  0
   22.4610  -53.4877   52.8494 C   0  0  0  0  0  0  0  0  0  0  0  0
   23.2203  -48.8977   48.0900 C   0  0  0  0  0  0  0  0  0  0  0  0
   19.8074  -51.0243   51.9839 C   0  0  0  0  0  0  0  0  0  0  0  0
  1  9  2  0
  1 19  1  0
  2 14  1  0
  3 15  2  0
  3 17  1  0
  4  9  1  0
  4 13  1  0
  5 14  1  0
  6  7  1  0
  6 17  2  0
  7 10  2  0
  8 16  1  0
  8 19  2  0
  9 12  1  0
 10 15  1  0
 11 14  2  3
 11 18  1  0
 12 16  2  0
 13 18  1  0
 16 17  1  0
M  END
>  <ID>  (1) 
conformer_0

$$$$
