
     RDKit          3D

 22 24  0  0  0  0  0  0  0  0999 V2000
   19.0805  -51.0694   51.4666 C   0  0  0  0  0  0  0  0  0  0  0  0
   19.7363  -52.0881   51.8836 C   0  0  0  0  0  0  0  0  0  0  0  0
   24.7776  -55.1201   53.3256 C   0  0  0  0  0  0  0  0  0  0  0  0
   23.9274  -52.1245   53.1469 C   0  0  0  0  0  0  0  0  0  0  0  0
   25.2105  -52.0173   53.6526 C   0  0  0  0  0  0  0  0  0  0  0  0
   23.4902  -54.5999   53.1184 C   0  0  0  0  0  0  0  0  0  0  0  0
   23.3807  -48.4446   52.2954 O   0  0  0  0  0  0  0  0  0  0  0  0
   19.2022  -49.8184   51.0880 N   0  0  0  0  0  0  0  0  0  0  0  0
   21.0654  -52.1810   52.2555 C   0  0  0  0  0  0  0  0  0  0  0  0
   22.8453  -49.0868   51.3526 C   0  0  0  0  0  0  0  0  0  0  0  0
   22.4242  -55.4685   52.9355 C   0  0  0  0  0  0  0  0  0  0  0  0
   25.8430  -54.3721   53.7618 C   0  0  0  0  0  0  0  0  0  0  0  0
   23.3940  -49.1760   50.2641 O   0  0  0  0  0  0  0  0  0  0  0  0
   22.6473  -56.8073   52.8097 C   0  0  0  0  0  0  0  0  0  0  0  0
   21.6021  -49.9206   51.5754 C   0  0  0  0  0  0  0  0  0  0  0  0
   21.9599  -51.1311   52.1952 C   0  0  0  0  0  0  0  0  0  0  0  0
   20.4384  -49.3884   51.1943 C   0  0  0  0  0  0  0  0  0  0  0  0
   23.9470  -57.3159   52.8241 C   0  0  0  0  0  0  0  0  0  0  0  0
   23.2718  -51.0826   52.7020 N   0  0  0  0  0  0  0  0  0  0  0  0
   24.9976  -56.4713   53.0775 C   0  0  0  0  0  0  0  0  0  0  0  0
   23.3020  -53.2698   53.0735 C   0  0  0  0  0  0  0  0  0  0  0  0
   26.0572  -53.0488   53.9163 C   0  0  0  0  0  0  0  0  0  0  0  0
  1  2  2  0
  1  8  1  0
  2  9  1  0
  3  6  1  0
  3 12  1  0
  3 20  1  0
  4  5  1  0
  4 19  2  3
  4 21  1  0
  5 22  1  0
  6 11  1  0
  6 21  2  0
  7 10  2  0
  8 17  1  0
  9 16  2  0
 10 13  1  0
 10 15  1  0
 11 14  2  0
 12 22  2  0
 14 18  1  0
 15 16  1  0
 15 17  2  0
 16 19  1  0
 18 20  2  0
M  END
>  <ID>  (1) 
conformer_0

$$$$
