
     RDKit          3D

 18 19  0  0  0  0  0  0  0  0999 V2000
   20.4498  -49.0786   52.3434 N   0  0  0  0  0  0  0  0  0  0  0  0
   19.2038  -54.1645   53.0132 O   0  0  0  0  0  0  0  0  0  0  0  0
   22.4977  -48.2879   52.0672 C   0  0  0  0  0  0  0  0  0  0  0  0
   20.5339  -52.3687   52.2259 C   0  0  0  0  0  0  0  0  0  0  0  0
   21.7442  -47.2960   52.7694 C   0  0  0  0  0  0  0  0  0  0  0  0
   19.4027  -51.6108   52.3230 O   0  0  0  0  0  0  0  0  0  0  0  0
   21.6619  -51.9189   51.3713 C   0  0  0  0  0  0  0  0  0  0  0  0
   22.1028  -50.5946   51.1434 C   0  0  0  0  0  0  0  0  0  0  0  0
   23.8659  -49.6006   49.5709 N   0  0  0  0  0  0  0  0  0  0  0  0
   23.1987  -50.6261   50.1231 C   0  0  0  0  0  0  0  0  0  0  0  0
   22.4763  -52.7584   50.5601 C   0  0  0  0  0  0  0  0  0  0  0  0
   24.3220  -49.4494   48.3022 C   0  0  0  0  0  0  0  0  0  0  0  0
   20.3171  -53.7605   52.5401 C   0  0  0  0  0  0  0  0  0  0  0  0
   20.4484  -47.8587   52.8987 C   0  0  0  0  0  0  0  0  0  0  0  0
   21.2631  -54.6350   52.3725 O   0  0  0  0  0  0  0  0  0  0  0  0
   21.6894  -49.3929   51.8177 C   0  0  0  0  0  0  0  0  0  0  0  0
   23.4617  -51.9404   49.7914 C   0  0  0  0  0  0  0  0  0  0  0  0
   25.3966  -48.9086   47.6135 N   0  0  0  0  0  0  0  0  0  0  0  0
  1 14  1  0
  1 16  1  0
  2 13  2  0
  3  5  1  0
  3 16  1  0
  4  6  1  0
  4  7  1  0
  4 13  1  0
  5 14  1  0
  7  8  1  0
  7 11  1  0
  8 10  2  0
  8 16  1  0
  9 10  1  0
  9 12  1  0
 10 17  1  0
 11 17  1  0
 12 18  1  0
 13 15  1  0
M  END
>  <ID>  (1) 
conformer_0

$$$$
