
     RDKit          3D

 27 29  0  0  0  0  0  0  0  0999 V2000
   18.4783  -49.4587   51.5553 C   0  0  0  0  0  0  0  0  0  0  0  0
   23.7317  -53.0413   52.6011 C   0  0  0  0  0  0  0  0  0  0  0  0
   19.6337  -48.6632   51.3818 C   0  0  0  0  0  0  0  0  0  0  0  0
   21.9434  -53.9575   53.0574 C   0  0  0  0  0  0  0  0  0  0  0  0
   24.3865  -49.9286   46.9046 O   0  0  0  0  0  0  0  0  0  0  0  0
   24.9730  -49.0023   47.4944 C   0  0  0  0  0  0  0  0  0  0  0  0
   24.3988  -56.3214   54.5566 C   0  0  0  0  0  0  0  0  0  0  0  0
   23.1756  -54.6371   53.2169 C   0  0  0  0  0  0  0  0  0  0  0  0
   23.5953  -50.8866   51.3351 N   0  0  0  0  0  0  0  0  0  0  0  0
   24.2342  -56.8601   53.2043 C   0  0  0  0  0  0  0  0  0  0  0  0
   23.6723  -48.6162   51.4120 O   0  0  0  0  0  0  0  0  0  0  0  0
   23.9139  -54.8721   54.4974 C   0  0  0  0  0  0  0  0  0  0  0  0
   26.0586  -48.3897   47.0376 N   0  0  0  0  0  0  0  0  0  0  0  0
   24.3427  -49.7391   49.5319 N   0  0  0  0  0  0  0  0  0  0  0  0
   24.9005  -58.6775   51.9315 N   0  0  0  0  0  0  0  0  0  0  0  0
   24.3792  -58.2564   53.0063 C   0  0  0  0  0  0  0  0  0  0  0  0
   24.4074  -59.0199   54.0145 N   0  0  0  0  0  0  0  0  0  0  0  0
   24.5344  -48.5366   48.8354 C   0  0  0  0  0  0  0  0  0  0  0  0
   20.8306  -54.2898   53.2969 O   0  0  0  0  0  0  0  0  0  0  0  0
   21.1137  -50.5178   51.9378 C   0  0  0  0  0  0  0  0  0  0  0  0
   19.9569  -51.2791   52.1082 C   0  0  0  0  0  0  0  0  0  0  0  0
   22.4157  -52.5257   52.6067 C   0  0  0  0  0  0  0  0  0  0  0  0
   23.3944  -55.9188   52.4753 C   0  0  0  0  0  0  0  0  0  0  0  0
   22.4063  -51.1296   52.1387 C   0  0  0  0  0  0  0  0  0  0  0  0
   20.8756  -49.2038   51.5917 C   0  0  0  0  0  0  0  0  0  0  0  0
   18.6874  -50.7950   51.8978 C   0  0  0  0  0  0  0  0  0  0  0  0
   23.8178  -49.6613   50.7846 C   0  0  0  0  0  0  0  0  0  0  0  0
  1  3  1  0
  1 26  1  0
  2  8  1  0
  2 22  1  0
  3 25  2  0
  4  8  1  0
  4 19  2  0
  4 22  1  0
  5  6  2  0
  6 13  1  0
  6 18  1  0
  7 10  1  0
  7 12  1  0
  8 12  1  0
  8 23  1  0
  9 24  1  0
  9 27  1  0
 10 16  1  0
 10 23  1  0
 11 27  2  0
 14 18  1  0
 14 27  1  0
 15 16  2  0
 16 17  1  0
 20 21  1  0
 20 24  1  0
 20 25  1  0
 21 26  2  0
 22 24  1  0
M  END
>  <ID>  (1) 
conformer_0

$$$$
