
     RDKit          3D

 16 17  0  0  0  0  0  0  0  0999 V2000
   20.5199  -52.9636   52.6521 C   0  0  0  0  0  0  0  0  0  0  0  0
   23.4582  -49.2712   51.9402 O   0  0  0  0  0  0  0  0  0  0  0  0
   19.5472  -49.6312   51.4159 N   0  0  0  0  0  0  0  0  0  0  0  0
   23.0591  -52.0133   52.1099 C   0  0  0  0  0  0  0  0  0  0  0  0
   21.6309  -53.7958   52.7288 C   0  0  0  0  0  0  0  0  0  0  0  0
   20.7041  -51.6390   52.3031 C   0  0  0  0  0  0  0  0  0  0  0  0
   19.4870  -50.8837   51.8465 C   0  0  0  0  0  0  0  0  0  0  0  0
   22.7221  -57.4767   53.2820 C   0  0  0  0  0  0  0  0  0  0  0  0
   21.6200  -55.1409   53.3506 C   0  0  0  0  0  0  0  0  0  0  0  0
   21.8992  -49.0581   53.4672 O   0  0  0  0  0  0  0  0  0  0  0  0
   22.7234  -56.0469   52.9513 C   0  0  0  0  0  0  0  0  0  0  0  0
   22.4388  -49.7038   52.5775 C   0  0  0  0  0  0  0  0  0  0  0  0
   23.5591  -55.6912   51.8677 O   0  0  0  0  0  0  0  0  0  0  0  0
   22.8248  -53.3547   52.2066 C   0  0  0  0  0  0  0  0  0  0  0  0
   22.0278  -51.1145   52.3156 C   0  0  0  0  0  0  0  0  0  0  0  0
   23.8143  -54.2831   51.6446 C   0  0  0  0  0  0  0  0  0  0  0  0
  1  5  2  0
  1  6  1  0
  2 12  2  0
  3  7  2  0
  4 14  2  0
  4 15  1  0
  5  9  1  0
  5 14  1  0
  6  7  1  0
  6 15  1  0
  8 11  1  0
  9 11  2  0
 10 12  1  0
 11 13  1  0
 12 15  1  0
 13 16  1  0
 14 16  1  0
M  END
>  <ID>  (1) 
conformer_0

$$$$
