
     RDKit          3D

 36 38  0  0  0  0  0  0  0  0999 V2000
   23.9083  -51.9378   53.8014 N   0  0  0  0  0  0  0  0  0  0  0  0
   21.2117  -45.7724   54.5112 C   0  0  0  0  0  0  0  0  0  0  0  0
   19.8399  -50.4437   51.7926 C   0  0  0  0  0  0  0  0  0  0  0  0
   22.1107  -51.1357   51.7996 C   0  0  0  0  0  0  0  0  0  0  0  0
   23.9318  -56.3222   52.7162 C   0  0  0  0  0  0  0  0  0  0  0  0
   22.5823  -53.4314   52.6076 N   0  0  0  0  0  0  0  0  0  0  0  0
   21.6888  -46.8012   55.2782 C   0  0  0  0  0  0  0  0  0  0  0  0
   21.1505  -50.1874   51.6660 C   0  0  0  0  0  0  0  0  0  0  0  0
   21.6761  -52.3941   52.3087 C   0  0  0  0  0  0  0  0  0  0  0  0
   24.6925  -51.2771   54.5748 N   0  0  0  0  0  0  0  0  0  0  0  0
   23.9008  -50.0211   50.7147 C   0  0  0  0  0  0  0  0  0  0  0  0
   23.5820  -48.6383   52.5333 C   0  0  0  0  0  0  0  0  0  0  0  0
   25.7934  -57.8261   54.1043 C   0  0  0  0  0  0  0  0  0  0  0  0
   25.7016  -56.4333   54.2948 C   0  0  0  0  0  0  0  0  0  0  0  0
   19.3742  -51.6957   52.1788 C   0  0  0  0  0  0  0  0  0  0  0  0
   23.8280  -48.7862   51.2376 N   0  0  0  0  0  0  0  0  0  0  0  0
   24.9357  -58.4723   53.2232 C   0  0  0  0  0  0  0  0  0  0  0  0
   20.3418  -52.6731   52.4413 C   0  0  0  0  0  0  0  0  0  0  0  0
   18.7174  -49.1537   51.4534 Cl  0  0  0  0  0  0  0  0  0  0  0  0
   21.5429  -45.6057   53.1905 C   0  0  0  0  0  0  0  0  0  0  0  0
   25.1968  -48.7398   55.2018 C   0  0  0  0  0  0  0  0  0  0  0  0
   23.7371  -53.2113   53.3790 C   0  0  0  0  0  0  0  0  0  0  0  0
   24.6617  -54.2101   53.9219 C   0  0  0  0  0  0  0  0  0  0  0  0
   24.5989  -49.8560   54.8305 N   0  0  0  0  0  0  0  0  0  0  0  0
   24.1706  -49.1360   48.4772 C   0  0  0  0  0  0  0  0  0  0  0  0
   24.3743  -50.2899   49.3579 S   0  0  0  0  0  0  0  0  0  0  0  0
   23.4213  -51.0316   51.4099 N   0  0  0  0  0  0  0  0  0  0  0  0
   23.3978  -48.0427   48.7266 O   0  0  0  0  0  0  0  0  0  0  0  0
   22.3735  -46.4941   52.5895 C   0  0  0  0  0  0  0  0  0  0  0  0
   25.2810  -48.4869   56.5991 C   0  0  0  0  0  0  0  0  0  0  0  0
   25.7823  -47.8449   54.2734 S   0  0  0  0  0  0  0  0  0  0  0  0
   22.5229  -47.7033   54.6981 C   0  0  0  0  0  0  0  0  0  0  0  0
   24.7355  -55.6480   53.6368 C   0  0  0  0  0  0  0  0  0  0  0  0
   24.0058  -57.6979   52.5128 C   0  0  0  0  0  0  0  0  0  0  0  0
   22.8436  -47.5983   53.3080 C   0  0  0  0  0  0  0  0  0  0  0  0
   24.7528  -49.0968   47.1190 C   0  0  0  0  0  0  0  0  0  0  0  0
  1 10  1  0
  1 22  2  3
  2  7  1  0
  2 20  1  0
  3  8  2  0
  3 15  1  0
  3 19  1  0
  4  8  1  0
  4  9  1  0
  4 27  2  3
  5 33  2  0
  5 34  1  0
  6  9  1  0
  6 22  1  0
  7 32  2  0
  9 18  2  0
 10 24  1  0
 11 16  2  3
 11 26  1  0
 11 27  1  0
 12 16  1  0
 12 35  2  3
 13 14  2  0
 13 17  1  0
 14 33  1  0
 15 18  1  0
 17 34  2  0
 20 29  2  0
 21 24  1  0
 21 30  1  0
 21 31  2  0
 22 23  1  0
 23 33  1  0
 25 26  1  0
 25 28  2  0
 25 36  1  0
 29 35  1  0
 32 35  1  0
M  END
>  <ID>  (1) 
conformer_0

$$$$
