
     RDKit          3D

 25 28  0  0  0  0  0  0  0  0999 V2000
   24.2272  -50.2385   48.7558 C   0  0  0  0  0  0  0  0  0  0  0  0
   19.4178  -49.8970   51.7532 C   0  0  0  0  0  0  0  0  0  0  0  0
   23.6116  -55.1108   53.5323 C   0  0  0  0  0  0  0  0  0  0  0  0
   22.3687  -55.6399   53.2257 C   0  0  0  0  0  0  0  0  0  0  0  0
   24.6054  -55.9712   53.9583 N   0  0  0  0  0  0  0  0  0  0  0  0
   23.8238  -53.6848   53.3386 C   0  0  0  0  0  0  0  0  0  0  0  0
   19.6228  -52.1460   51.9229 N   0  0  0  0  0  0  0  0  0  0  0  0
   23.3242  -47.8893   48.8480 C   0  0  0  0  0  0  0  0  0  0  0  0
   19.8866  -48.5881   51.6652 C   0  0  0  0  0  0  0  0  0  0  0  0
   24.4419  -48.7237   46.9132 N   0  0  0  0  0  0  0  0  0  0  0  0
   20.4712  -52.7457   52.2033 C   0  0  0  0  0  0  0  0  0  0  0  0
   21.7351  -50.7401   51.9378 C   0  0  0  0  0  0  0  0  0  0  0  0
   21.3564  -54.8640   52.8015 C   0  0  0  0  0  0  0  0  0  0  0  0
   23.3512  -49.3456   50.7628 N   0  0  0  0  0  0  0  0  0  0  0  0
   23.6253  -49.1241   49.4239 C   0  0  0  0  0  0  0  0  0  0  0  0
   21.5158  -53.4772   52.6083 C   0  0  0  0  0  0  0  0  0  0  0  0
   20.1093  -55.3748   52.5230 C   0  0  0  0  0  0  0  0  0  0  0  0
   18.1536  -50.0562   51.6906 O   0  0  0  0  0  0  0  0  0  0  0  0
   24.6194  -49.9559   47.5065 C   0  0  0  0  0  0  0  0  0  0  0  0
   20.3506  -50.9982   51.9275 N   0  0  0  0  0  0  0  0  0  0  0  0
   22.1392  -49.4938   51.3354 C   0  0  0  0  0  0  0  0  0  0  0  0
   22.7310  -51.5133   52.4444 N   0  0  0  0  0  0  0  0  0  0  0  0
   21.2875  -48.4588   51.4131 C   0  0  0  0  0  0  0  0  0  0  0  0
   23.7845  -47.6646   47.5935 C   0  0  0  0  0  0  0  0  0  0  0  0
   22.7464  -52.8256   52.8111 C   0  0  0  0  0  0  0  0  0  0  0  0
  1 15  1  0
  1 19  1  0
  2  9  1  0
  2 18  2  0
  2 20  1  0
  3  4  2  0
  3  5  1  0
  3  6  1  0
  4 13  1  0
  6 25  2  0
  7 11  1  0
  7 20  1  0
  8 15  1  0
  8 24  2  0
  9 23  2  0
 10 19  2  0
 10 24  1  0
 11 16  1  0
 12 20  1  0
 12 21  1  0
 12 22  2  0
 13 16  2  0
 13 17  1  0
 14 15  1  0
 14 21  1  0
 16 25  1  0
 21 23  1  0
 22 25  1  0
M  END
>  <ID>  (1) 
conformer_0

$$$$
