
     RDKit          3D

 20 23  0  0  0  0  0  0  0  0999 V2000
   20.7554  -53.5625   52.6294 C   0  0  0  0  0  0  0  0  0  0  0  0
   23.2993  -53.6360   51.7522 C   0  0  0  0  0  0  0  0  0  0  0  0
   22.7980  -54.7124   52.4299 C   0  0  0  0  0  0  0  0  0  0  0  0
   19.2513  -48.7568   51.8325 C   0  0  0  0  0  0  0  0  0  0  0  0
   19.2383  -51.1078   52.3219 C   0  0  0  0  0  0  0  0  0  0  0  0
   22.5680  -52.4996   51.4301 C   0  0  0  0  0  0  0  0  0  0  0  0
   22.9962  -49.2776   49.7281 C   0  0  0  0  0  0  0  0  0  0  0  0
   20.5295  -48.8777   51.3885 C   0  0  0  0  0  0  0  0  0  0  0  0
   26.0797  -48.2052   46.4798 C   0  0  0  0  0  0  0  0  0  0  0  0
   25.4988  -49.3432   47.1866 O   0  0  0  0  0  0  0  0  0  0  0  0
   20.5676  -51.2275   51.8891 C   0  0  0  0  0  0  0  0  0  0  0  0
   23.9089  -49.9720   48.8879 C   0  0  0  0  0  0  0  0  0  0  0  0
   21.2931  -52.4360   51.9933 C   0  0  0  0  0  0  0  0  0  0  0  0
   22.3809  -50.2408   50.5769 C   0  0  0  0  0  0  0  0  0  0  0  0
   21.1758  -50.1094   51.3022 C   0  0  0  0  0  0  0  0  0  0  0  0
   18.5697  -49.8830   52.2569 C   0  0  0  0  0  0  0  0  0  0  0  0
   21.4607  -54.6973   52.8577 C   0  0  0  0  0  0  0  0  0  0  0  0
   24.0451  -51.3436   49.3829 C   0  0  0  0  0  0  0  0  0  0  0  0
   23.0842  -51.4757   50.5223 C   0  0  0  0  0  0  0  0  0  0  0  0
   24.3055  -49.1856   47.6912 C   0  0  0  0  0  0  0  0  0  0  0  0
  1 13  2  0
  1 17  1  0
  2  3  1  0
  2  6  2  0
  3 17  2  0
  4  8  1  0
  4 16  2  0
  5 11  2  0
  5 16  1  0
  6 13  1  0
  6 19  1  0
  7 12  1  0
  7 14  1  0
  8 15  2  0
  9 10  1  0
 10 20  1  0
 11 13  1  0
 11 15  1  0
 12 18  1  0
 12 20  1  0
 14 15  1  0
 14 19  2  0
 18 19  1  0
M  END
>  <ID>  (1) 
conformer_0

$$$$
