
     RDKit          3D

 11 12  0  0  0  0  0  0  0  0999 V2000
   19.4252  -50.1114   51.4389 C   0  0  0  0  0  0  0  0  0  0  0  0
   21.1857  -53.2949   52.0510 C   0  0  0  0  0  0  0  0  0  0  0  0
   21.6318  -49.6161   52.1706 C   0  0  0  0  0  0  0  0  0  0  0  0
   22.4406  -53.7507   52.4503 C   0  0  0  0  0  0  0  0  0  0  0  0
   21.8986  -50.9946   52.2957 C   0  0  0  0  0  0  0  0  0  0  0  0
   23.4525  -52.8428   52.8034 C   0  0  0  0  0  0  0  0  0  0  0  0
   20.9233  -51.9242   51.9805 C   0  0  0  0  0  0  0  0  0  0  0  0
   24.1755  -50.5209   53.0760 N   0  0  0  0  0  0  0  0  0  0  0  0
   19.6492  -51.4725   51.5808 C   0  0  0  0  0  0  0  0  0  0  0  0
   20.4021  -49.1955   51.7330 C   0  0  0  0  0  0  0  0  0  0  0  0
   23.1882  -51.4620   52.7273 C   0  0  0  0  0  0  0  0  0  0  0  0
  1  9  1  0
  1 10  2  0
  2  4  1  0
  2  7  2  0
  3  5  2  0
  3 10  1  0
  4  6  2  0
  5  7  1  0
  5 11  1  0
  6 11  1  0
  7  9  1  0
  8 11  1  0
M  END
>  <ID>  (1) 
conformer_0

$$$$
