
     RDKit          3D

 30 32  0  0  0  0  0  0  0  0999 V2000
   22.0775  -51.0716   50.9639 C   0  0  0  0  0  0  0  0  0  0  0  0
   24.6064  -48.9879   47.7664 C   0  0  0  0  0  0  0  0  0  0  0  0
   25.0572  -54.1264   54.7765 C   0  0  0  0  0  0  0  0  0  0  0  0
   25.3007  -48.6456   46.7972 C   0  0  0  0  0  0  0  0  0  0  0  0
   19.9494  -50.1375   51.7844 C   0  0  0  0  0  0  0  0  0  0  0  0
   25.7169  -53.7916   55.9403 C   0  0  0  0  0  0  0  0  0  0  0  0
   22.9437  -48.6643   50.2563 C   0  0  0  0  0  0  0  0  0  0  0  0
   18.9231  -49.1045   51.8292 C   0  0  0  0  0  0  0  0  0  0  0  0
   21.1567  -55.0176   52.4985 O   0  0  0  0  0  0  0  0  0  0  0  0
   25.2659  -51.8175   54.7699 C   0  0  0  0  0  0  0  0  0  0  0  0
   21.6432  -52.2892   51.4791 C   0  0  0  0  0  0  0  0  0  0  0  0
   23.1890  -50.9670   50.1995 N   0  0  0  0  0  0  0  0  0  0  0  0
   24.7345  -52.9336   54.0412 C   0  0  0  0  0  0  0  0  0  0  0  0
   20.4292  -52.4109   52.0972 C   0  0  0  0  0  0  0  0  0  0  0  0
   24.8081  -55.4896   54.4442 C   0  0  0  0  0  0  0  0  0  0  0  0
   21.2882  -49.9638   51.2850 C   0  0  0  0  0  0  0  0  0  0  0  0
   21.9088  -48.7819   51.0706 N   0  0  0  0  0  0  0  0  0  0  0  0
   26.4255  -48.6436   44.8516 C   0  0  0  0  0  0  0  0  0  0  0  0
   23.4664  -49.7859   49.6754 C   0  0  0  0  0  0  0  0  0  0  0  0
   22.3123  -54.5524   52.0994 C   0  0  0  0  0  0  0  0  0  0  0  0
   25.8762  -52.3376   55.9531 C   0  0  0  0  0  0  0  0  0  0  0  0
   25.9619  -48.3493   45.7751 C   0  0  0  0  0  0  0  0  0  0  0  0
   22.4864  -53.4058   51.2606 C   0  0  0  0  0  0  0  0  0  0  0  0
   19.2599  -47.8856   52.0249 N   0  0  0  0  0  0  0  0  0  0  0  0
   23.3614  -53.5763   50.2818 O   0  0  0  0  0  0  0  0  0  0  0  0
   23.4419  -55.2567   52.4384 N   0  0  0  0  0  0  0  0  0  0  0  0
   19.5698  -51.3923   52.2133 C   0  0  0  0  0  0  0  0  0  0  0  0
   17.7231  -49.4627   51.7486 O   0  0  0  0  0  0  0  0  0  0  0  0
   23.9641  -55.9694   53.4617 C   0  0  0  0  0  0  0  0  0  0  0  0
   24.2660  -49.6317   48.6414 O   0  0  0  0  0  0  0  0  0  0  0  0
  1 11  1  0
  1 12  2  0
  1 16  1  0
  2  4  3  0
  2 30  1  0
  3  6  1  0
  3 13  1  0
  3 15  2  3
  4 22  1  0
  5  8  1  0
  5 16  1  0
  5 27  1  0
  6 21  1  0
  7 17  2  0
  7 19  1  0
  8 24  1  0
  8 28  2  0
  9 20  2  0
 10 13  1  0
 10 21  1  0
 11 14  1  0
 11 23  1  0
 12 19  1  0
 14 27  2  0
 15 29  1  0
 16 17  1  0
 18 22  2  0
 19 30  1  0
 20 23  1  0
 20 26  1  0
 23 25  1  0
 26 29  1  0
M  END
>  <ID>  (1) 
conformer_0

$$$$
