
     RDKit          3D

 17 17  0  0  0  0  0  0  0  0999 V2000
   18.8176  -51.2177   52.3135 O   0  0  0  0  0  0  0  0  0  0  0  0
   22.9712  -53.8820   51.8696 C   0  0  0  0  0  0  0  0  0  0  0  0
   19.9956  -50.9034   52.1174 C   0  0  0  0  0  0  0  0  0  0  0  0
   24.8475  -49.2681   47.5786 C   0  0  0  0  0  0  0  0  0  0  0  0
   22.7624  -49.2861   51.2474 O   0  0  0  0  0  0  0  0  0  0  0  0
   21.0753  -51.8908   51.9350 C   0  0  0  0  0  0  0  0  0  0  0  0
   21.8399  -54.0684   52.5770 C   0  0  0  0  0  0  0  0  0  0  0  0
   23.8401  -54.8888   51.7798 O   0  0  0  0  0  0  0  0  0  0  0  0
   21.7445  -55.0618   53.4630 O   0  0  0  0  0  0  0  0  0  0  0  0
   22.3781  -51.6316   51.2989 C   0  0  0  0  0  0  0  0  0  0  0  0
   19.6530  -53.6108   52.8934 O   0  0  0  0  0  0  0  0  0  0  0  0
   22.8841  -50.3497   50.6796 C   0  0  0  0  0  0  0  0  0  0  0  0
   20.2581  -49.6002   52.1728 N   0  0  0  0  0  0  0  0  0  0  0  0
   23.7648  -50.4612   49.6169 N   0  0  0  0  0  0  0  0  0  0  0  0
   23.2773  -52.6733   51.2714 C   0  0  0  0  0  0  0  0  0  0  0  0
   20.8367  -53.1546   52.4644 C   0  0  0  0  0  0  0  0  0  0  0  0
   24.0388  -49.2021   48.9111 C   0  0  0  0  0  0  0  0  0  0  0  0
  1  3  2  0
  2  7  1  0
  2  8  1  0
  2 15  2  0
  3  6  1  0
  3 13  1  0
  4 17  1  0
  5 12  2  0
  6 10  1  0
  6 16  2  0
  7  9  1  0
  7 16  1  0
 10 12  1  0
 10 15  1  0
 11 16  1  0
 12 14  1  0
 14 17  1  0
M  END
>  <ID>  (1) 
conformer_0

$$$$
