
     RDKit          3D

 30 31  0  0  0  0  0  0  0  0999 V2000
   24.5968  -48.3416   47.3673 N   0  0  0  0  0  0  0  0  0  0  0  0
   23.5434  -49.6430   52.8418 C   0  0  0  0  0  0  0  0  0  0  0  0
   22.6636  -49.5201   51.6717 C   0  0  0  0  0  0  0  0  0  0  0  0
   25.5138  -52.1293   54.4787 O   0  0  0  0  0  0  0  0  0  0  0  0
   24.6169  -48.6475   54.7058 C   0  0  0  0  0  0  0  0  0  0  0  0
   25.0209  -55.6005   53.2558 C   0  0  0  0  0  0  0  0  0  0  0  0
   26.1823  -48.0547   45.6537 C   0  0  0  0  0  0  0  0  0  0  0  0
   24.1554  -50.8308   53.0695 C   0  0  0  0  0  0  0  0  0  0  0  0
   23.0912  -49.2399   50.5058 C   0  0  0  0  0  0  0  0  0  0  0  0
   24.0491  -50.2432   48.2745 O   0  0  0  0  0  0  0  0  0  0  0  0
   19.1624  -51.7429   52.2871 C   0  0  0  0  0  0  0  0  0  0  0  0
   25.6915  -55.1375   54.2270 O   0  0  0  0  0  0  0  0  0  0  0  0
   24.0615  -49.0168   48.3793 C   0  0  0  0  0  0  0  0  0  0  0  0
   23.5875  -48.5522   49.6616 C   0  0  0  0  0  0  0  0  0  0  0  0
   21.5875  -54.4194   52.5486 C   0  0  0  0  0  0  0  0  0  0  0  0
   19.0388  -50.3899   52.0241 C   0  0  0  0  0  0  0  0  0  0  0  0
   25.2697  -49.8431   54.9569 C   0  0  0  0  0  0  0  0  0  0  0  0
   25.2307  -48.8524   46.3688 O   0  0  0  0  0  0  0  0  0  0  0  0
   22.8354  -56.6070   53.5873 C   0  0  0  0  0  0  0  0  0  0  0  0
   21.3759  -49.8814   51.8641 C   0  0  0  0  0  0  0  0  0  0  0  0
   21.0361  -53.2138   52.3227 C   0  0  0  0  0  0  0  0  0  0  0  0
   23.6880  -53.7882   51.2827 Cl  0  0  0  0  0  0  0  0  0  0  0  0
   20.8424  -55.4325   53.0525 N   0  0  0  0  0  0  0  0  0  0  0  0
   23.5923  -55.6024   53.0567 C   0  0  0  0  0  0  0  0  0  0  0  0
   22.9627  -54.6230   52.3399 C   0  0  0  0  0  0  0  0  0  0  0  0
   24.9889  -50.9330   54.1555 C   0  0  0  0  0  0  0  0  0  0  0  0
   21.4360  -56.5146   53.5530 C   0  0  0  0  0  0  0  0  0  0  0  0
   23.7176  -48.5458   53.6618 C   0  0  0  0  0  0  0  0  0  0  0  0
   20.2240  -49.6684   51.8325 C   0  0  0  0  0  0  0  0  0  0  0  0
   20.1501  -52.5085   52.3890 C   0  0  0  0  0  0  0  0  0  0  0  0
  1 13  1  0
  1 18  1  0
  2  3  1  0
  2  8  1  0
  2 28  2  0
  3  9  2  0
  3 20  1  0
  4 26  1  0
  5 17  2  0
  5 28  1  0
  6 12  2  0
  6 24  1  0
  7 18  1  0
  8 26  2  0
  9 14  2  0
 10 13  2  0
 11 16  1  0
 11 30  2  0
 13 14  1  0
 15 21  1  0
 15 23  1  0
 15 25  1  0
 16 29  1  0
 17 26  1  0
 19 24  2  0
 19 27  1  0
 20 29  2  3
 21 30  2  0
 22 25  1  0
 23 27  2  0
 24 25  1  0
M  END
>  <ID>  (1) 
conformer_0

$$$$
