
     RDKit          3D

 17 19  0  0  0  0  0  0  0  0999 V2000
   22.9051  -54.0495   52.4878 C   0  0  0  0  0  0  0  0  0  0  0  0
   26.3639  -54.5946   52.8473 C   0  0  0  0  0  0  0  0  0  0  0  0
   19.1054  -51.6557   51.5894 C   0  0  0  0  0  0  0  0  0  0  0  0
   20.0352  -49.4264   51.4432 C   0  0  0  0  0  0  0  0  0  0  0  0
   23.0781  -52.6884   52.6981 N   0  0  0  0  0  0  0  0  0  0  0  0
   24.4953  -56.0565   52.6973 C   0  0  0  0  0  0  0  0  0  0  0  0
   20.3380  -52.1300   51.9324 C   0  0  0  0  0  0  0  0  0  0  0  0
   23.4035  -50.3877   52.3923 N   0  0  0  0  0  0  0  0  0  0  0  0
   25.1712  -53.8228   53.2434 C   0  0  0  0  0  0  0  0  0  0  0  0
   22.5033  -49.3541   52.0125 C   0  0  0  0  0  0  0  0  0  0  0  0
   23.6386  -56.8489   52.1608 O   0  0  0  0  0  0  0  0  0  0  0  0
   18.9485  -50.2698   51.3421 C   0  0  0  0  0  0  0  0  0  0  0  0
   25.9663  -56.0697   52.8490 C   0  0  0  0  0  0  0  0  0  0  0  0
   22.7071  -51.5272   52.3976 C   0  0  0  0  0  0  0  0  0  0  0  0
   21.2531  -49.9408   51.8132 C   0  0  0  0  0  0  0  0  0  0  0  0
   24.0057  -54.7617   53.2115 C   0  0  0  0  0  0  0  0  0  0  0  0
   21.3963  -51.2956   52.0537 C   0  0  0  0  0  0  0  0  0  0  0  0
  1  5  1  0
  1 16  1  0
  2  9  1  0
  2 13  1  0
  3  7  2  0
  3 12  1  0
  4 12  1  0
  4 15  2  0
  5 14  1  0
  6 11  2  0
  6 13  1  0
  6 16  1  0
  7 17  1  0
  8 10  1  0
  8 14  1  0
  9 16  1  0
 10 15  1  0
 14 17  2  0
 15 17  1  0
M  END
>  <ID>  (1) 
conformer_0

$$$$
