
     RDKit          3D

 23 25  0  0  0  0  0  0  0  0999 V2000
   21.1663  -52.4025   52.2206 C   0  0  0  0  0  0  0  0  0  0  0  0
   19.1126  -49.9155   51.9078 C   0  0  0  0  0  0  0  0  0  0  0  0
   24.1227  -50.5096   48.7462 C   0  0  0  0  0  0  0  0  0  0  0  0
   19.7674  -47.8067   52.7172 C   0  0  0  0  0  0  0  0  0  0  0  0
   19.6996  -54.2764   52.6933 C   0  0  0  0  0  0  0  0  0  0  0  0
   23.0484  -49.5024   50.7318 C   0  0  0  0  0  0  0  0  0  0  0  0
   20.8721  -48.7055   52.7582 C   0  0  0  0  0  0  0  0  0  0  0  0
   20.5091  -49.9896   52.2569 C   0  0  0  0  0  0  0  0  0  0  0  0
   20.5091  -56.6311   52.8646 C   0  0  0  0  0  0  0  0  0  0  0  0
   21.9838  -48.3935   53.2716 O   0  0  0  0  0  0  0  0  0  0  0  0
   20.7557  -55.1866   52.7266 C   0  0  0  0  0  0  0  0  0  0  0  0
   19.3156  -57.1085   52.5728 O   0  0  0  0  0  0  0  0  0  0  0  0
   22.2074  -53.3428   52.2979 C   0  0  0  0  0  0  0  0  0  0  0  0
   18.3977  -50.7500   51.4668 O   0  0  0  0  0  0  0  0  0  0  0  0
   19.9017  -52.9480   52.4718 C   0  0  0  0  0  0  0  0  0  0  0  0
   23.6763  -51.7960   49.1421 C   0  0  0  0  0  0  0  0  0  0  0  0
   21.3658  -51.0006   51.9413 C   0  0  0  0  0  0  0  0  0  0  0  0
   18.6072  -48.5741   52.1475 O   0  0  0  0  0  0  0  0  0  0  0  0
   21.4714  -57.3991   53.1422 O   0  0  0  0  0  0  0  0  0  0  0  0
   22.0349  -54.6693   52.5548 C   0  0  0  0  0  0  0  0  0  0  0  0
   22.9447  -51.8646   50.2881 C   0  0  0  0  0  0  0  0  0  0  0  0
   22.4861  -50.7733   51.0321 C   0  0  0  0  0  0  0  0  0  0  0  0
   23.8497  -49.3968   49.5557 C   0  0  0  0  0  0  0  0  0  0  0  0
  1 13  1  0
  1 15  1  0
  1 17  1  0
  2  8  1  0
  2 14  2  0
  2 18  1  0
  3 16  2  0
  3 23  1  0
  4  7  1  0
  4 18  1  0
  5 11  1  0
  5 15  2  0
  6 22  1  0
  6 23  2  0
  7  8  1  0
  7 10  2  0
  8 17  1  0
  9 11  1  0
  9 12  2  0
  9 19  1  0
 11 20  1  0
 13 20  2  0
 16 21  1  0
 17 22  1  0
 21 22  2  0
M  END
>  <ID>  (1) 
conformer_0

$$$$
