
     RDKit          3D

 23 24  0  0  0  0  0  0  0  0999 V2000
   26.1632  -52.5095   55.1544 O   0  0  0  0  0  0  0  0  0  0  0  0
   24.0478  -48.9042   52.4211 O   0  0  0  0  0  0  0  0  0  0  0  0
   23.4970  -55.7062   51.8893 O   0  0  0  0  0  0  0  0  0  0  0  0
   24.3175  -51.3235   53.8554 C   0  0  0  0  0  0  0  0  0  0  0  0
   20.9019  -49.9704   51.4646 C   0  0  0  0  0  0  0  0  0  0  0  0
   24.0039  -53.4847   52.9402 C   0  0  0  0  0  0  0  0  0  0  0  0
   23.6386  -52.0942   52.9037 N   0  0  0  0  0  0  0  0  0  0  0  0
   26.5748  -50.7872   53.8757 O   0  0  0  0  0  0  0  0  0  0  0  0
   22.2008  -50.3899   51.8446 C   0  0  0  0  0  0  0  0  0  0  0  0
   23.3263  -49.4954   51.5400 C   0  0  0  0  0  0  0  0  0  0  0  0
   24.3264  -56.3691   52.7388 C   0  0  0  0  0  0  0  0  0  0  0  0
   24.7455  -55.7516   53.9094 N   0  0  0  0  0  0  0  0  0  0  0  0
   24.5931  -54.2953   54.0681 C   0  0  0  0  0  0  0  0  0  0  0  0
   19.7935  -50.7636   51.6979 C   0  0  0  0  0  0  0  0  0  0  0  0
   23.5588  -49.2558   50.3175 O   0  0  0  0  0  0  0  0  0  0  0  0
   25.1197  -57.3978   52.3185 O   0  0  0  0  0  0  0  0  0  0  0  0
   23.2771  -54.2929   51.8844 C   0  0  0  0  0  0  0  0  0  0  0  0
   23.8953  -57.7856   52.8531 C   0  0  0  0  0  0  0  0  0  0  0  0
   19.9262  -51.9965   52.3035 C   0  0  0  0  0  0  0  0  0  0  0  0
   22.3469  -51.6506   52.4585 C   0  0  0  0  0  0  0  0  0  0  0  0
   18.5665  -50.3053   51.2868 F   0  0  0  0  0  0  0  0  0  0  0  0
   21.2002  -52.4099   52.6579 C   0  0  0  0  0  0  0  0  0  0  0  0
   25.7243  -51.6969   54.2600 C   0  0  0  0  0  0  0  0  0  0  0  0
  1 23  2  0
  2 10  2  0
  3 11  1  0
  3 17  1  0
  4  7  1  0
  4 23  1  0
  5  9  2  0
  5 14  1  0
  6  7  1  0
  6 13  1  0
  6 17  2  0
  7 20  1  0
  8 23  1  0
  9 10  1  0
  9 20  1  0
 10 15  1  0
 11 12  1  0
 11 16  1  0
 11 18  1  0
 12 13  2  0
 14 19  2  0
 14 21  1  0
 19 22  1  0
 20 22  2  0
M  END
>  <ID>  (1) 
conformer_0

$$$$
