
     RDKit          3D

 18 20  0  0  0  0  0  0  0  0999 V2000
   23.6120  -53.9350   51.3489 C   0  0  0  0  0  0  0  0  0  0  0  0
   21.8006  -49.0337   52.4049 C   0  0  0  0  0  0  0  0  0  0  0  0
   23.3978  -55.1745   52.2419 C   0  0  0  0  0  0  0  0  0  0  0  0
   22.5191  -52.9228   51.1066 C   0  0  0  0  0  0  0  0  0  0  0  0
   19.9329  -52.2242   52.1298 C   0  0  0  0  0  0  0  0  0  0  0  0
   21.0093  -51.2887   52.1955 C   0  0  0  0  0  0  0  0  0  0  0  0
   21.3958  -54.0732   53.0085 C   0  0  0  0  0  0  0  0  0  0  0  0
   22.3322  -51.9139   52.2245 C   0  0  0  0  0  0  0  0  0  0  0  0
   23.6000  -49.2829   50.7354 C   0  0  0  0  0  0  0  0  0  0  0  0
   21.6025  -48.0590   53.4000 C   0  0  0  0  0  0  0  0  0  0  0  0
   23.3544  -50.8828   52.4689 C   0  0  0  0  0  0  0  0  0  0  0  0
   20.1940  -53.6259   52.2596 C   0  0  0  0  0  0  0  0  0  0  0  0
   23.0859  -49.5509   52.1027 C   0  0  0  0  0  0  0  0  0  0  0  0
   21.9529  -55.2545   52.4239 O   0  0  0  0  0  0  0  0  0  0  0  0
   22.3201  -52.9719   53.2983 C   0  0  0  0  0  0  0  0  0  0  0  0
   20.7662  -49.9256   52.0856 C   0  0  0  0  0  0  0  0  0  0  0  0
   23.8280  -50.5085   49.9007 C   0  0  0  0  0  0  0  0  0  0  0  0
   19.4497  -49.5078   51.6511 C   0  0  0  0  0  0  0  0  0  0  0  0
  1  3  1  0
  1  4  1  0
  2 10  1  0
  2 13  1  0
  2 16  1  0
  3 14  1  0
  4  8  1  0
  5  6  2  0
  5 12  1  0
  6  8  1  0
  6 16  1  0
  7 12  1  0
  7 14  1  0
  7 15  1  0
  8 11  1  0
  8 15  1  0
  9 13  1  0
  9 17  1  0
 11 13  1  0
 16 18  1  0
M  END
>  <ID>  (1) 
conformer_0

$$$$
