
     RDKit          3D

 11 11  0  0  0  0  0  0  0  0999 V2000
   19.2246  -50.0434   51.5142 O   0  0  0  0  0  0  0  0  0  0  0  0
   22.7907  -49.4924   52.0848 C   0  0  0  0  0  0  0  0  0  0  0  0
   20.2225  -52.6603   51.3633 O   0  0  0  0  0  0  0  0  0  0  0  0
   22.4711  -54.1825   52.0631 C   0  0  0  0  0  0  0  0  0  0  0  0
   23.4323  -55.2341   51.7996 O   0  0  0  0  0  0  0  0  0  0  0  0
   21.0219  -51.6460   51.4310 C   0  0  0  0  0  0  0  0  0  0  0  0
   23.0187  -53.1011   51.1686 C   0  0  0  0  0  0  0  0  0  0  0  0
   21.3873  -49.5704   52.6678 C   0  0  0  0  0  0  0  0  0  0  0  0
   22.4671  -51.7605   51.4792 C   0  0  0  0  0  0  0  0  0  0  0  0
   20.5679  -50.3073   51.6812 C   0  0  0  0  0  0  0  0  0  0  0  0
   23.1313  -50.5923   51.2240 O   0  0  0  0  0  0  0  0  0  0  0  0
  1 10  1  0
  2  8  1  0
  2 11  1  0
  3  6  1  0
  4  5  1  0
  4  7  1  0
  6  9  1  0
  6 10  1  0
  7  9  1  0
  8 10  1  0
  9 11  1  0
M  END
>  <ID>  (1) 
conformer_0

$$$$
