
     RDKit          3D

 16 18  0  0  0  0  0  0  0  0999 V2000
   20.8931  -52.5744   52.1989 C   0  0  0  0  0  0  0  0  0  0  0  0
   23.8876  -53.4531   52.8464 C   0  0  0  0  0  0  0  0  0  0  0  0
   20.2931  -50.4661   51.6415 C   0  0  0  0  0  0  0  0  0  0  0  0
   22.0160  -51.7941   52.3388 C   0  0  0  0  0  0  0  0  0  0  0  0
   21.6343  -50.4841   52.0179 C   0  0  0  0  0  0  0  0  0  0  0  0
   21.7190  -48.1232   51.5278 C   0  0  0  0  0  0  0  0  0  0  0  0
   19.7351  -51.7503   51.7728 C   0  0  0  0  0  0  0  0  0  0  0  0
   22.3605  -49.2571   51.9853 C   0  0  0  0  0  0  0  0  0  0  0  0
   23.1505  -54.5472   52.2235 N   0  0  0  0  0  0  0  0  0  0  0  0
   24.1296  -55.8459   52.3833 C   0  0  0  0  0  0  0  0  0  0  0  0
   22.0924  -55.3327   52.9961 C   0  0  0  0  0  0  0  0  0  0  0  0
   23.0352  -56.5562   53.1469 C   0  0  0  0  0  0  0  0  0  0  0  0
   23.3584  -52.1618   52.7519 C   0  0  0  0  0  0  0  0  0  0  0  0
   20.4201  -48.2054   51.1355 N   0  0  0  0  0  0  0  0  0  0  0  0
   23.6779  -49.1797   52.4116 N   0  0  0  0  0  0  0  0  0  0  0  0
   19.7042  -49.3214   51.1810 N   0  0  0  0  0  0  0  0  0  0  0  0
  1  4  1  0
  1  7  1  0
  2  9  1  0
  2 13  2  3
  3  5  1  0
  3  7  1  0
  3 16  2  0
  4  5  2  0
  4 13  1  0
  5  8  1  0
  6  8  1  0
  6 14  2  0
  8 15  1  0
  9 10  1  0
  9 11  1  0
 10 12  1  0
 11 12  1  0
 14 16  1  0
M  END
>  <ID>  (1) 
conformer_0

$$$$
