
     RDKit          3D

 22 25  0  0  0  0  0  0  0  0999 V2000
   22.6807  -56.9743   53.3264 C   0  0  0  0  0  0  0  0  0  0  0  0
   20.3422  -54.1282   52.7312 C   0  0  0  0  0  0  0  0  0  0  0  0
   23.0373  -53.2873   52.4800 C   0  0  0  0  0  0  0  0  0  0  0  0
   21.2760  -56.4841   53.0895 C   0  0  0  0  0  0  0  0  0  0  0  0
   21.7609  -48.5793   51.0224 C   0  0  0  0  0  0  0  0  0  0  0  0
   23.4405  -49.5887   49.8882 F   0  0  0  0  0  0  0  0  0  0  0  0
   23.3464  -49.2399   54.0079 O   0  0  0  0  0  0  0  0  0  0  0  0
   23.0668  -49.1589   51.1586 C   0  0  0  0  0  0  0  0  0  0  0  0
   21.9725  -51.1327   51.8740 C   0  0  0  0  0  0  0  0  0  0  0  0
   24.1581  -48.4362   51.4442 F   0  0  0  0  0  0  0  0  0  0  0  0
   23.6380  -55.6552   53.0924 C   0  0  0  0  0  0  0  0  0  0  0  0
   23.0857  -50.3381   52.0201 C   0  0  0  0  0  0  0  0  0  0  0  0
   22.6993  -54.6296   52.6003 C   0  0  0  0  0  0  0  0  0  0  0  0
   21.9557  -52.3761   52.4535 C   0  0  0  0  0  0  0  0  0  0  0  0
   24.5420  -51.0598   53.7281 O   0  0  0  0  0  0  0  0  0  0  0  0
   21.3576  -55.0941   52.7442 C   0  0  0  0  0  0  0  0  0  0  0  0
   19.8609  -51.7491   52.1161 C   0  0  0  0  0  0  0  0  0  0  0  0
   20.5329  -49.2758   51.4348 S   0  0  0  0  0  0  0  0  0  0  0  0
   23.6935  -50.2286   53.3443 C   0  0  0  0  0  0  0  0  0  0  0  0
   20.6535  -52.8070   52.4814 C   0  0  0  0  0  0  0  0  0  0  0  0
   23.5445  -56.7329   52.2847 O   0  0  0  0  0  0  0  0  0  0  0  0
   20.6712  -50.7184   51.6190 C   0  0  0  0  0  0  0  0  0  0  0  0
  1  4  1  0
  1 21  1  0
  2 16  2  0
  2 20  1  0
  3 13  1  0
  3 14  1  0
  4 16  1  0
  5  8  1  0
  5 18  1  0
  6  8  1  0
  7 19  2  0
  8 10  1  0
  8 12  1  0
  9 12  1  0
  9 14  1  0
  9 22  1  0
 11 13  1  0
 11 21  1  0
 12 19  1  0
 13 16  1  0
 14 20  2  0
 15 19  1  0
 17 20  1  0
 17 22  1  0
 18 22  1  0
M  END
>  <ID>  (1) 
conformer_0

$$$$
