
     RDKit          3D

 10 10  0  0  0  0  0  0  0  0999 V2000
   19.0607  -52.5077   53.1361 O   0  0  0  0  0  0  0  0  0  0  0  0
   21.0368  -49.7763   51.8862 C   0  0  0  0  0  0  0  0  0  0  0  0
   23.3429  -53.8486   51.0707 C   0  0  0  0  0  0  0  0  0  0  0  0
   22.0753  -50.4700   51.3394 C   0  0  0  0  0  0  0  0  0  0  0  0
   23.3978  -49.5670   50.9802 Cl  0  0  0  0  0  0  0  0  0  0  0  0
   22.0172  -51.8645   51.1327 C   0  0  0  0  0  0  0  0  0  0  0  0
   20.9850  -52.5420   51.7952 C   0  0  0  0  0  0  0  0  0  0  0  0
   22.9158  -52.6590   50.2387 C   0  0  0  0  0  0  0  0  0  0  0  0
   19.9903  -51.8387   52.4530 C   0  0  0  0  0  0  0  0  0  0  0  0
   19.9891  -50.4338   52.4254 C   0  0  0  0  0  0  0  0  0  0  0  0
  1  9  1  0
  2  4  1  0
  2 10  2  0
  3  8  1  0
  4  5  1  0
  4  6  1  0
  6  7  1  0
  6  8  1  0
  7  9  2  0
  9 10  1  0
M  END
>  <ID>  (1) 
conformer_0

$$$$
