
     RDKit          3D

 28 31  0  0  0  0  0  0  0  0999 V2000
   24.3931  -48.6182   51.8679 C   0  0  0  0  0  0  0  0  0  0  0  0
   21.7752  -49.3623   52.6785 C   0  0  0  0  0  0  0  0  0  0  0  0
   22.2645  -49.3974   51.3950 C   0  0  0  0  0  0  0  0  0  0  0  0
   18.4694  -50.2449   51.2953 O   0  0  0  0  0  0  0  0  0  0  0  0
   24.9746  -47.6974   53.8989 C   0  0  0  0  0  0  0  0  0  0  0  0
   23.4893  -49.1125   50.9594 C   0  0  0  0  0  0  0  0  0  0  0  0
   19.8045  -52.6962   52.5407 C   0  0  0  0  0  0  0  0  0  0  0  0
   24.2272  -46.6460   55.8447 C   0  0  0  0  0  0  0  0  0  0  0  0
   22.2663  -47.7852   54.6998 C   0  0  0  0  0  0  0  0  0  0  0  0
   23.6905  -58.3882   54.4215 N   0  0  0  0  0  0  0  0  0  0  0  0
   21.1521  -54.6956   52.7562 C   0  0  0  0  0  0  0  0  0  0  0  0
   22.6164  -48.4678   53.5338 C   0  0  0  0  0  0  0  0  0  0  0  0
   22.2465  -53.9056   52.3584 C   0  0  0  0  0  0  0  0  0  0  0  0
   18.8618  -54.7454   53.0270 O   0  0  0  0  0  0  0  0  0  0  0  0
   19.9201  -54.0415   52.7747 C   0  0  0  0  0  0  0  0  0  0  0  0
   22.5422  -57.6706   54.3255 C   0  0  0  0  0  0  0  0  0  0  0  0
   20.8696  -51.9017   52.3103 C   0  0  0  0  0  0  0  0  0  0  0  0
   23.4824  -56.5646   52.4406 C   0  0  0  0  0  0  0  0  0  0  0  0
   19.4750  -49.9341   51.8740 C   0  0  0  0  0  0  0  0  0  0  0  0
   22.3809  -56.7174   53.3363 C   0  0  0  0  0  0  0  0  0  0  0  0
   25.2796  -47.0155   54.9906 C   0  0  0  0  0  0  0  0  0  0  0  0
   22.1230  -52.5397   52.1412 C   0  0  0  0  0  0  0  0  0  0  0  0
   21.1677  -56.0489   53.1992 C   0  0  0  0  0  0  0  0  0  0  0  0
   22.9578  -47.0487   55.5616 C   0  0  0  0  0  0  0  0  0  0  0  0
   24.7187  -58.2611   53.5311 C   0  0  0  0  0  0  0  0  0  0  0  0
   24.6109  -57.3313   52.5209 C   0  0  0  0  0  0  0  0  0  0  0  0
   23.9740  -48.2534   53.1520 C   0  0  0  0  0  0  0  0  0  0  0  0
   20.6198  -50.5412   52.3373 N   0  0  0  0  0  0  0  0  0  0  0  0
  1  6  1  0
  1 27  2  0
  2  3  1  0
  2 12  1  0
  2 28  1  0
  3  6  2  0
  4 19  2  0
  5 21  2  0
  5 27  1  0
  7 15  2  0
  7 17  1  0
  8 21  1  0
  8 24  1  0
  9 12  1  0
  9 24  2  0
 10 16  2  0
 10 25  1  0
 11 13  2  0
 11 15  1  0
 11 23  1  0
 12 27  1  0
 13 22  1  0
 14 15  1  0
 16 20  1  0
 17 22  2  0
 17 28  1  0
 18 20  2  0
 18 26  1  0
 19 28  1  0
 20 23  1  0
 25 26  2  0
M  END
>  <ID>  (1) 
conformer_0

$$$$
