
     RDKit          3D

 21 23  0  0  0  0  0  0  0  0999 V2000
   23.4100  -53.3078   50.8318 O   0  0  0  0  0  0  0  0  0  0  0  0
   22.3531  -48.7791   50.8606 C   0  0  0  0  0  0  0  0  0  0  0  0
   24.2651  -53.8140   54.1934 C   0  0  0  0  0  0  0  0  0  0  0  0
   22.3948  -54.4413   52.4378 C   0  0  0  0  0  0  0  0  0  0  0  0
   23.6807  -50.7028   51.1285 C   0  0  0  0  0  0  0  0  0  0  0  0
   24.1939  -51.4171   53.8116 O   0  0  0  0  0  0  0  0  0  0  0  0
   24.5739  -49.0649   49.8106 O   0  0  0  0  0  0  0  0  0  0  0  0
   20.1539  -51.4799   51.8940 N   0  0  0  0  0  0  0  0  0  0  0  0
   22.6112  -51.3914   51.6441 C   0  0  0  0  0  0  0  0  0  0  0  0
   21.2785  -50.7922   51.6201 C   0  0  0  0  0  0  0  0  0  0  0  0
   18.8075  -49.5318   51.4399 N   0  0  0  0  0  0  0  0  0  0  0  0
   23.6968  -55.2953   52.2817 C   0  0  0  0  0  0  0  0  0  0  0  0
   21.7444  -54.4824   53.5729 O   0  0  0  0  0  0  0  0  0  0  0  0
   25.2673  -53.4514   55.1099 O   0  0  0  0  0  0  0  0  0  0  0  0
   24.6014  -55.0875   53.4728 C   0  0  0  0  0  0  0  0  0  0  0  0
   22.9243  -52.8461   52.1578 C   0  0  0  0  0  0  0  0  0  0  0  0
   21.1907  -49.4503   51.2581 N   0  0  0  0  0  0  0  0  0  0  0  0
   23.8171  -52.7046   53.3356 C   0  0  0  0  0  0  0  0  0  0  0  0
   18.9923  -50.9058   51.8104 C   0  0  0  0  0  0  0  0  0  0  0  0
   19.9469  -48.8828   51.2248 C   0  0  0  0  0  0  0  0  0  0  0  0
   23.5333  -49.4458   50.6149 N   0  0  0  0  0  0  0  0  0  0  0  0
  1 16  1  0
  2 17  1  0
  2 21  1  0
  3 14  1  0
  3 15  1  0
  3 18  1  0
  4 12  1  0
  4 13  1  0
  4 16  1  0
  5  9  1  0
  5 21  1  0
  6 18  1  0
  7 21  1  0
  8 10  1  0
  8 19  2  0
  9 10  2  0
  9 16  1  0
 10 17  1  0
 11 19  1  0
 11 20  1  0
 12 15  1  0
 16 18  1  0
 17 20  1  0
M  END
>  <ID>  (1) 
conformer_0

$$$$
