
     RDKit          3D

 30 32  0  0  0  0  0  0  0  0999 V2000
   24.5869  -48.5489   54.1179 C   0  0  0  0  0  0  0  0  0  0  0  0
   20.0071  -50.0280   51.2425 O   0  0  0  0  0  0  0  0  0  0  0  0
   19.9227  -55.6620   52.3937 Cl  0  0  0  0  0  0  0  0  0  0  0  0
   20.8706  -49.5610   52.2981 C   0  0  0  0  0  0  0  0  0  0  0  0
   23.9651  -48.6134   49.2979 N   0  0  0  0  0  0  0  0  0  0  0  0
   24.5856  -49.0148   52.7764 C   0  0  0  0  0  0  0  0  0  0  0  0
   23.3740  -48.9528   52.0686 C   0  0  0  0  0  0  0  0  0  0  0  0
   23.3229  -53.8871   53.1497 C   0  0  0  0  0  0  0  0  0  0  0  0
   21.4618  -50.8625   52.4568 N   0  0  0  0  0  0  0  0  0  0  0  0
   25.8583  -48.2723   44.6641 O   0  0  0  0  0  0  0  0  0  0  0  0
   26.6872  -48.6464   46.9042 C   0  0  0  0  0  0  0  0  0  0  0  0
   21.7753  -52.0716   52.6065 C   0  0  0  0  0  0  0  0  0  0  0  0
   23.0349  -52.5411   53.0910 C   0  0  0  0  0  0  0  0  0  0  0  0
   25.6546  -48.4985   45.9914 C   0  0  0  0  0  0  0  0  0  0  0  0
   24.4204  -48.5303   46.7229 C   0  0  0  0  0  0  0  0  0  0  0  0
   23.9965  -51.7192   53.5852 O   0  0  0  0  0  0  0  0  0  0  0  0
   26.1279  -48.6619   48.2756 C   0  0  0  0  0  0  0  0  0  0  0  0
   25.5903  -48.8815   54.8932 O   0  0  0  0  0  0  0  0  0  0  0  0
   20.0072  -48.5742   52.6598 O   0  0  0  0  0  0  0  0  0  0  0  0
   23.5081  -47.8699   54.6117 C   0  0  0  0  0  0  0  0  0  0  0  0
   21.3495  -47.0552   54.3828 N   0  0  0  0  0  0  0  0  0  0  0  0
   22.1920  -48.6869   52.7984 C   0  0  0  0  0  0  0  0  0  0  0  0
   27.0158  -49.0046   44.0230 C   0  0  0  0  0  0  0  0  0  0  0  0
   23.5872  -48.9283   50.5538 C   0  0  0  0  0  0  0  0  0  0  0  0
   24.7470  -48.5954   48.1909 C   0  0  0  0  0  0  0  0  0  0  0  0
   22.2900  -47.8832   53.9413 C   0  0  0  0  0  0  0  0  0  0  0  0
   22.3651  -54.7760   52.8815 C   0  0  0  0  0  0  0  0  0  0  0  0
   19.5679  -52.7905   51.8584 N   0  0  0  0  0  0  0  0  0  0  0  0
   20.8328  -53.0793   52.3126 C   0  0  0  0  0  0  0  0  0  0  0  0
   21.1369  -54.4187   52.5353 C   0  0  0  0  0  0  0  0  0  0  0  0
  1  6  2  0
  1 18  1  0
  1 20  1  0
  2  4  1  0
  3 30  1  0
  4  9  1  0
  4 19  1  0
  4 22  1  0
  5 24  1  0
  5 25  1  0
  6  7  1  0
  7 22  1  0
  7 24  1  0
  8 13  2  0
  8 27  1  0
  9 12  1  0
 10 14  1  0
 10 23  1  0
 11 14  1  0
 11 17  1  0
 12 13  1  0
 12 29  2  0
 13 16  1  0
 14 15  1  0
 15 25  1  0
 17 25  1  0
 20 26  1  0
 21 26  2  0
 22 26  1  0
 27 30  2  0
 28 29  1  0
 29 30  1  0
M  END
>  <ID>  (1) 
conformer_0

$$$$
