
     RDKit          3D

 23 24  0  0  0  0  0  0  0  0999 V2000
   24.1899  -49.6845   47.8923 C   0  0  0  0  0  0  0  0  0  0  0  0
   21.7619  -54.3740   53.2529 C   0  0  0  0  0  0  0  0  0  0  0  0
   24.3990  -49.2797   53.4425 C   0  0  0  0  0  0  0  0  0  0  0  0
   19.6472  -51.1168   51.6633 C   0  0  0  0  0  0  0  0  0  0  0  0
   25.1782  -48.8355   47.2167 C   0  0  0  0  0  0  0  0  0  0  0  0
   22.5856  -47.2246   53.5815 C   0  0  0  0  0  0  0  0  0  0  0  0
   22.5959  -54.0660   52.1235 C   0  0  0  0  0  0  0  0  0  0  0  0
   23.1505  -56.1961   53.0482 C   0  0  0  0  0  0  0  0  0  0  0  0
   22.1923  -48.4285   53.1055 C   0  0  0  0  0  0  0  0  0  0  0  0
   22.7505  -50.5350   52.1471 C   0  0  0  0  0  0  0  0  0  0  0  0
   24.0761  -49.9869   49.3857 C   0  0  0  0  0  0  0  0  0  0  0  0
   20.8691  -48.6229   52.8129 O   0  0  0  0  0  0  0  0  0  0  0  0
   23.8689  -47.0502   53.9943 C   0  0  0  0  0  0  0  0  0  0  0  0
   23.1225  -49.4666   52.8612 C   0  0  0  0  0  0  0  0  0  0  0  0
   22.7221  -52.7891   51.4747 C   0  0  0  0  0  0  0  0  0  0  0  0
   24.7621  -48.0899   53.9497 C   0  0  0  0  0  0  0  0  0  0  0  0
   22.0509  -51.6852   52.0265 C   0  0  0  0  0  0  0  0  0  0  0  0
   23.5883  -55.1092   52.1034 C   0  0  0  0  0  0  0  0  0  0  0  0
   20.6142  -51.8129   52.3995 C   0  0  0  0  0  0  0  0  0  0  0  0
   23.8445  -51.2538   49.8603 C   0  0  0  0  0  0  0  0  0  0  0  0
   23.5679  -52.3979   50.3721 C   0  0  0  0  0  0  0  0  0  0  0  0
   21.7188  -55.8108   53.3687 O   0  0  0  0  0  0  0  0  0  0  0  0
   20.0681  -52.5221   53.2522 O   0  0  0  0  0  0  0  0  0  0  0  0
  1  5  1  0
  1 11  1  0
  2  7  1  0
  2 22  1  0
  3 14  2  0
  3 16  1  0
  4 19  1  0
  6  9  2  0
  6 13  1  0
  7 15  1  0
  7 18  1  0
  8 18  1  0
  8 22  1  0
  9 12  1  0
  9 14  1  0
 10 14  1  0
 10 17  1  0
 11 20  2  0
 13 16  2  0
 15 17  1  0
 15 21  1  0
 17 19  1  0
 19 23  2  0
 20 21  2  0
M  END
>  <ID>  (1) 
conformer_0

$$$$
