
     RDKit          3D

 15 17  0  0  0  0  0  0  0  0999 V2000
   23.0637  -49.8147   51.7353 C   0  0  0  0  0  0  0  0  0  0  0  0
   22.7453  -48.4802   51.6301 C   0  0  0  0  0  0  0  0  0  0  0  0
   20.8030  -50.7803   51.9906 C   0  0  0  0  0  0  0  0  0  0  0  0
   22.6173  -52.2410   51.8750 C   0  0  0  0  0  0  0  0  0  0  0  0
   21.6963  -54.3898   52.4481 C   0  0  0  0  0  0  0  0  0  0  0  0
   22.2050  -50.8823   51.8180 C   0  0  0  0  0  0  0  0  0  0  0  0
   19.1938  -52.3659   52.9552 O   0  0  0  0  0  0  0  0  0  0  0  0
   21.3844  -53.0689   52.3433 C   0  0  0  0  0  0  0  0  0  0  0  0
   23.0784  -54.5617   52.0273 C   0  0  0  0  0  0  0  0  0  0  0  0
   23.5991  -53.2265   51.6523 C   0  0  0  0  0  0  0  0  0  0  0  0
   21.5123  -47.9614   51.5348 C   0  0  0  0  0  0  0  0  0  0  0  0
   20.3055  -52.1167   52.4421 C   0  0  0  0  0  0  0  0  0  0  0  0
   18.5759  -50.0427   51.5725 O   0  0  0  0  0  0  0  0  0  0  0  0
   19.8640  -49.7328   51.6931 C   0  0  0  0  0  0  0  0  0  0  0  0
   20.2637  -48.4108   51.5074 C   0  0  0  0  0  0  0  0  0  0  0  0
  1  2  2  0
  1  6  1  0
  2 11  1  0
  3  6  1  0
  3 12  1  0
  3 14  1  0
  4  6  1  0
  4  8  2  0
  4 10  1  0
  5  8  1  0
  5  9  1  0
  7 12  2  0
  8 12  1  0
  9 10  1  0
 11 15  2  0
 13 14  1  0
 14 15  1  0
M  END
>  <ID>  (1) 
conformer_0

$$$$
