
     RDKit          3D

 21 22  0  0  0  0  0  0  0  0999 V2000
   23.8224  -50.4706   51.1751 F   0  0  0  0  0  0  0  0  0  0  0  0
   24.5581  -58.1650   52.2023 C   0  0  0  0  0  0  0  0  0  0  0  0
   18.4636  -50.9591   51.8952 F   0  0  0  0  0  0  0  0  0  0  0  0
   24.5279  -53.1506   53.5582 C   0  0  0  0  0  0  0  0  0  0  0  0
   25.6235  -54.0781   53.6990 C   0  0  0  0  0  0  0  0  0  0  0  0
   20.3162  -49.5536   51.6889 C   0  0  0  0  0  0  0  0  0  0  0  0
   19.4729  -48.4309   51.5589 C   0  0  0  0  0  0  0  0  0  0  0  0
   23.3254  -54.8210   52.3235 C   0  0  0  0  0  0  0  0  0  0  0  0
   19.7820  -50.8115   51.7909 C   0  0  0  0  0  0  0  0  0  0  0  0
   20.5973  -51.9151   51.8038 C   0  0  0  0  0  0  0  0  0  0  0  0
   22.5149  -50.5571   51.5298 C   0  0  0  0  0  0  0  0  0  0  0  0
   22.9111  -52.7622   51.7324 C   0  0  0  0  0  0  0  0  0  0  0  0
   21.7589  -49.4054   51.7303 C   0  0  0  0  0  0  0  0  0  0  0  0
   25.5098  -55.4477   53.1670 C   0  0  0  0  0  0  0  0  0  0  0  0
   26.4561  -56.2865   53.0932 O   0  0  0  0  0  0  0  0  0  0  0  0
   24.2481  -55.7754   52.6931 N   0  0  0  0  0  0  0  0  0  0  0  0
   21.9893  -51.7460   51.7153 C   0  0  0  0  0  0  0  0  0  0  0  0
   22.1465  -48.3693   50.7810 F   0  0  0  0  0  0  0  0  0  0  0  0
   23.7376  -57.1150   52.6709 C   0  0  0  0  0  0  0  0  0  0  0  0
   23.4556  -53.4984   52.7519 C   0  0  0  0  0  0  0  0  0  0  0  0
   22.1734  -48.8145   52.9368 F   0  0  0  0  0  0  0  0  0  0  0  0
  1 11  1  0
  2 19  1  0
  3  9  1  0
  4  5  2  0
  4 20  1  0
  5 14  1  0
  6  7  1  0
  6  9  2  0
  6 13  1  0
  8 16  1  0
  8 20  1  0
  9 10  1  0
 10 17  2  0
 11 13  1  0
 11 17  1  0
 12 17  1  0
 12 20  1  0
 13 18  1  0
 13 21  1  0
 14 15  2  0
 14 16  1  0
 16 19  1  0
M  END
>  <ID>  (1) 
conformer_0

$$$$
