
     RDKit          3D

 21 24  0  0  0  0  0  0  0  0999 V2000
   22.1402  -56.1641   53.1312 C   0  0  0  0  0  0  0  0  0  0  0  0
   22.1714  -54.7947   52.8112 C   0  0  0  0  0  0  0  0  0  0  0  0
   24.4788  -56.3200   52.6945 C   0  0  0  0  0  0  0  0  0  0  0  0
   22.3718  -50.6265   52.5881 C   0  0  0  0  0  0  0  0  0  0  0  0
   19.3736  -48.8316   51.3335 O   0  0  0  0  0  0  0  0  0  0  0  0
   20.0459  -49.8612   51.7298 C   0  0  0  0  0  0  0  0  0  0  0  0
   25.7270  -57.1552   52.4365 C   0  0  0  0  0  0  0  0  0  0  0  0
   22.8230  -47.9504   53.2139 C   0  0  0  0  0  0  0  0  0  0  0  0
   22.2614  -52.0440   52.4667 C   0  0  0  0  0  0  0  0  0  0  0  0
   19.4454  -51.0924   51.5307 C   0  0  0  0  0  0  0  0  0  0  0  0
   21.3755  -49.6554   52.3603 C   0  0  0  0  0  0  0  0  0  0  0  0
   23.8408  -48.8847   53.3361 C   0  0  0  0  0  0  0  0  0  0  0  0
   23.2994  -56.9331   53.0599 C   0  0  0  0  0  0  0  0  0  0  0  0
   24.5461  -54.9313   52.5220 C   0  0  0  0  0  0  0  0  0  0  0  0
   23.3758  -52.8059   52.5625 N   0  0  0  0  0  0  0  0  0  0  0  0
   23.3753  -54.1463   52.6320 C   0  0  0  0  0  0  0  0  0  0  0  0
   21.0736  -52.7426   52.2989 C   0  0  0  0  0  0  0  0  0  0  0  0
   21.0299  -54.0826   52.6378 O   0  0  0  0  0  0  0  0  0  0  0  0
   23.6331  -50.1993   53.0130 C   0  0  0  0  0  0  0  0  0  0  0  0
   19.9007  -52.2683   51.8029 C   0  0  0  0  0  0  0  0  0  0  0  0
   21.6093  -48.3446   52.7031 C   0  0  0  0  0  0  0  0  0  0  0  0
  1  2  2  0
  1 13  1  0
  2 16  1  0
  2 18  1  0
  3  7  1  0
  3 13  2  0
  3 14  1  0
  4  9  2  0
  4 11  1  0
  4 19  1  0
  5  6  1  0
  6 10  1  0
  6 11  1  0
  8 12  1  0
  8 21  1  0
  9 15  1  0
  9 17  1  0
 10 20  2  0
 11 21  2  0
 12 19  2  0
 14 16  1  0
 15 16  2  0
 17 18  1  0
 17 20  1  0
M  END
>  <ID>  (1) 
conformer_0

$$$$
