
     RDKit          3D

 15 17  0  0  0  0  0  0  0  0999 V2000
   22.9120  -55.2909   52.5231 C   0  0  0  0  0  0  0  0  0  0  0  0
   19.0536  -51.3420   52.0401 C   0  0  0  0  0  0  0  0  0  0  0  0
   20.4069  -51.4912   52.0078 C   0  0  0  0  0  0  0  0  0  0  0  0
   18.4356  -50.1169   51.6873 C   0  0  0  0  0  0  0  0  0  0  0  0
   22.5439  -50.7890   51.5425 C   0  0  0  0  0  0  0  0  0  0  0  0
   23.4613  -49.9862   51.5365 O   0  0  0  0  0  0  0  0  0  0  0  0
   23.6826  -54.4449   51.7924 C   0  0  0  0  0  0  0  0  0  0  0  0
   21.2824  -52.5805   52.2340 C   0  0  0  0  0  0  0  0  0  0  0  0
   21.1739  -50.3718   51.5975 C   0  0  0  0  0  0  0  0  0  0  0  0
   22.5854  -52.2196   51.7795 C   0  0  0  0  0  0  0  0  0  0  0  0
   23.5656  -53.1114   51.5172 C   0  0  0  0  0  0  0  0  0  0  0  0
   21.6760  -54.9257   53.0291 C   0  0  0  0  0  0  0  0  0  0  0  0
   21.0298  -53.7616   52.8312 C   0  0  0  0  0  0  0  0  0  0  0  0
   19.2392  -49.0312   51.3292 C   0  0  0  0  0  0  0  0  0  0  0  0
   20.6020  -49.1699   51.2967 C   0  0  0  0  0  0  0  0  0  0  0  0
  1  7  2  0
  1 12  1  0
  2  3  1  0
  2  4  2  0
  3  8  1  0
  3  9  2  0
  4 14  1  0
  5  6  2  0
  5  9  1  0
  5 10  1  0
  7 11  1  0
  8 10  1  0
  8 13  1  0
  9 15  1  0
 10 11  2  0
 12 13  2  0
 14 15  2  0
M  END
>  <ID>  (1) 
conformer_0

$$$$
