
     RDKit          3D

 21 25  0  0  0  0  0  0  0  0999 V2000
   21.0024  -54.3668   52.2024 C   0  0  0  0  0  0  0  0  0  0  0  0
   19.5817  -51.7508   51.6735 C   0  0  0  0  0  0  0  0  0  0  0  0
   19.3246  -50.3318   51.6060 C   0  0  0  0  0  0  0  0  0  0  0  0
   25.7850  -47.6425   54.0713 C   0  0  0  0  0  0  0  0  0  0  0  0
   23.4456  -47.9706   53.5446 C   0  0  0  0  0  0  0  0  0  0  0  0
   24.9824  -53.0792   53.0644 C   0  0  0  0  0  0  0  0  0  0  0  0
   21.6665  -55.4158   52.9404 C   0  0  0  0  0  0  0  0  0  0  0  0
   23.9519  -52.0710   52.9541 C   0  0  0  0  0  0  0  0  0  0  0  0
   20.8874  -51.8975   52.1263 C   0  0  0  0  0  0  0  0  0  0  0  0
   23.8823  -50.6861   53.0539 C   0  0  0  0  0  0  0  0  0  0  0  0
   21.6224  -53.0963   52.2578 C   0  0  0  0  0  0  0  0  0  0  0  0
   22.6244  -48.6428   52.6272 C   0  0  0  0  0  0  0  0  0  0  0  0
   23.1700  -55.3181   53.1278 C   0  0  0  0  0  0  0  0  0  0  0  0
   21.4848  -50.6721   52.3629 C   0  0  0  0  0  0  0  0  0  0  0  0
   24.7690  -48.5190   53.4873 C   0  0  0  0  0  0  0  0  0  0  0  0
   23.8620  -54.1991   52.3815 C   0  0  0  0  0  0  0  0  0  0  0  0
   26.0915  -50.4752   54.0991 C   0  0  0  0  0  0  0  0  0  0  0  0
   24.8764  -49.9004   53.6249 C   0  0  0  0  0  0  0  0  0  0  0  0
   22.6934  -50.0430   52.7434 C   0  0  0  0  0  0  0  0  0  0  0  0
   22.9645  -53.0011   52.5748 C   0  0  0  0  0  0  0  0  0  0  0  0
   20.4255  -49.6975   52.1955 C   0  0  0  0  0  0  0  0  0  0  0  0
  1  7  1  0
  1 11  1  0
  2  3  1  0
  2  9  1  0
  3 21  1  0
  4 15  1  0
  5 12  1  0
  5 15  1  0
  6  8  1  0
  6 16  1  0
  7 13  2  0
  8 10  2  0
  8 20  1  0
  9 11  2  0
  9 14  1  0
 10 18  1  0
 10 19  1  0
 11 20  1  0
 12 19  1  0
 13 16  1  0
 14 19  2  0
 14 21  1  0
 15 18  1  0
 16 20  1  0
 17 18  1  0
M  END
>  <ID>  (1) 
conformer_0

$$$$
