
     RDKit          3D

 23 24  0  0  0  0  0  0  0  0999 V2000
   24.2455  -54.8047   52.2565 C   0  0  0  0  0  0  0  0  0  0  0  0
   21.3757  -50.7424   51.8120 C   0  0  0  0  0  0  0  0  0  0  0  0
   25.5392  -48.2779   46.7082 C   0  0  0  0  0  0  0  0  0  0  0  0
   24.6659  -49.2888   47.2869 C   0  0  0  0  0  0  0  0  0  0  0  0
   22.8927  -51.2686   51.9364 S   0  0  0  0  0  4  0  0  0  0  0  0
   20.2382  -51.5456   51.7283 C   0  0  0  0  0  0  0  0  0  0  0  0
   23.5122  -57.0393   52.9755 C   0  0  0  0  0  0  0  0  0  0  0  0
   22.8850  -52.8475   52.2522 C   0  0  0  0  0  0  0  0  0  0  0  0
   23.4928  -50.6474   53.0204 O   0  0  0  0  0  0  0  0  0  0  0  0
   26.2283  -48.4415   45.4025 C   0  0  0  0  0  0  0  0  0  0  0  0
   24.2680  -49.3984   48.7582 C   0  0  0  0  0  0  0  0  0  0  0  0
   21.9990  -55.0043   53.0404 C   0  0  0  0  0  0  0  0  0  0  0  0
   21.8399  -53.6265   52.7894 C   0  0  0  0  0  0  0  0  0  0  0  0
   18.9712  -50.9856   51.5373 C   0  0  0  0  0  0  0  0  0  0  0  0
   19.9508  -48.7972   51.6459 C   0  0  0  0  0  0  0  0  0  0  0  0
   22.8049  -57.7609   53.7082 O   0  0  0  0  0  0  0  0  0  0  0  0
   23.6831  -49.8436   50.0620 C   0  0  0  0  0  0  0  0  0  0  0  0
   23.2372  -55.6192   52.7775 C   0  0  0  0  0  0  0  0  0  0  0  0
   24.6029  -57.5028   52.4092 N   0  0  0  0  0  0  0  0  0  0  0  0
   21.1829  -49.3755   51.7937 C   0  0  0  0  0  0  0  0  0  0  0  0
   24.0798  -53.4511   52.0258 C   0  0  0  0  0  0  0  0  0  0  0  0
   23.6802  -51.0721   50.6388 O   0  0  0  0  0  0  0  0  0  0  0  0
   18.8341  -49.5861   51.4688 C   0  0  0  0  0  0  0  0  0  0  0  0
  1 18  2  0
  1 21  1  0
  2  5  1  0
  2  6  2  0
  2 20  1  0
  3  4  1  0
  3 10  1  0
  4 11  2  0
  5  8  1  0
  5  9  1  0
  5 22  1  0
  6 14  1  0
  7 16  2  0
  7 18  1  0
  7 19  1  0
  8 13  1  0
  8 21  2  0
 11 17  2  0
 12 13  2  0
 12 18  1  0
 14 23  2  0
 15 20  2  0
 15 23  1  0
 17 22  1  0
M  END
>  <ID>  (1) 
conformer_0

$$$$
