
     RDKit          3D

 17 18  0  0  0  0  0  0  0  0999 V2000
   21.7831  -49.4358   51.5786 C   0  0  0  0  0  0  0  0  0  0  0  0
   21.8471  -50.7757   51.5864 C   0  0  0  0  0  0  0  0  0  0  0  0
   20.9135  -54.1264   52.7056 C   0  0  0  0  0  0  0  0  0  0  0  0
   23.5358  -56.7196   53.5116 C   0  0  0  0  0  0  0  0  0  0  0  0
   23.0905  -48.7885   51.4645 C   0  0  0  0  0  0  0  0  0  0  0  0
   18.9595  -50.5331   51.5220 C   0  0  0  0  0  0  0  0  0  0  0  0
   19.3404  -49.2361   51.5444 C   0  0  0  0  0  0  0  0  0  0  0  0
   21.0369  -51.8376   51.7346 C   0  0  0  0  0  0  0  0  0  0  0  0
   21.4836  -55.2962   53.1508 C   0  0  0  0  0  0  0  0  0  0  0  0
   23.5064  -48.1607   52.4417 O   0  0  0  0  0  0  0  0  0  0  0  0
   23.5825  -54.6422   52.1237 C   0  0  0  0  0  0  0  0  0  0  0  0
   20.6028  -48.6845   51.5905 C   0  0  0  0  0  0  0  0  0  0  0  0
   22.8424  -55.5336   52.9143 C   0  0  0  0  0  0  0  0  0  0  0  0
   21.6263  -53.1416   52.0259 C   0  0  0  0  0  0  0  0  0  0  0  0
   23.6884  -49.0345   50.4003 O   0  0  0  0  0  0  0  0  0  0  0  0
   22.9635  -53.4433   51.7065 C   0  0  0  0  0  0  0  0  0  0  0  0
   19.6425  -51.6956   51.6426 C   0  0  0  0  0  0  0  0  0  0  0  0
  1  2  2  0
  1  5  1  0
  1 12  1  0
  2  8  1  0
  3  9  2  0
  3 14  1  0
  4 13  1  0
  5 10  2  0
  5 15  1  0
  6  7  2  0
  6 17  1  0
  7 12  1  0
  8 14  1  0
  8 17  2  0
  9 13  1  0
 11 13  2  0
 11 16  1  0
 14 16  2  0
M  END
>  <ID>  (1) 
conformer_0

$$$$
