
     RDKit          3D

 13 13  0  0  0  0  0  0  0  0999 V2000
   23.2374  -53.1516   52.6787 O   0  0  0  0  0  0  0  0  0  0  0  0
   21.0669  -52.7595   51.7885 C   0  0  0  0  0  0  0  0  0  0  0  0
   23.4774  -55.5010   52.2101 O   0  0  0  0  0  0  0  0  0  0  0  0
   23.9670  -54.3451   52.9652 C   0  0  0  0  0  0  0  0  0  0  0  0
   18.8414  -50.6780   51.4588 O   0  0  0  0  0  0  0  0  0  0  0  0
   21.9855  -49.2571   51.6182 O   0  0  0  0  0  0  0  0  0  0  0  0
   22.2998  -50.5626   51.7660 N   0  0  0  0  0  0  0  0  0  0  0  0
   20.5913  -49.1651   51.4603 N   0  0  0  0  0  0  0  0  0  0  0  0
   22.8656  -56.4931   53.0791 C   0  0  0  0  0  0  0  0  0  0  0  0
   22.2901  -53.4100   51.6447 C   0  0  0  0  0  0  0  0  0  0  0  0
   20.0919  -50.4184   51.5477 C   0  0  0  0  0  0  0  0  0  0  0  0
   21.1660  -51.3187   51.7243 C   0  0  0  0  0  0  0  0  0  0  0  0
   23.0073  -56.1474   54.4906 C   0  0  0  0  0  0  0  0  0  0  0  0
  1  4  1  0
  1 10  1  0
  2 10  1  0
  2 12  1  0
  3  4  1  0
  3  9  1  0
  5 11  2  0
  6  7  1  0
  6  8  1  0
  7 12  1  0
  8 11  1  0
  9 13  1  0
 11 12  1  0
M  END
>  <ID>  (1) 
conformer_0

$$$$
