
     RDKit          3D

 25 26  0  0  0  0  0  0  0  0999 V2000
   24.6997  -56.1027   53.3294 C   0  0  0  0  0  0  0  0  0  0  0  0
   19.3521  -53.1130   53.7072 O   0  0  0  0  0  0  0  0  0  0  0  0
   18.8714  -50.4166   51.3039 C   0  0  0  0  0  0  0  0  0  0  0  0
   20.9999  -51.5336   52.1460 C   0  0  0  0  0  0  0  0  0  0  0  0
   23.1931  -49.0392   50.3420 C   0  0  0  0  0  0  0  0  0  0  0  0
   26.1539  -56.1734   53.5257 C   0  0  0  0  0  0  0  0  0  0  0  0
   21.5329  -53.7750   52.9611 N   0  0  0  0  0  0  0  0  0  0  0  0
   21.9222  -56.1327   52.9172 C   0  0  0  0  0  0  0  0  0  0  0  0
   22.6278  -57.3172   53.0417 C   0  0  0  0  0  0  0  0  0  0  0  0
   26.7427  -57.3031   53.2176 O   0  0  0  0  0  0  0  0  0  0  0  0
   19.4571  -55.0265   52.7433 O   0  0  0  0  0  0  0  0  0  0  0  0
   24.5913  -48.9527   48.2356 C   0  0  0  0  0  0  0  0  0  0  0  0
   21.3053  -50.3360   51.5632 C   0  0  0  0  0  0  0  0  0  0  0  0
   24.0028  -57.3116   53.2386 C   0  0  0  0  0  0  0  0  0  0  0  0
   20.0730  -53.9798   53.1401 C   0  0  0  0  0  0  0  0  0  0  0  0
   23.5955  -50.7992   52.0503 C   0  0  0  0  0  0  0  0  0  0  0  0
   23.9512  -54.8953   53.1831 C   0  0  0  0  0  0  0  0  0  0  0  0
   24.3307  -49.4076   49.7018 N   0  0  0  0  0  0  0  0  0  0  0  0
   26.7688  -55.2402   54.0741 O   0  0  0  0  0  0  0  0  0  0  0  0
   23.1893  -51.9586   52.7187 C   0  0  0  0  0  0  0  0  0  0  0  0
   22.6987  -50.0355   51.3509 C   0  0  0  0  0  0  0  0  0  0  0  0
   22.6189  -47.9797   50.1852 O   0  0  0  0  0  0  0  0  0  0  0  0
   20.1121  -49.4885   51.2384 C   0  0  0  0  0  0  0  0  0  0  0  0
   21.8925  -52.4201   52.6184 C   0  0  0  0  0  0  0  0  0  0  0  0
   22.5049  -54.8789   53.0052 C   0  0  0  0  0  0  0  0  0  0  0  0
  1  6  1  0
  1 14  2  0
  1 17  1  0
  2 15  2  0
  3 23  1  0
  4 13  1  0
  4 24  2  0
  5 18  1  0
  5 21  1  0
  5 22  2  0
  6 10  2  0
  6 19  1  0
  7 15  1  0
  7 24  1  0
  7 25  1  0
  8  9  2  0
  8 25  1  0
  9 14  1  0
 11 15  1  0
 12 18  1  0
 13 21  1  0
 13 23  1  0
 16 20  1  0
 16 21  2  0
 17 25  2  0
 20 24  1  0
M  END
>  <ID>  (1) 
conformer_0

$$$$
