
     RDKit          3D

 17 18  0  0  0  0  0  0  0  0999 V2000
   20.0345  -52.4508   51.8745 C   0  0  0  0  0  0  0  0  0  0  0  0
   22.6992  -52.4654   51.9933 C   0  0  0  0  0  0  0  0  0  0  0  0
   20.8767  -48.9098   51.2829 C   0  0  0  0  0  0  0  0  0  0  0  0
   22.4470  -55.0946   52.5658 C   0  0  0  0  0  0  0  0  0  0  0  0
   20.6516  -53.4822   52.5572 C   0  0  0  0  0  0  0  0  0  0  0  0
   25.5938  -56.8619   52.2629 O   0  0  0  0  0  0  0  0  0  0  0  0
   24.7442  -54.2570   52.5693 O   0  0  0  0  0  0  0  0  0  0  0  0
   20.0664  -50.0308   51.5569 C   0  0  0  0  0  0  0  0  0  0  0  0
   24.0624  -57.3628   53.8913 O   0  0  0  0  0  0  0  0  0  0  0  0
   22.0467  -51.2570   52.1650 C   0  0  0  0  0  0  0  0  0  0  0  0
   22.0390  -53.7040   52.3072 C   0  0  0  0  0  0  0  0  0  0  0  0
   24.4625  -56.6311   52.8881 C   0  0  0  0  0  0  0  0  0  0  0  0
   21.5416  -55.7277   53.6146 C   0  0  0  0  0  0  0  0  0  0  0  0
   23.8778  -55.3324   52.5807 C   0  0  0  0  0  0  0  0  0  0  0  0
   22.6964  -50.0361   52.2697 C   0  0  0  0  0  0  0  0  0  0  0  0
   22.2894  -49.1067   51.2993 C   0  0  0  0  0  0  0  0  0  0  0  0
   20.6860  -51.2224   51.8383 C   0  0  0  0  0  0  0  0  0  0  0  0
  1  5  1  0
  1 17  1  0
  2 10  1  0
  2 11  2  0
  3  8  2  0
  3 16  1  0
  4 11  1  0
  4 13  1  0
  4 14  1  0
  5 11  1  0
  6 12  2  0
  7 14  1  0
  8 17  1  0
  9 12  1  0
 10 15  1  0
 10 17  1  0
 12 14  1  0
 15 16  1  0
M  END
>  <ID>  (1) 
conformer_0

$$$$
