
     RDKit          3D

 17 19  0  0  0  0  0  0  0  0999 V2000
   23.2929  -55.2068   52.2487 C   0  0  0  0  0  0  0  0  0  0  0  0
   22.5339  -57.2623   53.1714 N   0  0  0  0  0  0  0  0  0  0  0  0
   20.4639  -51.2919   51.9060 C   0  0  0  0  0  0  0  0  0  0  0  0
   20.5653  -52.6359   52.1627 C   0  0  0  0  0  0  0  0  0  0  0  0
   21.9957  -54.6781   52.3275 C   0  0  0  0  0  0  0  0  0  0  0  0
   21.8708  -49.2853   51.5699 O   0  0  0  0  0  0  0  0  0  0  0  0
   22.7821  -51.2582   51.1750 C   0  0  0  0  0  0  0  0  0  0  0  0
   21.2707  -56.7169   53.1885 C   0  0  0  0  0  0  0  0  0  0  0  0
   22.8531  -52.5824   51.4176 C   0  0  0  0  0  0  0  0  0  0  0  0
   21.7785  -53.2612   51.9575 C   0  0  0  0  0  0  0  0  0  0  0  0
   19.0512  -49.4248   51.2430 C   0  0  0  0  0  0  0  0  0  0  0  0
   19.1952  -50.6041   52.0342 C   0  0  0  0  0  0  0  0  0  0  0  0
   23.8211  -50.4207   50.6494 C   0  0  0  0  0  0  0  0  0  0  0  0
   21.0104  -55.4868   52.7796 N   0  0  0  0  0  0  0  0  0  0  0  0
   21.6423  -50.6163   51.5407 C   0  0  0  0  0  0  0  0  0  0  0  0
   23.5494  -56.4528   52.6823 C   0  0  0  0  0  0  0  0  0  0  0  0
   23.2690  -49.0747   51.0859 C   0  0  0  0  0  0  0  0  0  0  0  0
  1  5  1  0
  1 16  2  0
  2  8  1  0
  2 16  1  0
  3  4  2  0
  3 12  1  0
  3 15  1  0
  4 10  1  0
  5 10  2  3
  5 14  1  0
  6 15  1  0
  6 17  1  0
  7  9  2  0
  7 13  1  0
  7 15  1  0
  8 14  2  0
  9 10  1  0
 11 12  1  0
 13 17  1  0
M  END
>  <ID>  (1) 
conformer_0

$$$$
