
     RDKit          3D

 21 23  0  0  0  0  0  0  0  0999 V2000
   22.0025  -55.6879   53.4624 C   0  0  0  0  0  0  0  0  0  0  0  0
   20.8595  -51.3428   51.8183 N   0  0  0  0  0  0  0  0  0  0  0  0
   24.1447  -49.1923   49.1279 O   0  0  0  0  0  0  0  0  0  0  0  0
   21.2423  -48.4092   51.6861 C   0  0  0  0  0  0  0  0  0  0  0  0
   26.0412  -48.2899   46.1956 C   0  0  0  0  0  0  0  0  0  0  0  0
   24.9852  -49.1454   46.7965 O   0  0  0  0  0  0  0  0  0  0  0  0
   22.5187  -54.1390   53.0557 C   0  0  0  0  0  0  0  0  0  0  0  0
   22.3418  -48.8879   51.1081 C   0  0  0  0  0  0  0  0  0  0  0  0
   24.8622  -48.9708   48.0968 C   0  0  0  0  0  0  0  0  0  0  0  0
   18.6737  -50.7565   52.1358 O   0  0  0  0  0  0  0  0  0  0  0  0
   23.0116  -56.5621   52.7876 C   0  0  0  0  0  0  0  0  0  0  0  0
   21.0985  -53.7499   52.7608 C   0  0  0  0  0  0  0  0  0  0  0  0
   23.2092  -53.9040   51.6628 C   0  0  0  0  0  0  0  0  0  0  0  0
   20.0828  -49.0203   52.0230 C   0  0  0  0  0  0  0  0  0  0  0  0
   20.5996  -55.3116   52.8735 C   0  0  0  0  0  0  0  0  0  0  0  0
   19.8731  -50.3702   51.9719 C   0  0  0  0  0  0  0  0  0  0  0  0
   22.1534  -51.2594   51.2756 C   0  0  0  0  0  0  0  0  0  0  0  0
   22.7299  -50.0931   50.7420 C   0  0  0  0  0  0  0  0  0  0  0  0
   23.8590  -50.2973   49.8212 C   0  0  0  0  0  0  0  0  0  0  0  0
   20.4036  -52.6404   52.2334 C   0  0  0  0  0  0  0  0  0  0  0  0
   22.9923  -52.5064   51.1953 C   0  0  0  0  0  0  0  0  0  0  0  0
  1  7  1  0
  1 11  1  0
  1 15  1  0
  2 16  1  0
  2 17  1  0
  2 20  1  0
  3  9  1  0
  3 19  1  0
  4  8  2  0
  4 14  1  0
  5  6  1  0
  6  9  1  0
  7 12  1  0
  7 13  1  0
  8 18  1  0
 10 16  2  0
 12 15  1  0
 12 20  2  0
 13 21  1  0
 14 16  1  0
 17 18  1  0
 17 21  1  0
 18 19  1  0
M  END
>  <ID>  (1) 
conformer_0

$$$$
