
     RDKit          3D

 16 18  0  0  0  0  0  0  0  0999 V2000
   23.0323  -52.2046   50.6313 O   0  0  0  0  0  0  0  0  0  0  0  0
   22.5368  -48.6603   51.0661 C   0  0  0  0  0  0  0  0  0  0  0  0
   24.1327  -50.0551   50.0179 F   0  0  0  0  0  0  0  0  0  0  0  0
   18.8571  -52.4586   53.2513 N   0  0  0  0  0  0  0  0  0  0  0  0
   22.4382  -51.0567   51.1171 C   0  0  0  0  0  0  0  0  0  0  0  0
   21.9115  -53.5755   52.1388 C   0  0  0  0  0  0  0  0  0  0  0  0
   20.9944  -52.4425   52.3650 C   0  0  0  0  0  0  0  0  0  0  0  0
   21.9096  -55.9993   52.9411 C   0  0  0  0  0  0  0  0  0  0  0  0
   20.1886  -54.3425   53.3393 N   0  0  0  0  0  0  0  0  0  0  0  0
   20.7712  -49.7916   52.2648 C   0  0  0  0  0  0  0  0  0  0  0  0
   21.3732  -48.6100   51.8448 C   0  0  0  0  0  0  0  0  0  0  0  0
   23.0294  -49.8813   50.7236 C   0  0  0  0  0  0  0  0  0  0  0  0
   21.3942  -54.7030   52.7508 C   0  0  0  0  0  0  0  0  0  0  0  0
   19.9163  -53.0682   53.0086 C   0  0  0  0  0  0  0  0  0  0  0  0
   22.9407  -53.4242   51.2243 C   0  0  0  0  0  0  0  0  0  0  0  0
   21.3336  -51.0896   51.9440 C   0  0  0  0  0  0  0  0  0  0  0  0
  1  5  1  0
  1 15  1  0
  2 11  1  0
  2 12  2  0
  3 12  1  0
  4 14  2  0
  5 12  1  0
  5 16  2  0
  6  7  1  0
  6 13  1  0
  6 15  2  0
  7 14  1  0
  7 16  1  0
  8 13  1  0
  9 13  1  0
  9 14  1  0
 10 11  2  0
 10 16  1  0
M  END
>  <ID>  (1) 
conformer_0

$$$$
