
     RDKit          3D

 22 23  0  0  0  0  0  0  0  0999 V2000
   23.1928  -55.1827   53.1090 C   0  0  0  0  0  0  0  0  0  0  0  0
   19.8412  -53.7335   52.3615 C   0  0  0  0  0  0  0  0  0  0  0  0
   23.9185  -48.7691   50.6459 O   0  0  0  0  0  0  0  0  0  0  0  0
   23.6928  -47.6149   54.7700 C   0  0  0  0  0  0  0  0  0  0  0  0
   23.0623  -49.4502   51.5955 C   0  0  0  0  0  0  0  0  0  0  0  0
   24.9834  -48.7761   48.3823 C   0  0  0  0  0  0  0  0  0  0  0  0
   24.8794  -47.2234   54.4215 O   0  0  0  0  0  0  0  0  0  0  0  0
   24.0142  -54.0695   53.1042 C   0  0  0  0  0  0  0  0  0  0  0  0
   22.3298  -48.9214   52.6862 C   0  0  0  0  0  0  0  0  0  0  0  0
   21.8418  -55.0218   52.7885 C   0  0  0  0  0  0  0  0  0  0  0  0
   21.3272  -53.7899   52.4993 C   0  0  0  0  0  0  0  0  0  0  0  0
   22.1865  -52.7092   52.3810 C   0  0  0  0  0  0  0  0  0  0  0  0
   23.8284  -49.3305   49.2710 C   0  0  0  0  0  0  0  0  0  0  0  0
   21.8436  -51.3641   51.9868 N   0  0  0  0  0  0  0  0  0  0  0  0
   23.2321  -47.3116   55.9183 O   0  0  0  0  0  0  0  0  0  0  0  0
   23.5160  -52.8810   52.7166 C   0  0  0  0  0  0  0  0  0  0  0  0
   22.8805  -50.7215   51.3236 C   0  0  0  0  0  0  0  0  0  0  0  0
   20.7453  -50.5739   52.3400 C   0  0  0  0  0  0  0  0  0  0  0  0
   21.0049  -49.3687   52.8089 C   0  0  0  0  0  0  0  0  0  0  0  0
   24.8106  -48.9538   46.8859 C   0  0  0  0  0  0  0  0  0  0  0  0
   22.9282  -48.1676   53.7567 C   0  0  0  0  0  3  0  0  0  0  0  0
   19.4812  -50.9133   52.1214 O   0  0  0  0  0  0  0  0  0  0  0  0
  1  8  1  0
  1 10  1  0
  2 11  1  0
  3  5  1  0
  3 13  1  0
  4  7  2  0
  4 15  1  0
  4 21  1  0
  5  9  1  0
  5 17  2  0
  6 13  1  0
  6 20  1  0
  8 16  2  0
  9 19  1  0
  9 21  2  0
 10 11  2  0
 11 12  1  0
 12 14  1  0
 12 16  1  0
 14 17  1  0
 14 18  1  0
 18 19  1  0
 18 22  2  0
M  END
>  <ID>  (1) 
conformer_0

$$$$
