
     RDKit          3D

 27 29  0  0  0  0  0  0  0  0999 V2000
   22.2681  -48.2552   54.1152 C   0  0  0  0  0  0  0  0  0  0  0  0
   22.1526  -54.6161   52.8168 C   0  0  0  0  0  0  0  0  0  0  0  0
   23.8300  -57.9261   52.9593 C   0  0  0  0  0  0  0  0  0  0  0  0
   24.0866  -56.8468   52.1369 O   0  0  0  0  0  0  0  0  0  0  0  0
   24.4264  -49.2491   51.4635 F   0  0  0  0  0  0  0  0  0  0  0  0
   22.4388  -52.4113   52.2016 C   0  0  0  0  0  0  0  0  0  0  0  0
   23.6383  -49.7558   52.5800 C   0  0  0  0  0  0  0  0  0  0  0  0
   19.1266  -50.6121   51.4965 Cl  0  0  0  0  0  0  0  0  0  0  0  0
   21.7203  -51.2393   52.0102 C   0  0  0  0  0  0  0  0  0  0  0  0
   21.6675  -48.8729   51.3926 O   0  0  0  0  0  0  0  0  0  0  0  0
   24.3723  -50.7606   53.2388 O   0  0  0  0  0  0  0  0  0  0  0  0
   22.2450  -49.9493   51.9836 C   0  0  0  0  0  0  0  0  0  0  0  0
   23.5150  -54.4563   52.5399 C   0  0  0  0  0  0  0  0  0  0  0  0
   24.6611  -48.1235   54.1108 C   0  0  0  0  0  0  0  0  0  0  0  0
   21.4672  -53.4685   52.5432 C   0  0  0  0  0  0  0  0  0  0  0  0
   19.0810  -53.3557   52.7522 O   0  0  0  0  0  0  0  0  0  0  0  0
   23.6937  -53.0897   52.1396 C   0  0  0  0  0  0  0  0  0  0  0  0
   20.1794  -52.8509   52.4435 C   0  0  0  0  0  0  0  0  0  0  0  0
   21.5254  -55.8680   53.5092 S   0  0  0  0  0  0  0  0  0  0  0  0
   23.4974  -48.6711   53.6384 C   0  0  0  0  0  0  0  0  0  0  0  0
   24.5108  -55.6177   52.7419 C   0  0  0  0  0  0  0  0  0  0  0  0
   23.3615  -46.8119   55.6196 C   0  0  0  0  0  0  0  0  0  0  0  0
   25.6806  -46.6487   55.5029 O   0  0  0  0  0  0  0  0  0  0  0  0
   20.3165  -51.4958   52.0136 C   0  0  0  0  0  0  0  0  0  0  0  0
   24.7416  -58.3760   53.7950 O   0  0  0  0  0  0  0  0  0  0  0  0
   24.5969  -47.1789   55.1004 C   0  0  0  0  0  0  0  0  0  0  0  0
   22.2191  -47.3487   55.1366 C   0  0  0  0  0  0  0  0  0  0  0  0
  1 20  2  0
  1 27  1  0
  2 13  1  0
  2 15  1  0
  2 19  2  0
  3  4  1  0
  3 25  1  0
  4 21  1  0
  5  7  1  0
  6  9  1  0
  6 15  2  0
  6 17  1  0
  7 11  1  0
  7 12  1  0
  7 20  1  0
  8 24  1  0
  9 12  1  0
  9 24  1  0
 10 12  1  0
 13 17  1  0
 13 21  1  0
 14 20  1  0
 14 26  1  0
 15 18  1  0
 16 18  2  0
 18 24  1  0
 22 26  1  0
 22 27  2  0
 23 26  2  0
M  END
>  <ID>  (1) 
conformer_0

$$$$
