
     RDKit          3D

 16 18  0  0  0  0  0  0  0  0999 V2000
   22.0758  -48.2636   53.0186 N   0  0  0  0  0  0  0  0  0  0  0  0
   19.6935  -50.8337   51.8980 C   0  0  0  0  0  0  0  0  0  0  0  0
   22.0990  -54.7929   52.3894 C   0  0  0  0  0  0  0  0  0  0  0  0
   19.7406  -52.0986   52.3241 N   0  0  0  0  0  0  0  0  0  0  0  0
   20.9007  -48.7408   52.6543 C   0  0  0  0  0  0  0  0  0  0  0  0
   23.2687  -48.7498   52.6817 C   0  0  0  0  0  0  0  0  0  0  0  0
   23.2231  -54.1928   51.8875 C   0  0  0  0  0  0  0  0  0  0  0  0
   20.9557  -54.0886   52.6062 C   0  0  0  0  0  0  0  0  0  0  0  0
   22.0933  -50.6739   51.9933 C   0  0  0  0  0  0  0  0  0  0  0  0
   18.7151  -50.4169   51.2568 O   0  0  0  0  0  0  0  0  0  0  0  0
   23.2046  -52.8115   51.7071 C   0  0  0  0  0  0  0  0  0  0  0  0
   23.2364  -50.0139   52.1003 C   0  0  0  0  0  0  0  0  0  0  0  0
   22.0819  -52.0849   51.9895 C   0  0  0  0  0  0  0  0  0  0  0  0
   20.9319  -52.7418   52.3063 C   0  0  0  0  0  0  0  0  0  0  0  0
   20.8620  -50.0190   52.1621 C   0  0  0  0  0  0  0  0  0  0  0  0
   24.3297  -48.1697   52.9251 O   0  0  0  0  0  0  0  0  0  0  0  0
  1  5  1  0
  1  6  1  0
  2  4  1  0
  2 10  2  0
  2 15  1  0
  3  7  1  0
  3  8  2  0
  4 14  2  0
  5 15  2  0
  6 12  1  0
  6 16  2  0
  7 11  1  0
  8 14  1  0
  9 12  1  0
  9 13  1  0
  9 15  1  0
 11 13  2  0
 13 14  1  0
M  END
>  <ID>  (1) 
conformer_0

$$$$
