
     RDKit          3D

 16 17  0  0  0  0  0  0  0  0999 V2000
   23.0087  -54.5631   52.5012 C   0  0  0  0  0  0  0  0  0  0  0  0
   20.4150  -53.7496   52.3554 C   0  0  0  0  0  0  0  0  0  0  0  0
   23.3309  -51.5420   49.9212 O   0  0  0  0  0  0  0  0  0  0  0  0
   19.4937  -51.2114   52.0475 C   0  0  0  0  0  0  0  0  0  0  0  0
   23.7352  -49.5221   50.7474 O   0  0  0  0  0  0  0  0  0  0  0  0
   20.9450  -49.1333   50.9636 C   0  0  0  0  0  0  0  0  0  0  0  0
   19.5804  -48.9824   51.2706 C   0  0  0  0  0  0  0  0  0  0  0  0
   21.6044  -50.3520   51.1383 C   0  0  0  0  0  0  0  0  0  0  0  0
   21.9948  -55.4810   52.6698 C   0  0  0  0  0  0  0  0  0  0  0  0
   22.9801  -50.4839   50.5833 C   0  0  0  0  0  0  0  0  0  0  0  0
   20.6817  -55.0541   52.5920 C   0  0  0  0  0  0  0  0  0  0  0  0
   18.8709  -50.0347   51.7800 C   0  0  0  0  0  0  0  0  0  0  0  0
   22.7230  -53.2116   52.2137 C   0  0  0  0  0  0  0  0  0  0  0  0
   21.3870  -52.7536   52.0956 C   0  0  0  0  0  0  0  0  0  0  0  0
   20.8788  -51.4192   51.7577 C   0  0  0  0  0  0  0  0  0  0  0  0
   24.4534  -55.0191   52.6172 C   0  0  0  0  0  0  0  0  0  0  0  0
  1  9  2  0
  1 13  1  0
  1 16  1  0
  2 11  2  0
  2 14  1  0
  3 10  2  0
  4 12  2  0
  4 15  1  0
  5 10  1  0
  6  7  2  0
  6  8  1  0
  7 12  1  0
  8 10  1  0
  8 15  2  0
  9 11  1  0
 13 14  2  0
 14 15  1  0
M  END
>  <ID>  (1) 
conformer_0

$$$$
