
     RDKit          3D

 22 23  0  0  0  0  0  0  0  0999 V2000
   22.9733  -55.1583   53.4003 C   0  0  0  0  0  0  0  0  0  0  0  0
   23.1298  -48.0182   50.4312 C   0  0  0  0  0  0  0  0  0  0  0  0
   22.7700  -56.4365   52.9264 N   0  0  0  0  0  0  0  0  0  0  0  0
   23.4118  -58.7447   52.6789 O   0  0  0  0  0  0  0  0  0  0  0  0
   22.5906  -50.5493   51.5485 C   0  0  0  0  0  0  0  0  0  0  0  0
   22.1821  -51.7684   52.1604 C   0  0  0  0  0  0  0  0  0  0  0  0
   18.7749  -52.2111   53.2073 O   0  0  0  0  0  0  0  0  0  0  0  0
   23.7643  -49.0453   48.4018 O   0  0  0  0  0  0  0  0  0  0  0  0
   23.1381  -50.4711   50.2220 C   0  0  0  0  0  0  0  0  0  0  0  0
   19.6542  -51.6301   52.5244 C   0  0  0  0  0  0  0  0  0  0  0  0
   20.9896  -53.6507   52.7712 C   0  0  0  0  0  0  0  0  0  0  0  0
   23.3611  -49.1763   49.6742 C   0  0  0  0  0  0  0  0  0  0  0  0
   22.3686  -53.9758   52.9170 C   0  0  0  0  0  0  0  0  0  0  0  0
   20.9053  -52.2846   52.4287 C   0  0  0  0  0  0  0  0  0  0  0  0
   24.2632  -52.4350   52.9827 O   0  0  0  0  0  0  0  0  0  0  0  0
   19.4152  -50.5338   51.9960 O   0  0  0  0  0  0  0  0  0  0  0  0
   23.8721  -57.3725   52.7113 C   0  0  0  0  0  0  0  0  0  0  0  0
   21.4893  -57.0672   53.2800 C   0  0  0  0  0  0  0  0  0  0  0  0
   23.0553  -52.7476   52.6372 C   0  0  0  0  0  0  0  0  0  0  0  0
   22.3827  -49.3695   52.2444 C   0  0  0  0  0  0  0  0  0  0  0  0
   22.6105  -48.1521   51.7201 C   0  0  0  0  0  0  0  0  0  0  0  0
   23.7938  -55.0232   54.3812 O   0  0  0  0  0  0  0  0  0  0  0  0
  1  3  1  0
  1 13  1  0
  1 22  2  0
  2 12  2  0
  2 21  1  0
  3 17  1  0
  3 18  1  0
  4 17  1  0
  5  6  1  0
  5  9  2  0
  5 20  1  0
  6 14  1  0
  6 19  1  0
  7 10  2  0
  8 12  1  0
  9 12  1  0
 10 14  1  0
 10 16  1  0
 11 13  1  0
 11 14  1  0
 13 19  1  0
 15 19  1  0
 20 21  2  0
M  END
>  <ID>  (1) 
conformer_0

$$$$
