
     RDKit          3D

 29 31  0  0  0  0  0  0  0  0999 V2000
   23.7653  -47.8748   54.6486 C   0  0  0  0  0  0  0  0  0  0  0  0
   20.2097  -51.6356   52.5677 O   0  0  0  0  0  0  0  0  0  0  0  0
   23.4063  -51.6622   49.7872 C   0  0  0  0  0  0  0  0  0  0  0  0
   20.0715  -48.8998   51.2864 C   0  0  0  0  0  0  0  0  0  0  0  0
   20.9098  -53.8012   52.1860 O   0  0  0  0  0  0  0  0  0  0  0  0
   24.0374  -54.1227   53.6518 C   0  0  0  0  0  0  0  0  0  0  0  0
   18.9332  -49.7381   51.7278 C   0  0  0  0  0  0  0  0  0  0  0  0
   24.5007  -53.3200   54.6561 O   0  0  0  0  0  0  0  0  0  0  0  0
   23.0659  -48.1972   53.3583 C   0  0  0  0  0  0  0  0  0  0  0  0
   24.3542  -57.3797   52.6874 C   0  0  0  0  0  0  0  0  0  0  0  0
   22.5225  -52.1787   52.0550 C   0  0  0  0  0  0  0  0  0  0  0  0
   23.1451  -51.2304   51.0900 C   0  0  0  0  0  0  0  0  0  0  0  0
   19.1493  -51.2000   51.6640 C   0  0  0  0  0  0  0  0  0  0  0  0
   23.2562  -49.5409   52.8583 C   0  0  0  0  0  0  0  0  0  0  0  0
   25.4684  -56.6157   54.7893 O   0  0  0  0  0  0  0  0  0  0  0  0
   22.2510  -55.7029   53.2458 C   0  0  0  0  0  0  0  0  0  0  0  0
   23.5684  -55.4532   54.0570 C   0  0  0  0  0  0  0  0  0  0  0  0
   24.7708  -48.5560   55.2417 O   0  0  0  0  0  0  0  0  0  0  0  0
   24.0434  -49.4584   49.1501 C   0  0  0  0  0  0  0  0  0  0  0  0
   21.1431  -52.4633   52.0411 C   0  0  0  0  0  0  0  0  0  0  0  0
   23.7794  -49.0073   50.4511 C   0  0  0  0  0  0  0  0  0  0  0  0
   23.5387  -50.4440   53.7255 O   0  0  0  0  0  0  0  0  0  0  0  0
   23.3911  -49.9232   51.4100 C   0  0  0  0  0  0  0  0  0  0  0  0
   24.4614  -48.5860   48.2317 O   0  0  0  0  0  0  0  0  0  0  0  0
   20.4923  -47.9972   52.3649 O   0  0  0  0  0  0  0  0  0  0  0  0
   23.1287  -53.4143   52.6539 C   0  0  0  0  0  0  0  0  0  0  0  0
   22.1468  -54.5064   52.3130 C   0  0  0  0  0  0  0  0  0  0  0  0
   23.8898  -50.8190   48.8210 C   0  0  0  0  0  0  0  0  0  0  0  0
   24.4782  -56.6375   53.9620 C   0  0  0  0  0  0  0  0  0  0  0  0
  1  9  1  0
  1 18  1  0
  2 13  1  0
  2 20  1  0
  3 12  1  0
  3 28  1  0
  4  7  1  0
  4 25  1  0
  5 20  1  0
  5 27  1  0
  6  8  1  0
  6 17  1  0
  6 26  1  0
  7 13  1  0
  9 14  1  0
 10 29  1  0
 11 12  1  0
 11 20  1  0
 11 26  1  0
 12 23  2  0
 14 22  2  0
 14 23  1  0
 15 29  1  0
 16 17  1  0
 16 27  1  0
 17 29  1  0
 19 21  1  0
 19 24  1  0
 19 28  2  0
 21 23  1  0
 26 27  1  0
M  END
>  <ID>  (1) 
conformer_0

$$$$
