
     RDKit          3D

 11 11  0  0  0  0  0  0  0  0999 V2000
   21.4165  -52.8387   51.0536 C   0  0  0  0  0  0  0  0  0  0  0  0
   20.6724  -50.6523   51.5272 C   0  0  0  0  0  0  0  0  0  0  0  0
   22.0096  -50.2414   51.6909 C   0  0  0  0  0  0  0  0  0  0  0  0
   22.4638  -48.9330   52.1063 C   0  0  0  0  0  0  0  0  0  0  0  0
   19.5474  -49.7228   51.6797 C   0  0  0  0  0  0  0  0  0  0  0  0
   20.3879  -51.9478   51.2461 C   0  0  0  0  0  0  0  0  0  0  0  0
   23.0311  -51.1493   51.4542 C   0  0  0  0  0  0  0  0  0  0  0  0
   22.7140  -52.4530   51.1292 C   0  0  0  0  0  0  0  0  0  0  0  0
   23.8418  -48.8320   52.4819 N   0  0  0  0  0  0  0  0  0  0  0  0
   19.6980  -48.5356   52.0730 O   0  0  0  0  0  0  0  0  0  0  0  0
   18.3708  -50.1224   51.3691 O   0  0  0  0  0  0  0  0  0  0  0  0
  1  6  2  0
  1  8  1  0
  2  3  2  0
  2  5  1  0
  2  6  1  0
  3  4  1  0
  3  7  1  0
  4  9  1  0
  5 10  2  0
  5 11  1  0
  7  8  2  0
M  END
>  <ID>  (1) 
conformer_0

$$$$
