
     RDKit          3D

 15 16  0  0  0  0  0  0  0  0999 V2000
   24.6931  -49.1825   53.4651 C   0  0  0  0  0  0  0  0  0  0  0  0
   22.7590  -51.9513   51.7760 C   0  0  0  0  0  0  0  0  0  0  0  0
   20.6365  -50.8431   51.7942 C   0  0  0  0  0  0  0  0  0  0  0  0
   23.3748  -49.0556   51.0502 O   0  0  0  0  0  0  0  0  0  0  0  0
   20.2117  -54.4465   52.2654 O   0  0  0  0  0  0  0  0  0  0  0  0
   23.2713  -49.4805   53.2704 O   0  0  0  0  0  0  0  0  0  0  0  0
   20.9946  -55.4644   52.8258 C   0  0  0  0  0  0  0  0  0  0  0  0
   19.8759  -49.7371   51.7068 O   0  0  0  0  0  0  0  0  0  0  0  0
   22.5026  -55.3882   52.5967 C   0  0  0  0  0  0  0  0  0  0  0  0
   22.9720  -54.3274   51.6962 C   0  0  0  0  0  0  0  0  0  0  0  0
   19.9795  -52.0695   51.8824 C   0  0  0  0  0  0  0  0  0  0  0  0
   22.8141  -49.5539   52.0381 C   0  0  0  0  0  0  0  0  0  0  0  0
   22.1488  -53.1359   51.8348 C   0  0  0  0  0  0  0  0  0  0  0  0
   22.0380  -50.7820   51.8335 C   0  0  0  0  0  0  0  0  0  0  0  0
   20.7765  -53.1935   51.9873 C   0  0  0  0  0  0  0  0  0  0  0  0
  1  6  1  0
  2 13  2  0
  2 14  1  0
  3  8  1  0
  3 11  1  0
  3 14  2  0
  4 12  2  0
  5  7  1  0
  5 15  1  0
  6 12  1  0
  7  9  2  0
  9 10  1  0
 10 13  1  0
 11 15  2  0
 12 14  1  0
 13 15  1  0
M  END
>  <ID>  (1) 
conformer_0

$$$$
