
     RDKit          3D

 23 24  0  0  0  0  0  0  0  0999 V2000
   20.7861  -48.9676   51.5501 C   0  0  0  0  0  0  0  0  0  0  0  0
   22.9503  -54.9179   53.0149 C   0  0  0  0  0  0  0  0  0  0  0  0
   23.5047  -56.7893   54.3229 O   0  0  0  0  0  0  0  0  0  0  0  0
   24.0235  -49.2807   49.2597 N   0  0  0  0  0  0  0  0  0  0  0  0
   23.6599  -53.7211   52.8808 C   0  0  0  0  0  0  0  0  0  0  0  0
   22.8632  -50.0847   51.2388 N   0  0  0  0  0  0  0  0  0  0  0  0
   24.1944  -49.6649   46.8557 N   0  0  0  0  0  0  0  0  0  0  0  0
   24.4009  -49.1979   47.9508 C   0  0  0  0  0  0  0  0  0  0  0  0
   19.4753  -51.3223   52.0867 C   0  0  0  0  0  0  0  0  0  0  0  0
   23.0143  -52.5161   52.5382 C   0  0  0  0  0  0  0  0  0  0  0  0
   23.5963  -56.2093   53.2816 C   0  0  0  0  0  0  0  0  0  0  0  0
   20.9596  -53.6910   52.5216 C   0  0  0  0  0  0  0  0  0  0  0  0
   21.5130  -50.1124   51.6222 C   0  0  0  0  0  0  0  0  0  0  0  0
   20.8795  -51.3057   52.0296 C   0  0  0  0  0  0  0  0  0  0  0  0
   26.3650  -48.0074   46.5303 C   0  0  0  0  0  0  0  0  0  0  0  0
   23.2713  -49.3357   50.2424 C   0  0  0  0  0  0  0  0  0  0  0  0
   24.2533  -56.8008   52.2152 C   0  0  0  0  0  0  0  0  0  0  0  0
   19.4038  -48.9588   51.6875 C   0  0  0  0  0  0  0  0  0  0  0  0
   24.7560  -49.4114   45.7169 C   0  0  0  0  0  0  0  0  0  0  0  0
   18.7522  -50.1512   51.8895 C   0  0  0  0  0  0  0  0  0  0  0  0
   25.8344  -48.5588   45.6040 C   0  0  0  0  0  0  0  0  0  0  0  0
   21.6349  -52.4753   52.3575 C   0  0  0  0  0  0  0  0  0  0  0  0
   21.5686  -54.8648   52.8331 C   0  0  0  0  0  0  0  0  0  0  0  0
  1 13  2  0
  1 18  1  0
  2  5  2  0
  2 11  1  0
  2 23  1  0
  3 11  2  0
  4  8  1  0
  4 16  1  0
  5 10  1  0
  6 13  1  0
  6 16  1  0
  7  8  2  3
  7 19  1  0
  9 14  2  0
  9 20  1  0
 10 22  2  0
 11 17  1  0
 12 22  1  0
 12 23  2  0
 13 14  1  0
 14 22  1  0
 15 21  2  0
 18 20  2  0
 19 21  1  0
M  END
>  <ID>  (1) 
conformer_0

$$$$
