
     RDKit          3D

 18 19  0  0  0  0  0  0  0  0999 V2000
   23.5726  -48.7336   53.0130 C   0  0  0  0  0  0  0  0  0  0  0  0
   20.5878  -52.8376   52.1284 C   0  0  0  0  0  0  0  0  0  0  0  0
   22.8429  -53.3717   52.5496 C   0  0  0  0  0  0  0  0  0  0  0  0
   20.1945  -49.6629   51.7288 C   0  0  0  0  0  0  0  0  0  0  0  0
   24.3169  -47.7470   52.9946 O   0  0  0  0  0  0  0  0  0  0  0  0
   23.7108  -49.5896   53.8912 O   0  0  0  0  0  0  0  0  0  0  0  0
   19.4999  -52.0531   51.8410 C   0  0  0  0  0  0  0  0  0  0  0  0
   21.5689  -49.8775   51.9784 C   0  0  0  0  0  0  0  0  0  0  0  0
   20.5278  -54.6195   52.3507 S   0  0  0  0  0  0  0  0  0  0  0  0
   19.3215  -50.7341   51.6826 C   0  0  0  0  0  0  0  0  0  0  0  0
   22.1049  -51.0978   52.1903 C   0  0  0  0  0  0  0  0  0  0  0  0
   23.3052  -49.0521   50.5538 C   0  0  0  0  0  0  0  0  0  0  0  0
   23.2380  -55.7778   53.0937 C   0  0  0  0  0  0  0  0  0  0  0  0
   23.7403  -55.6700   54.2498 O   0  0  0  0  0  0  0  0  0  0  0  0
   21.8898  -52.3849   52.2916 C   0  0  0  0  0  0  0  0  0  0  0  0
   22.3255  -54.6329   52.6846 C   0  0  0  0  0  0  0  0  0  0  0  0
   23.7475  -56.5226   52.2015 O   0  0  0  0  0  0  0  0  0  0  0  0
   22.5512  -48.7226   51.8806 C   0  0  0  0  0  0  0  0  0  0  0  0
  1  5  2  0
  1  6  1  0
  1 18  1  0
  2  7  1  0
  2  9  1  0
  2 15  1  0
  3 15  1  0
  3 16  1  0
  4  8  2  0
  4 10  1  0
  7 10  2  0
  8 11  1  0
  8 18  1  0
  9 16  1  0
 11 15  2  0
 12 18  1  0
 13 14  2  0
 13 16  1  0
 13 17  1  0
M  END
>  <ID>  (1) 
conformer_0

$$$$
