
     RDKit          3D

 29 30  0  0  0  0  0  0  0  0999 V2000
   23.4893  -50.6375   49.5709 O   0  0  0  0  0  0  0  0  0  0  0  0
   25.8521  -48.5476   45.6540 C   0  0  0  0  0  0  0  0  0  0  0  0
   22.6601  -50.7094   51.9557 C   0  0  0  0  0  0  0  0  0  0  0  0
   23.7915  -49.6879   48.5976 C   0  0  0  0  0  0  0  0  0  0  0  0
   20.1200  -50.6870   52.7689 O   0  0  0  0  0  0  0  0  0  0  0  0
   21.8721  -51.9394   51.8604 N   0  0  0  0  0  0  0  0  0  0  0  0
   24.7372  -55.5553   52.6894 C   0  0  0  0  0  0  0  0  0  0  0  0
   23.8303  -48.2416   52.2661 C   0  0  0  0  0  0  0  0  0  0  0  0
   22.9485  -53.2738   51.9465 S   0  0  0  0  0  4  0  0  0  0  0  0
   24.8228  -57.8632   53.2936 C   0  0  0  0  0  0  0  0  0  0  0  0
   25.4074  -56.4955   53.6436 C   0  0  0  0  0  0  0  0  0  0  0  0
   23.2680  -53.5287   50.5508 O   0  0  0  0  0  1  0  0  0  0  0  0
   23.3461  -48.9090   53.3421 C   0  0  0  0  0  0  0  0  0  0  0  0
   20.4462  -51.8815   52.3744 C   0  0  0  0  0  0  0  0  0  0  0  0
   24.8407  -49.3302   46.4646 C   0  0  0  0  0  0  0  0  0  0  0  0
   24.7799  -48.9310   48.0002 C   0  0  0  0  0  0  0  0  0  0  0  0
   26.0263  -47.3481   45.9598 O   0  0  0  0  0  0  0  0  0  0  0  0
   22.7736  -50.1179   53.1954 C   0  0  0  0  0  0  0  0  0  0  0  0
   23.8225  -48.8137   50.9973 C   0  0  0  0  0  0  0  0  0  0  0  0
   21.6961  -56.4909   54.4750 O   0  0  0  0  0  0  0  0  0  0  0  0
   22.7752  -56.6569   53.8271 C   0  0  0  0  0  0  0  0  0  0  0  0
   20.0665  -52.9694   53.0797 O   0  0  0  0  0  0  0  0  0  0  0  0
   22.3104  -54.5677   52.5527 N   0  0  0  0  0  0  0  0  0  0  0  0
   26.4888  -49.1103   44.6956 O   0  0  0  0  0  0  0  0  0  0  0  0
   24.0436  -52.8617   52.8236 O   0  0  0  0  0  1  0  0  0  0  0  0
   23.2142  -55.6812   52.8121 C   0  0  0  0  0  0  0  0  0  0  0  0
   23.3174  -50.0652   50.8486 C   0  0  0  0  0  0  0  0  0  0  0  0
   19.5679  -51.4371   51.2997 C   0  0  0  0  0  0  0  0  0  0  0  0
   23.4767  -57.8560   53.8532 N   0  0  0  0  0  0  0  0  0  0  0  0
  1  4  1  0
  1 27  1  0
  2 15  1  0
  2 17  2  0
  2 24  1  0
  3  6  1  0
  3 18  2  0
  3 27  1  0
  4 16  1  0
  5 14  1  0
  6  9  1  0
  6 14  1  0
  7 11  1  0
  7 26  1  0
  8 13  2  0
  8 19  1  0
  9 12  1  0
  9 23  1  0
  9 25  1  0
 10 11  1  0
 10 29  1  0
 13 18  1  0
 14 22  1  0
 14 28  1  0
 15 16  1  0
 19 27  2  0
 20 21  2  0
 21 26  1  0
 21 29  1  0
 23 26  1  0
M  END
>  <ID>  (1) 
conformer_0

$$$$
