
     RDKit          3D

 28 31  0  0  0  0  0  0  0  0999 V2000
   25.0970  -48.7364   47.3707 C   0  0  0  0  0  0  0  0  0  0  0  0
   20.6694  -51.1040   52.4444 N   0  0  0  0  0  0  0  0  0  0  0  0
   25.8997  -54.4779   55.3912 O   0  0  0  0  0  0  0  0  0  0  0  0
   24.0893  -49.2825   49.6662 C   0  0  0  0  0  0  0  0  0  0  0  0
   19.5624  -58.0117   53.3754 C   0  0  0  0  0  0  0  0  0  0  0  0
   22.6866  -50.2149   51.2296 C   0  0  0  0  0  0  0  0  0  0  0  0
   23.3203  -52.9513   53.4774 C   0  0  0  0  0  0  0  0  0  0  0  0
   24.1218  -50.1411   51.6560 C   0  0  0  0  0  0  0  0  0  0  0  0
   24.9522  -49.4080   50.8317 O   0  0  0  0  0  0  0  0  0  0  0  0
   22.9656  -51.7023   52.9404 C   0  0  0  0  0  0  0  0  0  0  0  0
   24.5395  -48.9678   48.5258 O   0  0  0  0  0  0  0  0  0  0  0  0
   21.5444  -56.8467   53.9612 C   0  0  0  0  0  0  0  0  0  0  0  0
   20.8727  -58.0068   54.1421 O   0  0  0  0  0  0  0  0  0  0  0  0
   22.7367  -54.2912   53.5777 C   0  0  0  0  0  0  0  0  0  0  0  0
   22.0184  -51.0331   52.1763 C   0  0  0  0  0  0  0  0  0  0  0  0
   19.6507  -50.2467   51.8090 C   0  0  0  0  0  0  0  0  0  0  0  0
   24.7891  -53.0709   53.8620 C   0  0  0  0  0  0  0  0  0  0  0  0
   25.2074  -53.4349   55.2916 C   0  0  0  0  0  0  0  0  0  0  0  0
   18.4336  -50.5409   52.0508 O   0  0  0  0  0  0  0  0  0  0  0  0
   24.2499  -50.8270   52.7846 C   0  0  0  0  0  0  0  0  0  0  0  0
   19.5873  -56.4900   52.8207 C   0  0  0  0  0  0  0  0  0  0  0  0
   22.7328  -49.6796   49.9397 C   0  0  0  0  0  0  0  0  0  0  0  0
   22.7852  -56.5593   54.5146 C   0  0  0  0  0  0  0  0  0  0  0  0
   20.8950  -55.9128   53.2054 C   0  0  0  0  0  0  0  0  0  0  0  0
   23.3506  -55.3378   54.2991 C   0  0  0  0  0  0  0  0  0  0  0  0
   21.5245  -54.6283   52.9597 C   0  0  0  0  0  0  0  0  0  0  0  0
   19.9527  -49.2687   51.0598 O   0  0  0  0  0  0  0  0  0  0  0  0
   24.9832  -52.5646   56.1131 O   0  0  0  0  0  0  0  0  0  0  0  0
  1 11  1  0
  2 15  2  3
  2 16  1  0
  3 18  2  0
  4  9  1  0
  4 11  1  0
  4 22  1  0
  5 13  1  0
  5 21  1  0
  6  8  2  0
  6 15  1  0
  6 22  1  0
  7 10  2  3
  7 14  1  0
  7 17  1  0
  8  9  1  0
  8 20  1  0
 10 15  1  0
 10 20  1  0
 12 13  1  0
 12 23  2  0
 12 24  1  0
 14 25  2  0
 14 26  1  0
 16 19  2  0
 16 27  1  0
 17 18  1  0
 18 28  1  0
 21 24  1  0
 23 25  1  0
 24 26  2  0
M  END
>  <ID>  (1) 
conformer_0

$$$$
