
     RDKit          3D

 26 32  0  0  0  0  0  0  0  0999 V2000
   22.9635  -47.3457   52.5365 N   0  0  0  0  0  0  0  0  0  0  0  0
   23.1734  -49.6126   52.5945 C   0  0  0  0  0  0  0  0  0  0  0  0
   18.2765  -48.7355   51.5441 C   0  0  0  0  0  0  0  0  0  0  0  0
   20.6605  -50.3141   51.8886 C   0  0  0  0  0  0  0  0  0  0  0  0
   23.9237  -55.3036   52.2057 N   0  0  0  0  0  0  0  0  0  0  0  0
   25.3587  -49.8505   54.0561 C   0  0  0  0  0  0  0  0  0  0  0  0
   23.5735  -50.8392   52.9128 C   0  0  0  0  0  0  0  0  0  0  0  0
   19.3016  -52.2707   51.7353 C   0  0  0  0  0  0  0  0  0  0  0  0
   24.5312  -53.3895   53.2818 C   0  0  0  0  0  0  0  0  0  0  0  0
   24.8575  -48.6119   53.6893 C   0  0  0  0  0  0  0  0  0  0  0  0
   24.9320  -54.6643   53.0498 N   0  0  0  0  0  0  0  0  0  0  0  0
   19.5053  -48.1430   51.6313 C   0  0  0  0  0  0  0  0  0  0  0  0
   20.6572  -52.6988   51.9098 C   0  0  0  0  0  0  0  0  0  0  0  0
   18.1925  -50.1007   51.5700 N   0  0  0  0  0  0  0  0  0  0  0  0
   22.7520  -51.9197   52.5149 C   0  0  0  0  0  0  0  0  0  0  0  0
   21.7961  -47.6827   51.7081 C   0  0  0  0  0  0  0  0  0  0  0  0
   21.4377  -51.5404   52.0860 C   0  0  0  0  0  0  0  0  0  0  0  0
   23.6684  -48.4874   52.9219 C   0  0  0  0  0  0  0  0  0  0  0  0
   25.1355  -52.3325   54.0341 C   0  0  0  0  0  0  0  0  0  0  0  0
   22.7361  -54.3256   52.1543 N   0  0  0  0  0  0  0  0  0  0  0  0
   20.7334  -48.8038   51.7669 C   0  0  0  0  0  0  0  0  0  0  0  0
   24.7143  -51.0347   53.6653 C   0  0  0  0  0  0  0  0  0  0  0  0
   21.2601  -54.0158   51.8818 C   0  0  0  0  0  0  0  0  0  0  0  0
   21.7815  -46.8713   50.7585 O   0  0  0  0  0  0  0  0  0  0  0  0
   23.3103  -53.1888   52.6377 C   0  0  0  0  0  0  0  0  0  0  0  0
   19.3196  -50.8060   51.7180 C   0  0  0  0  0  0  0  0  0  0  0  0
  1 16  1  0
  1 18  1  0
  2  7  1  0
  2 18  2  0
  3 12  2  0
  3 14  1  0
  4 17  1  0
  4 21  2  0
  4 26  1  0
  5 11  1  0
  5 20  1  0
  6 10  2  0
  6 22  1  0
  7 15  1  0
  7 22  2  0
  8 13  1  0
  8 26  1  0
  9 11  1  0
  9 19  1  0
  9 25  2  0
 10 18  1  0
 12 21  1  0
 13 17  1  0
 13 23  2  0
 14 26  2  0
 15 17  2  0
 15 25  1  0
 16 21  1  0
 16 24  2  0
 19 22  1  0
 20 23  1  0
 20 25  1  0
M  END
>  <ID>  (1) 
conformer_0

$$$$
