
     RDKit          3D

 15 15  0  0  0  0  0  0  0  0999 V2000
   21.8085  -53.6283   52.1955 C   0  0  0  0  0  0  0  0  0  0  0  0
   22.8592  -54.1793   51.8258 O   0  0  0  0  0  0  0  0  0  0  0  0
   20.3345  -50.1232   51.7135 C   0  0  0  0  0  0  0  0  0  0  0  0
   22.7302  -51.4049   52.6693 C   0  0  0  0  0  0  0  0  0  0  0  0
   22.6281  -50.0089   52.4413 C   0  0  0  0  0  0  0  0  0  0  0  0
   23.7453  -49.1353   52.7503 C   0  0  0  0  0  0  0  0  0  0  0  0
   20.7289  -54.2880   52.6107 S   0  0  0  0  0  0  0  0  0  0  0  0
   23.7980  -52.0811   53.2307 C   0  0  0  0  0  0  0  0  0  0  0  0
   24.8289  -49.5099   53.2787 O   0  0  0  0  0  0  0  0  0  0  0  0
   21.6859  -49.6294   51.4703 O   0  0  0  0  0  0  0  0  0  0  0  0
   24.6836  -52.2927   53.8563 O   0  0  0  0  0  0  0  0  0  0  0  0
   19.4809  -49.7809   50.7232 F   0  0  0  0  0  0  0  0  0  0  0  0
   21.6706  -52.1781   52.1160 C   0  0  0  0  0  0  0  0  0  0  0  0
   19.9678  -49.5776   52.8109 F   0  0  0  0  0  0  0  0  0  0  0  0
   20.3584  -51.6333   51.8229 C   0  0  0  0  0  0  0  0  0  0  0  0
  1  2  2  0
  1  7  1  0
  1 13  1  0
  3 10  1  0
  3 12  1  0
  3 14  1  0
  3 15  1  0
  4  5  1  0
  4  8  2  0
  4 13  1  0
  5  6  1  0
  5 10  1  0
  6  9  2  0
  8 11  2  0
 13 15  1  0
M  END
>  <ID>  (1) 
conformer_0

$$$$
