
     RDKit          3D

 27 29  0  0  0  0  0  0  0  0999 V2000
   23.6503  -56.4092   52.4215 C   0  0  0  0  0  0  0  0  0  0  0  0
   19.8303  -53.2546   52.6410 C   0  0  0  0  0  0  0  0  0  0  0  0
   23.4210  -55.2100   54.4426 C   0  0  0  0  0  0  0  0  0  0  0  0
   23.9038  -53.9452   52.1499 C   0  0  0  0  0  0  0  0  0  0  0  0
   22.1707  -49.7530   51.9067 N   0  0  0  0  0  0  0  0  0  0  0  0
   19.2652  -51.9808   52.4721 C   0  0  0  0  0  0  0  0  0  0  0  0
   21.7018  -54.6525   52.7099 N   0  0  0  0  0  0  0  0  0  0  0  0
   21.8850  -48.7531   52.9640 C   0  0  0  0  0  0  0  0  0  0  0  0
   22.8478  -48.5590   53.8918 C   0  0  0  0  0  0  0  0  0  0  0  0
   20.5431  -46.9709   53.7804 C   0  0  0  0  0  0  0  0  0  0  0  0
   22.0319  -52.2661   52.2453 C   0  0  0  0  0  0  0  0  0  0  0  0
   26.8264  -48.8451   44.8377 C   0  0  0  0  0  0  0  0  0  0  0  0
   21.4687  -46.8128   54.8143 C   0  0  0  0  0  0  0  0  0  0  0  0
   23.3072  -50.7844   49.7448 C   0  0  0  0  0  0  0  0  0  0  0  0
   23.1416  -55.0265   52.9285 C   0  0  0  0  0  0  0  0  0  0  0  0
   26.1590  -48.2117   46.1064 C   0  0  0  0  0  0  0  0  0  0  0  0
   20.7849  -47.9753   52.8468 C   0  0  0  0  0  0  0  0  0  0  0  0
   22.6097  -47.6027   54.8701 C   0  0  0  0  0  0  0  0  0  0  0  0
   21.2015  -53.3629   52.5268 C   0  0  0  0  0  0  0  0  0  0  0  0
   23.2687  -49.6754   49.9631 N   0  0  0  0  0  0  0  0  0  0  0  0
   22.8125  -49.1471   50.9290 N   0  0  0  0  0  0  0  0  0  0  0  0
   20.0829  -50.8663   52.2357 C   0  0  0  0  0  0  0  0  0  0  0  0
   21.4549  -50.9720   52.1074 C   0  0  0  0  0  0  0  0  0  0  0  0
   23.4395  -52.6098   52.1127 C   0  0  0  0  0  0  0  0  0  0  0  0
   24.5166  -49.2497   47.8651 C   0  0  0  0  0  0  0  0  0  0  0  0
   23.8985  -48.9562   48.9380 C   0  0  0  0  0  0  0  0  0  0  0  0
   25.2230  -48.9465   46.8491 O   0  0  0  0  0  0  0  0  0  0  0  0
  1 15  1  0
  2  6  1  0
  2 19  2  0
  3 15  1  0
  4 15  1  0
  4 24  1  0
  5  8  1  0
  5 21  1  0
  5 23  1  0
  6 22  1  0
  7 15  1  0
  7 19  1  0
  8  9  2  0
  8 17  1  0
  9 18  1  0
 10 13  1  0
 10 17  2  0
 11 19  1  0
 11 23  1  0
 11 24  2  0
 12 16  1  0
 13 18  2  0
 14 20  1  0
 16 27  1  0
 20 21  1  0
 20 26  1  0
 22 23  2  0
 25 26  2  3
 25 27  1  0
M  END
>  <ID>  (1) 
conformer_0

$$$$
