
     RDKit          3D

 21 23  0  0  0  0  0  0  0  0999 V2000
   21.9464  -55.5588   53.1978 C   0  0  0  0  0  0  0  0  0  0  0  0
   23.2159  -55.5390   52.5757 C   0  0  0  0  0  0  0  0  0  0  0  0
   24.0417  -50.6860   48.3400 O   0  0  0  0  0  0  0  0  0  0  0  0
   18.7954  -50.0784   52.0082 C   0  0  0  0  0  0  0  0  0  0  0  0
   19.6014  -51.2379   52.0760 C   0  0  0  0  0  0  0  0  0  0  0  0
   24.0938  -49.4606   48.8035 C   0  0  0  0  0  0  0  0  0  0  0  0
   24.2820  -56.5374   52.5499 C   0  0  0  0  0  0  0  0  0  0  0  0
   21.4390  -49.9930   51.1219 C   0  0  0  0  0  0  0  0  0  0  0  0
   21.3008  -54.2500   52.9417 C   0  0  0  0  0  0  0  0  0  0  0  0
   23.1369  -51.4963   50.9736 O   0  0  0  0  0  0  0  0  0  0  0  0
   20.9457  -51.1909   51.6636 C   0  0  0  0  0  0  0  0  0  0  0  0
   19.3654  -48.8696   51.5809 C   0  0  0  0  0  0  0  0  0  0  0  0
   22.7645  -50.2033   50.6476 C   0  0  0  0  0  0  0  0  0  0  0  0
   20.6782  -48.8563   51.1523 C   0  0  0  0  0  0  0  0  0  0  0  0
   24.6263  -48.4445   48.1085 O   0  0  0  0  0  0  0  0  0  0  0  0
   21.9827  -52.1516   51.6442 C   0  0  0  0  0  0  0  0  0  0  0  0
   23.3499  -54.2636   51.9261 C   0  0  0  0  0  0  0  0  0  0  0  0
   22.1772  -53.4489   52.1377 C   0  0  0  0  0  0  0  0  0  0  0  0
   25.4273  -48.6867   46.9216 C   0  0  0  0  0  0  0  0  0  0  0  0
   24.0290  -57.8611   52.3585 N   0  0  0  0  0  0  0  0  0  0  0  0
   23.5365  -49.2381   50.0563 O   0  0  0  0  0  0  0  0  0  0  0  0
  1  2  1  0
  1  9  1  0
  2  7  1  0
  2 17  1  0
  3  6  2  0
  4  5  2  0
  4 12  1  0
  5 11  1  0
  6 15  1  0
  6 21  1  0
  7 20  1  0
  8 11  2  0
  8 13  1  0
  8 14  1  0
  9 18  1  0
 10 13  1  0
 10 16  1  0
 11 16  1  0
 12 14  2  0
 13 21  1  0
 15 19  1  0
 16 18  2  3
 17 18  1  0
M  END
>  <ID>  (1) 
conformer_0

$$$$
