
     RDKit          3D

 17 18  0  0  0  0  0  0  0  0999 V2000
   19.3696  -48.2060   51.3654 C   0  0  0  0  0  0  0  0  0  0  0  0
   23.1332  -50.4699   52.7544 C   0  0  0  0  0  0  0  0  0  0  0  0
   22.5492  -53.2302   52.4420 C   0  0  0  0  0  0  0  0  0  0  0  0
   25.1215  -49.2480   53.6826 C   0  0  0  0  0  0  0  0  0  0  0  0
   21.5645  -52.2873   52.4317 C   0  0  0  0  0  0  0  0  0  0  0  0
   20.2374  -52.6714   52.4675 C   0  0  0  0  0  0  0  0  0  0  0  0
   21.8664  -50.8505   52.3832 C   0  0  0  0  0  0  0  0  0  0  0  0
   20.6936  -48.7888   51.9465 C   0  0  0  0  0  0  0  0  0  0  0  0
   23.6924  -49.2408   53.1185 C   0  0  0  0  0  0  0  0  0  0  0  0
   20.8290  -50.1371   51.9402 N   0  0  0  0  0  0  0  0  0  0  0  0
   25.6894  -47.9573   53.7932 O   0  0  0  0  0  0  0  0  0  0  0  0
   19.9032  -54.0045   52.5698 C   0  0  0  0  0  0  0  0  0  0  0  0
   22.2530  -54.5592   52.5033 C   0  0  0  0  0  0  0  0  0  0  0  0
   20.9072  -54.9684   52.5891 C   0  0  0  0  0  0  0  0  0  0  0  0
   21.6728  -47.9612   52.4485 C   0  0  0  0  0  0  0  0  0  0  0  0
   22.8612  -48.1300   52.9096 C   0  0  0  0  0  0  0  0  0  0  0  0
   24.8936  -46.9856   54.4937 C   0  0  0  0  0  0  0  0  0  0  0  0
  1  8  1  0
  2  7  1  0
  2  9  2  0
  3  5  2  0
  3 13  1  0
  4  9  1  0
  4 11  1  0
  5  6  1  0
  5  7  1  0
  6 12  2  0
  7 10  2  0
  8 10  1  0
  8 15  1  0
  9 16  1  0
 11 17  1  0
 12 14  1  0
 13 14  2  0
 15 16  2  0
M  END
>  <ID>  (1) 
conformer_0

$$$$
