
     RDKit          3D

 19 22  0  0  0  0  0  0  0  0999 V2000
   24.9369  -52.6193   53.2860 O   0  0  0  0  0  0  0  0  0  0  0  0
   19.1510  -50.5658   51.3107 O   0  0  0  0  0  0  0  0  0  0  0  0
   23.6643  -54.3076   54.3749 C   0  0  0  0  0  0  0  0  0  0  0  0
   25.0296  -54.9971   54.3459 C   0  0  0  0  0  0  0  0  0  0  0  0
   26.1161  -54.6598   54.9718 O   0  0  0  0  0  0  0  0  0  0  0  0
   19.6342  -49.2311   51.4350 C   0  0  0  0  0  0  0  0  0  0  0  0
   22.4642  -52.5960   52.6505 C   0  0  0  0  0  0  0  0  0  0  0  0
   22.9544  -55.3058   53.3564 C   0  0  0  0  0  0  0  0  0  0  0  0
   23.4384  -50.5007   53.0511 O   0  0  0  0  0  0  0  0  0  0  0  0
   23.9587  -54.6024   52.2651 C   0  0  0  0  0  0  0  0  0  0  0  0
   20.1651  -51.3344   51.7695 C   0  0  0  0  0  0  0  0  0  0  0  0
   23.8199  -49.2845   52.7488 C   0  0  0  0  0  0  0  0  0  0  0  0
   21.3580  -53.2966   52.2601 C   0  0  0  0  0  0  0  0  0  0  0  0
   21.2094  -50.6124   52.1609 C   0  0  0  0  0  0  0  0  0  0  0  0
   23.7677  -53.2535   53.0888 C   0  0  0  0  0  0  0  0  0  0  0  0
   20.9366  -49.2937   52.0413 O   0  0  0  0  0  0  0  0  0  0  0  0
   22.3977  -51.2254   52.6179 C   0  0  0  0  0  0  0  0  0  0  0  0
   20.1885  -52.7141   51.8260 C   0  0  0  0  0  0  0  0  0  0  0  0
   25.2096  -55.4302   52.9154 C   0  0  0  0  0  0  0  0  0  0  0  0
  1 15  1  0
  2  6  1  0
  2 11  1  0
  3  4  1  0
  3  8  1  0
  3 15  1  0
  4  5  1  0
  4 19  1  0
  6 16  1  0
  7 13  1  0
  7 15  1  0
  7 17  2  0
  8 10  1  0
  9 12  1  0
  9 17  1  0
 10 15  1  0
 10 19  1  0
 11 14  2  0
 11 18  1  0
 13 18  2  0
 14 16  1  0
 14 17  1  0
M  END
>  <ID>  (1) 
conformer_0

$$$$
