
     RDKit          3D

 16 17  0  0  0  0  0  0  0  0999 V2000
   20.7752  -52.3379   52.2681 C   0  0  0  0  0  0  0  0  0  0  0  0
   19.9243  -48.8390   52.0210 O   0  0  0  0  0  0  0  0  0  0  0  0
   20.6365  -49.9390   52.1303 C   0  0  0  0  0  0  0  0  0  0  0  0
   20.0055  -51.1846   51.9402 C   0  0  0  0  0  0  0  0  0  0  0  0
   18.8525  -51.1913   51.3133 N   0  0  0  0  0  0  0  0  0  0  0  0
   22.9023  -53.3465   52.8165 C   0  0  0  0  0  0  0  0  0  0  0  0
   23.2379  -55.7055   53.0667 N   0  0  0  0  0  0  0  0  0  0  0  0
   21.0513  -54.7733   52.5926 C   0  0  0  0  0  0  0  0  0  0  0  0
   22.7621  -50.9052   52.5440 C   0  0  0  0  0  0  0  0  0  0  0  0
   20.2513  -53.6278   52.3296 C   0  0  0  0  0  0  0  0  0  0  0  0
   23.9907  -50.8074   52.7065 O   0  0  0  0  0  0  0  0  0  0  0  0
   21.9598  -49.8368   52.4125 N   0  0  0  0  0  0  0  0  0  0  0  0
   23.0140  -57.0378   52.7421 C   0  0  0  0  0  0  0  0  0  0  0  0
   24.5865  -55.6342   53.4773 C   0  0  0  0  0  0  0  0  0  0  0  0
   22.4056  -54.6194   52.8363 C   0  0  0  0  0  0  0  0  0  0  0  0
   22.1472  -52.2165   52.5449 C   0  0  0  0  0  0  0  0  0  0  0  0
  1  4  1  0
  1 10  1  0
  1 16  2  0
  2  3  2  0
  3  4  1  0
  3 12  1  0
  4  5  2  0
  6 15  2  0
  6 16  1  0
  7 13  1  0
  7 14  1  0
  7 15  1  0
  8 10  2  0
  8 15  1  0
  9 11  2  0
  9 12  1  0
  9 16  1  0
M  END
>  <ID>  (1) 
conformer_0

$$$$
