
     RDKit          3D

 31 36  0  0  0  0  0  0  0  0999 V2000
   22.7064  -51.2265   51.6733 C   0  0  0  0  0  0  0  0  0  0  0  0
   21.0106  -52.8532   52.1445 C   0  0  0  0  0  0  0  0  0  0  0  0
   23.7186  -49.1931   52.0580 C   0  0  0  0  0  0  0  0  0  0  0  0
   23.1317  -54.9189   52.4090 C   0  0  0  0  0  0  0  0  0  0  0  0
   23.5637  -50.9617   50.4779 C   0  0  0  0  0  0  0  0  0  0  0  0
   25.3030  -49.2066   49.9780 C   0  0  0  0  0  0  0  0  0  0  0  0
   20.1968  -57.3909   54.5108 C   0  0  0  0  0  0  0  0  0  0  0  0
   23.6195  -58.8594   54.8735 C   0  0  0  0  0  0  0  0  0  0  0  0
   22.4087  -48.4997   52.1996 C   0  0  0  0  0  0  0  0  0  0  0  0
   24.2707  -49.7662   50.8043 C   0  0  0  0  0  0  0  0  0  0  0  0
   23.2785  -53.6240   52.0514 N   0  0  0  0  0  0  0  0  0  0  0  0
   22.2438  -58.7239   54.9359 C   0  0  0  0  0  0  0  0  0  0  0  0
   24.3464  -55.6273   53.0109 C   0  0  0  0  0  0  0  0  0  0  0  0
   21.2168  -49.2639   51.8354 C   0  0  0  0  0  0  0  0  0  0  0  0
   24.7587  -48.4359   52.7653 C   0  0  0  0  0  0  0  0  0  0  0  0
   22.0130  -55.5642   52.9211 C   0  0  0  0  0  0  0  0  0  0  0  0
   19.2049  -51.3422   52.4194 O   0  0  0  0  0  0  0  0  0  0  0  0
   22.4390  -56.7118   53.6947 C   0  0  0  0  0  0  0  0  0  0  0  0
   23.9967  -51.0862   53.7040 O   0  0  0  0  0  0  0  0  0  0  0  0
   21.3280  -50.6334   51.7727 C   0  0  0  0  0  0  0  0  0  0  0  0
   20.3518  -51.6178   52.0784 C   0  0  0  0  0  0  0  0  0  0  0  0
   20.5605  -55.5191   52.7774 C   0  0  0  0  0  0  0  0  0  0  0  0
   23.7830  -56.7786   53.6872 C   0  0  0  0  0  0  0  0  0  0  0  0
   21.6370  -57.6255   54.3701 C   0  0  0  0  0  0  0  0  0  0  0  0
   22.1564  -47.8319   53.4336 O   0  0  0  0  0  0  0  0  0  0  0  0
   20.0011  -48.6181   51.8228 O   0  0  0  0  0  0  0  0  0  0  0  0
   22.3752  -52.6291   51.9630 C   0  0  0  0  0  0  0  0  0  0  0  0
   24.4065  -57.8807   54.2535 C   0  0  0  0  0  0  0  0  0  0  0  0
   19.7066  -56.3050   53.6499 C   0  0  0  0  0  0  0  0  0  0  0  0
   23.4805  -50.5686   52.6678 C   0  0  0  0  0  0  0  0  0  0  0  0
   24.7873  -49.6269   48.6127 O   0  0  0  0  0  0  0  0  0  0  0  0
  1  5  1  0
  1 20  1  0
  1 27  1  0
  1 30  1  0
  2 21  1  0
  2 27  1  0
  3  9  1  0
  3 10  1  0
  3 15  1  0
  3 30  1  0
  4 11  1  0
  4 13  1  0
  4 16  1  0
  5 10  1  0
  6 10  1  0
  6 31  1  0
  7 24  1  0
  7 29  1  0
  8 12  1  0
  8 28  2  0
  9 14  1  0
  9 25  1  0
 11 27  2  3
 12 24  2  0
 13 23  1  0
 14 20  1  0
 14 26  1  0
 16 18  1  0
 16 22  1  0
 17 21  2  0
 18 23  2  0
 18 24  1  0
 19 30  2  0
 20 21  1  0
 22 29  2  0
 23 28  1  0
M  END
>  <ID>  (1) 
conformer_0

$$$$
