
     RDKit          3D

 16 17  0  0  0  0  0  0  0  0999 V2000
   21.6881  -51.6252   52.1402 N   0  0  0  0  0  0  0  0  0  0  0  0
   23.0216  -52.4151   52.6325 C   0  0  0  0  0  0  0  0  0  0  0  0
   24.7749  -54.1565   53.1735 O   0  0  0  0  0  0  0  0  0  0  0  0
   22.6807  -49.4911   51.7012 O   0  0  0  0  0  0  0  0  0  0  0  0
   23.7112  -53.3300   53.7358 C   0  0  0  0  0  0  0  0  0  0  0  0
   20.3902  -49.5828   51.6092 C   0  0  0  0  0  0  0  0  0  0  0  0
   20.2677  -48.1395   51.4480 C   0  0  0  0  0  0  0  0  0  0  0  0
   22.8758  -54.8551   52.1450 C   0  0  0  0  0  0  0  0  0  0  0  0
   23.1334  -53.4827   51.5398 C   0  0  0  0  0  0  0  0  0  0  0  0
   24.2346  -55.3336   52.5432 C   0  0  0  0  0  0  0  0  0  0  0  0
   19.3229  -51.7846   51.7845 N   0  0  0  0  0  0  0  0  0  0  0  0
   20.5526  -52.3178   52.0597 C   0  0  0  0  0  0  0  0  0  0  0  0
   21.6639  -50.2326   51.8312 C   0  0  0  0  0  0  0  0  0  0  0  0
   23.8205  -51.3469   53.1306 O   0  0  0  0  0  0  0  0  0  0  0  0
   18.0733  -49.8551   51.4011 O   0  0  0  0  0  0  0  0  0  0  0  0
   19.2358  -50.3980   51.5926 C   0  0  0  0  0  0  0  0  0  0  0  0
  1  2  1  0
  1 12  1  0
  1 13  1  0
  2  5  1  0
  2  9  1  0
  2 14  1  0
  3  5  1  0
  3 10  1  0
  4 13  2  0
  6  7  1  0
  6 13  1  0
  6 16  1  0
  8  9  1  0
  8 10  1  0
 11 12  2  0
 11 16  1  0
 15 16  2  0
M  END
>  <ID>  (1) 
conformer_0

$$$$
