
     RDKit          3D

 20 22  0  0  0  0  0  0  0  0999 V2000
   23.3849  -50.2692   52.0459 C   0  0  0  0  0  0  0  0  0  0  0  0
   21.9785  -52.5308   52.2504 C   0  0  0  0  0  0  0  0  0  0  0  0
   22.6871  -54.8855   52.4677 C   0  0  0  0  0  0  0  0  0  0  0  0
   21.1896  -56.5211   53.4020 C   0  0  0  0  0  0  0  0  0  0  0  0
   18.7145  -50.0424   51.4224 N   0  0  0  0  0  0  0  0  0  0  0  0
   20.6721  -52.9741   52.5086 C   0  0  0  0  0  0  0  0  0  0  0  0
   23.3563  -57.1782   52.6139 C   0  0  0  0  0  0  0  0  0  0  0  0
   19.5703  -52.1522   52.2662 C   0  0  0  0  0  0  0  0  0  0  0  0
   21.0523  -50.4022   51.7508 C   0  0  0  0  0  0  0  0  0  0  0  0
   23.5042  -49.4765   51.0161 O   0  0  0  0  0  0  0  0  0  0  0  0
   23.9773  -50.1142   53.1039 O   0  0  0  0  0  0  0  0  0  0  0  0
   24.3440  -58.1728   52.2994 N   0  0  0  0  0  0  0  0  0  0  0  0
   22.9738  -53.5450   52.1900 C   0  0  0  0  0  0  0  0  0  0  0  0
   20.4435  -54.2644   52.9942 C   0  0  0  0  0  0  0  0  0  0  0  0
   19.7809  -50.8768   51.8218 C   0  0  0  0  0  0  0  0  0  0  0  0
   21.4306  -55.2204   52.9688 C   0  0  0  0  0  0  0  0  0  0  0  0
   22.1390  -57.4867   53.2163 C   0  0  0  0  0  0  0  0  0  0  0  0
   22.1911  -51.1371   52.0262 C   0  0  0  0  0  0  0  0  0  0  0  0
   23.6168  -55.8989   52.2274 N   0  0  0  0  0  0  0  0  0  0  0  0
   19.0688  -48.6670   51.2568 C   0  0  0  0  0  0  0  0  0  0  0  0
  1 10  2  0
  1 11  1  0
  1 18  1  0
  2  6  1  0
  2 13  2  0
  2 18  1  0
  3 13  1  0
  3 16  1  0
  3 19  2  0
  4 16  1  0
  4 17  2  0
  5 15  1  0
  5 20  1  0
  6  8  2  0
  6 14  1  0
  7 12  2  0
  7 17  1  0
  7 19  1  0
  8 15  1  0
  9 15  2  0
  9 18  1  0
 14 16  2  0
M  END
>  <ID>  (1) 
conformer_0

$$$$
