
     RDKit          3D

 13 13  0  0  0  0  0  0  0  0999 V2000
   22.1479  -50.6294   51.0293 C   0  0  0  0  0  0  0  0  0  0  0  0
   21.7723  -51.9220   51.3674 C   0  0  0  0  0  0  0  0  0  0  0  0
   22.4548  -52.9466   50.7769 C   0  0  0  0  0  0  0  0  0  0  0  0
   23.9925  -51.5084   49.6519 C   0  0  0  0  0  0  0  0  0  0  0  0
   19.4771  -51.8795   52.6672 C   0  0  0  0  0  0  0  0  0  0  0  0
   18.8952  -52.5731   53.5401 O   0  0  0  0  0  0  0  0  0  0  0  0
   23.2191  -50.4237   50.1561 C   0  0  0  0  0  0  0  0  0  0  0  0
   20.7973  -52.3407   52.3521 C   0  0  0  0  0  0  0  0  0  0  0  0
   24.4908  -49.2153   48.4821 C   0  0  0  0  0  0  0  0  0  0  0  0
   19.0651  -50.8592   52.1151 O   0  0  0  0  0  0  0  0  0  0  0  0
   23.5299  -52.7559   49.9371 C   0  0  0  0  0  0  0  0  0  0  0  0
   25.0223  -48.8666   47.2340 C   0  0  0  0  0  0  0  0  0  0  0  0
   23.5851  -49.0517   49.6807 C   0  0  0  0  0  0  0  0  0  0  0  0
  1  2  2  0
  1  7  1  0
  2  3  1  0
  2  8  1  0
  3 11  2  0
  4  7  2  0
  4 11  1  0
  5  6  2  0
  5  8  1  0
  5 10  1  0
  7 13  1  0
  9 12  1  0
  9 13  1  0
M  END
>  <ID>  (1) 
conformer_0

$$$$
