
     RDKit          3D

 18 19  0  0  0  0  0  0  0  0999 V2000
   21.7194  -52.2932   52.0947 N   0  0  0  0  0  0  0  0  0  0  0  0
   20.3170  -52.5754   52.3297 C   0  0  0  0  0  0  0  0  0  0  0  0
   25.0259  -48.8805   47.4542 C   0  0  0  0  0  0  0  0  0  0  0  0
   23.5285  -54.2680   51.9707 C   0  0  0  0  0  0  0  0  0  0  0  0
   22.6350  -53.2053   51.9867 C   0  0  0  0  0  0  0  0  0  0  0  0
   19.3208  -51.7490   52.1218 N   0  0  0  0  0  0  0  0  0  0  0  0
   20.7647  -50.0374   51.7338 N   0  0  0  0  0  0  0  0  0  0  0  0
   24.0815  -49.2462   48.7817 C   0  0  0  0  0  0  0  0  0  0  0  0
   22.8452  -50.5845   50.6455 O   0  0  0  0  0  0  0  0  0  0  0  0
   19.5515  -50.4501   51.7958 C   0  0  0  0  0  0  0  0  0  0  0  0
   23.1995  -55.5187   52.5127 C   0  0  0  0  0  0  0  0  0  0  0  0
   21.0700  -54.6322   52.9670 C   0  0  0  0  0  0  0  0  0  0  0  0
   18.4585  -49.5656   51.5140 C   0  0  0  0  0  0  0  0  0  0  0  0
   21.9168  -55.6442   53.0209 C   0  0  0  0  0  0  0  0  0  0  0  0
   23.2722  -49.2692   50.3050 C   0  0  0  0  0  0  0  0  0  0  0  0
   21.3853  -53.3277   52.4011 C   0  0  0  0  0  0  0  0  0  0  0  0
   21.9891  -50.8112   51.9206 C   0  0  0  0  0  0  0  0  0  0  0  0
   22.8222  -50.3241   52.9128 O   0  0  0  0  0  0  0  0  0  0  0  0
  1 16  1  0
  1 17  1  0
  2  6  1  0
  2 16  1  0
  3  8  1  0
  4  5  2  0
  4 11  1  0
  5 16  1  0
  6 10  1  0
  7 10  2  0
  7 17  1  0
  8 15  1  0
  9 15  1  0
  9 17  1  0
 10 13  1  0
 11 14  1  0
 12 14  2  0
 12 16  1  0
 17 18  1  0
M  END
>  <ID>  (1) 
conformer_0

$$$$
