
     RDKit          3D

 25 27  0  0  0  0  0  0  0  0999 V2000
   22.1940  -51.7566   51.8194 C   0  0  0  0  0  0  0  0  0  0  0  0
   22.8471  -52.1712   50.4508 C   0  0  0  0  0  0  0  0  0  0  0  0
   23.1984  -54.4075   52.0726 C   0  0  0  0  0  0  0  0  0  0  0  0
   19.8997  -50.6365   51.6598 C   0  0  0  0  0  0  0  0  0  0  0  0
   23.8930  -56.2847   53.6878 C   0  0  0  0  0  0  0  0  0  0  0  0
   21.3219  -50.5528   51.5836 C   0  0  0  0  0  0  0  0  0  0  0  0
   23.9529  -47.9702   54.7541 C   0  0  0  0  0  0  0  0  0  0  0  0
   25.5245  -52.1247   53.6583 C   0  0  0  0  0  0  0  0  0  0  0  0
   23.7124  -55.4771   51.3973 O   0  0  0  0  0  0  0  0  0  0  0  0
   21.8017  -54.1932   52.0267 C   0  0  0  0  0  0  0  0  0  0  0  0
   23.3000  -51.4480   52.7708 C   0  0  0  0  0  0  0  0  0  0  0  0
   22.8081  -49.1019   52.9006 C   0  0  0  0  0  0  0  0  0  0  0  0
   25.9753  -51.0669   54.4376 C   0  0  0  0  0  0  0  0  0  0  0  0
   24.2148  -56.5763   52.2133 C   0  0  0  0  0  0  0  0  0  0  0  0
   20.9469  -48.2684   51.8558 O   0  0  0  0  0  0  0  0  0  0  0  0
   18.9612  -50.3335   50.9291 N   0  0  0  0  0  0  0  0  0  0  0  0
   22.7762  -47.9789   53.8450 C   0  0  0  0  0  0  0  0  0  0  0  0
   24.6006  -54.9778   53.8964 C   0  0  0  0  0  0  0  0  0  0  0  0
   23.6261  -50.1623   53.1064 N   0  0  0  0  0  0  0  0  0  0  0  0
   24.0016  -53.9178   53.1260 C   0  0  0  0  0  0  0  0  0  0  0  0
   21.2490  -52.8519   52.1809 C   0  0  0  0  0  0  0  0  0  0  0  0
   20.0308  -52.8572   52.4962 O   0  0  0  0  0  0  0  0  0  0  0  0
   25.1132  -54.6376   55.2215 C   0  0  0  0  0  0  0  0  0  0  0  0
   21.7200  -49.2795   52.0227 C   0  0  0  0  0  0  0  0  0  0  0  0
   24.1735  -52.4962   53.2395 C   0  0  0  0  0  0  0  0  0  0  0  0
  1  2  1  0
  1  6  1  0
  1 11  1  0
  1 21  1  0
  3  9  1  0
  3 10  1  0
  3 20  1  0
  4  6  1  0
  4 16  2  0
  5 14  1  0
  5 18  1  0
  6 24  1  0
  7 17  1  0
  8 13  1  0
  8 25  1  0
  9 14  1  0
 10 21  1  0
 11 19  1  0
 11 25  1  0
 12 17  1  0
 12 19  1  0
 12 24  1  0
 15 24  2  0
 18 20  1  0
 18 23  1  0
 20 25  1  0
 21 22  2  0
M  END
>  <ID>  (1) 
conformer_0

$$$$
