
     RDKit          3D

 23 25  0  0  0  0  0  0  0  0999 V2000
   25.3479  -49.9662   53.2411 O   0  0  0  0  0  0  0  0  0  0  0  0
   24.0372  -54.9211   53.1088 C   0  0  0  0  0  0  0  0  0  0  0  0
   20.0610  -51.5248   52.2335 C   0  0  0  0  0  0  0  0  0  0  0  0
   24.5637  -52.5997   53.7058 C   0  0  0  0  0  0  0  0  0  0  0  0
   24.4964  -49.1948   46.9327 C   0  0  0  0  0  0  0  0  0  0  0  0
   24.0007  -50.1559   53.2367 C   0  0  0  0  0  0  0  0  0  0  0  0
   22.9134  -54.6248   52.3526 C   0  0  0  0  0  0  0  0  0  0  0  0
   19.4880  -50.2200   51.7196 C   0  0  0  0  0  0  0  0  0  0  0  0
   24.6094  -49.0204   48.2257 C   0  0  0  0  0  0  0  0  0  0  0  0
   21.8533  -49.9323   52.0140 C   0  0  0  0  0  0  0  0  0  0  0  0
   26.1111  -48.7079   44.9210 C   0  0  0  0  0  0  0  0  0  0  0  0
   24.7085  -49.3098   45.9221 C   0  0  0  0  0  0  0  0  0  0  0  0
   24.1543  -49.2526   49.4623 C   0  0  0  0  0  0  0  0  0  0  0  0
   23.6854  -51.7056   53.1867 C   0  0  0  0  0  0  0  0  0  0  0  0
   23.8321  -49.3873   50.7117 N   0  0  0  0  0  0  0  0  0  0  0  0
   20.6021  -49.1575   51.8038 C   0  0  0  0  0  0  0  0  0  0  0  0
   21.4395  -51.2442   52.4843 C   0  0  0  0  0  0  0  0  0  0  0  0
   23.3746  -49.4230   54.2155 O   0  0  0  0  0  0  0  0  0  0  0  0
   23.2703  -49.7146   51.8633 N   0  0  0  0  0  0  0  0  0  0  0  0
   22.2944  -53.4432   52.2115 C   0  0  0  0  0  0  0  0  0  0  0  0
   22.4950  -52.1591   52.6247 C   0  0  0  0  0  0  0  0  0  0  0  0
   26.5778  -48.4248   45.6158 C   0  0  0  0  0  0  0  0  0  0  0  0
   24.6768  -53.9013   53.7103 C   0  0  0  0  0  0  0  0  0  0  0  0
  1  6  1  0
  2  7  1  0
  2 23  1  0
  3  8  1  0
  3 17  1  0
  4 14  1  0
  4 23  2  0
  5  9  2  0
  5 12  2  0
  6 14  1  0
  6 18  1  0
  6 19  1  0
  7 20  2  0
  8 16  1  0
  9 13  1  0
 10 16  1  0
 10 17  1  0
 10 19  1  0
 11 12  1  0
 11 22  1  0
 13 15  1  0
 14 21  1  0
 15 19  1  0
 17 21  1  0
 20 21  1  0
M  END
>  <ID>  (1) 
conformer_0

$$$$
