
     RDKit          3D

 17 19  0  0  0  0  0  0  0  0999 V2000
   22.2456  -52.2112   52.3592 C   0  0  0  0  0  0  0  0  0  0  0  0
   18.7771  -52.0408   52.6352 O   0  0  0  0  0  0  0  0  0  0  0  0
   24.2898  -49.3533   47.7724 C   0  0  0  0  0  0  0  0  0  0  0  0
   23.1570  -48.6441   51.2050 C   0  0  0  0  0  0  0  0  0  0  0  0
   20.6335  -50.5478   52.3318 C   0  0  0  0  0  0  0  0  0  0  0  0
   23.0730  -49.7512   52.2147 C   0  0  0  0  0  0  0  0  0  0  0  0
   23.9872  -50.6236   48.2438 C   0  0  0  0  0  0  0  0  0  0  0  0
   23.2427  -54.3891   52.4757 C   0  0  0  0  0  0  0  0  0  0  0  0
   20.0158  -51.8345   52.4958 C   0  0  0  0  0  0  0  0  0  0  0  0
   22.0611  -50.8115   52.2009 C   0  0  0  0  0  0  0  0  0  0  0  0
   21.0033  -52.8801   52.5146 C   0  0  0  0  0  0  0  0  0  0  0  0
   20.8629  -54.2008   52.6131 C   0  0  0  0  0  0  0  0  0  0  0  0
   24.0448  -48.3652   48.8165 C   0  0  0  0  0  0  0  0  0  0  0  0
   23.5977  -49.1422   49.8767 C   0  0  0  0  0  0  0  0  0  0  0  0
   21.9737  -54.9853   52.5853 C   0  0  0  0  0  0  0  0  0  0  0  0
   23.5346  -50.5013   49.5406 N   0  0  0  0  0  0  0  0  0  0  0  0
   23.3513  -52.9998   52.3797 C   0  0  0  0  0  0  0  0  0  0  0  0
  1 10  1  0
  1 11  2  0
  1 17  1  0
  2  9  2  0
  3  7  1  0
  3 13  1  0
  4  6  1  0
  4 14  1  0
  5  9  1  0
  5 10  1  0
  6 10  1  0
  7 16  1  0
  8 15  1  0
  8 17  2  0
  9 11  1  0
 11 12  1  0
 12 15  2  0
 13 14  1  0
 14 16  1  0
M  END
>  <ID>  (1) 
conformer_0

$$$$
