
     RDKit          3D

 23 25  0  0  0  0  0  0  0  0999 V2000
   22.7876  -48.8083   53.8610 C   0  0  0  0  0  0  0  0  0  0  0  0
   23.8935  -54.0952   51.6597 N   0  0  0  0  0  0  0  0  0  0  0  0
   22.7898  -49.6459   51.2383 C   0  0  0  0  0  0  0  0  0  0  0  0
   24.1375  -47.9777   47.5372 O   0  0  0  0  0  0  0  0  0  0  0  0
   23.2779  -55.1653   52.2286 C   0  0  0  0  0  0  0  0  0  0  0  0
   23.1572  -50.1925   50.0378 N   0  0  0  0  0  0  0  0  0  0  0  0
   19.1338  -50.3488   51.3213 C   0  0  0  0  0  0  0  0  0  0  0  0
   21.2137  -51.4571   51.9156 C   0  0  0  0  0  0  0  0  0  0  0  0
   21.9881  -55.0908   52.6042 C   0  0  0  0  0  0  0  0  0  0  0  0
   23.1836  -52.9015   51.5727 C   0  0  0  0  0  0  0  0  0  0  0  0
   21.2894  -53.9365   52.4861 C   0  0  0  0  0  0  0  0  0  0  0  0
   19.7909  -51.3024   52.1556 C   0  0  0  0  0  0  0  0  0  0  0  0
   22.3282  -50.0476   53.5660 C   0  0  0  0  0  0  0  0  0  0  0  0
   21.9113  -52.7574   51.9991 C   0  0  0  0  0  0  0  0  0  0  0  0
   19.9592  -54.0726   52.8750 N   0  0  0  0  0  0  0  0  0  0  0  0
   22.1201  -50.4122   52.2351 C   0  0  0  0  0  0  0  0  0  0  0  0
   23.6750  -49.5471   49.0034 C   0  0  0  0  0  0  0  0  0  0  0  0
   23.5138  -48.2227   48.7146 N   0  0  0  0  0  0  0  0  0  0  0  0
   24.3598  -50.2398   48.0004 C   0  0  0  0  0  0  0  0  0  0  0  0
   23.0800  -47.9195   52.8179 C   0  0  0  0  0  0  0  0  0  0  0  0
   19.0878  -51.7396   53.0120 O   0  0  0  0  0  0  0  0  0  0  0  0
   24.6917  -49.2666   47.0706 N   0  0  0  0  0  0  0  0  0  0  0  0
   23.0884  -48.3686   51.5184 C   0  0  0  0  0  0  0  0  0  0  0  0
  1 13  2  0
  1 20  1  0
  2  5  2  0
  2 10  1  0
  3  6  2  3
  3 16  1  0
  3 23  1  0
  4 18  1  0
  4 22  1  0
  5  9  1  0
  6 17  1  0
  7 12  1  0
  8 12  1  0
  8 14  1  0
  8 16  1  0
  9 11  2  0
 10 14  2  0
 11 14  1  0
 11 15  1  0
 12 21  2  0
 13 16  1  0
 17 18  2  0
 17 19  1  0
 19 22  1  0
 20 23  2  0
M  END
>  <ID>  (1) 
conformer_0

$$$$
