
     RDKit          3D

 19 19  0  0  0  0  0  0  0  0999 V2000
   22.9075  -57.1471   53.3497 C   0  0  0  0  0  0  0  0  0  0  0  0
   21.2243  -53.4208   52.6586 C   0  0  0  0  0  0  0  0  0  0  0  0
   21.1810  -51.0784   52.0680 C   0  0  0  0  0  0  0  0  0  0  0  0
   21.6674  -49.8113   51.7220 C   0  0  0  0  0  0  0  0  0  0  0  0
   23.6869  -48.6017   52.2407 O   0  0  0  0  0  0  0  0  0  0  0  0
   24.5600  -59.3660   51.6524 O   0  0  0  0  0  0  0  0  0  0  0  0
   19.8321  -51.3553   51.9153 C   0  0  0  0  0  0  0  0  0  0  0  0
   25.7245  -58.6273   53.6118 C   0  0  0  0  0  0  0  0  0  0  0  0
   23.2023  -52.0247   52.8946 O   0  0  0  0  0  0  0  0  0  0  0  0
   18.9606  -50.3932   51.4707 C   0  0  0  0  0  0  0  0  0  0  0  0
   23.2120  -55.8867   54.2199 C   0  0  0  0  0  0  0  0  0  0  0  0
   22.9983  -49.5299   51.6577 O   0  0  0  0  0  0  0  0  0  0  0  0
   23.0594  -54.7661   53.2620 N   0  0  0  0  0  0  0  0  0  0  0  0
   19.4317  -49.1363   51.1867 C   0  0  0  0  0  0  0  0  0  0  0  0
   21.6418  -54.7748   52.8107 C   0  0  0  0  0  0  0  0  0  0  0  0
   24.1635  -57.2051   52.4038 C   0  0  0  0  0  0  0  0  0  0  0  0
   22.0025  -52.1693   52.5785 C   0  0  0  0  0  0  0  0  0  0  0  0
   20.7753  -48.8350   51.3326 C   0  0  0  0  0  0  0  0  0  0  0  0
   24.7876  -58.5437   52.5921 C   0  0  0  0  0  0  0  0  0  0  0  0
  1 11  1  0
  1 16  1  0
  2 15  1  0
  2 17  1  0
  3  4  2  0
  3  7  1  0
  3 17  1  0
  4 12  1  0
  4 18  1  0
  5 12  1  0
  6 19  2  0
  7 10  2  0
  8 19  1  0
  9 17  2  0
 10 14  1  0
 11 13  1  0
 13 15  1  0
 14 18  2  0
 16 19  1  0
M  END
>  <ID>  (1) 
conformer_0

$$$$
