
     RDKit          3D

 18 21  0  0  0  0  0  0  0  0999 V2000
   25.7273  -56.7541   52.8676 C   0  0  0  0  0  0  0  0  0  0  0  0
   21.5818  -49.1923   51.7420 C   0  0  0  0  0  0  0  0  0  0  0  0
   21.9358  -51.4981   52.1059 C   0  0  0  0  0  0  0  0  0  0  0  0
   21.0812  -50.4434   51.7682 C   0  0  0  0  0  0  0  0  0  0  0  0
   21.2693  -52.7000   51.9859 C   0  0  0  0  0  0  0  0  0  0  0  0
   23.9406  -52.5475   52.7142 N   0  0  0  0  0  0  0  0  0  0  0  0
   22.9030  -48.9925   52.1090 C   0  0  0  0  0  0  0  0  0  0  0  0
   24.4765  -57.4456   52.4484 C   0  0  0  0  0  0  0  0  0  0  0  0
   24.1106  -55.1010   52.4731 N   0  0  0  0  0  0  0  0  0  0  0  0
   23.4259  -56.4142   52.5067 C   0  0  0  0  0  0  0  0  0  0  0  0
   23.2071  -51.3612   52.4500 C   0  0  0  0  0  0  0  0  0  0  0  0
   18.6690  -50.3502   51.2285 C   0  0  0  0  0  0  0  0  0  0  0  0
   21.9985  -53.8860   52.1341 N   0  0  0  0  0  0  0  0  0  0  0  0
   19.9369  -52.3992   51.6600 N   0  0  0  0  0  0  0  0  0  0  0  0
   25.2693  -55.3957   53.3746 C   0  0  0  0  0  0  0  0  0  0  0  0
   19.8210  -51.0468   51.5250 C   0  0  0  0  0  0  0  0  0  0  0  0
   23.7181  -50.0635   52.5071 C   0  0  0  0  0  0  0  0  0  0  0  0
   23.3691  -53.8046   52.4753 C   0  0  0  0  0  0  0  0  0  0  0  0
  1  8  1  0
  1 15  1  0
  2  4  2  0
  2  7  1  0
  3  4  1  0
  3  5  2  0
  3 11  1  0
  4 16  1  0
  5 13  1  0
  5 14  1  0
  6 11  2  0
  6 18  1  0
  7 17  2  0
  8 10  1  0
  9 10  1  0
  9 15  1  0
  9 18  1  0
 11 17  1  0
 12 16  1  0
 13 18  2  0
 14 16  1  0
M  END
>  <ID>  (1) 
conformer_0

$$$$
