
     RDKit          3D

 14 14  0  0  0  0  0  0  0  0999 V2000
   18.4450  -49.8815   51.3744 C   0  0  0  0  0  0  0  0  0  0  0  0
   22.5656  -50.3364   52.1053 C   0  0  0  0  0  0  0  0  0  0  0  0
   24.5306  -52.6690   53.3241 O   0  0  0  0  0  0  0  0  0  0  0  0
   23.6309  -54.5289   51.9538 C   0  0  0  0  0  0  0  0  0  0  0  0
   20.4012  -51.3037   51.6653 C   0  0  0  0  0  0  0  0  0  0  0  0
   21.7354  -51.4163   51.9641 C   0  0  0  0  0  0  0  0  0  0  0  0
   22.8680  -47.8885   52.1487 C   0  0  0  0  0  0  0  0  0  0  0  0
   22.0248  -49.0801   52.0014 C   0  0  0  0  0  0  0  0  0  0  0  0
   19.8712  -50.0419   51.5889 C   0  0  0  0  0  0  0  0  0  0  0  0
   22.2045  -52.6539   52.1563 O   0  0  0  0  0  0  0  0  0  0  0  0
   22.7413  -53.4863   51.2382 C   0  0  0  0  0  0  0  0  0  0  0  0
   24.8632  -54.9065   52.8675 C   0  0  0  0  0  0  0  0  0  0  0  0
   23.9562  -53.9027   53.2827 C   0  0  0  0  0  0  0  0  0  0  0  0
   20.6533  -48.9268   51.7435 C   0  0  0  0  0  0  0  0  0  0  0  0
  1  9  1  0
  2  6  2  0
  2  8  1  0
  3 13  1  0
  4 11  1  0
  4 13  1  0
  5  6  1  0
  5  9  2  0
  6 10  1  0
  7  8  1  0
  8 14  2  0
  9 14  1  0
 10 11  1  0
 12 13  1  0
M  END
>  <ID>  (1) 
conformer_0

$$$$
