
     RDKit          3D

 16 18  0  0  0  0  0  0  0  0999 V2000
   20.7243  -52.7334   52.5090 C   0  0  0  0  0  0  0  0  0  0  0  0
   24.4278  -49.7678   53.2397 O   0  0  0  0  0  0  0  0  0  0  0  0
   23.4108  -50.0087   52.5381 C   0  0  0  0  0  0  0  0  0  0  0  0
   23.0941  -55.0194   52.1090 C   0  0  0  0  0  0  0  0  0  0  0  0
   18.9726  -51.4699   51.5828 C   0  0  0  0  0  0  0  0  0  0  0  0
   21.0315  -50.5938   51.4990 C   0  0  0  0  0  0  0  0  0  0  0  0
   23.5356  -52.6896   52.9589 C   0  0  0  0  0  0  0  0  0  0  0  0
   19.3858  -52.5237   52.3374 C   0  0  0  0  0  0  0  0  0  0  0  0
   22.3503  -52.9490   50.9021 C   0  0  0  0  0  0  0  0  0  0  0  0
   22.9247  -49.0078   51.9003 O   0  0  0  0  0  0  0  0  0  0  0  0
   19.7241  -50.3091   51.8099 C   0  0  0  0  0  0  0  0  0  0  0  0
   21.6842  -51.8691   51.8161 C   0  0  0  0  0  0  0  0  0  0  0  0
   23.0238  -51.4085   52.4528 C   0  0  0  0  0  0  0  0  0  0  0  0
   23.3663  -53.6055   51.8062 C   0  0  0  0  0  0  0  0  0  0  0  0
   20.8691  -54.1800   52.4104 C   0  0  0  0  0  0  0  0  0  0  0  0
   21.9394  -54.9202   53.1235 C   0  0  0  0  0  0  0  0  0  0  0  0
  1  8  1  0
  1 12  1  0
  1 15  1  0
  2  3  2  0
  3 10  1  0
  3 13  1  0
  4 14  1  0
  4 16  1  0
  5  8  1  0
  5 11  1  0
  6 11  1  0
  6 12  1  0
  7 13  1  0
  7 14  1  0
  9 12  1  0
  9 14  1  0
 12 13  1  0
 15 16  1  0
M  END
>  <ID>  (1) 
conformer_0

$$$$
