
     RDKit          3D

 21 24  0  0  0  0  0  0  0  0999 V2000
   23.1821  -59.5077   55.2395 C   0  0  0  0  0  0  0  0  0  0  0  0
   23.9815  -57.7186   53.3107 C   0  0  0  0  0  0  0  0  0  0  0  0
   23.5868  -52.9126   51.7538 O   0  0  0  0  0  0  0  0  0  0  0  0
   20.1980  -52.4989   52.6702 N   0  0  0  0  0  0  0  0  0  0  0  0
   20.9315  -50.3099   51.8675 C   0  0  0  0  0  0  0  0  0  0  0  0
   21.8332  -56.6928   53.4967 C   0  0  0  0  0  0  0  0  0  0  0  0
   21.0248  -48.9327   51.4593 C   0  0  0  0  0  0  0  0  0  0  0  0
   18.6996  -50.9934   52.1074 O   0  0  0  0  0  0  0  0  0  0  0  0
   22.4461  -52.1055   51.9810 C   0  0  0  0  0  0  0  0  0  0  0  0
   23.1934  -54.2877   52.1031 C   0  0  0  0  0  0  0  0  0  0  0  0
   22.4906  -48.6335   51.3315 C   0  0  0  0  0  0  0  0  0  0  0  0
   21.4543  -52.9404   52.3862 C   0  0  0  0  0  0  0  0  0  0  0  0
   23.1479  -49.7488   52.0151 C   0  0  0  0  0  0  0  0  0  0  0  0
   21.9841  -57.6030   54.6308 C   0  0  0  0  0  0  0  0  0  0  0  0
   23.1963  -56.5556   52.8928 N   0  0  0  0  0  0  0  0  0  0  0  0
   21.9382  -54.2019   52.4078 C   0  0  0  0  0  0  0  0  0  0  0  0
   19.8744  -51.2405   52.2372 C   0  0  0  0  0  0  0  0  0  0  0  0
   19.3744  -53.3999   53.3873 C   0  0  0  0  0  0  0  0  0  0  0  0
   22.2940  -50.8086   51.8948 N   0  0  0  0  0  0  0  0  0  0  0  0
   24.0005  -55.5681   52.1279 C   0  0  0  0  0  0  0  0  0  0  0  0
   23.2307  -58.4700   54.2966 C   0  0  0  0  0  0  0  0  0  0  0  0
  1 21  1  0
  2 15  1  0
  2 21  1  0
  3  9  1  0
  3 10  1  0
  4 12  1  0
  4 17  1  0
  4 18  1  0
  5  7  1  0
  5 17  1  0
  5 19  1  0
  6 14  1  0
  6 15  1  0
  7 11  1  0
  8 17  2  0
  9 12  2  0
  9 19  1  0
 10 16  1  0
 10 20  1  0
 11 13  1  0
 12 16  1  0
 13 19  1  0
 14 21  1  0
 15 20  1  0
M  END
>  <ID>  (1) 
conformer_0

$$$$
