
     RDKit          3D

 21 22  0  0  0  0  0  0  0  0999 V2000
   21.4629  -51.3928   52.2393 C   0  0  0  0  0  0  0  0  0  0  0  0
   21.9261  -49.0371   52.3138 C   0  0  0  0  0  0  0  0  0  0  0  0
   21.8892  -52.7916   52.4452 C   0  0  0  0  0  0  0  0  0  0  0  0
   18.5223  -49.4601   51.1414 O   0  0  0  0  0  0  0  0  0  0  0  0
   23.6012  -54.2440   51.8031 C   0  0  0  0  0  0  0  0  0  0  0  0
   23.7827  -50.4108   52.9897 C   0  0  0  0  0  0  0  0  0  0  0  0
   24.4669  -49.2927   52.8899 O   0  0  0  0  0  0  0  0  0  0  0  0
   22.7158  -55.1603   52.6824 C   0  0  0  0  0  0  0  0  0  0  0  0
   23.3336  -52.9301   52.3210 O   0  0  0  0  0  0  0  0  0  0  0  0
   21.5628  -54.1551   52.9907 C   0  0  0  0  0  0  0  0  0  0  0  0
   24.5164  -51.2995   53.6247 O   0  0  0  0  0  0  0  0  0  0  0  0
   23.8611  -55.9454   53.4219 C   0  0  0  0  0  0  0  0  0  0  0  0
   20.6536  -48.7610   51.9027 C   0  0  0  0  0  0  0  0  0  0  0  0
   19.3222  -52.0991   51.5240 O   0  0  0  0  0  0  0  0  0  0  0  0
   22.0657  -57.0186   54.6281 O   0  0  0  0  0  0  0  0  0  0  0  0
   22.3774  -50.3086   52.5074 C   0  0  0  0  0  0  0  0  0  0  0  0
   23.3419  -57.0570   54.2401 C   0  0  0  0  0  0  0  0  0  0  0  0
   24.6030  -56.4385   52.2962 O   0  0  0  0  0  0  0  0  0  0  0  0
   24.2140  -58.0017   54.4653 O   0  0  0  0  0  0  0  0  0  0  0  0
   19.7735  -49.7818   51.6091 C   0  0  0  0  0  0  0  0  0  0  0  0
   20.1776  -51.0851   51.7799 C   0  0  0  0  0  0  0  0  0  0  0  0
  1  3  1  0
  1 16  1  0
  1 21  1  0
  2 13  1  0
  2 16  2  0
  3  9  1  0
  3 10  1  0
  4 20  1  0
  5  8  1  0
  5  9  1  0
  6  7  2  0
  6 11  1  0
  6 16  1  0
  8 10  1  0
  8 12  1  0
 12 17  1  0
 12 18  1  0
 13 20  1  0
 14 21  1  0
 15 17  2  0
 17 19  1  0
 20 21  2  0
M  END
>  <ID>  (1) 
conformer_0

$$$$
