
     RDKit          3D

 10 11  0  0  0  0  0  0  0  0999 V2000
   21.4802  -50.6882   51.4612 C   0  0  0  0  0  0  0  0  0  0  0  0
   20.1202  -50.7270   51.5563 C   0  0  0  0  0  0  0  0  0  0  0  0
   22.0332  -52.0125   51.4868 C   0  0  0  0  0  0  0  0  0  0  0  0
   23.4189  -49.3659   51.3375 O   0  0  0  0  0  0  0  0  0  0  0  0
   21.3640  -48.2819   51.3306 C   0  0  0  0  0  0  0  0  0  0  0  0
   22.1460  -49.4209   51.3836 C   0  0  0  0  0  0  0  0  0  0  0  0
   19.6843  -52.0515   51.7509 C   0  0  0  0  0  0  0  0  0  0  0  0
   19.3676  -49.5907   51.4502 N   0  0  0  0  0  0  0  0  0  0  0  0
   20.9104  -52.8791   51.7580 C   0  0  0  0  0  0  0  0  0  0  0  0
   19.9752  -48.3938   51.3411 C   0  0  0  0  0  0  0  0  0  0  0  0
  1  2  2  0
  1  3  1  0
  1  6  1  0
  2  7  1  0
  2  8  1  0
  3  9  1  0
  4  6  2  0
  5  6  1  0
  5 10  1  0
  7  9  1  0
  8 10  2  0
M  END
>  <ID>  (1) 
conformer_0

$$$$
