
     RDKit          3D

 23 26  0  0  0  0  0  0  0  0999 V2000
   18.1768  -49.3812   51.4002 O   0  0  0  0  0  0  0  0  0  0  0  0
   22.7870  -51.0808   52.5921 C   0  0  0  0  0  0  0  0  0  0  0  0
   22.0594  -53.0688   51.5898 O   0  0  0  0  0  0  0  0  0  0  0  0
   23.6331  -57.1571   52.7522 C   0  0  0  0  0  0  0  0  0  0  0  0
   21.5971  -49.0036   52.4722 C   0  0  0  0  0  0  0  0  0  0  0  0
   22.5485  -54.1074   52.3540 C   0  0  0  0  0  0  0  0  0  0  0  0
   25.5441  -52.7808   54.3258 C   0  0  0  0  0  0  0  0  0  0  0  0
   21.7977  -51.7409   51.9873 C   0  0  0  0  0  0  0  0  0  0  0  0
   24.4309  -52.9326   53.4024 C   0  0  0  0  0  0  0  0  0  0  0  0
   20.5931  -51.1004   51.7902 C   0  0  0  0  0  0  0  0  0  0  0  0
   24.4198  -58.3342   52.1064 C   0  0  0  0  0  0  0  0  0  0  0  0
   24.8197  -50.7042   53.7610 C   0  0  0  0  0  0  0  0  0  0  0  0
   26.1223  -53.7618   54.8999 F   0  0  0  0  0  0  0  0  0  0  0  0
   20.4929  -49.7269   51.9918 C   0  0  0  0  0  0  0  0  0  0  0  0
   21.7648  -55.0648   52.5935 O   0  0  0  0  0  0  0  0  0  0  0  0
   19.4783  -51.9054   51.4375 C   0  0  0  0  0  0  0  0  0  0  0  0
   24.3412  -55.7581   52.5317 C   0  0  0  0  0  0  0  0  0  0  0  0
   19.3186  -48.9537   51.7109 C   0  0  0  0  0  0  0  0  0  0  0  0
   22.6989  -49.7170   52.7613 C   0  0  0  0  0  0  0  0  0  0  0  0
   25.8139  -51.3434   54.5054 C   0  0  0  0  0  0  0  0  0  0  0  0
   24.2788  -49.0782   53.5060 S   0  0  0  0  0  0  0  0  0  0  0  0
   23.9442  -54.2670   52.8402 C   0  0  0  0  0  0  0  0  0  0  0  0
   23.9405  -51.6763   53.1353 C   0  0  0  0  0  0  0  0  0  0  0  0
  1 18  2  0
  2  8  2  0
  2 19  1  0
  2 23  1  0
  3  6  1  0
  3  8  1  0
  4 11  1  0
  4 17  1  0
  5 14  1  0
  5 19  2  0
  6 15  2  0
  6 22  1  0
  7  9  2  0
  7 13  1  0
  7 20  1  0
  8 10  1  0
  9 22  1  0
  9 23  1  0
 10 14  2  0
 10 16  1  0
 12 20  1  0
 12 21  1  0
 12 23  2  0
 14 18  1  0
 17 22  1  0
 19 21  1  0
M  END
>  <ID>  (1) 
conformer_0

$$$$
