
     RDKit          3D

 23 25  0  0  0  0  0  0  0  0999 V2000
   23.6245  -49.2133   50.1812 O   0  0  0  0  0  0  0  0  0  0  0  0
   23.8101  -57.3018   52.8789 C   0  0  0  0  0  0  0  0  0  0  0  0
   22.9775  -53.7054   52.6389 N   0  0  0  0  0  0  0  0  0  0  0  0
   23.8961  -48.2122   52.1633 O   0  0  0  0  0  0  0  0  0  0  0  0
   18.4102  -49.7872   51.4437 C   0  0  0  0  0  0  0  0  0  0  0  0
   20.0746  -51.4327   52.0965 C   0  0  0  0  0  0  0  0  0  0  0  0
   21.4325  -56.8493   53.2437 C   0  0  0  0  0  0  0  0  0  0  0  0
   19.9153  -54.1186   54.1485 O   0  0  0  0  0  1  0  0  0  0  0  0
   21.3807  -51.8365   52.3782 C   0  0  0  0  0  0  0  0  0  0  0  0
   20.7967  -49.2522   51.9952 C   0  0  0  0  0  0  0  0  0  0  0  0
   22.4594  -50.9297   52.3794 C   0  0  0  0  0  0  0  0  0  0  0  0
   23.8181  -51.1728   52.9492 C   0  0  0  0  0  0  0  0  0  0  0  0
   19.6855  -54.4178   51.8700 O   0  0  0  0  0  1  0  0  0  0  0  0
   20.5221  -48.0065   52.2670 O   0  0  0  0  0  0  0  0  0  0  0  0
   22.9460  -55.0584   52.7593 C   0  0  0  0  0  0  0  0  0  0  0  0
   23.2563  -48.8892   51.3364 C   0  0  0  0  0  0  0  0  0  0  0  0
   24.0037  -55.9255   52.6403 C   0  0  0  0  0  0  0  0  0  0  0  0
   21.6473  -55.5385   53.0011 C   0  0  0  0  0  0  0  0  0  0  0  0
   22.4903  -57.7312   53.2042 C   0  0  0  0  0  0  0  0  0  0  0  0
   19.7819  -50.1585   51.8925 N   0  0  0  0  0  0  0  0  0  0  0  0
   22.1420  -49.6815   51.9145 C   0  0  0  0  0  0  0  0  0  0  0  0
   21.7131  -53.1424   52.6710 C   0  0  0  0  0  0  0  0  0  0  0  0
   20.5484  -54.2782   52.9579 S   0  0  0  0  0  4  0  0  0  0  0  0
  1 16  2  0
  2 17  2  0
  2 19  1  0
  3 15  1  0
  3 22  1  0
  4 16  1  0
  5 20  1  0
  6  9  2  0
  6 20  1  0
  7 18  1  0
  7 19  2  0
  8 23  1  0
  9 11  1  0
  9 22  1  0
 10 14  2  0
 10 20  1  0
 10 21  1  0
 11 12  1  0
 11 21  1  0
 13 23  1  0
 15 17  1  0
 15 18  2  0
 16 21  1  0
 18 23  1  0
 22 23  1  0
M  END
>  <ID>  (1) 
conformer_0

$$$$
