
     RDKit          3D

 14 15  0  0  0  0  0  0  0  0999 V2000
   70.0689   54.8534   40.8820 C   0  0  0  0  0  0  0  0  0  0  0  0
   71.1989   55.4074   40.5522 C   0  0  0  0  0  0  0  0  0  0  0  0
   72.3420   54.9726   41.0833 C   0  0  0  0  0  0  0  0  0  0  0  0
   72.3500   54.0397   42.0622 C   0  0  0  0  0  0  0  0  0  0  0  0
   73.5614   53.6070   42.6602 C   0  0  0  0  0  0  0  0  0  0  0  0
   71.2198   53.4304   42.3091 C   0  0  0  0  0  0  0  0  0  0  0  0
   70.0091   53.8076   41.8248 C   0  0  0  0  0  0  0  0  0  0  0  0
   74.3059   54.5177   43.3129 N   0  0  0  0  0  0  0  0  0  0  0  0
   73.5893   55.7435   40.6873 C   0  0  0  0  0  0  0  0  0  0  0  0
   73.8543   52.2630   42.8655 N   0  0  0  0  0  0  0  0  0  0  0  0
   74.2579   55.3451   39.6959 O   0  0  0  0  0  0  0  0  0  0  0  0
   73.9588   56.7721   41.4948 O   0  0  0  0  0  0  0  0  0  0  0  0
   75.2887   53.7213   44.0846 N   0  0  0  0  0  0  0  0  0  0  0  0
   74.9273   52.4243   43.9185 C   0  0  0  0  0  0  0  0  0  0  0  0
  1  2  2  0
  2  3  1  0
  3  4  2  0
  4  5  1  0
  4  6  1  0
  1  7  1  0
  6  7  2  0
  5  8  2  0
  3  9  1  0
  5 10  1  0
  9 11  2  0
  9 12  1  0
  8 13  1  0
 10 14  2  0
 13 14  1  0
M  END
>  <ID>  (1) 
conformer_0

$$$$
