
     RDKit          3D

 17 18  0  0  0  0  0  0  0  0999 V2000
   70.5242   55.2195   40.2765 C   0  0  0  0  0  0  0  0  0  0  0  0
   69.8847   54.2067   40.6693 C   0  0  0  0  0  0  0  0  0  0  0  0
   70.3179   53.3871   41.6601 C   0  0  0  0  0  0  0  0  0  0  0  0
   69.5158   52.2624   42.1868 C   0  0  0  0  0  0  0  0  0  0  0  0
   71.4971   53.6292   42.1519 C   0  0  0  0  0  0  0  0  0  0  0  0
   71.7365   55.5412   40.8533 C   0  0  0  0  0  0  0  0  0  0  0  0
   72.5607   56.6725   40.3798 O   0  0  0  0  0  0  0  0  0  0  0  0
   69.7899   51.7939   43.3661 C   0  0  0  0  0  0  0  0  0  0  0  0
   72.2756   54.7491   41.7851 C   0  0  0  0  0  0  0  0  0  0  0  0
   73.8386   56.7671   40.7169 C   0  0  0  0  0  0  0  0  0  0  0  0
   74.5846   56.4245   39.6501 F   0  0  0  0  0  0  0  0  0  0  0  0
   74.0433   58.0148   41.1246 F   0  0  0  0  0  0  0  0  0  0  0  0
   69.0131   50.7498   43.9209 N   0  0  0  0  0  0  0  0  0  0  0  0
   69.3952   50.6316   45.2046 N   0  0  0  0  0  0  0  0  0  0  0  0
   70.5873   52.1077   44.5446 C   0  0  0  0  0  0  0  0  0  0  0  0
   74.4563   56.0221   41.7337 F   0  0  0  0  0  0  0  0  0  0  0  0
   70.3182   51.3880   45.5360 N   0  0  0  0  0  0  0  0  0  0  0  0
  1  2  2  0
  2  3  1  0
  3  4  1  0
  3  5  2  0
  1  6  1  0
  6  7  1  0
  4  8  2  3
  5  9  1  0
  6  9  2  0
  7 10  1  0
 10 11  1  0
 10 12  1  0
  8 13  1  0
 13 14  2  0
  8 15  1  0
 10 16  1  0
 14 17  1  0
 15 17  2  0
M  END
>  <ID>  (1) 
conformer_0

$$$$
