
     RDKit          3D

 15 16  0  0  0  0  0  0  0  0999 V2000
   69.9307   54.4363   40.2656 C   0  0  0  0  0  0  0  0  0  0  0  0
   70.9540   55.1420   40.1399 C   0  0  0  0  0  0  0  0  0  0  0  0
   72.0771   54.8235   40.4472 C   0  0  0  0  0  0  0  0  0  0  0  0
   72.3138   53.6918   41.2080 C   0  0  0  0  0  0  0  0  0  0  0  0
   73.6507   53.2579   41.6397 C   0  0  0  0  0  0  0  0  0  0  0  0
   73.8956   53.6212   42.9008 C   0  0  0  0  0  0  0  0  0  0  0  0
   69.9741   53.2871   40.9718 C   0  0  0  0  0  0  0  0  0  0  0  0
   71.1808   52.8687   41.4088 C   0  0  0  0  0  0  0  0  0  0  0  0
   73.9678   54.9046   43.2903 N   0  0  0  0  0  0  0  0  0  0  0  0
   74.6533   52.8277   43.7375 N   0  0  0  0  0  0  0  0  0  0  0  0
   73.3397   55.7004   40.1810 C   0  0  0  0  0  0  0  0  0  0  0  0
   74.7610   53.6486   44.9183 N   0  0  0  0  0  0  0  0  0  0  0  0
   74.4133   54.9344   44.6021 N   0  0  0  0  0  0  0  0  0  0  0  0
   74.1501   55.7174   39.2155 O   0  0  0  0  0  0  0  0  0  0  0  0
   73.4385   56.8686   40.9925 O   0  0  0  0  0  0  0  0  0  0  0  0
  1  2  2  0
  2  3  1  0
  3  4  2  0
  4  5  1  0
  5  6  1  0
  1  7  1  0
  4  8  1  0
  7  8  2  0
  6  9  1  0
  6 10  2  0
  3 11  1  0
 10 12  1  0
  9 13  2  0
 12 13  1  0
 11 14  2  0
 11 15  1  0
M  END
>  <ID>  (1) 
conformer_0

$$$$
