
     RDKit          3D

 17 19  0  0  0  0  0  0  0  0999 V2000
   70.5242   55.2195   40.2765 C   0  0  0  0  0  0  0  0  0  0  0  0
   69.8847   54.2067   40.6693 C   0  0  0  0  0  0  0  0  0  0  0  0
   70.3179   53.3871   41.6601 C   0  0  0  0  0  0  0  0  0  0  0  0
   71.7266   55.5435   40.8523 C   0  0  0  0  0  0  0  0  0  0  0  0
   69.5630   52.2889   42.1914 O   0  0  0  0  0  0  0  0  0  0  0  0
   71.3628   53.7082   42.2424 C   0  0  0  0  0  0  0  0  0  0  0  0
   69.1819   52.2300   43.3938 C   0  0  0  0  0  0  0  0  0  0  0  0
   71.9003   52.9262   43.4851 C   0  0  0  0  0  0  0  0  0  0  0  0
   72.5159   56.6918   40.3298 O   0  0  0  0  0  0  0  0  0  0  0  0
   70.3076   51.5680   44.2674 C   0  0  0  0  0  0  0  0  0  0  0  0
   73.0646   53.6200   43.9348 N   0  0  0  0  0  0  0  0  0  0  0  0
   73.3266   57.3228   41.2590 C   0  0  0  0  0  0  0  0  0  0  0  0
   72.2368   54.8253   41.8816 C   0  0  0  0  0  0  0  0  0  0  0  0
   72.9707   54.5247   44.7993 C   0  0  0  0  0  0  0  0  0  0  0  0
   72.0676   54.2884   45.8473 C   0  0  0  0  0  0  0  0  0  0  0  0
   71.1545   52.5636   44.5630 C   0  0  0  0  0  0  0  0  0  0  0  0
   71.1613   53.2548   45.7658 C   0  0  0  0  0  0  0  0  0  0  0  0
  1  2  2  0
  2  3  1  0
  1  4  1  0
  3  5  1  0
  3  6  2  0
  5  7  1  0
  6  8  1  0
  4  9  1  0
  7 10  1  0
  8 11  1  0
  9 12  1  0
  4 13  2  0
  6 13  1  0
 11 14  2  0
 14 15  1  0
  8 16  1  0
 10 16  1  0
 15 17  2  0
 16 17  1  0
M  END
>  <ID>  (1) 
conformer_0

$$$$
