
     RDKit          3D

 15 16  0  0  0  0  0  0  0  0999 V2000
   70.5242   55.2195   40.2765 C   0  0  0  0  0  0  0  0  0  0  0  0
   69.8847   54.2067   40.6693 C   0  0  0  0  0  0  0  0  0  0  0  0
   71.8505   55.1077   40.0153 C   0  0  0  0  0  0  0  0  0  0  0  0
   70.4792   53.0323   41.0388 C   0  0  0  0  0  0  0  0  0  0  0  0
   71.8055   52.9457   40.8787 C   0  0  0  0  0  0  0  0  0  0  0  0
   72.4275   51.6865   41.2159 N   0  0  0  0  0  0  0  0  0  0  0  0
   72.5296   54.0166   40.3755 C   0  0  0  0  0  0  0  0  0  0  0  0
   72.4583   51.2878   42.5066 C   0  0  0  0  0  0  0  0  0  0  0  0
   73.2127   51.8762   43.3901 N   0  0  0  0  0  0  0  0  0  0  0  0
   72.6882   56.2926   39.6774 O   0  0  0  0  0  0  0  0  0  0  0  0
   71.7339   50.3055   43.0861 N   0  0  0  0  0  0  0  0  0  0  0  0
   74.0227   56.1913   39.4966 C   0  0  0  0  0  0  0  0  0  0  0  0
   72.9890   51.4117   44.6635 C   0  0  0  0  0  0  0  0  0  0  0  0
   70.6851   49.6262   42.3984 C   0  0  0  0  0  0  0  0  0  0  0  0
   71.9432   50.4521   44.4293 N   0  0  0  0  0  0  0  0  0  0  0  0
  1  2  1  0
  1  3  2  0
  2  4  2  0
  4  5  1  0
  5  6  1  0
  3  7  1  0
  5  7  2  0
  6  8  1  0
  8  9  2  0
  3 10  1  0
  8 11  1  0
 10 12  1  0
  9 13  1  0
 11 14  1  0
 11 15  1  0
 13 15  2  0
M  END
>  <ID>  (1) 
conformer_0

$$$$
