
     RDKit          3D

 16 18  0  0  0  0  0  0  0  0999 V2000
   70.5242   55.2195   40.2765 C   0  0  0  0  0  0  0  0  0  0  0  0
   71.8010   55.4385   40.4591 C   0  0  0  0  0  0  0  0  0  0  0  0
   69.8513   54.5465   41.3542 C   0  0  0  0  0  0  0  0  0  0  0  0
   72.8213   55.2149   39.6304 C   0  0  0  0  0  0  0  0  0  0  0  0
   70.7111   53.6183   42.0109 C   0  0  0  0  0  0  0  0  0  0  0  0
   71.3550   54.1526   43.2138 C   0  0  0  0  0  0  0  0  0  0  0  0
   72.2205   56.2476   41.6632 C   0  0  0  0  0  0  0  0  0  0  0  0
   71.7088   53.4807   44.2775 N   0  0  0  0  0  0  0  0  0  0  0  0
   71.1929   53.7069   45.3750 C   0  0  0  0  0  0  0  0  0  0  0  0
   74.2207   55.5925   39.7155 C   0  0  0  0  0  0  0  0  0  0  0  0
   73.1605   53.2111   44.3714 C   0  0  0  0  0  0  0  0  0  0  0  0
   71.9723   55.4466   42.8196 C   0  0  0  0  0  0  0  0  0  0  0  0
   73.3178   52.8195   45.7201 N   0  0  0  0  0  0  0  0  0  0  0  0
   74.6005   56.3756   40.8442 C   0  0  0  0  0  0  0  0  0  0  0  0
   73.6530   56.6693   41.8442 C   0  0  0  0  0  0  0  0  0  0  0  0
   72.1591   53.0098   46.3774 C   0  0  0  0  0  0  0  0  0  0  0  0
  1  2  1  0
  1  3  1  0
  2  4  2  0
  3  5  1  0
  5  6  1  0
  2  7  1  0
  6  8  1  0
  8  9  1  0
  4 10  1  0
  8 11  1  0
  6 12  1  0
  7 12  1  0
 11 13  2  0
 10 14  2  0
  7 15  1  0
 14 15  1  0
  9 16  2  0
 13 16  1  0
M  END
>  <ID>  (1) 
conformer_0

$$$$
