
     RDKit          3D

 11 11  0  0  0  0  0  0  0  0999 V2000
   69.9307   54.4363   40.2656 C   0  0  0  0  0  0  0  0  0  0  0  0
   70.9540   55.1420   40.1399 C   0  0  0  0  0  0  0  0  0  0  0  0
   72.0771   54.8235   40.4472 C   0  0  0  0  0  0  0  0  0  0  0  0
   69.9656   53.2412   40.9509 C   0  0  0  0  0  0  0  0  0  0  0  0
   72.2666   53.7001   41.2874 C   0  0  0  0  0  0  0  0  0  0  0  0
   68.7772   52.5030   41.2315 O   0  0  0  0  0  0  0  0  0  0  0  0
   71.1415   52.8406   41.5611 C   0  0  0  0  0  0  0  0  0  0  0  0
   73.4187   55.6568   40.2711 C   0  0  0  0  0  0  0  0  0  0  0  0
   74.2829   55.3417   39.4738 O   0  0  0  0  0  0  0  0  0  0  0  0
   73.5682   56.8168   41.0865 O   0  0  0  0  0  0  0  0  0  0  0  0
   74.6628   57.0087   41.7785 C   0  0  0  0  0  0  0  0  0  0  0  0
  1  2  2  0
  2  3  1  0
  1  4  1  0
  3  5  2  0
  4  6  1  0
  4  7  2  0
  5  7  1  0
  3  8  1  0
  8  9  2  0
  8 10  1  0
 10 11  1  0
M  END
>  <ID>  (1) 
conformer_0

$$$$
