
     RDKit          3D

 16 17  0  0  0  0  0  0  0  0999 V2000
   69.9307   54.4363   40.2656 C   0  0  0  0  0  0  0  0  0  0  0  0
   70.9540   55.1420   40.1399 C   0  0  0  0  0  0  0  0  0  0  0  0
   69.8465   53.4398   41.0084 C   0  0  0  0  0  0  0  0  0  0  0  0
   68.6016   52.6188   41.2980 O   0  0  0  0  0  0  0  0  0  0  0  0
   70.9123   53.1383   41.9845 C   0  0  0  0  0  0  0  0  0  0  0  0
   70.7890   52.1148   42.9818 C   0  0  0  0  0  0  0  0  0  0  0  0
   71.0421   52.4523   44.2875 N   0  0  0  0  0  0  0  0  0  0  0  0
   70.2129   52.0193   45.2501 C   0  0  0  0  0  0  0  0  0  0  0  0
   71.6672   53.6193   44.7461 C   0  0  0  0  0  0  0  0  0  0  0  0
   72.1109   54.9663   40.9093 C   0  0  0  0  0  0  0  0  0  0  0  0
   72.0635   53.9732   41.8322 C   0  0  0  0  0  0  0  0  0  0  0  0
   70.5216   52.6065   46.5040 N   0  0  0  0  0  0  0  0  0  0  0  0
   71.4724   53.5830   46.2028 C   0  0  0  0  0  0  0  0  0  0  0  0
   73.2404   55.7894   40.6838 C   0  0  0  0  0  0  0  0  0  0  0  0
   73.7819   55.9686   39.5702 O   0  0  0  0  0  0  0  0  0  0  0  0
   73.6852   56.6267   41.7045 O   0  0  0  0  0  0  0  0  0  0  0  0
  1  2  1  0
  1  3  2  0
  3  4  1  0
  3  5  1  0
  5  6  1  0
  6  7  1  0
  7  8  1  0
  7  9  1  0
  2 10  2  0
  5 11  2  0
 10 11  1  0
  8 12  2  0
  9 13  2  0
 12 13  1  0
 10 14  1  0
 14 15  2  0
 14 16  1  0
M  END
>  <ID>  (1) 
conformer_0

$$$$
