
     RDKit          3D

 10 10  0  0  0  0  0  0  0  0999 V2000
   73.6744   55.0449   39.0850 C   0  0  0  0  0  0  0  0  0  0  0  0
   74.3999   55.9079   39.7176 C   0  0  0  0  0  0  0  0  0  0  0  0
   74.0221   56.4847   40.7015 C   0  0  0  0  0  0  0  0  0  0  0  0
   74.7692   57.6502   41.4909 C   0  0  0  0  0  0  0  0  0  0  0  0
   72.6585   56.3066   41.2595 C   0  0  0  0  0  0  0  0  0  0  0  0
   71.9012   55.3232   40.6371 C   0  0  0  0  0  0  0  0  0  0  0  0
   72.4303   54.6958   39.5556 C   0  0  0  0  0  0  0  0  0  0  0  0
   70.5621   54.9073   41.1344 C   0  0  0  0  0  0  0  0  0  0  0  0
   69.6536   54.5761   40.4685 O   0  0  0  0  0  0  0  0  0  0  0  0
   70.4598   54.6115   42.4299 O   0  0  0  0  0  0  0  0  0  0  0  0
  1  2  1  0
  2  3  2  0
  3  4  1  0
  3  5  1  0
  5  6  2  0
  1  7  2  0
  6  7  1  0
  6  8  1  0
  8  9  2  0
  8 10  1  0
M  END
>  <ID>  (1) 
conformer_0

$$$$
