
     RDKit          3D

 12 12  0  0  0  0  0  0  0  0999 V2000
   69.9307   54.4363   40.2656 C   0  0  0  0  0  0  0  0  0  0  0  0
   70.9540   55.1420   40.1399 C   0  0  0  0  0  0  0  0  0  0  0  0
   71.9768   54.9044   40.9727 C   0  0  0  0  0  0  0  0  0  0  0  0
   73.2487   55.7281   40.9005 C   0  0  0  0  0  0  0  0  0  0  0  0
   71.7235   54.3621   42.2410 C   0  0  0  0  0  0  0  0  0  0  0  0
   69.5791   53.7074   41.3712 C   0  0  0  0  0  0  0  0  0  0  0  0
   72.7236   54.3232   43.2376 N   0  0  0  0  0  0  0  0  0  0  0  0
   70.5622   53.7107   42.3889 C   0  0  0  0  0  0  0  0  0  0  0  0
   70.2716   52.9691   43.5522 N   0  0  0  0  0  0  0  0  0  0  0  0
   72.5505   55.0018   44.3019 O   0  0  0  0  0  0  0  0  0  0  0  0
   74.1617   55.2827   40.1713 O   0  0  0  0  0  0  0  0  0  0  0  0
   73.3332   57.0832   41.1826 O   0  0  0  0  0  0  0  0  0  0  0  0
  1  2  1  0
  2  3  2  0
  3  4  1  0
  3  5  1  0
  1  6  2  0
  5  7  1  0
  5  8  2  0
  6  8  1  0
  8  9  1  0
  7 10  1  0
  4 11  2  0
  4 12  1  0
M  END
>  <ID>  (1) 
conformer_0

$$$$
