
     RDKit          3D

  6  6  0  0  0  0  0  0  0  0999 V2000
   70.5242   55.2195   40.2765 C   0  0  0  0  0  0  0  0  0  0  0  0
   69.8847   54.2067   40.6693 C   0  0  0  0  0  0  0  0  0  0  0  0
   71.8505   55.1077   40.0153 C   0  0  0  0  0  0  0  0  0  0  0  0
   72.5162   54.0278   40.2889 C   0  0  0  0  0  0  0  0  0  0  0  0
   70.4941   53.0184   41.0144 C   0  0  0  0  0  0  0  0  0  0  0  0
   71.8111   52.8798   40.9092 C   0  0  0  0  0  0  0  0  0  0  0  0
  1  2  1  0
  1  3  2  0
  3  4  1  0
  2  5  2  0
  4  6  2  0
  5  6  1  0
M  END
>  <ID>  (1) 
conformer_0

$$$$
