
     RDKit          3D

 17 19  0  0  0  0  0  0  0  0999 V2000
   69.9307   54.4363   40.2656 C   0  0  0  0  0  0  0  0  0  0  0  0
   70.9540   55.1420   40.1399 C   0  0  0  0  0  0  0  0  0  0  0  0
   71.9768   54.9044   40.9727 C   0  0  0  0  0  0  0  0  0  0  0  0
   69.6988   53.5796   41.2243 C   0  0  0  0  0  0  0  0  0  0  0  0
   73.2823   55.7081   40.9057 C   0  0  0  0  0  0  0  0  0  0  0  0
   70.6433   53.4454   42.1750 C   0  0  0  0  0  0  0  0  0  0  0  0
   70.4023   52.5370   43.3186 N   0  0  0  0  0  0  0  0  0  0  0  0
   71.2094   52.5460   44.3973 C   0  0  0  0  0  0  0  0  0  0  0  0
   73.4116   56.9649   41.2239 C   0  0  0  0  0  0  0  0  0  0  0  0
   72.4061   53.2396   44.3168 N   0  0  0  0  0  0  0  0  0  0  0  0
   71.8238   54.1483   42.1527 C   0  0  0  0  0  0  0  0  0  0  0  0
   74.3023   55.0920   40.2767 C   0  0  0  0  0  0  0  0  0  0  0  0
   72.2809   57.7187   41.8957 F   0  0  0  0  0  0  0  0  0  0  0  0
   70.8054   51.7227   45.4765 C   0  0  0  0  0  0  0  0  0  0  0  0
   72.6642   53.9971   43.3222 C   0  0  0  0  0  0  0  0  0  0  0  0
   75.4091   56.1814   40.1809 O   0  0  0  0  0  0  0  0  0  0  0  0
   74.6205   57.5271   40.8491 C   0  0  0  0  0  0  0  0  0  0  0  0
  1  2  1  0
  2  3  2  0
  1  4  2  0
  3  5  1  0
  4  6  1  0
  6  7  1  0
  7  8  2  0
  5  9  1  0
  8 10  1  0
  3 11  1  0
  6 11  2  0
  5 12  2  0
  9 13  1  0
  8 14  1  0
 10 15  2  0
 11 15  1  0
 12 16  1  0
  9 17  2  0
 16 17  1  0
M  END
>  <ID>  (1) 
conformer_0

$$$$
