
     RDKit          3D

 16 18  0  0  0  0  0  0  0  0999 V2000
   70.5242   55.2195   40.2765 C   0  0  0  0  0  0  0  0  0  0  0  0
   69.8847   54.2067   40.6693 C   0  0  0  0  0  0  0  0  0  0  0  0
   71.7428   55.5753   40.7570 C   0  0  0  0  0  0  0  0  0  0  0  0
   70.4014   53.4490   41.7633 C   0  0  0  0  0  0  0  0  0  0  0  0
   72.5013   56.7271   40.2400 C   0  0  0  0  0  0  0  0  0  0  0  0
   72.3036   54.9360   41.8064 C   0  0  0  0  0  0  0  0  0  0  0  0
   69.7019   52.3501   42.3554 C   0  0  0  0  0  0  0  0  0  0  0  0
   71.5923   53.8548   42.3841 C   0  0  0  0  0  0  0  0  0  0  0  0
   72.1053   53.1386   43.4996 N   0  0  0  0  0  0  0  0  0  0  0  0
   73.8933   56.7458   40.6000 C   0  0  0  0  0  0  0  0  0  0  0  0
   73.4970   55.3478   42.5021 C   0  0  0  0  0  0  0  0  0  0  0  0
   71.3368   52.2136   44.0037 C   0  0  0  0  0  0  0  0  0  0  0  0
   74.0381   54.7879   43.6092 O   0  0  0  0  0  0  0  0  0  0  0  0
   71.8249   51.5563   45.2277 N   0  0  0  0  0  0  0  0  0  0  0  0
   74.3110   56.3144   41.8024 C   0  0  0  0  0  0  0  0  0  0  0  0
   70.0604   51.8855   43.6130 C   0  0  0  0  0  0  0  0  0  0  0  0
  1  2  2  0
  1  3  1  0
  2  4  1  0
  3  5  1  0
  3  6  2  0
  4  7  1  0
  4  8  2  0
  6  8  1  0
  8  9  1  0
  5 10  2  0
  6 11  1  0
  9 12  2  0
 11 13  1  0
 12 14  1  0
 10 15  1  0
 11 15  2  0
  7 16  2  0
 12 16  1  0
M  END
>  <ID>  (1) 
conformer_0

$$$$
