
     RDKit          3D

 15 15  0  0  0  0  0  0  0  0999 V2000
   70.5242   55.2195   40.2765 C   0  0  0  0  0  0  0  0  0  0  0  0
   69.8847   54.2067   40.6693 C   0  0  0  0  0  0  0  0  0  0  0  0
   70.3510   53.3941   41.4931 C   0  0  0  0  0  0  0  0  0  0  0  0
   71.7000   55.5997   40.7985 C   0  0  0  0  0  0  0  0  0  0  0  0
   72.4977   56.7442   40.3398 C   0  0  0  0  0  0  0  0  0  0  0  0
   71.5258   53.6687   42.1549 C   0  0  0  0  0  0  0  0  0  0  0  0
   71.9713   52.7453   43.3056 C   0  0  0  0  0  0  0  0  0  0  0  0
   71.3852   52.7726   44.4669 C   0  0  0  0  0  0  0  0  0  0  0  0
   71.6219   53.7013   45.3717 C   0  0  0  0  0  0  0  0  0  0  0  0
   72.2732   54.8019   41.7761 C   0  0  0  0  0  0  0  0  0  0  0  0
   71.3600   51.6128   45.1717 N   0  0  0  0  0  0  0  0  0  0  0  0
   72.5914   54.4573   45.1518 O   0  0  0  0  0  0  0  0  0  0  0  0
   71.1747   50.4334   44.4369 O   0  0  0  0  0  0  0  0  0  0  0  0
   73.9442   56.5737   40.2897 C   0  0  0  0  0  0  0  0  0  0  0  0
   70.9949   53.7344   46.5653 N   0  0  0  0  0  0  0  0  0  0  0  0
  1  2  2  0
  2  3  1  0
  1  4  1  0
  4  5  1  0
  3  6  2  0
  6  7  1  0
  7  8  1  0
  8  9  1  0
  4 10  2  0
  6 10  1  0
  8 11  1  0
  9 12  2  0
 11 13  1  0
  5 14  1  0
  9 15  1  0
M  END
>  <ID>  (1) 
conformer_0

$$$$
