
     RDKit          3D

 13 13  0  0  0  0  0  0  0  0999 V2000
   69.9307   54.4363   40.2656 C   0  0  0  0  0  0  0  0  0  0  0  0
   70.9540   55.1420   40.1399 C   0  0  0  0  0  0  0  0  0  0  0  0
   71.9768   54.9044   40.9727 C   0  0  0  0  0  0  0  0  0  0  0  0
   69.6988   53.5796   41.2243 C   0  0  0  0  0  0  0  0  0  0  0  0
   73.2823   55.7081   40.9057 C   0  0  0  0  0  0  0  0  0  0  0  0
   70.6433   53.4454   42.1750 C   0  0  0  0  0  0  0  0  0  0  0  0
   70.4023   52.5370   43.3186 C   0  0  0  0  0  0  0  0  0  0  0  0
   71.8665   54.1534   42.1176 C   0  0  0  0  0  0  0  0  0  0  0  0
   71.1882   52.7865   44.5063 N   0  0  0  0  0  0  0  0  0  0  0  0
   73.6310   56.2606   39.7882 O   0  0  0  0  0  0  0  0  0  0  0  0
   74.1949   55.6845   41.8304 O   0  0  0  0  0  0  0  0  0  0  0  0
   70.1359   51.3100   43.3574 O   0  0  0  0  0  0  0  0  0  0  0  0
   71.1185   52.3797   45.6630 C   0  0  0  0  0  0  0  0  0  0  0  0
  1  2  1  0
  2  3  2  0
  1  4  2  0
  3  5  1  0
  4  6  1  0
  6  7  1  0
  3  8  1  0
  6  8  2  0
  7  9  1  0
  5 10  2  0
  5 11  1  0
  7 12  2  0
  9 13  1  0
M  END
>  <ID>  (1) 
conformer_0

$$$$
