
     RDKit          3D

 13 13  0  0  0  0  0  0  0  0999 V2000
   70.5242   55.2195   40.2765 C   0  0  0  0  0  0  0  0  0  0  0  0
   69.8847   54.2067   40.6693 C   0  0  0  0  0  0  0  0  0  0  0  0
   70.3510   53.3941   41.4931 C   0  0  0  0  0  0  0  0  0  0  0  0
   71.7480   55.5080   40.7972 C   0  0  0  0  0  0  0  0  0  0  0  0
   71.5808   53.6040   42.1033 C   0  0  0  0  0  0  0  0  0  0  0  0
   72.3073   54.6661   41.7108 C   0  0  0  0  0  0  0  0  0  0  0  0
   72.0343   52.6333   43.0946 C   0  0  0  0  0  0  0  0  0  0  0  0
   71.3253   52.6315   44.3279 N   0  0  0  0  0  0  0  0  0  0  0  0
   71.6730   53.4377   45.3313 C   0  0  0  0  0  0  0  0  0  0  0  0
   70.8196   53.4423   46.4391 C   0  0  0  0  0  0  0  0  0  0  0  0
   72.6814   56.5469   40.3381 O   0  0  0  0  0  0  0  0  0  0  0  0
   73.2964   57.3196   41.2224 C   0  0  0  0  0  0  0  0  0  0  0  0
   72.9339   53.6565   45.6311 O   0  0  0  0  0  0  0  0  0  0  0  0
  1  2  2  0
  2  3  1  0
  1  4  1  0
  3  5  2  0
  4  6  2  0
  5  6  1  0
  5  7  1  0
  7  8  1  0
  8  9  1  0
  9 10  1  0
  4 11  1  0
 11 12  1  0
  9 13  2  0
M  END
>  <ID>  (1) 
conformer_0

$$$$
