
     RDKit          3D

 12 13  0  0  0  0  0  0  0  0999 V2000
   73.6744   55.0449   39.0850 C   0  0  0  0  0  0  0  0  0  0  0  0
   74.3999   55.9079   39.7176 C   0  0  0  0  0  0  0  0  0  0  0  0
   72.7261   54.7003   39.9557 C   0  0  0  0  0  0  0  0  0  0  0  0
   74.1301   56.5076   40.8734 C   0  0  0  0  0  0  0  0  0  0  0  0
   71.7137   53.5358   39.4946 C   0  0  0  0  0  0  0  0  0  0  0  0
   74.9576   57.6535   41.4141 C   0  0  0  0  0  0  0  0  0  0  0  0
   70.7204   53.3053   40.1657 C   0  0  0  0  0  0  0  0  0  0  0  0
   73.0706   56.1794   41.6543 C   0  0  0  0  0  0  0  0  0  0  0  0
   70.5331   54.2058   41.2838 C   0  0  0  0  0  0  0  0  0  0  0  0
   69.3319   53.8977   42.0932 O   0  0  0  0  0  0  0  0  0  0  0  0
   72.2972   55.2182   41.0848 C   0  0  0  0  0  0  0  0  0  0  0  0
   71.3004   55.0030   41.8053 C   0  0  0  0  0  0  0  0  0  0  0  0
  1  2  1  0
  1  3  2  0
  2  4  2  0
  3  5  1  0
  4  6  1  0
  5  7  2  0
  4  8  1  0
  7  9  1  0
  9 10  1  0
  3 11  1  0
  8 11  2  0
  9 12  2  0
 11 12  1  0
M  END
>  <ID>  (1) 
conformer_0

$$$$
