
     RDKit          3D

 12 13  0  0  0  0  0  0  0  0999 V2000
   73.6744   55.0449   39.0850 C   0  0  0  0  0  0  0  0  0  0  0  0
   74.3999   55.9079   39.7176 C   0  0  0  0  0  0  0  0  0  0  0  0
   74.0221   56.4847   40.7015 C   0  0  0  0  0  0  0  0  0  0  0  0
   74.7692   57.6502   41.4909 O   0  0  0  0  0  0  0  0  0  0  0  0
   72.5419   54.6995   39.7801 C   0  0  0  0  0  0  0  0  0  0  0  0
   71.6427   53.5682   39.2666 C   0  0  0  0  0  0  0  0  0  0  0  0
   70.4478   53.3996   40.0411 C   0  0  0  0  0  0  0  0  0  0  0  0
   72.7853   56.3625   41.6660 C   0  0  0  0  0  0  0  0  0  0  0  0
   71.9252   55.2588   41.0278 C   0  0  0  0  0  0  0  0  0  0  0  0
   70.0313   53.9296   41.1299 C   0  0  0  0  0  0  0  0  0  0  0  0
   68.8511   53.6308   41.7670 O   0  0  0  0  0  0  0  0  0  0  0  0
   70.8763   54.8547   41.5619 C   0  0  0  0  0  0  0  0  0  0  0  0
  1  2  1  0
  2  3  2  0
  3  4  1  0
  1  5  2  0
  5  6  1  0
  6  7  2  0
  3  8  1  0
  5  9  1  0
  8  9  2  0
  7 10  1  0
 10 11  1  0
  9 12  1  0
 10 12  2  0
M  END
>  <ID>  (1) 
conformer_0

$$$$
