
     RDKit          3D

 15 16  0  0  0  0  0  0  0  0999 V2000
   70.5242   55.2195   40.2765 C   0  0  0  0  0  0  0  0  0  0  0  0
   69.8847   54.2067   40.6693 C   0  0  0  0  0  0  0  0  0  0  0  0
   70.2967   53.4272   41.7261 C   0  0  0  0  0  0  0  0  0  0  0  0
   69.5098   52.2796   42.2224 C   0  0  0  0  0  0  0  0  0  0  0  0
   71.7243   55.4057   40.8108 C   0  0  0  0  0  0  0  0  0  0  0  0
   72.2094   54.5878   41.8420 C   0  0  0  0  0  0  0  0  0  0  0  0
   72.6074   56.5732   40.3885 O   0  0  0  0  0  0  0  0  0  0  0  0
   71.4598   53.6405   42.2992 C   0  0  0  0  0  0  0  0  0  0  0  0
   73.8869   56.5990   40.6372 C   0  0  0  0  0  0  0  0  0  0  0  0
   74.1881   57.6686   41.5395 F   0  0  0  0  0  0  0  0  0  0  0  0
   71.9512   52.8287   43.3792 C   0  0  0  0  0  0  0  0  0  0  0  0
   71.2073   51.8050   43.8774 N   0  0  0  0  0  0  0  0  0  0  0  0
   74.4138   57.0217   39.4340 F   0  0  0  0  0  0  0  0  0  0  0  0
   69.8734   51.6862   43.2657 C   0  0  0  0  0  0  0  0  0  0  0  0
   74.5381   55.5381   41.0348 F   0  0  0  0  0  0  0  0  0  0  0  0
  1  2  1  0
  2  3  2  0
  3  4  1  0
  1  5  2  0
  5  6  1  0
  5  7  1  0
  3  8  1  0
  6  8  2  0
  7  9  1  0
  9 10  1  0
  8 11  1  0
 11 12  2  0
  9 13  1  0
  4 14  2  0
 12 14  1  0
  9 15  1  0
M  END
>  <ID>  (1) 
conformer_0

$$$$
