
     RDKit          3D

 16 18  0  0  0  0  0  0  0  0999 V2000
   70.0689   54.8534   40.8820 C   0  0  0  0  0  0  0  0  0  0  0  0
   71.1989   55.4074   40.5522 C   0  0  0  0  0  0  0  0  0  0  0  0
   72.3503   54.7805   40.9654 C   0  0  0  0  0  0  0  0  0  0  0  0
   72.3599   53.7404   41.7748 C   0  0  0  0  0  0  0  0  0  0  0  0
   73.6495   55.4722   40.4741 C   0  0  0  0  0  0  0  0  0  0  0  0
   69.9690   53.7091   41.7102 C   0  0  0  0  0  0  0  0  0  0  0  0
   73.6194   53.1742   42.2329 C   0  0  0  0  0  0  0  0  0  0  0  0
   73.6204   52.6264   43.4271 C   0  0  0  0  0  0  0  0  0  0  0  0
   74.2036   56.3502   41.3020 N   0  0  0  0  0  0  0  0  0  0  0  0
   71.1995   53.2371   42.2239 C   0  0  0  0  0  0  0  0  0  0  0  0
   73.7412   56.7373   42.4954 C   0  0  0  0  0  0  0  0  0  0  0  0
   75.4717   56.8320   41.0232 N   0  0  0  0  0  0  0  0  0  0  0  0
   75.8523   57.5219   42.0390 N   0  0  0  0  0  0  0  0  0  0  0  0
   74.8339   57.6063   42.9466 C   0  0  0  0  0  0  0  0  0  0  0  0
   71.2465   52.2779   43.3979 C   0  0  0  0  0  0  0  0  0  0  0  0
   72.4176   52.0683   44.0721 C   0  0  0  0  0  0  0  0  0  0  0  0
  1  2  1  0
  2  3  2  0
  3  4  1  0
  3  5  1  0
  1  6  2  0
  4  7  1  0
  7  8  2  0
  5  9  1  0
  4 10  2  0
  6 10  1  0
  9 11  1  0
  9 12  1  0
 12 13  2  0
 11 14  2  0
 13 14  1  0
 10 15  1  0
  8 16  1  0
 15 16  2  0
M  END
>  <ID>  (1) 
conformer_0

$$$$
