
     RDKit          3D

 15 16  0  0  0  0  0  0  0  0999 V2000
   69.9307   54.4363   40.2656 C   0  0  0  0  0  0  0  0  0  0  0  0
   70.9540   55.1420   40.1399 C   0  0  0  0  0  0  0  0  0  0  0  0
   71.9768   54.9044   40.9727 C   0  0  0  0  0  0  0  0  0  0  0  0
   69.6988   53.5796   41.2243 C   0  0  0  0  0  0  0  0  0  0  0  0
   73.2823   55.7081   40.9057 C   0  0  0  0  0  0  0  0  0  0  0  0
   70.6433   53.4454   42.1750 C   0  0  0  0  0  0  0  0  0  0  0  0
   70.4023   52.5370   43.3186 N   0  0  0  0  0  0  0  0  0  0  0  0
   71.2094   52.5460   44.3973 C   0  0  0  0  0  0  0  0  0  0  0  0
   73.4116   56.9649   41.2239 C   0  0  0  0  0  0  0  0  0  0  0  0
   70.9033   51.6630   45.5252 C   0  0  0  0  0  0  0  0  0  0  0  0
   71.8354   54.1353   42.1173 C   0  0  0  0  0  0  0  0  0  0  0  0
   72.1643   53.5301   44.5419 C   0  0  0  0  0  0  0  0  0  0  0  0
   72.6989   53.9636   43.2879 C   0  0  0  0  0  0  0  0  0  0  0  0
   72.5318   57.6616   42.0589 O   0  0  0  0  0  0  0  0  0  0  0  0
   74.4441   57.6695   40.7593 O   0  0  0  0  0  0  0  0  0  0  0  0
  1  2  1  0
  2  3  2  0
  1  4  2  0
  3  5  1  0
  4  6  1  0
  6  7  1  0
  7  8  2  0
  5  9  1  0
  8 10  1  0
  3 11  1  0
  6 11  2  0
  8 12  1  0
 11 13  1  0
 12 13  1  0
  9 14  1  0
  9 15  2  0
M  END
>  <ID>  (1) 
conformer_0

$$$$
