
     RDKit          3D

  9  9  0  0  0  0  0  0  0  0999 V2000
   70.0689   54.8534   40.8820 C   0  0  0  0  0  0  0  0  0  0  0  0
   71.1989   55.4074   40.5522 C   0  0  0  0  0  0  0  0  0  0  0  0
   69.9728   54.0917   42.0646 O   0  0  0  0  0  0  0  0  0  0  0  0
   69.0344   54.7635   40.1073 O   0  0  0  0  0  0  0  0  0  0  0  0
   72.0077   55.0856   39.5172 C   0  0  0  0  0  0  0  0  0  0  0  0
   71.8091   56.2883   41.5487 C   0  0  0  0  0  0  0  0  0  0  0  0
   72.9832   56.9153   41.2892 C   0  0  0  0  0  0  0  0  0  0  0  0
   73.7129   56.5976   40.1544 C   0  0  0  0  0  0  0  0  0  0  0  0
   73.2283   55.7115   39.3124 C   0  0  0  0  0  0  0  0  0  0  0  0
  1  2  1  0
  1  3  2  0
  1  4  1  0
  2  5  2  0
  2  6  1  0
  6  7  2  0
  7  8  1  0
  5  9  1  0
  8  9  2  0
M  END
>  <ID>  (1) 
conformer_0

$$$$
