
     RDKit          3D

 11 12  0  0  0  0  0  0  0  0999 V2000
   70.5242   55.2195   40.2765 C   0  0  0  0  0  0  0  0  0  0  0  0
   71.8010   55.4385   40.4591 C   0  0  0  0  0  0  0  0  0  0  0  0
   69.9102   54.1330   40.9407 C   0  0  0  0  0  0  0  0  0  0  0  0
   72.5145   56.5686   39.8255 C   0  0  0  0  0  0  0  0  0  0  0  0
   73.9157   56.8391   40.1876 C   0  0  0  0  0  0  0  0  0  0  0  0
   70.5506   53.4949   41.8936 C   0  0  0  0  0  0  0  0  0  0  0  0
   74.2778   56.0527   41.4311 C   0  0  0  0  0  0  0  0  0  0  0  0
   75.6410   56.4383   41.8024 O   0  0  0  0  0  0  0  0  0  0  0  0
   73.6673   55.0196   41.9407 C   0  0  0  0  0  0  0  0  0  0  0  0
   72.4346   54.8458   41.5673 C   0  0  0  0  0  0  0  0  0  0  0  0
   71.8286   53.8186   42.2012 C   0  0  0  0  0  0  0  0  0  0  0  0
  1  2  1  0
  1  3  2  0
  2  4  1  0
  4  5  2  0
  3  6  1  0
  5  7  1  0
  7  8  2  0
  7  9  1  0
  2 10  2  0
  9 10  1  0
  6 11  2  0
 10 11  1  0
M  END
>  <ID>  (1) 
conformer_0

$$$$
