
     RDKit          3D

 10 11  0  0  0  0  0  0  0  0999 V2000
   70.5242   55.2195   40.2765 C   0  0  0  0  0  0  0  0  0  0  0  0
   69.8847   54.2067   40.6693 C   0  0  0  0  0  0  0  0  0  0  0  0
   71.8631   55.2992   40.2504 C   0  0  0  0  0  0  0  0  0  0  0  0
   72.6480   56.4536   39.7880 O   0  0  0  0  0  0  0  0  0  0  0  0
   72.6487   54.2680   40.4459 C   0  0  0  0  0  0  0  0  0  0  0  0
   74.1042   54.3432   40.4693 O   0  0  0  0  0  0  0  0  0  0  0  0
   73.9364   56.3735   39.3866 C   0  0  0  0  0  0  0  0  0  0  0  0
   74.5317   55.2389   39.4877 C   0  0  0  0  0  0  0  0  0  0  0  0
   70.5886   53.1180   41.1400 C   0  0  0  0  0  0  0  0  0  0  0  0
   72.1138   53.0927   41.1414 C   0  0  0  0  0  0  0  0  0  0  0  0
  1  2  2  0
  1  3  1  0
  3  4  1  0
  3  5  2  0
  5  6  1  0
  4  7  1  0
  6  8  1  0
  7  8  2  0
  2  9  1  0
  5 10  1  0
  9 10  2  0
M  END
>  <ID>  (1) 
conformer_0

$$$$
