
     RDKit          3D

 16 18  0  0  0  0  0  0  0  0999 V2000
   69.9307   54.4363   40.2656 C   0  0  0  0  0  0  0  0  0  0  0  0
   70.9540   55.1420   40.1399 C   0  0  0  0  0  0  0  0  0  0  0  0
   71.9768   54.9044   40.9727 C   0  0  0  0  0  0  0  0  0  0  0  0
   69.6988   53.5796   41.2243 C   0  0  0  0  0  0  0  0  0  0  0  0
   73.2823   55.7081   40.9057 C   0  0  0  0  0  0  0  0  0  0  0  0
   70.6433   53.4454   42.1750 C   0  0  0  0  0  0  0  0  0  0  0  0
   70.4023   52.5370   43.3186 N   0  0  0  0  0  0  0  0  0  0  0  0
   71.2094   52.5460   44.3973 C   0  0  0  0  0  0  0  0  0  0  0  0
   73.4116   56.9649   41.2239 C   0  0  0  0  0  0  0  0  0  0  0  0
   70.9033   51.6630   45.5252 C   0  0  0  0  0  0  0  0  0  0  0  0
   73.5917   55.6399   39.5652 C   0  0  0  0  0  0  0  0  0  0  0  0
   74.5466   56.6863   39.3153 C   0  0  0  0  0  0  0  0  0  0  0  0
   71.9963   53.7067   44.5862 C   0  0  0  0  0  0  0  0  0  0  0  0
   71.7530   54.1683   42.1408 C   0  0  0  0  0  0  0  0  0  0  0  0
   72.4600   54.3211   43.4129 C   0  0  0  0  0  0  0  0  0  0  0  0
   74.3033   57.3765   40.3683 C   0  0  0  0  0  0  0  0  0  0  0  0
  1  2  1  0
  2  3  2  0
  1  4  2  0
  3  5  1  0
  4  6  1  0
  6  7  1  0
  7  8  2  0
  5  9  1  0
  8 10  1  0
  5 11  1  0
 11 12  1  0
  8 13  1  0
  3 14  1  0
  6 14  2  0
 13 15  1  0
 14 15  1  0
  9 16  1  0
 12 16  1  0
M  END
>  <ID>  (1) 
conformer_0

$$$$
