
     RDKit          3D

 10 11  0  0  0  0  0  0  0  0999 V2000
   70.0689   54.8534   40.8820 C   0  0  0  0  0  0  0  0  0  0  0  0
   71.1989   55.4074   40.5522 C   0  0  0  0  0  0  0  0  0  0  0  0
   69.8723   53.5628   41.1400 C   0  0  0  0  0  0  0  0  0  0  0  0
   71.4325   56.7975   40.3288 C   0  0  0  0  0  0  0  0  0  0  0  0
   71.0011   52.7942   41.3250 C   0  0  0  0  0  0  0  0  0  0  0  0
   72.3944   54.5523   40.8673 C   0  0  0  0  0  0  0  0  0  0  0  0
   73.7422   55.1685   40.7065 C   0  0  0  0  0  0  0  0  0  0  0  0
   73.9319   56.5206   40.3991 C   0  0  0  0  0  0  0  0  0  0  0  0
   72.6995   57.3288   40.2617 C   0  0  0  0  0  0  0  0  0  0  0  0
   72.2230   53.3117   41.2231 C   0  0  0  0  0  0  0  0  0  0  0  0
  1  2  2  0
  1  3  1  0
  2  4  1  0
  3  5  2  0
  2  6  1  0
  6  7  1  0
  7  8  2  0
  4  9  2  0
  8  9  1  0
  5 10  1  0
  6 10  2  0
M  END
>  <ID>  (1) 
conformer_0

$$$$
