
     RDKit          3D

 11 12  0  0  0  0  0  0  0  0999 V2000
   70.5242   55.2195   40.2765 C   0  0  0  0  0  0  0  0  0  0  0  0
   71.8010   55.4385   40.4591 C   0  0  0  0  0  0  0  0  0  0  0  0
   70.1149   53.9090   40.1779 C   0  0  0  0  0  0  0  0  0  0  0  0
   72.3472   56.8521   40.5488 C   0  0  0  0  0  0  0  0  0  0  0  0
   73.6853   57.0689   40.9143 C   0  0  0  0  0  0  0  0  0  0  0  0
   72.7857   54.5756   40.5636 C   0  0  0  0  0  0  0  0  0  0  0  0
   74.5520   56.0326   40.9387 C   0  0  0  0  0  0  0  0  0  0  0  0
   74.0897   54.7366   40.8502 C   0  0  0  0  0  0  0  0  0  0  0  0
   72.2515   53.2106   40.5257 C   0  0  0  0  0  0  0  0  0  0  0  0
   73.1825   52.0396   40.6531 O   0  0  0  0  0  0  0  0  0  0  0  0
   70.9661   52.9277   40.3242 C   0  0  0  0  0  0  0  0  0  0  0  0
  1  2  1  0
  1  3  2  0
  2  4  1  0
  4  5  2  0
  2  6  2  0
  5  7  1  0
  6  8  1  0
  7  8  2  0
  6  9  1  0
  9 10  1  0
  3 11  1  0
  9 11  2  0
M  END
>  <ID>  (1) 
conformer_0

$$$$
