
     RDKit          3D

 17 17  0  0  0  0  0  0  0  0999 V2000
   70.5242   55.2195   40.2765 C   0  0  0  0  0  0  0  0  0  0  0  0
   69.8847   54.2067   40.6693 C   0  0  0  0  0  0  0  0  0  0  0  0
   71.5386   55.6619   41.1453 C   0  0  0  0  0  0  0  0  0  0  0  0
   71.8516   54.7812   42.1104 C   0  0  0  0  0  0  0  0  0  0  0  0
   73.0107   55.2284   42.9824 C   0  0  0  0  0  0  0  0  0  0  0  0
   70.1916   53.4715   41.7324 C   0  0  0  0  0  0  0  0  0  0  0  0
   69.3158   52.2507   42.0324 O   0  0  0  0  0  0  0  0  0  0  0  0
   71.1415   53.7574   42.5259 C   0  0  0  0  0  0  0  0  0  0  0  0
   71.3659   53.0134   43.6912 C   0  0  0  0  0  0  0  0  0  0  0  0
   70.8854   53.3978   44.9178 N   0  0  0  0  0  0  0  0  0  0  0  0
   71.4742   51.6905   43.7751 O   0  0  0  0  0  0  0  0  0  0  0  0
   71.1437   52.8613   46.2283 C   0  0  0  0  0  0  0  0  0  0  0  0
   72.3254   56.6250   40.6487 O   0  0  0  0  0  0  0  0  0  0  0  0
   73.0105   55.8210   43.9945 O   0  0  0  0  0  0  0  0  0  0  0  0
   70.0575   52.9129   47.1106 C   0  0  0  0  0  0  0  0  0  0  0  0
   74.2280   55.3354   42.5857 O   0  0  0  0  0  0  0  0  0  0  0  0
   72.2854   53.6581   46.7612 C   0  0  0  0  0  0  0  0  0  0  0  0
  1  2  1  0
  1  3  2  0
  3  4  1  0
  4  5  1  0
  2  6  2  0
  6  7  1  0
  4  8  2  0
  6  8  1  0
  8  9  1  0
  9 10  1  0
  9 11  2  0
 10 12  1  0
  3 13  1  0
  5 14  1  0
 12 15  1  0
  5 16  2  0
 12 17  1  0
M  END
>  <ID>  (1) 
conformer_0

$$$$
