
     RDKit          3D

 16 18  0  0  0  0  0  0  0  0999 V2000
   70.5242   55.2195   40.2765 C   0  0  0  0  0  0  0  0  0  0  0  0
   69.8847   54.2067   40.6693 C   0  0  0  0  0  0  0  0  0  0  0  0
   71.7428   55.5753   40.7570 C   0  0  0  0  0  0  0  0  0  0  0  0
   72.2098   54.8898   41.8200 C   0  0  0  0  0  0  0  0  0  0  0  0
   70.3958   53.4863   41.9426 C   0  0  0  0  0  0  0  0  0  0  0  0
   71.5571   53.9046   42.4044 C   0  0  0  0  0  0  0  0  0  0  0  0
   73.5441   55.4140   42.3838 C   0  0  0  0  0  0  0  0  0  0  0  0
   72.0387   53.2108   43.6508 C   0  0  0  0  0  0  0  0  0  0  0  0
   72.4931   56.5678   40.1014 O   0  0  0  0  0  0  0  0  0  0  0  0
   71.3071   53.1832   44.7727 N   0  0  0  0  0  0  0  0  0  0  0  0
   73.2021   57.3647   41.0630 C   0  0  0  0  0  0  0  0  0  0  0  0
   70.5461   52.2808   45.1177 C   0  0  0  0  0  0  0  0  0  0  0  0
   71.4063   54.3642   45.6842 C   0  0  0  0  0  0  0  0  0  0  0  0
   70.0596   52.5213   46.4458 C   0  0  0  0  0  0  0  0  0  0  0  0
   74.0984   56.5475   41.8240 C   0  0  0  0  0  0  0  0  0  0  0  0
   70.6219   53.8145   46.8368 N   0  0  0  0  0  0  0  0  0  0  0  0
  1  2  2  0
  1  3  1  0
  3  4  2  0
  2  5  1  0
  4  6  1  0
  5  6  2  0
  4  7  1  0
  6  8  1  0
  3  9  1  0
  8 10  1  0
  9 11  1  0
 10 12  1  0
 10 13  1  0
 12 14  1  0
  7 15  1  0
 11 15  1  0
 13 16  1  0
 14 16  1  0
M  END
>  <ID>  (1) 
conformer_0

$$$$
