
     RDKit          3D

 11 11  0  0  0  0  0  0  0  0999 V2000
   70.5242   55.2195   40.2765 C   0  0  0  0  0  0  0  0  0  0  0  0
   69.8847   54.2067   40.6693 C   0  0  0  0  0  0  0  0  0  0  0  0
   71.7428   55.5753   40.7570 C   0  0  0  0  0  0  0  0  0  0  0  0
   72.5016   56.7311   40.2855 O   0  0  0  0  0  0  0  0  0  0  0  0
   72.2646   54.9644   41.8262 C   0  0  0  0  0  0  0  0  0  0  0  0
   70.2876   53.5558   41.8371 C   0  0  0  0  0  0  0  0  0  0  0  0
   73.5360   55.4166   42.3830 O   0  0  0  0  0  0  0  0  0  0  0  0
   73.6618   56.6579   42.7423 C   0  0  0  0  0  0  0  0  0  0  0  0
   73.5540   56.5766   39.3823 C   0  0  0  0  0  0  0  0  0  0  0  0
   71.5222   53.9291   42.4243 C   0  0  0  0  0  0  0  0  0  0  0  0
   69.6322   52.6174   42.4103 O   0  0  0  0  0  0  0  0  0  0  0  0
  1  2  2  0
  1  3  1  0
  3  4  1  0
  3  5  2  0
  2  6  1  0
  5  7  1  0
  7  8  1  0
  4  9  1  0
  5 10  1  0
  6 10  2  0
  6 11  1  0
M  END
>  <ID>  (1) 
conformer_0

$$$$
