
     RDKit          3D

 14 15  0  0  0  0  0  0  0  0999 V2000
   69.9307   54.4363   40.2656 C   0  0  0  0  0  0  0  0  0  0  0  0
   70.9540   55.1420   40.1399 C   0  0  0  0  0  0  0  0  0  0  0  0
   71.6354   55.4600   41.2501 C   0  0  0  0  0  0  0  0  0  0  0  0
   72.8017   56.3246   41.2380 C   0  0  0  0  0  0  0  0  0  0  0  0
   73.7329   56.1423   40.3138 C   0  0  0  0  0  0  0  0  0  0  0  0
   73.0118   57.1490   42.4390 C   0  0  0  0  0  0  0  0  0  0  0  0
   74.1471   57.8496   42.4991 C   0  0  0  0  0  0  0  0  0  0  0  0
   73.5371   55.3521   39.1880 O   0  0  0  0  0  0  0  0  0  0  0  0
   69.8522   53.7947   41.3826 C   0  0  0  0  0  0  0  0  0  0  0  0
   74.8938   57.0137   40.3653 C   0  0  0  0  0  0  0  0  0  0  0  0
   71.1446   54.7825   42.5053 C   0  0  0  0  0  0  0  0  0  0  0  0
   68.5894   52.7611   41.3312 O   0  0  0  0  0  0  0  0  0  0  0  0
   70.2564   53.9388   42.4730 N   0  0  0  0  0  0  0  0  0  0  0  0
   75.0772   57.8334   41.4657 C   0  0  0  0  0  0  0  0  0  0  0  0
  1  2  1  0
  2  3  2  0
  3  4  1  0
  4  5  2  0
  4  6  1  0
  6  7  2  0
  5  8  1  0
  1  9  2  0
  5 10  1  0
  3 11  1  0
  9 12  1  0
  9 13  1  0
 11 13  2  0
  7 14  1  0
 10 14  2  0
M  END
>  <ID>  (1) 
conformer_0

$$$$
