
     RDKit          3D

 11 12  0  0  0  0  0  0  0  0999 V2000
   70.5242   55.2195   40.2765 C   0  0  0  0  0  0  0  0  0  0  0  0
   71.8010   55.4385   40.4591 C   0  0  0  0  0  0  0  0  0  0  0  0
   70.1149   53.9090   40.1779 C   0  0  0  0  0  0  0  0  0  0  0  0
   72.3472   56.8521   40.5488 C   0  0  0  0  0  0  0  0  0  0  0  0
   73.6853   57.0689   40.9143 C   0  0  0  0  0  0  0  0  0  0  0  0
   68.6532   53.5796   40.0222 C   0  0  0  0  0  0  0  0  0  0  0  0
   74.4241   55.7680   40.9884 C   0  0  0  0  0  0  0  0  0  0  0  0
   71.1110   52.9535   40.1850 C   0  0  0  0  0  0  0  0  0  0  0  0
   72.6423   54.4023   40.5726 C   0  0  0  0  0  0  0  0  0  0  0  0
   72.3326   53.1841   40.4446 C   0  0  0  0  0  0  0  0  0  0  0  0
   74.0865   54.6109   40.8625 C   0  0  0  0  0  0  0  0  0  0  0  0
  1  2  1  0
  1  3  2  0
  2  4  1  0
  4  5  2  0
  3  6  1  0
  5  7  1  0
  3  8  1  0
  2  9  2  0
  8 10  2  0
  9 10  1  0
  7 11  2  0
  9 11  1  0
M  END
>  <ID>  (1) 
conformer_0

$$$$
