
     RDKit          3D

 17 19  0  0  0  0  0  0  0  0999 V2000
   70.5242   55.2195   40.2765 C   0  0  0  0  0  0  0  0  0  0  0  0
   69.8847   54.2067   40.6693 C   0  0  0  0  0  0  0  0  0  0  0  0
   71.6033   55.6955   40.7160 C   0  0  0  0  0  0  0  0  0  0  0  0
   70.3415   53.5182   41.7961 C   0  0  0  0  0  0  0  0  0  0  0  0
   69.6727   52.4459   42.4223 C   0  0  0  0  0  0  0  0  0  0  0  0
   71.5173   54.0205   42.3424 C   0  0  0  0  0  0  0  0  0  0  0  0
   72.1636   55.0976   41.8104 C   0  0  0  0  0  0  0  0  0  0  0  0
   73.3285   55.7278   42.2562 N   0  0  0  0  0  0  0  0  0  0  0  0
   72.4189   56.7331   40.1489 N   0  0  0  0  0  0  0  0  0  0  0  0
   68.7534   51.9331   41.7558 O   0  0  0  0  0  0  0  0  0  0  0  0
   74.1822   55.5036   43.3272 C   0  0  0  0  0  0  0  0  0  0  0  0
   70.1236   51.9331   43.4623 N   0  0  0  0  0  0  0  0  0  0  0  0
   71.1549   52.3819   44.3563 C   0  0  0  0  0  0  0  0  0  0  0  0
   73.4760   56.7708   41.2072 C   0  0  0  0  0  0  0  0  0  0  0  0
   71.3931   51.9023   45.5640 C   0  0  0  0  0  0  0  0  0  0  0  0
   71.8708   53.4512   43.7141 N   0  0  0  0  0  0  0  0  0  0  0  0
   74.6328   57.7174   41.0459 C   0  0  0  0  0  0  0  0  0  0  0  0
  1  2  2  0
  1  3  1  0
  2  4  1  0
  4  5  1  0
  4  6  2  0
  3  7  2  0
  6  7  1  0
  7  8  1  0
  3  9  1  0
  5 10  2  0
  8 11  1  0
  5 12  1  0
 12 13  1  0
  8 14  1  0
  9 14  2  0
 13 15  1  0
  6 16  1  0
 13 16  2  0
 14 17  1  0
M  END
>  <ID>  (1) 
conformer_0

$$$$
