
     RDKit          3D

 12 13  0  0  0  0  0  0  0  0999 V2000
   70.5242   55.2195   40.2765 C   0  0  0  0  0  0  0  0  0  0  0  0
   71.8010   55.4385   40.4591 C   0  0  0  0  0  0  0  0  0  0  0  0
   70.1149   53.9090   40.1779 C   0  0  0  0  0  0  0  0  0  0  0  0
   72.3472   56.8521   40.5488 C   0  0  0  0  0  0  0  0  0  0  0  0
   73.6853   57.0689   40.9143 C   0  0  0  0  0  0  0  0  0  0  0  0
   68.6532   53.5796   40.0222 C   0  0  0  0  0  0  0  0  0  0  0  0
   72.8790   54.6025   40.5986 C   0  0  0  0  0  0  0  0  0  0  0  0
   74.0707   58.4818   40.9718 C   0  0  0  0  0  0  0  0  0  0  0  0
   74.4000   55.8481   40.9418 C   0  0  0  0  0  0  0  0  0  0  0  0
   74.1117   54.7166   40.8640 N   0  0  0  0  0  0  0  0  0  0  0  0
   71.1961   52.9464   40.5446 C   0  0  0  0  0  0  0  0  0  0  0  0
   72.4473   53.1503   40.6757 C   0  0  0  0  0  0  0  0  0  0  0  0
  1  2  1  0
  1  3  2  0
  2  4  1  0
  4  5  2  0
  3  6  1  0
  2  7  2  0
  5  8  1  0
  5  9  1  0
  7 10  1  0
  9 10  2  0
  3 11  1  0
  7 12  1  0
 11 12  2  0
M  END
>  <ID>  (1) 
conformer_0

$$$$
