
     RDKit          3D

 16 18  0  0  0  0  0  0  0  0999 V2000
   70.5242   55.2195   40.2765 C   0  0  0  0  0  0  0  0  0  0  0  0
   69.8847   54.2067   40.6693 C   0  0  0  0  0  0  0  0  0  0  0  0
   71.5386   55.6619   41.1453 C   0  0  0  0  0  0  0  0  0  0  0  0
   70.1575   53.5124   41.7230 C   0  0  0  0  0  0  0  0  0  0  0  0
   69.3860   52.3104   42.1840 C   0  0  0  0  0  0  0  0  0  0  0  0
   71.8807   54.9680   42.1935 C   0  0  0  0  0  0  0  0  0  0  0  0
   69.8397   51.7610   43.2854 C   0  0  0  0  0  0  0  0  0  0  0  0
   71.1571   53.7907   42.7245 C   0  0  0  0  0  0  0  0  0  0  0  0
   72.3680   56.7186   40.7310 O   0  0  0  0  0  0  0  0  0  0  0  0
   71.3577   52.9496   43.7110 C   0  0  0  0  0  0  0  0  0  0  0  0
   72.9129   55.5007   42.9042 O   0  0  0  0  0  0  0  0  0  0  0  0
   72.5465   53.4391   44.6583 N   0  0  0  0  0  0  0  0  0  0  0  0
   73.7207   56.5120   40.3616 C   0  0  0  0  0  0  0  0  0  0  0  0
   70.7299   51.9883   44.0612 C   0  0  0  0  0  0  0  0  0  0  0  0
   72.2822   52.8584   45.8746 C   0  0  0  0  0  0  0  0  0  0  0  0
   71.1061   51.5970   45.3976 C   0  0  0  0  0  0  0  0  0  0  0  0
  1  2  1  0
  1  3  2  0
  2  4  2  0
  4  5  1  0
  3  6  1  0
  5  7  2  0
  4  8  1  0
  6  8  1  0
  3  9  1  0
  8 10  2  0
  6 11  2  0
 10 12  1  0
  9 13  1  0
  7 14  1  0
 10 14  1  0
 12 15  2  0
 14 16  2  0
 15 16  1  0
M  END
>  <ID>  (1) 
conformer_0

$$$$
