
     RDKit          3D

 10 10  0  0  0  0  0  0  0  0999 V2000
   70.5242   55.2195   40.2765 C   0  0  0  0  0  0  0  0  0  0  0  0
   69.8847   54.2067   40.6693 C   0  0  0  0  0  0  0  0  0  0  0  0
   68.5443   53.8633   40.2089 O   0  0  0  0  0  0  0  0  0  0  0  0
   71.9074   55.2414   40.4591 C   0  0  0  0  0  0  0  0  0  0  0  0
   72.7310   56.4579   39.9983 O   0  0  0  0  0  0  0  0  0  0  0  0
   74.0899   56.5729   40.3991 C   0  0  0  0  0  0  0  0  0  0  0  0
   70.4149   53.0244   41.2082 C   0  0  0  0  0  0  0  0  0  0  0  0
   71.8076   53.1582   41.5348 C   0  0  0  0  0  0  0  0  0  0  0  0
   72.6678   54.2933   41.1977 C   0  0  0  0  0  0  0  0  0  0  0  0
   69.6905   51.9818   41.6205 O   0  0  0  0  0  0  0  0  0  0  0  0
  1  2  1  0
  2  3  1  0
  1  4  2  0
  4  5  1  0
  5  6  1  0
  2  7  2  0
  7  8  1  0
  4  9  1  0
  8  9  2  0
  7 10  1  0
M  END
>  <ID>  (1) 
conformer_0

$$$$
