
     RDKit          3D

 13 14  0  0  0  0  0  0  0  0999 V2000
   73.6744   55.0449   39.0850 O   0  0  0  0  0  0  0  0  0  0  0  0
   73.1099   55.4739   40.1238 C   0  0  0  0  0  0  0  0  0  0  0  0
   71.9472   54.8861   40.5687 C   0  0  0  0  0  0  0  0  0  0  0  0
   70.8256   54.4874   39.8683 C   0  0  0  0  0  0  0  0  0  0  0  0
   71.7095   55.0203   42.0085 C   0  0  0  0  0  0  0  0  0  0  0  0
   73.9653   56.2254   41.0287 C   0  0  0  0  0  0  0  0  0  0  0  0
   72.5824   55.7175   42.8675 N   0  0  0  0  0  0  0  0  0  0  0  0
   75.2395   56.8040   40.4974 O   0  0  0  0  0  0  0  0  0  0  0  0
   73.5722   56.1706   42.4197 C   0  0  0  0  0  0  0  0  0  0  0  0
   70.6119   54.1727   42.5972 C   0  0  0  0  0  0  0  0  0  0  0  0
   69.7434   53.5853   41.6854 C   0  0  0  0  0  0  0  0  0  0  0  0
   69.8282   53.7937   40.3590 C   0  0  0  0  0  0  0  0  0  0  0  0
   74.2484   57.0204   43.3819 O   0  0  0  0  0  0  0  0  0  0  0  0
  1  2  2  0
  2  3  1  0
  3  4  1  0
  3  5  2  0
  2  6  1  0
  5  7  1  0
  6  8  1  0
  6  9  1  0
  7  9  1  0
  5 10  1  0
 10 11  2  0
  4 12  2  0
 11 12  1  0
  9 13  2  0
M  END
>  <ID>  (1) 
conformer_0

$$$$
