
     RDKit          3D

 13 14  0  0  0  0  0  0  0  0999 V2000
   69.9307   54.4363   40.2656 C   0  0  0  0  0  0  0  0  0  0  0  0
   70.9540   55.1420   40.1399 C   0  0  0  0  0  0  0  0  0  0  0  0
   71.6354   55.4600   41.2501 C   0  0  0  0  0  0  0  0  0  0  0  0
   72.8017   56.3246   41.2380 C   0  0  0  0  0  0  0  0  0  0  0  0
   73.7329   56.1423   40.3138 C   0  0  0  0  0  0  0  0  0  0  0  0
   73.0118   57.1490   42.4390 C   0  0  0  0  0  0  0  0  0  0  0  0
   74.1471   57.8496   42.4991 C   0  0  0  0  0  0  0  0  0  0  0  0
   73.5371   55.3521   39.1880 O   0  0  0  0  0  0  0  0  0  0  0  0
   69.8522   53.7947   41.3826 C   0  0  0  0  0  0  0  0  0  0  0  0
   71.3291   54.7313   42.3524 C   0  0  0  0  0  0  0  0  0  0  0  0
   75.1753   57.8275   41.4803 C   0  0  0  0  0  0  0  0  0  0  0  0
   74.9257   56.9578   40.4054 C   0  0  0  0  0  0  0  0  0  0  0  0
   70.3817   53.9428   42.4556 N   0  0  0  0  0  0  0  0  0  0  0  0
  1  2  1  0
  2  3  2  0
  3  4  1  0
  4  5  2  0
  4  6  1  0
  6  7  2  0
  5  8  1  0
  1  9  2  0
  3 10  1  0
  7 11  1  0
  5 12  1  0
 11 12  2  0
  9 13  1  0
 10 13  2  0
M  END
>  <ID>  (1) 
conformer_0

$$$$
