
     RDKit          3D

  8  8  0  0  0  0  0  0  0  0999 V2000
   70.0689   54.8534   40.8820 C   0  0  0  0  0  0  0  0  0  0  0  0
   71.1989   55.4074   40.5522 C   0  0  0  0  0  0  0  0  0  0  0  0
   71.9743   55.0045   39.5725 C   0  0  0  0  0  0  0  0  0  0  0  0
   73.1817   55.5880   39.2711 C   0  0  0  0  0  0  0  0  0  0  0  0
   70.0457   53.3751   40.9477 C   0  0  0  0  0  0  0  0  0  0  0  0
   70.9214   52.8085   40.0977 C   0  0  0  0  0  0  0  0  0  0  0  0
   74.2527   55.3301   39.7813 O   0  0  0  0  0  0  0  0  0  0  0  0
   71.9548   53.5293   39.5563 C   0  0  0  0  0  0  0  0  0  0  0  0
  1  2  1  0
  2  3  2  0
  3  4  1  0
  1  5  2  0
  5  6  1  0
  4  7  2  0
  3  8  1  0
  6  8  2  0
M  END
>  <ID>  (1) 
conformer_0

$$$$
