
     RDKit          3D

 14 15  0  0  0  0  0  0  0  0999 V2000
   69.9307   54.4363   40.2656 C   0  0  0  0  0  0  0  0  0  0  0  0
   70.9540   55.1420   40.1399 C   0  0  0  0  0  0  0  0  0  0  0  0
   69.6818   53.6306   41.4277 C   0  0  0  0  0  0  0  0  0  0  0  0
   70.6273   53.6593   42.4241 C   0  0  0  0  0  0  0  0  0  0  0  0
   71.9609   55.1172   41.0729 C   0  0  0  0  0  0  0  0  0  0  0  0
   70.4928   52.9464   43.6064 N   0  0  0  0  0  0  0  0  0  0  0  0
   71.3866   53.0879   44.5542 C   0  0  0  0  0  0  0  0  0  0  0  0
   71.2566   52.3893   45.8188 C   0  0  0  0  0  0  0  0  0  0  0  0
   72.5378   53.9514   44.1443 N   0  0  0  0  0  0  0  0  0  0  0  0
   71.7986   54.4647   42.1919 C   0  0  0  0  0  0  0  0  0  0  0  0
   73.0620   55.8854   40.6505 N   0  0  0  0  0  0  0  0  0  0  0  0
   72.6771   54.5840   43.2307 N   0  0  0  0  0  0  0  0  0  0  0  0
   73.3597   57.0482   41.4603 C   0  0  0  0  0  0  0  0  0  0  0  0
   73.7779   55.7706   39.4736 C   0  0  0  0  0  0  0  0  0  0  0  0
  1  2  1  0
  1  3  2  0
  3  4  1  0
  2  5  2  0
  4  6  1  0
  6  7  2  0
  7  8  1  0
  7  9  1  0
  4 10  2  0
  5 10  1  0
  5 11  1  0
  9 12  2  0
 10 12  1  0
 11 13  1  0
 11 14  1  0
M  END
>  <ID>  (1) 
conformer_0

$$$$
