
     RDKit          3D

 16 18  0  0  0  0  0  0  0  0999 V2000
   69.9307   54.4363   40.2656 C   0  0  0  0  0  0  0  0  0  0  0  0
   70.9540   55.1420   40.1399 C   0  0  0  0  0  0  0  0  0  0  0  0
   71.9768   54.9044   40.9727 C   0  0  0  0  0  0  0  0  0  0  0  0
   71.7274   53.9263   41.9663 C   0  0  0  0  0  0  0  0  0  0  0  0
   70.6380   53.2163   42.0559 C   0  0  0  0  0  0  0  0  0  0  0  0
   72.7501   53.7099   42.9547 C   0  0  0  0  0  0  0  0  0  0  0  0
   73.2256   54.6819   43.7300 C   0  0  0  0  0  0  0  0  0  0  0  0
   73.3714   55.8850   43.1073 C   0  0  0  0  0  0  0  0  0  0  0  0
   72.4332   52.3835   43.6733 C   0  0  0  0  0  0  0  0  0  0  0  0
   71.2506   52.6008   44.5334 C   0  0  0  0  0  0  0  0  0  0  0  0
   69.6128   53.5438   41.1546 C   0  0  0  0  0  0  0  0  0  0  0  0
   71.1667   52.5141   45.8365 O   0  0  0  0  0  0  0  0  0  0  0  0
   73.2366   55.6467   41.0919 C   0  0  0  0  0  0  0  0  0  0  0  0
   73.3228   56.9359   40.5481 C   0  0  0  0  0  0  0  0  0  0  0  0
   70.1865   52.4907   43.4943 N   0  0  0  0  0  0  0  0  0  0  0  0
   74.3769   57.0350   39.9671 O   0  0  0  0  0  0  0  0  0  0  0  0
  1  2  1  0
  2  3  2  0
  3  4  1  0
  4  5  2  0
  4  6  1  0
  6  7  1  0
  7  8  1  0
  6  9  1  0
  9 10  1  0
  1 11  2  0
  5 11  1  0
 10 12  2  0
  3 13  1  0
  8 13  1  0
 13 14  1  0
  5 15  1  0
 10 15  1  0
 14 16  1  0
M  END
>  <ID>  (1) 
conformer_0

$$$$
