
     RDKit          3D

 16 17  0  0  0  0  0  0  0  0999 V2000
   69.9307   54.4363   40.2656 C   0  0  0  0  0  0  0  0  0  0  0  0
   70.9540   55.1420   40.1399 C   0  0  0  0  0  0  0  0  0  0  0  0
   72.0771   54.8235   40.4472 C   0  0  0  0  0  0  0  0  0  0  0  0
   73.3126   55.7162   40.2804 C   0  0  0  0  0  0  0  0  0  0  0  0
   73.9200   56.2783   41.2592 C   0  0  0  0  0  0  0  0  0  0  0  0
   73.8216   55.8834   39.0359 C   0  0  0  0  0  0  0  0  0  0  0  0
   75.0114   57.1571   41.1183 C   0  0  0  0  0  0  0  0  0  0  0  0
   69.9057   53.2942   41.0425 C   0  0  0  0  0  0  0  0  0  0  0  0
   73.5347   56.2714   42.6489 C   0  0  0  0  0  0  0  0  0  0  0  0
   74.8534   56.7524   38.7341 C   0  0  0  0  0  0  0  0  0  0  0  0
   75.3529   57.3207   39.8884 C   0  0  0  0  0  0  0  0  0  0  0  0
   73.6286   57.2332   43.4824 O   0  0  0  0  0  0  0  0  0  0  0  0
   68.7550   52.5974   41.2837 O   0  0  0  0  0  0  0  0  0  0  0  0
   72.2292   53.7211   41.3015 C   0  0  0  0  0  0  0  0  0  0  0  0
   71.1313   52.9219   41.6033 C   0  0  0  0  0  0  0  0  0  0  0  0
   73.3194   55.1278   43.1708 O   0  0  0  0  0  0  0  0  0  0  0  0
  1  2  2  0
  2  3  1  0
  3  4  1  0
  4  5  1  0
  4  6  2  0
  5  7  2  0
  1  8  1  0
  5  9  1  0
  6 10  1  0
  7 11  1  0
 10 11  2  0
  9 12  2  0
  8 13  1  0
  3 14  2  0
  8 15  2  0
 14 15  1  0
  9 16  1  0
M  END
>  <ID>  (1) 
conformer_0

$$$$
