
     RDKit          3D

 15 16  0  0  0  0  0  0  0  0999 V2000
   70.5242   55.2195   40.2765 C   0  0  0  0  0  0  0  0  0  0  0  0
   69.8847   54.2067   40.6693 C   0  0  0  0  0  0  0  0  0  0  0  0
   71.8113   55.4399   40.7321 C   0  0  0  0  0  0  0  0  0  0  0  0
   72.2972   54.5085   41.6263 C   0  0  0  0  0  0  0  0  0  0  0  0
   70.2726   53.3043   41.6216 C   0  0  0  0  0  0  0  0  0  0  0  0
   71.5270   53.4696   42.0985 C   0  0  0  0  0  0  0  0  0  0  0  0
   71.8819   52.6697   43.2227 C   0  0  0  0  0  0  0  0  0  0  0  0
   71.2516   52.7147   44.4164 N   0  0  0  0  0  0  0  0  0  0  0  0
   72.7896   56.5533   40.2683 C   0  0  0  0  0  0  0  0  0  0  0  0
   71.4324   51.8755   45.3595 N   0  0  0  0  0  0  0  0  0  0  0  0
   70.7248   52.1510   46.4492 C   0  0  0  0  0  0  0  0  0  0  0  0
   73.0491   57.4405   41.2209 O   0  0  0  0  0  0  0  0  0  0  0  0
   70.5142   53.8277   44.9035 C   0  0  0  0  0  0  0  0  0  0  0  0
   73.6135   56.2135   39.3570 O   0  0  0  0  0  0  0  0  0  0  0  0
   70.1950   53.3879   46.2314 N   0  0  0  0  0  0  0  0  0  0  0  0
  1  2  1  0
  1  3  2  0
  3  4  1  0
  2  5  2  0
  4  6  2  0
  5  6  1  0
  6  7  1  0
  7  8  1  0
  3  9  1  0
  8 10  1  0
 10 11  2  0
  9 12  2  0
  8 13  1  0
  9 14  1  0
 11 15  1  0
 13 15  2  0
M  END
>  <ID>  (1) 
conformer_0

$$$$
