
     RDKit          3D

 17 19  0  0  0  0  0  0  0  0999 V2000
   70.5242   55.2195   40.2765 C   0  0  0  0  0  0  0  0  0  0  0  0
   69.8847   54.2067   40.6693 C   0  0  0  0  0  0  0  0  0  0  0  0
   71.5386   55.6619   41.1453 C   0  0  0  0  0  0  0  0  0  0  0  0
   72.3732   56.8002   40.7801 C   0  0  0  0  0  0  0  0  0  0  0  0
   73.0680   57.3787   41.7961 C   0  0  0  0  0  0  0  0  0  0  0  0
   70.1987   53.6562   41.8968 C   0  0  0  0  0  0  0  0  0  0  0  0
   69.4360   52.4626   42.4485 C   0  0  0  0  0  0  0  0  0  0  0  0
   71.8817   55.0942   42.2930 C   0  0  0  0  0  0  0  0  0  0  0  0
   73.5682   56.7677   42.5243 C   0  0  0  0  0  0  0  0  0  0  0  0
   71.3126   54.1739   42.6992 C   0  0  0  0  0  0  0  0  0  0  0  0
   72.8687   55.6571   43.0518 C   0  0  0  0  0  0  0  0  0  0  0  0
   68.6172   51.9983   41.6994 O   0  0  0  0  0  0  0  0  0  0  0  0
   73.1837   55.1719   44.1864 O   0  0  0  0  0  0  0  0  0  0  0  0
   72.8814   56.7383   39.5130 O   0  0  0  0  0  0  0  0  0  0  0  0
   71.3805   53.1817   43.5409 C   0  0  0  0  0  0  0  0  0  0  0  0
   70.3028   52.1910   43.4602 N   0  0  0  0  0  0  0  0  0  0  0  0
   70.1482   51.0141   44.3404 C   0  0  0  0  0  0  0  0  0  0  0  0
  1  2  1  0
  1  3  2  0
  3  4  1  0
  4  5  1  0
  2  6  2  0
  6  7  1  0
  3  8  1  0
  5  9  1  0
  6 10  1  0
  8 10  1  0
  8 11  1  0
  9 11  1  0
  7 12  2  0
 11 13  2  0
  4 14  1  0
 10 15  2  0
  7 16  1  0
 15 16  1  0
 16 17  1  0
M  END
>  <ID>  (1) 
conformer_0

$$$$
