
     RDKit          3D

 15 16  0  0  0  0  0  0  0  0999 V2000
   70.5242   55.2195   40.2765 C   0  0  0  0  0  0  0  0  0  0  0  0
   69.8847   54.2067   40.6693 C   0  0  0  0  0  0  0  0  0  0  0  0
   70.3510   53.3941   41.4931 C   0  0  0  0  0  0  0  0  0  0  0  0
   71.7000   55.5997   40.7985 C   0  0  0  0  0  0  0  0  0  0  0  0
   72.4977   56.7442   40.3398 C   0  0  0  0  0  0  0  0  0  0  0  0
   71.5258   53.6687   42.1549 C   0  0  0  0  0  0  0  0  0  0  0  0
   71.9713   52.7453   43.3056 C   0  0  0  0  0  0  0  0  0  0  0  0
   71.3852   52.7726   44.4669 C   0  0  0  0  0  0  0  0  0  0  0  0
   71.6219   53.7013   45.3717 C   0  0  0  0  0  0  0  0  0  0  0  0
   73.1406   57.4595   41.2869 C   0  0  0  0  0  0  0  0  0  0  0  0
   70.4333   51.8917   44.9259 C   0  0  0  0  0  0  0  0  0  0  0  0
   72.1947   54.8327   41.8338 C   0  0  0  0  0  0  0  0  0  0  0  0
   70.0650   52.2975   46.2599 N   0  0  0  0  0  0  0  0  0  0  0  0
   73.9305   58.5690   40.7043 C   0  0  0  0  0  0  0  0  0  0  0  0
   70.7332   53.4653   46.4779 N   0  0  0  0  0  0  0  0  0  0  0  0
  1  2  2  0
  2  3  1  0
  1  4  1  0
  4  5  1  0
  3  6  2  0
  6  7  1  0
  7  8  1  0
  8  9  1  0
  5 10  2  3
  8 11  2  0
  4 12  2  0
  6 12  1  0
 11 13  1  0
 10 14  1  0
  9 15  1  0
 13 15  2  0
M  END
>  <ID>  (1) 
conformer_0

$$$$
