
     RDKit          3D

 16 17  0  0  0  0  0  0  0  0999 V2000
   70.0689   54.8534   40.8820 C   0  0  0  0  0  0  0  0  0  0  0  0
   71.1989   55.4074   40.5522 C   0  0  0  0  0  0  0  0  0  0  0  0
   69.9728   54.0917   42.0646 C   0  0  0  0  0  0  0  0  0  0  0  0
   71.1089   53.9187   42.7926 C   0  0  0  0  0  0  0  0  0  0  0  0
   71.0082   53.1059   44.0443 C   0  0  0  0  0  0  0  0  0  0  0  0
   72.2653   54.5351   42.5179 C   0  0  0  0  0  0  0  0  0  0  0  0
   71.0898   53.5752   45.2905 C   0  0  0  0  0  0  0  0  0  0  0  0
   71.3413   56.1909   39.3813 O   0  0  0  0  0  0  0  0  0  0  0  0
   72.3609   55.3089   41.3420 C   0  0  0  0  0  0  0  0  0  0  0  0
   73.5219   56.0275   40.9578 C   0  0  0  0  0  0  0  0  0  0  0  0
   70.5976   51.7711   44.0354 C   0  0  0  0  0  0  0  0  0  0  0  0
   70.4918   50.9981   45.1713 C   0  0  0  0  0  0  0  0  0  0  0  0
   74.1955   55.6571   39.9572 O   0  0  0  0  0  0  0  0  0  0  0  0
   73.8661   57.1680   41.5958 O   0  0  0  0  0  0  0  0  0  0  0  0
   70.7557   51.5716   46.3943 N   0  0  0  0  0  0  0  0  0  0  0  0
   71.1111   52.8921   46.4535 C   0  0  0  0  0  0  0  0  0  0  0  0
  1  2  1  0
  1  3  2  0
  3  4  1  0
  4  5  1  0
  4  6  2  0
  5  7  1  0
  2  8  1  0
  2  9  2  0
  6  9  1  0
  9 10  1  0
  5 11  2  0
 11 12  1  0
 10 13  2  0
 10 14  1  0
 12 15  2  0
  7 16  2  0
 15 16  1  0
M  END
>  <ID>  (1) 
conformer_0

$$$$
