
     RDKit          3D

 10 11  0  0  0  0  0  0  0  0999 V2000
   73.6744   55.0449   39.0850 C   0  0  0  0  0  0  0  0  0  0  0  0
   74.3999   55.9079   39.7176 C   0  0  0  0  0  0  0  0  0  0  0  0
   72.7261   54.7003   39.9557 C   0  0  0  0  0  0  0  0  0  0  0  0
   74.1301   56.5076   40.8734 C   0  0  0  0  0  0  0  0  0  0  0  0
   71.7137   53.5358   39.4946 C   0  0  0  0  0  0  0  0  0  0  0  0
   72.3087   55.1921   41.1385 C   0  0  0  0  0  0  0  0  0  0  0  0
   70.6299   53.2787   40.2311 N   0  0  0  0  0  0  0  0  0  0  0  0
   71.1658   54.6132   41.7504 C   0  0  0  0  0  0  0  0  0  0  0  0
   70.3421   53.7214   41.3738 C   0  0  0  0  0  0  0  0  0  0  0  0
   73.0918   56.1555   41.6411 C   0  0  0  0  0  0  0  0  0  0  0  0
  1  2  1  0
  1  3  2  0
  2  4  2  0
  3  5  1  0
  3  6  1  0
  5  7  2  0
  6  8  1  0
  7  9  1  0
  8  9  2  0
  4 10  1  0
  6 10  2  0
M  END
>  <ID>  (1) 
conformer_0

$$$$
