
     RDKit          3D

 15 16  0  0  0  0  0  0  0  0999 V2000
   69.9307   54.4363   40.2656 C   0  0  0  0  0  0  0  0  0  0  0  0
   70.9540   55.1420   40.1399 C   0  0  0  0  0  0  0  0  0  0  0  0
   71.9768   54.9044   40.9727 C   0  0  0  0  0  0  0  0  0  0  0  0
   73.2487   55.7281   40.9005 C   0  0  0  0  0  0  0  0  0  0  0  0
   71.7235   54.3621   42.2410 C   0  0  0  0  0  0  0  0  0  0  0  0
   69.5791   53.7074   41.3712 C   0  0  0  0  0  0  0  0  0  0  0  0
   72.7236   54.3232   43.2376 N   0  0  0  0  0  0  0  0  0  0  0  0
   70.5622   53.7107   42.3889 C   0  0  0  0  0  0  0  0  0  0  0  0
   70.2716   52.9691   43.5522 N   0  0  0  0  0  0  0  0  0  0  0  0
   73.5451   56.7943   41.6133 O   0  0  0  0  0  0  0  0  0  0  0  0
   71.1553   52.9580   44.5701 C   0  0  0  0  0  0  0  0  0  0  0  0
   72.3932   53.6684   44.4431 C   0  0  0  0  0  0  0  0  0  0  0  0
   74.0408   55.4719   39.9122 O   0  0  0  0  0  0  0  0  0  0  0  0
   73.2393   53.9413   45.5860 C   0  0  0  0  0  0  0  0  0  0  0  0
   70.8874   52.3951   45.7242 O   0  0  0  0  0  0  0  0  0  0  0  0
  1  2  1  0
  2  3  2  0
  3  4  1  0
  3  5  1  0
  1  6  2  0
  5  7  1  0
  5  8  2  0
  6  8  1  0
  8  9  1  0
  4 10  1  0
  9 11  1  0
  7 12  2  0
 11 12  1  0
  4 13  2  0
 12 14  1  0
 11 15  2  0
M  END
>  <ID>  (1) 
conformer_0

$$$$
