
     RDKit          3D

 13 14  0  0  0  0  0  0  0  0999 V2000
   69.9307   54.4363   40.2656 C   0  0  0  0  0  0  0  0  0  0  0  0
   70.9540   55.1420   40.1399 C   0  0  0  0  0  0  0  0  0  0  0  0
   71.6354   55.4600   41.2501 C   0  0  0  0  0  0  0  0  0  0  0  0
   71.3528   54.6192   42.3068 C   0  0  0  0  0  0  0  0  0  0  0  0
   72.7988   56.2381   41.2672 C   0  0  0  0  0  0  0  0  0  0  0  0
   73.7696   56.1287   40.3839 C   0  0  0  0  0  0  0  0  0  0  0  0
   72.8412   57.1116   42.2675 C   0  0  0  0  0  0  0  0  0  0  0  0
   73.7542   55.3449   39.1872 O   0  0  0  0  0  0  0  0  0  0  0  0
   74.2112   57.7811   42.2906 C   0  0  0  0  0  0  0  0  0  0  0  0
   74.3462   58.6885   43.4323 O   0  0  0  0  0  0  0  0  0  0  0  0
   74.8324   56.9701   40.5117 C   0  0  0  0  0  0  0  0  0  0  0  0
   75.0962   57.8137   41.4292 C   0  0  0  0  0  0  0  0  0  0  0  0
   69.8618   53.8154   41.5766 C   0  0  0  0  0  0  0  0  0  0  0  0
  1  2  1  0
  2  3  2  0
  3  4  1  0
  3  5  1  0
  5  6  1  0
  5  7  2  0
  6  8  1  0
  7  9  1  0
  9 10  1  0
  6 11  2  0
  9 12  2  0
 11 12  1  0
  1 13  2  0
  4 13  1  0
M  END
>  <ID>  (1) 
conformer_0

$$$$
