
     RDKit          3D

 14 15  0  0  0  0  0  0  0  0999 V2000
   69.9307   54.4363   40.2656 C   0  0  0  0  0  0  0  0  0  0  0  0
   70.9540   55.1420   40.1399 C   0  0  0  0  0  0  0  0  0  0  0  0
   69.7627   53.4915   41.2413 C   0  0  0  0  0  0  0  0  0  0  0  0
   70.7451   53.3956   42.2179 C   0  0  0  0  0  0  0  0  0  0  0  0
   70.5677   52.4720   43.3583 N   0  0  0  0  0  0  0  0  0  0  0  0
   71.8722   54.1178   42.1500 C   0  0  0  0  0  0  0  0  0  0  0  0
   69.9531   51.3486   43.2577 C   0  0  0  0  0  0  0  0  0  0  0  0
   71.1248   52.9354   44.5850 C   0  0  0  0  0  0  0  0  0  0  0  0
   72.0862   54.9872   41.2501 C   0  0  0  0  0  0  0  0  0  0  0  0
   73.1532   55.8422   41.0022 O   0  0  0  0  0  0  0  0  0  0  0  0
   73.3280   56.8816   41.8692 C   0  0  0  0  0  0  0  0  0  0  0  0
   70.5193   52.1899   45.6264 C   0  0  0  0  0  0  0  0  0  0  0  0
   69.8811   51.0366   45.5865 N   0  0  0  0  0  0  0  0  0  0  0  0
   69.6466   50.6558   44.3123 C   0  0  0  0  0  0  0  0  0  0  0  0
  1  2  2  0
  1  3  1  0
  3  4  2  0
  4  5  1  0
  4  6  1  0
  5  7  1  0
  5  8  1  0
  2  9  1  0
  6  9  2  0
  9 10  1  0
 10 11  1  0
  8 12  2  0
 12 13  1  0
  7 14  1  0
 13 14  2  0
M  END
>  <ID>  (1) 
conformer_0

$$$$
