
     RDKit          3D

 10 11  0  0  0  0  0  0  0  0999 V2000
   73.6744   55.0449   39.0850 C   0  0  0  0  0  0  0  0  0  0  0  0
   74.3999   55.9079   39.7176 C   0  0  0  0  0  0  0  0  0  0  0  0
   72.7261   54.7003   39.9557 C   0  0  0  0  0  0  0  0  0  0  0  0
   71.6826   53.6171   39.5047 C   0  0  0  0  0  0  0  0  0  0  0  0
   72.3000   55.1061   41.3153 C   0  0  0  0  0  0  0  0  0  0  0  0
   73.2136   56.1875   41.7628 C   0  0  0  0  0  0  0  0  0  0  0  0
   74.2755   56.6317   40.9675 C   0  0  0  0  0  0  0  0  0  0  0  0
   70.6196   53.4884   40.3635 C   0  0  0  0  0  0  0  0  0  0  0  0
   71.1576   54.5364   41.8416 C   0  0  0  0  0  0  0  0  0  0  0  0
   70.7806   54.3990   42.8135 O   0  0  0  0  0  0  0  0  0  0  0  0
  1  2  1  0
  1  3  2  0
  3  4  1  0
  3  5  1  0
  5  6  2  0
  2  7  2  0
  6  7  1  0
  4  8  2  0
  5  9  1  0
  8  9  1  0
  9 10  2  0
M  END
>  <ID>  (1) 
conformer_0

$$$$
