
     RDKit          3D

 17 19  0  0  0  0  0  0  0  0999 V2000
   69.9307   54.4363   40.2656 C   0  0  0  0  0  0  0  0  0  0  0  0
   70.9540   55.1420   40.1399 C   0  0  0  0  0  0  0  0  0  0  0  0
   71.9768   54.9044   40.9727 C   0  0  0  0  0  0  0  0  0  0  0  0
   71.7274   53.9263   41.9663 C   0  0  0  0  0  0  0  0  0  0  0  0
   70.6380   53.2163   42.0559 C   0  0  0  0  0  0  0  0  0  0  0  0
   72.7501   53.7099   42.9547 C   0  0  0  0  0  0  0  0  0  0  0  0
   73.2256   54.6819   43.7300 C   0  0  0  0  0  0  0  0  0  0  0  0
   73.3714   55.8850   43.1073 C   0  0  0  0  0  0  0  0  0  0  0  0
   72.4332   52.3835   43.6733 C   0  0  0  0  0  0  0  0  0  0  0  0
   72.2015   55.0015   44.7260 C   0  0  0  0  0  0  0  0  0  0  0  0
   69.6151   53.6155   41.1354 C   0  0  0  0  0  0  0  0  0  0  0  0
   73.2050   55.6427   41.0485 C   0  0  0  0  0  0  0  0  0  0  0  0
   71.3318   53.8902   45.1344 C   0  0  0  0  0  0  0  0  0  0  0  0
   70.5913   53.8223   46.0325 O   0  0  0  0  0  0  0  0  0  0  0  0
   71.4724   52.7078   44.5089 N   0  0  0  0  0  0  0  0  0  0  0  0
   73.3856   56.5063   41.9477 C   0  0  0  0  0  0  0  0  0  0  0  0
   73.8963   57.7510   41.7584 C   0  0  0  0  0  0  0  0  0  0  0  0
  1  2  1  0
  2  3  2  0
  3  4  1  0
  4  5  2  0
  4  6  1  0
  6  7  1  0
  7  8  1  0
  6  9  1  0
  7 10  1  0
  1 11  2  0
  5 11  1  0
  3 12  1  0
 10 13  1  0
 13 14  2  0
  9 15  1  0
 13 15  1  0
  8 16  2  0
 12 16  1  0
 16 17  1  0
M  END
>  <ID>  (1) 
conformer_0

$$$$
