
     RDKit          3D

 15 16  0  0  0  0  0  0  0  0999 V2000
   70.5242   55.2195   40.2765 C   0  0  0  0  0  0  0  0  0  0  0  0
   69.8847   54.2067   40.6693 C   0  0  0  0  0  0  0  0  0  0  0  0
   70.3179   53.3871   41.6601 C   0  0  0  0  0  0  0  0  0  0  0  0
   69.5158   52.2624   42.1868 C   0  0  0  0  0  0  0  0  0  0  0  0
   71.4971   53.6292   42.1519 C   0  0  0  0  0  0  0  0  0  0  0  0
   71.7365   55.5412   40.8533 C   0  0  0  0  0  0  0  0  0  0  0  0
   72.2078   54.7320   41.7917 C   0  0  0  0  0  0  0  0  0  0  0  0
   71.9681   52.8329   43.2819 C   0  0  0  0  0  0  0  0  0  0  0  0
   72.8532   53.2011   44.2095 C   0  0  0  0  0  0  0  0  0  0  0  0
   72.5913   54.1237   45.0133 O   0  0  0  0  0  0  0  0  0  0  0  0
   73.3981   52.1733   45.0423 O   0  0  0  0  0  0  0  0  0  0  0  0
   70.8377   52.2707   44.1150 N   0  0  0  0  0  0  0  0  0  0  0  0
   72.6398   56.5148   40.3907 O   0  0  0  0  0  0  0  0  0  0  0  0
   69.8477   51.6642   43.3872 C   0  0  0  0  0  0  0  0  0  0  0  0
   73.3611   57.2029   41.2536 C   0  0  0  0  0  0  0  0  0  0  0  0
  1  2  2  0
  2  3  1  0
  3  4  1  0
  3  5  2  0
  1  6  1  0
  5  7  1  0
  6  7  2  0
  5  8  1  0
  8  9  1  0
  9 10  1  0
  9 11  1  0
  8 12  1  0
  6 13  1  0
  4 14  2  0
 12 14  1  0
 13 15  1  0
M  END
>  <ID>  (1) 
conformer_0

$$$$
