
     RDKit          3D

  8  8  0  0  0  0  0  0  0  0999 V2000
   73.6744   55.0449   39.0850 C   0  0  0  0  0  0  0  0  0  0  0  0
   74.3999   55.9079   39.7176 C   0  0  0  0  0  0  0  0  0  0  0  0
   72.7261   54.7003   39.9557 C   0  0  0  0  0  0  0  0  0  0  0  0
   74.2795   56.6505   40.9245 C   0  0  0  0  0  0  0  0  0  0  0  0
   73.0503   56.1481   41.5478 C   0  0  0  0  0  0  0  0  0  0  0  0
   71.7657   53.5445   39.4793 O   0  0  0  0  0  0  0  0  0  0  0  0
   72.2731   55.2812   41.2375 C   0  0  0  0  0  0  0  0  0  0  0  0
   70.6888   53.2911   40.2026 C   0  0  0  0  0  0  0  0  0  0  0  0
  1  2  1  0
  1  3  2  0
  2  4  2  0
  4  5  1  0
  3  6  1  0
  3  7  1  0
  5  7  2  0
  6  8  1  0
M  END
>  <ID>  (1) 
conformer_0

$$$$
