
     RDKit          3D

 13 15  0  0  0  0  0  0  0  0999 V2000
   70.5242   55.2195   40.2765 C   0  0  0  0  0  0  0  0  0  0  0  0
   69.8847   54.2067   40.6693 C   0  0  0  0  0  0  0  0  0  0  0  0
   71.7428   55.5753   40.7570 C   0  0  0  0  0  0  0  0  0  0  0  0
   72.2098   54.8898   41.8200 C   0  0  0  0  0  0  0  0  0  0  0  0
   71.4068   53.8510   42.3155 C   0  0  0  0  0  0  0  0  0  0  0  0
   73.5079   55.2830   42.3808 C   0  0  0  0  0  0  0  0  0  0  0  0
   74.0209   56.4171   41.8417 C   0  0  0  0  0  0  0  0  0  0  0  0
   74.1374   54.6150   43.3777 C   0  0  0  0  0  0  0  0  0  0  0  0
   70.2345   53.5389   41.8294 C   0  0  0  0  0  0  0  0  0  0  0  0
   73.5747   57.3607   41.0510 C   0  0  0  0  0  0  0  0  0  0  0  0
   75.4256   55.4740   43.5575 N   0  0  0  0  0  0  0  0  0  0  0  0
   75.2370   56.5455   42.6859 N   0  0  0  0  0  0  0  0  0  0  0  0
   72.4491   56.6560   40.2723 C   0  0  0  0  0  0  0  0  0  0  0  0
  1  2  2  0
  1  3  1  0
  3  4  2  0
  4  5  1  0
  4  6  1  0
  6  7  1  0
  6  8  2  0
  2  9  1  0
  5  9  2  0
  7 10  1  0
  8 11  1  0
  7 12  1  0
 11 12  2  0
  3 13  1  0
 10 13  1  0
M  END
>  <ID>  (1) 
conformer_0

$$$$
