
     RDKit          3D

 12 12  0  0  0  0  0  0  0  0999 V2000
   70.5242   55.2195   40.2765 C   0  0  0  0  0  0  0  0  0  0  0  0
   69.8847   54.2067   40.6693 C   0  0  0  0  0  0  0  0  0  0  0  0
   71.8113   55.4399   40.7321 C   0  0  0  0  0  0  0  0  0  0  0  0
   68.5016   53.9522   40.2529 O   0  0  0  0  0  0  0  0  0  0  0  0
   67.8531   52.9194   40.7398 C   0  0  0  0  0  0  0  0  0  0  0  0
   70.4042   53.5141   41.7111 C   0  0  0  0  0  0  0  0  0  0  0  0
   72.3122   54.6331   41.7683 C   0  0  0  0  0  0  0  0  0  0  0  0
   71.5881   53.6850   42.2664 C   0  0  0  0  0  0  0  0  0  0  0  0
   72.7778   56.5703   40.3055 O   0  0  0  0  0  0  0  0  0  0  0  0
   73.5433   54.9776   42.2200 O   0  0  0  0  0  0  0  0  0  0  0  0
   74.0175   54.9582   43.3732 C   0  0  0  0  0  0  0  0  0  0  0  0
   73.8996   56.2378   39.6122 C   0  0  0  0  0  0  0  0  0  0  0  0
  1  2  1  0
  1  3  2  0
  2  4  1  0
  4  5  1  0
  2  6  2  0
  3  7  1  0
  6  8  1  0
  7  8  2  0
  3  9  1  0
  7 10  1  0
 10 11  1  0
  9 12  1  0
M  END
>  <ID>  (1) 
conformer_0

$$$$
