
     RDKit          3D

 17 20  0  0  0  0  0  0  0  0999 V2000
   70.5242   55.2195   40.2765 C   0  0  0  0  0  0  0  0  0  0  0  0
   69.8847   54.2067   40.6693 C   0  0  0  0  0  0  0  0  0  0  0  0
   71.5386   55.6619   41.1453 C   0  0  0  0  0  0  0  0  0  0  0  0
   71.8516   54.7812   42.1104 C   0  0  0  0  0  0  0  0  0  0  0  0
   73.0107   55.2284   42.9824 C   0  0  0  0  0  0  0  0  0  0  0  0
   70.1916   53.4715   41.7324 C   0  0  0  0  0  0  0  0  0  0  0  0
   69.3158   52.2507   42.0324 O   0  0  0  0  0  0  0  0  0  0  0  0
   71.1415   53.7574   42.5259 C   0  0  0  0  0  0  0  0  0  0  0  0
   71.3659   53.0134   43.6912 C   0  0  0  0  0  0  0  0  0  0  0  0
   72.4591   56.7545   40.8356 C   0  0  0  0  0  0  0  0  0  0  0  0
   73.3139   54.4358   44.1675 C   0  0  0  0  0  0  0  0  0  0  0  0
   73.6362   56.8696   41.4246 C   0  0  0  0  0  0  0  0  0  0  0  0
   70.6565   51.9235   44.0994 N   0  0  0  0  0  0  0  0  0  0  0  0
   69.5362   51.6365   43.2829 C   0  0  0  0  0  0  0  0  0  0  0  0
   72.4856   53.2809   44.5781 C   0  0  0  0  0  0  0  0  0  0  0  0
   68.8155   50.6599   43.5118 O   0  0  0  0  0  0  0  0  0  0  0  0
   73.8886   56.2444   42.6370 C   0  0  0  0  0  0  0  0  0  0  0  0
  1  2  1  0
  1  3  2  0
  3  4  1  0
  4  5  1  0
  2  6  2  0
  6  7  1  0
  4  8  2  0
  6  8  1  0
  8  9  1  0
  3 10  1  0
  5 11  2  0
 10 12  2  0
  9 13  1  0
  7 14  1  0
 13 14  1  0
  9 15  2  0
 11 15  1  0
 14 16  2  0
  5 17  1  0
 12 17  1  0
M  END
>  <ID>  (1) 
conformer_0

$$$$
