
     RDKit          3D

  7  7  0  0  0  0  0  0  0  0999 V2000
   73.6744   55.0449   39.0850 O   0  0  0  0  0  0  0  0  0  0  0  0
   73.1099   55.4739   40.1238 C   0  0  0  0  0  0  0  0  0  0  0  0
   71.9472   54.8861   40.5687 C   0  0  0  0  0  0  0  0  0  0  0  0
   73.6995   56.5035   40.9451 C   0  0  0  0  0  0  0  0  0  0  0  0
   73.1028   56.8832   42.1458 C   0  0  0  0  0  0  0  0  0  0  0  0
   71.3781   55.1727   41.8202 C   0  0  0  0  0  0  0  0  0  0  0  0
   71.9727   56.1862   42.6007 C   0  0  0  0  0  0  0  0  0  0  0  0
  1  2  2  0
  2  3  1  0
  2  4  1  0
  4  5  2  0
  3  6  2  0
  5  7  1  0
  6  7  1  0
M  END
>  <ID>  (1) 
conformer_0

$$$$
