
     RDKit          3D

 15 15  0  0  0  0  0  0  0  0999 V2000
   70.5242   55.2195   40.2765 C   0  0  0  0  0  0  0  0  0  0  0  0
   69.8847   54.2067   40.6693 C   0  0  0  0  0  0  0  0  0  0  0  0
   68.5443   53.8633   40.2089 O   0  0  0  0  0  0  0  0  0  0  0  0
   71.8296   55.5044   40.6741 C   0  0  0  0  0  0  0  0  0  0  0  0
   72.4324   54.6276   41.5809 C   0  0  0  0  0  0  0  0  0  0  0  0
   70.4269   53.3256   41.5423 C   0  0  0  0  0  0  0  0  0  0  0  0
   72.6990   56.6832   40.2362 C   0  0  0  0  0  0  0  0  0  0  0  0
   71.7112   53.5422   42.0237 C   0  0  0  0  0  0  0  0  0  0  0  0
   72.2573   52.6386   43.0367 C   0  0  0  0  0  0  0  0  0  0  0  0
   71.5777   52.5728   44.2846 C   0  0  0  0  0  0  0  0  0  0  0  0
   71.0007   51.5072   44.6754 O   0  0  0  0  0  0  0  0  0  0  0  0
   71.3873   53.6399   45.0828 N   0  0  0  0  0  0  0  0  0  0  0  0
   73.7289   56.3742   39.3880 C   0  0  0  0  0  0  0  0  0  0  0  0
   71.0036   53.6355   46.2939 C   0  0  0  0  0  0  0  0  0  0  0  0
   73.3678   57.1717   41.3275 C   0  0  0  0  0  0  0  0  0  0  0  0
  1  2  1  0
  2  3  1  0
  1  4  2  0
  4  5  1  0
  2  6  2  0
  4  7  1  0
  5  8  2  0
  6  8  1  0
  8  9  1  0
  9 10  1  0
 10 11  2  0
 10 12  1  0
  7 13  1  0
 12 14  1  0
  7 15  1  0
M  END
>  <ID>  (1) 
conformer_0

$$$$
