
     RDKit          3D

 16 18  0  0  0  0  0  0  0  0999 V2000
   70.0689   54.8534   40.8820 C   0  0  0  0  0  0  0  0  0  0  0  0
   71.1989   55.4074   40.5522 C   0  0  0  0  0  0  0  0  0  0  0  0
   69.9596   53.7752   41.8052 C   0  0  0  0  0  0  0  0  0  0  0  0
   68.7824   53.1240   42.1155 O   0  0  0  0  0  0  0  0  0  0  0  0
   71.3708   56.5167   39.6056 C   0  0  0  0  0  0  0  0  0  0  0  0
   71.1275   53.5695   42.5806 C   0  0  0  0  0  0  0  0  0  0  0  0
   72.2767   54.3874   42.2632 C   0  0  0  0  0  0  0  0  0  0  0  0
   71.0918   52.5704   43.6865 C   0  0  0  0  0  0  0  0  0  0  0  0
   72.6852   56.9685   39.5654 C   0  0  0  0  0  0  0  0  0  0  0  0
   71.1609   53.0775   45.0464 C   0  0  0  0  0  0  0  0  0  0  0  0
   72.3493   55.2847   41.3717 C   0  0  0  0  0  0  0  0  0  0  0  0
   71.0384   52.1976   46.0141 N   0  0  0  0  0  0  0  0  0  0  0  0
   70.8708   50.9684   45.5077 C   0  0  0  0  0  0  0  0  0  0  0  0
   73.5489   55.8619   41.2525 C   0  0  0  0  0  0  0  0  0  0  0  0
   73.6956   56.7254   40.3273 C   0  0  0  0  0  0  0  0  0  0  0  0
   70.8394   51.0443   44.0252 C   0  0  0  0  0  0  0  0  0  0  0  0
  1  2  2  0
  1  3  1  0
  3  4  1  0
  2  5  1  0
  3  6  2  0
  6  7  1  0
  6  8  1  0
  5  9  2  0
  8 10  1  0
  2 11  1  0
  7 11  2  0
 10 12  2  0
 12 13  1  0
 11 14  1  0
  9 15  1  0
 14 15  2  0
  8 16  1  0
 13 16  2  0
M  END
>  <ID>  (1) 
conformer_0

$$$$
