
     RDKit          3D

 15 16  0  0  0  0  0  0  0  0999 V2000
   70.5242   55.2195   40.2765 C   0  0  0  0  0  0  0  0  0  0  0  0
   69.8847   54.2067   40.6693 C   0  0  0  0  0  0  0  0  0  0  0  0
   71.8113   55.4399   40.7321 C   0  0  0  0  0  0  0  0  0  0  0  0
   72.3182   54.6428   41.6808 C   0  0  0  0  0  0  0  0  0  0  0  0
   72.7257   56.4920   40.1856 C   0  0  0  0  0  0  0  0  0  0  0  0
   73.6483   54.8366   42.2370 C   0  0  0  0  0  0  0  0  0  0  0  0
   71.6929   53.7783   42.0471 C   0  0  0  0  0  0  0  0  0  0  0  0
   68.5198   54.0180   40.2529 O   0  0  0  0  0  0  0  0  0  0  0  0
   73.9666   56.7765   40.8234 C   0  0  0  0  0  0  0  0  0  0  0  0
   74.1583   54.0033   43.2281 C   0  0  0  0  0  0  0  0  0  0  0  0
   74.7634   57.8390   40.2353 C   0  0  0  0  0  0  0  0  0  0  0  0
   74.2657   55.9438   41.9286 C   0  0  0  0  0  0  0  0  0  0  0  0
   70.3572   53.5299   41.7361 C   0  0  0  0  0  0  0  0  0  0  0  0
   74.3143   54.3815   44.4627 O   0  0  0  0  0  0  0  0  0  0  0  0
   74.6510   52.9028   42.8978 O   0  0  0  0  0  0  0  0  0  0  0  0
  1  2  1  0
  1  3  2  0
  3  4  1  0
  3  5  1  0
  4  6  1  0
  4  7  2  0
  2  8  1  0
  5  9  2  0
  6 10  1  0
  9 11  1  0
  6 12  2  0
  9 12  1  0
  2 13  2  0
  7 13  1  0
 10 14  1  0
 10 15  2  0
M  END
>  <ID>  (1) 
conformer_0

$$$$
