
     RDKit          3D

 17 19  0  0  0  0  0  0  0  0999 V2000
   70.5242   55.2195   40.2765 C   0  0  0  0  0  0  0  0  0  0  0  0
   69.8847   54.2067   40.6693 C   0  0  0  0  0  0  0  0  0  0  0  0
   71.7428   55.5753   40.7570 C   0  0  0  0  0  0  0  0  0  0  0  0
   70.4014   53.4490   41.7633 C   0  0  0  0  0  0  0  0  0  0  0  0
   72.5013   56.7271   40.2400 C   0  0  0  0  0  0  0  0  0  0  0  0
   72.3036   54.9360   41.8064 C   0  0  0  0  0  0  0  0  0  0  0  0
   69.7019   52.3501   42.3554 C   0  0  0  0  0  0  0  0  0  0  0  0
   73.6773   56.7035   39.9142 C   0  0  0  0  0  0  0  0  0  0  0  0
   68.9023   51.7535   41.6387 O   0  0  0  0  0  0  0  0  0  0  0  0
   69.8936   52.0684   43.5584 N   0  0  0  0  0  0  0  0  0  0  0  0
   74.6152   56.0063   40.8357 C   0  0  0  0  0  0  0  0  0  0  0  0
   73.8501   55.1583   41.8621 C   0  0  0  0  0  0  0  0  0  0  0  0
   71.1910   52.2431   44.1801 C   0  0  0  0  0  0  0  0  0  0  0  0
   71.8608   53.4732   43.8108 C   0  0  0  0  0  0  0  0  0  0  0  0
   72.7594   54.1486   44.4704 O   0  0  0  0  0  0  0  0  0  0  0  0
   71.5303   53.9898   42.4629 C   0  0  0  0  0  0  0  0  0  0  0  0
   70.8036   52.4298   45.7944 C   0  0  0  0  0  0  0  0  0  0  0  0
  1  2  2  0
  1  3  1  0
  2  4  1  0
  3  5  1  0
  3  6  2  0
  4  7  1  0
  5  8  2  0
  7  9  2  0
  7 10  1  0
  8 11  1  0
  6 12  1  0
 11 12  2  0
 10 13  1  0
 13 14  1  0
 14 15  2  0
  4 16  2  0
  6 16  1  0
 14 16  1  0
 13 17  1  0
M  END
>  <ID>  (1) 
conformer_0

$$$$
