
     RDKit          3D

 17 19  0  0  0  0  0  0  0  0999 V2000
   73.6744   55.0449   39.0850 C   0  0  0  0  0  0  0  0  0  0  0  0
   74.3999   55.9079   39.7176 C   0  0  0  0  0  0  0  0  0  0  0  0
   72.7261   54.7003   39.9557 C   0  0  0  0  0  0  0  0  0  0  0  0
   74.2795   56.6505   40.9245 C   0  0  0  0  0  0  0  0  0  0  0  0
   75.1365   57.6465   41.3574 O   0  0  0  0  0  0  0  0  0  0  0  0
   72.3400   55.2380   41.1620 C   0  0  0  0  0  0  0  0  0  0  0  0
   71.1977   54.7150   41.9462 C   0  0  0  0  0  0  0  0  0  0  0  0
   73.1870   56.2416   41.6492 C   0  0  0  0  0  0  0  0  0  0  0  0
   71.4065   54.1161   43.0682 N   0  0  0  0  0  0  0  0  0  0  0  0
   72.4349   54.2400   43.9505 C   0  0  0  0  0  0  0  0  0  0  0  0
   70.5719   52.9593   43.1958 C   0  0  0  0  0  0  0  0  0  0  0  0
   70.1754   54.3353   41.0996 O   0  0  0  0  0  0  0  0  0  0  0  0
   70.2496   52.3671   42.0947 C   0  0  0  0  0  0  0  0  0  0  0  0
   72.0861   53.4560   45.1542 C   0  0  0  0  0  0  0  0  0  0  0  0
   71.1426   52.3956   44.5739 C   0  0  0  0  0  0  0  0  0  0  0  0
   69.7044   51.1265   42.1956 O   0  0  0  0  0  0  0  0  0  0  0  0
   70.4557   52.9934   40.9554 C   0  0  0  0  0  0  0  0  0  0  0  0
  1  2  1  0
  1  3  2  0
  2  4  2  0
  4  5  1  0
  3  6  1  0
  6  7  1  0
  4  8  1  0
  6  8  2  0
  7  9  1  0
  9 10  1  0
  9 11  1  0
  7 12  1  0
 11 13  1  0
 10 14  1  0
 11 15  1  0
 14 15  1  0
 13 16  2  0
 12 17  1  0
 13 17  1  0
M  END
>  <ID>  (1) 
conformer_0

$$$$
