
     RDKit          3D

  9  9  0  0  0  0  0  0  0  0999 V2000
   73.6744   55.0449   39.0850 C   0  0  0  0  0  0  0  0  0  0  0  0
   72.7106   55.1546   39.9721 C   0  0  0  0  0  0  0  0  0  0  0  0
   74.7544   56.0658   39.3063 O   0  0  0  0  0  0  0  0  0  0  0  0
   71.5113   54.3345   39.9440 C   0  0  0  0  0  0  0  0  0  0  0  0
   70.4239   54.3011   40.8379 C   0  0  0  0  0  0  0  0  0  0  0  0
   72.6645   55.9729   41.1864 C   0  0  0  0  0  0  0  0  0  0  0  0
   71.6048   55.9971   42.1014 C   0  0  0  0  0  0  0  0  0  0  0  0
   69.3131   53.4192   40.6318 O   0  0  0  0  0  0  0  0  0  0  0  0
   70.5115   55.1302   41.9738 C   0  0  0  0  0  0  0  0  0  0  0  0
  1  2  1  0
  1  3  1  0
  2  4  2  0
  4  5  1  0
  2  6  1  0
  6  7  2  0
  5  8  1  0
  5  9  2  0
  7  9  1  0
M  END
>  <ID>  (1) 
conformer_0

$$$$
