
     RDKit          3D

 17 19  0  0  0  0  0  0  0  0999 V2000
   70.0689   54.8534   40.8820 C   0  0  0  0  0  0  0  0  0  0  0  0
   71.1989   55.4074   40.5522 C   0  0  0  0  0  0  0  0  0  0  0  0
   72.0723   55.7555   41.5646 C   0  0  0  0  0  0  0  0  0  0  0  0
   71.9844   54.5224   39.6775 C   0  0  0  0  0  0  0  0  0  0  0  0
   73.2930   55.0565   39.3551 C   0  0  0  0  0  0  0  0  0  0  0  0
   70.1588   53.5514   41.6913 C   0  0  0  0  0  0  0  0  0  0  0  0
   70.8382   53.7178   42.8399 N   0  0  0  0  0  0  0  0  0  0  0  0
   73.4299   56.4174   39.9343 O   0  0  0  0  0  0  0  0  0  0  0  0
   71.9655   54.9216   42.6451 C   0  0  0  0  0  0  0  0  0  0  0  0
   70.9612   52.9870   43.9406 C   0  0  0  0  0  0  0  0  0  0  0  0
   73.1324   56.4461   41.2540 C   0  0  0  0  0  0  0  0  0  0  0  0
   72.5815   55.3190   43.9109 C   0  0  0  0  0  0  0  0  0  0  0  0
   73.1625   56.3166   44.0918 O   0  0  0  0  0  0  0  0  0  0  0  0
   72.6442   54.3179   45.0118 N   0  0  0  0  0  0  0  0  0  0  0  0
   71.8510   53.3058   45.1023 C   0  0  0  0  0  0  0  0  0  0  0  0
   70.2570   51.9379   43.9984 O   0  0  0  0  0  0  0  0  0  0  0  0
   71.8927   52.4355   46.2508 C   0  0  0  0  0  0  0  0  0  0  0  0
  1  2  1  0
  2  3  1  0
  2  4  1  0
  4  5  1  0
  1  6  1  0
  6  7  1  0
  5  8  1  0
  3  9  2  0
  7  9  1  0
  7 10  1  0
  3 11  1  0
  8 11  1  0
  9 12  1  0
 12 13  2  0
 12 14  1  0
 10 15  1  0
 14 15  2  0
 10 16  2  0
 15 17  1  0
M  END
>  <ID>  (1) 
conformer_0

$$$$
