
     RDKit          3D

 15 17  0  0  0  0  0  0  0  0999 V2000
   70.5242   55.2195   40.2765 C   0  0  0  0  0  0  0  0  0  0  0  0
   69.8847   54.2067   40.6693 C   0  0  0  0  0  0  0  0  0  0  0  0
   71.5386   55.6619   41.1453 C   0  0  0  0  0  0  0  0  0  0  0  0
   70.1575   53.5124   41.7230 C   0  0  0  0  0  0  0  0  0  0  0  0
   69.3860   52.3104   42.1840 C   0  0  0  0  0  0  0  0  0  0  0  0
   71.8807   54.9680   42.1935 C   0  0  0  0  0  0  0  0  0  0  0  0
   69.8397   51.7610   43.2854 C   0  0  0  0  0  0  0  0  0  0  0  0
   71.1571   53.7907   42.7245 C   0  0  0  0  0  0  0  0  0  0  0  0
   71.5463   53.1407   43.7643 C   0  0  0  0  0  0  0  0  0  0  0  0
   72.9448   55.5228   42.9546 N   0  0  0  0  0  0  0  0  0  0  0  0
   70.8301   52.0327   44.1057 C   0  0  0  0  0  0  0  0  0  0  0  0
   72.2707   56.7817   40.6832 O   0  0  0  0  0  0  0  0  0  0  0  0
   73.2691   57.2474   41.4182 C   0  0  0  0  0  0  0  0  0  0  0  0
   73.5836   56.6105   42.5152 C   0  0  0  0  0  0  0  0  0  0  0  0
   71.3580   51.2356   45.0959 O   0  0  0  0  0  0  0  0  0  0  0  0
  1  2  1  0
  1  3  2  0
  2  4  2  0
  4  5  1  0
  3  6  1  0
  5  7  2  0
  4  8  1  0
  6  8  1  0
  8  9  2  0
  6 10  2  0
  7 11  1  0
  9 11  1  0
  3 12  1  0
 12 13  1  0
 10 14  1  0
 13 14  2  0
 11 15  2  0
M  END
>  <ID>  (1) 
conformer_0

$$$$
