
     RDKit          3D

 14 14  0  0  0  0  0  0  0  0999 V2000
   70.5242   55.2195   40.2765 C   0  0  0  0  0  0  0  0  0  0  0  0
   69.8847   54.2067   40.6693 C   0  0  0  0  0  0  0  0  0  0  0  0
   71.7428   55.5753   40.7570 C   0  0  0  0  0  0  0  0  0  0  0  0
   72.2098   54.8898   41.8200 C   0  0  0  0  0  0  0  0  0  0  0  0
   70.3958   53.4863   41.9426 C   0  0  0  0  0  0  0  0  0  0  0  0
   71.5571   53.9046   42.4044 C   0  0  0  0  0  0  0  0  0  0  0  0
   73.5441   55.4140   42.3838 C   0  0  0  0  0  0  0  0  0  0  0  0
   72.0463   53.2243   43.6101 C   0  0  0  0  0  0  0  0  0  0  0  0
   72.4742   56.6420   40.1370 O   0  0  0  0  0  0  0  0  0  0  0  0
   71.3630   53.2352   44.7585 N   0  0  0  0  0  0  0  0  0  0  0  0
   74.1918   56.2954   41.7230 O   0  0  0  0  0  0  0  0  0  0  0  0
   70.5234   52.3313   45.1088 C   0  0  0  0  0  0  0  0  0  0  0  0
   71.2515   54.4690   45.5671 C   0  0  0  0  0  0  0  0  0  0  0  0
   73.7204   55.3898   43.6863 O   0  0  0  0  0  0  0  0  0  0  0  0
  1  2  2  0
  1  3  1  0
  3  4  2  0
  2  5  1  0
  4  6  1  0
  5  6  2  0
  4  7  1  0
  6  8  1  0
  3  9  1  0
  8 10  1  0
  7 11  2  0
 10 12  1  0
 10 13  1  0
  7 14  1  0
M  END
>  <ID>  (1) 
conformer_0

$$$$
