
     RDKit          3D

 11 11  0  0  0  0  0  0  0  0999 V2000
   70.5242   55.2195   40.2765 C   0  0  0  0  0  0  0  0  0  0  0  0
   69.8847   54.2067   40.6693 C   0  0  0  0  0  0  0  0  0  0  0  0
   68.5443   53.8633   40.2089 O   0  0  0  0  0  0  0  0  0  0  0  0
   71.9074   55.2414   40.4591 C   0  0  0  0  0  0  0  0  0  0  0  0
   70.3973   53.0897   41.3557 C   0  0  0  0  0  0  0  0  0  0  0  0
   72.7124   56.4856   40.1523 O   0  0  0  0  0  0  0  0  0  0  0  0
   69.6059   52.0133   41.8462 O   0  0  0  0  0  0  0  0  0  0  0  0
   72.5055   54.3752   41.3235 C   0  0  0  0  0  0  0  0  0  0  0  0
   70.1273   50.9756   42.2179 C   0  0  0  0  0  0  0  0  0  0  0  0
   71.7751   53.2779   41.7505 C   0  0  0  0  0  0  0  0  0  0  0  0
   73.9922   56.2628   39.6643 C   0  0  0  0  0  0  0  0  0  0  0  0
  1  2  1  0
  2  3  1  0
  1  4  2  0
  2  5  2  0
  4  6  1  0
  5  7  1  0
  4  8  1  0
  7  9  1  0
  5 10  1  0
  8 10  2  0
  6 11  1  0
M  END
>  <ID>  (1) 
conformer_0

$$$$
