
     RDKit          3D

 11 11  0  0  0  0  0  0  0  0999 V2000
   70.5242   55.2195   40.2765 C   0  0  0  0  0  0  0  0  0  0  0  0
   71.8010   55.4385   40.4591 C   0  0  0  0  0  0  0  0  0  0  0  0
   72.4575   54.7143   41.1936 C   0  0  0  0  0  0  0  0  0  0  0  0
   73.9641   55.0067   41.4244 C   0  0  0  0  0  0  0  0  0  0  0  0
   72.0187   53.5251   41.6936 C   0  0  0  0  0  0  0  0  0  0  0  0
   74.2570   56.3911   41.1734 C   0  0  0  0  0  0  0  0  0  0  0  0
   74.7396   54.2652   40.6789 O   0  0  0  0  0  0  0  0  0  0  0  0
   74.1141   57.2366   42.1571 C   0  0  0  0  0  0  0  0  0  0  0  0
   75.4757   56.5810   40.5810 O   0  0  0  0  0  0  0  0  0  0  0  0
   69.8820   54.1947   40.8369 C   0  0  0  0  0  0  0  0  0  0  0  0
   70.6364   53.3055   41.5443 C   0  0  0  0  0  0  0  0  0  0  0  0
  1  2  1  0
  2  3  2  0
  3  4  1  0
  3  5  1  0
  4  6  1  0
  4  7  1  0
  6  8  1  0
  6  9  1  0
  1 10  2  0
  5 11  2  0
 10 11  1  0
M  END
>  <ID>  (1) 
conformer_0

$$$$
