
     RDKit          3D

 16 16  0  0  0  0  0  0  0  0999 V2000
   73.6744   55.0449   39.0850 O   0  0  0  0  0  0  0  0  0  0  0  0
   73.1099   55.4739   40.1238 C   0  0  0  0  0  0  0  0  0  0  0  0
   71.9472   54.8861   40.5687 C   0  0  0  0  0  0  0  0  0  0  0  0
   70.8256   54.4874   39.8683 C   0  0  0  0  0  0  0  0  0  0  0  0
   73.6540   56.4639   41.0529 C   0  0  0  0  0  0  0  0  0  0  0  0
   69.7905   53.8617   40.5864 C   0  0  0  0  0  0  0  0  0  0  0  0
   71.8552   54.6582   41.9505 C   0  0  0  0  0  0  0  0  0  0  0  0
   70.8031   54.0811   42.6256 C   0  0  0  0  0  0  0  0  0  0  0  0
   70.8428   53.8022   44.0233 C   0  0  0  0  0  0  0  0  0  0  0  0
   70.7550   52.8184   44.5508 N   0  0  0  0  0  0  0  0  0  0  0  0
   70.4848   52.5903   45.8761 C   0  0  0  0  0  0  0  0  0  0  0  0
   69.6681   51.7690   46.2093 O   0  0  0  0  0  0  0  0  0  0  0  0
   71.4409   53.1789   46.7578 C   0  0  0  0  0  0  0  0  0  0  0  0
   74.5616   57.2089   40.3279 O   0  0  0  0  0  0  0  0  0  0  0  0
   73.5009   56.6562   42.2403 O   0  0  0  0  0  0  0  0  0  0  0  0
   69.7843   53.6079   41.8780 C   0  0  0  0  0  0  0  0  0  0  0  0
  1  2  2  0
  2  3  1  0
  3  4  2  0
  2  5  1  0
  4  6  1  0
  3  7  1  0
  7  8  2  0
  8  9  1  0
  9 10  2  3
 10 11  1  0
 11 12  2  0
 11 13  1  0
  5 14  2  0
  5 15  1  0
  6 16  2  0
  8 16  1  0
M  END
>  <ID>  (1) 
conformer_0

$$$$
