
     RDKit          3D

 17 18  0  0  0  0  0  0  0  0999 V2000
   70.5242   55.2195   40.2765 C   0  0  0  0  0  0  0  0  0  0  0  0
   69.8847   54.2067   40.6693 C   0  0  0  0  0  0  0  0  0  0  0  0
   71.7428   55.5753   40.7570 C   0  0  0  0  0  0  0  0  0  0  0  0
   72.2098   54.8898   41.8200 C   0  0  0  0  0  0  0  0  0  0  0  0
   70.3958   53.4863   41.9426 C   0  0  0  0  0  0  0  0  0  0  0  0
   71.5571   53.9046   42.4044 C   0  0  0  0  0  0  0  0  0  0  0  0
   73.5441   55.4140   42.3838 C   0  0  0  0  0  0  0  0  0  0  0  0
   72.0463   53.2243   43.6101 C   0  0  0  0  0  0  0  0  0  0  0  0
   72.4742   56.6420   40.1370 O   0  0  0  0  0  0  0  0  0  0  0  0
   74.2789   56.0822   41.7078 O   0  0  0  0  0  0  0  0  0  0  0  0
   73.7496   57.0061   40.6976 C   0  0  0  0  0  0  0  0  0  0  0  0
   71.3044   52.4452   44.4876 C   0  0  0  0  0  0  0  0  0  0  0  0
   71.1034   52.9689   45.7966 C   0  0  0  0  0  0  0  0  0  0  0  0
   71.6701   51.1667   44.5764 O   0  0  0  0  0  0  0  0  0  0  0  0
   73.6448   55.6951   43.6793 O   0  0  0  0  0  0  0  0  0  0  0  0
   73.5515   58.3484   41.3500 C   0  0  0  0  0  0  0  0  0  0  0  0
   74.7008   57.1911   39.6007 C   0  0  0  0  0  0  0  0  0  0  0  0
  1  2  2  0
  1  3  1  0
  3  4  2  0
  2  5  1  0
  4  6  1  0
  5  6  2  0
  4  7  1  0
  6  8  1  0
  3  9  1  0
  7 10  1  0
  9 11  1  0
 10 11  1  0
  8 12  1  0
 12 13  1  0
 12 14  1  0
  7 15  2  0
 11 16  1  0
 11 17  1  0
M  END
>  <ID>  (1) 
conformer_0

$$$$
