
     RDKit          3D

 11 12  0  0  0  0  0  0  0  0999 V2000
   69.9307   54.4363   40.2656 C   0  0  0  0  0  0  0  0  0  0  0  0
   70.9540   55.1420   40.1399 C   0  0  0  0  0  0  0  0  0  0  0  0
   71.6354   55.4600   41.2501 C   0  0  0  0  0  0  0  0  0  0  0  0
   72.8017   56.3246   41.2380 C   0  0  0  0  0  0  0  0  0  0  0  0
   73.7329   56.1423   40.3138 C   0  0  0  0  0  0  0  0  0  0  0  0
   73.0118   57.1490   42.4390 C   0  0  0  0  0  0  0  0  0  0  0  0
   74.7579   57.1874   40.6036 C   0  0  0  0  0  0  0  0  0  0  0  0
   69.8467   54.1157   41.6193 C   0  0  0  0  0  0  0  0  0  0  0  0
   68.9852   53.2126   42.3191 O   0  0  0  0  0  0  0  0  0  0  0  0
   74.4741   57.7881   41.8604 N   0  0  0  0  0  0  0  0  0  0  0  0
   71.0796   54.6650   42.3379 C   0  0  0  0  0  0  0  0  0  0  0  0
  1  2  1  0
  2  3  2  0
  3  4  1  0
  4  5  2  0
  4  6  1  0
  5  7  1  0
  1  8  2  0
  8  9  1  0
  6 10  1  0
  7 10  2  0
  3 11  1  0
  8 11  1  0
M  END
>  <ID>  (1) 
conformer_0

$$$$
