
     RDKit          3D

 17 20  0  0  0  0  0  0  0  0999 V2000
   69.9307   54.4363   40.2656 C   0  0  0  0  0  0  0  0  0  0  0  0
   70.9540   55.1420   40.1399 C   0  0  0  0  0  0  0  0  0  0  0  0
   71.9768   54.9044   40.9727 C   0  0  0  0  0  0  0  0  0  0  0  0
   71.7274   53.9263   41.9663 C   0  0  0  0  0  0  0  0  0  0  0  0
   70.6380   53.2163   42.0559 C   0  0  0  0  0  0  0  0  0  0  0  0
   72.7501   53.7099   42.9547 C   0  0  0  0  0  0  0  0  0  0  0  0
   73.2256   54.6819   43.7300 C   0  0  0  0  0  0  0  0  0  0  0  0
   73.3714   55.8850   43.1073 C   0  0  0  0  0  0  0  0  0  0  0  0
   72.2504   54.8655   44.7795 C   0  0  0  0  0  0  0  0  0  0  0  0
   73.2092   55.6237   40.8012 C   0  0  0  0  0  0  0  0  0  0  0  0
   71.4172   53.6958   44.9110 C   0  0  0  0  0  0  0  0  0  0  0  0
   70.3958   52.2693   43.1796 C   0  0  0  0  0  0  0  0  0  0  0  0
   72.1316   53.0186   44.1519 N   0  0  0  0  0  0  0  0  0  0  0  0
   73.8616   56.1711   41.8415 N   0  0  0  0  0  0  0  0  0  0  0  0
   69.5519   53.5370   41.1440 C   0  0  0  0  0  0  0  0  0  0  0  0
   73.7022   55.8281   39.5074 C   0  0  0  0  0  0  0  0  0  0  0  0
   71.5696   51.7593   43.6288 C   0  0  0  0  0  0  0  0  0  0  0  0
  1  2  1  0
  2  3  2  0
  3  4  1  0
  4  5  2  0
  4  6  1  0
  6  7  1  0
  7  8  1  0
  7  9  1  0
  3 10  1  0
  9 11  1  0
  5 12  1  0
  6 13  1  0
 11 13  1  0
  8 14  1  0
 10 14  2  0
  1 15  2  0
  5 15  1  0
 10 16  1  0
 12 17  1  0
 13 17  1  0
M  END
>  <ID>  (1) 
conformer_0

$$$$
