
     RDKit          3D

 12 13  0  0  0  0  0  0  0  0999 V2000
   69.9307   54.4363   40.2656 C   0  0  0  0  0  0  0  0  0  0  0  0
   70.9540   55.1420   40.1399 C   0  0  0  0  0  0  0  0  0  0  0  0
   72.0771   54.8235   40.4472 C   0  0  0  0  0  0  0  0  0  0  0  0
   73.3126   55.7162   40.2804 C   0  0  0  0  0  0  0  0  0  0  0  0
   73.9200   56.2783   41.2592 C   0  0  0  0  0  0  0  0  0  0  0  0
   72.2553   53.6741   41.2163 C   0  0  0  0  0  0  0  0  0  0  0  0
   73.5567   53.2247   41.7244 O   0  0  0  0  0  0  0  0  0  0  0  0
   74.4817   57.4709   40.9651 C   0  0  0  0  0  0  0  0  0  0  0  0
   70.0944   53.1631   41.0823 C   0  0  0  0  0  0  0  0  0  0  0  0
   74.1361   57.7225   39.4749 C   0  0  0  0  0  0  0  0  0  0  0  0
   73.5699   56.5385   39.1651 N   0  0  0  0  0  0  0  0  0  0  0  0
   71.1722   52.8606   41.5628 C   0  0  0  0  0  0  0  0  0  0  0  0
  1  2  2  0
  2  3  1  0
  3  4  1  0
  4  5  1  0
  3  6  2  0
  6  7  1  0
  5  8  2  0
  1  9  1  0
  8 10  1  0
  4 11  2  0
 10 11  1  0
  6 12  1  0
  9 12  2  0
M  END
>  <ID>  (1) 
conformer_0

$$$$
