
     RDKit          3D

 28 32  0  0  0  0  0  0  0  0999 V2000
   -0.2082  -30.4955   -7.7200 C   0  0  0  0  0  0  0  0  0  0  0  0
   -5.3494  -28.6273   -9.1663 C   0  0  0  0  0  0  0  0  0  0  0  0
   -1.6619  -30.1903  -11.9567 C   0  0  0  0  0  0  0  0  0  0  0  0
   -1.5299  -31.0532  -18.6079 C   0  0  0  0  0  0  0  0  0  0  0  0
   -3.6065  -29.5551  -10.5166 C   0  0  0  0  0  0  0  0  0  0  0  0
   -4.7842  -29.1096   -7.9626 C   0  0  0  0  0  0  0  0  0  0  0  0
    0.3503  -31.1551  -16.1485 C   0  0  0  0  0  0  0  0  0  0  0  0
    1.1322  -31.5157  -17.1507 O   0  0  0  0  0  0  0  0  0  0  0  0
   -2.0266  -30.8256  -17.2860 C   0  0  0  0  0  0  0  0  0  0  0  0
   -3.0171  -29.7464  -11.8901 C   0  0  0  0  0  0  0  0  0  0  0  0
    0.7736  -30.7045   -9.0337 N   0  0  0  0  0  0  0  0  0  0  0  0
    1.8518  -31.1018   -8.0849 C   0  0  0  0  0  0  0  0  0  0  0  0
   -4.7808  -28.8616  -10.4059 C   0  0  0  0  0  0  0  0  0  0  0  0
   -3.0727  -30.0200   -9.3038 C   0  0  0  0  0  0  0  0  0  0  0  0
   -3.6066  -29.8254   -8.0709 C   0  0  0  0  0  0  0  0  0  0  0  0
   -0.9173  -30.3883  -10.8240 O   0  0  0  0  0  0  0  0  0  0  0  0
   -1.3772  -30.4817  -14.8716 N   0  0  0  0  0  0  0  0  0  0  0  0
   -6.4635  -27.9241   -9.1384 F   0  0  0  0  0  0  0  0  0  0  0  0
   -3.9628  -29.4605  -12.9010 C   0  0  0  0  0  0  0  0  0  0  0  0
    0.2359  -30.8808  -11.3954 C   0  0  0  0  0  0  0  0  0  0  0  0
   -0.2425  -30.7212  -13.9553 C   0  0  0  0  0  0  0  0  0  0  0  0
   -1.0470  -30.8195  -16.1965 C   0  0  0  0  0  0  0  0  0  0  0  0
   -0.5132  -30.5913  -12.6727 C   0  0  0  0  0  0  0  0  0  0  0  0
    1.1991  -31.3784  -10.4025 C   0  0  0  0  0  0  0  0  0  0  0  0
   -2.6091  -30.0202  -14.7036 C   0  0  0  0  0  0  0  0  0  0  0  0
    0.8258  -31.0920  -14.7984 C   0  0  0  0  0  0  0  0  0  0  0  0
    0.9872  -30.7699   -6.8176 C   0  0  0  0  0  0  0  0  0  0  0  0
   -3.7609  -29.5891  -14.2381 N   0  0  0  0  0  0  0  0  0  0  0  0
  1 11  1  0
  1 27  1  0
  2  6  1  0
  2 13  2  0
  2 18  1  0
  3 10  2  0
  3 16  1  0
  3 23  1  0
  4  9  1  0
  5 10  1  0
  5 13  1  0
  5 14  1  0
  6 15  1  0
  7  8  1  0
  7 22  2  0
  7 26  1  0
  9 22  1  0
 10 19  1  0
 11 12  1  0
 11 24  1  0
 12 27  1  0
 14 15  2  0
 16 20  1  0
 17 21  1  0
 17 22  1  0
 17 25  1  0
 19 28  2  0
 20 23  1  0
 20 24  1  0
 21 23  2  0
 21 26  1  0
 25 28  1  0
M  END
>  <ID>  (1) 
conformer_0

$$$$
