
     RDKit          3D

 27 29  0  0  0  0  0  0  0  0999 V2000
    0.4752  -31.1496  -11.0736 N   0  0  0  0  0  0  0  0  0  0  0  0
   -1.1349  -30.5103  -14.2297 C   0  0  0  0  0  0  0  0  0  0  0  0
   -1.6757  -30.2132  -10.9042 C   0  0  0  0  0  0  0  0  0  0  0  0
   -3.0440  -30.1649  -16.3912 N   0  0  0  0  0  0  0  0  0  0  0  0
   -2.8653  -29.9306   -8.8291 C   0  0  0  0  0  0  0  0  0  0  0  0
   -3.3684  -29.7689  -15.1237 C   0  0  0  0  0  0  0  0  0  0  0  0
   -5.6777  -29.2333   -7.7691 O   0  0  0  0  0  0  0  0  0  0  0  0
   -2.8735  -30.1781   -7.4123 O   0  0  0  0  0  0  0  0  0  0  0  0
   -4.4796  -29.2737  -14.8967 O   0  0  0  0  0  0  0  0  0  0  0  0
   -6.1199  -28.0884   -9.6621 N   0  0  0  0  0  0  0  0  0  0  0  0
   -0.5910  -30.5999  -11.7688 C   0  0  0  0  0  0  0  0  0  0  0  0
   -1.7402  -30.3039   -9.5223 C   0  0  0  0  0  0  0  0  0  0  0  0
   -2.8302  -29.6951  -11.5378 C   0  0  0  0  0  0  0  0  0  0  0  0
   -0.6642  -30.9097  -15.3806 N   0  0  0  0  0  0  0  0  0  0  0  0
    1.7500  -31.3360  -11.3649 C   0  0  0  0  0  0  0  0  0  0  0  0
   -3.9070  -29.2356  -10.8311 C   0  0  0  0  0  0  0  0  0  0  0  0
    2.4636  -31.5664  -12.6711 C   0  0  0  0  0  0  0  0  0  0  0  0
   -4.0036  -29.3254   -9.4721 C   0  0  0  0  0  0  0  0  0  0  0  0
   -2.8761  -29.6489  -12.8440 N   0  0  0  0  0  0  0  0  0  0  0  0
   -2.2256  -30.6397  -17.2146 C   0  0  0  0  0  0  0  0  0  0  0  0
   -2.4508  -29.9589  -14.0264 C   0  0  0  0  0  0  0  0  0  0  0  0
   -0.4146  -30.6435  -13.0499 C   0  0  0  0  0  0  0  0  0  0  0  0
    2.4856  -31.1746  -10.1377 O   0  0  0  0  0  0  0  0  0  0  0  0
   -0.0849  -31.3850  -16.2479 N   0  0  0  0  0  0  0  0  0  0  0  0
   -0.9583  -31.1433  -17.2457 C   0  0  0  0  0  0  0  0  0  0  0  0
   -5.2674  -28.8308   -8.8351 C   0  0  0  0  0  0  0  0  0  0  0  0
   -0.5597  -31.4092  -18.4242 O   0  0  0  0  0  0  0  0  0  0  0  0
  1 11  1  0
  1 15  1  0
  2 14  1  0
  2 21  2  0
  2 22  1  0
  3 11  1  0
  3 12  1  0
  3 13  1  0
  4  6  1  0
  4 20  2  0
  5  8  1  0
  5 12  2  0
  5 18  1  0
  6  9  2  0
  6 21  1  0
  7 26  2  0
 10 26  1  0
 11 22  2  0
 13 16  1  0
 13 19  2  0
 14 24  1  0
 15 17  1  0
 15 23  2  0
 16 18  2  0
 18 26  1  0
 19 21  1  0
 20 25  1  0
 24 25  1  0
 25 27  2  0
M  END
>  <ID>  (1) 
conformer_0

$$$$
