
     RDKit          3D

 37 43  0  0  0  0  0  0  0  0999 V2000
    2.2262  -33.2785  -14.2604 C   0  0  0  0  0  0  0  0  0  0  0  0
   -2.8713  -29.7865  -10.8462 C   0  0  0  0  0  0  0  0  0  0  0  0
    6.4600  -32.3413  -12.9565 C   0  0  0  0  0  0  0  0  0  0  0  0
   -5.0111  -29.0409   -9.4760 C   0  0  0  0  0  0  0  0  0  0  0  0
   -1.6996  -31.3384  -17.3715 C   0  0  0  0  0  0  0  0  0  0  0  0
   -5.1708  -29.2401   -8.0931 C   0  0  0  0  0  0  0  0  0  0  0  0
   -1.5797  -30.5137  -15.0071 C   0  0  0  0  0  0  0  0  0  0  0  0
   -1.7038  -30.2829  -10.2289 C   0  0  0  0  0  0  0  0  0  0  0  0
   -0.1945  -30.9951  -15.1313 C   0  0  0  0  0  0  0  0  0  0  0  0
   -2.2741  -30.6462  -16.2495 C   0  0  0  0  0  0  0  0  0  0  0  0
   -1.2244  -30.3530  -12.5197 C   0  0  0  0  0  0  0  0  0  0  0  0
   -2.5844  -29.8159  -12.2706 C   0  0  0  0  0  0  0  0  0  0  0  0
   -3.6654  -30.4635  -16.2022 C   0  0  0  0  0  0  0  0  0  0  0  0
   -4.1563  -29.6426  -15.2474 N   0  0  0  0  0  0  0  0  0  0  0  0
    5.1639  -32.7623  -13.5859 C   0  0  0  0  0  0  0  0  0  0  0  0
    0.5298  -30.8732  -10.6833 N   0  0  0  0  0  0  0  0  0  0  0  0
    0.4741  -30.9988  -16.4129 C   0  0  0  0  0  0  0  0  0  0  0  0
   -3.1584  -29.9938   -8.5097 C   0  0  0  0  0  0  0  0  0  0  0  0
    7.0944  -31.9645  -10.6897 O   0  0  0  0  0  0  0  0  0  0  0  0
   -3.8165  -29.5194   -9.8223 C   0  0  0  0  0  0  0  0  0  0  0  0
   -3.5614  -29.4920  -14.0515 C   0  0  0  0  0  0  0  0  0  0  0  0
    2.8103  -32.0661  -13.4590 C   0  0  0  0  0  0  0  0  0  0  0  0
    4.7266  -32.2209  -11.2964 C   0  0  0  0  0  0  0  0  0  0  0  0
   -5.9687  -28.4023  -10.2675 C   0  0  0  0  0  0  0  0  0  0  0  0
    1.4895  -31.3503  -11.5191 C   0  0  0  0  0  0  0  0  0  0  0  0
    3.6280  -31.7641  -10.3597 C   0  0  0  0  0  0  0  0  0  0  0  0
    6.0962  -31.6274  -11.6302 C   0  0  0  0  0  0  0  0  0  0  0  0
   -4.0059  -29.1000  -12.9091 O   0  0  0  0  0  0  0  0  0  0  0  0
    1.7342  -31.1656  -12.9597 C   0  0  0  0  0  0  0  0  0  0  0  0
   -4.0094  -29.8042   -7.5380 C   0  0  0  0  0  0  0  0  0  0  0  0
   -0.9738  -30.8885   -8.0756 O   0  0  0  0  0  0  0  0  0  0  0  0
    4.0575  -32.3577  -12.6647 N   0  0  0  0  0  0  0  0  0  0  0  0
   -2.3086  -30.1101  -13.7860 N   0  0  0  0  0  0  0  0  0  0  0  0
   -1.9110  -30.4184   -8.8311 C   0  0  0  0  0  0  0  0  0  0  0  0
   -0.3298  -30.9511  -17.6316 C   0  0  0  0  0  0  0  0  0  0  0  0
   -0.6674  -30.5625  -11.1203 C   0  0  0  0  0  0  0  0  0  0  0  0
    2.3083  -32.3833  -10.8432 C   0  0  0  0  0  0  0  0  0  0  0  0
  1 22  1  0
  2  8  2  0
  2 12  1  0
  2 20  1  0
  3 15  1  0
  3 27  1  0
  4  6  1  0
  4 20  2  0
  4 24  1  0
  5 10  1  0
  5 35  1  0
  6 30  1  0
  7  9  1  0
  7 10  2  0
  7 33  1  0
  8 34  1  0
  8 36  1  0
  9 17  1  0
 10 13  1  0
 11 12  1  0
 11 36  1  0
 12 33  1  0
 13 14  1  0
 14 21  1  0
 15 32  1  0
 16 25  1  0
 16 36  2  3
 17 35  1  0
 18 20  1  0
 18 30  1  0
 18 34  2  0
 19 27  1  0
 21 28  2  0
 21 33  1  0
 22 29  1  0
 22 32  1  0
 23 26  1  0
 23 27  1  0
 23 32  1  0
 25 29  1  0
 25 37  1  0
 26 37  1  0
 31 34  1  0
M  END
>  <ID>  (1) 
conformer_0

$$$$
