
     RDKit          3D

 42 48  0  0  0  0  0  0  0  0999 V2000
   -6.8386  -27.3566   -9.4641 C   0  0  0  0  0  0  0  0  0  0  0  0
    1.0544  -30.8996  -14.2995 C   0  0  0  0  0  0  0  0  0  0  0  0
    1.1304  -32.0061  -11.9143 C   0  0  0  0  0  0  0  0  0  0  0  0
   -4.9050  -30.5213   -7.0837 C   0  0  0  0  0  0  0  0  0  0  0  0
   -1.1041  -28.6816   -5.8144 C   0  0  0  0  0  0  0  0  0  0  0  0
    5.6621  -31.7158  -10.0138 C   0  0  0  0  0  0  0  0  0  0  0  0
   -4.9721  -28.5591   -8.5215 N   0  0  0  0  0  0  0  0  0  0  0  0
   -3.2241  -29.7839  -14.9817 C   0  0  0  0  0  0  0  0  0  0  0  0
   -0.3694  -31.7054  -16.0682 C   0  0  0  0  0  0  0  0  0  0  0  0
   -2.8325  -30.7421  -15.9802 C   0  0  0  0  0  0  0  0  0  0  0  0
   -2.0687  -30.5041  -17.1882 C   0  0  0  0  0  0  0  0  0  0  0  0
   -0.8779  -30.8332  -12.6182 C   0  0  0  0  0  0  0  0  0  0  0  0
   -2.6413  -29.9100  -11.1719 C   0  0  0  0  0  0  0  0  0  0  0  0
   -1.8294  -28.8422   -8.1744 C   0  0  0  0  0  0  0  0  0  0  0  0
    4.3776  -31.4202   -9.2255 C   0  0  0  0  0  0  0  0  0  0  0  0
    5.7450  -33.0650  -10.7393 C   0  0  0  0  0  0  0  0  0  0  0  0
    3.4062  -32.5285  -11.0764 C   0  0  0  0  0  0  0  0  0  0  0  0
   -1.3101  -30.4188  -11.3264 C   0  0  0  0  0  0  0  0  0  0  0  0
   -4.1462  -28.5990  -12.5745 F   0  0  0  0  0  0  0  0  0  0  0  0
    2.4571  -32.6040  -12.1057 C   0  0  0  0  0  0  0  0  0  0  0  0
   -0.3810  -30.6294  -14.9910 C   0  0  0  0  0  0  0  0  0  0  0  0
   -2.0743  -28.2837   -6.8567 C   0  0  0  0  0  0  0  0  0  0  0  0
   -1.3402  -30.7402  -13.8718 C   0  0  0  0  0  0  0  0  0  0  0  0
   -2.5529  -30.0200  -13.6695 C   0  0  0  0  0  0  0  0  0  0  0  0
   -0.8381  -31.2554  -17.3642 C   0  0  0  0  0  0  0  0  0  0  0  0
   -6.2254  -27.9156   -8.2110 C   0  0  0  0  0  0  0  0  0  0  0  0
    4.3195  -33.6192  -10.7277 C   0  0  0  0  0  0  0  0  0  0  0  0
   -3.2199  -29.5867  -12.4728 C   0  0  0  0  0  0  0  0  0  0  0  0
   -1.6793  -28.3243   -4.5212 C   0  0  0  0  0  0  0  0  0  0  0  0
    3.1847  -31.5540  -10.0350 C   0  0  0  0  0  0  0  0  0  0  0  0
   -0.3197  -31.3762  -18.4706 O   0  0  0  0  0  0  0  0  0  0  0  0
   -2.9313  -29.6937   -8.5727 C   0  0  0  0  0  0  0  0  0  0  0  0
   -3.3732  -29.6254   -9.9622 C   0  0  0  0  0  0  0  0  0  0  0  0
   -4.0887  -29.2939   -7.6339 C   0  0  0  0  0  0  0  0  0  0  0  0
    5.3623  -32.1980   -8.6178 C   0  0  0  0  0  0  0  0  0  0  0  0
    0.6025  -32.0867  -13.3150 C   0  0  0  0  0  0  0  0  0  0  0  0
   -4.3231  -29.1922  -15.1294 O   0  0  0  0  0  0  0  0  0  0  0  0
   -4.7555  -29.0508   -9.9293 C   0  0  0  0  0  0  0  0  0  0  0  0
   -3.5153  -28.5398   -6.4638 C   0  0  0  0  0  0  0  0  0  0  0  0
    1.9150  -31.0506   -9.8499 N   0  0  0  0  0  0  0  0  0  0  0  0
   -0.3226  -30.5377  -10.3907 N   0  0  0  0  0  0  0  0  0  0  0  0
    0.8990  -31.1270  -10.7659 C   0  0  0  0  0  0  0  0  0  0  0  0
  1 26  1  0
  2 21  1  0
  2 36  1  0
  3 20  2  0
  3 36  1  0
  3 42  1  0
  4 34  1  0
  5 22  1  0
  5 29  1  0
  6 16  1  0
  6 35  1  0
  7 26  1  0
  7 34  1  0
  7 38  1  0
  8 10  1  0
  8 24  1  0
  8 37  2  0
  9 21  1  0
  9 25  1  0
 10 11  1  0
 11 25  1  0
 12 18  2  0
 12 23  1  0
 13 18  1  0
 13 28  1  0
 13 33  2  3
 14 22  1  0
 14 32  1  0
 15 30  1  0
 15 35  1  0
 16 27  1  0
 17 20  1  0
 17 27  1  0
 17 30  1  0
 18 41  1  0
 19 28  1  0
 21 23  1  0
 22 39  1  0
 23 24  1  0
 24 28  1  0
 25 31  2  0
 30 40  1  0
 32 33  1  0
 32 34  1  0
 33 38  1  0
 34 39  1  0
 40 42  2  0
 41 42  1  0
M  END
>  <ID>  (1) 
conformer_0

$$$$
