
     RDKit          3D

 30 35  0  0  0  0  0  0  0  0999 V2000
   -2.8172  -29.9952  -16.3732 N   0  0  0  0  0  0  0  0  0  0  0  0
    4.4452  -30.8490  -14.2123 C   0  0  0  0  0  0  0  0  0  0  0  0
    1.0325  -30.7810  -12.6315 O   0  0  0  0  0  0  0  0  0  0  0  0
   -4.4185  -29.3909  -14.7882 O   0  0  0  0  0  0  0  0  0  0  0  0
   -2.5779  -30.5994   -6.9332 Cl  0  0  0  0  0  0  0  0  0  0  0  0
   -1.0794  -30.5153  -18.0029 C   0  0  0  0  0  0  0  0  0  0  0  0
    3.4396  -31.2199  -13.0932 C   0  0  0  0  0  0  0  0  0  0  0  0
   -0.9612  -30.4000  -14.3324 C   0  0  0  0  0  0  0  0  0  0  0  0
    2.7185  -32.4085  -15.2991 C   0  0  0  0  0  0  0  0  0  0  0  0
   -1.5050  -30.3861  -16.6853 C   0  0  0  0  0  0  0  0  0  0  0  0
   -3.7772  -29.4399  -10.5874 C   0  0  0  0  0  0  0  0  0  0  0  0
    1.5395  -31.5988  -14.7711 C   0  0  0  0  0  0  0  0  0  0  0  0
    0.2031  -30.9854  -18.2710 C   0  0  0  0  0  0  0  0  0  0  0  0
   -0.7318  -30.2896  -10.8955 F   0  0  0  0  0  0  0  0  0  0  0  0
   -3.2597  -29.7430  -15.0780 C   0  0  0  0  0  0  0  0  0  0  0  0
   -1.1558  -30.2014  -12.0837 C   0  0  0  0  0  0  0  0  0  0  0  0
   -3.5301  -29.6020  -11.9722 N   0  0  0  0  0  0  0  0  0  0  0  0
   -4.5785  -29.0932   -7.9099 C   0  0  0  0  0  0  0  0  0  0  0  0
    1.0440  -31.3451  -17.2437 C   0  0  0  0  0  0  0  0  0  0  0  0
   -3.4259  -29.8065   -8.2099 C   0  0  0  0  0  0  0  0  0  0  0  0
    3.8881  -31.3714  -15.5266 C   0  0  0  0  0  0  0  0  0  0  0  0
   -0.2405  -30.5027  -13.1091 C   0  0  0  0  0  0  0  0  0  0  0  0
   -2.4141  -29.8818  -12.6430 C   0  0  0  0  0  0  0  0  0  0  0  0
    0.6759  -31.1931  -15.9175 C   0  0  0  0  0  0  0  0  0  0  0  0
   -4.9832  -28.7730  -10.2634 C   0  0  0  0  0  0  0  0  0  0  0  0
   -5.3452  -28.5837   -8.9510 C   0  0  0  0  0  0  0  0  0  0  0  0
    2.0245  -31.0048  -13.5279 C   0  0  0  0  0  0  0  0  0  0  0  0
   -2.2874  -29.9818  -14.0714 C   0  0  0  0  0  0  0  0  0  0  0  0
   -0.5970  -30.6580  -15.6580 C   0  0  0  0  0  0  0  0  0  0  0  0
   -2.9808  -29.9172   -9.5220 C   0  0  0  0  0  0  0  0  0  0  0  0
  1 10  2  0
  1 15  1  0
  2  7  1  0
  2 21  1  0
  3 22  1  0
  3 27  1  0
  4 15  2  0
  5 20  1  0
  6 10  1  0
  6 13  2  0
  7 27  1  0
  8 22  2  0
  8 28  1  0
  8 29  1  0
  9 12  1  0
  9 21  1  0
 10 29  1  0
 11 17  1  0
 11 25  1  0
 11 30  1  0
 12 24  1  0
 12 27  1  0
 13 19  1  0
 14 16  1  0
 15 28  1  0
 16 22  1  0
 16 23  2  0
 17 23  1  0
 18 20  1  0
 18 26  1  0
 19 24  2  0
 20 30  2  0
 23 28  1  0
 24 29  1  0
 25 26  2  0
M  END
>  <ID>  (1) 
conformer_0

$$$$
