
     RDKit          3D

 39 46  0  0  0  0  0  0  0  0999 V2000
   -0.6496  -29.1017   -7.5337 N   0  0  0  0  0  0  0  0  0  0  0  0
   -0.1889  -30.8674  -14.8504 C   0  0  0  0  0  0  0  0  0  0  0  0
   -4.3052  -28.1368   -7.1111 N   0  0  0  0  0  0  0  0  0  0  0  0
    0.1687  -26.9951   -6.5144 C   0  0  0  0  0  0  0  0  0  0  0  0
   -1.3742  -26.6021   -6.5164 C   0  0  0  0  0  0  0  0  0  0  0  0
    1.1093  -31.1248  -11.1199 C   0  0  0  0  0  0  0  0  0  0  0  0
   -1.0468  -28.5782   -5.0205 C   0  0  0  0  0  0  0  0  0  0  0  0
   -4.3004  -29.2717  -10.5915 C   0  0  0  0  0  0  0  0  0  0  0  0
    2.1945  -32.1614  -14.4831 C   0  0  0  0  0  0  0  0  0  0  0  0
   -3.4952  -29.7578  -13.9904 C   0  0  0  0  0  0  0  0  0  0  0  0
    1.6769  -32.0044  -15.7558 C   0  0  0  0  0  0  0  0  0  0  0  0
    0.3601  -31.8236  -18.2235 O   0  0  0  0  0  0  0  0  0  0  0  0
   -1.8851  -31.0715   -7.4753 O   0  0  0  0  0  0  0  0  0  0  0  0
   -3.4329  -28.3983   -5.9734 C   0  0  0  0  0  0  0  0  0  0  0  0
   -2.1254  -27.6549   -5.6796 C   0  0  0  0  0  0  0  0  0  0  0  0
    1.9727  -31.8347  -12.0694 O   0  0  0  0  0  0  0  0  0  0  0  0
    0.3620  -30.9921  -13.5956 C   0  0  0  0  0  0  0  0  0  0  0  0
   -0.0718  -31.1705  -17.2850 C   0  0  0  0  0  0  0  0  0  0  0  0
    1.4806  -32.5031  -10.9545 C   0  0  0  0  0  0  0  0  0  0  0  0
   -1.5063  -30.3176  -15.0238 C   0  0  0  0  0  0  0  0  0  0  0  0
   -2.0291  -30.2284  -16.3116 C   0  0  0  0  0  0  0  0  0  0  0  0
   -3.3442  -29.7324  -11.5596 C   0  0  0  0  0  0  0  0  0  0  0  0
   -1.3522  -30.2142   -8.3729 C   0  0  0  0  0  0  0  0  0  0  0  0
    0.4769  -31.3347  -15.9330 C   0  0  0  0  0  0  0  0  0  0  0  0
   -0.4479  -30.9646  -10.6211 C   0  0  0  0  0  0  0  0  0  0  0  0
   -6.8911  -28.1078   -7.6370 C   0  0  0  0  0  0  0  0  0  0  0  0
    0.0413  -28.5874   -6.2194 C   0  0  0  0  0  0  0  0  0  0  0  0
   -0.1624  -30.7768   -9.0997 C   0  0  0  0  0  0  0  0  0  0  0  0
   -4.1195  -29.7709  -15.2273 N   0  0  0  0  0  0  0  0  0  0  0  0
   -4.1477  -29.5847  -12.8069 N   0  0  0  0  0  0  0  0  0  0  0  0
    1.4844  -31.6561  -13.3567 C   0  0  0  0  0  0  0  0  0  0  0  0
   -1.2220  -30.3923  -17.4299 O   0  0  0  0  0  0  0  0  0  0  0  0
   -2.2178  -29.9611  -13.9557 C   0  0  0  0  0  0  0  0  0  0  0  0
   -4.6292  -28.7372   -8.3174 C   0  0  0  0  0  0  0  0  0  0  0  0
   -6.0065  -28.5237   -8.7346 O   0  0  0  0  0  0  0  0  0  0  0  0
   -3.3830  -29.9676  -16.3383 C   0  0  0  0  0  0  0  0  0  0  0  0
   -2.0717  -30.2648  -10.7609 C   0  0  0  0  0  0  0  0  0  0  0  0
   -3.7566  -29.2960   -9.3281 N   0  0  0  0  0  0  0  0  0  0  0  0
   -2.4189  -29.8600   -9.3882 N   0  0  0  0  0  0  0  0  0  0  0  0
  1 23  1  0
  1 27  1  0
  2 17  2  0
  2 20  1  0
  2 24  1  0
  3 14  1  0
  3 34  2  0
  4  5  1  0
  4 27  1  0
  5 15  1  0
  6 19  1  0
  6 25  1  0
  7 15  1  0
  7 27  1  0
  8 22  1  0
  8 38  1  0
  9 11  1  0
  9 31  2  0
 10 29  1  0
 10 30  1  0
 10 33  2  0
 11 24  2  0
 12 18  2  0
 13 23  1  0
 14 15  1  0
 16 19  1  0
 16 31  1  0
 17 31  1  0
 18 24  1  0
 18 32  1  0
 20 21  2  0
 20 33  1  0
 21 32  1  0
 21 36  1  0
 22 30  1  0
 22 37  2  0
 23 28  1  0
 23 39  1  0
 25 28  1  0
 25 37  1  0
 26 35  1  0
 29 36  2  0
 34 35  1  0
 34 38  1  0
 37 39  1  0
 38 39  1  0
M  END
>  <ID>  (1) 
conformer_0

$$$$
