
     RDKit          3D

 36 40  0  0  0  0  0  0  0  0999 V2000
   -4.4736  -29.4501  -13.5132 N   0  0  0  0  0  0  0  0  0  0  0  0
   -2.3502  -29.8700   -8.6817 C   0  0  0  0  0  0  0  0  0  0  0  0
   -0.2479  -30.7639  -13.3850 C   0  0  0  0  0  0  0  0  0  0  0  0
   -2.4715  -29.7527  -12.3878 C   0  0  0  0  0  0  0  0  0  0  0  0
   -1.3048  -30.6409  -15.5064 C   0  0  0  0  0  0  0  0  0  0  0  0
   -5.6528  -29.0700   -7.0699 C   0  0  0  0  0  0  0  0  0  0  0  0
   -2.0286  -29.8178  -10.0008 C   0  0  0  0  0  0  0  0  0  0  0  0
   -4.3265  -29.0667  -15.9860 O   0  0  0  0  0  0  0  0  0  0  0  0
   -2.5000  -30.1095  -14.8212 N   0  0  0  0  0  0  0  0  0  0  0  0
    1.0875  -31.4678   -8.8173 C   0  0  0  0  0  0  0  0  0  0  0  0
   -4.3572  -30.2887   -4.5915 C   0  0  0  0  0  0  0  0  0  0  0  0
    1.0881  -31.4824  -15.2783 C   0  0  0  0  0  0  0  0  0  0  0  0
   -1.3925  -30.7883  -16.8539 C   0  0  0  0  0  0  0  0  0  0  0  0
    1.8454  -31.9751  -13.0106 C   0  0  0  0  0  0  0  0  0  0  0  0
   -5.7732  -28.7781   -8.5948 O   0  0  0  0  0  0  0  0  0  0  0  0
   -0.5433  -31.1499  -17.8020 C   0  0  0  0  0  0  0  0  0  0  0  0
   -1.2179  -30.1239  -12.7002 N   0  0  0  0  0  0  0  0  0  0  0  0
   -4.2074  -29.5638   -6.9052 C   0  0  0  0  0  0  0  0  0  0  0  0
   -3.6311  -29.5362   -8.2455 C   0  0  0  0  0  0  0  0  0  0  0  0
    0.7437  -31.5041  -17.7680 N   0  0  0  0  0  0  0  0  0  0  0  0
    2.1090  -32.0561  -14.3834 C   0  0  0  0  0  0  0  0  0  0  0  0
   -2.9203  -29.5582  -11.0306 C   0  0  0  0  0  0  0  0  0  0  0  0
    0.5688  -31.1733  -11.1678 C   0  0  0  0  0  0  0  0  0  0  0  0
   -3.6692  -30.3472   -5.9318 O   0  0  0  0  0  0  0  0  0  0  0  0
   -3.2184  -29.7443  -13.5807 C   0  0  0  0  0  0  0  0  0  0  0  0
    1.5229  -31.5618  -16.6677 C   0  0  0  0  0  0  0  0  0  0  0  0
   -0.1297  -30.9843  -14.7957 C   0  0  0  0  0  0  0  0  0  0  0  0
    1.3861  -31.7141  -10.2661 C   0  0  0  0  0  0  0  0  0  0  0  0
    0.7576  -31.3215  -12.5077 C   0  0  0  0  0  0  0  0  0  0  0  0
    2.4715  -32.4385  -10.6949 C   0  0  0  0  0  0  0  0  0  0  0  0
   -6.4098  -27.6017   -9.0764 C   0  0  0  0  0  0  0  0  0  0  0  0
    2.7200  -32.5624  -12.0670 C   0  0  0  0  0  0  0  0  0  0  0  0
   -3.4182  -29.7954  -15.8125 C   0  0  0  0  0  0  0  0  0  0  0  0
    3.2477  -31.7873  -17.0125 S   0  0  0  0  0  0  0  0  0  0  0  0
   -4.1630  -29.1234  -10.5537 N   0  0  0  0  0  0  0  0  0  0  0  0
   -4.5446  -29.1120   -9.1925 C   0  0  0  0  0  0  0  0  0  0  0  0
  1 25  2  0
  2  7  2  0
  2 19  1  0
  3 17  1  0
  3 27  2  0
  3 29  1  0
  4 17  1  0
  4 22  2  3
  4 25  1  0
  5  9  1  0
  5 13  1  0
  5 27  1  0
  6 18  1  0
  7 22  1  0
  8 33  2  0
  9 25  1  0
  9 33  1  0
 10 28  1  0
 11 24  1  0
 12 21  2  0
 12 26  1  0
 12 27  1  0
 13 16  2  0
 14 21  1  0
 14 29  2  0
 14 32  1  0
 15 31  1  0
 15 36  1  0
 16 20  1  0
 18 19  1  0
 18 24  1  0
 19 36  2  0
 20 26  1  0
 22 35  1  0
 23 28  2  0
 23 29  1  0
 26 34  2  0
 28 30  1  0
 30 32  2  0
 35 36  1  0
M  END
>  <ID>  (1) 
conformer_0

$$$$
