
     RDKit          3D

 32 38  0  0  0  0  0  0  0  0999 V2000
   -2.4507  -30.3028  -16.1909 C   0  0  0  0  0  0  0  0  0  0  0  0
   -3.7383  -30.3533   -5.1061 Cl  0  0  0  0  0  0  0  0  0  0  0  0
   -1.0110  -31.2147  -17.9507 C   0  0  0  0  0  0  0  0  0  0  0  0
   -1.8792  -30.0272  -14.1362 N   0  0  0  0  0  0  0  0  0  0  0  0
   -2.3406  -29.9835   -9.4628 C   0  0  0  0  0  0  0  0  0  0  0  0
   -2.2926  -29.8701  -11.8120 C   0  0  0  0  0  0  0  0  0  0  0  0
   -5.5028  -28.5383  -10.5017 N   0  0  0  0  0  0  0  0  0  0  0  0
   -4.4992  -29.1141   -8.4877 C   0  0  0  0  0  0  0  0  0  0  0  0
    3.2979  -32.4583  -10.0640 C   0  0  0  0  0  0  0  0  0  0  0  0
   -3.5753  -29.3956  -11.8282 C   0  0  0  0  0  0  0  0  0  0  0  0
   -5.6420  -28.5073   -9.0686 N   0  0  0  0  0  0  0  0  0  0  0  0
   -0.0767  -30.7250  -15.7882 C   0  0  0  0  0  0  0  0  0  0  0  0
    3.6089  -31.8041  -11.4528 C   0  0  0  0  0  0  0  0  0  0  0  0
    0.0475  -31.2419  -17.0678 N   0  0  0  0  0  0  0  0  0  0  0  0
   -1.2906  -30.4623  -15.3271 C   0  0  0  0  0  0  0  0  0  0  0  0
   -3.6327  -29.4374   -9.4749 C   0  0  0  0  0  0  0  0  0  0  0  0
   -4.4459  -29.3457   -7.1807 C   0  0  0  0  0  0  0  0  0  0  0  0
   -1.8154  -30.3509   -8.2417 C   0  0  0  0  0  0  0  0  0  0  0  0
   -0.2389  -30.6458  -11.0464 C   0  0  0  0  0  0  0  0  0  0  0  0
   -1.4339  -30.1272  -12.9063 C   0  0  0  0  0  0  0  0  0  0  0  0
    1.3047  -31.2429  -10.9165 N   0  0  0  0  0  0  0  0  0  0  0  0
   -3.0294  -29.8045  -14.6528 C   0  0  0  0  0  0  0  0  0  0  0  0
   -4.2156  -29.5762  -14.5213 O   0  0  0  0  0  0  0  0  0  0  0  0
   -0.2331  -30.5226  -12.4025 N   0  0  0  0  0  0  0  0  0  0  0  0
   -4.2755  -29.1037  -10.7149 C   0  0  0  0  0  0  0  0  0  0  0  0
    1.7778  -32.1419   -9.8354 C   0  0  0  0  0  0  0  0  0  0  0  0
    3.3944  -33.8512  -10.3273 O   0  0  0  0  0  0  0  0  0  0  0  0
   -2.2753  -30.3929   -7.0494 C   0  0  0  0  0  0  0  0  0  0  0  0
    2.2082  -31.6774  -12.0770 C   0  0  0  0  0  0  0  0  0  0  0  0
   -3.4589  -30.0255   -6.4868 C   0  0  0  0  0  0  0  0  0  0  0  0
   -1.5996  -30.1720  -10.6207 C   0  0  0  0  0  0  0  0  0  0  0  0
   -2.2237  -30.7531  -17.5175 C   0  0  0  0  0  0  0  0  0  0  0  0
  1 15  1  0
  1 22  1  0
  1 32  2  0
  2 30  1  0
  3 14  2  0
  3 32  1  0
  4 15  1  0
  4 20  1  0
  4 22  1  0
  5 16  2  0
  5 18  1  0
  5 31  1  0
  6 10  1  0
  6 20  2  0
  6 31  1  0
  7 11  1  0
  7 25  1  0
  8 11  1  0
  8 16  1  0
  8 17  2  0
  9 13  1  0
  9 26  1  0
  9 27  1  0
 10 25  2  0
 12 14  1  0
 12 15  2  0
 13 29  1  0
 16 25  1  0
 17 30  1  0
 18 28  2  0
 19 21  1  0
 19 24  1  0
 19 31  2  0
 20 24  1  0
 21 26  1  0
 21 29  1  0
 22 23  2  0
 28 30  1  0
M  END
>  <ID>  (1) 
conformer_0

$$$$
