
     RDKit          3D

 44 50  0  0  0  0  0  0  0  0999 V2000
   -2.4945  -30.4988   -8.2115 C   0  0  0  0  0  0  0  0  0  0  0  0
    1.6965  -31.6418  -14.1217 C   0  0  0  0  0  0  0  0  0  0  0  0
   -3.7937  -29.3524   -6.3839 C   0  0  0  0  0  0  0  0  0  0  0  0
    3.2743  -29.9535   -8.7392 O   0  0  0  0  0  0  0  0  0  0  0  0
   -2.7686  -30.5680  -16.5016 O   0  0  0  0  0  0  0  0  0  0  0  0
    2.7737  -33.3391   -9.5935 O   0  0  0  0  0  0  0  0  0  0  0  0
   -3.9714  -30.4994   -5.6682 O   0  0  0  0  0  0  0  0  0  0  0  0
   -4.3571  -28.1138   -5.8459 C   0  0  0  0  0  0  0  0  0  0  0  0
   -6.1316  -27.4088   -9.1813 C   0  0  0  0  0  0  0  0  0  0  0  0
   -0.9367  -30.6356  -15.1043 C   0  0  0  0  0  0  0  0  0  0  0  0
    5.3730  -31.0118  -10.8034 C   0  0  0  0  0  0  0  0  0  0  0  0
    1.3825  -31.5358  -15.5951 C   0  0  0  0  0  0  0  0  0  0  0  0
   -3.3564  -29.4048   -7.7808 C   0  0  0  0  0  0  0  0  0  0  0  0
   -2.3567  -29.8397  -10.8046 C   0  0  0  0  0  0  0  0  0  0  0  0
    3.8537  -30.6161  -14.1815 O   0  0  0  0  0  0  0  0  0  0  0  0
   -5.1667  -27.3345   -6.8716 C   0  0  0  0  0  0  0  0  0  0  0  0
   -5.7338  -28.1485  -10.4442 C   0  0  0  0  0  0  0  0  0  0  0  0
   -0.4290  -30.5689  -13.7995 C   0  0  0  0  0  0  0  0  0  0  0  0
   -2.6536  -29.9189  -13.5017 C   0  0  0  0  0  0  0  0  0  0  0  0
    5.4675  -33.2934  -10.6114 C   0  0  0  0  0  0  0  0  0  0  0  0
   -1.2193  -30.6883   -7.6126 C   0  0  0  0  0  0  0  0  0  0  0  0
   -3.5659  -29.3774  -11.2137 C   0  0  0  0  0  0  0  0  0  0  0  0
    1.6170  -31.2913   -6.8574 O   0  0  0  0  0  0  0  0  0  0  0  0
    6.0681  -30.7260  -11.9581 O   0  0  0  0  0  0  0  0  0  0  0  0
   -1.4721  -30.2324  -12.9100 C   0  0  0  0  0  0  0  0  0  0  0  0
    1.2299  -31.0932   -8.0348 C   0  0  0  0  0  0  0  0  0  0  0  0
   -4.5037  -28.8316  -10.2403 N   0  0  0  0  0  0  0  0  0  0  0  0
    4.3907  -32.1810  -10.9992 C   0  0  0  0  0  0  0  0  0  0  0  0
   -0.0038  -30.5652   -8.3589 N   0  0  0  0  0  0  0  0  0  0  0  0
    6.8126  -32.6709  -10.4835 O   0  0  0  0  0  0  0  0  0  0  0  0
   -2.3843  -30.2469  -15.1065 N   0  0  0  0  0  0  0  0  0  0  0  0
    0.8070  -30.8129  -13.3458 C   0  0  0  0  0  0  0  0  0  0  0  0
    3.1320  -32.0123  -10.0046 C   0  0  0  0  0  0  0  0  0  0  0  0
    3.6037  -32.0986  -12.3736 N   0  0  0  0  0  0  0  0  0  0  0  0
    2.3047  -30.9808   -9.1420 C   0  0  0  0  0  0  0  0  0  0  0  0
   -5.1881  -27.9150   -8.1966 N   0  0  0  0  0  0  0  0  0  0  0  0
   -0.3284  -31.0327  -17.4733 C   0  0  0  0  0  0  0  0  0  0  0  0
    3.1185  -31.5156  -13.5661 C   0  0  0  0  0  0  0  0  0  0  0  0
   -1.8120  -30.8649  -17.6331 C   0  0  0  0  0  0  0  0  0  0  0  0
   -0.0494  -31.3694  -16.0488 C   0  0  0  0  0  0  0  0  0  0  0  0
   -4.2183  -28.7457   -8.8013 C   0  0  0  0  0  0  0  0  0  0  0  0
   -1.1004  -31.1273   -6.2064 C   0  0  0  0  0  0  0  0  0  0  0  0
   -3.7397  -29.4516  -12.5958 N   0  0  0  0  0  0  0  0  0  0  0  0
   -1.3675  -30.2167  -11.5756 C   0  0  0  0  0  0  0  0  0  0  0  0
  1 13  1  0
  1 21  1  0
  2 12  1  0
  2 32  1  0
  2 38  1  0
  3  7  1  0
  3  8  1  0
  3 13  1  0
  4 35  1  0
  5 31  1  0
  5 39  1  0
  6 33  1  0
  8 16  1  0
  9 17  1  0
  9 36  1  0
 10 18  1  0
 10 31  1  0
 10 40  1  0
 11 24  1  0
 11 28  1  0
 12 40  1  0
 13 41  1  0
 14 22  2  0
 14 44  1  0
 15 38  2  0
 16 36  1  0
 17 27  1  0
 18 25  1  0
 18 32  1  0
 19 25  1  0
 19 31  1  0
 19 43  2  0
 20 28  1  0
 20 30  1  0
 21 29  1  0
 21 42  1  0
 22 27  1  0
 22 43  1  0
 23 26  2  0
 25 44  2  0
 26 29  1  0
 26 35  1  0
 27 41  1  0
 28 33  1  0
 28 34  1  0
 33 35  1  0
 34 38  1  0
 36 41  1  0
 37 39  1  0
 37 40  1  0
M  END
>  <ID>  (1) 
conformer_0

$$$$
