
     RDKit          3D

 29 35  0  0  0  0  0  0  0  0999 V2000
    2.5419  -31.9538  -12.8272 C   0  0  0  0  0  0  0  0  0  0  0  0
   -1.8148  -30.0647  -12.2411 C   0  0  0  0  0  0  0  0  0  0  0  0
   -1.6319  -30.6220  -16.9033 C   0  0  0  0  0  0  0  0  0  0  0  0
    2.4292  -32.1264  -15.1861 N   0  0  0  0  0  0  0  0  0  0  0  0
   -3.7503  -29.4496   -9.7017 C   0  0  0  0  0  0  0  0  0  0  0  0
   -4.5390  -28.8719  -10.8395 C   0  0  0  0  0  0  0  0  0  0  0  0
   -3.0463  -29.5617  -12.6288 C   0  0  0  0  0  0  0  0  0  0  0  0
   -1.9317  -30.3249  -15.5193 N   0  0  0  0  0  0  0  0  0  0  0  0
   -2.3112  -31.9220  -17.3451 C   0  0  0  0  0  0  0  0  0  0  0  0
   -1.6025  -30.1136  -10.9209 O   0  0  0  0  0  0  0  0  0  0  0  0
   -3.1584  -29.8501  -15.0954 C   0  0  0  0  0  0  0  0  0  0  0  0
    1.3533  -31.4026  -13.4335 C   0  0  0  0  0  0  0  0  0  0  0  0
   -1.9324  -30.5507   -8.6565 C   0  0  0  0  0  0  0  0  0  0  0  0
    0.3510  -30.9954  -12.5547 C   0  0  0  0  0  0  0  0  0  0  0  0
   -3.4543  -29.5389  -13.8256 C   0  0  0  0  0  0  0  0  0  0  0  0
    1.3513  -31.4169  -14.8288 C   0  0  0  0  0  0  0  0  0  0  0  0
   -3.9045  -29.9792   -7.4169 C   0  0  0  0  0  0  0  0  0  0  0  0
    0.8125  -31.2682  -11.1637 C   0  0  0  0  0  0  0  0  0  0  0  0
   -3.9850  -29.0044  -11.9826 O   0  0  0  0  0  0  0  0  0  0  0  0
   -2.6371  -30.5410   -7.5225 C   0  0  0  0  0  0  0  0  0  0  0  0
   -4.0549  -29.7089  -15.9498 O   0  0  0  0  0  0  0  0  0  0  0  0
   -0.9029  -30.5217  -14.6179 C   0  0  0  0  0  0  0  0  0  0  0  0
   -0.1511  -30.8492  -16.8533 C   0  0  0  0  0  0  0  0  0  0  0  0
    2.1170  -32.1051  -11.3615 C   0  0  0  0  0  0  0  0  0  0  0  0
    3.2473  -32.4247  -14.0441 C   0  0  0  0  0  0  0  0  0  0  0  0
   -4.4673  -29.4128   -8.5203 C   0  0  0  0  0  0  0  0  0  0  0  0
    0.2277  -30.9216  -15.4640 C   0  0  0  0  0  0  0  0  0  0  0  0
   -2.4655  -30.0048   -9.8379 C   0  0  0  0  0  0  0  0  0  0  0  0
   -0.8524  -30.5058  -13.2004 C   0  0  0  0  0  0  0  0  0  0  0  0
  1 12  1  0
  1 24  1  0
  1 25  1  0
  2  7  1  0
  2 10  1  0
  2 29  2  0
  3  8  1  0
  3  9  1  0
  3 23  1  0
  4 16  1  0
  4 25  1  0
  5  6  1  0
  5 26  2  0
  5 28  1  0
  6 19  1  0
  7 15  2  0
  7 19  1  0
  8 11  1  0
  8 22  1  0
 10 28  1  0
 11 15  1  0
 11 21  2  0
 12 14  2  0
 12 16  1  0
 13 20  1  0
 13 28  2  0
 14 18  1  0
 14 29  1  0
 16 27  2  0
 17 20  2  0
 17 26  1  0
 18 24  1  0
 22 27  1  0
 22 29  1  0
 23 27  1  0
M  END
>  <ID>  (1) 
conformer_0

$$$$
