
     RDKit          3D

 36 44  0  0  0  0  0  0  0  0999 V2000
   -0.3931  -30.6955  -11.8746 C   0  0  0  0  0  0  0  0  0  0  0  0
   -2.1193  -30.2752  -15.7922 C   0  0  0  0  0  0  0  0  0  0  0  0
   -2.3805  -29.9951  -13.3706 C   0  0  0  0  0  0  0  0  0  0  0  0
    0.6926  -31.3731  -15.3177 C   0  0  0  0  0  0  0  0  0  0  0  0
   -5.4561  -28.5185  -10.3446 C   0  0  0  0  0  0  0  0  0  0  0  0
    1.6197  -31.5797  -12.7947 C   0  0  0  0  0  0  0  0  0  0  0  0
   -4.0469  -29.4560  -14.9321 C   0  0  0  0  0  0  0  0  0  0  0  0
   -0.1633  -30.9335  -14.2672 C   0  0  0  0  0  0  0  0  0  0  0  0
    0.4325  -31.4290  -16.7709 C   0  0  0  0  0  0  0  0  0  0  0  0
    1.0859  -31.2924  -10.2443 C   0  0  0  0  0  0  0  0  0  0  0  0
    2.6763  -31.1525   -8.4672 C   0  0  0  0  0  0  0  0  0  0  0  0
    0.3919  -30.8823   -9.0330 C   0  0  0  0  0  0  0  0  0  0  0  0
   -1.2755  -30.2972  -11.0454 C   0  0  0  0  0  0  0  0  0  0  0  0
   -1.6956  -30.5541  -17.3010 C   0  0  0  0  0  0  0  0  0  0  0  0
    0.6912  -30.7044   -6.7252 C   0  0  0  0  0  0  0  0  0  0  0  0
   -0.8741  -30.3576   -8.5406 C   0  0  0  0  0  0  0  0  0  0  0  0
   -3.3926  -29.4341  -11.0849 C   0  0  0  0  0  0  0  0  0  0  0  0
    0.3665  -31.0776  -12.9561 C   0  0  0  0  0  0  0  0  0  0  0  0
   -3.5654  -29.6176   -7.3701 N   0  0  0  0  0  0  0  0  0  0  0  0
    1.3782  -30.7208   -8.0553 N   0  0  0  0  0  0  0  0  0  0  0  0
   -2.7917  -30.9591   -5.6410 O   0  0  0  0  0  0  0  0  0  0  0  0
   -5.1200  -28.7429   -9.0164 C   0  0  0  0  0  0  0  0  0  0  0  0
   -3.0381  -29.6132   -9.7283 C   0  0  0  0  0  0  0  0  0  0  0  0
   -3.3674  -29.8094  -15.9256 N   0  0  0  0  0  0  0  0  0  0  0  0
   -2.4842  -30.2322   -6.6529 C   0  0  0  0  0  0  0  0  0  0  0  0
    1.9563  -31.8464  -15.0241 C   0  0  0  0  0  0  0  0  0  0  0  0
   -0.8855  -30.3560   -6.9375 C   0  0  0  0  0  0  0  0  0  0  0  0
   -4.5740  -28.8698  -11.3757 C   0  0  0  0  0  0  0  0  0  0  0  0
   -2.3783  -29.8928  -11.9326 N   0  0  0  0  0  0  0  0  0  0  0  0
   -1.7259  -30.1102   -9.6893 C   0  0  0  0  0  0  0  0  0  0  0  0
   -0.7364  -31.5650  -17.5485 C   0  0  0  0  0  0  0  0  0  0  0  0
   -1.5097  -30.4149  -14.4575 C   0  0  0  0  0  0  0  0  0  0  0  0
    2.4469  -31.9652  -13.7758 C   0  0  0  0  0  0  0  0  0  0  0  0
    2.4020  -31.8127   -9.7947 C   0  0  0  0  0  0  0  0  0  0  0  0
   -3.5953  -29.5529  -13.7811 N   0  0  0  0  0  0  0  0  0  0  0  0
   -3.8836  -29.3288   -8.6837 C   0  0  0  0  0  0  0  0  0  0  0  0
  1 13  2  0
  1 18  2  0
  2 14  1  0
  2 24  2  0
  2 32  1  0
  3 29  1  0
  3 32  2  0
  3 35  1  0
  4  8  2  0
  4  9  1  0
  4 26  1  0
  5 22  2  0
  5 28  1  0
  6 18  1  0
  6 33  1  0
  7 24  1  0
  7 35  2  0
  8 18  1  0
  8 32  1  0
  9 31  1  0
 10 12  1  0
 10 34  1  0
 11 20  1  0
 11 34  1  0
 12 16  1  0
 12 20  1  0
 13 29  1  0
 13 30  1  0
 14 31  1  0
 15 20  1  0
 15 27  1  0
 16 27  2  0
 16 30  1  0
 17 23  1  0
 17 28  2  0
 17 29  1  0
 19 25  1  0
 19 36  2  0
 21 25  2  0
 22 36  1  0
 23 30  2  0
 23 36  1  0
 25 27  1  0
 26 33  2  0
M  END
>  <ID>  (1) 
conformer_0

$$$$
