
     RDKit          3D

 41 48  0  0  0  0  0  0  0  0999 V2000
   -3.4908  -29.5841  -13.3902 C   0  0  0  0  0  0  0  0  0  0  0  0
   -0.8254  -30.6622  -15.6866 C   0  0  0  0  0  0  0  0  0  0  0  0
    0.3654  -31.3485   -9.7813 C   0  0  0  0  0  0  0  0  0  0  0  0
   -0.5979  -30.7692  -18.1006 C   0  0  0  0  0  0  0  0  0  0  0  0
   -5.4711  -28.7897   -4.4800 O   0  0  0  0  0  0  0  0  0  0  0  0
   -1.5998  -30.1075   -8.6965 N   0  0  0  0  0  0  0  0  0  0  0  0
    4.7562  -33.1512  -13.8521 O   0  0  0  0  0  0  0  0  0  0  0  0
    3.6816  -31.9363  -15.9645 C   0  0  0  0  0  0  0  0  0  0  0  0
   -2.4197  -29.7805  -11.2605 C   0  0  0  0  0  0  0  0  0  0  0  0
   -3.7638  -29.2886  -12.2026 C   0  0  0  0  0  0  0  0  0  0  0  0
   -4.2210  -29.0788  -10.9652 C   0  0  0  0  0  0  0  0  0  0  0  0
   -5.5584  -29.5306   -5.6788 C   0  0  0  0  0  0  0  0  0  0  0  0
   -5.2643  -28.8471   -8.1277 C   0  0  0  0  0  0  0  0  0  0  0  0
    3.1940  -31.5051  -10.3259 C   0  0  0  0  0  0  0  0  0  0  0  0
   -3.1066  -30.1070  -15.5068 N   0  0  0  0  0  0  0  0  0  0  0  0
    0.7813  -31.0901  -17.9704 C   0  0  0  0  0  0  0  0  0  0  0  0
   -4.0011  -29.6409  -14.6506 C   0  0  0  0  0  0  0  0  0  0  0  0
   -2.9688  -29.6512   -8.8014 C   0  0  0  0  0  0  0  0  0  0  0  0
    3.5298  -32.6098  -12.6022 N   0  0  0  0  0  0  0  0  0  0  0  0
   -6.2021  -28.6809   -6.8794 C   0  0  0  0  0  0  0  0  0  0  0  0
    1.3885  -31.2472   -8.6735 C   0  0  0  0  0  0  0  0  0  0  0  0
   -3.2220  -29.4681  -10.1651 C   0  0  0  0  0  0  0  0  0  0  0  0
    3.6768  -33.0588  -14.9123 C   0  0  0  0  0  0  0  0  0  0  0  0
   -2.7168  -30.3194  -16.8541 C   0  0  0  0  0  0  0  0  0  0  0  0
    0.4956  -30.9876  -15.5688 C   0  0  0  0  0  0  0  0  0  0  0  0
   -5.4240  -28.5482  -10.6281 N   0  0  0  0  0  0  0  0  0  0  0  0
   -4.0346  -29.4429   -7.7853 C   0  0  0  0  0  0  0  0  0  0  0  0
    2.6835  -31.8320   -8.9736 C   0  0  0  0  0  0  0  0  0  0  0  0
   -4.0619  -29.8693   -6.3047 C   0  0  0  0  0  0  0  0  0  0  0  0
    2.5485  -32.2457  -11.4510 C   0  0  0  0  0  0  0  0  0  0  0  0
   -1.1192  -30.1766   -7.3388 C   0  0  0  0  0  0  0  0  0  0  0  0
   -1.8555  -30.3529  -14.7822 C   0  0  0  0  0  0  0  0  0  0  0  0
   -6.5059  -30.7528   -5.2906 C   0  0  0  0  0  0  0  0  0  0  0  0
   -2.0781  -30.0316  -13.5030 C   0  0  0  0  0  0  0  0  0  0  0  0
   -0.7150  -30.3813   -9.7042 C   0  0  0  0  0  0  0  0  0  0  0  0
   -1.5513  -30.1441  -12.2819 C   0  0  0  0  0  0  0  0  0  0  0  0
    2.6099  -31.6932  -16.6872 O   0  0  0  0  0  0  0  0  0  0  0  0
   -5.7921  -28.4555   -9.3331 C   0  0  0  0  0  0  0  0  0  0  0  0
    2.6375  -32.7543  -13.8102 C   0  0  0  0  0  0  0  0  0  0  0  0
   -1.3425  -30.5952  -16.9552 C   0  0  0  0  0  0  0  0  0  0  0  0
    1.3066  -31.2614  -16.7009 C   0  0  0  0  0  0  0  0  0  0  0  0
  1 10  1  0
  1 17  1  0
  1 34  2  0
  2 25  1  0
  2 32  2  0
  2 40  1  0
  3 21  1  0
  3 35  1  0
  4 16  1  0
  4 40  2  0
  5 12  1  0
  6 18  1  0
  6 31  1  0
  6 35  1  0
  7 23  1  0
  8 23  1  0
  8 37  1  0
  9 10  2  0
  9 22  1  0
  9 36  1  0
 10 11  1  0
 11 22  2  0
 11 26  1  0
 12 20  1  0
 12 29  1  0
 12 33  1  0
 13 20  1  0
 13 27  2  0
 13 38  1  0
 14 28  1  0
 14 30  1  0
 15 17  1  0
 15 24  1  0
 15 32  1  0
 16 41  1  0
 18 22  1  0
 18 27  1  0
 19 30  1  0
 19 39  1  0
 21 28  1  0
 23 39  1  0
 24 40  1  0
 25 41  2  0
 26 38  2  0
 27 29  1  0
 32 34  1  0
 34 36  1  0
 37 41  1  0
M  END
>  <ID>  (1) 
conformer_0

$$$$
