
     RDKit          3D

 28 31  0  0  0  0  0  0  0  0999 V2000
    0.7799  -31.2149  -13.4394 C   0  0  0  0  0  0  0  0  0  0  0  0
    2.0154  -32.0002  -12.9608 C   0  0  0  0  0  0  0  0  0  0  0  0
   -1.7225  -31.0297  -17.5055 C   0  0  0  0  0  0  0  0  0  0  0  0
   -2.1951  -29.7814  -12.1283 O   0  0  0  0  0  0  0  0  0  0  0  0
   -2.8434  -29.7633   -8.5820 C   0  0  0  0  0  0  0  0  0  0  0  0
   -2.9640  -29.7983  -14.6804 C   0  0  0  0  0  0  0  0  0  0  0  0
   -0.6165  -30.3571  -16.7343 C   0  0  0  0  0  0  0  0  0  0  0  0
   -4.1293  -29.1988   -8.4988 C   0  0  0  0  0  0  0  0  0  0  0  0
   -1.5577  -30.1959  -14.3252 C   0  0  0  0  0  0  0  0  0  0  0  0
   -0.0761  -30.7318  -12.5412 N   0  0  0  0  0  0  0  0  0  0  0  0
    0.6037  -31.0640  -14.7481 N   0  0  0  0  0  0  0  0  0  0  0  0
   -0.7680  -31.7631   -8.6564 C   0  0  0  0  0  0  0  0  0  0  0  0
   -1.2232  -30.2420  -12.9701 C   0  0  0  0  0  0  0  0  0  0  0  0
    0.3385  -31.4067   -9.6407 C   0  0  0  0  0  0  0  0  0  0  0  0
   -2.3270  -29.9326   -9.8250 C   0  0  0  0  0  0  0  0  0  0  0  0
    0.8199  -30.4970   -7.5039 C   0  0  0  0  0  0  0  0  0  0  0  0
   -2.9717  -31.1833  -16.6894 C   0  0  0  0  0  0  0  0  0  0  0  0
   -4.7941  -28.8904   -9.6986 N   0  0  0  0  0  0  0  0  0  0  0  0
   -3.9983  -29.5494  -14.0205 O   0  0  0  0  0  0  0  0  0  0  0  0
    1.4763  -31.1561   -8.6943 C   0  0  0  0  0  0  0  0  0  0  0  0
   -4.7280  -28.9205   -7.2208 C   0  0  0  0  0  0  0  0  0  0  0  0
   -0.5399  -30.5551  -15.2389 C   0  0  0  0  0  0  0  0  0  0  0  0
   -4.1966  -29.0827  -10.8982 C   0  0  0  0  0  0  0  0  0  0  0  0
   -0.6357  -30.6631   -7.6443 N   0  0  0  0  0  0  0  0  0  0  0  0
   -2.0272  -30.1506   -7.2991 C   0  0  0  0  0  0  0  0  0  0  0  0
    0.6489  -30.7428  -17.5226 C   0  0  0  0  0  0  0  0  0  0  0  0
   -3.2383  -29.8628  -16.0167 N   0  0  0  0  0  0  0  0  0  0  0  0
   -2.8909  -29.6101  -10.9967 C   0  0  0  0  0  0  0  0  0  0  0  0
  1  2  1  0
  1 10  2  0
  1 11  1  0
  3  7  1  0
  3 17  1  0
  4 13  1  0
  4 28  1  0
  5  8  2  0
  5 15  1  0
  5 25  1  0
  6  9  1  0
  6 19  2  0
  6 27  1  0
  7 22  1  0
  7 26  1  0
  8 18  1  0
  8 21  1  0
  9 13  2  0
  9 22  1  0
 10 13  1  0
 11 22  2  0
 12 14  1  0
 12 24  1  0
 14 20  1  0
 15 28  2  0
 16 20  1  0
 16 24  1  0
 17 27  1  0
 18 23  2  0
 23 28  1  0
 24 25  1  0
M  END
>  <ID>  (1) 
conformer_0

$$$$
