
     RDKit          3D

 44 52  0  0  0  0  0  0  0  0999 V2000
   -2.0240  -30.0799   -9.3896 C   0  0  0  0  0  0  0  0  0  0  0  0
   -5.2411  -28.1978   -8.6371 C   0  0  0  0  0  0  0  0  0  0  0  0
    1.6452  -32.5074  -10.8569 C   0  0  0  0  0  0  0  0  0  0  0  0
    3.1173  -31.6652   -9.3234 C   0  0  0  0  0  0  0  0  0  0  0  0
    0.9850  -30.3680   -5.4375 C   0  0  0  0  0  0  0  0  0  0  0  0
   -5.6526  -27.6364   -7.4151 N   0  0  0  0  0  0  0  0  0  0  0  0
   -3.9147  -29.9712  -15.2731 O   0  0  0  0  0  0  0  0  0  0  0  0
   -6.2876  -27.6770   -9.6590 C   0  0  0  0  0  0  0  0  0  0  0  0
    1.4019  -31.7845   -9.3344 C   0  0  0  0  0  0  0  0  0  0  0  0
   -2.6814  -30.1435  -14.9670 C   0  0  0  0  0  0  0  0  0  0  0  0
   -5.0810  -26.6866   -5.3507 C   0  0  0  0  0  0  0  0  0  0  0  0
    1.9577  -30.4839   -6.6742 C   0  0  0  0  0  0  0  0  0  0  0  0
   -2.9856  -29.7659  -12.3962 C   0  0  0  0  0  0  0  0  0  0  0  0
   -0.1830  -30.4646   -7.8227 C   0  0  0  0  0  0  0  0  0  0  0  0
   -2.6851  -29.8401  -10.6720 C   0  0  0  0  0  0  0  0  0  0  0  0
   -0.9106  -30.8206   -8.9817 C   0  0  0  0  0  0  0  0  0  0  0  0
   -0.3144  -32.0425   -9.5177 C   0  0  0  0  0  0  0  0  0  0  0  0
   -7.2529  -26.2136   -6.3706 N   0  0  0  0  0  0  0  0  0  0  0  0
   -3.9832  -28.8604   -8.9585 C   0  0  0  0  0  0  0  0  0  0  0  0
   -1.0541  -31.0307  -18.1577 C   0  0  0  0  0  0  0  0  0  0  0  0
   -4.9422  -27.8595   -6.1983 C   0  0  0  0  0  0  0  0  0  0  0  0
   -2.1303  -30.6349  -17.3932 C   0  0  0  0  0  0  0  0  0  0  0  0
    3.9089  -30.4248   -8.7261 C   0  0  0  0  0  0  0  0  0  0  0  0
   -2.7310  -29.3778   -8.3831 C   0  0  0  0  0  0  0  0  0  0  0  0
    0.6350  -30.8021  -15.0559 C   0  0  0  0  0  0  0  0  0  0  0  0
    1.9939  -31.4999  -13.1595 C   0  0  0  0  0  0  0  0  0  0  0  0
    1.3105  -30.9570  -17.9062 C   0  0  0  0  0  0  0  0  0  0  0  0
   -0.2590  -29.4508   -5.5079 C   0  0  0  0  0  0  0  0  0  0  0  0
   -6.3583  -25.9987   -5.2935 C   0  0  0  0  0  0  0  0  0  0  0  0
   -4.2543  -29.2367  -12.5074 C   0  0  0  0  0  0  0  0  0  0  0  0
   -6.7357  -26.6791   -7.4786 C   0  0  0  0  0  0  0  0  0  0  0  0
    1.0843  -31.9413  -14.2862 C   0  0  0  0  0  0  0  0  0  0  0  0
   -0.8939  -29.7083   -6.8303 C   0  0  0  0  0  0  0  0  0  0  0  0
    3.9929  -32.7727   -9.7490 C   0  0  0  0  0  0  0  0  0  0  0  0
   -1.7325  -30.5375  -16.0452 C   0  0  0  0  0  0  0  0  0  0  0  0
   -2.1748  -29.2070   -7.1243 C   0  0  0  0  0  0  0  0  0  0  0  0
   -0.3850  -30.9088  -16.0097 C   0  0  0  0  0  0  0  0  0  0  0  0
    1.2229  -30.8996   -7.9519 C   0  0  0  0  0  0  0  0  0  0  0  0
   -3.9028  -29.1577  -10.3334 C   0  0  0  0  0  0  0  0  0  0  0  0
    0.0197  -31.1692  -17.3454 N   0  0  0  0  0  0  0  0  0  0  0  0
   -7.2208  -26.6307   -8.9152 C   0  0  0  0  0  0  0  0  0  0  0  0
   -4.7877  -28.8732  -11.3771 O   0  0  0  0  0  0  0  0  0  0  0  0
    1.2142  -31.4416  -11.8695 C   0  0  0  0  0  0  0  0  0  0  0  0
   -2.2845  -30.0417  -13.6262 N   0  0  0  0  0  0  0  0  0  0  0  0
  1 15  1  0
  1 16  1  0
  1 24  1  0
  2  6  1  0
  2  8  1  0
  2 19  1  0
  3  9  1  0
  3 43  1  0
  4  9  1  0
  4 23  1  0
  4 34  1  0
  5 12  1  0
  5 28  1  0
  6 21  1  0
  6 31  1  0
  7 10  2  0
  8 41  1  0
  9 17  1  0
  9 38  1  0
 10 35  1  0
 10 44  1  0
 11 21  1  0
 11 29  1  0
 12 38  1  0
 13 15  2  0
 13 30  1  0
 13 44  1  0
 14 16  1  0
 14 33  2  0
 14 38  1  0
 15 39  1  0
 16 17  1  0
 18 29  1  0
 18 31  2  0
 19 24  1  0
 19 39  2  0
 20 22  1  0
 20 40  1  0
 22 35  1  0
 24 36  2  0
 25 32  1  0
 25 37  1  0
 26 32  1  0
 26 43  1  0
 27 40  1  0
 28 33  1  0
 30 42  1  0
 31 41  1  0
 33 36  1  0
 35 37  1  0
 37 40  1  0
 39 42  1  0
M  END
>  <ID>  (1) 
conformer_0

$$$$
