
     RDKit          3D

 37 41  0  0  0  0  0  0  0  0999 V2000
    0.8674  -30.7793  -17.5569 C   0  0  0  0  0  0  0  0  0  0  0  0
   -1.3503  -30.2624  -10.7283 C   0  0  0  0  0  0  0  0  0  0  0  0
   -5.1573  -30.1592   -4.2055 C   0  0  0  0  0  0  0  0  0  0  0  0
   -0.8015  -30.5240  -13.0332 C   0  0  0  0  0  0  0  0  0  0  0  0
   -2.2367  -29.4226   -6.4386 C   0  0  0  0  0  0  0  0  0  0  0  0
   -3.4167  -29.3625  -10.1007 O   0  0  0  0  0  0  0  0  0  0  0  0
   -2.9048  -29.6124  -12.3369 C   0  0  0  0  0  0  0  0  0  0  0  0
    1.4158  -31.5051  -13.4910 C   0  0  0  0  0  0  0  0  0  0  0  0
   -1.3740  -31.4639  -17.3410 C   0  0  0  0  0  0  0  0  0  0  0  0
    2.1946  -32.6292  -14.1913 C   0  0  0  0  0  0  0  0  0  0  0  0
   -3.3744  -29.4142  -15.4427 C   0  0  0  0  0  0  0  0  0  0  0  0
   -4.5356  -29.0931   -8.1547 C   0  0  0  0  0  0  0  0  0  0  0  0
    3.7142  -32.3595  -14.3511 C   0  0  0  0  0  0  0  0  0  0  0  0
   -2.0275  -29.9166  -13.3812 C   0  0  0  0  0  0  0  0  0  0  0  0
    1.8037  -31.4973  -12.0615 C   0  0  0  0  0  0  0  0  0  0  0  0
    0.9632  -30.7847  -16.1927 N   0  0  0  0  0  0  0  0  0  0  0  0
   -2.1313  -29.0243   -7.9267 C   0  0  0  0  0  0  0  0  0  0  0  0
    0.6132  -31.5622  -11.1897 C   0  0  0  0  0  0  0  0  0  0  0  0
   -3.4487  -28.1759  -15.0284 C   0  0  0  0  0  0  0  0  0  0  0  0
   -2.5450  -29.7464  -11.0168 C   0  0  0  0  0  0  0  0  0  0  0  0
    4.6300  -32.3342  -13.2818 C   0  0  0  0  0  0  0  0  0  0  0  0
   -4.7080  -29.6939   -6.7781 C   0  0  0  0  0  0  0  0  0  0  0  0
    5.5795  -31.9311  -15.8884 C   0  0  0  0  0  0  0  0  0  0  0  0
   -0.0749  -31.0643  -15.4011 C   0  0  0  0  0  0  0  0  0  0  0  0
    4.2216  -32.1454  -15.6632 C   0  0  0  0  0  0  0  0  0  0  0  0
    6.0167  -32.1490  -13.5042 C   0  0  0  0  0  0  0  0  0  0  0  0
   -0.3113  -31.1616  -18.1627 C   0  0  0  0  0  0  0  0  0  0  0  0
   -2.4642  -29.5687  -14.6526 N   0  0  0  0  0  0  0  0  0  0  0  0
   -4.0421  -30.1906  -16.0776 O   0  0  0  0  0  0  0  0  0  0  0  0
   -4.1656  -29.2633  -12.5916 N   0  0  0  0  0  0  0  0  0  0  0  0
   -0.5146  -30.7208  -11.6856 C   0  0  0  0  0  0  0  0  0  0  0  0
   -1.2775  -31.4104  -16.0002 C   0  0  0  0  0  0  0  0  0  0  0  0
   -3.6084  -29.0967   -5.8425 C   0  0  0  0  0  0  0  0  0  0  0  0
    0.1514  -31.0240  -13.9761 N   0  0  0  0  0  0  0  0  0  0  0  0
    6.5190  -31.9528  -14.8161 C   0  0  0  0  0  0  0  0  0  0  0  0
   -3.7193  -29.9961   -4.4759 C   0  0  0  0  0  0  0  0  0  0  0  0
   -3.2399  -29.6422   -8.7612 C   0  0  0  0  0  0  0  0  0  0  0  0
  1 16  2  0
  1 27  1  0
  2 20  2  0
  2 31  1  0
  3 36  1  0
  4 14  1  0
  4 31  2  0
  4 34  1  0
  5 17  1  0
  5 33  1  0
  6 20  1  0
  6 37  1  0
  7 14  2  0
  7 20  1  0
  7 30  1  0
  8 10  1  0
  8 15  1  0
  8 34  1  0
  9 27  2  0
  9 32  1  0
 10 13  1  0
 11 19  1  0
 11 28  1  0
 11 29  2  0
 12 22  1  0
 12 37  1  0
 13 21  2  0
 13 25  1  0
 14 28  1  0
 15 18  1  0
 16 24  1  0
 17 37  1  0
 18 31  1  0
 21 26  1  0
 22 33  1  0
 23 25  2  0
 23 35  1  0
 24 32  2  0
 24 34  1  0
 26 35  2  0
 33 36  1  0
M  END
>  <ID>  (1) 
conformer_0

$$$$
