
     RDKit          3D

 46 55  0  0  0  0  0  0  0  0999 V2000
    5.8785  -31.2668  -12.1459 C   0  0  0  0  0  0  0  0  0  0  0  0
   -2.3068  -30.0466  -13.3895 C   0  0  0  0  0  0  0  0  0  0  0  0
   -4.3255  -29.3529  -12.3236 C   0  0  0  0  0  0  0  0  0  0  0  0
    4.9893  -33.9914  -12.9447 C   0  0  0  0  0  0  0  0  0  0  0  0
   -3.9230  -29.7899  -14.9651 N   0  0  0  0  0  0  0  0  0  0  0  0
    0.5592  -31.2364  -15.2703 C   0  0  0  0  0  0  0  0  0  0  0  0
   -7.5482  -29.1421   -6.3573 C   0  0  0  0  0  0  0  0  0  0  0  0
   -5.5986  -28.9201   -9.8271 C   0  0  0  0  0  0  0  0  0  0  0  0
   -3.5895  -29.4841  -11.1108 C   0  0  0  0  0  0  0  0  0  0  0  0
   -6.4892  -27.9250   -6.3601 C   0  0  0  0  0  0  0  0  0  0  0  0
   -6.1112  -27.7434   -4.9037 C   0  0  0  0  0  0  0  0  0  0  0  0
   -5.0217  -29.8270   -6.3757 C   0  0  0  0  0  0  0  0  0  0  0  0
   -3.8458  -29.3269   -7.3095 C   0  0  0  0  0  0  0  0  0  0  0  0
   -0.1641  -31.2768  -16.2083 C   0  0  0  0  0  0  0  0  0  0  0  0
   -2.2352  -29.8654  -11.0940 C   0  0  0  0  0  0  0  0  0  0  0  0
   -5.1625  -28.5330   -7.1029 C   0  0  0  0  0  0  0  0  0  0  0  0
   -2.3193  -30.4415  -16.9661 C   0  0  0  0  0  0  0  0  0  0  0  0
   -1.5000  -30.4145   -7.6793 O   0  0  0  0  0  0  0  0  0  0  0  0
    4.0330  -32.8134  -12.5629 C   0  0  0  0  0  0  0  0  0  0  0  0
    1.3519  -31.1965  -10.1807 C   0  0  0  0  0  0  0  0  0  0  0  0
   -1.3448  -30.1204   -9.9833 C   0  0  0  0  0  0  0  0  0  0  0  0
   -1.5207  -30.2018  -12.2654 C   0  0  0  0  0  0  0  0  0  0  0  0
    5.3799  -32.0806  -14.5505 C   0  0  0  0  0  0  0  0  0  0  0  0
   -0.4533  -30.7289  -14.8675 C   0  0  0  0  0  0  0  0  0  0  0  0
   -3.3215  -29.4498   -8.6880 N   0  0  0  0  0  0  0  0  0  0  0  0
   -0.0361  -30.6380  -10.4335 C   0  0  0  0  0  0  0  0  0  0  0  0
    3.6460  -31.9399   -9.0258 O   0  0  0  0  0  0  0  0  0  0  0  0
   -0.6598  -31.0109  -18.5263 O   0  0  0  0  0  0  0  0  0  0  0  0
    2.1349  -31.5669  -11.4118 C   0  0  0  0  0  0  0  0  0  0  0  0
   -6.9797  -26.8753   -7.0650 O   0  0  0  0  0  0  0  0  0  0  0  0
    6.5132  -33.5535  -12.9266 C   0  0  0  0  0  0  0  0  0  0  0  0
    2.1784  -31.6588   -8.9924 C   0  0  0  0  0  0  0  0  0  0  0  0
    4.7243  -31.5712  -13.2074 C   0  0  0  0  0  0  0  0  0  0  0  0
    6.6136  -32.6742  -11.6791 C   0  0  0  0  0  0  0  0  0  0  0  0
    5.1817  -30.8685  -10.8085 C   0  0  0  0  0  0  0  0  0  0  0  0
   -0.2213  -30.5903  -11.9175 O   0  0  0  0  0  0  0  0  0  0  0  0
   -2.0492  -30.0121   -8.7531 C   0  0  0  0  0  0  0  0  0  0  0  0
    6.8461  -32.5322  -14.0982 C   0  0  0  0  0  0  0  0  0  0  0  0
   -1.7568  -30.3859  -14.6533 C   0  0  0  0  0  0  0  0  0  0  0  0
   -0.9882  -30.8760  -17.2397 C   0  0  0  0  0  0  0  0  0  0  0  0
   -4.1589  -29.2013   -9.8066 C   0  0  0  0  0  0  0  0  0  0  0  0
    4.2765  -31.9324  -10.2673 C   0  0  0  0  0  0  0  0  0  0  0  0
    3.2948  -32.4442  -11.2844 C   0  0  0  0  0  0  0  0  0  0  0  0
   -3.6350  -29.6353  -13.5656 C   0  0  0  0  0  0  0  0  0  0  0  0
   -2.7532  -30.2065  -15.6369 C   0  0  0  0  0  0  0  0  0  0  0  0
   -6.5155  -30.3694   -6.0608 C   0  0  0  0  0  0  0  0  0  0  0  0
  1 33  1  0
  1 34  1  0
  1 35  1  0
  2 22  1  0
  2 39  1  0
  2 44  2  0
  3  9  2  0
  3 44  1  0
  4 19  1  0
  4 31  1  0
  5 44  1  0
  5 45  1  0
  6 14  1  0
  6 24  1  0
  7 10  1  0
  7 46  1  0
  8 41  1  0
  9 15  1  0
  9 41  1  0
 10 11  1  0
 10 16  1  0
 10 30  1  0
 12 16  1  0
 12 46  1  0
 13 16  1  0
 13 25  1  0
 14 40  1  0
 15 21  1  0
 15 22  2  0
 17 40  2  0
 17 45  1  0
 18 37  2  0
 19 33  1  0
 19 43  1  0
 20 26  1  0
 20 29  2  0
 20 32  1  0
 21 26  2  0
 21 37  1  0
 22 36  1  0
 23 33  1  0
 23 38  1  0
 24 39  1  0
 25 37  1  0
 25 41  1  0
 26 36  1  0
 27 32  1  0
 27 42  1  0
 28 40  1  0
 29 43  1  0
 31 34  1  0
 31 38  1  0
 35 42  1  0
 39 45  2  0
 42 43  1  0
M  END
>  <ID>  (1) 
conformer_0

$$$$
