
     RDKit          3D

 42 45  0  0  0  0  0  0  0  0999 V2000
   -3.1593  -29.5896  -12.8194 C   0  0  0  0  0  0  0  0  0  0  0  0
    1.8947  -31.4999  -15.1259 C   0  0  0  0  0  0  0  0  0  0  0  0
   -2.2462  -31.1210   -4.7294 C   0  0  0  0  0  0  0  0  0  0  0  0
   -1.8826  -30.1373  -14.8444 C   0  0  0  0  0  0  0  0  0  0  0  0
   -4.8834  -28.3949   -9.7611 N   0  0  0  0  0  0  0  0  0  0  0  0
    0.3565  -30.4189  -13.0262 N   0  0  0  0  0  0  0  0  0  0  0  0
    1.6932  -31.1339  -10.2380 O   0  0  0  0  0  0  0  0  0  0  0  0
   -3.9118  -28.2736   -8.6128 C   0  0  0  0  0  0  0  0  0  0  0  0
    2.3463  -31.6968   -9.0542 C   0  0  0  0  0  0  0  0  0  0  0  0
    1.4818  -30.9389  -12.7854 N   0  0  0  0  0  0  0  0  0  0  0  0
    1.5404  -30.6704  -19.2714 O   0  0  0  0  0  0  0  0  0  0  0  0
    1.9666  -31.4038  -11.5402 C   0  0  0  0  0  0  0  0  0  0  0  0
   -3.6594  -29.8290   -8.1614 S   0  0  0  0  0  3  0  0  0  0  0  0
   -6.8290  -28.0757   -8.3598 N   0  0  0  0  0  0  0  0  0  0  0  0
   -2.5372  -30.9382   -6.1032 C   0  0  0  0  0  0  0  0  0  0  0  0
   -2.1275  -31.7063  -17.0573 C   0  0  0  0  0  0  0  0  0  0  0  0
    1.5644  -31.0296  -18.0808 C   0  0  0  0  0  0  0  0  0  0  0  0
   -6.1040  -27.6868   -9.4323 C   0  0  0  0  0  0  0  0  0  0  0  0
    2.6089  -32.1165  -16.1960 N   0  0  0  0  0  0  0  0  0  0  0  0
   -3.1031  -29.9706  -15.5556 C   0  0  0  0  0  0  0  0  0  0  0  0
   -4.1547  -29.3422  -15.3158 O   0  0  0  0  0  0  0  0  0  0  0  0
   -3.4400  -29.5545  -11.4954 C   0  0  0  0  0  0  0  0  0  0  0  0
   -2.6209  -30.2486   -9.2962 N   0  0  0  0  0  0  0  0  0  0  0  0
    0.3566  -31.2272  -17.2804 C   0  0  0  0  0  0  0  0  0  0  0  0
   -1.1685  -30.2635  -11.1714 C   0  0  0  0  0  0  0  0  0  0  0  0
   -1.9755  -29.9608  -13.4134 C   0  0  0  0  0  0  0  0  0  0  0  0
    3.8386  -32.0247   -9.3787 C   0  0  0  0  0  0  0  0  0  0  0  0
   -2.7349  -30.2224   -3.7575 C   0  0  0  0  0  0  0  0  0  0  0  0
   -3.5177  -29.1374   -4.2562 C   0  0  0  0  0  0  0  0  0  0  0  0
    3.3878  -31.8866  -11.8197 C   0  0  0  0  0  0  0  0  0  0  0  0
   -6.3280  -26.6361  -10.0329 O   0  0  0  0  0  0  0  0  0  0  0  0
   -4.8515  -30.5920   -8.2204 O   0  0  0  0  0  1  0  0  0  0  0  0
   -0.8928  -30.2236  -12.5146 C   0  0  0  0  0  0  0  0  0  0  0  0
   -4.7750  -29.0889  -11.0117 C   0  0  0  0  0  0  0  0  0  0  0  0
   -3.7880  -28.9833   -5.6071 C   0  0  0  0  0  0  0  0  0  0  0  0
   -3.0947  -30.6475  -16.7679 N   0  0  0  0  0  0  0  0  0  0  0  0
   -2.3889  -30.0103  -10.6222 C   0  0  0  0  0  0  0  0  0  0  0  0
   -3.3057  -29.9008   -6.5283 C   0  0  0  0  0  0  0  0  0  0  0  0
    2.4460  -31.1285  -13.8458 C   0  0  0  0  0  0  0  0  0  0  0  0
    3.7946  -32.7530  -10.7171 C   0  0  0  0  0  0  0  0  0  0  0  0
   -0.9795  -31.0620  -17.8743 C   0  0  0  0  0  0  0  0  0  0  0  0
    2.8627  -31.3768  -17.4253 C   0  0  0  0  0  0  0  0  0  0  0  0
  1 22  2  0
  1 26  1  0
  2 19  1  0
  2 39  2  0
  3 15  2  0
  3 28  1  0
  4 20  1  0
  4 26  1  0
  5  8  1  0
  5 18  1  0
  5 34  1  0
  6 10  1  0
  6 33  1  0
  7  9  1  0
  7 12  1  0
  8 13  1  0
  9 27  1  0
 10 12  1  0
 10 39  1  0
 11 17  2  0
 12 30  1  0
 13 32  2  0
 13 38  1  0
 14 18  1  0
 15 38  1  0
 16 36  1  0
 16 41  1  0
 17 24  1  0
 17 42  1  0
 18 31  2  0
 19 42  1  0
 20 21  2  0
 20 36  1  0
 22 34  1  0
 22 37  1  0
 23 37  1  0
 24 41  1  0
 25 33  1  0
 25 37  2  0
 26 33  2  0
 27 40  1  0
 28 29  2  0
 29 35  1  0
 30 40  1  0
 35 38  2  0
M  END
>  <ID>  (1) 
conformer_0

$$$$
