
     RDKit          3D

 44 49  0  0  0  0  0  0  0  0999 V2000
   -2.9054  -29.6499  -10.9994 C   0  0  0  0  0  0  0  0  0  0  0  0
   -8.4471  -26.5224   -9.0376 C   0  0  0  0  0  0  0  0  0  0  0  0
   -3.1286  -29.5582  -12.3034 C   0  0  0  0  0  0  0  0  0  0  0  0
    0.7959  -31.3697  -17.1873 C   0  0  0  0  0  0  0  0  0  0  0  0
    0.0155  -31.9127  -16.0225 C   0  0  0  0  0  0  0  0  0  0  0  0
   -0.7582  -30.8626   -5.0964 C   0  0  0  0  0  0  0  0  0  0  0  0
    1.4243  -31.1422  -13.5939 C   0  0  0  0  0  0  0  0  0  0  0  0
   -0.3479  -30.9098   -7.4419 C   0  0  0  0  0  0  0  0  0  0  0  0
   -1.5674  -29.8646  -15.2727 O   0  0  0  0  0  0  0  0  0  0  0  0
   -2.1858  -29.8118  -13.1773 C   0  0  0  0  0  0  0  0  0  0  0  0
   -4.1450  -29.1522   -8.9855 C   0  0  0  0  0  0  0  0  0  0  0  0
   -3.8671  -29.4631  -14.7754 O   0  0  0  0  0  0  0  0  0  0  0  0
   -1.3557  -31.0601  -18.2737 C   0  0  0  0  0  0  0  0  0  0  0  0
    2.2557  -30.5886   -7.4457 C   0  0  0  0  0  0  0  0  0  0  0  0
   -2.1467  -31.3021  -17.0554 C   0  0  0  0  0  0  0  0  0  0  0  0
   -1.6560  -30.0383  -10.5182 N   0  0  0  0  0  0  0  0  0  0  0  0
   -3.9519  -29.3611  -10.2637 N   0  0  0  0  0  0  0  0  0  0  0  0
   -1.3013  -30.2536   -6.4589 C   0  0  0  0  0  0  0  0  0  0  0  0
   -1.2374  -31.1287  -15.8389 C   0  0  0  0  0  0  0  0  0  0  0  0
    1.2711  -31.2827  -15.9729 N   0  0  0  0  0  0  0  0  0  0  0  0
   -9.4642  -25.3119   -7.2025 C   0  0  0  0  0  0  0  0  0  0  0  0
   -2.6585  -29.6898  -14.5483 C   0  0  0  0  0  0  0  0  0  0  0  0
    0.9610  -30.9507   -6.7774 N   0  0  0  0  0  0  0  0  0  0  0  0
    3.4262  -31.8422   -9.3168 N   0  0  0  0  0  0  0  0  0  0  0  0
   -9.4369  -25.9294   -8.4220 C   0  0  0  0  0  0  0  0  0  0  0  0
    2.8769  -31.9017  -11.4521 C   0  0  0  0  0  0  0  0  0  0  0  0
    2.0037  -31.8353  -12.5359 C   0  0  0  0  0  0  0  0  0  0  0  0
   -7.1048  -25.6191   -6.5865 C   0  0  0  0  0  0  0  0  0  0  0  0
    3.1283  -31.7638   -7.8775 C   0  0  0  0  0  0  0  0  0  0  0  0
   -6.2234  -27.5348   -9.6244 C   0  0  0  0  0  0  0  0  0  0  0  0
   -6.5313  -26.2755   -7.5387 C   0  0  0  0  0  0  0  0  0  0  0  0
    4.2531  -31.6330  -11.3982 C   0  0  0  0  0  0  0  0  0  0  0  0
    4.6037  -31.6137  -10.0982 C   0  0  0  0  0  0  0  0  0  0  0  0
    2.0591  -31.6297  -14.8859 C   0  0  0  0  0  0  0  0  0  0  0  0
   -0.8619  -30.1441  -12.7902 C   0  0  0  0  0  0  0  0  0  0  0  0
    0.2921  -30.3208  -13.6089 O   0  0  0  0  0  0  0  0  0  0  0  0
   -8.3600  -25.1822   -6.4078 C   0  0  0  0  0  0  0  0  0  0  0  0
   -3.3360  -30.6038  -17.0233 N   0  0  0  0  0  0  0  0  0  0  0  0
   -0.7002  -30.2824  -11.4070 C   0  0  0  0  0  0  0  0  0  0  0  0
    2.4342  -32.1260  -10.2092 C   0  0  0  0  0  0  0  0  0  0  0  0
   -7.1355  -26.7249   -8.7265 C   0  0  0  0  0  0  0  0  0  0  0  0
    0.0191  -30.4635  -18.0582 C   0  0  0  0  0  0  0  0  0  0  0  0
    0.7425  -30.8859   -5.3077 C   0  0  0  0  0  0  0  0  0  0  0  0
   -5.1780  -28.1702   -8.6999 C   0  0  0  0  0  0  0  0  0  0  0  0
  1  3  1  0
  1 16  1  0
  1 17  2  3
  2 25  2  0
  2 41  1  0
  3 10  2  0
  4 20  1  0
  4 42  1  0
  5 19  1  0
  5 20  1  0
  6 18  1  0
  6 43  1  0
  7 27  1  0
  7 34  1  0
  7 36  1  0
  8 18  1  0
  8 23  1  0
  9 19  1  0
  9 22  1  0
 10 22  1  0
 10 35  1  0
 11 17  1  0
 11 44  1  0
 12 22  2  0
 13 15  1  0
 13 42  1  0
 14 23  1  0
 14 29  1  0
 15 19  1  0
 15 38  1  0
 16 39  2  0
 20 34  1  0
 21 25  1  0
 21 37  2  0
 23 43  1  0
 24 29  1  0
 24 33  1  0
 24 40  1  0
 26 27  1  0
 26 32  1  0
 26 40  1  0
 28 31  2  0
 28 37  1  0
 30 41  1  0
 30 44  1  0
 31 41  1  0
 32 33  1  0
 35 36  1  0
 35 39  1  0
M  END
>  <ID>  (1) 
conformer_0

$$$$
