
     RDKit          3D

 33 39  0  0  0  0  0  0  0  0999 V2000
    2.8179  -31.8488   -9.8073 O   0  0  0  0  0  0  0  0  0  0  0  0
    3.5194  -32.2141  -12.0833 C   0  0  0  0  0  0  0  0  0  0  0  0
   -4.9508  -29.7663   -6.9511 C   0  0  0  0  0  0  0  0  0  0  0  0
   -0.5906  -31.3329  -18.2799 C   0  0  0  0  0  0  0  0  0  0  0  0
   -4.7831  -30.2116   -5.6966 C   0  0  0  0  0  0  0  0  0  0  0  0
   -2.6424  -29.8899  -11.7241 C   0  0  0  0  0  0  0  0  0  0  0  0
    3.0550  -32.0722  -13.3821 C   0  0  0  0  0  0  0  0  0  0  0  0
   -3.1174  -29.8616  -14.3123 C   0  0  0  0  0  0  0  0  0  0  0  0
   -0.9880  -30.3077  -13.4880 C   0  0  0  0  0  0  0  0  0  0  0  0
   -3.3428  -29.7136   -9.0512 C   0  0  0  0  0  0  0  0  0  0  0  0
   -2.2124  -30.6553  -16.7132 C   0  0  0  0  0  0  0  0  0  0  0  0
   -3.8670  -29.5311  -11.3723 N   0  0  0  0  0  0  0  0  0  0  0  0
   -3.4920  -30.6793   -5.5782 N   0  0  0  0  0  0  0  0  0  0  0  0
    1.3857  -31.3359  -11.8366 C   0  0  0  0  0  0  0  0  0  0  0  0
   -0.9548  -30.6482  -14.8200 C   0  0  0  0  0  0  0  0  0  0  0  0
   -2.8936  -30.4768   -6.7780 C   0  0  0  0  0  0  0  0  0  0  0  0
    0.4619  -30.9747   -9.4889 C   0  0  0  0  0  0  0  0  0  0  0  0
   -2.0758  -30.0229   -9.4478 N   0  0  0  0  0  0  0  0  0  0  0  0
   -4.3167  -29.5696  -14.3843 O   0  0  0  0  0  0  0  0  0  0  0  0
   -0.1554  -31.1268  -15.8177 C   0  0  0  0  0  0  0  0  0  0  0  0
   -2.2900  -30.3418  -15.3620 C   0  0  0  0  0  0  0  0  0  0  0  0
   -3.7527  -29.9264   -7.6582 N   0  0  0  0  0  0  0  0  0  0  0  0
    1.8285  -31.3383   -8.8301 C   0  0  0  0  0  0  0  0  0  0  0  0
    1.1011  -31.5668  -15.8453 O   0  0  0  0  0  0  0  0  0  0  0  0
   -4.2781  -29.3185  -10.1057 C   0  0  0  0  0  0  0  0  0  0  0  0
   -0.0745  -30.7509  -10.9987 C   0  0  0  0  0  0  0  0  0  0  0  0
   -5.6071  -28.9700   -9.8665 N   0  0  0  0  0  0  0  0  0  0  0  0
    1.8073  -31.5830  -13.4945 C   0  0  0  0  0  0  0  0  0  0  0  0
   -2.2960  -29.8899  -13.1029 C   0  0  0  0  0  0  0  0  0  0  0  0
   -1.6158  -30.1837  -10.7454 C   0  0  0  0  0  0  0  0  0  0  0  0
    1.3453  -31.4545  -14.6916 N   0  0  0  0  0  0  0  0  0  0  0  0
    2.4876  -31.7973  -11.1534 C   0  0  0  0  0  0  0  0  0  0  0  0
   -0.9783  -31.0909  -17.0507 C   0  0  0  0  0  0  0  0  0  0  0  0
  1 23  1  0
  1 32  1  0
  2  7  1  0
  2 32  1  0
  3  5  1  0
  3 22  1  0
  4 33  2  0
  5 13  1  0
  6 12  2  0
  6 29  1  0
  6 30  1  0
  7 28  2  0
  8 19  2  0
  8 21  1  0
  8 29  1  0
  9 15  1  0
  9 29  1  0
 10 18  2  0
 10 22  1  0
 10 25  1  0
 11 21  1  0
 11 33  1  0
 12 25  1  0
 13 16  1  0
 14 26  1  0
 14 28  1  0
 14 32  2  0
 15 20  2  0
 15 21  1  0
 16 22  1  0
 17 23  1  0
 17 26  1  0
 18 30  1  0
 20 24  1  0
 20 33  1  0
 24 31  1  0
 25 27  2  0
 26 30  2  0
 28 31  1  0
M  END
>  <ID>  (1) 
conformer_0

$$$$
