
     RDKit          3D

 42 47  0  0  0  0  0  0  0  0999 V2000
   -0.7984  -30.4225  -13.8051 C   0  0  0  0  0  0  0  0  0  0  0  0
    4.5165  -31.6751  -10.2429 C   0  0  0  0  0  0  0  0  0  0  0  0
   -5.5042  -30.2530   -5.3047 C   0  0  0  0  0  0  0  0  0  0  0  0
   -6.5320  -27.9345   -9.8381 C   0  0  0  0  0  0  0  0  0  0  0  0
   -5.2354  -28.5724   -9.4433 C   0  0  0  0  0  0  0  0  0  0  0  0
   -2.7351  -29.8630   -9.1229 C   0  0  0  0  0  0  0  0  0  0  0  0
    4.0106  -31.2718  -13.4180 C   0  0  0  0  0  0  0  0  0  0  0  0
   -1.4403  -30.4457   -8.8452 C   0  0  0  0  0  0  0  0  0  0  0  0
    0.5433  -31.7056   -9.7006 C   0  0  0  0  0  0  0  0  0  0  0  0
   -0.8139  -31.2022  -10.0109 C   0  0  0  0  0  0  0  0  0  0  0  0
    3.7374  -31.2978   -7.7307 C   0  0  0  0  0  0  0  0  0  0  0  0
   -2.8341  -30.5268  -11.3938 O   0  0  0  0  0  0  0  0  0  0  0  0
    1.5764  -31.0365  -13.0758 C   0  0  0  0  0  0  0  0  0  0  0  0
   -6.6252  -26.4962   -9.6813 C   0  0  0  0  0  0  0  0  0  0  0  0
    1.3051  -31.3959   -8.4299 C   0  0  0  0  0  0  0  0  0  0  0  0
   -5.3355  -28.2997   -6.9257 C   0  0  0  0  0  0  0  0  0  0  0  0
   -2.3091  -29.0347   -5.7490 O   0  0  0  0  0  0  0  0  0  0  0  0
    2.8101  -31.4252   -8.7262 C   0  0  0  0  0  0  0  0  0  0  0  0
    2.6229  -31.5208  -13.9079 N   0  0  0  0  0  0  0  0  0  0  0  0
    5.0340  -31.3879   -8.0327 C   0  0  0  0  0  0  0  0  0  0  0  0
   -1.2570  -30.1402   -7.4124 O   0  0  0  0  0  0  0  0  0  0  0  0
   -0.0402  -31.2015  -16.3406 C   0  0  0  0  0  0  0  0  0  0  0  0
   -2.1412  -30.6665  -17.2813 C   0  0  0  0  0  0  0  0  0  0  0  0
   -3.1567  -29.7461  -14.7301 C   0  0  0  0  0  0  0  0  0  0  0  0
   -4.6243  -28.7239   -8.1395 C   0  0  0  0  0  0  0  0  0  0  0  0
    0.4856  -30.8981  -14.0355 C   0  0  0  0  0  0  0  0  0  0  0  0
   -3.9698  -29.6347  -15.6703 O   0  0  0  0  0  0  0  0  0  0  0  0
   -1.7292  -30.3041  -14.8208 C   0  0  0  0  0  0  0  0  0  0  0  0
   -3.3293  -29.3144   -8.0376 C   0  0  0  0  0  0  0  0  0  0  0  0
   -4.5702  -29.1177  -10.5116 C   0  0  0  0  0  0  0  0  0  0  0  0
   -3.0524  -29.8117  -12.3510 C   0  0  0  0  0  0  0  0  0  0  0  0
    2.2412  -31.6614  -15.3018 C   0  0  0  0  0  0  0  0  0  0  0  0
    0.8740  -31.2673  -15.2793 C   0  0  0  0  0  0  0  0  0  0  0  0
   -2.3860  -29.4631   -6.9297 C   0  0  0  0  0  0  0  0  0  0  0  0
   -6.6214  -27.5484   -7.1259 C   0  0  0  0  0  0  0  0  0  0  0  0
   -1.2898  -30.7272  -16.1232 C   0  0  0  0  0  0  0  0  0  0  0  0
    3.2467  -31.6043   -9.9957 N   0  0  0  0  0  0  0  0  0  0  0  0
   -3.6436  -29.4701  -13.4719 N   0  0  0  0  0  0  0  0  0  0  0  0
   -5.0413  -28.7562   -5.5440 C   0  0  0  0  0  0  0  0  0  0  0  0
    5.4600  -31.5966   -9.3195 N   0  0  0  0  0  0  0  0  0  0  0  0
   -3.3975  -29.7954  -10.3561 C   0  0  0  0  0  0  0  0  0  0  0  0
   -6.8561  -26.3571   -8.0994 C   0  0  0  0  0  0  0  0  0  0  0  0
  1 26  2  0
  1 28  1  0
  2 37  2  0
  2 40  1  0
  3 39  1  0
  4  5  1  0
  4 14  1  0
  5 25  2  0
  5 30  1  0
  6  8  1  0
  6 29  2  0
  6 41  1  0
  7 19  1  0
  8 10  1  0
  8 21  1  0
  9 10  1  0
  9 15  1  0
 11 18  1  0
 11 20  2  0
 12 31  1  0
 12 41  1  0
 13 19  1  0
 13 26  1  0
 14 42  1  0
 15 18  1  0
 16 25  1  0
 16 35  1  0
 16 39  1  0
 17 34  2  0
 18 37  1  0
 19 32  1  0
 20 40  1  0
 21 34  1  0
 22 33  2  0
 22 36  1  0
 23 36  1  0
 24 27  2  0
 24 28  1  0
 24 38  1  0
 25 29  1  0
 26 33  1  0
 28 36  2  0
 29 34  1  0
 30 41  2  0
 31 38  1  0
 32 33  1  0
 35 42  1  0
M  END
>  <ID>  (1) 
conformer_0

$$$$
