
     RDKit          3D

 34 39  0  0  0  0  0  0  0  0999 V2000
    0.1298  -31.1925  -15.0109 C   0  0  0  0  0  0  0  0  0  0  0  0
    0.2168  -31.4576  -16.3528 C   0  0  0  0  0  0  0  0  0  0  0  0
   -1.0777  -30.6361  -14.5397 C   0  0  0  0  0  0  0  0  0  0  0  0
    2.2421  -31.4979  -11.8504 C   0  0  0  0  0  0  0  0  0  0  0  0
   -0.7155  -31.4275  -18.4803 O   0  0  0  0  0  0  0  0  0  0  0  0
    1.0604  -31.2254  -12.7521 C   0  0  0  0  0  0  0  0  0  0  0  0
   -4.8368  -28.4810   -9.3384 C   0  0  0  0  0  0  0  0  0  0  0  0
   -4.1360  -30.1017   -7.9359 C   0  0  0  0  0  0  0  0  0  0  0  0
   -5.7475  -28.4566   -8.2726 C   0  0  0  0  0  0  0  0  0  0  0  0
   -7.0445  -26.6364   -9.1397 N   0  0  0  0  0  0  0  0  0  0  0  0
    4.4189  -31.7291   -9.9358 C   0  0  0  0  0  0  0  0  0  0  0  0
   -0.2543  -30.6970  -12.3394 C   0  0  0  0  0  0  0  0  0  0  0  0
   -1.9423  -30.6364  -16.7160 N   0  0  0  0  0  0  0  0  0  0  0  0
   -2.1455  -30.3593  -15.4089 C   0  0  0  0  0  0  0  0  0  0  0  0
   -5.3247  -29.4913   -7.4069 C   0  0  0  0  0  0  0  0  0  0  0  0
   -3.3455  -29.5784  -12.3022 C   0  0  0  0  0  0  0  0  0  0  0  0
    3.1756  -31.4019   -9.5580 N   0  0  0  0  0  0  0  0  0  0  0  0
   -3.3976  -29.8634  -15.0297 N   0  0  0  0  0  0  0  0  0  0  0  0
   -2.8648  -29.8378   -9.9209 O   0  0  0  0  0  0  0  0  0  0  0  0
   -0.9886  -30.3385  -11.0858 N   0  0  0  0  0  0  0  0  0  0  0  0
   -1.0716  -30.4674  -13.2524 N   0  0  0  0  0  0  0  0  0  0  0  0
   -7.8383  -27.7680   -7.3486 N   0  0  0  0  0  0  0  0  0  0  0  0
    3.5461  -31.8647  -12.2377 C   0  0  0  0  0  0  0  0  0  0  0  0
    4.6276  -31.9863  -11.3031 C   0  0  0  0  0  0  0  0  0  0  0  0
    1.1325  -31.4417  -14.0946 N   0  0  0  0  0  0  0  0  0  0  0  0
   -6.0271  -30.0673   -5.9931 Cl  0  0  0  0  0  0  0  0  0  0  0  0
    0.9043  -30.9301   -9.8076 C   0  0  0  0  0  0  0  0  0  0  0  0
   -6.9057  -27.5513   -8.1664 C   0  0  0  0  0  0  0  0  0  0  0  0
   -3.8042  -29.4091  -13.8017 C   0  0  0  0  0  0  0  0  0  0  0  0
   -0.8161  -31.1822  -17.1968 C   0  0  0  0  0  0  0  0  0  0  0  0
   -0.3734  -30.5697   -9.9115 N   0  0  0  0  0  0  0  0  0  0  0  0
    2.1071  -31.2988  -10.4147 C   0  0  0  0  0  0  0  0  0  0  0  0
   -2.3418  -29.9503  -11.1722 C   0  0  0  0  0  0  0  0  0  0  0  0
   -3.8837  -29.4620   -9.1528 C   0  0  0  0  0  0  0  0  0  0  0  0
  1  2  2  0
  1  3  1  0
  1 25  1  0
  2 30  1  0
  3 14  2  0
  3 21  1  0
  4  6  1  0
  4 23  2  0
  4 32  1  0
  5 30  2  0
  6 12  1  0
  6 25  2  0
  7  9  1  0
  7 34  1  0
  8 15  1  0
  8 34  1  0
  9 15  2  0
  9 28  1  0
 10 28  2  0
 11 17  1  0
 11 24  2  0
 12 20  1  0
 12 21  2  0
 13 14  1  0
 13 30  1  0
 14 18  1  0
 15 26  1  0
 16 29  1  0
 16 33  2  0
 17 32  2  0
 18 29  1  0
 19 33  1  0
 19 34  1  0
 20 31  1  0
 20 33  1  0
 22 28  1  0
 23 24  1  0
 27 31  2  0
 27 32  1  0
M  END
>  <ID>  (1) 
conformer_0

$$$$
