
     RDKit          3D

 26 30  0  0  0  0  0  0  0  0999 V2000
   -1.0187  -30.3839  -12.0958 C   0  0  0  0  0  0  0  0  0  0  0  0
   -3.0308  -29.4541  -10.8660 C   0  0  0  0  0  0  0  0  0  0  0  0
   -4.2977  -30.9014   -6.6469 O   0  0  0  0  0  0  0  0  0  0  0  0
   -3.6445  -29.6505   -8.5290 C   0  0  0  0  0  0  0  0  0  0  0  0
   -2.1328  -29.7817  -11.7847 N   0  0  0  0  0  0  0  0  0  0  0  0
   -4.2823  -28.9278  -11.1722 C   0  0  0  0  0  0  0  0  0  0  0  0
   -0.0396  -30.9269  -11.2785 C   0  0  0  0  0  0  0  0  0  0  0  0
   -3.3556  -30.2808  -16.6300 N   0  0  0  0  0  0  0  0  0  0  0  0
   -2.0045  -30.5795   -6.6184 C   0  0  0  0  0  0  0  0  0  0  0  0
    0.0121  -30.9784  -15.4637 C   0  0  0  0  0  0  0  0  0  0  0  0
   -4.8720  -29.0775   -8.8493 C   0  0  0  0  0  0  0  0  0  0  0  0
   -1.9164  -30.0926  -14.3555 C   0  0  0  0  0  0  0  0  0  0  0  0
    0.2352  -31.3789  -16.7237 N   0  0  0  0  0  0  0  0  0  0  0  0
   -5.2071  -28.7248  -10.1558 C   0  0  0  0  0  0  0  0  0  0  0  0
    0.2083  -31.0197  -14.0457 C   0  0  0  0  0  0  0  0  0  0  0  0
    1.0865  -31.4994  -11.8623 C   0  0  0  0  0  0  0  0  0  0  0  0
   -1.3534  -29.8730   -9.1636 C   0  0  0  0  0  0  0  0  0  0  0  0
   -3.2986  -30.2869   -7.2243 C   0  0  0  0  0  0  0  0  0  0  0  0
   -0.9053  -30.4714  -13.4001 C   0  0  0  0  0  0  0  0  0  0  0  0
   -3.8780  -29.7743  -15.4653 O   0  0  0  0  0  0  0  0  0  0  0  0
   -0.8222  -31.1997  -17.5854 C   0  0  0  0  0  0  0  0  0  0  0  0
   -1.3816  -30.4252  -15.6236 C   0  0  0  0  0  0  0  0  0  0  0  0
   -1.9729  -30.6737  -16.8207 C   0  0  0  0  0  0  0  0  0  0  0  0
    1.1915  -31.5212  -13.2611 C   0  0  0  0  0  0  0  0  0  0  0  0
   -2.6715  -29.6824   -9.5284 C   0  0  0  0  0  0  0  0  0  0  0  0
   -3.2028  -29.7452  -14.3227 N   0  0  0  0  0  0  0  0  0  0  0  0
  1  5  2  3
  1  7  1  0
  1 19  1  0
  2  5  1  0
  2  6  2  0
  2 25  1  0
  3 18  1  0
  4 11  1  0
  4 18  1  0
  4 25  1  0
  6 14  1  0
  7 16  1  0
  8 20  1  0
  8 23  2  0
  9 18  1  0
 10 13  1  0
 10 15  1  0
 10 22  1  0
 11 14  2  0
 12 19  1  0
 12 22  1  0
 12 26  2  0
 13 21  1  0
 15 19  2  0
 15 24  1  0
 16 24  2  0
 17 25  1  0
 20 26  1  0
 21 23  1  0
 22 23  1  0
M  END
>  <ID>  (1) 
conformer_0

$$$$
