
     RDKit          3D

 44 50  0  0  0  0  0  0  0  0999 V2000
   -2.1851  -29.8057  -11.0689 C   0  0  0  0  0  0  0  0  0  0  0  0
   -1.3697  -30.3367  -13.2880 C   0  0  0  0  0  0  0  0  0  0  0  0
    0.1388  -30.7254  -11.4751 C   0  0  0  0  0  0  0  0  0  0  0  0
   -3.7480  -29.5570  -12.8605 C   0  0  0  0  0  0  0  0  0  0  0  0
   -1.2917  -30.8838  -18.2537 C   0  0  0  0  0  0  0  0  0  0  0  0
   -3.0666  -30.2550  -15.0453 C   0  0  0  0  0  0  0  0  0  0  0  0
    3.2471  -31.5823  -13.9380 C   0  0  0  0  0  0  0  0  0  0  0  0
   -5.3737  -28.0727   -8.3688 C   0  0  0  0  0  0  0  0  0  0  0  0
   -2.2747  -30.8166  -17.3047 C   0  0  0  0  0  0  0  0  0  0  0  0
   -3.7279  -28.4402   -5.1411 C   0  0  0  0  0  0  0  0  0  0  0  0
   -3.8924  -25.1396   -6.3053 O   0  0  0  0  0  0  0  0  0  0  0  0
   -3.9559  -27.5453   -6.3612 C   0  0  0  0  0  0  0  0  0  0  0  0
   -0.3384  -30.6630  -14.1885 C   0  0  0  0  0  0  0  0  0  0  0  0
   -4.5902  -28.7984  -10.6408 C   0  0  0  0  0  0  0  0  0  0  0  0
   -5.7301  -28.7611  -11.1875 O   0  0  0  0  0  0  0  0  0  0  0  0
   -2.7301  -30.2695   -6.7945 C   0  0  0  0  0  0  0  0  0  0  0  0
   -4.3172  -28.5258   -9.2681 C   0  0  0  0  0  0  0  0  0  0  0  0
   -8.6851  -26.5159   -9.6202 C   0  0  0  0  0  0  0  0  0  0  0  0
   -2.0177  -26.2425   -6.0508 N   0  0  0  0  0  0  0  0  0  0  0  0
    0.3066  -30.7694  -16.5489 C   0  0  0  0  0  0  0  0  0  0  0  0
   -6.6642  -27.0503   -6.5545 C   0  0  0  0  0  0  0  0  0  0  0  0
   -2.0086  -30.6157  -15.9691 C   0  0  0  0  0  0  0  0  0  0  0  0
   -6.5597  -27.3580   -8.9652 C   0  0  0  0  0  0  0  0  0  0  0  0
   -4.2932  -30.2917   -6.6212 C   0  0  0  0  0  0  0  0  0  0  0  0
   -5.3278  -27.7842   -6.8980 C   0  0  0  0  0  0  0  0  0  0  0  0
   -2.7162  -30.0495  -13.7144 N   0  0  0  0  0  0  0  0  0  0  0  0
    1.0446  -30.6023  -18.8252 C   0  0  0  0  0  0  0  0  0  0  0  0
   -7.4449  -27.0573  -10.1604 C   0  0  0  0  0  0  0  0  0  0  0  0
    2.0312  -31.1366  -14.5080 O   0  0  0  0  0  0  0  0  0  0  0  0
   -6.2926  -24.9843   -7.9811 C   0  0  0  0  0  0  0  0  0  0  0  0
    0.0314  -30.7702  -17.8774 C   0  0  0  0  0  0  0  0  0  0  0  0
   -2.3109  -29.9178   -8.1987 C   0  0  0  0  0  0  0  0  0  0  0  0
   -3.3167  -26.2235   -6.2815 C   0  0  0  0  0  0  0  0  0  0  0  0
    0.9426  -30.9348  -13.7003 C   0  0  0  0  0  0  0  0  0  0  0  0
   -3.4559  -29.3518  -11.4707 C   0  0  0  0  0  0  0  0  0  0  0  0
   -7.0402  -26.3172   -7.8724 C   0  0  0  0  0  0  0  0  0  0  0  0
   -1.1259  -30.2826  -11.9131 C   0  0  0  0  0  0  0  0  0  0  0  0
    1.1383  -30.9885  -12.3404 C   0  0  0  0  0  0  0  0  0  0  0  0
   -4.1865  -30.0282  -15.4288 O   0  0  0  0  0  0  0  0  0  0  0  0
   -4.7317  -29.6397   -5.3038 C   0  0  0  0  0  0  0  0  0  0  0  0
   -0.6603  -30.6989  -15.5749 C   0  0  0  0  0  0  0  0  0  0  0  0
   -8.4792  -26.0715   -8.1955 C   0  0  0  0  0  0  0  0  0  0  0  0
    0.2884  -30.9596  -10.0528 C   0  0  0  0  0  0  0  0  0  0  0  0
   -2.9529  -28.7009   -8.7418 C   0  0  0  0  0  0  0  0  0  0  0  0
  1 35  2  0
  1 37  1  0
  2 13  1  0
  2 26  1  0
  2 37  2  0
  3 37  1  0
  3 38  2  0
  3 43  1  0
  4 26  1  0
  4 35  1  0
  5  9  1  0
  5 31  2  0
  6 22  1  0
  6 26  1  0
  6 39  2  0
  7 29  1  0
  8 17  1  0
  8 23  1  0
  8 25  1  0
  9 22  2  0
 10 12  1  0
 10 40  1  0
 11 33  2  0
 12 25  1  0
 12 33  1  0
 13 34  2  0
 13 41  1  0
 14 15  2  0
 14 17  1  0
 14 35  1  0
 16 24  1  0
 16 32  1  0
 17 44  1  0
 18 28  1  0
 18 42  1  0
 19 33  1  0
 20 31  1  0
 20 41  2  0
 21 25  1  0
 21 36  1  0
 22 41  1  0
 23 28  1  0
 23 36  1  0
 24 40  1  0
 27 31  1  0
 29 34  1  0
 30 36  1  0
 32 44  1  0
 34 38  1  0
 36 42  1  0
M  END
>  <ID>  (1) 
conformer_0

$$$$
