
     RDKit          3D

 31 36  0  0  0  0  0  0  0  0999 V2000
   -1.4845  -30.4119  -14.4611 N   0  0  0  0  0  0  0  0  0  0  0  0
   -2.4956  -30.0206   -7.4257 C   0  0  0  0  0  0  0  0  0  0  0  0
   -4.9211  -28.5145   -7.5621 C   0  0  0  0  0  0  0  0  0  0  0  0
   -4.3262  -28.9513   -8.6548 C   0  0  0  0  0  0  0  0  0  0  0  0
   -3.1446  -29.8044   -8.6689 C   0  0  0  0  0  0  0  0  0  0  0  0
   -3.8940  -29.3503  -12.0868 C   0  0  0  0  0  0  0  0  0  0  0  0
    2.0312  -31.4433  -14.0690 C   0  0  0  0  0  0  0  0  0  0  0  0
   -5.8830  -27.7508  -10.1218 C   0  0  0  0  0  0  0  0  0  0  0  0
   -0.1574  -31.0115  -17.2372 C   0  0  0  0  0  0  0  0  0  0  0  0
    0.9105  -31.0343  -14.8365 N   0  0  0  0  0  0  0  0  0  0  0  0
   -6.7142  -26.9953   -7.9555 C   0  0  0  0  0  0  0  0  0  0  0  0
   -2.1927  -30.1458  -13.3279 C   0  0  0  0  0  0  0  0  0  0  0  0
   -2.1013  -30.2573  -15.6967 C   0  0  0  0  0  0  0  0  0  0  0  0
    0.8285  -31.3950  -16.1919 C   0  0  0  0  0  0  0  0  0  0  0  0
    1.8249  -32.0802  -16.6930 O   0  0  0  0  0  0  0  0  0  0  0  0
   -4.9034  -28.5162   -9.7736 C   0  0  0  0  0  0  0  0  0  0  0  0
   -6.7012  -27.0357   -9.3371 C   0  0  0  0  0  0  0  0  0  0  0  0
    0.2700  -30.8872  -12.6739 C   0  0  0  0  0  0  0  0  0  0  0  0
   -2.3871  -29.9165   -9.7926 C   0  0  0  0  0  0  0  0  0  0  0  0
    1.6314  -31.2396  -12.6567 C   0  0  0  0  0  0  0  0  0  0  0  0
   -5.8690  -27.7251   -7.1895 C   0  0  0  0  0  0  0  0  0  0  0  0
   -1.4954  -30.5188  -17.0298 C   0  0  0  0  0  0  0  0  0  0  0  0
   -3.3448  -30.5888   -6.4754 N   0  0  0  0  0  0  0  0  0  0  0  0
   -2.8454  -29.7549  -11.1598 C   0  0  0  0  0  0  0  0  0  0  0  0
   -1.7913  -30.2303  -12.0083 C   0  0  0  0  0  0  0  0  0  0  0  0
   -0.2021  -30.7417  -14.0020 C   0  0  0  0  0  0  0  0  0  0  0  0
   -3.4528  -29.8467  -15.7014 C   0  0  0  0  0  0  0  0  0  0  0  0
   -4.0773  -29.5972  -14.5682 N   0  0  0  0  0  0  0  0  0  0  0  0
   -3.5051  -29.6110  -13.3895 C   0  0  0  0  0  0  0  0  0  0  0  0
   -4.3250  -30.2923   -5.5922 O   0  0  0  0  0  0  0  0  0  0  0  0
   -0.5371  -30.5952  -11.5925 C   0  0  0  0  0  0  0  0  0  0  0  0
  1 12  1  0
  1 13  1  0
  1 26  1  0
  2  5  1  0
  2 23  1  0
  3  4  1  0
  3 21  2  0
  4  5  1  0
  4 16  1  0
  5 19  1  0
  6 24  1  0
  6 29  1  0
  7 10  1  0
  7 20  1  0
  8 16  2  0
  8 17  1  0
  9 14  1  0
  9 22  2  0
 10 14  1  0
 10 26  1  0
 11 17  2  0
 11 21  1  0
 12 25  2  0
 12 29  1  0
 13 22  1  0
 13 27  2  0
 14 15  2  0
 18 20  1  0
 18 26  2  0
 18 31  1  0
 19 24  2  3
 23 30  1  0
 24 25  1  0
 25 31  1  0
 27 28  1  0
 28 29  2  0
M  END
>  <ID>  (1) 
conformer_0

$$$$
