
     RDKit          3D

 43 49  0  0  0  0  0  0  0  0999 V2000
   -5.1606  -28.5063   -9.4729 C   0  0  0  0  0  0  0  0  0  0  0  0
   -1.2387  -30.7843   -9.2742 C   0  0  0  0  0  0  0  0  0  0  0  0
   -3.4072  -29.8212   -8.6962 C   0  0  0  0  0  0  0  0  0  0  0  0
   -2.4773  -29.8631  -11.1352 C   0  0  0  0  0  0  0  0  0  0  0  0
   -2.2633  -30.6018   -8.2945 C   0  0  0  0  0  0  0  0  0  0  0  0
   -6.3052  -27.7110   -9.5529 C   0  0  0  0  0  0  0  0  0  0  0  0
   -0.8453  -31.8062  -17.1418 C   0  0  0  0  0  0  0  0  0  0  0  0
   -4.5838  -29.0537  -10.6320 C   0  0  0  0  0  0  0  0  0  0  0  0
   -6.7325  -25.2708  -10.0047 O   0  0  0  0  0  0  0  0  0  0  0  0
    2.3668  -31.4891  -11.8564 C   0  0  0  0  0  0  0  0  0  0  0  0
   -3.1416  -29.4792  -12.2827 C   0  0  0  0  0  0  0  0  0  0  0  0
   -0.1997  -29.6812  -13.1189 C   0  0  0  0  0  0  0  0  0  0  0  0
   -7.1410  -27.0935   -8.6497 N   0  0  0  0  0  0  0  0  0  0  0  0
    0.9806  -30.7930  -16.8864 C   0  0  0  0  0  0  0  0  0  0  0  0
   -1.3782  -29.8788  -13.9852 C   0  0  0  0  0  0  0  0  0  0  0  0
   -3.7300  -29.8064  -14.5568 N   0  0  0  0  0  0  0  0  0  0  0  0
    2.2074  -31.3748  -10.3804 C   0  0  0  0  0  0  0  0  0  0  0  0
   -1.0096  -30.2909  -15.2739 C   0  0  0  0  0  0  0  0  0  0  0  0
   -0.0649  -30.7218  -17.9937 C   0  0  0  0  0  0  0  0  0  0  0  0
   -7.6749  -25.9247   -9.2690 C   0  0  0  0  0  0  0  0  0  0  0  0
    4.4845  -32.2473  -10.0506 C   0  0  0  0  0  0  0  0  0  0  0  0
   -1.6408  -30.9023  -16.2831 C   0  0  0  0  0  0  0  0  0  0  0  0
   -4.6268  -29.1404   -8.2097 C   0  0  0  0  0  0  0  0  0  0  0  0
   -4.4432  -29.1174  -12.0218 C   0  0  0  0  0  0  0  0  0  0  0  0
   -3.6692  -28.1247   -5.3864 C   0  0  0  0  0  0  0  0  0  0  0  0
    3.2153  -32.7126  -12.0998 C   0  0  0  0  0  0  0  0  0  0  0  0
    4.7888  -31.1178  -10.9026 O   0  0  0  0  0  0  0  0  0  0  0  0
   -4.7615  -28.3188   -4.3003 C   0  0  0  0  0  0  0  0  0  0  0  0
    0.0728  -31.3867   -8.9501 C   0  0  0  0  0  0  0  0  0  0  0  0
   -4.4083  -27.4054   -6.5090 C   0  0  0  0  0  0  0  0  0  0  0  0
   -6.4264  -28.8278   -6.1185 C   0  0  0  0  0  0  0  0  0  0  0  0
   -5.9465  -29.1358   -4.7405 C   0  0  0  0  0  0  0  0  0  0  0  0
   -3.3812  -29.6518  -10.1127 C   0  0  0  0  0  0  0  0  0  0  0  0
   -2.9033  -30.5656  -16.6612 N   0  0  0  0  0  0  0  0  0  0  0  0
   -5.3543  -28.4909   -7.0500 C   0  0  0  0  0  0  0  0  0  0  0  0
    4.5808  -32.3173  -11.5345 C   0  0  0  0  0  0  0  0  0  0  0  0
   -1.2590  -30.2417  -10.6126 C   0  0  0  0  0  0  0  0  0  0  0  0
   -2.7552  -29.7193  -13.6435 C   0  0  0  0  0  0  0  0  0  0  0  0
    1.0353  -30.8575   -9.9052 O   0  0  0  0  0  0  0  0  0  0  0  0
    3.0727  -32.2174   -9.5069 C   0  0  0  0  0  0  0  0  0  0  0  0
    0.3716  -32.0148  -16.3490 N   0  0  0  0  0  0  0  0  0  0  0  0
   -3.6583  -29.9979  -15.7908 C   0  0  0  0  0  0  0  0  0  0  0  0
   -8.0676  -27.6489   -7.8599 O   0  0  0  0  0  0  0  0  0  0  0  0
  1  6  2  3
  1  8  1  0
  1 23  1  0
  2  5  1  0
  2 29  1  0
  2 37  1  0
  3  5  2  0
  3 23  1  0
  3 33  1  0
  4 11  1  0
  4 33  2  0
  4 37  1  0
  6 13  1  0
  7 19  1  0
  7 22  1  0
  7 41  1  0
  8 24  1  0
  8 33  1  0
  9 20  1  0
 10 17  1  0
 10 26  1  0
 11 24  1  0
 11 38  1  0
 12 15  1  0
 13 20  1  0
 13 43  1  0
 14 19  1  0
 14 41  1  0
 15 18  1  0
 15 38  1  0
 16 38  2  0
 16 42  1  0
 17 39  1  0
 17 40  1  0
 18 22  1  0
 21 36  1  0
 21 40  1  0
 22 34  1  0
 23 35  1  0
 25 28  1  0
 25 30  1  0
 26 36  1  0
 27 36  1  0
 28 32  1  0
 29 39  1  0
 30 35  1  0
 31 32  1  0
 31 35  1  0
 34 42  1  0
M  END
>  <ID>  (1) 
conformer_0

$$$$
