
     RDKit          3D

 39 45  0  0  0  0  0  0  0  0999 V2000
    0.6836  -31.0419   -8.3801 O   0  0  0  0  0  0  0  0  0  0  0  0
   -8.7579  -27.5123   -6.5208 F   0  0  0  0  0  0  0  0  0  0  0  0
   -2.4570  -30.1518   -8.2457 C   0  0  0  0  0  0  0  0  0  0  0  0
    2.1642  -32.1589  -14.8983 C   0  0  0  0  0  0  0  0  0  0  0  0
   -1.5760  -30.4316   -9.3521 C   0  0  0  0  0  0  0  0  0  0  0  0
   -1.1563  -30.4918  -15.0821 C   0  0  0  0  0  0  0  0  0  0  0  0
   -3.3967  -29.3083  -13.2326 C   0  0  0  0  0  0  0  0  0  0  0  0
   -4.3327  -29.6025  -14.3414 N   0  0  0  0  0  0  0  0  0  0  0  0
   -3.2890  -30.9457   -6.0833 N   0  0  0  0  0  0  0  0  0  0  0  0
    1.5533  -31.6915  -11.1998 C   0  0  0  0  0  0  0  0  0  0  0  0
   -6.7340  -28.1496   -7.2292 C   0  0  0  0  0  0  0  0  0  0  0  0
   -7.8549  -27.3874   -7.4358 C   0  0  0  0  0  0  0  0  0  0  0  0
   -8.1262  -26.5683   -8.4733 C   0  0  0  0  0  0  0  0  0  0  0  0
   -0.2339  -31.0580   -9.2642 C   0  0  0  0  0  0  0  0  0  0  0  0
   -3.2077  -29.7305  -10.9406 C   0  0  0  0  0  0  0  0  0  0  0  0
    2.3598  -32.1717  -13.5292 C   0  0  0  0  0  0  0  0  0  0  0  0
   -1.9751  -30.1929  -10.6270 C   0  0  0  0  0  0  0  0  0  0  0  0
   -5.6420  -27.8431   -9.2336 C   0  0  0  0  0  0  0  0  0  0  0  0
    1.0721  -31.6679  -16.7858 C   0  0  0  0  0  0  0  0  0  0  0  0
    1.4385  -31.5421  -12.6880 C   0  0  0  0  0  0  0  0  0  0  0  0
   -2.2637  -30.5880   -6.8743 C   0  0  0  0  0  0  0  0  0  0  0  0
   -3.7335  -29.8884  -12.1823 N   0  0  0  0  0  0  0  0  0  0  0  0
   -2.9067  -30.3264  -16.4195 N   0  0  0  0  0  0  0  0  0  0  0  0
   -3.3645  -29.9452  -15.2107 C   0  0  0  0  0  0  0  0  0  0  0  0
    1.0303  -31.5430  -15.4232 C   0  0  0  0  0  0  0  0  0  0  0  0
   -5.6471  -28.4017   -8.0073 C   0  0  0  0  0  0  0  0  0  0  0  0
    0.3014  -31.4579  -17.8001 N   0  0  0  0  0  0  0  0  0  0  0  0
    0.0980  -30.9193  -14.5579 C   0  0  0  0  0  0  0  0  0  0  0  0
   -1.1249  -30.7792   -6.3127 O   0  0  0  0  0  0  0  0  0  0  0  0
   -3.6666  -29.4915   -8.5750 C   0  0  0  0  0  0  0  0  0  0  0  0
   -1.5607  -30.6309  -16.4046 C   0  0  0  0  0  0  0  0  0  0  0  0
   -2.2470  -29.9454  -14.2123 C   0  0  0  0  0  0  0  0  0  0  0  0
   -7.3932  -26.3505   -9.5856 C   0  0  0  0  0  0  0  0  0  0  0  0
   -3.9582  -29.2378   -9.9034 C   0  0  0  0  0  0  0  0  0  0  0  0
   -4.5771  -29.1732   -7.5296 O   0  0  0  0  0  0  0  0  0  0  0  0
   -0.9412  -30.9850  -17.5914 C   0  0  0  0  0  0  0  0  0  0  0  0
   -6.2388  -26.9941   -9.9381 C   0  0  0  0  0  0  0  0  0  0  0  0
    0.4195  -30.8176  -13.2329 C   0  0  0  0  0  0  0  0  0  0  0  0
    0.1787  -31.7079  -10.5215 C   0  0  0  0  0  0  0  0  0  0  0  0
  1 14  2  0
  2 12  1  0
  3  5  1  0
  3 21  1  0
  3 30  1  0
  4 16  1  0
  4 25  2  0
  5 14  1  0
  5 17  2  0
  6 28  1  0
  6 31  1  0
  6 32  1  0
  7  8  1  0
  7 22  1  0
  7 32  1  0
  8 24  1  0
  9 21  1  0
 10 20  1  0
 10 39  1  0
 11 12  1  0
 11 26  2  0
 12 13  2  0
 13 33  1  0
 14 39  1  0
 15 17  1  0
 15 22  1  0
 15 34  1  0
 16 20  2  0
 18 26  1  0
 18 37  2  0
 19 25  1  0
 19 27  2  0
 20 38  1  0
 21 29  2  0
 23 24  1  0
 23 31  1  0
 24 32  2  0
 25 28  1  0
 26 35  1  0
 27 36  1  0
 28 38  2  0
 30 34  2  0
 30 35  1  0
 31 36  2  0
 33 37  1  0
M  END
>  <ID>  (1) 
conformer_0

$$$$
