
     RDKit          3D

 40 46  0  0  0  0  0  0  0  0999 V2000
   -0.6442  -30.8668   -9.7789 C   0  0  0  0  0  0  0  0  0  0  0  0
   -7.1014  -26.2971   -7.7422 N   0  0  0  0  0  0  0  0  0  0  0  0
    1.5277  -31.7813  -15.4717 O   0  0  0  0  0  0  0  0  0  0  0  0
   -6.7563  -25.4811   -6.6727 C   0  0  0  0  0  0  0  0  0  0  0  0
   -3.5116  -29.8306  -15.0764 N   0  0  0  0  0  0  0  0  0  0  0  0
   -0.3351  -30.7850  -12.4599 C   0  0  0  0  0  3  0  0  0  0  0  0
   -5.4624  -25.5951   -6.2309 C   0  0  0  0  0  0  0  0  0  0  0  0
   -4.8576  -28.5390   -9.7942 C   0  0  0  0  0  0  0  0  0  0  0  0
   -2.4123  -29.7410   -7.3250 C   0  0  0  0  0  0  0  0  0  0  0  0
   -1.4751  -26.6282   -6.8251 C   0  0  0  0  0  0  0  0  0  0  0  0
   -2.3246  -28.8019   -6.2286 N   0  0  0  0  0  0  0  0  0  0  0  0
   -3.8075  -29.3073  -11.9566 N   0  0  0  0  0  0  0  0  0  0  0  0
   -3.0300  -29.2294   -8.5338 C   0  0  0  0  0  0  0  0  0  0  0  0
   -6.1826  -27.1169   -8.3136 C   0  0  0  0  0  0  0  0  0  0  0  0
   -2.6813  -29.7785  -12.6049 C   0  0  0  0  0  0  0  0  0  0  0  0
   -1.4273  -30.4100  -14.5185 N   0  0  0  0  0  0  0  0  0  0  0  0
   -4.1989  -28.3593   -8.4989 C   0  0  0  0  0  0  0  0  0  0  0  0
   -7.6438  -24.6186   -6.1650 O   0  0  0  0  0  0  0  0  0  0  0  0
   -3.1079  -31.0041   -6.7830 C   0  0  0  0  0  0  0  0  0  0  0  0
    0.0475  -31.6634  -17.3743 N   0  0  0  0  0  0  0  0  0  0  0  0
    0.6521  -31.3201  -11.8135 C   0  0  0  0  0  0  0  0  0  0  0  0
    0.6708  -31.2341  -13.0677 C   0  0  0  0  0  0  0  0  0  0  0  0
   -2.5763  -29.9584  -14.0683 C   0  0  0  0  0  0  0  0  0  0  0  0
   -2.2064  -30.7553  -17.1028 C   0  0  0  0  0  0  0  0  0  0  0  0
   -0.5862  -30.9081  -15.2177 C   0  0  0  0  0  0  0  0  0  0  0  0
   -4.9275  -27.3302   -7.7664 C   0  0  0  0  0  0  0  0  0  0  0  0
   -4.5923  -26.5092   -6.7376 C   0  0  0  0  0  0  0  0  0  0  0  0
    0.3152  -31.4536  -16.0386 C   0  0  0  0  0  0  0  0  0  0  0  0
   -3.0873  -30.2564  -16.2958 C   0  0  0  0  0  0  0  0  0  0  0  0
    1.7028  -31.6518  -14.0296 C   0  0  0  0  0  0  0  0  0  0  0  0
   -1.5279  -30.2565  -11.9024 C   0  0  0  0  0  0  0  0  0  0  0  0
    0.4858  -31.4198  -10.3660 C   0  0  0  0  0  0  0  0  0  0  0  0
   -6.2412  -27.8491   -9.6466 C   0  0  0  0  0  0  0  0  0  0  0  0
    2.8483  -31.9588  -13.5666 O   0  0  0  0  0  0  0  0  0  0  0  0
   -8.4848  -26.3118   -8.2854 C   0  0  0  0  0  0  0  0  0  0  0  0
   -2.7543  -29.6050   -9.8683 C   0  0  0  0  0  0  0  0  0  0  0  0
   -1.6591  -30.2255  -10.5044 C   0  0  0  0  0  0  0  0  0  0  0  0
   -3.8433  -29.1882  -10.6189 N   0  0  0  0  0  0  0  0  0  0  0  0
   -1.2194  -27.9468   -6.2503 O   0  0  0  0  0  0  0  0  0  0  0  0
   -1.2338  -31.2968  -17.8068 C   0  0  0  0  0  0  0  0  0  0  0  0
  1 32  1  0
  1 37  1  0
  2  4  1  0
  2 14  1  0
  2 35  1  0
  3 28  1  0
  3 30  1  0
  4  7  1  0
  4 18  2  0
  5 23  1  0
  5 29  1  0
  6 22  1  0
  6 31  2  0
  7 27  2  0
  8 17  1  0
  8 33  1  0
  8 38  1  0
  9 11  1  0
  9 13  1  0
  9 19  1  0
 10 39  1  0
 11 39  1  0
 12 15  1  0
 12 38  1  0
 13 17  1  0
 13 36  1  0
 14 26  2  0
 14 33  1  0
 15 23  2  0
 15 31  1  0
 16 23  1  0
 16 25  1  0
 17 26  1  0
 20 28  2  0
 20 40  1  0
 21 22  2  0
 21 32  2  0
 22 30  1  0
 24 29  2  0
 24 40  2  0
 25 28  1  0
 26 27  1  0
 30 34  2  0
 31 37  1  0
 36 37  2  0
 36 38  1  0
M  END
>  <ID>  (1) 
conformer_0

$$$$
