
     RDKit          3D

 28 32  0  0  0  0  0  0  0  0999 V2000
   -1.9498  -30.5275  -15.2936 C   0  0  0  0  0  0  0  0  0  0  0  0
   -1.3097  -30.8957   -6.9713 C   0  0  0  0  0  0  0  0  0  0  0  0
   -2.8829  -29.8872  -14.3740 C   0  0  0  0  0  0  0  0  0  0  0  0
   -6.0080  -27.9765   -9.8837 C   0  0  0  0  0  0  0  0  0  0  0  0
   -5.5520  -28.1307   -8.5690 C   0  0  0  0  0  0  0  0  0  0  0  0
   -2.5000  -29.7559  -13.0249 C   0  0  0  0  0  0  0  0  0  0  0  0
   -1.9853  -31.0923  -16.6756 C   0  0  0  0  0  0  0  0  0  0  0  0
   -0.8658  -30.2780  -11.3821 C   0  0  0  0  0  0  0  0  0  0  0  0
    1.1141  -30.7259  -13.2477 C   0  0  0  0  0  0  0  0  0  0  0  0
   -3.3680  -29.4397  -11.9622 C   0  0  0  0  0  0  0  0  0  0  0  0
   -0.2584  -30.8202  -10.4725 C   0  0  0  0  0  0  0  0  0  0  0  0
   -0.6082  -30.7352  -14.8356 C   0  0  0  0  0  0  0  0  0  0  0  0
    3.4506  -31.3272  -13.8379 C   0  0  0  0  0  0  0  0  0  0  0  0
    2.0095  -31.1607  -14.2155 C   0  0  0  0  0  0  0  0  0  0  0  0
   -4.0280  -29.0862  -10.7225 C   0  0  0  0  0  0  0  0  0  0  0  0
   -1.4404  -30.5718   -8.3710 C   0  0  0  0  0  0  0  0  0  0  0  0
   -3.9841  -29.5519  -14.8154 O   0  0  0  0  0  0  0  0  0  0  0  0
   -3.2464  -31.0736  -17.1673 N   0  0  0  0  0  0  0  0  0  0  0  0
   -5.2315  -28.4472  -10.8836 C   0  0  0  0  0  0  0  0  0  0  0  0
   -1.1777  -30.1453  -12.6387 C   0  0  0  0  0  0  0  0  0  0  0  0
   -0.3628  -31.0123   -9.1776 C   0  0  0  0  0  0  0  0  0  0  0  0
   -0.2140  -30.5267  -13.5685 C   0  0  0  0  0  0  0  0  0  0  0  0
    0.2070  -31.2277  -15.8066 C   0  0  0  0  0  0  0  0  0  0  0  0
   -4.4127  -28.7496   -8.3518 N   0  0  0  0  0  0  0  0  0  0  0  0
   -0.5911  -31.4466  -17.0146 C   0  0  0  0  0  0  0  0  0  0  0  0
    1.5836  -31.4342  -15.4972 C   0  0  0  0  0  0  0  0  0  0  0  0
   -3.6382  -29.2717   -9.3268 C   0  0  0  0  0  0  0  0  0  0  0  0
   -2.5092  -29.9316   -8.8674 C   0  0  0  0  0  0  0  0  0  0  0  0
  1  3  1  0
  1  7  2  0
  1 12  1  0
  2 16  1  0
  3  6  1  0
  3 17  2  0
  4  5  1  0
  4 19  2  0
  5 24  2  0
  6 10  2  0
  6 20  1  0
  7 18  1  0
  7 25  1  0
  8 11  1  0
  8 20  1  0
  9 14  1  0
  9 22  2  0
 10 15  2  0
 11 21  2  0
 12 22  1  0
 12 23  2  0
 13 14  1  0
 14 26  2  0
 15 19  1  0
 15 27  1  0
 16 21  1  0
 16 28  2  0
 20 22  1  0
 23 25  1  0
 23 26  1  0
 24 27  1  0
 27 28  2  0
M  END
>  <ID>  (1) 
conformer_0

$$$$
