
     RDKit          3D

 34 38  0  0  0  0  0  0  0  0999 V2000
    0.9204  -31.2720  -11.1464 C   0  0  0  0  0  0  0  0  0  0  0  0
   -3.5912  -29.7573  -15.4915 C   0  0  0  0  0  0  0  0  0  0  0  0
   -1.5141  -30.3405  -14.5132 C   0  0  0  0  0  0  0  0  0  0  0  0
   -1.1219  -30.2807  -12.1731 C   0  0  0  0  0  0  0  0  0  0  0  0
   -3.9893  -29.2960  -12.0029 N   0  0  0  0  0  0  0  0  0  0  0  0
    0.3490  -31.0902   -9.9211 N   0  0  0  0  0  0  0  0  0  0  0  0
    0.5995  -31.0549  -13.7016 C   0  0  0  0  0  0  0  0  0  0  0  0
   -3.1995  -29.3562   -9.7440 N   0  0  0  0  0  0  0  0  0  0  0  0
   -2.3252  -30.1856  -15.6521 C   0  0  0  0  0  0  0  0  0  0  0  0
   -2.1055  -29.3701   -7.5571 C   0  0  0  0  0  0  0  0  0  0  0  0
    2.0879  -31.6630  -11.1823 O   0  0  0  0  0  0  0  0  0  0  0  0
   -0.2179  -30.8186  -14.7746 C   0  0  0  0  0  0  0  0  0  0  0  0
   -3.3295  -29.5888  -13.1213 C   0  0  0  0  0  0  0  0  0  0  0  0
   -4.7004  -28.8494   -7.9381 C   0  0  0  0  0  0  0  0  0  0  0  0
   -0.2633  -31.0751   -7.6295 C   0  0  0  0  0  0  0  0  0  0  0  0
    0.1807  -31.0753  -16.0521 C   0  0  0  0  0  0  0  0  0  0  0  0
   -0.3838  -31.1903  -18.3282 C   0  0  0  0  0  0  0  0  0  0  0  0
    0.4455  -31.3833  -17.2720 N   0  0  0  0  0  0  0  0  0  0  0  0
   -3.3791  -29.1942   -8.4235 C   0  0  0  0  0  0  0  0  0  0  0  0
   -4.0985  -29.4689  -14.2870 C   0  0  0  0  0  0  0  0  0  0  0  0
   -5.2431  -28.9890   -6.4622 C   0  0  0  0  0  0  0  0  0  0  0  0
   -5.5836  -28.4473   -8.9269 C   0  0  0  0  0  0  0  0  0  0  0  0
   -1.9745  -30.0599  -13.2379 C   0  0  0  0  0  0  0  0  0  0  0  0
   -4.1524  -29.0870  -10.6749 C   0  0  0  0  0  0  0  0  0  0  0  0
    0.1466  -30.8433  -12.3597 C   0  0  0  0  0  0  0  0  0  0  0  0
    0.8970  -31.3612   -8.5988 C   0  0  0  0  0  0  0  0  0  0  0  0
   -6.6661  -26.9126   -6.1272 C   0  0  0  0  0  0  0  0  0  0  0  0
   -5.3767  -28.5755  -10.2771 C   0  0  0  0  0  0  0  0  0  0  0  0
   -0.9295  -29.9387   -8.2031 N   0  0  0  0  0  0  0  0  0  0  0  0
   -1.5927  -30.7136  -18.0391 N   0  0  0  0  0  0  0  0  0  0  0  0
   -6.6692  -29.7075   -6.5806 C   0  0  0  0  0  0  0  0  0  0  0  0
   -5.5445  -27.7607   -5.6679 N   0  0  0  0  0  0  0  0  0  0  0  0
   -4.4107  -29.9126   -5.5299 C   0  0  0  0  0  0  0  0  0  0  0  0
   -1.9260  -30.4648  -16.8732 C   0  0  0  0  0  0  0  0  0  0  0  0
  1  6  1  0
  1 11  2  0
  1 25  1  0
  2  9  2  0
  2 20  1  0
  3  9  1  0
  3 12  1  0
  3 23  1  0
  4 23  2  0
  4 25  1  0
  5 13  1  0
  5 24  1  0
  6 26  1  0
  7 12  2  0
  7 25  1  0
  8 19  1  0
  8 24  2  0
  9 34  1  0
 10 19  1  0
 10 29  1  0
 12 16  1  0
 13 20  2  0
 13 23  1  0
 14 19  2  0
 14 21  1  0
 14 22  1  0
 15 26  1  0
 15 29  1  0
 16 18  1  0
 17 18  1  0
 17 30  2  0
 21 31  1  0
 21 32  1  0
 21 33  1  0
 22 28  2  0
 24 28  1  0
 27 32  1  0
 30 34  1  0
M  END
>  <ID>  (1) 
conformer_0

$$$$
