
     RDKit          3D

 23 24  0  0  0  0  0  0  0  0999 V2000
   -4.6774  -28.9014  -10.6099 C   0  0  0  0  0  0  0  0  0  0  0  0
    0.3592  -31.4045  -15.7176 C   0  0  0  0  0  0  0  0  0  0  0  0
   -0.9758  -30.5321  -11.1709 O   0  0  0  0  0  0  0  0  0  0  0  0
    1.4945  -31.7713  -15.0240 N   0  0  0  0  0  0  0  0  0  0  0  0
   -3.8858  -29.3471   -9.5408 C   0  0  0  0  0  0  0  0  0  0  0  0
    1.7871  -31.5360  -12.0405 C   0  0  0  0  0  0  0  0  0  0  0  0
   -4.2140  -29.0344  -11.9091 C   0  0  0  0  0  0  0  0  0  0  0  0
   -3.6122  -30.6436   -6.9626 C   0  0  0  0  0  0  0  0  0  0  0  0
   -2.9708  -29.6213  -12.1834 C   0  0  0  0  0  0  0  0  0  0  0  0
   -1.9920  -30.4174  -15.6875 C   0  0  0  0  0  0  0  0  0  0  0  0
   -0.7600  -30.7708  -15.0027 C   0  0  0  0  0  0  0  0  0  0  0  0
    1.9337  -31.7820  -13.6685 C   0  0  0  0  0  0  0  0  0  0  0  0
   -1.0142  -30.4078  -13.6394 C   0  0  0  0  0  0  0  0  0  0  0  0
   -2.1948  -30.0304  -11.0687 C   0  0  0  0  0  0  0  0  0  0  0  0
   -4.1542  -29.5375  -15.1207 O   0  0  0  0  0  0  0  0  0  0  0  0
   -2.1262  -30.7820   -7.5540 C   0  0  0  0  0  0  0  0  0  0  0  0
   -2.9400  -29.9203  -14.7542 C   0  0  0  0  0  0  0  0  0  0  0  0
   -2.3678  -29.9275  -13.4293 C   0  0  0  0  0  0  0  0  0  0  0  0
   -1.7833  -30.4449   -8.8241 O   0  0  0  0  0  0  0  0  0  0  0  0
   -2.6448  -29.9321   -9.7718 C   0  0  0  0  0  0  0  0  0  0  0  0
    0.3095  -31.7142  -16.9896 O   0  0  0  0  0  0  0  0  0  0  0  0
   -2.2628  -30.5541  -17.0015 N   0  0  0  0  0  0  0  0  0  0  0  0
    3.3438  -32.5087  -13.7146 C   0  0  0  0  0  0  0  0  0  0  0  0
  1  5  1  0
  1  7  2  0
  2  4  1  0
  2 11  1  0
  2 21  2  0
  3 14  1  0
  4 12  2  3
  5 20  1  0
  6 12  1  0
  7  9  1  0
  8 16  1  0
  9 14  1  0
  9 18  2  3
 10 11  1  0
 10 17  2  0
 10 22  1  0
 11 13  1  0
 12 23  1  0
 13 18  1  0
 14 20  2  0
 15 17  1  0
 16 19  1  0
 17 18  1  0
 19 20  1  0
M  END
>  <ID>  (1) 
conformer_0

$$$$
