
     RDKit          3D

 30 35  0  0  0  0  0  0  0  0999 V2000
    2.3438  -31.5572  -13.3195 C   0  0  0  0  0  0  0  0  0  0  0  0
   -3.2481  -29.6338  -11.5751 N   0  0  0  0  0  0  0  0  0  0  0  0
   -2.2933  -30.3587   -7.5958 C   0  0  0  0  0  0  0  0  0  0  0  0
   -3.1074  -30.3642   -6.4758 C   0  0  0  0  0  0  0  0  0  0  0  0
   -3.2161  -29.8198  -14.0085 C   0  0  0  0  0  0  0  0  0  0  0  0
   -3.8439  -29.4744  -12.8196 N   0  0  0  0  0  0  0  0  0  0  0  0
   -3.9038  -29.9071  -15.1683 N   0  0  0  0  0  0  0  0  0  0  0  0
    3.6959  -32.3445  -11.1398 O   0  0  0  0  0  0  0  0  0  0  0  0
   -1.2340  -30.4419  -15.1495 C   0  0  0  0  0  0  0  0  0  0  0  0
   -4.4141  -29.8883   -6.5762 C   0  0  0  0  0  0  0  0  0  0  0  0
   -1.1867  -30.9952  -17.4690 C   0  0  0  0  0  0  0  0  0  0  0  0
   -4.8992  -29.4274   -7.7950 C   0  0  0  0  0  0  0  0  0  0  0  0
    3.4851  -32.0196   -9.7419 C   0  0  0  0  0  0  0  0  0  0  0  0
   -3.2264  -30.2772  -16.2121 C   0  0  0  0  0  0  0  0  0  0  0  0
   -4.4777  -29.2645  -10.4895 C   0  0  0  0  0  0  0  0  0  0  0  0
    0.4343  -30.8558  -11.3082 C   0  0  0  0  0  0  0  0  0  0  0  0
   -0.7794  -30.6607  -10.5970 C   0  0  0  0  0  0  0  0  0  0  0  0
   -1.1724  -30.1094  -12.7640 C   0  0  0  0  0  0  0  0  0  0  0  0
    0.1757  -30.5255  -12.6747 C   0  0  0  0  0  0  0  0  0  0  0  0
    1.1974  -30.6945  -13.6152 C   0  0  0  0  0  0  0  0  0  0  0  0
   -1.9074  -30.5522  -16.2673 N   0  0  0  0  0  0  0  0  0  0  0  0
   -2.8112  -29.9358   -8.7566 C   0  0  0  0  0  0  0  0  0  0  0  0
   -4.0744  -29.5241   -8.9594 C   0  0  0  0  0  0  0  0  0  0  0  0
   -1.8402  -30.1101  -14.0033 C   0  0  0  0  0  0  0  0  0  0  0  0
   -1.8640  -30.1180  -11.5479 C   0  0  0  0  0  0  0  0  0  0  0  0
   -6.2331  -27.5360   -9.5062 C   0  0  0  0  0  0  0  0  0  0  0  0
    2.6102  -31.9359  -11.9260 C   0  0  0  0  0  0  0  0  0  0  0  0
    2.0392  -31.5938   -9.6538 C   0  0  0  0  0  0  0  0  0  0  0  0
   -5.8692  -28.5648  -10.4953 O   0  0  0  0  0  0  0  0  0  0  0  0
    1.6702  -31.3879  -10.9972 C   0  0  0  0  0  0  0  0  0  0  0  0
  1 20  1  0
  1 27  1  0
  2  6  1  0
  2 15  1  0
  2 25  1  0
  3  4  2  0
  3 22  1  0
  4 10  1  0
  5  6  2  0
  5  7  1  0
  5 24  1  0
  7 14  2  0
  8 13  1  0
  8 27  1  0
  9 21  1  0
  9 24  2  0
 10 12  2  0
 11 21  1  0
 12 23  1  0
 13 28  1  0
 14 21  1  0
 15 23  1  0
 15 29  1  0
 16 17  1  0
 16 19  2  0
 16 30  1  0
 17 25  1  0
 18 19  1  0
 18 24  1  0
 18 25  1  0
 19 20  1  0
 22 23  2  0
 26 29  1  0
 27 30  1  0
 28 30  1  0
M  END
>  <ID>  (1) 
conformer_0

$$$$
