
     RDKit          3D

 34 38  0  0  0  0  0  0  0  0999 V2000
    1.9545  -32.4053  -11.1205 C   0  0  0  0  0  0  0  0  0  0  0  0
   -1.2280  -30.7802  -16.7478 C   0  0  0  0  0  0  0  0  0  0  0  0
    1.5282  -31.0891  -13.3040 C   0  0  0  0  0  0  0  0  0  0  0  0
    1.6993  -31.3357  -14.6893 C   0  0  0  0  0  0  0  0  0  0  0  0
    4.4753  -31.9753  -10.1053 C   0  0  0  0  0  0  0  0  0  0  0  0
    1.6904  -30.8767   -9.3603 O   0  0  0  0  0  0  0  0  0  0  0  0
   -1.9395  -30.1315  -14.1997 C   0  0  0  0  0  0  0  0  0  0  0  0
   -2.8202  -29.7776  -13.1174 C   0  0  0  0  0  0  0  0  0  0  0  0
   -4.2326  -29.2203  -11.1012 C   0  0  0  0  0  0  0  0  0  0  0  0
   -1.7443  -29.8615   -6.6200 S   0  0  0  0  0  6  0  0  0  0  0  0
   -0.0423  -30.0459  -11.9987 O   0  0  0  0  0  0  0  0  0  0  0  0
   -1.7145  -30.4049  -15.4757 N   0  0  0  0  0  0  0  0  0  0  0  0
   -3.0037  -29.8093   -9.1242 C   0  0  0  0  0  0  0  0  0  0  0  0
   -2.9917  -29.8767  -11.6391 C   0  0  0  0  0  0  0  0  0  0  0  0
   -2.5016  -30.7833   -8.2524 O   0  0  0  0  0  0  0  0  0  0  0  0
    1.3505  -32.0828   -9.8500 C   0  0  0  0  0  0  0  0  0  0  0  0
   -2.4021  -28.2841   -7.3524 C   0  0  0  0  0  0  0  0  0  0  0  0
    3.4427  -32.2805  -10.9997 N   0  0  0  0  0  0  0  0  0  0  0  0
   -4.0720  -29.4410  -13.6879 C   0  0  0  0  0  0  0  0  0  0  0  0
   -2.2128  -28.4862   -8.8863 C   0  0  0  0  0  0  0  0  0  0  0  0
    0.4700  -30.9748  -15.2577 C   0  0  0  0  0  0  0  0  0  0  0  0
    4.4486  -32.5095   -8.8537 O   0  0  0  0  0  0  0  0  0  0  0  0
   -2.0485  -30.7066  -17.8106 N   0  0  0  0  0  0  0  0  0  0  0  0
   -1.2306  -28.9627   -5.2603 O   0  0  0  0  0  0  0  0  0  0  0  0
    0.1100  -31.1635  -16.5990 C   0  0  0  0  0  0  0  0  0  0  0  0
   -4.0002  -29.6858  -15.0077 N   0  0  0  0  0  0  0  0  0  0  0  0
    2.2065  -31.9030  -12.4241 C   0  0  0  0  0  0  0  0  0  0  0  0
   -2.5598  -30.9556   -5.7368 O   0  0  0  0  0  0  0  0  0  0  0  0
   -0.1195  -30.4726   -7.0477 C   0  0  0  0  0  0  0  0  0  0  0  0
   -2.8172  -30.0342  -15.3391 C   0  0  0  0  0  0  0  0  0  0  0  0
    3.6718  -31.9942  -12.4451 C   0  0  0  0  0  0  0  0  0  0  0  0
    0.2322  -30.5679  -13.0865 C   0  0  0  0  0  0  0  0  0  0  0  0
   -4.3778  -29.4354   -9.6289 C   0  0  0  0  0  0  0  0  0  0  0  0
   -0.6008  -30.5178  -14.4006 C   0  0  0  0  0  0  0  0  0  0  0  0
  1 16  1  0
  1 18  1  0
  1 27  1  0
  2 12  1  0
  2 23  2  0
  2 25  1  0
  3  4  1  0
  3 27  1  0
  3 32  1  0
  4 21  1  0
  5 18  1  0
  5 22  1  0
  6 16  1  0
  7  8  1  0
  7 12  1  0
  7 34  2  0
  8 14  1  0
  8 19  1  0
  9 14  1  0
  9 33  1  0
 10 15  1  0
 10 17  1  0
 10 24  1  0
 10 28  1  0
 10 29  1  0
 11 32  2  0
 12 30  1  0
 13 15  1  0
 13 20  1  0
 13 33  1  0
 17 20  1  0
 18 31  1  0
 19 26  1  0
 21 25  1  0
 21 34  1  0
 26 30  1  0
 27 31  1  0
 32 34  1  0
M  END
>  <ID>  (1) 
conformer_0

$$$$
