
     RDKit          3D

 44 49  0  0  0  0  0  0  0  0999 V2000
   -3.0960  -30.2521   -6.8762 C   0  0  0  0  0  0  0  0  0  0  0  0
    0.7190  -31.1798  -16.9971 C   0  0  0  0  0  0  0  0  0  0  0  0
   -3.8124  -29.7944   -8.0920 C   0  0  0  0  0  0  0  0  0  0  0  0
    3.2054  -32.1448  -11.8847 C   0  0  0  0  0  0  0  0  0  0  0  0
   -3.4393  -29.7497   -9.5224 C   0  0  0  0  0  0  0  0  0  0  0  0
    0.6186  -30.6041   -7.0700 C   0  0  0  0  0  0  0  0  0  0  0  0
    4.3717  -33.9402  -13.8047 C   0  0  0  0  0  0  0  0  0  0  0  0
    4.7666  -32.2232  -11.7809 C   0  0  0  0  0  0  0  0  0  0  0  0
   -2.9813  -29.8243  -13.2038 C   0  0  0  0  0  0  0  0  0  0  0  0
   -1.5279  -30.4985  -11.5959 N   0  0  0  0  0  0  0  0  0  0  0  0
    2.6360  -32.2073  -13.1749 C   0  0  0  0  0  0  0  0  0  0  0  0
   -5.5025  -28.7622  -10.0741 C   0  0  0  0  0  0  0  0  0  0  0  0
    4.5252  -31.7495  -14.7660 C   0  0  0  0  0  0  0  0  0  0  0  0
   -4.2531  -29.2684  -10.3969 C   0  0  0  0  0  0  0  0  0  0  0  0
   -2.2546  -30.9188  -17.5478 C   0  0  0  0  0  0  0  0  0  0  0  0
   -1.2708  -30.9030  -18.2541 C   0  0  0  0  0  0  0  0  0  0  0  0
   -3.4068  -27.7990  -14.7160 C   0  0  0  0  0  0  0  0  0  0  0  0
    2.8758  -33.4088  -15.2750 O   0  0  0  0  0  0  0  0  0  0  0  0
   -1.8226  -27.4344  -15.1485 C   0  0  0  0  0  0  0  0  0  0  0  0
    5.1894  -31.8324  -10.4184 C   0  0  0  0  0  0  0  0  0  0  0  0
    1.4800  -31.5666   -9.6317 C   0  0  0  0  0  0  0  0  0  0  0  0
    0.9072  -31.4343  -14.5808 C   0  0  0  0  0  0  0  0  0  0  0  0
   -1.7175  -30.0551   -6.5809 C   0  0  0  0  0  0  0  0  0  0  0  0
    0.0795  -31.0431  -18.0916 C   0  0  0  0  0  0  0  0  0  0  0  0
   -3.6428  -29.3668  -11.8630 C   0  0  0  0  0  0  0  0  0  0  0  0
   -0.2179  -30.9331  -11.2748 C   0  0  0  0  0  0  0  0  0  0  0  0
   -3.0781  -30.8126  -16.5228 C   0  0  0  0  0  0  0  0  0  0  0  0
   -5.5606  -29.5144   -6.5515 O   0  0  0  0  0  0  0  0  0  0  0  0
    0.1244  -30.9796   -9.8576 C   0  0  0  0  0  0  0  0  0  0  0  0
   -0.9834  -31.2736   -8.9045 C   0  0  0  0  0  0  0  0  0  0  0  0
    4.8912  -32.7723   -9.4386 O   0  0  0  0  0  0  0  0  0  0  0  0
    3.5315  -32.8016  -14.2643 C   0  0  0  0  0  0  0  0  0  0  0  0
    1.3445  -31.6350  -13.3271 C   0  0  0  0  0  0  0  0  0  0  0  0
   -2.5847  -30.0281  -10.7783 C   0  0  0  0  0  0  0  0  0  0  0  0
    2.4998  -31.9356  -10.5916 C   0  0  0  0  0  0  0  0  0  0  0  0
   -3.7021  -30.1725  -15.5530 C   0  0  0  0  0  0  0  0  0  0  0  0
   -4.5801  -28.5244  -12.4712 O   0  0  0  0  0  0  0  0  0  0  0  0
    0.7026  -31.2976  -15.7211 C   0  0  0  0  0  0  0  0  0  0  0  0
   -5.1057  -29.3647   -7.7931 C   0  0  0  0  0  0  0  0  0  0  0  0
   -1.7883  -30.4263  -12.9802 C   0  0  0  0  0  0  0  0  0  0  0  0
   -5.9294  -28.8305   -8.7653 C   0  0  0  0  0  0  0  0  0  0  0  0
   -0.8321  -30.8732   -7.4920 C   0  0  0  0  0  0  0  0  0  0  0  0
    0.5948  -31.2852  -12.2981 N   0  0  0  0  0  0  0  0  0  0  0  0
   -3.3829  -29.3103  -14.4969 C   0  0  0  0  0  0  0  0  0  0  0  0
  1  3  1  0
  1 23  1  0
  2 24  2  0
  2 38  1  0
  3  5  1  0
  3 39  1  0
  4  8  1  0
  4 11  1  0
  4 35  2  0
  5 14  2  0
  5 34  1  0
  6 42  1  0
  7 32  1  0
  8 20  1  0
  9 25  1  0
  9 40  1  0
  9 44  1  0
 10 26  1  0
 10 34  1  0
 10 40  1  0
 11 32  1  0
 11 33  2  0
 12 14  1  0
 12 41  1  0
 13 32  1  0
 14 25  1  0
 15 16  2  0
 15 27  2  0
 16 24  1  0
 17 19  1  0
 17 44  1  0
 18 32  1  0
 20 31  1  0
 21 29  1  0
 21 35  2  0
 22 33  1  0
 22 38  3  0
 23 42  1  0
 25 34  1  0
 25 37  1  0
 26 29  1  0
 26 43  2  0
 27 36  1  0
 28 39  1  0
 29 30  1  0
 30 42  1  0
 33 43  1  0
 36 44  1  0
 39 41  2  0
M  END
>  <ID>  (1) 
conformer_0

$$$$
