
     RDKit          3D

 33 36  0  0  0  0  0  0  0  0999 V2000
   -3.1412  -29.6418  -14.4258 C   0  0  0  0  0  0  0  0  0  0  0  0
    2.0292  -31.6417  -14.5455 C   0  0  0  0  0  0  0  0  0  0  0  0
   -2.5013  -30.0826  -11.3348 C   0  0  0  0  0  0  0  0  0  0  0  0
   -3.5350  -29.6194  -12.1670 C   0  0  0  0  0  0  0  0  0  0  0  0
   -2.7559  -29.9355   -9.9297 C   0  0  0  0  0  0  0  0  0  0  0  0
    2.7807  -31.3906  -11.1574 O   0  0  0  0  0  0  0  0  0  0  0  0
   -0.8651  -31.3930   -9.5590 C   0  0  0  0  0  0  0  0  0  0  0  0
   -7.9472  -26.1184   -9.3913 O   0  0  0  0  0  0  0  0  0  0  0  0
   -4.9168  -27.5004   -8.1041 C   0  0  0  0  0  0  0  0  0  0  0  0
   -3.8410  -29.0306   -9.6304 C   0  0  0  0  0  0  0  0  0  0  0  0
    1.6229  -30.9668  -13.2514 C   0  0  0  0  0  0  0  0  0  0  0  0
   -5.8740  -27.8488  -10.2693 C   0  0  0  0  0  0  0  0  0  0  0  0
    2.5840  -31.3895  -17.6569 N   0  0  0  0  0  0  0  0  0  0  0  0
    1.0794  -31.5627  -15.5688 N   0  0  0  0  0  0  0  0  0  0  0  0
   -3.9169  -28.4443   -8.3516 C   0  0  0  0  0  0  0  0  0  0  0  0
    0.4316  -31.1050  -16.6571 C   0  0  0  0  0  0  0  0  0  0  0  0
   -3.9852  -29.8089  -15.4323 N   0  0  0  0  0  0  0  0  0  0  0  0
   -3.5768  -29.1103  -13.2917 N   0  0  0  0  0  0  0  0  0  0  0  0
   -5.8711  -27.1658   -9.0567 C   0  0  0  0  0  0  0  0  0  0  0  0
   -6.8052  -26.0695   -8.8558 C   0  0  0  0  0  0  0  0  0  0  0  0
   -1.9336  -30.6841   -9.0828 C   0  0  0  0  0  0  0  0  0  0  0  0
   -1.3370  -31.0062  -18.2700 C   0  0  0  0  0  0  0  0  0  0  0  0
   -3.3328  -30.4404  -16.4362 C   0  0  0  0  0  0  0  0  0  0  0  0
   -1.9978  -30.6616  -16.0233 C   0  0  0  0  0  0  0  0  0  0  0  0
    1.2880  -30.9876  -17.8443 C   0  0  0  0  0  0  0  0  0  0  0  0
   -1.3550  -30.6851  -11.7233 C   0  0  0  0  0  0  0  0  0  0  0  0
    1.7681  -31.6784  -11.9544 C   0  0  0  0  0  0  0  0  0  0  0  0
   -4.8589  -28.6731  -10.5327 C   0  0  0  0  0  0  0  0  0  0  0  0
   -0.9479  -30.9982  -16.9151 C   0  0  0  0  0  0  0  0  0  0  0  0
   -6.4172  -25.0622   -8.2092 O   0  0  0  0  0  0  0  0  0  0  0  0
   -1.9210  -30.1961  -14.7565 C   0  0  0  0  0  0  0  0  0  0  0  0
    0.6218  -32.0981  -11.3323 N   0  0  0  0  0  0  0  0  0  0  0  0
   -0.4974  -31.3963  -10.9064 C   0  0  0  0  0  0  0  0  0  0  0  0
  1 17  2  0
  1 18  1  0
  1 31  1  0
  2 11  1  0
  2 14  1  0
  3  4  1  0
  3  5  1  0
  3 26  2  0
  4 18  1  0
  5 10  1  0
  5 21  1  0
  6 27  2  0
  7 21  2  0
  7 33  1  0
  8 20  2  0
  9 15  2  0
  9 19  1  0
 10 15  1  0
 10 28  2  0
 11 27  1  0
 12 19  2  0
 12 28  1  0
 13 25  1  0
 14 16  1  0
 16 25  1  0
 16 29  1  0
 17 23  1  0
 19 20  1  0
 20 30  1  0
 22 29  1  0
 23 24  1  0
 24 29  1  0
 24 31  1  0
 26 33  1  0
 27 32  1  0
 32 33  1  0
M  END
>  <ID>  (1) 
conformer_0

$$$$
