
     RDKit          3D

 52 60  0  0  0  0  0  0  0  0999 V2000
   -3.1537  -29.8450  -14.9471 C   0  0  0  0  0  0  0  0  0  0  0  0
   -7.8378  -27.2360   -8.1592 C   0  0  0  0  0  0  0  0  0  0  0  0
    2.8705  -32.3896  -11.3961 C   0  0  0  0  0  0  0  0  0  0  0  0
   -2.2419  -30.4738   -9.2577 C   0  0  0  0  0  0  0  0  0  0  0  0
    1.1005  -31.3296  -12.6676 C   0  0  0  0  0  0  0  0  0  0  0  0
    3.6365  -31.6798  -14.1292 C   0  0  0  0  0  0  0  0  0  0  0  0
   -5.3794  -28.7785   -9.9340 C   0  0  0  0  0  0  0  0  0  0  0  0
   -0.0209  -30.8773  -14.8627 C   0  0  0  0  0  0  0  0  0  0  0  0
    1.4021  -31.1346  -15.0476 C   0  0  0  0  0  0  0  0  0  0  0  0
    3.7175  -33.6696   -9.4440 C   0  0  0  0  0  0  0  0  0  0  0  0
    3.8349  -33.2214   -7.9461 C   0  0  0  0  0  0  0  0  0  0  0  0
   -2.9250  -31.0505   -6.1730 O   0  0  0  0  0  0  0  0  0  0  0  0
   -2.2323  -30.5878  -17.3253 C   0  0  0  0  0  0  0  0  0  0  0  0
   -4.7418  -29.2304  -12.8250 O   0  0  0  0  0  0  0  0  0  0  0  0
   -8.6305  -26.1930   -7.8930 C   0  0  0  0  0  0  0  0  0  0  0  0
   -2.1785  -30.6967  -10.6765 C   0  0  0  0  0  0  0  0  0  0  0  0
    4.5704  -30.9734  -13.1317 C   0  0  0  0  0  0  0  0  0  0  0  0
   -4.1890  -29.2289  -15.4339 O   0  0  0  0  0  0  0  0  0  0  0  0
   -3.3309  -29.5755   -8.9630 C   0  0  0  0  0  0  0  0  0  0  0  0
   -4.0734  -29.3920  -10.2361 C   0  0  0  0  0  0  0  0  0  0  0  0
   -6.1549  -25.6885   -8.7557 N   0  0  0  0  0  0  0  0  0  0  0  0
   -2.1512  -30.1672   -6.8900 C   0  0  0  0  0  0  0  0  0  0  0  0
   -6.9921  -24.7005   -8.4783 C   0  0  0  0  0  0  0  0  0  0  0  0
   -0.0882  -30.4143  -12.6150 C   0  0  0  0  0  0  0  0  0  0  0  0
    2.1355  -31.9655   -9.1349 C   0  0  0  0  0  0  0  0  0  0  0  0
   -1.0758  -30.3796  -13.7886 C   0  0  0  0  0  0  0  0  0  0  0  0
    2.6015  -30.9225   -8.2487 O   0  0  0  0  0  0  0  0  0  0  0  0
    4.1024  -30.8271   -8.3511 C   0  0  0  0  0  0  0  0  0  0  0  0
   -0.1160  -31.3770   -8.5491 C   0  0  0  0  0  0  0  0  0  0  0  0
    4.1360  -31.0482  -15.4760 C   0  0  0  0  0  0  0  0  0  0  0  0
    3.2653  -32.3431  -10.0289 C   0  0  0  0  0  0  0  0  0  0  0  0
   -0.9226  -30.2261  -15.3350 C   0  0  0  0  0  0  0  0  0  0  0  0
    1.6424  -31.7413  -16.3793 C   0  0  0  0  0  0  0  0  0  0  0  0
   -5.5062  -28.0548   -8.6544 C   0  0  0  0  0  0  0  0  0  0  0  0
    4.7792  -32.0668   -8.0730 O   0  0  0  0  0  0  0  0  0  0  0  0
   -2.2155  -30.3375  -15.9272 C   0  0  0  0  0  0  0  0  0  0  0  0
    2.1224  -31.4013  -13.7932 C   0  0  0  0  0  0  0  0  0  0  0  0
    0.8302  -31.7104   -9.8377 C   0  0  0  0  0  0  0  0  0  0  0  0
   -6.5392  -26.9838   -8.5367 C   0  0  0  0  0  0  0  0  0  0  0  0
   -0.5881  -30.2344   -4.9633 N   0  0  0  0  0  0  0  0  0  0  0  0
   -0.8503  -30.9505  -17.8442 C   0  0  0  0  0  0  0  0  0  0  0  0
    0.1197  -32.3915   -7.5122 O   0  0  0  0  0  0  0  0  0  0  0  0
   -2.5717  -30.0630  -13.5926 C   0  0  0  0  0  0  0  0  0  0  0  0
   -3.6674  -29.9423  -12.5948 C   0  0  0  0  0  0  0  0  0  0  0  0
    0.3990  -31.5169  -17.2268 N   0  0  0  0  0  0  0  0  0  0  0  0
   -1.4818  -30.7675   -8.0784 C   0  0  0  0  0  0  0  0  0  0  0  0
    3.8433  -33.2281  -14.1759 C   0  0  0  0  0  0  0  0  0  0  0  0
    1.3200  -32.1159  -11.3788 C   0  0  0  0  0  0  0  0  0  0  0  0
   -1.1741  -29.4168   -6.0279 C   0  0  0  0  0  0  0  0  0  0  0  0
   -3.3808  -30.1652  -11.2303 C   0  0  0  0  0  0  0  0  0  0  0  0
   -3.1731  -29.1562   -7.5388 C   0  0  0  0  0  0  0  0  0  0  0  0
   -8.2327  -24.9224   -8.0734 N   0  0  0  0  0  0  0  0  0  0  0  0
  1 18  1  0
  1 36  1  0
  1 43  1  0
  2 15  2  0
  2 39  1  0
  3 31  1  0
  3 48  1  0
  4 16  1  0
  4 19  1  0
  4 46  2  0
  5 24  1  0
  5 37  1  0
  5 48  1  0
  6 17  1  0
  6 30  1  0
  6 37  1  0
  6 47  1  0
  7 20  1  0
  7 34  1  0
  8  9  1  0
  8 32  1  0
  9 33  1  0
  9 37  1  0
 10 11  1  0
 10 31  1  0
 11 35  1  0
 12 22  1  0
 13 36  1  0
 13 41  1  0
 14 44  1  0
 15 52  1  0
 16 50  1  0
 19 20  1  0
 19 51  1  0
 20 50  1  0
 21 23  1  0
 21 39  2  0
 22 46  1  0
 22 49  1  0
 22 51  1  0
 23 52  2  0
 24 26  1  0
 25 27  1  0
 25 31  1  0
 25 38  1  0
 26 32  1  0
 26 43  2  0
 27 28  1  0
 28 35  1  0
 29 38  1  0
 29 42  1  0
 29 46  1  0
 32 36  1  0
 33 45  1  0
 34 39  1  0
 38 48  1  0
 40 49  1  0
 41 45  1  0
 43 44  1  0
 44 50  1  0
M  END
>  <ID>  (1) 
conformer_0

$$$$
