
     RDKit          3D

 27 29  0  0  0  0  0  0  0  0999 V2000
    0.9613  -31.6630  -15.6165 C   0  0  0  0  0  0  0  0  0  0  0  0
    2.3726  -31.0780  -13.3712 C   0  0  0  0  0  0  0  0  0  0  0  0
   -3.3332  -29.4972  -11.4650 C   0  0  0  0  0  0  0  0  0  0  0  0
    3.0679  -31.4470  -14.5720 C   0  0  0  0  0  0  0  0  0  0  0  0
   -2.7547  -28.9883   -6.9114 O   0  0  0  0  0  0  0  0  0  0  0  0
   -4.8199  -30.3042   -5.1851 C   0  0  0  0  0  0  0  0  0  0  0  0
   -4.1459  -29.3860  -15.5309 O   0  0  0  0  0  0  0  0  0  0  0  0
   -3.6377  -29.1555   -7.7705 C   0  0  0  0  0  0  0  0  0  0  0  0
   -1.8537  -31.5929  -17.2071 C   0  0  0  0  0  0  0  0  0  0  0  0
   -3.3762  -29.5799  -12.8429 C   0  0  0  0  0  0  0  0  0  0  0  0
   -2.0171  -29.8589  -11.0643 N   0  0  0  0  0  0  0  0  0  0  0  0
   -5.6338  -30.1249   -6.5622 C   0  0  0  0  0  0  0  0  0  0  0  0
   -2.0906  -30.1996  -14.7293 N   0  0  0  0  0  0  0  0  0  0  0  0
   -3.0477  -29.9975  -15.6674 C   0  0  0  0  0  0  0  0  0  0  0  0
   -3.2820  -29.3527   -9.1762 C   0  0  0  0  0  0  0  0  0  0  0  0
   -0.5633  -30.9250  -18.0082 C   0  0  0  0  0  0  0  0  0  0  0  0
   -1.2445  -30.1667  -12.2473 N   0  0  0  0  0  0  0  0  0  0  0  0
   -2.1520  -29.9991  -13.3702 C   0  0  0  0  0  0  0  0  0  0  0  0
    2.3405  -31.7581  -15.7331 C   0  0  0  0  0  0  0  0  0  0  0  0
    0.1728  -30.5421  -12.1016 C   0  0  0  0  0  0  0  0  0  0  0  0
   -4.1170  -29.1789  -10.3322 C   0  0  0  0  0  0  0  0  0  0  0  0
   -2.7831  -30.5136  -16.9358 N   0  0  0  0  0  0  0  0  0  0  0  0
    0.9472  -30.9533  -13.3154 C   0  0  0  0  0  0  0  0  0  0  0  0
    0.3366  -31.2670  -14.4848 C   0  0  0  0  0  0  0  0  0  0  0  0
   -2.0011  -29.7814   -9.6380 C   0  0  0  0  0  0  0  0  0  0  0  0
    0.5792  -31.3582  -10.8442 C   0  0  0  0  0  0  0  0  0  0  0  0
   -4.9663  -29.1754   -7.4873 N   0  0  0  0  0  0  0  0  0  0  0  0
  1 19  2  0
  1 24  1  0
  2  4  2  0
  2 23  1  0
  3 10  1  0
  3 11  1  0
  3 21  1  0
  4 19  1  0
  5  8  2  0
  6 12  1  0
  7 14  2  0
  8 15  1  0
  8 27  1  0
  9 16  1  0
  9 22  1  0
 10 18  1  0
 11 17  1  0
 11 25  1  0
 12 27  1  0
 13 14  1  0
 13 18  2  3
 14 22  1  0
 15 21  1  0
 15 25  1  0
 17 18  1  0
 17 20  1  0
 20 23  1  0
 20 26  1  0
 23 24  2  0
M  END
>  <ID>  (1) 
conformer_0

$$$$
