
     RDKit          3D

 37 41  0  0  0  0  0  0  0  0999 V2000
   -8.9603  -26.1779   -9.4926 O   0  0  0  0  0  0  0  0  0  0  0  0
   -8.0146  -25.8044   -8.7970 C   0  0  0  0  0  0  0  0  0  0  0  0
   -5.0781  -29.1290   -7.2960 C   0  0  0  0  0  0  0  0  0  0  0  0
   -3.0199  -29.7667  -13.1760 C   0  0  0  0  0  0  0  0  0  0  0  0
   -5.8124  -29.0473   -6.1541 O   0  0  0  0  0  0  0  0  0  0  0  0
    0.7535  -30.9936  -11.0266 C   0  0  0  0  0  0  0  0  0  0  0  0
   -0.7360  -31.0180  -10.5483 C   0  0  0  0  0  0  0  0  0  0  0  0
   -4.2219  -29.4485  -15.4798 O   0  0  0  0  0  0  0  0  0  0  0  0
    2.9055  -32.1728  -15.0436 N   0  0  0  0  0  0  0  0  0  0  0  0
    2.9473  -31.9752  -12.8532 C   0  0  0  0  0  0  0  0  0  0  0  0
    0.8359  -31.3482  -15.5882 N   0  0  0  0  0  0  0  0  0  0  0  0
    3.7063  -32.3539  -13.9335 N   0  0  0  0  0  0  0  0  0  0  0  0
   -1.1753  -30.6905  -16.7303 C   0  0  0  0  0  0  0  0  0  0  0  0
   -7.9711  -25.1644   -7.7858 O   0  0  0  0  0  0  0  0  0  0  0  0
   -0.6347  -31.0731  -18.0199 C   0  0  0  0  0  0  0  0  0  0  0  0
    1.7202  -31.6444  -14.6731 C   0  0  0  0  0  0  0  0  0  0  0  0
   -3.7531  -29.5178  -12.1120 C   0  0  0  0  0  0  0  0  0  0  0  0
   -6.7728  -27.7278   -8.3832 C   0  0  0  0  0  0  0  0  0  0  0  0
   -3.0498  -29.8756  -15.4932 C   0  0  0  0  0  0  0  0  0  0  0  0
    0.6628  -31.0875  -12.4829 C   0  0  0  0  0  0  0  0  0  0  0  0
   -0.4136  -30.8295  -15.5585 C   0  0  0  0  0  0  0  0  0  0  0  0
   -3.0415  -29.7727  -10.8961 C   0  0  0  0  0  0  0  0  0  0  0  0
   -4.8271  -28.7074   -9.6189 C   0  0  0  0  0  0  0  0  0  0  0  0
    1.7367  -31.5562  -13.3172 C   0  0  0  0  0  0  0  0  0  0  0  0
   -2.3405  -30.0099  -14.3263 N   0  0  0  0  0  0  0  0  0  0  0  0
   -1.0112  -30.4465  -14.3442 C   0  0  0  0  0  0  0  0  0  0  0  0
   -3.1543  -29.9543   -8.4755 C   0  0  0  0  0  0  0  0  0  0  0  0
   -3.8694  -29.8230   -7.3322 C   0  0  0  0  0  0  0  0  0  0  0  0
   -2.4253  -30.2113  -16.6429 N   0  0  0  0  0  0  0  0  0  0  0  0
   -6.6212  -30.2319   -5.9877 C   0  0  0  0  0  0  0  0  0  0  0  0
    3.2147  -32.5574  -16.3930 C   0  0  0  0  0  0  0  0  0  0  0  0
   -0.4037  -30.5112  -13.0536 C   0  0  0  0  0  0  0  0  0  0  0  0
   -6.6948  -26.4920   -9.2537 C   0  0  0  0  0  0  0  0  0  0  0  0
   -1.8322  -30.3008  -10.9008 N   0  0  0  0  0  0  0  0  0  0  0  0
    0.1109  -32.1448  -10.3474 C   0  0  0  0  0  0  0  0  0  0  0  0
   -3.6856  -29.4565   -9.6603 C   0  0  0  0  0  0  0  0  0  0  0  0
   -5.5531  -28.5327   -8.4559 C   0  0  0  0  0  0  0  0  0  0  0  0
  1  2  2  0
  2 14  1  0
  2 33  1  0
  3  5  1  0
  3 28  1  0
  3 37  2  0
  4 17  1  0
  4 25  1  0
  5 30  1  0
  6 20  1  0
  6 35  1  0
  7 34  1  0
  7 35  1  0
  8 19  2  0
  9 12  1  0
  9 16  1  0
  9 31  1  0
 10 12  1  0
 10 24  1  0
 11 16  2  0
 11 21  1  0
 13 15  1  0
 13 21  1  0
 13 29  2  0
 16 24  1  0
 17 22  1  0
 18 33  1  0
 18 37  1  0
 19 25  1  0
 19 29  1  0
 20 24  2  0
 20 32  1  0
 21 26  1  0
 22 34  1  0
 22 36  2  3
 23 36  1  0
 23 37  1  0
 25 26  1  0
 26 32  2  0
 27 28  2  0
 27 36  1  0
M  END
>  <ID>  (1) 
conformer_0

$$$$
