
     RDKit          3D

 33 37  0  0  0  0  0  0  0  0999 V2000
   -5.5027  -28.6293   -9.0934 C   0  0  0  0  0  0  0  0  0  0  0  0
    1.3409  -31.2495  -16.8004 C   0  0  0  0  0  0  0  0  0  0  0  0
    2.2795  -31.6338  -13.1421 C   0  0  0  0  0  0  0  0  0  0  0  0
    1.4319  -31.7815  -15.3735 C   0  0  0  0  0  0  0  0  0  0  0  0
   -6.9217  -27.8603   -6.0239 O   0  0  0  0  0  0  0  0  0  0  0  0
   -1.1358  -30.7396  -17.5824 C   0  0  0  0  0  0  0  0  0  0  0  0
   -6.5400  -28.5307   -6.9472 C   0  0  0  0  0  0  0  0  0  0  0  0
    2.7017  -31.8154  -14.6032 C   0  0  0  0  0  0  0  0  0  0  0  0
   -1.7519  -30.4288  -13.9315 C   0  0  0  0  0  0  0  0  0  0  0  0
   -2.8477  -30.0821  -15.8718 N   0  0  0  0  0  0  0  0  0  0  0  0
   -0.8621  -30.7361  -15.0396 C   0  0  0  0  0  0  0  0  0  0  0  0
   -6.8013  -30.5287   -5.4862 C   0  0  0  0  0  0  0  0  0  0  0  0
    0.1739  -31.4487  -17.7275 C   0  0  0  0  0  0  0  0  0  0  0  0
   -5.9241  -29.9512   -6.6900 C   0  0  0  0  0  0  0  0  0  0  0  0
    0.3168  -31.2117   -9.4102 C   0  0  0  0  0  0  0  0  0  0  0  0
   -1.9531  -30.3197  -12.4823 C   0  0  0  0  0  0  0  0  0  0  0  0
   -1.2687  -30.4417  -11.2124 C   0  0  0  0  0  0  0  0  0  0  0  0
   -2.9792  -29.9947  -14.5235 C   0  0  0  0  0  0  0  0  0  0  0  0
   -1.6062  -30.5303  -16.2052 C   0  0  0  0  0  0  0  0  0  0  0  0
   -0.0997  -31.3219  -10.8437 C   0  0  0  0  0  0  0  0  0  0  0  0
    1.0278  -30.8275  -13.2427 C   0  0  0  0  0  0  0  0  0  0  0  0
   -1.8649  -29.9779   -9.9733 C   0  0  0  0  0  0  0  0  0  0  0  0
   -3.9085  -29.7096  -13.5973 N   0  0  0  0  0  0  0  0  0  0  0  0
   -0.2391  -31.5485   -5.7564 C   0  0  0  0  0  0  0  0  0  0  0  0
   -3.2838  -29.8250  -12.4079 C   0  0  0  0  0  0  0  0  0  0  0  0
   -3.1561  -29.3911  -10.0211 C   0  0  0  0  0  0  0  0  0  0  0  0
    0.4446  -31.1484  -14.5413 C   0  0  0  0  0  0  0  0  0  0  0  0
   -5.7313  -28.2813  -10.5186 C   0  0  0  0  0  0  0  0  0  0  0  0
   -3.8885  -29.4217  -11.2190 C   0  0  0  0  0  0  0  0  0  0  0  0
   -0.4831  -31.6685   -8.1600 C   0  0  0  0  0  0  0  0  0  0  0  0
    0.5340  -31.3330   -7.0075 C   0  0  0  0  0  0  0  0  0  0  0  0
   -5.1471  -29.1343  -11.4393 N   0  0  0  0  0  0  0  0  0  0  0  0
   -6.6031  -28.2032   -8.3186 N   0  0  0  0  0  0  0  0  0  0  0  0
  1 28  1  0
  1 33  1  0
  2  4  1  0
  2 13  1  0
  3  8  1  0
  3 21  1  0
  4  8  1  0
  4 27  1  0
  5  7  2  0
  6 13  1  0
  6 19  1  0
  7 14  1  0
  7 33  1  0
  9 11  1  0
  9 16  1  0
  9 18  2  0
 10 18  1  0
 10 19  1  0
 11 19  2  0
 11 27  1  0
 12 14  1  0
 15 20  1  0
 15 30  1  0
 16 17  1  0
 16 25  1  0
 17 20  1  0
 17 22  1  0
 18 23  1  0
 21 27  1  0
 22 26  2  0
 23 25  1  0
 24 31  1  0
 25 29  2  0
 26 29  1  0
 28 32  1  0
 29 32  1  0
 30 31  1  0
M  END
>  <ID>  (1) 
conformer_0

$$$$
