
     RDKit          3D

 30 33  0  0  0  0  0  0  0  0999 V2000
   -5.3168  -28.3173  -11.1786 C   0  0  0  0  0  0  0  0  0  0  0  0
   -0.2934  -31.5540   -9.8644 C   0  0  0  0  0  0  0  0  0  0  0  0
   -4.1211  -29.1035  -11.0358 C   0  0  0  0  0  0  0  0  0  0  0  0
    3.1237  -31.6582  -16.3891 C   0  0  0  0  0  0  0  0  0  0  0  0
    0.6192  -30.9855  -15.1729 C   0  0  0  0  0  0  0  0  0  0  0  0
    0.3641  -31.4299   -8.5113 C   0  0  0  0  0  0  0  0  0  0  0  0
   -1.9521  -30.2023  -12.5644 C   0  0  0  0  0  0  0  0  0  0  0  0
    0.8616  -31.1317  -10.5819 C   0  0  0  0  0  0  0  0  0  0  0  0
   -0.6373  -30.5186  -14.5172 C   0  0  0  0  0  0  0  0  0  0  0  0
   -2.9061  -29.6489  -13.2963 N   0  0  0  0  0  0  0  0  0  0  0  0
    0.7917  -31.0168  -16.5734 C   0  0  0  0  0  0  0  0  0  0  0  0
    2.1471  -31.2510  -18.5504 Cl  0  0  0  0  0  0  0  0  0  0  0  0
   -3.5358  -29.3934  -12.2551 N   0  0  0  0  0  0  0  0  0  0  0  0
    1.3038  -31.3296  -11.5916 O   0  0  0  0  0  0  0  0  0  0  0  0
   -0.7784  -30.5451  -13.1890 N   0  0  0  0  0  0  0  0  0  0  0  0
   -3.8215  -29.3745   -9.6913 C   0  0  0  0  0  0  0  0  0  0  0  0
    1.6659  -31.3026   -9.4082 N   0  0  0  0  0  0  0  0  0  0  0  0
   -3.9442  -29.9563  -15.5127 O   0  0  0  0  0  0  0  0  0  0  0  0
    1.7286  -31.3706  -14.3993 C   0  0  0  0  0  0  0  0  0  0  0  0
   -1.6503  -30.0766  -15.2611 C   0  0  0  0  0  0  0  0  0  0  0  0
    2.9518  -31.6876  -14.9831 C   0  0  0  0  0  0  0  0  0  0  0  0
   -2.3711  -31.5139   -9.0719 O   0  0  0  0  0  0  0  0  0  0  0  0
   -3.0687  -28.2379  -15.1895 O   0  0  0  0  0  0  0  0  0  0  0  0
   -1.9388  -30.5732  -11.2686 N   0  0  0  0  0  0  0  0  0  0  0  0
   -2.8809  -29.4680  -14.7985 C   0  0  0  0  0  0  0  0  0  0  0  0
   -4.5052  -28.9518   -8.6133 C   0  0  0  0  0  0  0  0  0  0  0  0
   -6.0146  -27.8782  -10.0947 C   0  0  0  0  0  0  0  0  0  0  0  0
   -1.6889  -31.1509  -10.0898 C   0  0  0  0  0  0  0  0  0  0  0  0
   -5.6359  -28.1648   -8.7971 C   0  0  0  0  0  0  0  0  0  0  0  0
    2.0100  -31.3085  -17.1512 C   0  0  0  0  0  0  0  0  0  0  0  0
  1  3  1  0
  1 27  2  0
  2  6  1  0
  2  8  1  0
  2 28  1  0
  3 13  1  0
  3 16  1  0
  4 21  1  0
  4 30  1  0
  5  9  1  0
  5 11  1  0
  5 19  1  0
  6 17  1  0
  7 10  1  0
  7 15  2  0
  7 24  1  0
  8 14  2  0
  8 17  1  0
  9 15  1  0
  9 20  2  0
 10 13  1  0
 10 25  1  0
 11 30  2  0
 12 30  1  0
 16 26  2  0
 18 25  1  0
 19 21  2  0
 20 25  1  0
 22 28  2  0
 23 25  1  0
 24 28  1  0
 26 29  1  0
 27 29  1  0
M  END
>  <ID>  (1) 
conformer_0

$$$$
