
     RDKit          3D

 36 43  0  0  0  0  0  0  0  0999 V2000
    2.2278  -30.9481  -14.1904 C   0  0  0  0  0  0  0  0  0  0  0  0
   -5.4950  -28.8240   -7.7938 C   0  0  0  0  0  0  0  0  0  0  0  0
   -7.7605  -27.6487   -6.9840 C   0  0  0  0  0  0  0  0  0  0  0  0
   -0.2733  -31.4832  -10.7300 C   0  0  0  0  0  0  0  0  0  0  0  0
    3.0189  -30.7238  -13.4168 O   0  0  0  0  0  0  0  0  0  0  0  0
   -1.2949  -31.4058   -8.5845 C   0  0  0  0  0  0  0  0  0  0  0  0
    0.5792  -31.1410  -15.8830 C   0  0  0  0  0  0  0  0  0  0  0  0
    0.1790  -31.2337  -17.1966 C   0  0  0  0  0  0  0  0  0  0  0  0
   -6.3344  -28.1142   -6.6330 C   0  0  0  0  0  0  0  0  0  0  0  0
   -3.4581  -29.4173  -12.3267 C   0  0  0  0  0  0  0  0  0  0  0  0
   -1.6025  -30.4355  -15.3146 C   0  0  0  0  0  0  0  0  0  0  0  0
   -6.6700  -27.0532   -9.0349 C   0  0  0  0  0  0  0  0  0  0  0  0
   -6.4400  -28.4411   -8.8733 N   0  0  0  0  0  0  0  0  0  0  0  0
   -0.3148  -30.6540  -14.8319 C   0  0  0  0  0  0  0  0  0  0  0  0
    1.9405  -31.3136  -15.4754 C   0  0  0  0  0  0  0  0  0  0  0  0
    4.2493  -31.8561  -15.2597 C   0  0  0  0  0  0  0  0  0  0  0  0
   -2.6178  -30.0093  -14.4956 C   0  0  0  0  0  0  0  0  0  0  0  0
   -2.2825  -30.2426  -10.3895 C   0  0  0  0  0  0  0  0  0  0  0  0
   -3.2673  -30.0801   -8.1141 C   0  0  0  0  0  0  0  0  0  0  0  0
   -1.2552  -30.6866  -11.2197 C   0  0  0  0  0  0  0  0  0  0  0  0
   -1.2207  -30.3445  -12.6397 C   0  0  0  0  0  0  0  0  0  0  0  0
   -4.4371  -29.1407  -10.0704 C   0  0  0  0  0  0  0  0  0  0  0  0
   -3.7602  -29.9520  -15.1939 N   0  0  0  0  0  0  0  0  0  0  0  0
   -3.3601  -30.3004  -16.4767 N   0  0  0  0  0  0  0  0  0  0  0  0
   -2.0560  -30.5886  -16.6023 C   0  0  0  0  0  0  0  0  0  0  0  0
   -0.2984  -31.8623   -9.4334 C   0  0  0  0  0  0  0  0  0  0  0  0
   -3.3343  -30.7142   -6.8748 C   0  0  0  0  0  0  0  0  0  0  0  0
   -4.2900  -29.2823   -8.6342 C   0  0  0  0  0  0  0  0  0  0  0  0
   -0.1873  -30.5661  -13.4820 N   0  0  0  0  0  0  0  0  0  0  0  0
   -2.4332  -29.8484  -13.1303 C   0  0  0  0  0  0  0  0  0  0  0  0
    3.0064  -32.0447  -16.0892 C   0  0  0  0  0  0  0  0  0  0  0  0
   -1.0953  -30.8305  -17.5771 C   0  0  0  0  0  0  0  0  0  0  0  0
   -2.2880  -30.5652   -9.0271 C   0  0  0  0  0  0  0  0  0  0  0  0
   -3.3936  -29.4924  -10.9386 C   0  0  0  0  0  0  0  0  0  0  0  0
    3.9704  -30.9651  -14.1957 C   0  0  0  0  0  0  0  0  0  0  0  0
   -7.7959  -26.7571   -8.1711 N   0  0  0  0  0  0  0  0  0  0  0  0
  1  5  1  0
  1 15  1  0
  2  9  1  0
  2 13  1  0
  2 28  1  0
  3  9  1  0
  3 36  1  0
  4 20  2  0
  4 26  1  0
  5 35  1  0
  6 26  2  0
  6 33  1  0
  7  8  2  0
  7 14  1  0
  7 15  1  0
  8 32  1  0
 10 30  2  0
 10 34  1  0
 11 14  1  0
 11 17  2  0
 11 25  1  0
 12 13  1  0
 12 36  1  0
 14 29  2  0
 15 31  1  0
 16 31  1  0
 16 35  1  0
 17 23  1  0
 17 30  1  0
 18 20  1  0
 18 33  2  0
 18 34  1  0
 19 27  1  0
 19 28  1  0
 19 33  1  0
 20 21  1  0
 21 29  1  0
 21 30  1  0
 22 28  1  0
 22 34  2  0
 23 24  1  0
 24 25  1  0
 25 32  1  0
M  END
>  <ID>  (1) 
conformer_0

$$$$
