
     RDKit          3D

 27 32  0  0  0  0  0  0  0  0999 V2000
   -1.1865  -30.6575  -16.4542 C   0  0  0  0  0  0  0  0  0  0  0  0
   -4.7212  -29.4079   -8.9998 C   0  0  0  0  0  0  0  0  0  0  0  0
   -2.8836  -29.7204  -12.2604 C   0  0  0  0  0  0  0  0  0  0  0  0
   -3.2373  -29.6228  -10.9006 C   0  0  0  0  0  0  0  0  0  0  0  0
   -3.7082  -30.0039   -8.2232 C   0  0  0  0  0  0  0  0  0  0  0  0
    3.5583  -31.9746  -10.5743 C   0  0  0  0  0  0  0  0  0  0  0  0
    2.8492  -31.6958   -9.4106 N   0  0  0  0  0  0  0  0  0  0  0  0
   -2.5097  -30.0860  -14.4746 C   0  0  0  0  0  0  0  0  0  0  0  0
   -4.0730  -30.4802   -6.6248 Cl  0  0  0  0  0  0  0  0  0  0  0  0
   -1.0914  -30.7444  -17.9388 C   0  0  0  0  0  0  0  0  0  0  0  0
   -2.4595  -30.2934  -15.8581 C   0  0  0  0  0  0  0  0  0  0  0  0
    1.6668  -31.2955  -11.8468 C   0  0  0  0  0  0  0  0  0  0  0  0
   -1.3594  -30.3380  -13.7745 C   0  0  0  0  0  0  0  0  0  0  0  0
   -1.5389  -30.1643  -12.4208 N   0  0  0  0  0  0  0  0  0  0  0  0
   -3.6408  -30.2070  -16.5059 O   0  0  0  0  0  0  0  0  0  0  0  0
   -2.4627  -30.2425   -8.7009 C   0  0  0  0  0  0  0  0  0  0  0  0
    0.6790  -30.9462  -12.8568 C   0  0  0  0  0  0  0  0  0  0  0  0
   -0.0991  -30.7561  -14.1521 C   0  0  0  0  0  0  0  0  0  0  0  0
   -0.0678  -30.8542  -15.5842 C   0  0  0  0  0  0  0  0  0  0  0  0
    0.9537  -31.0154  -10.6940 C   0  0  0  0  0  0  0  0  0  0  0  0
   -2.2860  -30.0208   -9.9775 C   0  0  0  0  0  0  0  0  0  0  0  0
   -4.4756  -29.2220  -10.3857 C   0  0  0  0  0  0  0  0  0  0  0  0
    1.5229  -31.2384   -9.4856 C   0  0  0  0  0  0  0  0  0  0  0  0
   -3.4840  -29.6793  -13.4993 N   0  0  0  0  0  0  0  0  0  0  0  0
    1.0750  -31.1733  -16.1037 O   0  0  0  0  0  0  0  0  0  0  0  0
   -0.3151  -30.5422  -11.6990 N   0  0  0  0  0  0  0  0  0  0  0  0
    2.9257  -31.7505  -11.8132 C   0  0  0  0  0  0  0  0  0  0  0  0
  1 10  1  0
  1 11  1  0
  1 19  1  0
  2  5  2  0
  2 22  1  0
  3  4  2  3
  3 14  1  0
  3 24  1  0
  4 21  1  0
  4 22  1  0
  5  9  1  0
  5 16  1  0
  6  7  1  0
  6 27  1  0
  7 23  2  0
  8 11  2  0
  8 13  1  0
  8 24  1  0
 11 15  1  0
 12 17  1  0
 12 20  1  0
 12 27  2  0
 13 14  1  0
 13 18  1  0
 14 26  1  0
 16 21  2  0
 17 18  1  0
 17 26  1  0
 18 19  2  0
 19 25  1  0
 20 23  1  0
 20 26  1  0
M  END
>  <ID>  (1) 
conformer_0

$$$$
