
     RDKit          3D

 23 27  0  0  0  0  0  0  0  0999 V2000
   -1.0623  -30.8756  -18.0030 C   0  0  0  0  0  0  0  0  0  0  0  0
    0.0093  -30.4605  -12.9090 C   0  0  0  0  0  0  0  0  0  0  0  0
   -5.5790  -28.6173   -8.4030 C   0  0  0  0  0  0  0  0  0  0  0  0
   -0.4307  -30.2593  -11.6650 C   0  0  0  0  0  0  0  0  0  0  0  0
   -0.9189  -30.3582  -13.9044 C   0  0  0  0  0  0  0  0  0  0  0  0
   -2.2488  -29.9871  -13.6794 C   0  0  0  0  0  0  0  0  0  0  0  0
   -2.1125  -29.9469  -10.1036 C   0  0  0  0  0  0  0  0  0  0  0  0
   -4.5548  -29.1939   -7.6423 C   0  0  0  0  0  0  0  0  0  0  0  0
   -0.7517  -30.6242  -15.2792 N   0  0  0  0  0  0  0  0  0  0  0  0
   -4.0085  -29.2179  -11.9437 C   0  0  0  0  0  0  0  0  0  0  0  0
   -2.4941  -30.3378   -7.6152 F   0  0  0  0  0  0  0  0  0  0  0  0
    0.1384  -31.2329  -17.4131 N   0  0  0  0  0  0  0  0  0  0  0  0
   -3.3190  -29.5667   -9.6544 C   0  0  0  0  0  0  0  0  0  0  0  0
   -2.7302  -29.6872  -12.3913 C   0  0  0  0  0  0  0  0  0  0  0  0
   -5.4782  -28.5657   -9.8372 C   0  0  0  0  0  0  0  0  0  0  0  0
    0.2959  -31.1051  -16.0715 C   0  0  0  0  0  0  0  0  0  0  0  0
   -4.3071  -29.0962  -10.5155 C   0  0  0  0  0  0  0  0  0  0  0  0
   -1.7683  -29.9561  -11.3889 C   0  0  0  0  0  0  0  0  0  0  0  0
    1.4405  -31.4643  -15.5564 O   0  0  0  0  0  0  0  0  0  0  0  0
   -3.4620  -29.7016   -8.2810 C   0  0  0  0  0  0  0  0  0  0  0  0
   -2.9409  -30.0007  -14.9106 N   0  0  0  0  0  0  0  0  0  0  0  0
   -2.1319  -30.4748  -17.2348 C   0  0  0  0  0  0  0  0  0  0  0  0
   -2.0099  -30.3547  -15.8846 C   0  0  0  0  0  0  0  0  0  0  0  0
  1 12  2  0
  1 22  1  0
  2  4  1  0
  2  5  2  0
  3  8  1  0
  3 15  2  0
  4 18  2  0
  5  6  1  0
  5  9  1  0
  6 14  2  0
  6 21  1  0
  7 13  2  0
  7 18  1  0
  8 20  2  0
  9 16  1  0
  9 23  1  0
 10 14  1  0
 10 17  2  0
 11 20  1  0
 12 16  1  0
 13 17  1  0
 13 20  1  0
 14 18  1  0
 15 17  1  0
 16 19  2  0
 21 23  1  0
 22 23  2  0
M  END
>  <ID>  (1) 
conformer_0

$$$$
