
     RDKit          3D

 34 39  0  0  0  0  0  0  0  0999 V2000
   -5.7752  -27.9357   -8.4249 C   0  0  0  0  0  0  0  0  0  0  0  0
    0.8577  -31.1440  -10.7769 N   0  0  0  0  0  0  0  0  0  0  0  0
   -3.8375  -29.4262   -8.2619 C   0  0  0  0  0  0  0  0  0  0  0  0
    0.3650  -31.0834  -14.4388 C   0  0  0  0  0  0  0  0  0  0  0  0
    1.4627  -31.5391  -15.1904 C   0  0  0  0  0  0  0  0  0  0  0  0
   -2.0250  -30.3583  -14.2478 C   0  0  0  0  0  0  0  0  0  0  0  0
   -2.5681  -29.9525  -10.5495 C   0  0  0  0  0  0  0  0  0  0  0  0
    1.4939  -31.2506  -16.5864 C   0  0  0  0  0  0  0  0  0  0  0  0
   -0.5999  -30.7205  -12.3131 C   0  0  0  0  0  0  0  0  0  0  0  0
   -3.0744  -30.3035   -7.3877 C   0  0  0  0  0  0  0  0  0  0  0  0
    0.2304  -30.5401  -18.5981 C   0  0  0  0  0  0  0  0  0  0  0  0
   -2.1359  -30.5599  -16.9729 N   0  0  0  0  0  0  0  0  0  0  0  0
   -3.6818  -29.4019   -9.6662 C   0  0  0  0  0  0  0  0  0  0  0  0
   -4.8497  -28.6573   -7.6930 C   0  0  0  0  0  0  0  0  0  0  0  0
   -6.6332  -27.6407  -10.5896 F   0  0  0  0  0  0  0  0  0  0  0  0
   -3.9355  -29.3471  -12.6363 C   0  0  0  0  0  0  0  0  0  0  0  0
   -1.3809  -30.4491  -10.1318 N   0  0  0  0  0  0  0  0  0  0  0  0
   -0.9235  -30.6778  -16.4230 C   0  0  0  0  0  0  0  0  0  0  0  0
   -1.8224  -30.3382  -12.8291 C   0  0  0  0  0  0  0  0  0  0  0  0
    4.3835  -31.6847  -15.9608 C   0  0  0  0  0  0  0  0  0  0  0  0
   -0.4114  -30.7686  -10.9685 C   0  0  0  0  0  0  0  0  0  0  0  0
   -0.8909  -30.7014  -15.0181 C   0  0  0  0  0  0  0  0  0  0  0  0
    0.2686  -30.9079  -17.1866 C   0  0  0  0  0  0  0  0  0  0  0  0
   -3.2066  -30.2170  -14.9211 N   0  0  0  0  0  0  0  0  0  0  0  0
   -4.6655  -28.7427  -10.3390 C   0  0  0  0  0  0  0  0  0  0  0  0
   -5.6655  -28.0829   -9.7924 C   0  0  0  0  0  0  0  0  0  0  0  0
   -2.8009  -29.8714  -11.9250 C   0  0  0  0  0  0  0  0  0  0  0  0
   -4.0956  -30.9426   -6.5317 O   0  0  0  0  0  0  0  0  0  0  0  0
    2.4626  -32.4845  -14.5744 C   0  0  0  0  0  0  0  0  0  0  0  0
    1.3552  -31.3184  -12.0733 N   0  0  0  0  0  0  0  0  0  0  0  0
    0.4720  -31.0782  -13.0065 C   0  0  0  0  0  0  0  0  0  0  0  0
   -3.2378  -30.4809  -16.2340 C   0  0  0  0  0  0  0  0  0  0  0  0
    3.8512  -31.9057  -14.5809 C   0  0  0  0  0  0  0  0  0  0  0  0
    4.0131  -30.7255  -13.6530 C   0  0  0  0  0  0  0  0  0  0  0  0
  1 14  1  0
  1 26  1  0
  2 21  1  0
  2 30  1  0
  3 10  1  0
  3 13  1  0
  3 14  2  0
  4  5  1  0
  4 22  2  0
  4 31  1  0
  5  8  1  0
  5 29  1  0
  6 19  1  0
  6 22  1  0
  6 24  2  0
  7 13  1  0
  7 17  1  0
  7 27  2  0
  8 23  2  0
  9 19  1  0
  9 21  1  0
  9 31  2  0
 10 28  1  0
 11 23  1  0
 12 18  2  0
 12 32  1  0
 13 25  1  0
 15 26  1  0
 16 27  1  0
 17 21  2  0
 18 22  1  0
 18 23  1  0
 19 27  1  0
 20 33  1  0
 24 32  1  0
 25 26  2  0
 29 33  1  0
 30 31  1  0
 33 34  1  0
M  END
>  <ID>  (1) 
conformer_0

$$$$
