
     RDKit          3D

 32 36  0  0  0  0  0  0  0  0999 V2000
   -5.4445  -29.2625   -7.3037 C   0  0  0  0  0  0  0  0  0  0  0  0
   -0.1235  -30.9681  -15.3691 C   0  0  0  0  0  0  0  0  0  0  0  0
   -3.6717  -30.3816   -5.2963 C   0  0  0  0  0  0  0  0  0  0  0  0
   -2.2221  -29.8067   -8.9854 C   0  0  0  0  0  0  0  0  0  0  0  0
    0.6080  -31.0962  -14.2075 C   0  0  0  0  0  0  0  0  0  0  0  0
   -3.1147  -29.2477   -6.2789 C   0  0  0  0  0  0  0  0  0  0  0  0
    1.8835  -31.4844  -14.1833 C   0  0  0  0  0  3  0  0  0  0  0  0
   -0.3737  -31.2279  -17.7256 C   0  0  0  0  0  0  0  0  0  0  0  0
   -3.9650  -29.0939   -7.4701 N   0  0  0  0  0  0  0  0  0  0  0  0
    3.8656  -32.2987  -15.3380 O   0  0  0  0  0  0  0  0  0  0  0  0
    1.0968  -31.1364  -11.8833 N   0  0  0  0  0  0  0  0  0  0  0  0
   -1.6830  -30.8569  -17.6174 N   0  0  0  0  0  0  0  0  0  0  0  0
   -4.0715  -29.1109  -10.0903 N   0  0  0  0  0  0  0  0  0  0  0  0
   -3.2074  -29.7815  -13.8854 C   0  0  0  0  0  0  0  0  0  0  0  0
   -2.0428  -30.0699  -10.2872 C   0  0  0  0  0  0  0  0  0  0  0  0
   -3.4723  -29.2965   -8.7911 C   0  0  0  0  0  0  0  0  0  0  0  0
    1.8694  -31.6327  -16.5561 C   0  0  0  0  0  0  0  0  0  0  0  0
   -2.2336  -30.5012  -16.4211 C   0  0  0  0  0  0  0  0  0  0  0  0
    2.5511  -31.7827  -15.3446 C   0  0  0  0  0  0  0  0  0  0  0  0
   -1.4826  -30.5159  -15.2636 C   0  0  0  0  0  0  0  0  0  0  0  0
   -4.0755  -29.7283  -14.9870 N   0  0  0  0  0  0  0  0  0  0  0  0
   -3.1750  -29.6010  -11.0517 C   0  0  0  0  0  0  0  0  0  0  0  0
    0.4781  -31.2770  -16.5798 C   0  0  0  0  0  0  0  0  0  0  0  0
   -0.9204  -30.7607  -10.6750 N   0  0  0  0  0  0  0  0  0  0  0  0
   -3.6179  -29.5339  -12.4732 C   0  0  0  0  0  0  0  0  0  0  0  0
    5.9918  -32.0440  -14.7958 C   0  0  0  0  0  0  0  0  0  0  0  0
    4.9725  -31.4442  -15.8342 C   0  0  0  0  0  0  0  0  0  0  0  0
   -3.5652  -30.0988  -16.2002 C   0  0  0  0  0  0  0  0  0  0  0  0
   -1.9606  -30.1183  -14.1166 N   0  0  0  0  0  0  0  0  0  0  0  0
    4.6601  -32.6448  -14.1832 C   0  0  0  0  0  0  0  0  0  0  0  0
    1.1749  -31.1972  -13.1648 C   0  0  0  0  0  0  0  0  0  0  0  0
    0.2503  -31.1465  -10.9153 C   0  0  0  0  0  0  0  0  0  0  0  0
  1  9  1  0
  2  5  2  0
  2 20  1  0
  2 23  1  0
  3  6  1  0
  4 15  1  0
  4 16  1  0
  5 31  2  0
  6  9  1  0
  7 19  2  0
  7 31  1  0
  8 12  1  0
  8 23  2  0
  9 16  1  0
 10 19  1  0
 10 30  1  0
 11 31  1  0
 11 32  1  0
 12 18  2  0
 13 16  2  0
 13 22  1  0
 14 21  2  0
 14 25  1  0
 14 29  1  0
 15 22  2  0
 15 24  1  0
 17 19  1  0
 17 23  1  0
 18 20  1  0
 18 28  1  0
 20 29  2  0
 21 28  1  0
 22 25  1  0
 24 32  1  0
 26 27  1  0
 26 30  1  0
M  END
>  <ID>  (1) 
conformer_0

$$$$
