
     RDKit          3D

 42 47  0  0  0  0  0  0  0  0999 V2000
    3.4131  -31.4848  -10.9068 O   0  0  0  0  0  0  0  0  0  0  0  0
   -1.0148  -30.9288   -7.0274 C   0  0  0  0  0  0  0  0  0  0  0  0
   -1.5676  -30.4435  -15.2518 C   0  0  0  0  0  0  0  0  0  0  0  0
   -4.9509  -28.5693   -8.4593 C   0  0  0  0  0  0  0  0  0  0  0  0
   -1.7321  -30.5454  -10.6504 C   0  0  0  0  0  0  0  0  0  0  0  0
   -2.8004  -29.8443  -10.9700 C   0  0  0  0  0  0  0  0  0  0  0  0
    0.4274  -30.9088   -7.1600 N   0  0  0  0  0  0  0  0  0  0  0  0
    5.6284  -31.3905  -11.8008 C   0  0  0  0  0  0  0  0  0  0  0  0
    2.2522  -31.5310  -13.7541 N   0  0  0  0  0  0  0  0  0  0  0  0
    2.5100  -31.2499   -8.6339 C   0  0  0  0  0  0  0  0  0  0  0  0
    2.6778  -32.1049   -9.8960 C   0  0  0  0  0  0  0  0  0  0  0  0
    4.5938  -30.9774  -14.4015 O   0  0  0  0  0  0  0  0  0  0  0  0
   -5.0082  -28.5726  -10.8819 C   0  0  0  0  0  0  0  0  0  0  0  0
   -7.2862  -27.0393   -8.3998 C   0  0  0  0  0  0  0  0  0  0  0  0
   -6.6896  -27.5183   -7.2156 C   0  0  0  0  0  0  0  0  0  0  0  0
   -0.3050  -30.7701  -14.6798 C   0  0  0  0  0  0  0  0  0  0  0  0
   -3.7919  -29.2302   -8.4114 C   0  0  0  0  0  0  0  0  0  0  0  0
    1.3758  -31.8852   -7.7491 C   0  0  0  0  0  0  0  0  0  0  0  0
    3.6860  -31.7626  -13.4435 C   0  0  0  0  0  0  0  0  0  0  0  0
    1.3356  -30.9492  -12.9255 C   0  0  0  0  0  0  0  0  0  0  0  0
    1.8324  -31.9251  -15.0505 C   0  0  0  0  0  0  0  0  0  0  0  0
   -5.5567  -28.2605   -7.2516 C   0  0  0  0  0  0  0  0  0  0  0  0
   -6.7243  -27.3798   -9.6315 C   0  0  0  0  0  0  0  0  0  0  0  0
   -3.9300  -29.7210  -15.2134 C   0  0  0  0  0  0  0  0  0  0  0  0
    0.6036  -31.3926  -15.5268 C   0  0  0  0  0  0  0  0  0  0  0  0
   -4.0580  -29.9771  -16.4769 N   0  0  0  0  0  0  0  0  0  0  0  0
   -1.6012  -30.5307   -8.2581 C   0  0  0  0  0  0  0  0  0  0  0  0
   -3.8393  -29.2151  -11.1985 C   0  0  0  0  0  0  0  0  0  0  0  0
   -2.7830  -29.8168   -8.1902 C   0  0  0  0  0  0  0  0  0  0  0  0
   -0.8053  -31.1605  -17.4329 C   0  0  0  0  0  0  0  0  0  0  0  0
    2.4929  -32.7982  -15.7029 O   0  0  0  0  0  0  0  0  0  0  0  0
   -2.7110  -29.6655  -13.2778 N   0  0  0  0  0  0  0  0  0  0  0  0
   -1.0809  -30.8856   -9.4942 C   0  0  0  0  0  0  0  0  0  0  0  0
   -3.3276  -29.4459  -12.2680 C   0  0  0  0  0  0  0  0  0  0  0  0
   -2.9826  -30.4070  -17.1524 N   0  0  0  0  0  0  0  0  0  0  0  0
    4.1609  -31.9719  -12.0482 C   0  0  0  0  0  0  0  0  0  0  0  0
   -1.7952  -30.6594  -16.6234 C   0  0  0  0  0  0  0  0  0  0  0  0
    0.1223  -30.5518  -13.3741 C   0  0  0  0  0  0  0  0  0  0  0  0
   -2.6938  -29.9463  -14.5812 C   0  0  0  0  0  0  0  0  0  0  0  0
    1.0249  -29.8167   -6.5413 O   0  0  0  0  0  0  0  0  0  0  0  0
    0.3524  -31.5180  -16.8785 C   0  0  0  0  0  0  0  0  0  0  0  0
   -5.5843  -28.1647   -9.6872 C   0  0  0  0  0  0  0  0  0  0  0  0
  1 11  1  0
  1 36  1  0
  2  7  1  0
  2 27  1  0
  3 16  1  0
  3 37  1  0
  3 39  2  0
  4 17  1  0
  4 22  2  0
  4 42  1  0
  5  6  2  0
  5 33  1  0
  6 28  2  0
  7 18  1  0
  7 40  1  0
  8 36  1  0
  9 19  1  0
  9 20  1  0
  9 21  1  0
 10 11  1  0
 10 18  1  0
 12 19  2  0
 13 28  1  0
 13 42  2  0
 14 15  2  0
 14 23  1  0
 15 22  1  0
 16 25  2  0
 16 38  1  0
 17 29  3  0
 19 36  1  0
 20 38  2  0
 21 25  1  0
 21 31  2  0
 23 42  1  0
 24 26  2  0
 24 39  1  0
 25 41  1  0
 26 35  1  0
 27 29  1  0
 27 33  2  0
 28 34  1  0
 30 37  1  0
 30 41  2  0
 32 34  1  0
 32 39  1  0
 35 37  2  0
M  END
>  <ID>  (1) 
conformer_0

$$$$
