
     RDKit          3D

 30 35  0  0  0  0  0  0  0  0999 V2000
   -3.7002  -29.3980  -11.9194 N   0  0  0  0  0  0  0  0  0  0  0  0
    1.2911  -31.2262  -13.0890 C   0  0  0  0  0  0  0  0  0  0  0  0
   -3.9378  -29.7020  -14.4558 N   0  0  0  0  0  0  0  0  0  0  0  0
   -3.9008  -29.9945  -15.7738 N   0  0  0  0  0  0  0  0  0  0  0  0
    3.3842  -32.1978  -13.6833 C   0  0  0  0  0  0  0  0  0  0  0  0
   -2.4633  -30.8188   -6.0229 F   0  0  0  0  0  0  0  0  0  0  0  0
    0.0028  -31.1921  -17.1626 C   0  0  0  0  0  0  0  0  0  0  0  0
   -4.6833  -30.6700   -5.8993 F   0  0  0  0  0  0  0  0  0  0  0  0
    1.5005  -31.1937  -10.7415 O   0  0  0  0  0  0  0  0  0  0  0  0
   -2.4156  -29.7959  -12.4931 C   0  0  0  0  0  0  0  0  0  0  0  0
   -2.6400  -30.4110  -16.1037 C   0  0  0  0  0  0  0  0  0  0  0  0
   -3.6376  -30.0155   -7.8754 C   0  0  0  0  0  0  0  0  0  0  0  0
    2.0858  -31.6714  -14.1349 C   0  0  0  0  0  0  0  0  0  0  0  0
    1.9777  -31.4985  -11.8350 C   0  0  0  0  0  0  0  0  0  0  0  0
    3.2209  -32.0876  -12.1242 O   0  0  0  0  0  0  0  0  0  0  0  0
    1.6323  -31.6188  -15.4311 C   0  0  0  0  0  0  0  0  0  0  0  0
   -3.7317  -29.4921  -10.5513 C   0  0  0  0  0  0  0  0  0  0  0  0
   -1.6069  -30.0600  -11.2449 C   0  0  0  0  0  0  0  0  0  0  0  0
   -4.8850  -29.2696   -9.8134 C   0  0  0  0  0  0  0  0  0  0  0  0
   -2.7351  -29.9260  -13.8910 C   0  0  0  0  0  0  0  0  0  0  0  0
   -1.8749  -30.3743  -14.9244 C   0  0  0  0  0  0  0  0  0  0  0  0
   -2.5324  -29.8740  -10.0359 C   0  0  0  0  0  0  0  0  0  0  0  0
    0.0643  -30.7092  -13.3778 C   0  0  0  0  0  0  0  0  0  0  0  0
    0.3468  -31.1510  -15.7206 C   0  0  0  0  0  0  0  0  0  0  0  0
   -2.4783  -30.0903   -8.6288 C   0  0  0  0  0  0  0  0  0  0  0  0
   -1.1135  -31.0742  -17.9699 C   0  0  0  0  0  0  0  0  0  0  0  0
   -4.8406  -29.5543   -8.4284 C   0  0  0  0  0  0  0  0  0  0  0  0
   -0.4961  -30.7223  -14.6482 C   0  0  0  0  0  0  0  0  0  0  0  0
   -2.3860  -30.8045  -17.4161 N   0  0  0  0  0  0  0  0  0  0  0  0
   -3.6167  -30.5162   -6.5875 N   0  0  0  0  0  0  0  0  0  0  0  0
  1 10  1  0
  1 17  1  0
  2 13  2  0
  2 14  1  0
  2 23  1  0
  3  4  1  0
  3 20  1  0
  4 11  1  0
  5 13  1  0
  5 15  1  0
  6 30  1  0
  7 24  1  0
  7 26  2  0
  8 30  1  0
  9 14  2  0
 10 18  1  0
 10 20  1  0
 11 21  1  0
 11 29  2  0
 12 25  2  0
 12 27  1  0
 12 30  1  0
 13 16  1  0
 14 15  1  0
 16 24  2  0
 17 19  1  0
 17 22  2  0
 18 22  1  0
 19 27  2  0
 20 21  2  0
 21 28  1  0
 22 25  1  0
 23 28  2  0
 24 28  1  0
 26 29  1  0
M  END
>  <ID>  (1) 
conformer_0

$$$$
