
     RDKit          3D

 28 31  0  0  0  0  0  0  0  0999 V2000
    0.3980  -30.5902  -13.5388 C   0  0  0  0  0  0  0  0  0  0  0  0
   -2.4517  -30.0445  -15.6571 C   0  0  0  0  0  0  0  0  0  0  0  0
   -3.1603  -29.6940  -13.3895 C   0  0  0  0  0  0  0  0  0  0  0  0
   -1.5575  -31.9203  -17.7800 C   0  0  0  0  0  0  0  0  0  0  0  0
   -0.2175  -30.7061  -16.1602 O   0  0  0  0  0  0  0  0  0  0  0  0
   -4.1034  -29.7138   -8.6023 C   0  0  0  0  0  0  0  0  0  0  0  0
   -2.6915  -29.8627  -10.6905 O   0  0  0  0  0  0  0  0  0  0  0  0
   -2.9590  -30.3828   -7.9315 C   0  0  0  0  0  0  0  0  0  0  0  0
   -0.8977  -30.3334  -13.9190 C   0  0  0  0  0  0  0  0  0  0  0  0
   -1.1847  -30.3538  -15.2673 C   0  0  0  0  0  0  0  0  0  0  0  0
   -4.9830  -28.6258   -8.0786 C   0  0  0  0  0  0  0  0  0  0  0  0
    1.4755  -31.4452   -9.8263 N   0  0  0  0  0  0  0  0  0  0  0  0
   -5.0553  -28.6044  -10.5036 C   0  0  0  0  0  0  0  0  0  0  0  0
   -1.9195  -30.0989  -12.9669 C   0  0  0  0  0  0  0  0  0  0  0  0
    0.0390  -31.5537  -10.0509 C   0  0  0  0  0  0  0  0  0  0  0  0
    2.0173  -31.3030   -8.4715 C   0  0  0  0  0  0  0  0  0  0  0  0
   -3.7982  -29.3317   -9.9961 N   0  0  0  0  0  0  0  0  0  0  0  0
    0.6137  -30.8259  -12.2688 C   0  0  0  0  0  0  0  0  0  0  0  0
   -5.7863  -28.1001   -9.2780 C   0  0  0  0  0  0  0  0  0  0  0  0
    3.4914  -30.7310   -8.6102 C   0  0  0  0  0  0  0  0  0  0  0  0
   -0.5622  -30.8229  -17.5182 C   0  0  0  0  0  0  0  0  0  0  0  0
   -3.4203  -29.6663  -14.6964 C   0  0  0  0  0  0  0  0  0  0  0  0
    0.1091  -29.6935  -18.2758 C   0  0  0  0  0  0  0  0  0  0  0  0
   -1.6621  -30.2880  -11.6292 C   0  0  0  0  0  0  0  0  0  0  0  0
   -0.3728  -30.8693  -11.2856 C   0  0  0  0  0  0  0  0  0  0  0  0
   -2.1322  -31.4164   -8.6034 N   0  0  0  0  0  0  0  0  0  0  0  0
   -4.5892  -29.2942  -15.0879 O   0  0  0  0  0  0  0  0  0  0  0  0
   -0.7288  -31.8769   -8.8736 C   0  0  0  0  0  0  0  0  0  0  0  0
  1  9  1  0
  1 18  2  0
  2 10  2  0
  2 22  1  0
  3 14  1  0
  3 22  2  0
  4 21  1  0
  5 10  1  0
  5 21  1  0
  6  8  1  0
  6 11  1  0
  6 17  1  0
  7 17  1  0
  7 24  1  0
  8 26  1  0
  9 10  1  0
  9 14  1  0
 11 19  1  0
 12 15  1  0
 12 16  1  0
 13 17  1  0
 13 19  1  0
 14 24  2  0
 15 25  1  0
 15 28  1  0
 16 20  1  0
 18 25  1  0
 21 23  1  0
 22 27  1  0
 24 25  1  0
 26 28  1  0
M  END
>  <ID>  (1) 
conformer_0

$$$$
