
     RDKit          3D

 43 49  0  0  0  0  0  0  0  0999 V2000
    1.5161  -31.4464   -8.2978 C   0  0  0  0  0  0  0  0  0  0  0  0
    4.3625  -32.8936  -12.0926 C   0  0  0  0  0  0  0  0  0  0  0  0
    0.4956  -30.5416  -13.7388 N   0  0  0  0  0  0  0  0  0  0  0  0
   -3.5529  -29.6748  -13.7176 C   0  0  0  0  0  0  0  0  0  0  0  0
   -1.6086  -30.3273  -14.8941 C   0  0  0  0  0  0  0  0  0  0  0  0
    3.4961  -32.3450  -13.0550 C   0  0  0  0  0  0  0  0  0  0  0  0
    4.0746  -32.6483  -10.7275 C   0  0  0  0  0  0  0  0  0  0  0  0
   -3.4927  -28.3363   -7.1441 C   0  0  0  0  0  0  0  0  0  0  0  0
   -4.6300  -26.2147   -6.7065 C   0  0  0  0  0  0  0  0  0  0  0  0
    2.1438  -31.3639  -11.3442 N   0  0  0  0  0  0  0  0  0  0  0  0
   -0.8685  -30.6536   -8.5371 C   0  0  0  0  0  0  0  0  0  0  0  0
    2.9887  -31.8770  -10.3727 C   0  0  0  0  0  0  0  0  0  0  0  0
   -3.5990  -29.9984  -16.0446 N   0  0  0  0  0  0  0  0  0  0  0  0
   -1.2190  -31.2243   -7.2988 O   0  0  0  0  0  0  0  0  0  0  0  0
    0.4998  -31.0617  -18.4993 C   0  0  0  0  0  0  0  0  0  0  0  0
   -4.2050  -28.0949   -8.4251 C   0  0  0  0  0  0  0  0  0  0  0  0
   -2.8392  -29.7092  -10.1255 N   0  0  0  0  0  0  0  0  0  0  0  0
   -0.2209  -30.6481  -14.9083 C   0  0  0  0  0  0  0  0  0  0  0  0
   -4.4941  -28.0230   -4.8837 C   0  0  0  0  0  0  0  0  0  0  0  0
   -0.2911  -30.9669  -17.2221 C   0  0  0  0  0  0  0  0  0  0  0  0
   -2.1307  -30.5723   -6.4634 C   0  0  0  0  0  0  0  0  0  0  0  0
   -2.8817  -29.6798  -11.5102 C   0  0  0  0  0  0  0  0  0  0  0  0
   -6.5191  -27.4828   -9.3345 C   0  0  0  0  0  0  0  0  0  0  0  0
   -3.5928  -28.7889   -4.0905 O   0  0  0  0  0  0  0  0  0  0  0  0
   -4.0065  -29.2775   -9.3865 C   0  0  0  0  0  0  0  0  0  0  0  0
    2.4300  -31.5564  -12.6675 C   0  0  0  0  0  0  0  0  0  0  0  0
    0.3618  -31.0188  -16.0342 N   0  0  0  0  0  0  0  0  0  0  0  0
   -5.6059  -27.8242   -8.1860 N   0  0  0  0  0  0  0  0  0  0  0  0
   -2.2106  -30.0291  -13.6838 C   0  0  0  0  0  0  0  0  0  0  0  0
   -5.0080  -30.0161   -9.5077 O   0  0  0  0  0  0  0  0  0  0  0  0
    2.7335  -31.5897   -8.9926 N   0  0  0  0  0  0  0  0  0  0  0  0
    0.4942  -30.5895   -8.7450 N   0  0  0  0  0  0  0  0  0  0  0  0
   -2.2761  -30.3426  -16.0959 C   0  0  0  0  0  0  0  0  0  0  0  0
    3.8520  -31.7535   -8.1058 C   0  0  0  0  0  0  0  0  0  0  0  0
   -1.6353  -30.7044  -17.2592 N   0  0  0  0  0  0  0  0  0  0  0  0
   -3.8070  -27.3611   -6.1165 C   0  0  0  0  0  0  0  0  0  0  0  0
   -4.1855  -29.6583  -14.9368 N   0  0  0  0  0  0  0  0  0  0  0  0
   -1.7255  -30.5030   -9.6207 C   0  0  0  0  0  0  0  0  0  0  0  0
   -5.9853  -26.8994   -7.0726 C   0  0  0  0  0  0  0  0  0  0  0  0
    1.7433  -30.9056  -13.6566 N   0  0  0  0  0  0  0  0  0  0  0  0
   -3.3706  -29.7797   -6.7201 C   0  0  0  0  0  0  0  0  0  0  0  0
   -4.0073  -29.4412  -12.3941 C   0  0  0  0  0  0  0  0  0  0  0  0
   -1.7809  -30.0009  -12.3515 C   0  0  0  0  0  0  0  0  0  0  0  0
  1 31  1  0
  1 32  1  0
  2  6  1  0
  2  7  2  0
  3 18  1  0
  3 40  1  0
  4 29  2  0
  4 37  1  0
  4 42  1  0
  5 18  2  0
  5 29  1  0
  5 33  1  0
  6 26  2  0
  7 12  1  0
  8 16  1  0
  8 36  1  0
  8 41  1  0
  9 36  1  0
  9 39  1  0
 10 12  2  0
 10 26  1  0
 11 14  1  0
 11 32  1  0
 11 38  1  0
 12 31  1  0
 13 33  1  0
 13 37  2  0
 14 21  1  0
 15 20  1  0
 16 25  1  0
 16 28  1  0
 17 22  1  0
 17 25  1  0
 17 38  1  0
 18 27  1  0
 19 24  1  0
 19 36  1  0
 20 27  2  0
 20 35  1  0
 21 41  1  0
 22 42  1  0
 22 43  1  0
 23 28  1  0
 25 30  2  0
 26 40  1  0
 28 39  1  0
 29 43  1  0
 31 34  1  0
 33 35  2  0
M  END
>  <ID>  (1) 
conformer_0

$$$$
