
     RDKit          3D

 36 39  0  0  0  0  0  0  0  0999 V2000
    0.4854  -31.0957  -11.8888 C   0  0  0  0  0  0  0  0  0  0  0  0
   -2.7824  -29.8860   -9.4115 N   0  0  0  0  0  0  0  0  0  0  0  0
    0.8473  -30.4959  -13.0472 O   0  0  0  0  0  0  0  0  0  0  0  0
   -6.3114  -27.4175   -7.9277 C   0  0  0  0  0  0  0  0  0  0  0  0
    0.9535  -31.4795  -16.5302 C   0  0  0  0  0  0  0  0  0  0  0  0
   -1.9165  -29.9201  -13.8185 C   0  0  0  0  0  0  0  0  0  0  0  0
   -0.5196  -30.9058  -18.3788 C   0  0  0  0  0  0  0  0  0  0  0  0
   -4.5768  -28.5367   -6.5947 C   0  0  0  0  0  0  0  0  0  0  0  0
   -8.1927  -26.2328   -7.4162 O   0  0  0  0  0  0  0  0  0  0  0  0
   -1.2363  -30.5594  -16.0407 C   0  0  0  0  0  0  0  0  0  0  0  0
   -4.4005  -29.0497  -11.2382 C   0  0  0  0  0  0  0  0  0  0  0  0
   -3.7894  -29.8932  -12.0964 N   0  0  0  0  0  0  0  0  0  0  0  0
   -5.7329  -27.7451   -6.6819 C   0  0  0  0  0  0  0  0  0  0  0  0
   -2.8966  -29.8473   -8.0228 C   0  0  0  0  0  0  0  0  0  0  0  0
   -3.2334  -29.8712  -14.2276 C   0  0  0  0  0  0  0  0  0  0  0  0
    1.2863  -30.0924   -7.9647 O   0  0  0  0  0  0  0  0  0  0  0  0
   -3.9899  -29.0220   -7.7730 C   0  0  0  0  0  0  0  0  0  0  0  0
   -0.2569  -31.0130  -16.9692 C   0  0  0  0  0  0  0  0  0  0  0  0
   -3.8462  -29.2346   -9.9712 C   0  0  0  0  0  0  0  0  0  0  0  0
   -0.8951  -30.2544   -6.9520 N   0  0  0  0  0  0  0  0  0  0  0  0
   -0.9318  -30.4121  -14.6653 C   0  0  0  0  0  0  0  0  0  0  0  0
   -2.5534  -30.2453  -16.4498 C   0  0  0  0  0  0  0  0  0  0  0  0
   -2.0707  -30.8318   -7.3894 C   0  0  0  0  0  0  0  0  0  0  0  0
   -0.9731  -29.8478   -5.5852 C   0  0  0  0  0  0  0  0  0  0  0  0
   -7.4118  -26.6204   -8.1909 C   0  0  0  0  0  0  0  0  0  0  0  0
   -3.5572  -29.9864  -15.5604 N   0  0  0  0  0  0  0  0  0  0  0  0
    0.4015  -30.7815  -14.2701 C   0  0  0  0  0  0  0  0  0  0  0  0
   -4.2422  -29.8223  -13.3251 N   0  0  0  0  0  0  0  0  0  0  0  0
    1.3312  -29.8357   -6.5063 C   0  0  0  0  0  0  0  0  0  0  0  0
    0.0940  -30.7380   -6.0120 C   0  0  0  0  0  0  0  0  0  0  0  0
   -4.5916  -28.6702   -8.9161 C   0  0  0  0  0  0  0  0  0  0  0  0
   -6.5261  -27.4913  -10.1687 F   0  0  0  0  0  0  0  0  0  0  0  0
   -7.5026  -26.6355   -9.6580 C   0  0  0  0  0  0  0  0  0  0  0  0
   -8.9177  -26.4506  -10.0245 C   0  0  0  0  0  0  0  0  0  0  0  0
   -5.7677  -27.8879   -9.0426 C   0  0  0  0  0  0  0  0  0  0  0  0
    1.2372  -31.3692  -15.1837 C   0  0  0  0  0  0  0  0  0  0  0  0
  1  3  1  0
  2 14  1  0
  2 19  1  0
  3 27  1  0
  4 13  2  0
  4 25  1  0
  4 35  1  0
  5 18  2  0
  5 36  1  0
  6 15  2  0
  6 21  1  0
  7 18  1  0
  8 13  1  0
  8 17  2  0
  9 25  2  0
 10 18  1  0
 10 21  2  0
 10 22  1  0
 11 12  1  0
 11 19  1  0
 12 28  1  0
 14 17  1  0
 14 23  1  0
 15 26  1  0
 15 28  1  0
 16 29  1  0
 17 31  1  0
 19 31  1  0
 20 23  1  0
 20 24  1  0
 21 27  1  0
 22 26  2  0
 24 30  1  0
 25 33  1  0
 27 36  2  0
 29 30  1  0
 31 35  2  0
 32 33  1  0
 33 34  1  0
M  END
>  <ID>  (1) 
conformer_0

$$$$
