
     RDKit          3D

 34 40  0  0  0  0  0  0  0  0999 V2000
   -6.0701  -29.9168   -6.8371 C   0  0  0  0  0  0  0  0  0  0  0  0
   -0.1177  -31.1540  -16.2180 C   0  0  0  0  0  0  0  0  0  0  0  0
    2.3282  -31.7132   -8.0290 O   0  0  0  0  0  0  0  0  0  0  0  0
   -5.5825  -29.6590   -8.0723 C   0  0  0  0  0  0  0  0  0  0  0  0
   -0.9560  -30.3354  -12.8387 N   0  0  0  0  0  0  0  0  0  0  0  0
   -2.2202  -30.5087  -17.1443 N   0  0  0  0  0  0  0  0  0  0  0  0
    1.1682  -31.9865  -10.4319 C   0  0  0  0  0  0  0  0  0  0  0  0
    0.6526  -30.9216  -11.3251 C   0  0  0  0  0  0  0  0  0  0  0  0
   -2.0783  -29.9969  -13.5192 C   0  0  0  0  0  0  0  0  0  0  0  0
    1.1837  -31.0739  -12.7392 C   0  0  0  0  0  0  0  0  0  0  0  0
   -2.6746  -30.1082  -15.9271 C   0  0  0  0  0  0  0  0  0  0  0  0
    4.6976  -31.6355  -11.4781 O   0  0  0  0  0  0  0  0  0  0  0  0
    2.6608  -31.9835  -10.3237 N   0  0  0  0  0  0  0  0  0  0  0  0
    3.3756  -31.6692  -11.5188 C   0  0  0  0  0  0  0  0  0  0  0  0
    0.1400  -30.8041  -13.6709 N   0  0  0  0  0  0  0  0  0  0  0  0
   -0.6971  -30.3596  -11.4834 C   0  0  0  0  0  0  0  0  0  0  0  0
   -3.8308  -30.1010   -5.9896 C   0  0  0  0  0  0  0  0  0  0  0  0
   -3.0976  -29.5725  -11.7028 C   0  0  0  0  0  0  0  0  0  0  0  0
   -0.6031  -31.4587  -18.4640 N   0  0  0  0  0  0  0  0  0  0  0  0
   -4.1458  -29.2815  -10.7953 C   0  0  0  0  0  0  0  0  0  0  0  0
    2.5633  -31.4698  -12.7592 C   0  0  0  0  0  0  0  0  0  0  0  0
   -0.4942  -30.7730  -14.9979 C   0  0  0  0  0  0  0  0  0  0  0  0
   -3.6064  -29.5356   -9.5374 C   0  0  0  0  0  0  0  0  0  0  0  0
   -5.1959  -30.1738   -5.7986 C   0  0  0  0  0  0  0  0  0  0  0  0
   -0.9822  -31.0439  -17.2865 C   0  0  0  0  0  0  0  0  0  0  0  0
   -1.9709  -29.9049  -10.9991 C   0  0  0  0  0  0  0  0  0  0  0  0
   -3.2220  -29.5657  -13.0316 N   0  0  0  0  0  0  0  0  0  0  0  0
    4.3203  -32.9332   -8.7410 C   0  0  0  0  0  0  0  0  0  0  0  0
    3.1824  -32.0578   -8.9868 C   0  0  0  0  0  0  0  0  0  0  0  0
   -1.8073  -30.2591  -14.8581 C   0  0  0  0  0  0  0  0  0  0  0  0
   -3.3467  -29.8034   -7.1868 C   0  0  0  0  0  0  0  0  0  0  0  0
   -2.2360  -29.8264   -9.6779 C   0  0  0  0  0  0  0  0  0  0  0  0
   -3.8699  -29.6315  -15.8002 O   0  0  0  0  0  0  0  0  0  0  0  0
   -4.2123  -29.6491   -8.2649 C   0  0  0  0  0  0  0  0  0  0  0  0
  1  4  2  0
  1 24  1  0
  2 22  2  0
  2 25  1  0
  3 29  2  0
  4 34  1  0
  5  9  1  0
  5 15  1  0
  5 16  1  0
  6 11  1  0
  6 25  1  0
  7  8  1  0
  7 13  1  0
  8 10  1  0
  8 16  1  0
  9 27  1  0
  9 30  2  0
 10 15  1  0
 10 21  2  0
 11 30  1  0
 11 33  2  0
 12 14  2  0
 13 14  1  0
 13 29  1  0
 14 21  1  0
 15 22  1  0
 16 26  1  0
 17 24  1  0
 17 31  2  0
 18 20  1  0
 18 26  2  0
 18 27  1  0
 19 25  2  0
 20 23  1  0
 22 30  1  0
 23 32  1  0
 23 34  2  3
 26 32  1  0
 28 29  1  0
 31 34  1  0
M  END
>  <ID>  (1) 
conformer_0

$$$$
