
     RDKit          3D

 29 33  0  0  0  0  0  0  0  0999 V2000
   -1.9690  -30.0398  -11.5985 C   0  0  0  0  0  0  0  0  0  0  0  0
   -1.9911  -30.2350  -14.6963 C   0  0  0  0  0  0  0  0  0  0  0  0
   -3.0128  -29.6675  -12.5040 C   0  0  0  0  0  0  0  0  0  0  0  0
   -2.4070  -29.9731   -9.9682 S   0  0  0  0  0  0  0  0  0  0  0  0
    1.0116  -31.0391   -9.6589 C   0  0  0  0  0  0  0  0  0  0  0  0
   -3.7699  -29.8524  -15.9381 N   0  0  0  0  0  0  0  0  0  0  0  0
   -0.3611  -31.1699  -16.7542 C   0  0  0  0  0  0  0  0  0  0  0  0
   -0.2281  -30.5832  -13.1181 N   0  0  0  0  0  0  0  0  0  0  0  0
    1.6890  -31.6137  -11.8432 C   0  0  0  0  0  0  0  0  0  0  0  0
   -2.4607  -30.3008  -15.9846 C   0  0  0  0  0  0  0  0  0  0  0  0
    2.6616  -31.4201  -15.0793 O   0  0  0  0  0  0  0  0  0  0  0  0
   -4.1502  -29.2297  -11.7860 C   0  0  0  0  0  0  0  0  0  0  0  0
   -5.2720  -28.9579   -9.4991 C   0  0  0  0  0  0  0  0  0  0  0  0
    0.4039  -31.5481  -17.7227 O   0  0  0  0  0  0  0  0  0  0  0  0
   -0.5459  -30.4960  -11.7533 C   0  0  0  0  0  0  0  0  0  0  0  0
   -0.6906  -30.6256  -14.3644 C   0  0  0  0  0  0  0  0  0  0  0  0
    1.3636  -31.7746  -15.1035 C   0  0  0  0  0  0  0  0  0  0  0  0
   -5.4511  -29.3695   -8.1047 C   0  0  0  0  0  0  0  0  0  0  0  0
   -4.2976  -29.9848   -7.3218 C   0  0  0  0  0  0  0  0  0  0  0  0
    0.1307  -31.1331  -15.4305 N   0  0  0  0  0  0  0  0  0  0  0  0
    0.7266  -31.0616  -11.0007 C   0  0  0  0  0  0  0  0  0  0  0  0
   -4.1387  -29.3104  -10.4369 C   0  0  0  0  0  0  0  0  0  0  0  0
    2.8907  -32.0883  -11.4410 C   0  0  0  0  0  0  0  0  0  0  0  0
    3.2348  -32.0284  -10.0748 C   0  0  0  0  0  0  0  0  0  0  0  0
   -3.0023  -29.7645  -13.8906 N   0  0  0  0  0  0  0  0  0  0  0  0
    2.2537  -31.4842   -9.2020 C   0  0  0  0  0  0  0  0  0  0  0  0
   -4.0666  -29.5032  -14.7074 C   0  0  0  0  0  0  0  0  0  0  0  0
   -1.6674  -30.7752  -17.0386 C   0  0  0  0  0  0  0  0  0  0  0  0
   -6.4058  -28.4690   -7.3822 C   0  0  0  0  0  0  0  0  0  0  0  0
  1  3  2  0
  1  4  1  0
  1 15  1  0
  2 10  1  0
  2 16  2  0
  2 25  1  0
  3 12  1  0
  3 25  1  0
  4 22  1  0
  5 21  2  0
  5 26  1  0
  6 10  1  0
  6 27  1  0
  7 14  2  0
  7 20  1  0
  7 28  1  0
  8 15  1  0
  8 16  1  0
  9 21  1  0
  9 23  2  0
 10 28  2  0
 11 17  1  0
 12 22  2  0
 13 18  2  3
 13 22  1  0
 15 21  1  0
 16 20  1  0
 17 20  1  0
 18 19  1  0
 18 29  1  0
 23 24  1  0
 24 26  2  0
 25 27  1  0
M  END
>  <ID>  (1) 
conformer_0

$$$$
