
     RDKit          3D

 31 37  0  0  0  0  0  0  0  0999 V2000
   -3.5497  -29.7744   -9.0131 C   0  0  0  0  0  0  0  0  0  0  0  0
   -2.3983  -29.8808  -11.4235 N   0  0  0  0  0  0  0  0  0  0  0  0
    3.2600  -32.0011  -11.9461 C   0  0  0  0  0  0  0  0  0  0  0  0
    1.6369  -31.5159  -15.3900 C   0  0  0  0  0  0  0  0  0  0  0  0
    0.0819  -30.8554  -13.7013 C   0  0  0  0  0  0  0  0  0  0  0  0
   -1.5835  -30.2443  -10.8779 C   0  0  0  0  0  0  0  0  0  0  0  0
    0.9456  -31.1617  -12.6234 C   0  0  0  0  0  0  0  0  0  0  0  0
    2.2442  -31.6223  -12.9827 C   0  0  0  0  0  0  0  0  0  0  0  0
   -5.2287  -29.0053   -7.4932 C   0  0  0  0  0  0  0  0  0  0  0  0
    0.5936  -31.0881  -11.3098 C   0  0  0  0  0  0  0  0  0  0  0  0
    2.5807  -31.7842  -14.3697 C   0  0  0  0  0  0  0  0  0  0  0  0
    0.4203  -31.0646  -15.0175 C   0  0  0  0  0  0  0  0  0  0  0  0
    4.9968  -31.4468  -14.4349 O   0  0  0  0  0  0  0  0  0  0  0  0
   -4.0005  -29.7818  -15.4239 N   0  0  0  0  0  0  0  0  0  0  0  0
   -2.0713  -30.1569  -14.4344 C   0  0  0  0  0  0  0  0  0  0  0  0
    0.2601  -31.2497  -17.2887 C   0  0  0  0  0  0  0  0  0  0  0  0
   -1.8157  -30.4401  -15.7566 C   0  0  0  0  0  0  0  0  0  0  0  0
   -3.6612  -29.4172  -11.4875 N   0  0  0  0  0  0  0  0  0  0  0  0
   -1.6577  -30.1538  -12.2088 C   0  0  0  0  0  0  0  0  0  0  0  0
   -0.5390  -30.8806  -16.2074 C   0  0  0  0  0  0  0  0  0  0  0  0
   -5.3473  -28.5581   -9.8732 C   0  0  0  0  0  0  0  0  0  0  0  0
    1.6179  -31.6480  -16.8079 C   0  0  0  0  0  0  0  0  0  0  0  0
   -4.1782  -29.2574  -10.0931 C   0  0  0  0  0  0  0  0  0  0  0  0
   -1.2006  -30.3733  -13.4328 C   0  0  0  0  0  0  0  0  0  0  0  0
   -0.3860  -30.7930  -10.4110 C   0  0  0  0  0  0  0  0  0  0  0  0
   -4.0069  -29.3556  -12.9420 N   0  0  0  0  0  0  0  0  0  0  0  0
   -3.0658  -30.2195  -16.3897 C   0  0  0  0  0  0  0  0  0  0  0  0
   -5.8554  -28.4083   -8.5755 C   0  0  0  0  0  0  0  0  0  0  0  0
   -4.0432  -29.6967   -7.7134 C   0  0  0  0  0  0  0  0  0  0  0  0
    3.9155  -32.3097  -14.7723 C   0  0  0  0  0  0  0  0  0  0  0  0
   -3.3613  -29.7389  -14.2028 C   0  0  0  0  0  0  0  0  0  0  0  0
  1 23  2  0
  1 29  1  0
  2  6  1  0
  2 18  1  0
  2 19  1  0
  3  8  1  0
  4 11  1  0
  4 12  2  0
  4 22  1  0
  5  7  1  0
  5 12  1  0
  5 24  1  0
  6 25  1  0
  7  8  2  0
  7 10  1  0
  8 11  1  0
  9 28  1  0
  9 29  2  0
 10 25  2  0
 11 30  1  0
 12 20  1  0
 13 30  1  0
 14 27  1  0
 14 31  1  0
 15 17  1  0
 15 24  2  0
 15 31  1  0
 16 20  1  0
 16 22  1  0
 17 20  2  0
 17 27  1  0
 18 23  1  0
 18 26  1  0
 19 24  1  0
 21 23  1  0
 21 28  2  0
 26 31  2  0
M  END
>  <ID>  (1) 
conformer_0

$$$$
