
     RDKit          3D

 39 44  0  0  0  0  0  0  0  0999 V2000
   -2.3107  -30.7908  -17.7173 N   0  0  0  0  0  0  0  0  0  0  0  0
   -3.2241  -29.5227   -5.2140 C   0  0  0  0  0  0  0  0  0  0  0  0
    1.2936  -31.2851  -13.3242 C   0  0  0  0  0  0  0  0  0  0  0  0
   -3.4228  -29.0682   -8.9355 N   0  0  0  0  0  0  0  0  0  0  0  0
   -2.5814  -30.7164  -16.4518 C   0  0  0  0  0  0  0  0  0  0  0  0
    2.4430  -31.5072  -14.1785 C   0  0  0  0  0  0  0  0  0  0  0  0
   -0.8123  -30.6240  -11.7732 N   0  0  0  0  0  0  0  0  0  0  0  0
   -1.5248  -30.7286  -15.3679 C   0  0  0  0  0  0  0  0  0  0  0  0
    2.0378  -30.6916   -8.2345 O   0  0  0  0  0  0  0  0  0  0  0  0
    0.2182  -30.6768   -5.2901 C   0  0  0  0  0  0  0  0  0  0  0  0
   -5.9506  -26.6071   -7.5463 C   0  0  0  0  0  0  0  0  0  0  0  0
    1.4205  -29.9238   -7.2887 C   0  0  0  0  0  0  0  0  0  0  0  0
   -3.7499  -29.4270  -12.2543 C   0  0  0  0  0  0  0  0  0  0  0  0
   -4.3130  -29.5118  -13.4628 O   0  0  0  0  0  0  0  0  0  0  0  0
   -1.8693  -27.8244   -7.8775 O   0  0  0  0  0  0  0  0  0  0  0  0
   -4.5667  -28.1973   -8.6980 C   0  0  0  0  0  0  0  0  0  0  0  0
   -0.7095  -29.9990   -6.2295 N   0  0  0  0  0  0  0  0  0  0  0  0
    1.6084  -30.3968   -5.8899 C   0  0  0  0  0  0  0  0  0  0  0  0
   -1.0598  -30.6505  -13.1279 C   0  0  0  0  0  0  0  0  0  0  0  0
    0.3237  -31.0042  -11.2074 C   0  0  0  0  0  0  0  0  0  0  0  0
   -2.5782  -31.4496   -6.2876 O   0  0  0  0  0  0  0  0  0  0  0  0
    1.4259  -31.3339  -11.9203 C   0  0  0  0  0  0  0  0  0  0  0  0
   -3.7075  -29.8250  -10.0915 C   0  0  0  0  0  0  0  0  0  0  0  0
   -2.1351  -30.4316  -14.1019 C   0  0  0  0  0  0  0  0  0  0  0  0
   -6.5960  -27.4111   -9.7098 C   0  0  0  0  0  0  0  0  0  0  0  0
   -2.1388  -30.2595   -6.0059 C   0  0  0  0  0  0  0  0  0  0  0  0
   -4.8645  -27.4020   -7.5833 C   0  0  0  0  0  0  0  0  0  0  0  0
   -4.7057  -28.9824  -11.0310 C   0  0  0  0  0  0  0  0  0  0  0  0
   -0.7776  -29.6119   -8.6032 N   0  0  0  0  0  0  0  0  0  0  0  0
   -6.8495  -26.6013   -8.6104 C   0  0  0  0  0  0  0  0  0  0  0  0
   -3.5376  -30.0733  -14.4014 C   0  0  0  0  0  0  0  0  0  0  0  0
   -5.4078  -28.1561   -9.7563 C   0  0  0  0  0  0  0  0  0  0  0  0
    0.0631  -29.5934   -7.4470 C   0  0  0  0  0  0  0  0  0  0  0  0
   -3.1916  -30.4358  -11.3491 C   0  0  0  0  0  0  0  0  0  0  0  0
   -2.0657  -28.9334   -8.4298 C   0  0  0  0  0  0  0  0  0  0  0  0
   -7.9029  -25.8157   -8.5812 F   0  0  0  0  0  0  0  0  0  0  0  0
   -0.2028  -30.9789  -15.1892 N   0  0  0  0  0  0  0  0  0  0  0  0
    0.0768  -30.9861  -13.8843 C   0  0  0  0  0  0  0  0  0  0  0  0
   -0.9367  -31.0535  -18.1537 C   0  0  0  0  0  0  0  0  0  0  0  0
  1  5  2  3
  1 39  1  0
  2 26  1  0
  3  6  1  0
  3 22  1  0
  3 38  2  0
  4 16  1  0
  4 23  1  0
  4 35  1  0
  5  8  1  0
  7 19  1  0
  7 20  2  0
  8 24  1  0
  8 37  1  0
  9 12  1  0
 10 17  1  0
 10 18  1  0
 11 27  2  0
 11 30  1  0
 12 18  1  0
 12 33  1  0
 13 14  1  0
 13 28  1  0
 13 34  1  0
 14 31  1  0
 15 35  2  0
 16 27  1  0
 16 32  2  0
 17 26  1  0
 17 33  1  0
 19 24  1  0
 19 38  1  0
 20 22  1  0
 21 26  2  0
 23 28  1  0
 23 34  1  0
 24 31  2  3
 25 30  2  0
 25 32  1  0
 28 32  1  0
 29 33  2  3
 29 35  1  0
 30 36  1  0
 37 38  1  0
M  END
>  <ID>  (1) 
conformer_0

$$$$
