
     RDKit          3D

 38 45  0  0  0  0  0  0  0  0999 V2000
    0.0290  -30.0038   -8.1455 C   0  0  0  0  0  0  0  0  0  0  0  0
   -3.9335  -28.0430   -7.9554 C   0  0  0  0  0  0  0  0  0  0  0  0
    1.1957  -33.0102   -9.7908 C   0  0  0  0  0  0  0  0  0  0  0  0
   -4.3764  -28.8541  -10.1753 C   0  0  0  0  0  0  0  0  0  0  0  0
   -5.9753  -27.4581   -9.0201 C   0  0  0  0  0  0  0  0  0  0  0  0
   -4.1246  -29.3143  -11.5506 C   0  0  0  0  0  0  0  0  0  0  0  0
   -2.3284  -29.7112   -8.6317 C   0  0  0  0  0  0  0  0  0  0  0  0
   -0.0492  -31.3732   -8.4191 C   0  0  0  0  0  0  0  0  0  0  0  0
    2.1151  -32.4690  -10.8283 C   0  0  0  0  0  0  0  0  0  0  0  0
   -1.3234  -31.9123   -8.5705 C   0  0  0  0  0  0  0  0  0  0  0  0
   -1.3847  -30.3105  -13.6803 C   0  0  0  0  0  0  0  0  0  0  0  0
   -3.4415  -29.5082  -12.7221 C   0  0  0  0  0  0  0  0  0  0  0  0
    1.0665  -32.1587   -8.6589 O   0  0  0  0  0  0  0  0  0  0  0  0
   -5.6037  -28.2181  -10.0699 C   0  0  0  0  0  0  0  0  0  0  0  0
    3.5546  -31.4072  -13.5250 C   0  0  0  0  0  0  0  0  0  0  0  0
   -3.8114  -29.5281  -15.2215 C   0  0  0  0  0  0  0  0  0  0  0  0
    1.0619  -31.1058  -17.5833 C   0  0  0  0  0  0  0  0  0  0  0  0
    1.8066  -32.8132  -12.2455 C   0  0  0  0  0  0  0  0  0  0  0  0
    1.1722  -30.5924  -12.5745 C   0  0  0  0  0  0  0  0  0  0  0  0
   -3.9849  -29.5511  -13.9191 N   0  0  0  0  0  0  0  0  0  0  0  0
   -4.6330  -28.9508  -16.0112 O   0  0  0  0  0  0  0  0  0  0  0  0
    1.7159  -31.8889  -14.6047 C   0  0  0  0  0  0  0  0  0  0  0  0
   -1.3821  -30.6784  -17.8693 C   0  0  0  0  0  0  0  0  0  0  0  0
   -0.2916  -30.9850  -17.0317 C   0  0  0  0  0  0  0  0  0  0  0  0
   -0.0047  -30.7156  -13.4095 N   0  0  0  0  0  0  0  0  0  0  0  0
    3.3730  -32.0941  -10.6726 O   0  0  0  0  0  0  0  0  0  0  0  0
   -1.6149  -30.4723  -15.0605 C   0  0  0  0  0  0  0  0  0  0  0  0
   -2.6964  -30.1984  -15.8645 C   0  0  0  0  0  0  0  0  0  0  0  0
   -2.6033  -30.1734  -17.2677 C   0  0  0  0  0  0  0  0  0  0  0  0
   -1.0865  -29.2044   -8.2436 C   0  0  0  0  0  0  0  0  0  0  0  0
   -5.0840  -27.3511   -7.9490 C   0  0  0  0  0  0  0  0  0  0  0  0
    2.9772  -31.3005  -15.1286 C   0  0  0  0  0  0  0  0  0  0  0  0
   -2.4162  -31.0967   -8.7266 C   0  0  0  0  0  0  0  0  0  0  0  0
   -0.4515  -30.9655  -15.6745 C   0  0  0  0  0  0  0  0  0  0  0  0
   -3.5084  -28.8991   -8.9580 C   0  0  0  0  0  0  0  0  0  0  0  0
    2.1471  -31.6053  -13.0341 C   0  0  0  0  0  0  0  0  0  0  0  0
    0.4779  -31.1823  -14.6647 C   0  0  0  0  0  0  0  0  0  0  0  0
   -2.1234  -29.8821  -12.6674 N   0  0  0  0  0  0  0  0  0  0  0  0
  1  8  1  0
  1 30  2  0
  2 31  2  0
  2 35  1  0
  3  9  1  0
  3 13  1  0
  4  6  2  0
  4 14  1  0
  4 35  1  0
  5 14  2  0
  5 31  1  0
  6 12  2  0
  7 30  1  0
  7 33  1  0
  7 35  1  0
  8 10  1  0
  8 13  1  0
  9 18  1  0
  9 26  1  0
 10 33  2  0
 11 25  1  0
 11 27  1  0
 11 38  2  0
 12 20  1  0
 12 38  1  0
 15 32  1  0
 15 36  1  0
 16 20  1  0
 16 21  2  0
 16 28  1  0
 17 24  1  0
 18 36  1  0
 19 25  1  0
 19 36  1  0
 22 32  1  0
 22 36  1  0
 22 37  1  0
 23 24  1  0
 23 29  2  0
 24 34  2  0
 25 37  1  0
 27 28  2  0
 27 34  1  0
 28 29  1  0
 34 37  1  0
M  END
>  <ID>  (1) 
conformer_0

$$$$
