
     RDKit          3D

 31 36  0  0  0  0  0  0  0  0999 V2000
   -3.0930  -29.9221  -14.3159 C   0  0  0  0  0  0  0  0  0  0  0  0
   -6.3166  -27.6619   -7.0396 O   0  0  0  0  0  0  0  0  0  0  0  0
   -1.7672  -30.0560  -10.6987 N   0  0  0  0  0  0  0  0  0  0  0  0
   -4.3001  -28.8751  -10.4256 C   0  0  0  0  0  0  0  0  0  0  0  0
   -1.4453  -30.6537  -16.0027 N   0  0  0  0  0  0  0  0  0  0  0  0
    0.4457  -31.4276  -16.9238 N   0  0  0  0  0  0  0  0  0  0  0  0
   -1.5912  -30.0151   -9.2649 C   0  0  0  0  0  0  0  0  0  0  0  0
   -4.4186  -29.3197  -14.3546 O   0  0  0  0  0  0  0  0  0  0  0  0
    0.4564  -30.8604  -12.8697 C   0  0  0  0  0  0  0  0  0  0  0  0
    0.6010  -31.3576  -15.5623 C   0  0  0  0  0  0  0  0  0  0  0  0
   -0.5431  -30.8179  -14.9824 C   0  0  0  0  0  0  0  0  0  0  0  0
   -2.0441  -30.0553  -13.2296 C   0  0  0  0  0  0  0  0  0  0  0  0
   -3.7271  -29.3123  -11.6685 O   0  0  0  0  0  0  0  0  0  0  0  0
   -1.2480  -30.5892  -18.2549 O   0  0  0  0  0  0  0  0  0  0  0  0
    1.5804  -31.4776  -13.4385 C   0  0  0  0  0  0  0  0  0  0  0  0
   -5.6850  -27.9643   -8.1356 C   0  0  0  0  0  0  0  0  0  0  0  0
   -3.7271  -30.3896  -16.6063 O   0  0  0  0  0  0  0  0  0  0  0  0
   -0.7358  -30.5479  -13.6531 C   0  0  0  0  0  0  0  0  0  0  0  0
   -2.6124  -29.4565   -8.5281 C   0  0  0  0  0  0  0  0  0  0  0  0
   -4.4518  -28.5220   -8.0658 C   0  0  0  0  0  0  0  0  0  0  0  0
   -0.5443  -30.4072   -8.3608 C   0  0  0  0  0  0  0  0  0  0  0  0
   -6.2159  -27.8103   -9.4074 C   0  0  0  0  0  0  0  0  0  0  0  0
    2.7303  -32.5492  -15.5072 C   0  0  0  0  0  0  0  0  0  0  0  0
   -2.7994  -30.4261  -15.6873 C   0  0  0  0  0  0  0  0  0  0  0  0
    1.6673  -31.7806  -14.8217 C   0  0  0  0  0  0  0  0  0  0  0  0
   -2.5043  -29.8801  -11.8675 C   0  0  0  0  0  0  0  0  0  0  0  0
   -1.0054  -30.0291   -7.0932 C   0  0  0  0  0  0  0  0  0  0  0  0
   -2.2130  -29.4856   -7.1977 N   0  0  0  0  0  0  0  0  0  0  0  0
   -3.7756  -28.9708   -9.0947 C   0  0  0  0  0  0  0  0  0  0  0  0
   -0.7436  -30.9223  -17.1743 C   0  0  0  0  0  0  0  0  0  0  0  0
   -5.5505  -28.2666  -10.5402 C   0  0  0  0  0  0  0  0  0  0  0  0
  1  8  1  0
  1 12  1  0
  1 24  1  0
  2 16  1  0
  3  7  1  0
  3 26  2  0
  4 13  1  0
  4 29  1  0
  4 31  1  0
  5 11  1  0
  5 24  1  0
  5 30  1  0
  6 10  1  0
  6 30  1  0
  7 19  1  0
  7 21  1  0
  9 15  1  0
  9 18  2  0
 10 11  2  0
 10 25  1  0
 11 18  1  0
 12 18  1  0
 12 26  1  0
 13 26  1  0
 14 30  2  0
 15 25  2  0
 16 20  2  0
 16 22  1  0
 17 24  2  0
 19 28  1  0
 19 29  2  0
 20 29  1  0
 21 27  1  0
 22 31  2  0
 23 25  1  0
 27 28  1  0
M  END
>  <ID>  (1) 
conformer_0

$$$$
