
     RDKit          3D

 41 48  0  0  0  0  0  0  0  0999 V2000
    4.8492  -32.3515  -11.3706 N   0  0  0  0  0  0  0  0  0  0  0  0
   -5.6970  -28.0439  -10.0337 C   0  0  0  0  0  0  0  0  0  0  0  0
   -2.1261  -30.3741  -15.8255 N   0  0  0  0  0  0  0  0  0  0  0  0
    5.8166  -31.6250   -9.2783 C   0  0  0  0  0  0  0  0  0  0  0  0
   -0.7163  -30.6509  -15.5012 C   0  0  0  0  0  0  0  0  0  0  0  0
   -3.7963  -29.5683  -13.0741 N   0  0  0  0  0  0  0  0  0  0  0  0
   -3.0360  -29.9725   -8.5153 C   0  0  0  0  0  0  0  0  0  0  0  0
    0.4051  -30.8220  -11.6384 C   0  0  0  0  0  0  0  0  0  0  0  0
   -0.8344  -30.3630  -11.1690 C   0  0  0  0  0  0  0  0  0  0  0  0
    4.2555  -31.7363   -9.2465 C   0  0  0  0  0  0  0  0  0  0  0  0
   -0.9381  -30.2845   -6.3395 C   0  0  0  0  0  0  0  0  0  0  0  0
   -2.8405  -29.8834  -14.2415 C   0  0  0  0  0  0  0  0  0  0  0  0
    6.3718  -32.9927   -8.9125 O   0  0  0  0  0  0  0  0  0  0  0  0
   -1.5297  -31.1500  -18.0575 C   0  0  0  0  0  0  0  0  0  0  0  0
   -6.7468  -26.7563   -8.2633 C   0  0  0  0  0  0  0  0  0  0  0  0
    6.2248  -31.9590  -10.8270 C   0  0  0  0  0  0  0  0  0  0  0  0
    3.7766  -31.6649  -10.6959 C   0  0  0  0  0  0  0  0  0  0  0  0
    0.5636  -32.0158  -12.4591 C   0  0  0  0  0  0  0  0  0  0  0  0
   -4.1164  -28.8515   -6.7784 N   0  0  0  0  0  0  0  0  0  0  0  0
   -1.5975  -30.1472  -13.4673 C   0  0  0  0  0  0  0  0  0  0  0  0
   -5.8810  -27.3205   -7.3323 C   0  0  0  0  0  0  0  0  0  0  0  0
   -4.9085  -28.2581   -7.6863 C   0  0  0  0  0  0  0  0  0  0  0  0
   -2.3035  -30.4162   -6.3007 N   0  0  0  0  0  0  0  0  0  0  0  0
   -0.2453  -30.4388   -7.5357 O   0  0  0  0  0  0  0  0  0  0  0  0
   -3.7370  -29.6576  -10.7622 N   0  0  0  0  0  0  0  0  0  0  0  0
    1.3516  -30.9573  -10.6503 N   0  0  0  0  0  0  0  0  0  0  0  0
    0.2031  -31.0643  -16.4212 C   0  0  0  0  0  0  0  0  0  0  0  0
   -3.1648  -29.7306   -7.1838 N   0  0  0  0  0  0  0  0  0  0  0  0
    2.3987  -31.8148  -11.0713 C   0  0  0  0  0  0  0  0  0  0  0  0
   -3.1756  -29.7126  -11.8803 C   0  0  0  0  0  0  0  0  0  0  0  0
   -2.4324  -30.7112  -17.1392 C   0  0  0  0  0  0  0  0  0  0  0  0
   -4.8306  -28.5499   -9.0449 C   0  0  0  0  0  0  0  0  0  0  0  0
   -0.4352  -30.4101  -14.1854 N   0  0  0  0  0  0  0  0  0  0  0  0
    1.9247  -32.5054  -12.1920 C   0  0  0  0  0  0  0  0  0  0  0  0
   -3.4799  -29.7143  -15.3010 O   0  0  0  0  0  0  0  0  0  0  0  0
    6.9142  -33.3150  -10.3074 C   0  0  0  0  0  0  0  0  0  0  0  0
   -1.8234  -30.0656  -12.1159 C   0  0  0  0  0  0  0  0  0  0  0  0
   -6.6560  -27.1563   -9.5932 C   0  0  0  0  0  0  0  0  0  0  0  0
   -2.8290  -30.8029   -4.9935 C   0  0  0  0  0  0  0  0  0  0  0  0
   -0.1750  -31.3676  -17.7253 C   0  0  0  0  0  0  0  0  0  0  0  0
   -3.8245  -29.4174   -9.4548 C   0  0  0  0  0  0  0  0  0  0  0  0
  1 16  1  0
  1 17  1  0
  2 32  1  0
  2 38  2  0
  3  5  1  0
  3 31  1  0
  3 35  1  0
  4 10  1  0
  4 13  1  0
  4 16  1  0
  5 27  2  0
  5 33  1  0
  6 12  1  0
  6 30  1  0
  7 28  1  0
  7 41  2  0
  8  9  1  0
  8 18  1  0
  8 26  1  0
  9 37  1  0
 10 17  1  0
 11 23  1  0
 11 24  1  0
 12 20  2  0
 12 35  1  0
 13 36  1  0
 14 31  2  0
 14 40  1  0
 15 21  2  0
 15 38  1  0
 16 36  1  0
 17 29  1  0
 18 34  1  0
 19 22  2  0
 19 28  1  0
 20 33  1  0
 20 37  1  0
 21 22  1  0
 22 32  1  0
 23 28  1  0
 23 39  1  0
 25 30  1  0
 25 41  1  0
 26 29  1  0
 27 40  1  0
 29 34  1  0
 30 37  2  0
 32 41  1  0
M  END
>  <ID>  (1) 
conformer_0

$$$$
