
     RDKit          3D

 57 63  0  0  0  0  0  0  0  0999 V2000
    6.2496  -34.7328  -10.0292 C   0  0  0  0  0  0  0  0  0  0  0  0
   -2.3593  -30.3412   -8.5108 C   0  0  0  0  0  0  0  0  0  0  0  0
    3.6577  -31.0247  -14.9278 O   0  0  0  0  0  0  0  0  0  0  0  0
   -4.5793  -29.2976   -5.6296 N   0  0  0  0  0  0  0  0  0  0  0  0
    1.5070  -31.7152  -11.0489 C   0  0  0  0  0  3  0  0  0  0  0  0
   -1.1651  -31.1788   -8.4857 C   0  0  0  0  0  0  0  0  0  0  0  0
   -0.4676  -31.2254  -17.9601 C   0  0  0  0  0  0  0  0  0  0  0  0
   -0.2823  -31.4669   -9.3490 C   0  0  0  0  0  3  0  0  0  0  0  0
   -5.3540  -27.8964   -9.3279 C   0  0  0  0  0  0  0  0  0  0  0  0
    0.1230  -31.0931  -16.7838 C   0  0  0  0  0  0  0  0  0  0  0  0
    0.5469  -31.0317  -11.5882 C   0  0  0  0  0  0  0  0  0  0  0  0
   -6.3319  -26.4589   -7.1970 C   0  0  0  0  0  0  0  0  0  0  0  0
   -2.4153  -29.7899  -13.1368 N   0  0  0  0  0  0  0  0  0  0  0  0
   -6.1331  -25.9079  -10.1725 F   0  0  0  0  0  0  0  0  0  0  0  0
    4.7380  -32.4253  -12.5944 N   0  0  0  0  0  0  0  0  0  0  0  0
    2.9037  -31.2239  -13.7969 C   0  0  0  0  0  0  0  0  0  0  0  0
   -4.9382  -29.2521  -13.7957 N   0  0  0  0  0  0  0  0  0  0  0  0
   -5.1979  -26.9319   -3.1370 C   0  0  0  0  0  0  0  0  0  0  0  0
   -4.9209  -26.9203   -4.7220 C   0  0  0  0  0  0  0  0  0  0  0  0
    3.4866  -33.5236   -9.4447 C   0  0  0  0  0  0  0  0  0  0  0  0
   -5.6824  -29.1332   -6.6431 C   0  0  0  0  0  0  0  0  0  0  0  0
   -3.3946  -29.2948  -10.6585 C   0  0  0  0  0  0  0  0  0  0  0  0
   -0.5867  -30.7326  -15.6720 C   0  0  0  0  0  0  0  0  0  0  0  0
   -1.9387  -30.4245  -15.6543 C   0  0  0  0  0  0  0  0  0  0  0  0
   -2.8114  -29.9358  -14.4629 C   0  0  0  0  0  0  0  0  0  0  0  0
   -3.0324  -30.9038   -5.2023 O   0  0  0  0  0  0  0  0  0  0  0  0
   -3.3700  -29.4505  -12.1857 C   0  0  0  0  0  0  0  0  0  0  0  0
    3.4642  -31.9139  -12.6574 C   0  0  0  0  0  0  0  0  0  0  0  0
   -7.3197  -26.6337   -8.2680 C   0  0  0  0  0  0  0  0  0  0  0  0
   -5.1275  -28.4490   -3.2267 N   0  0  0  0  0  0  0  0  0  0  0  0
    1.6584  -30.7132  -13.7537 C   0  0  0  0  0  0  0  0  0  0  0  0
   -2.6207  -29.8410   -9.7078 C   0  0  0  0  0  0  0  0  0  0  0  0
   -6.8235  -28.5255   -6.1477 C   0  0  0  0  0  0  0  0  0  0  0  0
   -5.3349  -26.1742   -2.2976 O   0  0  0  0  0  0  0  0  0  0  0  0
    5.4530  -34.9587   -8.8924 C   0  0  0  0  0  0  0  0  0  0  0  0
    5.9306  -33.9090  -11.0818 C   0  0  0  0  0  0  0  0  0  0  0  0
    0.6413  -30.5315  -12.8669 C   0  0  0  0  0  0  0  0  0  0  0  0
   -4.6910  -28.3782   -4.6155 C   0  0  0  0  0  0  0  0  0  0  0  0
   -6.5283  -27.0847   -9.5551 C   0  0  0  0  0  0  0  0  0  0  0  0
   -7.3783  -27.7004  -10.3689 F   0  0  0  0  0  0  0  0  0  0  0  0
    3.6283  -32.9458  -10.6813 C   0  0  0  0  0  0  0  0  0  0  0  0
   -1.8531  -30.9640  -17.9998 C   0  0  0  0  0  0  0  0  0  0  0  0
   -3.0627  -30.1580   -7.3369 N   0  0  0  0  0  0  0  0  0  0  0  0
   -5.8953  -30.4150   -7.3165 C   0  0  0  0  0  0  0  0  0  0  0  0
    2.7533  -32.1525  -11.4643 C   0  0  0  0  0  0  0  0  0  0  0  0
    4.8167  -33.1256  -11.4192 C   0  0  0  0  0  0  0  0  0  0  0  0
    0.4653  -31.4550  -10.4411 C   0  0  0  0  0  0  0  0  0  0  0  0
    4.2252  -34.3652   -8.6782 C   0  0  0  0  0  0  0  0  0  0  0  0
   -3.4651  -30.1212   -6.0314 C   0  0  0  0  0  0  0  0  0  0  0  0
   -4.6489  -29.1267  -12.5547 N   0  0  0  0  0  0  0  0  0  0  0  0
   -2.5349  -30.5959  -16.8652 C   0  0  0  0  0  0  0  0  0  0  0  0
   -5.8485  -27.8761   -6.8828 N   0  0  0  0  0  0  0  0  0  0  0  0
    4.7836  -31.7889  -15.3613 C   0  0  0  0  0  0  0  0  0  0  0  0
   -4.1222  -29.6596  -14.7334 N   0  0  0  0  0  0  0  0  0  0  0  0
    1.7415  -31.4232  -16.8828 Cl  0  0  0  0  0  0  0  0  0  0  0  0
   -4.5017  -28.6429  -10.1737 C   0  0  0  0  0  3  0  0  0  0  0  0
   -8.2061  -25.6715   -8.6659 F   0  0  0  0  0  0  0  0  0  0  0  0
  1 35  1  0
  1 36  2  0
  2  6  1  0
  2 32  2  0
  2 43  1  0
  3 16  1  0
  3 53  1  0
  4 21  1  0
  4 38  1  0
  4 49  1  0
  5 45  2  0
  5 47  1  0
  6  8  2  0
  7 10  2  0
  7 42  1  0
  8 47  1  0
  9 39  1  0
  9 56  2  0
 10 23  1  0
 10 55  1  0
 11 37  2  0
 11 47  2  0
 12 29  1  0
 12 52  1  0
 13 25  1  0
 13 27  1  0
 14 39  1  0
 15 28  1  0
 15 46  1  0
 16 28  1  0
 16 31  2  0
 17 50  1  0
 17 54  1  0
 18 19  1  0
 18 30  1  0
 18 34  2  0
 19 38  1  0
 20 41  1  0
 20 48  2  0
 21 33  1  0
 21 44  1  0
 21 52  1  0
 22 27  1  0
 22 32  2  0
 22 56  1  0
 23 24  1  0
 24 25  1  0
 24 51  2  0
 25 54  2  0
 26 49  2  0
 27 50  2  0
 28 45  1  0
 29 39  1  0
 29 57  1  0
 30 38  2  0
 31 37  1  0
 35 48  1  0
 36 46  1  0
 39 40  1  0
 41 45  1  0
 41 46  2  0
 42 51  1  0
 43 49  1  0
M  END
>  <ID>  (1) 
conformer_0

$$$$
