
     RDKit          3D

 34 39  0  0  0  0  0  0  0  0999 V2000
    0.9627  -32.2255   -8.6355 C   0  0  0  0  0  0  0  0  0  0  0  0
    1.3422  -31.3008  -14.9964 C   0  0  0  0  0  0  0  0  0  0  0  0
   -1.1626  -31.2778   -8.1055 C   0  0  0  0  0  0  0  0  0  0  0  0
   -2.5437  -30.1018   -9.7948 C   0  0  0  0  0  0  0  0  0  0  0  0
   -4.4619  -29.8082   -7.1162 O   0  0  0  0  0  0  0  0  0  0  0  0
   -0.9428  -30.5363  -15.0539 C   0  0  0  0  0  0  0  0  0  0  0  0
   -4.0507  -29.1123  -11.8991 C   0  0  0  0  0  0  0  0  0  0  0  0
    0.1025  -31.2221  -17.0794 N   0  0  0  0  0  0  0  0  0  0  0  0
    1.9270  -31.3220  -12.7371 C   0  0  0  0  0  0  0  0  0  0  0  0
   -3.9056  -30.8308   -6.6863 C   0  0  0  0  0  0  0  0  0  0  0  0
    2.4154  -31.6437  -14.1142 C   0  0  0  0  0  0  0  0  0  0  0  0
   -0.9930  -30.7783  -16.4016 C   0  0  0  0  0  0  0  0  0  0  0  0
   -3.2533  -29.7830  -15.0601 C   0  0  0  0  0  0  0  0  0  0  0  0
   -0.3135  -31.2297  -10.2524 C   0  0  0  0  0  0  0  0  0  0  0  0
   -1.3218  -30.8899   -9.3756 C   0  0  0  0  0  0  0  0  0  0  0  0
   -0.0528  -31.9291   -7.6891 C   0  0  0  0  0  0  0  0  0  0  0  0
    0.7774  -31.8825   -9.9162 C   0  0  0  0  0  0  0  0  0  0  0  0
   -3.8315  -29.4132   -9.4803 C   0  0  0  0  0  0  0  0  0  0  0  0
   -3.1467  -29.8935  -16.4194 N   0  0  0  0  0  0  0  0  0  0  0  0
   -6.1062  -27.6314   -9.2743 C   0  0  0  0  0  0  0  0  0  0  0  0
    3.5246  -32.2083  -14.8292 C   0  0  0  0  0  0  0  0  0  0  0  0
   -5.6009  -28.0154  -10.4746 C   0  0  0  0  0  0  0  0  0  0  0  0
   -4.5480  -29.1643   -8.2390 C   0  0  0  0  0  0  0  0  0  0  0  0
   -2.0712  -30.0831  -14.3476 C   0  0  0  0  0  0  0  0  0  0  0  0
    0.5602  -30.6563  -12.9244 C   0  0  0  0  0  0  0  0  0  0  0  0
    0.2598  -30.7924  -14.3322 C   0  0  0  0  0  0  0  0  0  0  0  0
   -2.8420  -29.6655  -12.0770 C   0  0  0  0  0  0  0  0  0  0  0  0
   -2.1839  -30.5977  -17.1364 C   0  0  0  0  0  0  0  0  0  0  0  0
   -4.3699  -29.5256  -14.5898 O   0  0  0  0  0  0  0  0  0  0  0  0
    1.2666  -31.4597  -16.3805 C   0  0  0  0  0  0  0  0  0  0  0  0
   -4.4964  -28.8575  -10.6167 C   0  0  0  0  0  0  0  0  0  0  0  0
   -2.0724  -29.9466  -13.0008 C   0  0  0  0  0  0  0  0  0  0  0  0
   -2.2382  -30.0362  -11.0737 N   0  0  0  0  0  0  0  0  0  0  0  0
   -5.5362  -28.2002   -8.1919 C   0  0  0  0  0  0  0  0  0  0  0  0
  1 16  2  0
  1 17  1  0
  2 11  1  0
  2 26  2  0
  2 30  1  0
  3 15  2  0
  3 16  1  0
  4 15  1  0
  4 18  1  0
  4 33  2  0
  5 10  1  0
  5 23  1  0
  6 12  1  0
  6 24  1  0
  6 26  1  0
  7 27  2  0
  7 31  1  0
  8 12  2  0
  8 30  1  0
  9 11  1  0
  9 25  1  0
 11 21  1  0
 12 28  1  0
 13 19  1  0
 13 24  1  0
 13 29  2  0
 14 15  1  0
 14 17  2  0
 18 23  1  0
 18 31  2  0
 19 28  1  0
 20 22  2  0
 20 34  1  0
 22 31  1  0
 23 34  2  0
 24 32  2  3
 25 26  1  0
 27 32  1  0
 27 33  1  0
M  END
>  <ID>  (1) 
conformer_0

$$$$
