
     RDKit          3D

 42 48  0  0  0  0  0  0  0  0999 V2000
   -4.0647  -29.2400   -8.0835 C   0  0  0  0  0  0  0  0  0  0  0  0
   -3.7365  -29.2923  -12.3447 C   0  0  0  0  0  0  0  0  0  0  0  0
   -0.8697  -30.2474   -6.9221 O   0  0  0  0  0  0  0  0  0  0  0  0
   -1.9166  -30.1475   -7.7184 C   0  0  0  0  0  0  0  0  0  0  0  0
   -0.5632  -31.1581   -9.3672 N   0  0  0  0  0  0  0  0  0  0  0  0
    3.4826  -32.8265  -12.9011 C   0  0  0  0  0  0  0  0  0  0  0  0
   -0.3812  -31.2993  -17.3261 C   0  0  0  0  0  0  0  0  0  0  0  0
   -7.8401  -27.1578   -8.8503 N   0  0  0  0  0  0  0  0  0  0  0  0
   -4.6870  -28.8292  -11.6457 C   0  0  0  0  0  0  0  0  0  0  0  0
    1.5036  -31.9010  -14.0187 C   0  0  0  0  0  0  0  0  0  0  0  0
    2.7004  -32.3514  -10.5730 C   0  0  0  0  0  0  0  0  0  0  0  0
   -4.9112  -28.6985  -10.3203 C   0  0  0  0  0  0  0  0  0  0  0  0
   -2.6985  -29.8671   -9.9192 C   0  0  0  0  0  0  0  0  0  0  0  0
   -1.6405  -30.9475  -17.7449 C   0  0  0  0  0  0  0  0  0  0  0  0
   -2.1737  -30.2885  -15.5337 C   0  0  0  0  0  0  0  0  0  0  0  0
   -5.8812  -26.0695   -8.9508 O   0  0  0  0  0  0  0  0  0  0  0  0
   -1.4523  -29.9453  -12.8761 C   0  0  0  0  0  0  0  0  0  0  0  0
   -4.2579  -29.3756  -15.0133 O   0  0  0  0  0  0  0  0  0  0  0  0
    1.1680  -31.7086  -15.4284 C   0  0  0  0  0  0  0  0  0  0  0  0
   -3.8813  -29.2551   -9.4421 C   0  0  0  0  0  0  0  0  0  0  0  0
    2.7393  -32.5787  -14.1611 N   0  0  0  0  0  0  0  0  0  0  0  0
   -2.7685  -29.6399  -13.1842 C   0  0  0  0  0  0  0  0  0  0  0  0
    2.1245  -32.2206  -16.2269 N   0  0  0  0  0  0  0  0  0  0  0  0
    3.9032  -34.0632  -15.5684 C   0  0  0  0  0  0  0  0  0  0  0  0
    2.5130  -32.3454  -11.9232 C   0  0  0  0  0  0  0  0  0  0  0  0
   -3.3939  -31.0394   -5.2313 O   0  0  0  0  0  1  0  0  0  0  0  0
    1.3355  -31.8662  -12.5309 C   0  0  0  0  0  0  0  0  0  0  0  0
    3.0050  -32.9209  -15.4622 C   0  0  0  0  0  0  0  0  0  0  0  0
   -0.6378  -30.4342  -13.7857 C   0  0  0  0  0  0  0  0  0  0  0  0
   -6.5321  -27.1053   -9.2342 C   0  0  0  0  0  0  0  0  0  0  0  0
   -6.0730  -28.1628   -9.8997 N   0  0  0  0  0  0  0  0  0  0  0  0
    1.6842  -31.9913   -9.6916 C   0  0  0  0  0  0  0  0  0  0  0  0
   -3.8476  -28.8399   -5.1510 O   0  0  0  0  0  1  0  0  0  0  0  0
   -3.1669  -29.7588   -7.2309 C   0  0  0  0  0  0  0  0  0  0  0  0
   -2.5225  -30.4612  -16.8428 C   0  0  0  0  0  0  0  0  0  0  0  0
   -3.1332  -29.7401  -14.6082 C   0  0  0  0  0  0  0  0  0  0  0  0
   -3.4725  -29.8891   -5.8470 N   0  0  0  0  0  0  0  0  0  0  0  0
    0.4495  -31.5912  -10.2053 C   0  0  0  0  0  0  0  0  0  0  0  0
   -0.0497  -31.1902  -16.0248 C   0  0  0  0  0  0  0  0  0  0  0  0
   -1.7076  -30.3874   -9.0910 C   0  0  0  0  0  0  0  0  0  0  0  0
    0.3460  -31.5996  -11.5905 C   0  0  0  0  0  0  0  0  0  0  0  0
   -0.9338  -30.6420  -15.0963 C   0  0  0  0  0  0  0  0  0  0  0  0
  1 20  1  0
  1 34  2  0
  2  9  2  0
  2 22  2  0
  3  4  1  0
  4 34  1  0
  4 40  1  0
  5 38  1  0
  5 40  1  0
  6 21  1  0
  6 25  1  0
  7 14  2  0
  7 39  1  0
  8 30  1  0
  9 12  1  0
 10 19  1  0
 10 21  1  0
 10 27  2  0
 11 25  2  0
 11 32  1  0
 12 20  2  0
 12 31  1  0
 13 20  1  0
 13 40  2  0
 14 35  1  0
 15 35  2  0
 15 36  1  0
 15 42  1  0
 16 30  2  0
 17 22  1  0
 17 29  2  0
 18 36  2  0
 19 23  1  0
 19 39  2  0
 21 28  1  0
 22 36  1  0
 23 28  2  0
 24 28  1  0
 25 27  1  0
 26 37  1  0
 27 41  1  0
 29 42  1  0
 30 31  1  0
 32 38  1  0
 33 37  1  0
 34 37  1  0
 38 41  2  0
 39 42  1  0
M  END
>  <ID>  (1) 
conformer_0

$$$$
