
     RDKit          3D

 28 33  0  0  0  0  0  0  0  0999 V2000
   -3.1525  -29.5807   -8.4952 C   0  0  0  0  0  0  0  0  0  0  0  0
   -3.6822  -29.2976  -12.0661 C   0  0  0  0  0  0  0  0  0  0  0  0
   -5.2953  -28.5014   -8.8080 C   0  0  0  0  0  0  0  0  0  0  0  0
   -1.0596  -30.8860  -15.8260 N   0  0  0  0  0  0  0  0  0  0  0  0
   -1.9495  -30.8919  -18.0182 N   0  0  0  0  0  0  0  0  0  0  0  0
   -4.3231  -29.0419   -7.9275 C   0  0  0  0  0  0  0  0  0  0  0  0
   -3.3618  -29.8066  -14.8981 C   0  0  0  0  0  0  0  0  0  0  0  0
   -4.4661  -29.3326  -14.5934 O   0  0  0  0  0  0  0  0  0  0  0  0
    1.3076  -31.4667  -13.8730 C   0  0  0  0  0  0  0  0  0  0  0  0
   -1.1285  -30.6083  -14.5067 C   0  0  0  0  0  0  0  0  0  0  0  0
    3.6870  -31.2378  -13.6963 O   0  0  0  0  0  0  0  0  0  0  0  0
   -0.2775  -30.6854  -12.2196 N   0  0  0  0  0  0  0  0  0  0  0  0
   -2.3095  -30.0730  -14.0100 C   0  0  0  0  0  0  0  0  0  0  0  0
   -1.4682  -30.1722  -11.7478 C   0  0  0  0  0  0  0  0  0  0  0  0
    3.2537  -31.8881  -12.4448 C   0  0  0  0  0  0  0  0  0  0  0  0
   -0.0599  -30.8872  -13.5985 C   0  0  0  0  0  0  0  0  0  0  0  0
   -2.9351  -29.5849   -9.8445 C   0  0  0  0  0  0  0  0  0  0  0  0
   -3.2004  -30.1172  -16.1986 N   0  0  0  0  0  0  0  0  0  0  0  0
   -4.4401  -30.3738   -6.0370 C   0  0  0  0  0  0  0  0  0  0  0  0
   -1.7211  -30.0459  -10.3792 N   0  0  0  0  0  0  0  0  0  0  0  0
    1.7616  -32.0343  -12.5249 C   0  0  0  0  0  0  0  0  0  0  0  0
    2.5667  -31.5046  -14.6704 C   0  0  0  0  0  0  0  0  0  0  0  0
    0.9076  -31.2280  -11.4573 C   0  0  0  0  0  0  0  0  0  0  0  0
   -5.1189  -28.5665  -10.1832 C   0  0  0  0  0  0  0  0  0  0  0  0
   -3.9227  -29.1444  -10.7218 C   0  0  0  0  0  0  0  0  0  0  0  0
   -2.0657  -30.6416  -16.6706 C   0  0  0  0  0  0  0  0  0  0  0  0
   -4.5531  -29.0304   -6.6144 O   0  0  0  0  0  0  0  0  0  0  0  0
   -2.5129  -29.8243  -12.6228 C   0  0  0  0  0  0  0  0  0  0  0  0
  1  6  2  0
  1 17  1  0
  2 25  2  0
  2 28  1  0
  3  6  1  0
  3 24  2  0
  4 10  2  0
  4 26  1  0
  5 26  2  0
  6 27  1  0
  7  8  2  0
  7 13  1  0
  7 18  1  0
  9 16  1  0
  9 21  1  0
  9 22  1  0
 10 13  1  0
 10 16  1  0
 11 15  1  0
 11 22  1  0
 12 14  1  0
 12 16  1  0
 12 23  1  0
 13 28  1  0
 14 20  1  0
 14 28  2  0
 15 21  1  0
 17 20  2  0
 17 25  1  0
 18 26  1  0
 19 27  1  0
 21 23  1  0
 24 25  1  0
M  END
>  <ID>  (1) 
conformer_0

$$$$
