
     RDKit          3D

 46 53  0  0  0  0  0  0  0  0999 V2000
   -5.2977  -28.3566   -9.4513 N   0  0  0  0  0  0  0  0  0  0  0  0
   -1.5528  -28.8053   -6.6581 O   0  0  0  0  0  0  0  0  0  0  0  0
   -4.3852  -29.9615   -5.1256 C   0  0  0  0  0  0  0  0  0  0  0  0
   -2.2617  -30.1388  -11.5884 C   0  0  0  0  0  0  0  0  0  0  0  0
   -3.4577  -29.5424   -7.8864 N   0  0  0  0  0  0  0  0  0  0  0  0
   -5.2694  -29.5097   -6.0956 C   0  0  0  0  0  0  0  0  0  0  0  0
    2.2560  -31.9353  -14.5150 C   0  0  0  0  0  0  0  0  0  0  0  0
    0.2864  -30.6772  -13.7932 C   0  0  0  0  0  0  0  0  0  0  0  0
   -6.4224  -30.0028   -4.2548 C   0  0  0  0  0  0  0  0  0  0  0  0
   -3.0655  -30.0807   -5.4481 C   0  0  0  0  0  0  0  0  0  0  0  0
    5.9538  -32.3386  -14.3046 C   0  0  0  0  0  0  0  0  0  0  0  0
    4.8816  -34.0277  -12.8920 C   0  0  0  0  0  0  0  0  0  0  0  0
   -4.7790  -29.1322   -7.3790 C   0  0  0  0  0  0  0  0  0  0  0  0
   -5.6394  -28.2111   -8.1250 C   0  0  0  0  0  0  0  0  0  0  0  0
   -4.2021  -29.0509  -10.0234 C   0  0  0  0  0  0  0  0  0  0  0  0
    1.0484  -32.3350  -10.0626 O   0  0  0  0  0  0  0  0  0  0  0  0
   -6.5449  -29.5228   -5.5904 C   0  0  0  0  0  0  0  0  0  0  0  0
   -5.0602  -30.2762   -3.9640 C   0  0  0  0  0  0  0  0  0  0  0  0
    0.5893  -30.5903  -11.4453 N   0  0  0  0  0  0  0  0  0  0  0  0
   -6.2613  -27.8857  -10.3248 C   0  0  0  0  0  0  0  0  0  0  0  0
    3.5478  -32.3860  -14.0386 C   0  0  0  0  0  0  0  0  0  0  0  0
   -3.1310  -29.6618   -9.3253 C   0  0  0  0  0  0  0  0  0  0  0  0
   -2.4486  -29.8081   -6.7514 C   0  0  0  0  0  0  0  0  0  0  0  0
   -0.9579  -31.1411   -9.6853 C   0  0  0  0  0  0  0  0  0  0  0  0
    0.0645  -29.9561  -12.5422 C   0  0  0  0  0  0  0  0  0  0  0  0
   -0.3879  -31.1274  -16.1271 C   0  0  0  0  0  0  0  0  0  0  0  0
    6.0244  -33.5444  -13.5742 C   0  0  0  0  0  0  0  0  0  0  0  0
    7.2035  -34.2584  -13.5678 N   0  0  0  0  0  0  0  0  0  0  0  0
   -4.2864  -29.0625  -11.3439 C   0  0  0  0  0  0  0  0  0  0  0  0
   -1.0865  -31.1311  -18.4249 N   0  0  0  0  0  0  0  0  0  0  0  0
    1.7958  -32.0437  -15.7404 C   0  0  0  0  0  0  0  0  0  0  0  0
    1.4145  -31.3441  -13.8091 C   0  0  0  0  0  0  0  0  0  0  0  0
    4.6973  -31.7335  -14.4971 C   0  0  0  0  0  0  0  0  0  0  0  0
   -2.0935  -30.2739  -10.2336 C   0  0  0  0  0  0  0  0  0  0  0  0
    0.7741  -31.7766  -16.5091 N   0  0  0  0  0  0  0  0  0  0  0  0
   -3.9503  -29.6433  -14.6931 C   0  0  0  0  0  0  0  0  0  0  0  0
   -3.4141  -29.6056  -12.2079 C   0  0  0  0  0  0  0  0  0  0  0  0
    3.6469  -33.4322  -13.1580 C   0  0  0  0  0  0  0  0  0  0  0  0
   -2.6512  -30.4403  -16.6719 N   0  0  0  0  0  0  0  0  0  0  0  0
   -0.5349  -30.6470  -14.8496 C   0  0  0  0  0  0  0  0  0  0  0  0
   -3.8148  -29.5724  -13.5397 N   0  0  0  0  0  0  0  0  0  0  0  0
   -1.4291  -30.9148  -17.1245 C   0  0  0  0  0  0  0  0  0  0  0  0
   -1.5487  -31.0768   -7.1369 C   0  0  0  0  0  0  0  0  0  0  0  0
    0.2886  -31.4507  -10.4293 C   0  0  0  0  0  0  0  0  0  0  0  0
   -0.5701  -30.8939   -8.2506 C   0  0  0  0  0  0  0  0  0  0  0  0
   -3.5029  -29.9743  -15.8129 C   0  0  0  0  0  0  0  0  0  0  0  0
  1 14  1  0
  1 15  1  0
  1 20  1  0
  2 23  1  0
  3  6  1  0
  3 10  2  0
  3 18  1  0
  4 34  2  0
  4 37  1  0
  5 13  1  0
  5 22  1  0
  5 23  1  0
  6 13  1  0
  6 17  1  0
  7 21  1  0
  7 31  1  0
  7 32  2  0
  8 25  1  0
  8 32  1  0
  8 40  2  0
  9 17  1  0
  9 18  1  0
 10 23  1  0
 11 27  2  0
 11 33  1  0
 12 27  1  0
 12 38  2  0
 13 14  1  0
 15 22  2  0
 15 29  1  0
 16 44  2  0
 19 25  1  0
 19 44  1  0
 21 33  2  0
 21 38  1  0
 22 34  1  0
 23 43  1  0
 24 34  1  0
 24 44  1  0
 24 45  1  0
 26 35  1  0
 26 40  1  0
 26 42  1  0
 27 28  1  0
 29 37  2  0
 30 42  2  0
 31 35  2  0
 36 41  1  0
 36 46  1  0
 37 41  1  0
 39 42  1  0
 39 46  1  0
 43 45  1  0
M  END
>  <ID>  (1) 
conformer_0

$$$$
