
     RDKit          3D

 24 26  0  0  0  0  0  0  0  0999 V2000
   -3.0370  -29.7294  -15.4021 C   0  0  0  0  0  0  0  0  0  0  0  0
   -5.0460  -29.0819   -9.4542 C   0  0  0  0  0  0  0  0  0  0  0  0
    1.1813  -31.4574  -14.9106 C   0  0  0  0  0  0  0  0  0  0  0  0
   -3.8025  -29.1906   -8.5660 C   0  0  0  0  0  0  0  0  0  0  0  0
   -3.1991  -28.5479  -15.0477 O   0  0  0  0  0  0  0  0  0  0  0  0
    0.3871  -30.6406  -18.2948 C   0  0  0  0  0  0  0  0  0  0  0  0
   -2.6178  -29.7136  -11.9728 C   0  0  0  0  0  0  0  0  0  0  0  0
   -4.0101  -29.3454  -12.1526 C   0  0  0  0  0  0  0  0  0  0  0  0
   -1.7257  -30.2775  -15.3486 N   0  0  0  0  0  0  0  0  0  0  0  0
   -4.7509  -29.2201  -10.9541 N   0  0  0  0  0  0  0  0  0  0  0  0
   -4.8844  -28.6045   -6.4957 O   0  0  0  0  0  0  0  0  0  0  0  0
   -1.0650  -30.3682  -14.0911 C   0  0  0  0  0  0  0  0  0  0  0  0
    0.6642  -30.8566  -12.5956 C   0  0  0  0  0  0  0  0  0  0  0  0
   -3.5787  -30.5757   -6.5442 C   0  0  0  0  0  0  0  0  0  0  0  0
   -1.5327  -30.3050  -16.7305 C   0  0  0  0  0  0  0  0  0  0  0  0
   -3.9346  -30.4467  -15.9138 O   0  0  0  0  0  0  0  0  0  0  0  0
   -0.4635  -30.4440  -11.8832 C   0  0  0  0  0  0  0  0  0  0  0  0
   -1.5805  -30.1083  -12.8243 C   0  0  0  0  0  0  0  0  0  0  0  0
   -0.8356  -31.3927  -17.4705 C   0  0  0  0  0  0  0  0  0  0  0  0
   -2.1802  -29.8477  -10.5684 C   0  0  0  0  0  0  0  0  0  0  0  0
   -2.7417  -29.6429   -9.3280 N   0  0  0  0  0  0  0  0  0  0  0  0
   -0.8554  -30.3003  -10.5703 C   0  0  0  0  0  0  0  0  0  0  0  0
    0.2872  -30.8761  -13.9472 C   0  0  0  0  0  0  0  0  0  0  0  0
   -4.0355  -29.3444   -7.1257 C   0  0  0  0  0  0  0  0  0  0  0  0
  1  5  2  0
  1  9  1  0
  1 16  1  0
  2  4  1  0
  2 10  1  0
  3 23  1  0
  4 21  1  0
  4 24  1  0
  6 19  1  0
  7  8  1  0
  7 18  1  0
  7 20  1  0
  8 10  1  0
  9 12  1  0
  9 15  1  0
 11 24  1  0
 12 18  1  0
 12 23  2  0
 13 17  1  0
 13 23  1  0
 14 24  1  0
 15 19  1  0
 17 18  2  0
 17 22  1  0
 20 21  2  0
 20 22  1  0
M  END
>  <ID>  (1) 
conformer_0

$$$$
