
     RDKit          3D

 36 41  0  0  0  0  0  0  0  0999 V2000
   -4.5709  -29.1204  -10.9755 O   0  0  0  0  0  0  0  0  0  0  0  0
   -8.1864  -26.6137   -9.4552 C   0  0  0  0  0  0  0  0  0  0  0  0
    0.1296  -31.5332   -8.4626 C   0  0  0  0  0  0  0  0  0  0  0  0
    2.0157  -31.5729  -16.7569 C   0  0  0  0  0  0  0  0  0  0  0  0
    2.4626  -32.0804  -15.3382 C   0  0  0  0  0  0  0  0  0  0  0  0
   -2.5850  -29.8484  -13.3595 N   0  0  0  0  0  0  0  0  0  0  0  0
   -2.5024  -29.6899  -10.2008 C   0  0  0  0  0  0  0  0  0  0  0  0
   -4.1008  -29.0601   -8.5609 C   0  0  0  0  0  0  0  0  0  0  0  0
   -0.2387  -30.9812  -10.6928 N   0  0  0  0  0  0  0  0  0  0  0  0
   -8.0926  -26.3006   -7.2302 C   0  0  0  0  0  0  0  0  0  0  0  0
   -5.2352  -28.3230   -8.1873 C   0  0  0  0  0  0  0  0  0  0  0  0
   -1.9228  -29.8784   -7.6713 C   0  0  0  0  0  0  0  0  0  0  0  0
    0.1019  -30.8921  -15.5162 C   0  0  0  0  0  0  0  0  0  0  0  0
   -8.8383  -26.0039   -8.3907 C   0  0  0  0  0  0  0  0  0  0  0  0
   -6.0543  -27.9951   -9.3225 N   0  0  0  0  0  0  0  0  0  0  0  0
   -1.4013  -30.2203  -13.8454 C   0  0  0  0  0  0  0  0  0  0  0  0
   -0.8722  -30.3575  -11.6781 C   0  0  0  0  0  0  0  0  0  0  0  0
   -0.3158  -30.3816  -12.9318 C   0  0  0  0  0  0  0  0  0  0  0  0
   -3.5817  -29.6900  -14.3595 C   0  0  0  0  0  0  0  0  0  0  0  0
    3.7925  -31.2938  -15.1786 C   0  0  0  0  0  0  0  0  0  0  0  0
   -0.6141  -30.8713   -9.3686 C   0  0  0  0  0  0  0  0  0  0  0  0
    2.6776  -31.1660  -14.2439 C   0  0  0  0  0  0  0  0  0  0  0  0
   -7.0757  -27.2224   -8.9320 C   0  0  0  0  0  0  0  0  0  0  0  0
   -1.7622  -30.8628  -17.4262 C   0  0  0  0  0  0  0  0  0  0  0  0
   -7.0238  -27.0274   -7.5509 C   0  0  0  0  0  0  0  0  0  0  0  0
   -1.1224  -30.5282  -15.1891 C   0  0  0  0  0  0  0  0  0  0  0  0
   -3.8678  -29.2325   -9.9566 C   0  0  0  0  0  0  0  0  0  0  0  0
    0.5092  -31.2717  -16.6841 C   0  0  0  0  0  0  0  0  0  0  0  0
   -2.1716  -29.8756  -11.6003 N   0  0  0  0  0  0  0  0  0  0  0  0
   -1.1476  -30.4837   -6.7348 C   0  0  0  0  0  0  0  0  0  0  0  0
   -0.4437  -31.2864  -17.6943 N   0  0  0  0  0  0  0  0  0  0  0  0
   -5.8822  -27.7114   -7.0848 N   0  0  0  0  0  0  0  0  0  0  0  0
   -0.1395  -31.3379   -7.1259 C   0  0  0  0  0  0  0  0  0  0  0  0
   -2.1445  -30.4509  -16.1328 C   0  0  0  0  0  0  0  0  0  0  0  0
   -3.3570  -30.0110  -15.6523 N   0  0  0  0  0  0  0  0  0  0  0  0
   -1.7287  -30.1015   -9.0305 C   0  0  0  0  0  0  0  0  0  0  0  0
  1 27  2  0
  2 14  1  0
  2 23  1  0
  3 21  2  0
  3 33  1  0
  4  5  1  0
  4 28  1  0
  5 22  1  0
  6 16  1  0
  6 19  1  0
  7 27  1  0
  7 29  1  0
  7 36  1  0
  8 11  2  3
  8 27  1  0
  9 17  2  0
  9 21  1  0
 10 14  1  0
 10 25  1  0
 11 15  1  0
 11 32  1  0
 12 30  2  0
 12 36  1  0
 13 26  2  0
 13 28  1  0
 15 23  1  0
 16 18  1  0
 16 26  1  0
 17 18  1  0
 17 29  1  0
 19 35  2  0
 20 22  1  0
 21 36  1  0
 23 25  2  0
 24 31  1  0
 24 34  2  0
 25 32  1  0
 26 34  1  0
 28 31  2  0
 30 33  1  0
 34 35  1  0
M  END
>  <ID>  (1) 
conformer_0

$$$$
