
     RDKit          3D

 29 33  0  0  0  0  0  0  0  0999 V2000
    2.1273  -31.5783  -17.6934 C   0  0  0  0  0  0  0  0  0  0  0  0
   -3.1491  -29.9323  -15.6133 N   0  0  0  0  0  0  0  0  0  0  0  0
   -2.5211  -30.3951  -16.7268 N   0  0  0  0  0  0  0  0  0  0  0  0
   -4.9401  -28.7373  -10.9976 C   0  0  0  0  0  0  0  0  0  0  0  0
   -3.5537  -29.4951   -9.1093 C   0  0  0  0  0  0  0  0  0  0  0  0
   -2.1380  -30.2686   -7.5891 C   0  0  0  0  0  0  0  0  0  0  0  0
   -1.4366  -30.3456   -8.8386 N   0  0  0  0  0  0  0  0  0  0  0  0
   -2.3736  -29.8972   -9.7746 C   0  0  0  0  0  0  0  0  0  0  0  0
   -4.4063  -29.6917   -6.6350 C   0  0  0  0  0  0  0  0  0  0  0  0
    3.3734  -31.8991  -17.2789 N   0  0  0  0  0  0  0  0  0  0  0  0
    4.8831  -32.2698  -15.4518 C   0  0  0  0  0  0  0  0  0  0  0  0
    2.5855  -31.5831  -15.0604 N   0  0  0  0  0  0  0  0  0  0  0  0
   -2.2336  -30.0487  -14.5451 C   0  0  0  0  0  0  0  0  0  0  0  0
   -0.2786  -31.1213  -17.3273 C   0  0  0  0  0  0  0  0  0  0  0  0
   -4.1713  -29.0492  -11.9413 C   0  0  0  0  0  0  0  0  0  0  0  0
    1.3113  -31.1822  -15.4278 C   0  0  0  0  0  0  0  0  0  0  0  0
    3.5556  -31.9153  -15.9303 C   0  0  0  0  0  0  0  0  0  0  0  0
   -3.4036  -29.7805   -7.7210 C   0  0  0  0  0  0  0  0  0  0  0  0
    1.0734  -31.2850  -16.8312 C   0  0  0  0  0  0  0  0  0  0  0  0
   -1.0219  -30.4951  -15.0877 C   0  0  0  0  0  0  0  0  0  0  0  0
   -4.2208  -29.3564  -15.5669 O   0  0  0  0  0  0  0  0  0  0  0  0
   -4.7587  -28.8497   -9.6081 C   0  0  0  0  0  0  0  0  0  0  0  0
   -1.2377  -30.7565  -16.4627 C   0  0  0  0  0  0  0  0  0  0  0  0
    0.6936  -30.3905  -13.3445 O   0  0  0  0  0  0  0  0  0  0  0  0
    0.3015  -30.6835  -14.5411 C   0  0  0  0  0  0  0  0  0  0  0  0
   -2.9275  -29.5536  -12.1470 C   0  0  0  0  0  0  0  0  0  0  0  0
   -2.0704  -29.9204  -11.0976 C   0  0  0  0  0  0  0  0  0  0  0  0
   -5.8212  -28.2979   -8.7504 C   0  0  0  0  0  0  0  0  0  0  0  0
   -2.4520  -29.7124  -13.3755 N   0  0  0  0  0  0  0  0  0  0  0  0
  1 10  2  0
  1 19  1  0
  2  3  1  0
  2 13  1  0
  2 21  1  0
  3 23  1  0
  4 15  2  0
  4 22  1  0
  5  8  2  0
  5 18  1  0
  5 22  1  0
  6  7  1  0
  6 18  1  0
  7  8  1  0
  8 27  1  0
  9 18  1  0
 10 17  1  0
 11 17  1  0
 12 16  1  0
 12 17  2  0
 13 20  2  0
 13 29  1  0
 14 19  1  0
 14 23  2  0
 15 26  1  0
 16 19  1  0
 16 25  2  0
 20 23  1  0
 20 25  1  0
 22 28  1  0
 24 25  1  0
 26 27  2  0
 26 29  1  0
M  END
>  <ID>  (1) 
conformer_0

$$$$
