
     RDKit          3D

 26 31  0  0  0  0  0  0  0  0999 V2000
   -2.3585  -30.8095  -17.3724 N   0  0  0  0  0  0  0  0  0  0  0  0
   -4.8122  -29.0450   -7.5486 C   0  0  0  0  0  0  0  0  0  0  0  0
    0.9962  -30.8925  -12.2330 C   0  0  0  0  0  0  0  0  0  0  0  0
   -2.2311  -31.4261  -16.1029 C   0  0  0  0  0  0  0  0  0  0  0  0
   -3.3218  -29.4736  -10.0825 C   0  0  0  0  0  0  0  0  0  0  0  0
   -4.5064  -28.8370  -10.3945 O   0  0  0  0  0  0  0  0  0  0  0  0
    0.3398  -30.8060  -14.6054 C   0  0  0  0  0  0  0  0  0  0  0  0
   -3.5042  -29.6422  -13.2722 N   0  0  0  0  0  0  0  0  0  0  0  0
   -4.1949  -29.5262  -15.4510 O   0  0  0  0  0  0  0  0  0  0  0  0
   -1.4013  -30.3253   -8.9882 N   0  0  0  0  0  0  0  0  0  0  0  0
   -5.7616  -28.2610   -8.3886 C   0  0  0  0  0  0  0  0  0  0  0  0
   -0.2903  -30.5452  -11.8148 C   0  0  0  0  0  0  0  0  0  0  0  0
    0.6721  -30.8919  -15.9336 O   0  0  0  0  0  0  0  0  0  0  0  0
   -3.4825  -29.6523   -7.6257 C   0  0  0  0  0  0  0  0  0  0  0  0
   -0.9587  -30.4843  -14.1871 C   0  0  0  0  0  0  0  0  0  0  0  0
    0.1197  -31.1359  -17.1847 C   0  0  0  0  0  0  0  0  0  0  0  0
   -2.4697  -29.8796  -12.4130 C   0  0  0  0  0  0  0  0  0  0  0  0
   -2.0781  -30.4097  -15.0707 C   0  0  0  0  0  0  0  0  0  0  0  0
   -5.6161  -28.3257   -9.9380 C   0  0  0  0  0  0  0  0  0  0  0  0
   -1.1174  -31.0608  -18.1122 C   0  0  0  0  0  0  0  0  0  0  0  0
   -3.3339  -29.7936  -14.6127 C   0  0  0  0  0  0  0  0  0  0  0  0
   -2.4118  -29.8351  -11.0392 C   0  0  0  0  0  0  0  0  0  0  0  0
   -1.1266  -30.3008  -10.5312 C   0  0  0  0  0  0  0  0  0  0  0  0
    1.3121  -31.0190  -13.6251 C   0  0  0  0  0  0  0  0  0  0  0  0
   -2.7911  -29.8120   -8.8195 C   0  0  0  0  0  0  0  0  0  0  0  0
   -1.2122  -30.3153  -12.8607 C   0  0  0  0  0  0  0  0  0  0  0  0
  1  4  1  0
  1 20  1  0
  2 11  1  0
  2 14  1  0
  3 12  1  0
  3 24  2  0
  4 18  1  0
  5  6  1  0
  5 22  2  0
  5 25  1  0
  6 19  1  0
  7 13  1  0
  7 15  2  0
  7 24  1  0
  8 17  2  0
  8 21  1  0
  9 21  2  0
 10 23  1  0
 10 25  1  0
 11 19  2  0
 12 23  1  0
 12 26  2  0
 13 16  1  0
 14 25  2  0
 15 18  1  0
 15 26  1  0
 16 20  1  0
 17 22  1  0
 17 26  1  0
 18 21  1  0
 22 23  1  0
M  END
>  <ID>  (1) 
conformer_0

$$$$
