
     RDKit          3D

 33 36  0  0  0  0  0  0  0  0999 V2000
   -3.2184  -29.8309   -8.7619 N   0  0  0  0  0  0  0  0  0  0  0  0
   -0.8160  -31.0446   -5.7454 C   0  0  0  0  0  0  0  0  0  0  0  0
   -7.0915  -27.0861   -9.8641 C   0  0  0  0  0  0  0  0  0  0  0  0
    0.9561  -30.7714  -15.3533 O   0  0  0  0  0  0  0  0  0  0  0  0
    0.2046  -30.6213  -11.9061 C   0  0  0  0  0  0  0  0  0  0  0  0
   -6.2209  -26.6893   -7.6725 C   0  0  0  0  0  0  0  0  0  0  0  0
   -4.1934  -29.5400  -10.8237 C   0  0  0  0  0  0  0  0  0  0  0  0
   -3.8571  -29.4627  -11.9779 C   0  0  0  0  0  0  0  0  0  0  0  0
    1.0587  -29.3590   -5.7516 C   0  0  0  0  0  0  0  0  0  0  0  0
   -1.2039  -30.4877  -14.3315 C   0  0  0  0  0  0  0  0  0  0  0  0
   -4.1502  -29.2352   -9.4576 C   0  0  0  0  0  0  0  0  0  0  0  0
   -1.1352  -30.3156  -11.9092 C   0  0  0  0  0  0  0  0  0  0  0  0
    0.1847  -30.4991   -7.9336 C   0  0  0  0  0  0  0  0  0  0  0  0
   -1.6862  -30.1551  -10.6687 N   0  0  0  0  0  0  0  0  0  0  0  0
   -7.1650  -26.4244   -8.6338 C   0  0  0  0  0  0  0  0  0  0  0  0
    0.8511  -30.8425  -13.0772 C   0  0  0  0  0  0  0  0  0  0  0  0
    1.7007  -31.3350   -6.1256 C   0  0  0  0  0  0  0  0  0  0  0  0
   -1.8232  -30.2213  -13.1245 C   0  0  0  0  0  0  0  0  0  0  0  0
   -6.1212  -27.9839  -10.0617 C   0  0  0  0  0  0  0  0  0  0  0  0
   -2.4305  -30.9199  -17.8080 O   0  0  0  0  0  0  0  0  0  0  0  0
   -1.9689  -30.4974  -15.4903 C   0  0  0  0  0  0  0  0  0  0  0  0
   -3.1734  -29.8222  -13.1335 C   0  0  0  0  0  0  0  0  0  0  0  0
    0.1711  -30.7294  -14.2786 C   0  0  0  0  0  0  0  0  0  0  0  0
   -5.1651  -28.2651   -9.0945 C   0  0  0  0  0  0  0  0  0  0  0  0
   -3.8963  -29.7764  -14.2791 N   0  0  0  0  0  0  0  0  0  0  0  0
   -0.2003  -30.7373  -17.6339 C   0  0  0  0  0  0  0  0  0  0  0  0
   -1.9691  -30.1300   -9.3822 C   0  0  0  0  0  0  0  0  0  0  0  0
   -1.4481  -30.9530  -16.8433 C   0  0  0  0  0  0  0  0  0  0  0  0
    0.4426  -30.5453   -6.4713 C   0  0  0  0  0  0  0  0  0  0  0  0
    1.5666  -32.0547  -15.6251 C   0  0  0  0  0  0  0  0  0  0  0  0
   -1.0584  -29.9654   -8.3532 N   0  0  0  0  0  0  0  0  0  0  0  0
   -5.2200  -27.6069   -7.8919 C   0  0  0  0  0  0  0  0  0  0  0  0
   -3.2960  -30.1303  -15.4191 C   0  0  0  0  0  0  0  0  0  0  0  0
  1 11  1  0
  1 27  2  0
  2 29  1  0
  3 15  1  0
  3 19  2  0
  4 23  1  0
  4 30  1  0
  5 12  2  0
  5 16  1  0
  6 15  1  0
  6 32  2  0
  7  8  3  0
  7 11  1  0
  8 22  1  0
  9 29  1  0
 10 18  1  0
 10 21  2  0
 10 23  1  0
 11 24  2  3
 12 14  1  0
 12 18  1  0
 13 29  1  0
 13 31  1  0
 14 27  1  0
 16 23  2  0
 17 29  1  0
 18 22  2  0
 19 24  1  0
 20 28  1  0
 21 28  1  0
 21 33  1  0
 22 25  1  0
 24 32  1  0
 25 33  2  0
 26 28  1  0
 27 31  1  0
M  END
>  <ID>  (1) 
conformer_0

$$$$
