
     RDKit          3D

 67 72  0  0  0  0  0  0  0  0999 V2000
    3.9319  -32.6092   -9.1747 O   0  0  0  0  0  0  0  0  0  0  0  0
   -2.2881  -30.7338  -16.9647 C   0  0  0  0  0  0  0  0  0  0  0  0
   -1.4581  -29.6802   -8.7927 C   0  0  0  0  0  0  0  0  0  0  0  0
   -5.2795  -28.2374   -8.2899 C   0  0  0  0  0  0  0  0  0  0  0  0
   -5.2292  -30.5923  -13.3272 C   0  0  0  0  0  0  0  0  0  0  0  0
   -5.5641  -32.1304  -12.7086 F   0  0  0  0  0  0  0  0  0  0  0  0
   -4.7661  -26.3704   -3.6332 C   0  0  0  0  0  0  0  0  0  0  0  0
   -7.7570  -31.6419  -12.7157 F   0  0  0  0  0  0  0  0  0  0  0  0
   -6.3800  -26.3127   -7.5574 C   0  0  0  0  0  0  0  0  0  0  0  0
   -0.4589  -30.7899   -5.5608 C   0  0  0  0  0  0  0  0  0  0  0  0
    2.2747  -31.5995  -15.4990 C   0  0  0  0  0  0  0  0  0  0  0  0
   -4.1161  -24.3125   -2.7452 C   0  0  0  0  0  0  0  0  0  0  0  0
   -6.3956  -30.9728  -12.5352 C   0  0  0  0  0  0  0  0  0  0  0  0
    5.9653  -30.8462  -12.6148 O   0  0  0  0  0  0  0  0  0  0  0  0
   -3.9989  -28.8347   -8.5328 C   0  0  0  0  0  0  0  0  0  0  0  0
   -3.2576  -31.7990  -16.6126 C   0  0  0  0  0  0  0  0  0  0  0  0
   -5.2309  -26.1465   -5.0568 C   0  0  0  0  0  0  0  0  0  0  0  0
   -7.0034  -30.1363  -11.3104 C   0  0  0  0  0  0  0  0  0  0  0  0
   -6.8168  -26.8700   -9.1004 C   0  0  0  0  0  0  0  0  0  0  0  0
   -3.6622  -25.4603   -3.3466 C   0  0  0  0  0  0  0  0  0  0  0  0
   -5.4299  -27.3078   -7.1960 C   0  0  0  0  0  0  0  0  0  0  0  0
    4.8947  -30.4273   -8.6307 C   0  0  0  0  0  0  0  0  0  0  0  0
   -5.5320  -26.7121   -2.6355 O   0  0  0  0  0  0  0  0  0  0  0  0
    0.8430  -31.1275  -15.2260 C   0  0  0  0  0  0  0  0  0  0  0  0
    1.0778  -31.2886  -18.1328 O   0  0  0  0  0  0  0  0  0  0  0  0
    2.6041  -31.2647   -7.5001 C   0  0  0  0  0  0  0  0  0  0  0  0
    3.9771  -31.6054  -11.6588 O   0  0  0  0  0  0  0  0  0  0  0  0
   -6.1986  -28.1294   -9.5281 C   0  0  0  0  0  0  0  0  0  0  0  0
   -0.0024  -30.5992   -6.9814 C   0  0  0  0  0  0  0  0  0  0  0  0
    5.1349  -31.6426  -15.3453 C   0  0  0  0  0  0  0  0  0  0  0  0
    7.0176  -35.4643  -11.7008 O   0  0  0  0  0  1  0  0  0  0  0  0
   -1.2192  -30.3273   -7.7368 O   0  0  0  0  0  0  0  0  0  0  0  0
    6.2433  -33.0473  -10.7980 C   0  0  0  0  0  0  0  0  0  0  0  0
   -8.3417  -25.4350   -7.9911 C   0  0  0  0  0  0  0  0  0  0  0  0
    6.9072  -33.9425  -12.2541 P   0  0  0  0  0  4  0  0  0  0  0  0
    8.3701  -33.2540  -12.5231 O   0  0  0  0  0  0  0  0  0  0  0  0
   -5.0622  -27.4320   -5.8423 C   0  0  0  0  0  0  0  0  0  0  0  0
    2.1072  -31.5939  -13.1060 C   0  0  0  0  0  0  0  0  0  0  0  0
   -4.4030  -25.0336   -5.6011 C   0  0  0  0  0  0  0  0  0  0  0  0
   -4.4356  -29.9145  -12.3118 C   0  0  0  0  0  0  0  0  0  0  0  0
   -1.3871  -30.9144  -18.1163 C   0  0  0  0  0  0  0  0  0  0  0  0
   -1.7018  -31.2996   -5.3280 O   0  0  0  0  0  0  0  0  0  0  0  0
   -1.8219  -30.0303  -11.1262 O   0  0  0  0  0  0  0  0  0  0  0  0
   -8.1093  -26.2983   -9.2170 C   0  0  0  0  0  0  0  0  0  0  0  0
   -4.6474  -29.5626  -10.9533 C   0  0  0  0  0  0  0  0  0  0  0  0
   -1.3848  -30.2575  -15.8671 C   0  0  0  0  0  0  0  0  0  0  0  0
   -4.4088  -31.0411  -14.3670 C   0  0  0  0  0  0  0  0  0  0  0  0
   -1.9873  -30.0633  -14.5252 O   0  0  0  0  0  0  0  0  0  0  0  0
    3.7199  -31.4179   -8.4235 C   0  0  0  0  0  0  0  0  0  0  0  0
    5.2440  -32.9807   -9.7169 C   0  0  0  0  0  0  0  0  0  0  0  0
    4.3370  -31.9937  -14.0649 C   0  0  0  0  0  0  0  0  0  0  0  0
   -0.0911  -30.7531  -16.1556 C   0  0  0  0  0  0  0  0  0  0  0  0
    4.8642  -31.5074  -12.7327 C   0  0  0  0  0  0  0  0  0  0  0  0
   -2.4010  -29.7879   -9.9301 C   0  0  0  0  0  0  0  0  0  0  0  0
   -7.3408  -25.4483   -7.0272 O   0  0  0  0  0  0  0  0  0  0  0  0
    2.7449  -32.3507  -11.9807 C   0  0  0  0  0  0  0  0  0  0  0  0
   -3.0969  -25.1128   -4.7751 C   0  0  0  0  0  0  0  0  0  0  0  0
   -3.8457  -28.8310  -14.9107 F   0  0  0  0  0  0  0  0  0  0  0  0
   -4.3058  -28.4588   -5.4247 O   0  0  0  0  0  0  0  0  0  0  0  0
    2.9870  -31.6157  -14.2507 O   0  0  0  0  0  0  0  0  0  0  0  0
    1.1775  -30.9424   -7.7999 C   0  0  0  0  0  0  0  0  0  0  0  0
   -3.8089  -29.3617   -9.9294 C   0  0  0  0  0  0  0  0  0  0  0  0
   -6.2473  -29.1381  -10.6609 C   0  0  0  0  0  0  0  0  0  0  0  0
    0.0096  -31.0101  -17.5159 C   0  0  0  0  0  0  0  0  0  0  0  0
   -3.4725  -30.0106  -14.5243 C   0  0  0  0  0  0  0  0  0  0  0  0
    6.2618  -34.1398  -13.7171 O   0  0  0  0  0  0  0  0  0  0  0  0
   -9.4574  -24.7615   -7.9446 F   0  0  0  0  0  0  0  0  0  0  0  0
  1 49  1  0
  1 50  1  0
  2 16  1  0
  2 41  1  0
  2 46  1  0
  3 32  1  0
  3 54  1  0
  4 15  1  0
  4 21  1  0
  4 28  1  0
  5 13  1  0
  5 40  2  0
  5 47  1  0
  6 13  1  0
  7 17  1  0
  7 20  1  0
  7 23  1  0
  8 13  1  0
  9 19  1  0
  9 21  1  0
  9 55  1  0
 10 29  1  0
 10 42  1  0
 11 24  1  0
 11 60  1  0
 12 20  1  0
 13 18  1  0
 14 53  2  0
 15 62  1  0
 17 37  1  0
 17 39  1  0
 18 63  1  0
 19 28  1  0
 19 44  1  0
 20 57  1  0
 21 37  1  0
 22 49  1  0
 24 52  2  3
 25 64  2  0
 26 49  1  0
 26 61  2  3
 27 53  1  0
 27 56  1  0
 28 63  1  0
 29 32  1  0
 29 61  1  0
 30 51  1  0
 31 35  2  0
 33 35  1  0
 33 50  1  0
 34 44  1  0
 34 55  1  0
 34 67  1  0
 35 36  1  0
 35 66  1  0
 37 59  1  0
 38 56  1  0
 39 57  1  0
 40 45  1  0
 41 64  1  0
 43 54  1  0
 45 62  1  0
 45 63  1  0
 46 48  1  0
 46 52  1  0
 47 65  1  0
 48 65  1  0
 51 53  1  0
 51 60  1  0
 52 64  1  0
 54 62  1  0
 58 65  1  0
M  END
>  <ID>  (1) 
conformer_0

$$$$
