
     RDKit          3D

 34 41  0  0  0  0  0  0  0  0999 V2000
    4.3070  -33.1818  -11.2141 C   0  0  0  0  0  0  0  0  0  0  0  0
   -3.8633  -29.3105  -11.8436 C   0  0  0  0  0  0  0  0  0  0  0  0
   -3.4016  -30.1237  -16.5433 O   0  0  0  0  0  0  0  0  0  0  0  0
   -1.0474  -31.1595  -17.7264 C   0  0  0  0  0  0  0  0  0  0  0  0
   -5.4411  -29.8639   -5.5252 C   0  0  0  0  0  0  0  0  0  0  0  0
   -2.3762  -30.3486  -15.7985 C   0  0  0  0  0  0  0  0  0  0  0  0
   -3.6414  -30.1119   -6.8916 C   0  0  0  0  0  0  0  0  0  0  0  0
    0.6356  -31.1873  -13.2986 N   0  0  0  0  0  0  0  0  0  0  0  0
    1.5250  -31.8994  -14.1013 C   0  0  0  0  0  0  0  0  0  0  0  0
    2.6519  -32.4909  -13.1773 C   0  0  0  0  0  0  0  0  0  0  0  0
    1.4239  -31.1781  -11.0889 C   0  0  0  0  0  0  0  0  0  0  0  0
   -0.2006  -31.2586  -15.4321 C   0  0  0  0  0  0  0  0  0  0  0  0
    2.5618  -31.7907  -11.8394 C   0  0  0  0  0  0  0  0  0  0  0  0
    0.2756  -30.6791  -11.9659 C   0  0  0  0  0  0  0  0  0  0  0  0
   -2.5243  -29.7086  -11.5753 C   0  0  0  0  0  0  0  0  0  0  0  0
   -3.7372  -29.3440  -14.1681 C   0  0  0  0  0  0  0  0  0  0  0  0
   -5.3479  -29.2765   -8.3435 C   0  0  0  0  0  0  0  0  0  0  0  0
   -3.1591  -30.3248   -5.5673 C   0  0  0  0  0  0  0  0  0  0  0  0
   -4.4713  -29.2715   -9.4949 C   0  0  0  0  0  0  0  0  0  0  0  0
   -4.7077  -29.0480  -10.8291 N   0  0  0  0  0  0  0  0  0  0  0  0
   -1.2261  -30.1491  -12.2397 C   0  0  0  0  0  0  0  0  0  0  0  0
   -2.5428  -29.9855  -14.4376 C   0  0  0  0  0  0  0  0  0  0  0  0
   -1.2161  -30.9531  -16.3285 C   0  0  0  0  0  0  0  0  0  0  0  0
   -1.4476  -30.3110  -13.6379 C   0  0  0  0  0  0  0  0  0  0  0  0
   -4.4351  -29.2800  -13.0783 N   0  0  0  0  0  0  0  0  0  0  0  0
   -5.0091  -29.7184   -6.9562 C   0  0  0  0  0  0  0  0  0  0  0  0
   -0.9165  -30.2618   -9.6460 C   0  0  0  0  0  0  0  0  0  0  0  0
   -0.3366  -30.9075  -14.1268 C   0  0  0  0  0  0  0  0  0  0  0  0
   -2.1909  -29.7738  -10.1816 C   0  0  0  0  0  0  0  0  0  0  0  0
    1.0324  -31.8926  -15.4341 N   0  0  0  0  0  0  0  0  0  0  0  0
    3.7085  -31.9264  -11.0462 N   0  0  0  0  0  0  0  0  0  0  0  0
   -4.3121  -30.3594   -4.6666 C   0  0  0  0  0  0  0  0  0  0  0  0
   -2.8350  -30.2697   -7.9881 C   0  0  0  0  0  0  0  0  0  0  0  0
   -3.2049  -29.7708   -9.2562 C   0  0  0  0  0  0  0  0  0  0  0  0
  1 31  1  0
  2 15  1  0
  2 20  2  0
  2 25  1  0
  3  6  1  0
  4 23  1  0
  5 26  1  0
  5 32  1  0
  6 22  1  0
  6 23  2  0
  7 18  1  0
  7 26  2  0
  7 33  1  0
  8  9  1  0
  8 14  1  0
  8 28  1  0
  9 10  1  0
  9 30  2  0
 10 13  1  0
 11 13  1  0
 11 14  1  0
 12 23  1  0
 12 28  1  0
 12 30  1  0
 13 31  1  0
 14 21  1  0
 15 21  2  0
 15 29  1  0
 16 22  1  0
 16 25  1  0
 17 19  2  0
 17 26  1  0
 18 32  1  0
 19 20  1  0
 19 34  1  0
 21 24  1  0
 22 24  1  0
 24 28  2  0
 27 29  1  0
 29 34  1  0
 33 34  2  0
M  END
>  <ID>  (1) 
conformer_0

$$$$
