
     RDKit          3D

 37 44  0  0  0  0  0  0  0  0999 V2000
    1.3524  -32.2981  -16.3097 O   0  0  0  0  0  0  0  0  0  0  0  0
   -3.3590  -29.9489   -8.3187 C   0  0  0  0  0  0  0  0  0  0  0  0
    6.2240  -33.1857  -13.3912 O   0  0  0  0  0  0  0  0  0  0  0  0
    3.7514  -31.0672  -13.8820 C   0  0  0  0  0  0  0  0  0  0  0  0
   -2.8456  -30.0578  -15.7859 C   0  0  0  0  0  0  0  0  0  0  0  0
    2.1396  -31.7369   -8.4265 C   0  0  0  0  0  0  0  0  0  0  0  0
   -3.2810  -29.7435  -10.7102 C   0  0  0  0  0  0  0  0  0  0  0  0
    3.0838  -32.0739  -11.7096 C   0  0  0  0  0  0  0  0  0  0  0  0
    2.4421  -33.1651  -14.1390 C   0  0  0  0  0  0  0  0  0  0  0  0
   -1.3093  -30.6273   -9.3606 C   0  0  0  0  0  0  0  0  0  0  0  0
    0.8570  -31.3057  -15.3523 C   0  0  0  0  0  0  0  0  0  0  0  0
    4.2009  -31.9228  -12.6944 C   0  0  0  0  0  0  0  0  0  0  0  0
   -0.6646  -30.3861  -13.0340 C   0  0  0  0  0  0  0  0  0  0  0  0
   -2.9015  -29.8914  -13.4753 C   0  0  0  0  0  0  0  0  0  0  0  0
   -4.5231  -29.1984  -10.6955 C   0  0  0  0  0  0  0  0  0  0  0  0
   -1.6063  -30.2302  -13.9640 C   0  0  0  0  0  0  0  0  0  0  0  0
   -5.2121  -29.0567   -9.5088 C   0  0  0  0  0  0  0  0  0  0  0  0
   -2.6634  -30.1123   -9.4860 C   0  0  0  0  0  0  0  0  0  0  0  0
   -0.5843  -30.8837  -17.3841 C   0  0  0  0  0  0  0  0  0  0  0  0
   -1.8552  -30.5463  -17.9035 C   0  0  0  0  0  0  0  0  0  0  0  0
    3.6370  -31.7826  -10.3633 C   0  0  0  0  0  0  0  0  0  0  0  0
   -0.5482  -30.7511  -10.5742 C   0  0  0  0  0  0  0  0  0  0  0  0
    2.2630  -31.5622  -14.2524 C   0  0  0  0  0  0  0  0  0  0  0  0
    1.3720  -31.3413   -9.2249 C   0  0  0  0  0  0  0  0  0  0  0  0
   -1.2266  -30.3360  -11.7921 C   0  0  0  0  0  0  0  0  0  0  0  0
    2.8007  -31.6821   -9.3629 N   0  0  0  0  0  0  0  0  0  0  0  0
   -2.8705  -30.0456  -17.1231 N   0  0  0  0  0  0  0  0  0  0  0  0
    5.1480  -30.7355  -14.5505 C   0  0  0  0  0  0  0  0  0  0  0  0
    3.9036  -33.7951  -14.2198 C   0  0  0  0  0  0  0  0  0  0  0  0
    4.8916  -33.2001  -13.1697 C   0  0  0  0  0  0  0  0  0  0  0  0
    1.5982  -31.8814  -11.5481 C   0  0  0  0  0  0  0  0  0  0  0  0
   -0.4371  -30.8048  -15.9933 C   0  0  0  0  0  0  0  0  0  0  0  0
   -4.6124  -29.4442   -8.3261 C   0  0  0  0  0  0  0  0  0  0  0  0
   -3.6734  -29.8109  -14.7117 N   0  0  0  0  0  0  0  0  0  0  0  0
   -2.6283  -29.9544  -11.9792 N   0  0  0  0  0  0  0  0  0  0  0  0
   -1.5776  -30.3912  -15.3195 C   0  0  0  0  0  0  0  0  0  0  0  0
    0.7955  -31.2901  -10.4779 C   0  0  0  0  0  0  0  0  0  0  0  0
  1 11  1  0
  2 18  1  0
  2 33  2  0
  3 30  1  0
  4 12  1  0
  4 23  1  0
  4 28  1  0
  5 27  2  0
  5 34  1  0
  5 36  1  0
  6 24  1  0
  6 26  1  0
  7 15  2  0
  7 18  1  0
  7 35  1  0
  8 12  1  0
  8 21  2  0
  8 31  1  0
  9 23  1  0
  9 29  1  0
 10 18  2  0
 10 22  1  0
 11 23  1  0
 11 32  1  0
 12 30  1  0
 13 16  1  0
 13 25  1  0
 14 16  1  0
 14 34  2  0
 14 35  1  0
 15 17  1  0
 16 36  2  0
 17 33  1  0
 19 20  2  0
 19 32  1  0
 20 27  1  0
 21 26  1  0
 22 25  2  0
 22 37  1  0
 24 37  1  0
 25 35  1  0
 29 30  1  0
 31 37  1  0
 32 36  1  0
M  END
>  <ID>  (1) 
conformer_0

$$$$
