
     RDKit          3D

 33 40  0  0  0  0  0  0  0  0999 V2000
    0.6030  -29.4438  -18.4524 F   0  0  0  0  0  0  0  0  0  0  0  0
   -2.2335  -30.0022  -12.4390 C   0  0  0  0  0  0  0  0  0  0  0  0
   -0.8274  -30.5794  -15.7853 C   0  0  0  0  0  0  0  0  0  0  0  0
   -1.3206  -30.8555  -18.1017 C   0  0  0  0  0  0  0  0  0  0  0  0
   -1.4383  -30.3166  -13.5313 C   0  0  0  0  0  0  0  0  0  0  0  0
   -2.9469  -30.1758  -15.7487 C   0  0  0  0  0  0  0  0  0  0  0  0
    3.7521  -31.5323  -13.1212 C   0  0  0  0  0  0  0  0  0  0  0  0
    2.2919  -31.9288  -11.2461 C   0  0  0  0  0  0  0  0  0  0  0  0
   -3.5152  -29.3300   -9.8636 C   0  0  0  0  0  0  0  0  0  0  0  0
    2.6641  -30.9436  -13.7689 C   0  0  0  0  0  0  0  0  0  0  0  0
   -5.7833  -28.3127   -9.8998 C   0  0  0  0  0  0  0  0  0  0  0  0
    0.8398  -31.5455  -17.1970 C   0  0  0  0  0  0  0  0  0  0  0  0
   -1.8850  -30.2665  -14.8040 C   0  0  0  0  0  0  0  0  0  0  0  0
   -1.5859  -30.1981   -8.8092 C   0  0  0  0  0  0  0  0  0  0  0  0
   -2.1556  -29.9265  -10.0667 C   0  0  0  0  0  0  0  0  0  0  0  0
   -2.4383  -29.9791   -6.5579 O   0  0  0  0  0  0  0  0  0  0  0  0
    3.5365  -32.0459  -11.8564 C   0  0  0  0  0  0  0  0  0  0  0  0
   -3.5266  -29.6621  -12.7352 N   0  0  0  0  0  0  0  0  0  0  0  0
   -5.8116  -28.2064   -8.5107 C   0  0  0  0  0  0  0  0  0  0  0  0
   -0.0769  -30.5781  -13.1931 N   0  0  0  0  0  0  0  0  0  0  0  0
   -1.8476  -30.5592  -16.8143 C   0  0  0  0  0  0  0  0  0  0  0  0
    0.1421  -30.8055  -18.1936 C   0  0  0  0  0  0  0  0  0  0  0  0
    1.3057  -31.2753  -11.8919 C   0  0  0  0  0  0  0  0  0  0  0  0
   -4.6501  -28.8418  -10.5363 C   0  0  0  0  0  0  0  0  0  0  0  0
   -4.0885  -29.7285  -15.2138 N   0  0  0  0  0  0  0  0  0  0  0  0
   -4.1602  -29.5026  -13.8711 N   0  0  0  0  0  0  0  0  0  0  0  0
   -3.6804  -29.2316   -8.4506 C   0  0  0  0  0  0  0  0  0  0  0  0
   -1.4088  -30.2383  -11.2438 C   0  0  0  0  0  0  0  0  0  0  0  0
   -4.7313  -28.6805   -7.8161 C   0  0  0  0  0  0  0  0  0  0  0  0
    1.4276  -30.9024  -13.1235 C   0  0  0  0  0  0  0  0  0  0  0  0
   -0.1274  -30.8211  -11.6185 C   0  0  0  0  0  0  0  0  0  0  0  0
   -2.5411  -29.8082   -7.8379 C   0  0  0  0  0  0  0  0  0  0  0  0
    0.2424  -31.4541  -15.8749 C   0  0  0  0  0  0  0  0  0  0  0  0
  1 22  1  0
  2  5  1  0
  2 18  2  0
  2 28  1  0
  3 13  1  0
  3 21  1  0
  3 33  1  0
  4 21  1  0
  4 22  1  0
  5 13  2  0
  5 20  1  0
  6 13  1  0
  6 21  1  0
  6 25  2  0
  7 10  1  0
  7 17  2  0
  8 17  1  0
  8 23  2  0
  9 15  2  0
  9 24  1  0
  9 27  1  0
 10 30  2  0
 11 19  1  0
 11 24  2  0
 12 22  1  0
 12 33  1  0
 14 15  1  0
 14 32  1  0
 15 28  1  0
 16 32  1  0
 18 26  1  0
 19 29  2  0
 20 30  1  0
 20 31  1  0
 23 30  1  0
 23 31  1  0
 25 26  1  0
 27 29  1  0
 27 32  2  0
 28 31  1  0
M  END
>  <ID>  (1) 
conformer_0

$$$$
