
     RDKit          3D

 29 34  0  0  0  0  0  0  0  0999 V2000
   -5.0634  -29.0176   -8.4055 C   0  0  0  0  0  0  0  0  0  0  0  0
   -0.3541  -30.5144  -12.2992 C   0  0  0  0  0  0  0  0  0  0  0  0
   -1.1635  -30.7098  -16.0711 C   0  0  0  0  0  0  0  0  0  0  0  0
   -1.3991  -30.2240  -11.5132 N   0  0  0  0  0  0  0  0  0  0  0  0
    1.8279  -31.5274  -11.6183 C   0  0  0  0  0  0  0  0  0  0  0  0
    0.7222  -30.9056  -11.5977 C   0  0  0  0  0  0  0  0  0  0  0  0
   -4.6706  -29.6442   -7.1328 C   0  0  0  0  0  0  0  0  0  0  0  0
   -4.6181  -29.0397  -11.0248 C   0  0  0  0  0  0  0  0  0  0  0  0
   -3.3530  -30.3965  -16.6233 C   0  0  0  0  0  0  0  0  0  0  0  0
   -2.7382  -29.9587  -14.4699 C   0  0  0  0  0  0  0  0  0  0  0  0
    3.9200  -32.8128  -14.2292 C   0  0  0  0  0  0  0  0  0  0  0  0
    2.4889  -31.9470  -12.7334 C   0  0  0  0  0  0  0  0  0  0  0  0
   -3.2464  -29.4539  -13.1543 C   0  0  0  0  0  0  0  0  0  0  0  0
    0.8257  -31.0963  -14.3095 C   0  0  0  0  0  0  0  0  0  0  0  0
   -4.3213  -29.1857   -9.6490 C   0  0  0  0  0  0  0  0  0  0  0  0
   -3.6848  -30.0145  -15.4147 N   0  0  0  0  0  0  0  0  0  0  0  0
   -3.2563  -30.0651   -7.1000 C   0  0  0  0  0  0  0  0  0  0  0  0
   -5.5189  -30.5479   -6.1891 C   0  0  0  0  0  0  0  0  0  0  0  0
   -2.5068  -29.8962  -10.9045 C   0  0  0  0  0  0  0  0  0  0  0  0
    2.8501  -32.3170  -14.9508 C   0  0  0  0  0  0  0  0  0  0  0  0
   -2.0818  -30.7389  -17.0027 N   0  0  0  0  0  0  0  0  0  0  0  0
   -3.5660  -29.4961  -11.8090 N   0  0  0  0  0  0  0  0  0  0  0  0
   -2.9967  -29.7284   -9.5852 C   0  0  0  0  0  0  0  0  0  0  0  0
    3.6979  -32.5742  -12.8114 C   0  0  0  0  0  0  0  0  0  0  0  0
    1.9572  -31.7424  -14.0284 C   0  0  0  0  0  0  0  0  0  0  0  0
    2.6454  -32.4146  -16.3499 C   0  0  0  0  0  0  0  0  0  0  0  0
   -2.5043  -30.1365   -8.3324 C   0  0  0  0  0  0  0  0  0  0  0  0
   -1.4172  -30.3773  -14.7761 C   0  0  0  0  0  0  0  0  0  0  0  0
   -0.3412  -30.5558  -13.7832 C   0  0  0  0  0  0  0  0  0  0  0  0
  1  7  1  0
  1 15  1  0
  2  4  1  0
  2  6  1  0
  2 29  2  0
  3 21  1  0
  3 28  2  0
  4 19  2  0
  5  6  2  0
  5 12  1  0
  7 17  1  0
  7 18  1  0
  8 15  1  0
  8 22  1  0
  9 16  1  0
  9 21  2  0
 10 13  1  0
 10 16  2  0
 10 28  1  0
 11 20  1  0
 11 24  1  0
 12 24  1  0
 12 25  1  0
 13 22  1  0
 14 25  2  0
 14 29  1  0
 15 23  1  0
 17 27  1  0
 19 22  1  0
 19 23  1  0
 20 25  1  0
 20 26  1  0
 23 27  2  0
 28 29  1  0
M  END
>  <ID>  (1) 
conformer_0

$$$$
