
     RDKit          3D

 44 49  0  0  0  0  0  0  0  0999 V2000
   -6.0820  -27.9430   -8.4069 C   0  0  0  0  0  0  0  0  0  0  0  0
    0.2596  -31.2036   -7.9097 C   0  0  0  0  0  0  0  0  0  0  0  0
   -0.7168  -30.9678  -15.9377 C   0  0  0  0  0  0  0  0  0  0  0  0
   -2.8909  -29.4879   -7.1847 N   0  0  0  0  0  0  0  0  0  0  0  0
    3.4535  -32.5438  -16.8871 O   0  0  0  0  0  0  0  0  0  0  0  0
   -2.5031  -28.6737  -15.3984 O   0  0  0  0  0  0  0  0  0  0  0  0
   -3.7442  -29.3610  -12.3711 C   0  0  0  0  0  0  0  0  0  0  0  0
   -3.9909  -30.3616  -15.6725 O   0  0  0  0  0  0  0  0  0  0  0  0
   -1.6029  -29.7920   -7.6428 C   0  0  0  0  0  0  0  0  0  0  0  0
    5.4114  -30.4304   -9.9183 O   0  0  0  0  0  0  0  0  0  0  0  0
   -0.9991  -30.9189   -7.1001 N   0  0  0  0  0  0  0  0  0  0  0  0
    5.2821  -31.3342  -10.8065 C   0  0  0  0  0  0  0  0  0  0  0  0
   -3.8140  -29.3646  -13.7054 N   0  0  0  0  0  0  0  0  0  0  0  0
   -1.3302  -31.3350  -18.1985 C   0  0  0  0  0  0  0  0  0  0  0  0
    5.1679  -31.4711  -13.5982 C   0  0  0  0  0  0  0  0  0  0  0  0
   -1.7037  -30.8440  -16.9074 O   0  0  0  0  0  0  0  0  0  0  0  0
   -5.9683  -28.1367   -9.7288 N   0  0  0  0  0  0  0  0  0  0  0  0
    0.7222  -31.4413   -9.2681 C   0  0  0  0  0  0  0  0  0  0  0  0
   -0.6801  -30.7144  -14.5313 C   0  0  0  0  0  0  0  0  0  0  0  0
   -0.8865  -28.9115   -8.2009 O   0  0  0  0  0  0  0  0  0  0  0  0
    1.5090  -31.4272  -10.5368 C   0  0  0  0  0  0  0  0  0  0  0  0
   -2.6775  -29.8069  -11.5590 C   0  0  0  0  0  0  0  0  0  0  0  0
    2.6334  -31.7923  -14.8519 C   0  0  0  0  0  0  0  0  0  0  0  0
    0.8444  -31.3285  -11.7075 C   0  0  0  0  0  0  0  0  0  0  0  0
    3.9411  -31.4838  -11.3582 C   0  0  0  0  0  0  0  0  0  0  0  0
    6.3097  -31.9680  -11.2375 O   0  0  0  0  0  0  0  0  0  0  0  0
    0.5204  -31.4687  -16.3626 C   0  0  0  0  0  0  0  0  0  0  0  0
   -2.7036  -29.7016  -10.2024 C   0  0  0  0  0  0  0  0  0  0  0  0
   -4.8329  -28.8364  -11.6773 C   0  0  0  0  0  0  0  0  0  0  0  0
   -3.3719  -29.4770  -15.0054 C   0  0  0  0  0  0  0  0  0  0  0  0
   -3.7684  -29.1357   -9.4832 C   0  0  0  0  0  0  0  0  0  0  0  0
    5.0497  -32.2535  -14.8887 C   0  0  0  0  0  0  0  0  0  0  0  0
    0.5430  -31.1140  -14.0751 C   0  0  0  0  0  0  0  0  0  0  0  0
    3.7678  -32.1939  -15.6249 C   0  0  0  0  0  0  0  0  0  0  0  0
   -3.0267  -29.5252   -5.7075 C   0  0  0  0  0  0  0  0  0  0  0  0
   -3.9063  -29.0003   -8.0802 C   0  0  0  0  0  0  0  0  0  0  0  0
   -5.0467  -28.3750   -7.5920 C   0  0  0  0  0  0  0  0  0  0  0  0
    2.6884  -31.6105  -13.4261 C   0  0  0  0  0  0  0  0  0  0  0  0
    3.8958  -31.5596  -12.7910 C   0  0  0  0  0  0  0  0  0  0  0  0
    1.3810  -31.3313  -12.9798 C   0  0  0  0  0  0  0  0  0  0  0  0
   -4.4019  -30.2455   -5.3272 C   0  0  0  0  0  0  0  0  0  0  0  0
    2.8711  -31.5301  -10.5526 C   0  0  0  0  0  0  0  0  0  0  0  0
    1.3704  -31.5400  -15.2715 C   0  0  0  0  0  0  0  0  0  0  0  0
   -4.8631  -28.6977  -10.2954 C   0  0  0  0  0  0  0  0  0  0  0  0
  1 17  2  0
  1 37  1  0
  2 11  1  0
  2 18  2  0
  3 16  1  0
  3 19  1  0
  3 27  1  0
  4  9  1  0
  4 35  1  0
  4 36  1  0
  5 34  1  0
  6 30  2  0
  7 13  1  0
  7 22  2  0
  7 29  1  0
  8 30  1  0
  9 11  1  0
  9 20  2  0
 10 12  2  0
 12 25  1  0
 12 26  1  0
 13 30  1  0
 14 16  1  0
 15 32  1  0
 15 39  1  0
 17 44  1  0
 18 21  2  0
 19 33  1  0
 21 24  1  0
 21 42  1  0
 22 28  1  0
 23 34  2  0
 23 38  1  0
 23 43  1  0
 24 40  2  0
 25 39  1  0
 25 42  2  0
 27 43  1  0
 28 31  2  0
 29 44  2  0
 31 36  1  0
 31 44  1  0
 32 34  1  0
 33 40  1  0
 33 43  2  0
 35 41  1  0
 36 37  2  0
 38 39  1  0
 38 40  1  0
M  END
>  <ID>  (1) 
conformer_0

$$$$
