
     RDKit          3D

 43 50  0  0  0  0  0  0  0  0999 V2000
    5.4650  -32.1069  -13.3669 C   0  0  0  0  0  0  0  0  0  0  0  0
   -0.7721  -31.0304  -17.7579 C   0  0  0  0  0  0  0  0  0  0  0  0
   -3.0730  -29.8096  -14.5063 C   0  0  0  0  0  0  0  0  0  0  0  0
   -1.5127  -31.0568  -10.2229 O   0  0  0  0  0  0  0  0  0  0  0  0
   -5.3078  -28.5011   -6.7627 C   0  0  0  0  0  0  0  0  0  0  0  0
   -4.5737  -28.9645  -10.5820 C   0  0  0  0  0  0  0  0  0  0  0  0
    3.0471  -32.6724  -13.6892 N   0  0  0  0  0  0  0  0  0  0  0  0
    1.0295  -31.9588  -14.9152 C   0  0  0  0  0  0  0  0  0  0  0  0
    0.4330  -31.4774  -17.1128 N   0  0  0  0  0  0  0  0  0  0  0  0
   -3.7920  -28.5217   -6.4726 N   0  0  0  0  0  0  0  0  0  0  0  0
   -1.6036  -30.5754  -16.7151 C   0  0  0  0  0  0  0  0  0  0  0  0
   -5.9773  -29.8356   -6.1221 C   0  0  0  0  0  0  0  0  0  0  0  0
   -3.3323  -29.6018  -10.9973 C   0  0  0  0  0  0  0  0  0  0  0  0
    3.4913  -32.0784  -11.6024 C   0  0  0  0  0  0  0  0  0  0  0  0
   -1.6233  -30.2135  -12.9102 C   0  0  0  0  0  0  0  0  0  0  0  0
   -3.6157  -29.6705  -15.7518 C   0  0  0  0  0  0  0  0  0  0  0  0
    4.7067  -31.2695  -12.3158 C   0  0  0  0  0  0  0  0  0  0  0  0
   -3.1948  -29.3268   -8.6810 C   0  0  0  0  0  0  0  0  0  0  0  0
    0.9733  -31.4458  -10.1568 N   0  0  0  0  0  0  0  0  0  0  0  0
    1.1115  -32.1098  -12.4026 N   0  0  0  0  0  0  0  0  0  0  0  0
   -1.0290  -30.6952  -15.4678 C   0  0  0  0  0  0  0  0  0  0  0  0
    0.4592  -28.3272   -6.2263 C   0  0  0  0  0  0  0  0  0  0  0  0
   -2.5509  -30.0196   -9.8817 C   0  0  0  0  0  0  0  0  0  0  0  0
   -0.3753  -31.8901  -10.2386 C   0  0  0  0  0  0  0  0  0  0  0  0
   -2.8433  -30.0506  -16.8169 C   0  0  0  0  0  0  0  0  0  0  0  0
    0.2275  -31.2246  -15.7185 N   0  0  0  0  0  0  0  0  0  0  0  0
   -7.6887  -27.6064   -6.8687 C   0  0  0  0  0  0  0  0  0  0  0  0
   -6.2813  -27.3361   -6.1764 C   0  0  0  0  0  0  0  0  0  0  0  0
   -3.7268  -29.4854  -13.3172 N   0  0  0  0  0  0  0  0  0  0  0  0
    4.4331  -33.0777  -13.9943 C   0  0  0  0  0  0  0  0  0  0  0  0
   -1.3924  -28.7877   -7.1286 N   0  0  0  0  0  0  0  0  0  0  0  0
    5.4011  -33.5264  -12.9020 C   0  0  0  0  0  0  0  0  0  0  0  0
   -0.8581  -27.4962   -6.4974 C   0  0  0  0  0  0  0  0  0  0  0  0
    1.7436  -32.1695  -13.6748 C   0  0  0  0  0  0  0  0  0  0  0  0
   -1.7878  -30.2845  -14.3079 N   0  0  0  0  0  0  0  0  0  0  0  0
   -5.4851  -28.4288   -8.2626 O   0  0  0  0  0  0  0  0  0  0  0  0
   -4.4956  -28.8553   -9.1077 C   0  0  0  0  0  0  0  0  0  0  0  0
   -2.8357  -29.7846  -12.3010 N   0  0  0  0  0  0  0  0  0  0  0  0
   -0.2627  -29.5152   -6.9994 C   0  0  0  0  0  0  0  0  0  0  0  0
    1.9191  -31.8801  -11.2479 C   0  0  0  0  0  0  0  0  0  0  0  0
   -5.1866  -30.3402   -4.9803 O   0  0  0  0  0  0  0  0  0  0  0  0
   -2.7515  -28.9915   -7.3767 C   0  0  0  0  0  0  0  0  0  0  0  0
    0.0913  -30.6422   -7.2422 O   0  0  0  0  0  0  0  0  0  0  0  0
  1 17  1  0
  1 32  1  0
  2  9  1  0
  2 11  1  0
  3 16  2  0
  3 29  1  0
  3 35  1  0
  4 23  1  0
  4 24  1  0
  5 10  1  0
  5 12  1  0
  5 28  1  0
  5 36  1  0
  6 13  1  0
  6 37  1  0
  7 30  1  0
  7 34  2  0
  8 26  1  0
  8 34  1  0
  9 26  1  0
 10 42  2  0
 11 21  1  0
 11 25  2  0
 12 41  1  0
 13 23  1  0
 13 38  1  0
 14 17  1  0
 14 40  1  0
 15 35  1  0
 15 38  1  0
 16 25  1  0
 18 23  1  0
 18 37  1  0
 18 42  1  0
 19 24  1  0
 19 40  1  0
 20 34  1  0
 20 40  2  0
 21 26  1  0
 21 35  1  0
 22 33  1  0
 22 39  1  0
 27 28  1  0
 29 38  1  0
 30 32  1  0
 31 33  1  0
 31 39  1  0
 31 42  1  0
 36 37  1  0
 39 43  2  0
M  END
>  <ID>  (1) 
conformer_0

$$$$
