
     RDKit          3D

 29 33  0  0  0  0  0  0  0  0999 V2000
    1.8632  -31.6981  -11.5865 C   0  0  0  0  0  0  0  0  0  0  0  0
   -3.5985  -29.6683  -14.4931 C   0  0  0  0  0  0  0  0  0  0  0  0
    1.2759  -31.1383  -12.7438 N   0  0  0  0  0  0  0  0  0  0  0  0
    0.4663  -31.2364  -16.3146 C   0  0  0  0  0  0  0  0  0  0  0  0
   -2.9988  -30.3472  -16.5777 C   0  0  0  0  0  0  0  0  0  0  0  0
   -0.6641  -31.1404  -17.0768 C   0  0  0  0  0  0  0  0  0  0  0  0
   -6.3118  -27.0312   -8.7466 C   0  0  0  0  0  0  0  0  0  0  0  0
   -5.5361  -27.1339   -7.5891 C   0  0  0  0  0  0  0  0  0  0  0  0
    1.8912  -31.8580   -9.1382 C   0  0  0  0  0  0  0  0  0  0  0  0
   -0.0206  -30.6721  -12.5539 C   0  0  0  0  0  0  0  0  0  0  0  0
   -2.6067  -30.4224   -7.5450 C   0  0  0  0  0  0  0  0  0  0  0  0
   -0.8493  -31.4282  -18.3548 N   0  0  0  0  0  0  0  0  0  0  0  0
   -1.4033  -30.3657  -10.5545 C   0  0  0  0  0  0  0  0  0  0  0  0
   -4.1537  -28.7454   -8.6118 C   0  0  0  0  0  0  0  0  0  0  0  0
   -4.8087  -28.5556   -9.8527 C   0  0  0  0  0  0  0  0  0  0  0  0
   -2.3153  -29.9853  -14.1047 N   0  0  0  0  0  0  0  0  0  0  0  0
   -4.4883  -28.0298   -7.5356 C   0  0  0  0  0  0  0  0  0  0  0  0
   -1.2355  -30.4791  -14.9279 C   0  0  0  0  0  0  0  0  0  0  0  0
    1.0075  -31.3764  -10.3497 C   0  0  0  0  0  0  0  0  0  0  0  0
   -2.6318  -29.9009  -10.0246 C   0  0  0  0  0  0  0  0  0  0  0  0
    0.1419  -30.8361  -14.9764 N   0  0  0  0  0  0  0  0  0  0  0  0
   -3.9769  -29.8716  -15.7516 N   0  0  0  0  0  0  0  0  0  0  0  0
   -3.0798  -29.6807   -8.7257 C   0  0  0  0  0  0  0  0  0  0  0  0
   -0.2298  -30.9546   -9.9019 C   0  0  0  0  0  0  0  0  0  0  0  0
   -5.9323  -27.7513   -9.9258 C   0  0  0  0  0  0  0  0  0  0  0  0
   -1.7092  -30.6494  -16.2625 C   0  0  0  0  0  0  0  0  0  0  0  0
   -1.1651  -30.2895  -12.0486 C   0  0  0  0  0  0  0  0  0  0  0  0
   -4.0845  -29.2531  -10.9792 S   0  0  0  0  0  0  0  0  0  0  0  0
   -2.1669  -29.8471  -12.7557 N   0  0  0  0  0  0  0  0  0  0  0  0
  1  3  1  0
  1 19  1  0
  2 16  1  0
  2 22  1  0
  3 10  1  0
  4  6  1  0
  4 21  1  0
  5 22  1  0
  5 26  2  0
  6 12  2  0
  6 26  1  0
  7  8  2  0
  7 25  1  0
  8 17  1  0
  9 19  1  0
 10 27  1  0
 11 23  1  0
 13 20  1  0
 13 24  1  0
 13 27  2  0
 14 15  1  0
 14 17  2  0
 14 23  1  0
 15 25  2  0
 15 28  1  0
 16 18  1  0
 16 29  1  0
 18 21  2  0
 18 26  1  0
 19 24  2  0
 20 23  1  0
 20 28  1  0
 27 29  1  0
M  END
>  <ID>  (1) 
conformer_0

$$$$
