
     RDKit          3D

 36 42  0  0  0  0  0  0  0  0999 V2000
   -2.1709  -30.1005  -11.7447 C   0  0  0  0  0  0  0  0  0  0  0  0
    2.3662  -32.1270  -15.2888 C   0  0  0  0  0  0  0  0  0  0  0  0
   -1.5355  -30.4631  -14.8542 C   0  0  0  0  0  0  0  0  0  0  0  0
    2.6817  -33.1752  -10.2267 O   0  0  0  0  0  0  0  0  0  0  0  0
   -3.3809  -29.6029  -11.8582 C   0  0  0  0  0  0  0  0  0  0  0  0
    0.7681  -31.0086  -14.0879 C   0  0  0  0  0  0  0  0  0  0  0  0
    1.7111  -31.2953   -9.0089 C   0  0  0  0  0  0  0  0  0  0  0  0
   -4.0514  -29.6107  -14.4658 N   0  0  0  0  0  0  0  0  0  0  0  0
   -1.9838  -30.1732  -13.5586 N   0  0  0  0  0  0  0  0  0  0  0  0
    2.5468  -30.6520   -8.1624 O   0  0  0  0  0  0  0  0  0  0  0  0
    1.9582  -31.6121  -14.0785 C   0  0  0  0  0  0  0  0  0  0  0  0
   -5.2136  -30.2457   -6.6423 C   0  0  0  0  0  0  0  0  0  0  0  0
   -2.3362  -30.3461  -15.9736 C   0  0  0  0  0  0  0  0  0  0  0  0
    2.7448  -31.6964  -12.7913 C   0  0  0  0  0  0  0  0  0  0  0  0
   -0.2478  -30.9851  -10.3677 C   0  0  0  0  0  0  0  0  0  0  0  0
   -3.2058  -29.7666  -13.3349 C   0  0  0  0  0  0  0  0  0  0  0  0
   -4.1054  -29.2914  -10.6430 C   0  0  0  0  0  0  0  0  0  0  0  0
    1.5138  -32.0777  -16.3744 N   0  0  0  0  0  0  0  0  0  0  0  0
   -3.6123  -29.8668  -15.7238 C   0  0  0  0  0  0  0  0  0  0  0  0
   -1.5866  -30.3958  -10.4777 C   0  0  0  0  0  0  0  0  0  0  0  0
   -2.2918  -30.1257   -9.3517 C   0  0  0  0  0  0  0  0  0  0  0  0
   -1.7575  -29.4459   -6.4315 C   0  0  0  0  0  0  0  0  0  0  0  0
    1.9970  -31.3525  -11.5343 C   0  0  0  0  0  0  0  0  0  0  0  0
   -0.5814  -31.3983  -17.4436 O   0  0  0  0  0  0  0  0  0  0  0  0
   -3.2151  -28.8855   -6.7499 C   0  0  0  0  0  0  0  0  0  0  0  0
   -3.8549  -28.7482   -5.2914 C   0  0  0  0  0  0  0  0  0  0  0  0
    0.2532  -31.4816  -16.2912 C   0  0  0  0  0  0  0  0  0  0  0  0
   -1.8685  -30.7819  -17.3035 C   0  0  0  0  0  0  0  0  0  0  0  0
   -0.1668  -30.9682  -15.0546 C   0  0  0  0  0  0  0  0  0  0  0  0
   -5.6570  -28.7045   -8.2986 C   0  0  0  0  0  0  0  0  0  0  0  0
    2.2885  -31.9039  -10.2060 C   0  0  0  0  0  0  0  0  0  0  0  0
   -4.3037  -29.4211   -7.8225 C   0  0  0  0  0  0  0  0  0  0  0  0
   -3.5629  -29.5917   -9.3025 C   0  0  0  0  0  0  0  0  0  0  0  0
    0.5358  -31.1288  -11.5577 C   0  0  0  0  0  0  0  0  0  0  0  0
   -5.3854  -29.1110   -5.5235 C   0  0  0  0  0  0  0  0  0  0  0  0
    0.4626  -30.7155   -9.1952 N   0  0  0  0  0  0  0  0  0  0  0  0
  1  5  2  0
  1 20  1  0
  2 11  2  0
  2 18  1  0
  3  9  2  0
  3 13  1  0
  3 29  1  0
  4 31  1  0
  5 16  1  0
  5 17  1  0
  6 11  1  0
  6 29  2  0
  7 10  2  0
  7 31  1  0
  7 36  1  0
  8 16  2  0
  8 19  1  0
  9 16  1  0
 11 14  1  0
 12 32  1  0
 12 35  1  0
 13 19  2  0
 13 28  1  0
 14 23  1  0
 15 20  1  0
 15 34  1  0
 15 36  1  0
 17 33  2  0
 18 27  2  0
 20 21  2  0
 21 33  1  0
 22 25  1  0
 23 31  1  0
 23 34  1  0
 24 27  1  0
 24 28  1  0
 25 26  1  0
 25 32  1  0
 26 35  1  0
 27 29  1  0
 30 32  1  0
 32 33  1  0
M  END
>  <ID>  (1) 
conformer_0

$$$$
