
     RDKit          3D

 44 51  0  0  0  0  0  0  0  0999 V2000
   -2.6470  -30.5773  -15.3916 C   0  0  0  0  0  0  0  0  0  0  0  0
   -4.7244  -28.5793   -9.2251 O   0  0  0  0  0  0  0  0  0  0  0  0
    2.2749  -31.6934   -6.8401 C   0  0  0  0  0  0  0  0  0  0  0  0
   -6.3460  -27.6237  -10.5283 C   0  0  0  0  0  0  0  0  0  0  0  0
    1.5729  -31.5566   -9.1178 C   0  0  0  0  0  0  0  0  0  0  0  0
   -1.9192  -30.3402   -6.5067 C   0  0  0  0  0  0  0  0  0  0  0  0
    0.4930  -31.3001  -10.0390 C   0  0  0  0  0  0  0  0  0  0  0  0
   -6.8917  -26.8047   -9.2698 C   0  0  0  0  0  0  0  0  0  0  0  0
   -3.9083  -29.1542   -7.0863 C   0  0  0  0  0  0  0  0  0  0  0  0
   -0.4858  -31.0349  -15.9669 C   0  0  0  0  0  0  0  0  0  0  0  0
    0.8880  -31.2104  -15.8614 C   0  0  0  0  0  0  0  0  0  0  0  0
    2.8696  -31.8134   -9.5293 C   0  0  0  0  0  0  0  0  0  0  0  0
   -3.8409  -29.3271  -12.8488 C   0  0  0  0  0  0  0  0  0  0  0  0
   -1.2624  -30.7579  -14.8543 C   0  0  0  0  0  0  0  0  0  0  0  0
   -5.0540  -28.3549   -6.4225 C   0  0  0  0  0  0  0  0  0  0  0  0
    1.5963  -31.3968  -16.9819 O   0  0  0  0  0  0  0  0  0  0  0  0
    0.7972  -31.0952  -13.5533 C   0  0  0  0  0  0  0  0  0  0  0  0
   -0.8491  -30.6477  -12.1220 C   0  0  0  0  0  0  0  0  0  0  0  0
   -3.0809  -29.7897   -6.1627 C   0  0  0  0  0  0  0  0  0  0  0  0
   -3.9725  -29.1695  -11.4031 C   0  0  0  0  0  0  0  0  0  0  0  0
   -3.8524  -28.8656  -14.2645 C   0  0  0  0  0  0  0  0  0  0  0  0
   -4.9607  -28.5347  -10.5391 C   0  0  0  0  0  0  0  0  0  0  0  0
    3.8655  -31.9952   -8.5987 C   0  0  0  0  0  0  0  0  0  0  0  0
   -3.8262  -29.9194  -15.1623 N   0  0  0  0  0  0  0  0  0  0  0  0
    1.5372  -31.2438  -14.6737 C   0  0  0  0  0  0  0  0  0  0  0  0
   -3.7468  -29.1788   -8.5249 C   0  0  0  0  0  0  0  0  0  0  0  0
   -0.6986  -31.0867  -18.3627 O   0  0  0  0  0  0  0  0  0  0  0  0
    3.5870  -31.9098   -7.2444 C   0  0  0  0  0  0  0  0  0  0  0  0
   -2.7448  -29.7357   -9.3200 C   0  0  0  0  0  0  0  0  0  0  0  0
    2.9487  -31.6721  -16.9215 C   0  0  0  0  0  0  0  0  0  0  0  0
    1.3134  -31.2507  -12.2975 N   0  0  0  0  0  0  0  0  0  0  0  0
   -6.1322  -27.5754   -7.0194 O   0  0  0  0  0  0  0  0  0  0  0  0
   -0.5505  -30.7975  -13.5560 C   0  0  0  0  0  0  0  0  0  0  0  0
   -6.0171  -26.4577   -8.0405 C   0  0  0  0  0  0  0  0  0  0  0  0
   -1.3067  -30.5225   -7.6504 C   0  0  0  0  0  0  0  0  0  0  0  0
   -1.2249  -31.1647  -17.2013 C   0  0  0  0  0  0  0  0  0  0  0  0
    4.5515  -31.9852   -6.3845 F   0  0  0  0  0  0  0  0  0  0  0  0
   -2.6210  -31.0547  -16.8201 C   0  0  0  0  0  0  0  0  0  0  0  0
   -1.6239  -30.2834   -8.8726 N   0  0  0  0  0  0  0  0  0  0  0  0
   -3.5028  -29.8706   -4.7505 C   0  0  0  0  0  0  0  0  0  0  0  0
   -1.8897  -30.2390  -11.4930 C   0  0  0  0  0  0  0  0  0  0  0  0
    1.3069  -31.5219   -7.7727 C   0  0  0  0  0  0  0  0  0  0  0  0
   -2.8668  -29.7030  -10.7408 C   0  0  0  0  0  0  0  0  0  0  0  0
    0.3362  -31.0510  -11.4029 C   0  0  0  0  0  0  0  0  0  0  0  0
  1 14  1  0
  1 24  1  0
  1 38  1  0
  2 22  1  0
  2 26  1  0
  3 28  2  0
  3 42  1  0
  4  8  1  0
  4 22  1  0
  5  7  1  0
  5 12  1  0
  5 42  2  0
  6 19  2  0
  6 35  1  0
  7 44  2  3
  8 34  1  0
  9 15  2  0
  9 19  1  0
  9 26  1  0
 10 11  1  0
 10 14  2  0
 10 36  1  0
 11 16  1  0
 11 25  2  0
 12 23  2  0
 13 20  1  0
 13 21  1  0
 14 33  1  0
 15 32  1  0
 16 30  1  0
 17 25  1  0
 17 31  1  0
 17 33  2  0
 18 33  1  0
 18 41  2  0
 18 44  1  0
 19 40  1  0
 20 22  2  0
 20 43  1  0
 21 24  1  0
 23 28  1  0
 26 29  2  0
 27 36  2  0
 28 37  1  0
 29 39  1  0
 29 43  1  0
 31 44  1  0
 32 34  1  0
 35 39  2  0
 36 38  1  0
 41 43  2  0
M  END
>  <ID>  (1) 
conformer_0

$$$$
