
     RDKit          3D

 31 37  0  0  0  0  0  0  0  0999 V2000
    1.5955  -31.4163  -10.8126 C   0  0  0  0  0  0  0  0  0  0  0  0
   -2.5076  -30.3992  -17.0271 N   0  0  0  0  0  0  0  0  0  0  0  0
   -0.4880  -30.8475  -18.3812 C   0  0  0  0  0  0  0  0  0  0  0  0
    2.8982  -32.3513  -10.6219 C   0  0  0  0  0  0  0  0  0  0  0  0
   -1.5560  -30.3249  -13.6337 C   0  0  0  0  0  0  0  0  0  0  0  0
   -2.0877  -29.7628   -9.4410 C   0  0  0  0  0  0  0  0  0  0  0  0
   -1.8558  -29.9344  -10.8313 C   0  0  0  0  0  0  0  0  0  0  0  0
   -2.7630  -29.7767  -13.1263 C   0  0  0  0  0  0  0  0  0  0  0  0
    0.7401  -31.2556  -13.1734 C   0  0  0  0  0  0  0  0  0  0  0  0
    1.0875  -31.6043  -14.4264 C   0  0  0  0  0  0  0  0  0  0  0  0
   -1.4982  -29.9763   -7.0456 C   0  0  0  0  0  0  0  0  0  0  0  0
   -0.6358  -30.4478  -11.3617 C   0  0  0  0  0  0  0  0  0  0  0  0
   -5.9375  -28.1303   -8.2991 C   0  0  0  0  0  0  0  0  0  0  0  0
    0.5141  -31.5378  -15.6167 C   0  0  0  0  0  0  0  0  0  0  0  0
   -3.9079  -29.3846  -13.8443 C   0  0  0  0  0  0  0  0  0  0  0  0
   -0.4669  -30.6697  -12.7653 C   0  0  0  0  0  0  0  0  0  0  0  0
    2.9223  -32.4270  -12.2310 C   0  0  0  0  0  0  0  0  0  0  0  0
    0.3472  -30.8830  -10.3879 C   0  0  0  0  0  0  0  0  0  0  0  0
   -1.1962  -30.0711   -8.4281 N   0  0  0  0  0  0  0  0  0  0  0  0
   -0.7166  -31.0108  -15.9230 C   0  0  0  0  0  0  0  0  0  0  0  0
   -3.9368  -29.7278  -15.1829 O   0  0  0  0  0  0  0  0  0  0  0  0
    1.7097  -31.5802  -12.2433 N   0  0  0  0  0  0  0  0  0  0  0  0
   -2.3791  -30.8225   -6.4216 O   0  0  0  0  0  0  0  0  0  0  0  0
   -4.3269  -28.9904   -9.9226 C   0  0  0  0  0  0  0  0  0  0  0  0
   -3.2867  -29.2687   -9.0167 C   0  0  0  0  0  0  0  0  0  0  0  0
   -4.0868  -29.1488  -11.2492 C   0  0  0  0  0  0  0  0  0  0  0  0
   -2.8875  -29.6203  -11.7200 C   0  0  0  0  0  0  0  0  0  0  0  0
   -1.2389  -30.9460  -17.2359 C   0  0  0  0  0  0  0  0  0  0  0  0
   -5.6111  -28.5933   -9.5693 O   0  0  0  0  0  0  0  0  0  0  0  0
   -2.7668  -30.1317  -15.7325 C   0  0  0  0  0  0  0  0  0  0  0  0
   -1.5900  -30.5037  -15.0180 C   0  0  0  0  0  0  0  0  0  0  0  0
  1  4  1  0
  1 18  1  0
  1 22  1  0
  2 28  1  0
  2 30  1  0
  3 28  2  0
  4 17  1  0
  5  8  1  0
  5 16  1  0
  5 31  1  0
  6  7  1  0
  6 19  2  3
  6 25  1  0
  7 12  1  0
  7 27  2  0
  8 15  2  0
  8 27  1  0
  9 10  1  0
  9 16  2  0
  9 22  1  0
 10 14  2  0
 11 19  1  0
 11 23  1  0
 12 16  1  0
 12 18  2  0
 13 29  1  0
 14 20  1  0
 15 21  1  0
 17 22  1  0
 20 28  1  0
 20 31  1  0
 21 30  1  0
 24 25  1  0
 24 26  2  0
 24 29  1  0
 26 27  1  0
 30 31  2  0
M  END
>  <ID>  (1) 
conformer_0

$$$$
