
     RDKit          3D

 36 41  0  0  0  0  0  0  0  0999 V2000
   -3.6538  -29.5177  -13.1936 N   0  0  0  0  0  0  0  0  0  0  0  0
    1.1855  -31.5702  -16.0566 N   0  0  0  0  0  0  0  0  0  0  0  0
   -2.5507  -29.4488   -9.8513 C   0  0  0  0  0  0  0  0  0  0  0  0
    3.1300  -33.4676  -10.9181 O   0  0  0  0  0  0  0  0  0  0  0  0
    3.1983  -32.5868  -15.4328 C   0  0  0  0  0  0  0  0  0  0  0  0
    2.4757  -32.6757  -12.0037 C   0  0  0  0  0  0  0  0  0  0  0  0
    0.3675  -31.1900  -13.8157 N   0  0  0  0  0  0  0  0  0  0  0  0
   -6.5924  -27.4734   -9.8379 C   0  0  0  0  0  0  0  0  0  0  0  0
   -1.1099  -30.7690  -15.5272 C   0  0  0  0  0  0  0  0  0  0  0  0
   -3.8211  -29.9454  -15.4580 N   0  0  0  0  0  0  0  0  0  0  0  0
    3.2399  -32.8306   -9.5872 C   0  0  0  0  0  0  0  0  0  0  0  0
   -4.4620  -28.9938  -11.0807 C   0  0  0  0  0  0  0  0  0  0  0  0
    3.0713  -31.3865   -9.9164 C   0  0  0  0  0  0  0  0  0  0  0  0
    2.2065  -31.4291  -11.1273 C   0  0  0  0  0  0  0  0  0  0  0  0
   -1.8242  -30.7651  -16.7462 C   0  0  0  0  0  0  0  0  0  0  0  0
   -4.9092  -29.2152   -6.0115 C   0  0  0  0  0  0  0  0  0  0  0  0
   -3.0796  -29.9093  -14.3268 C   0  0  0  0  0  0  0  0  0  0  0  0
    2.7973  -31.6724  -14.2886 C   0  0  0  0  0  0  0  0  0  0  0  0
    2.5528  -31.3386  -15.7235 C   0  0  0  0  0  0  0  0  0  0  0  0
    0.8814  -31.4764  -10.7131 O   0  0  0  0  0  0  0  0  0  0  0  0
   -2.2217  -29.6808  -11.2298 C   0  0  0  0  0  0  0  0  0  0  0  0
   -1.5806  -29.6894   -8.8271 C   0  0  0  0  0  0  0  0  0  0  0  0
   -4.7319  -28.6810   -8.5950 N   0  0  0  0  0  0  0  0  0  0  0  0
   -3.9572  -29.0084   -9.7835 C   0  0  0  0  0  0  0  0  0  0  0  0
   -5.9933  -27.9161   -8.4704 C   0  0  0  0  0  0  0  0  0  0  0  0
   -3.4106  -29.4171  -11.9290 C   0  0  0  0  0  0  0  0  0  0  0  0
   -3.2000  -30.4059  -16.5923 N   0  0  0  0  0  0  0  0  0  0  0  0
    0.2308  -31.2012  -15.1831 C   0  0  0  0  0  0  0  0  0  0  0  0
   -1.2797  -31.0275  -17.8946 O   0  0  0  0  0  0  0  0  0  0  0  0
   -1.7473  -30.3335  -14.3310 C   0  0  0  0  0  0  0  0  0  0  0  0
   -4.3646  -29.3139   -7.3833 C   0  0  0  0  0  0  0  0  0  0  0  0
   -1.0974  -30.0833  -11.9446 N   0  0  0  0  0  0  0  0  0  0  0  0
   -3.0004  -30.6543   -5.6729 O   0  0  0  0  0  0  0  0  0  0  0  0
   -0.8829  -30.4555  -13.2262 C   0  0  0  0  0  0  0  0  0  0  0  0
   -4.2552  -30.2827   -5.1288 N   0  0  0  0  0  0  0  0  0  0  0  0
    1.5939  -32.1089  -13.3640 C   0  0  0  0  0  0  0  0  0  0  0  0
  1 17  1  0
  1 26  2  0
  2 19  1  0
  2 28  1  0
  3 21  2  0
  3 22  1  0
  3 24  1  0
  4  6  1  0
  4 11  1  0
  5 19  1  0
  6 14  1  0
  6 36  1  0
  7 28  1  0
  7 34  1  0
  7 36  1  0
  8 25  1  0
  9 15  1  0
  9 28  2  0
  9 30  1  0
 10 17  2  0
 10 27  1  0
 11 13  1  0
 12 24  1  0
 12 26  1  0
 13 14  1  0
 14 20  1  0
 15 27  1  0
 15 29  2  0
 16 31  1  0
 16 35  1  0
 17 30  1  0
 18 19  1  0
 18 36  1  0
 21 26  1  0
 21 32  1  0
 23 24  1  0
 23 25  1  0
 23 31  1  0
 30 34  1  0
 32 34  2  0
 33 35  1  0
M  END
>  <ID>  (1) 
conformer_0

$$$$
