
     RDKit          3D

 31 37  0  0  0  0  0  0  0  0999 V2000
   -1.6194  -30.6815  -16.6005 N   0  0  0  0  0  0  0  0  0  0  0  0
   -3.5860  -30.4372   -5.1903 C   0  0  0  0  0  0  0  0  0  0  0  0
    2.5195  -31.4985  -17.9987 C   0  0  0  0  0  0  0  0  0  0  0  0
   -2.2172  -29.9075  -12.6670 C   0  0  0  0  0  0  0  0  0  0  0  0
    0.8308  -31.2005  -16.2302 C   0  0  0  0  0  0  0  0  0  0  0  0
   -2.0307  -30.1019  -14.0644 C   0  0  0  0  0  0  0  0  0  0  0  0
   -4.3085  -29.2540  -14.4312 N   0  0  0  0  0  0  0  0  0  0  0  0
   -3.3977  -29.7275   -6.4335 N   0  0  0  0  0  0  0  0  0  0  0  0
    0.0752  -30.7756  -12.1361 C   0  0  0  0  0  0  0  0  0  0  0  0
    1.4507  -31.5119  -13.9789 C   0  0  0  0  0  0  0  0  0  0  0  0
   -3.5980  -29.2639  -10.8917 C   0  0  0  0  0  0  0  0  0  0  0  0
    0.3256  -30.9254  -18.4941 O   0  0  0  0  0  0  0  0  0  0  0  0
   -0.7595  -30.6569  -14.4205 C   0  0  0  0  0  0  0  0  0  0  0  0
    0.2720  -30.9887  -13.5160 C   0  0  0  0  0  0  0  0  0  0  0  0
    3.4457  -31.9368  -17.0432 C   0  0  0  0  0  0  0  0  0  0  0  0
   -3.4411  -29.3996  -12.2165 C   0  0  0  0  0  0  0  0  0  0  0  0
    1.2323  -31.1950  -17.5713 C   0  0  0  0  0  0  0  0  0  0  0  0
   -2.6436  -29.5329   -9.9749 N   0  0  0  0  0  0  0  0  0  0  0  0
    3.0503  -31.9966  -15.7151 C   0  0  0  0  0  0  0  0  0  0  0  0
   -0.5367  -30.8454  -15.8229 C   0  0  0  0  0  0  0  0  0  0  0  0
   -4.5034  -28.9885  -13.1073 C   0  0  0  0  0  0  0  0  0  0  0  0
   -2.9736  -28.4337   -6.5594 C   0  0  0  0  0  0  0  0  0  0  0  0
    0.9551  -31.0671  -11.2595 O   0  0  0  0  0  0  0  0  0  0  0  0
   -3.1138  -29.7225  -14.9136 C   0  0  0  0  0  0  0  0  0  0  0  0
   -2.8405  -30.1210  -16.2116 N   0  0  0  0  0  0  0  0  0  0  0  0
   -3.4680  -30.2845   -7.7357 C   0  0  0  0  0  0  0  0  0  0  0  0
    1.7885  -31.5900  -15.2972 C   0  0  0  0  0  0  0  0  0  0  0  0
   -2.9558  -29.3425   -8.5729 C   0  0  0  0  0  0  0  0  0  0  0  0
   -1.2159  -30.2062  -11.7014 C   0  0  0  0  0  0  0  0  0  0  0  0
   -2.7093  -28.2053   -7.9057 C   0  0  0  0  0  0  0  0  0  0  0  0
   -1.4490  -30.0040  -10.4056 N   0  0  0  0  0  0  0  0  0  0  0  0
  1 20  2  0
  1 25  1  0
  2  8  1  0
  3 15  1  0
  3 17  2  0
  4  6  2  0
  4 16  1  0
  4 29  1  0
  5 17  1  0
  5 20  1  0
  5 27  1  0
  6 13  1  0
  6 24  1  0
  7 21  2  0
  7 24  1  0
  8 22  1  0
  8 26  1  0
  9 14  1  0
  9 23  2  0
  9 29  1  0
 10 14  1  0
 10 27  2  0
 11 16  2  0
 11 18  1  0
 12 17  1  0
 13 14  2  0
 13 20  1  0
 15 19  2  0
 16 21  1  0
 18 28  1  0
 18 31  1  0
 19 27  1  0
 22 30  1  0
 24 25  2  0
 26 28  1  0
 28 30  1  0
 29 31  2  0
M  END
>  <ID>  (1) 
conformer_0

$$$$
