
     RDKit          3D

 33 39  0  0  0  0  0  0  0  0999 V2000
   -0.9964  -30.5669  -15.2099 C   0  0  0  0  0  0  0  0  0  0  0  0
    1.1522  -30.8271  -13.3444 C   0  0  0  0  0  0  0  0  0  0  0  0
   -1.8853  -30.8675  -17.4003 C   0  0  0  0  0  0  0  0  0  0  0  0
   -0.5587  -30.2924  -11.6937 N   0  0  0  0  0  0  0  0  0  0  0  0
    0.2153  -31.1144  -15.6078 C   0  0  0  0  0  0  0  0  0  0  0  0
   -2.0790  -30.4715  -16.0822 C   0  0  0  0  0  0  0  0  0  0  0  0
    3.5286  -31.1809  -14.5530 C   0  0  0  0  0  0  0  0  0  0  0  0
   -2.9724  -29.9909   -9.1699 C   0  0  0  0  0  0  0  0  0  0  0  0
    1.2964  -31.7888   -6.8302 O   0  0  0  0  0  0  0  0  0  0  0  0
   -1.7470  -29.9347  -11.1939 C   0  0  0  0  0  0  0  0  0  0  0  0
    1.2462  -31.3203  -14.6938 C   0  0  0  0  0  0  0  0  0  0  0  0
    0.3462  -31.5076  -16.9159 C   0  0  0  0  0  0  0  0  0  0  0  0
   -1.0051  -31.4964   -6.3579 O   0  0  0  0  0  0  0  0  0  0  0  0
    1.0412  -31.3978   -8.2089 C   0  0  0  0  0  0  0  0  0  0  0  0
   -3.5406  -29.5682  -14.3959 C   0  0  0  0  0  0  0  0  0  0  0  0
   -0.1253  -30.3069  -12.9452 C   0  0  0  0  0  0  0  0  0  0  0  0
   -1.2618  -30.9750   -7.6417 C   0  0  0  0  0  0  0  0  0  0  0  0
   -2.5024  -29.6863  -13.4317 C   0  0  0  0  0  0  0  0  0  0  0  0
   -0.0418  -30.3652   -8.2085 C   0  0  0  0  0  0  0  0  0  0  0  0
    3.1019  -32.3699  -12.5045 O   0  0  0  0  0  0  0  0  0  0  0  0
   -1.1912  -30.1088  -13.8658 C   0  0  0  0  0  0  0  0  0  0  0  0
   -2.8757  -29.6507  -12.0119 C   0  0  0  0  0  0  0  0  0  0  0  0
   -4.1505  -29.5968  -11.3513 C   0  0  0  0  0  0  0  0  0  0  0  0
    2.3916  -32.1752  -14.8895 C   0  0  0  0  0  0  0  0  0  0  0  0
   -2.6644  -30.5092   -7.8060 C   0  0  0  0  0  0  0  0  0  0  0  0
   -1.8314  -29.8453   -9.8730 N   0  0  0  0  0  0  0  0  0  0  0  0
   -4.6708  -29.1801  -14.1320 O   0  0  0  0  0  0  0  0  0  0  0  0
    1.8410  -31.7056  -12.3669 C   0  0  0  0  0  0  0  0  0  0  0  0
    0.3352  -31.2905   -5.8881 C   0  0  0  0  0  0  0  0  0  0  0  0
   -4.1280  -29.8713   -9.9187 C   0  0  0  0  0  0  0  0  0  0  0  0
    4.0599  -31.3696  -13.1409 C   0  0  0  0  0  0  0  0  0  0  0  0
   -0.6789  -31.3820  -17.8019 C   0  0  0  0  0  0  0  0  0  0  0  0
   -3.2607  -30.0204  -15.6474 N   0  0  0  0  0  0  0  0  0  0  0  0
  1  5  1  0
  1  6  1  0
  1 21  2  0
  2 11  1  0
  2 16  1  0
  2 28  1  0
  3  6  1  0
  3 32  1  0
  4 10  1  0
  4 16  2  0
  5 11  2  0
  5 12  1  0
  6 33  2  0
  7 24  1  0
  7 31  1  0
  8 25  1  0
  8 26  1  0
  8 30  2  0
  9 14  1  0
  9 29  1  0
 10 22  2  0
 10 26  1  0
 11 24  1  0
 12 32  2  0
 13 17  1  0
 13 29  1  0
 14 19  1  0
 15 18  1  0
 15 27  2  0
 15 33  1  0
 16 21  1  0
 17 19  1  0
 17 25  1  0
 18 21  1  0
 18 22  1  0
 20 28  1  0
 20 31  1  0
 22 23  1  0
 23 30  1  0
M  END
>  <ID>  (1) 
conformer_0

$$$$
