
     RDKit          3D

 33 38  0  0  0  0  0  0  0  0999 V2000
   -2.6236  -30.6763  -17.3780 N   0  0  0  0  0  0  0  0  0  0  0  0
   -3.9576  -29.2556  -10.6297 C   0  0  0  0  0  0  0  0  0  0  0  0
    0.3776  -30.2593   -6.9474 C   0  0  0  0  0  0  0  0  0  0  0  0
    0.8671  -30.9490  -11.3047 C   0  0  0  0  0  0  0  0  0  0  0  0
   -3.9292  -29.1231   -7.7206 C   0  0  0  0  0  0  0  0  0  0  0  0
    2.1914  -31.3798  -11.2353 C   0  0  0  0  0  0  0  0  0  0  0  0
    1.0790  -30.8445  -13.6595 C   0  0  0  0  0  0  0  0  0  0  0  0
   -1.7197  -29.8552  -10.4555 C   0  0  0  0  0  0  0  0  0  0  0  0
   -0.4143  -31.3266  -17.1777 C   0  0  0  0  0  0  0  0  0  0  0  0
    2.8994  -31.5477  -12.4430 C   0  0  0  0  0  0  0  0  0  0  0  0
   -5.1150  -28.8500   -8.4746 C   0  0  0  0  0  0  0  0  0  0  0  0
    0.2627  -30.6846  -12.5517 C   0  0  0  0  0  0  0  0  0  0  0  0
   -1.1203  -29.6267   -6.6702 C   0  0  0  0  0  0  0  0  0  0  0  0
   -1.7730  -30.2208  -13.9600 C   0  0  0  0  0  0  0  0  0  0  0  0
    4.2493  -32.0418  -12.4397 C   0  0  0  0  0  0  0  0  0  0  0  0
    2.9374  -31.6472  -10.1141 O   0  0  0  0  0  0  0  0  0  0  0  0
    2.6865  -31.1502   -8.8670 C   0  0  0  0  0  0  0  0  0  0  0  0
   -1.5917  -29.5451   -7.9679 N   0  0  0  0  0  0  0  0  0  0  0  0
   -1.9403  -29.9160  -11.7327 C   0  0  0  0  0  0  0  0  0  0  0  0
   -1.5605  -30.5809  -15.3057 C   0  0  0  0  0  0  0  0  0  0  0  0
   -2.8639  -29.4868   -9.7930 C   0  0  0  0  0  0  0  0  0  0  0  0
   -1.6013  -31.3041  -17.9246 C   0  0  0  0  0  0  0  0  0  0  0  0
   -3.1117  -29.7248  -13.6336 C   0  0  0  0  0  0  0  0  0  0  0  0
   -2.2245  -29.0326   -5.7336 C   0  0  0  0  0  0  0  0  0  0  0  0
   -1.0736  -30.2913  -12.7407 C   0  0  0  0  0  0  0  0  0  0  0  0
   -2.6397  -30.2893  -16.1726 C   0  0  0  0  0  0  0  0  0  0  0  0
   -4.1803  -29.4497  -14.2341 O   0  0  0  0  0  0  0  0  0  0  0  0
   -3.7296  -29.2217   -6.2547 C   0  0  0  0  0  0  0  0  0  0  0  0
    2.3133  -31.2591  -13.6398 C   0  0  0  0  0  0  0  0  0  0  0  0
   -2.7999  -29.3819   -8.4465 C   0  0  0  0  0  0  0  0  0  0  0  0
   -3.2444  -29.5524  -12.1473 N   0  0  0  0  0  0  0  0  0  0  0  0
   -5.1338  -28.8962   -9.8917 C   0  0  0  0  0  0  0  0  0  0  0  0
   -0.5191  -31.1519  -15.8620 N   0  0  0  0  0  0  0  0  0  0  0  0
  1 22  1  0
  1 26  2  0
  2 21  2  0
  2 31  1  0
  2 32  1  0
  3 13  1  0
  4  6  2  0
  4 12  1  0
  5 11  2  0
  5 28  1  0
  5 30  1  0
  6 10  1  0
  6 16  1  0
  7 12  2  0
  7 29  1  0
  8 19  1  0
  8 21  1  0
  9 22  1  0
  9 33  1  0
 10 15  1  0
 10 29  2  0
 11 32  1  0
 12 25  1  0
 13 18  1  0
 13 24  1  0
 14 20  1  0
 14 23  1  0
 14 25  1  0
 16 17  1  0
 18 30  2  0
 19 25  2  0
 19 31  1  0
 20 26  1  0
 20 33  2  0
 21 30  1  0
 23 27  2  0
 23 31  1  0
 24 28  1  0
M  END
>  <ID>  (1) 
conformer_0

$$$$
