
     RDKit          3D

 30 34  0  0  0  0  0  0  0  0999 V2000
   -0.8539  -30.6890  -10.1101 C   0  0  0  0  0  0  0  0  0  0  0  0
   -2.6196  -29.7781  -13.1959 C   0  0  0  0  0  0  0  0  0  0  0  0
   -3.9017  -29.5189  -15.0639 N   0  0  0  0  0  0  0  0  0  0  0  0
   -0.5047  -30.7434  -15.1390 C   0  0  0  0  0  0  0  0  0  0  0  0
   -3.9437  -29.1038  -10.1370 N   0  0  0  0  0  0  0  0  0  0  0  0
    2.9800  -32.4070  -12.5295 C   0  0  0  0  0  0  0  0  0  0  0  0
   -5.3023  -29.7292   -6.8256 C   0  0  0  0  0  0  0  0  0  0  0  0
   -1.9647  -30.1531   -9.6680 N   0  0  0  0  0  0  0  0  0  0  0  0
    1.2159  -31.7249  -17.3986 O   0  0  0  0  0  0  0  0  0  0  0  0
   -4.6916  -29.0187   -9.0387 C   0  0  0  0  0  0  0  0  0  0  0  0
   -1.4757  -30.3239  -14.0212 C   0  0  0  0  0  0  0  0  0  0  0  0
    0.7657  -31.1621  -14.6877 C   0  0  0  0  0  0  0  0  0  0  0  0
    3.5141  -32.8230  -11.1104 C   0  0  0  0  0  0  0  0  0  0  0  0
    1.0547  -31.5147  -11.0692 C   0  0  0  0  0  0  0  0  0  0  0  0
   -6.3781  -28.8362   -6.8267 C   0  0  0  0  0  0  0  0  0  0  0  0
    0.7894  -31.2201  -13.3026 C   0  0  0  0  0  0  0  0  0  0  0  0
   -4.4608  -29.7788   -7.9210 C   0  0  0  0  0  0  0  0  0  0  0  0
   -2.1683  -30.3500  -16.7077 C   0  0  0  0  0  0  0  0  0  0  0  0
   -0.4200  -31.1169  -18.7392 O   0  0  0  0  0  0  0  0  0  0  0  0
   -2.7924  -29.9849  -15.5649 C   0  0  0  0  0  0  0  0  0  0  0  0
    0.0618  -31.2317  -17.5696 C   0  0  0  0  0  0  0  0  0  0  0  0
   -2.8593  -29.6602  -10.6014 C   0  0  0  0  0  0  0  0  0  0  0  0
   -0.8027  -30.8092  -16.5071 C   0  0  0  0  0  0  0  0  0  0  0  0
   -2.6161  -29.6905  -11.8707 N   0  0  0  0  0  0  0  0  0  0  0  0
   -3.8717  -29.3404  -13.7155 C   0  0  0  0  0  0  0  0  0  0  0  0
   -0.2964  -30.8758  -11.3598 C   0  0  0  0  0  0  0  0  0  0  0  0
   -0.4893  -30.7073  -12.7630 C   0  0  0  0  0  0  0  0  0  0  0  0
    1.6639  -31.7203  -12.3408 C   0  0  0  0  0  0  0  0  0  0  0  0
   -6.5975  -28.0350   -7.9524 C   0  0  0  0  0  0  0  0  0  0  0  0
   -5.7718  -28.1326   -9.0690 C   0  0  0  0  0  0  0  0  0  0  0  0
  1  8  1  0
  1 26  2  0
  2 11  2  0
  2 24  1  0
  2 25  1  0
  3 20  1  0
  3 25  1  0
  4 11  1  0
  4 12  1  0
  4 23  2  0
  5 10  2  3
  5 22  1  0
  6 13  1  0
  6 28  1  0
  7 15  1  0
  7 17  2  0
  8 22  2  0
  9 21  2  0
 10 17  1  0
 10 30  1  0
 11 27  1  0
 12 16  1  0
 14 26  1  0
 14 28  1  0
 15 29  1  0
 16 27  1  0
 16 28  2  0
 18 20  1  0
 18 23  1  0
 19 21  1  0
 21 23  1  0
 22 24  1  0
 26 27  1  0
 29 30  2  0
M  END
>  <ID>  (1) 
conformer_0

$$$$
