
     RDKit          3D

 36 43  0  0  0  0  0  0  0  0999 V2000
   -0.1412  -30.9054  -11.3984 C   0  0  0  0  0  0  0  0  0  0  0  0
    1.2174  -31.3404  -15.9360 C   0  0  0  0  0  0  0  0  0  0  0  0
   -4.0250  -29.1534  -13.4128 C   0  0  0  0  0  0  0  0  0  0  0  0
    0.7411  -31.3635  -10.4951 C   0  0  0  0  0  0  0  0  0  0  0  0
   -4.1150  -29.8961  -14.5364 N   0  0  0  0  0  0  0  0  0  0  0  0
   -2.4444  -30.2501   -7.4994 C   0  0  0  0  0  0  0  0  0  0  0  0
    2.1248  -31.3568  -17.0085 C   0  0  0  0  0  0  0  0  0  0  0  0
   -5.1421  -29.2770   -7.5516 C   0  0  0  0  0  0  0  0  0  0  0  0
   -1.9864  -30.0329  -12.4457 N   0  0  0  0  0  0  0  0  0  0  0  0
   -4.6337  -29.0760  -10.1735 C   0  0  0  0  0  0  0  0  0  0  0  0
   -3.1649  -29.9754   -6.0737 C   0  0  0  0  0  0  0  0  0  0  0  0
    3.1561  -32.0817  -14.6608 C   0  0  0  0  0  0  0  0  0  0  0  0
   -5.0666  -29.7322   -4.9959 O   0  0  0  0  0  0  0  0  0  0  0  0
    1.3458  -31.3974  -13.2541 C   0  0  0  0  0  0  0  0  0  0  0  0
    1.8225  -31.5985  -14.6291 C   0  0  0  0  0  0  0  0  0  0  0  0
    3.4439  -31.7019  -16.9099 C   0  0  0  0  0  0  0  0  0  0  0  0
   -1.4477  -30.3154  -11.1916 C   0  0  0  0  0  0  0  0  0  0  0  0
   -2.4953  -29.9445  -10.2216 C   0  0  0  0  0  0  0  0  0  0  0  0
   -1.2857  -30.6967  -15.7039 N   0  0  0  0  0  0  0  0  0  0  0  0
   -3.1979  -29.5346  -12.3529 C   0  0  0  0  0  0  0  0  0  0  0  0
   -1.6394  -31.0970  -18.3602 C   0  0  0  0  0  0  0  0  0  0  0  0
   -2.5141  -30.5137  -16.2482 C   0  0  0  0  0  0  0  0  0  0  0  0
   -3.6089  -29.7019  -15.7792 C   0  0  0  0  0  0  0  0  0  0  0  0
   -4.2859  -29.3620   -8.8514 C   0  0  0  0  0  0  0  0  0  0  0  0
    4.3056  -31.6364  -17.9406 N   0  0  0  0  0  0  0  0  0  0  0  0
   -3.6300  -29.9086   -4.4623 C   0  0  0  0  0  0  0  0  0  0  0  0
    0.2376  -30.9408  -12.7473 C   0  0  0  0  0  0  0  0  0  0  0  0
   -3.0180  -29.8624   -8.8620 N   0  0  0  0  0  0  0  0  0  0  0  0
   -3.5611  -29.4522  -10.9988 C   0  0  0  0  0  0  0  0  0  0  0  0
    1.9532  -31.8186  -10.9341 C   0  0  0  0  0  0  0  0  0  0  0  0
   -4.7225  -30.2074   -6.3809 C   0  0  0  0  0  0  0  0  0  0  0  0
   -0.2298  -31.1551  -16.3805 C   0  0  0  0  0  0  0  0  0  0  0  0
   -2.7197  -31.3172  -17.4356 C   0  0  0  0  0  0  0  0  0  0  0  0
   -0.3645  -31.1421  -17.8086 C   0  0  0  0  0  0  0  0  0  0  0  0
    2.1849  -31.7911  -12.2433 C   0  0  0  0  0  0  0  0  0  0  0  0
    3.9563  -32.1651  -15.7093 C   0  0  0  0  0  0  0  0  0  0  0  0
  1  4  2  0
  1 17  1  0
  1 27  1  0
  2  7  1  0
  2 15  1  0
  2 32  1  0
  3  5  1  0
  3 20  1  0
  4 30  1  0
  5 23  1  0
  6 11  1  0
  6 28  1  0
  7 16  2  0
  8 24  1  0
  8 31  1  0
  9 17  1  0
  9 20  1  0
 10 24  1  0
 10 29  1  0
 11 26  1  0
 11 31  1  0
 12 15  1  0
 12 36  2  0
 13 26  1  0
 13 31  1  0
 14 15  1  0
 14 27  2  0
 14 35  1  0
 16 25  1  0
 16 36  1  0
 17 18  2  0
 18 28  1  0
 18 29  1  0
 19 22  1  0
 19 32  2  0
 20 29  2  0
 21 33  1  0
 21 34  2  0
 22 23  1  0
 22 33  1  0
 24 28  1  0
 30 35  2  0
 32 34  1  0
M  END
>  <ID>  (1) 
conformer_0

$$$$
