
     RDKit          3D

 46 53  0  0  0  0  0  0  0  0999 V2000
   -2.9805  -29.8865   -9.7947 C   0  0  0  0  0  0  0  0  0  0  0  0
   -7.0565  -29.3532   -5.4810 O   0  0  0  0  0  0  0  0  0  0  0  0
    0.0081  -31.1169  -16.6044 C   0  0  0  0  0  0  0  0  0  0  0  0
    0.7613  -31.1614  -12.3683 C   0  0  0  0  0  0  0  0  0  0  0  0
   -5.2512  -27.9757   -5.3650 O   0  0  0  0  0  0  0  0  0  0  0  0
    6.1897  -31.6463  -15.7633 C   0  0  0  0  0  0  0  0  0  0  0  0
   -1.8968  -31.2663  -17.9979 C   0  0  0  0  0  0  0  0  0  0  0  0
   -0.7893  -30.9599  -15.4643 C   0  0  0  0  0  0  0  0  0  0  0  0
    3.7715  -31.5173  -15.2292 C   0  0  0  0  0  0  0  0  0  0  0  0
   -6.5270  -26.0686   -8.2042 C   0  0  0  0  0  0  0  0  0  0  0  0
   -5.1011  -28.9285   -9.4513 C   0  0  0  0  0  0  0  0  0  0  0  0
    0.2914  -31.1876   -9.9650 N   0  0  0  0  0  0  0  0  0  0  0  0
   -5.9723  -27.8615   -9.7176 O   0  0  0  0  0  0  0  0  0  0  0  0
   -2.6420  -30.7241  -16.9338 N   0  0  0  0  0  0  0  0  0  0  0  0
   -4.8001  -29.3784   -8.0294 C   0  0  0  0  0  0  0  0  0  0  0  0
   -2.0461  -30.0738  -11.9974 C   0  0  0  0  0  0  0  0  0  0  0  0
   -3.4341  -29.5486  -14.0291 C   0  0  0  0  0  0  0  0  0  0  0  0
    2.2198  -31.6351  -10.6651 C   0  0  0  0  0  0  0  0  0  0  0  0
    4.8025  -31.5084  -16.1490 C   0  0  0  0  0  0  0  0  0  0  0  0
    5.4398  -31.7883  -13.4832 C   0  0  0  0  0  0  0  0  0  0  0  0
   -6.4992  -25.3349   -9.4944 C   0  0  0  0  0  0  0  0  0  0  0  0
    1.3863  -31.2726  -14.7213 C   0  0  0  0  0  0  0  0  0  0  0  0
   -4.0613  -29.1804  -10.3860 C   0  0  0  0  0  0  0  0  0  0  0  0
   -5.0192  -30.5181   -7.0268 O   0  0  0  0  0  0  0  0  0  0  0  0
    1.0022  -31.3028  -11.0619 C   0  0  0  0  0  0  0  0  0  0  0  0
    3.2631  -31.7748  -11.4934 C   0  0  0  0  0  0  0  0  0  0  0  0
    2.4307  -31.4174  -15.5984 N   0  0  0  0  0  0  0  0  0  0  0  0
   -3.2836  -29.6361  -12.5601 C   0  0  0  0  0  0  0  0  0  0  0  0
   -3.6431  -28.5245  -14.5757 O   0  0  0  0  0  0  0  0  0  0  0  0
    4.0870  -31.6460  -13.8527 C   0  0  0  0  0  0  0  0  0  0  0  0
   -2.4819  -30.6408   -7.6325 O   0  0  0  0  0  0  0  0  0  0  0  0
    6.5054  -31.8000  -14.3950 C   0  0  0  0  0  0  0  0  0  0  0  0
   -6.1826  -28.5702   -5.9466 C   0  0  0  0  0  0  0  0  0  0  0  0
   -3.3329  -29.9825   -8.3980 C   0  0  0  0  0  0  0  0  0  0  0  0
   -6.7286  -27.5442   -8.4824 C   0  0  0  0  0  0  0  0  0  0  0  0
   -7.4348  -25.6783   -7.0799 C   0  0  0  0  0  0  0  0  0  0  0  0
   -3.1420  -30.7052  -14.6813 N   0  0  0  0  0  0  0  0  0  0  0  0
   -4.3029  -29.0622  -11.7293 C   0  0  0  0  0  0  0  0  0  0  0  0
   -2.2039  -30.7678  -15.6615 C   0  0  0  0  0  0  0  0  0  0  0  0
    1.7496  -31.3437  -13.3135 C   0  0  0  0  0  0  0  0  0  0  0  0
    0.0441  -31.0355  -14.3923 N   0  0  0  0  0  0  0  0  0  0  0  0
   -6.1169  -28.5053   -7.4369 C   0  0  0  0  0  0  0  0  0  0  0  0
   -0.4832  -31.0836  -17.9000 C   0  0  0  0  0  0  0  0  0  0  0  0
   -1.8631  -30.1442  -10.5879 C   0  0  0  0  0  0  0  0  0  0  0  0
    3.0721  -31.6039  -12.8693 C   0  0  0  0  0  0  0  0  0  0  0  0
    1.3913  -31.3415  -16.2102 C   0  0  0  0  0  0  0  0  0  0  0  0
  1 23  1  0
  1 34  2  0
  1 44  1  0
  2 33  2  0
  3  8  1  0
  3 43  1  0
  3 46  1  0
  4 25  1  0
  4 40  2  0
  5 33  1  0
  6 19  1  0
  6 32  1  0
  7 14  1  0
  7 43  1  0
  8 39  2  0
  8 41  1  0
  9 19  2  0
  9 27  1  0
  9 30  1  0
 10 21  1  0
 10 35  1  0
 10 36  1  0
 11 13  1  0
 11 15  1  0
 11 23  1  0
 12 25  2  0
 13 35  1  0
 14 39  1  0
 15 24  1  0
 15 34  1  0
 15 42  1  0
 16 28  1  0
 16 44  2  0
 17 28  1  0
 17 29  2  0
 17 37  1  0
 18 25  1  0
 18 26  2  0
 20 30  1  0
 20 32  2  0
 22 27  1  0
 22 40  1  0
 22 41  2  0
 23 38  1  0
 26 45  1  0
 27 46  1  0
 28 38  1  0
 30 45  2  0
 31 34  1  0
 33 42  1  0
 35 42  1  0
 37 39  1  0
 40 45  1  0
M  END
>  <ID>  (1) 
conformer_0

$$$$
