
     RDKit          3D

 31 36  0  0  0  0  0  0  0  0999 V2000
   -1.1024  -30.5862  -15.4625 C   0  0  0  0  0  0  0  0  0  0  0  0
   -6.2896  -28.2684  -10.0082 F   0  0  0  0  0  0  0  0  0  0  0  0
   -1.1585  -30.3168   -9.3974 N   0  0  0  0  0  0  0  0  0  0  0  0
    1.1367  -31.3963   -9.4393 N   0  0  0  0  0  0  0  0  0  0  0  0
    0.0865  -30.8719  -11.4251 C   0  0  0  0  0  0  0  0  0  0  0  0
    0.1805  -30.9829  -15.7545 C   0  0  0  0  0  0  0  0  0  0  0  0
   -4.4444  -30.3318   -5.9099 C   0  0  0  0  0  0  0  0  0  0  0  0
   -3.0423  -30.6791   -6.2331 O   0  0  0  0  0  0  0  0  0  0  0  0
    0.5237  -31.1476  -17.0612 C   0  0  0  0  0  0  0  0  0  0  0  0
   -1.1635  -30.5313   -7.8819 C   0  0  0  0  0  0  0  0  0  0  0  0
   -2.5284  -30.2021   -7.4359 N   0  0  0  0  0  0  0  0  0  0  0  0
   -2.3214  -29.8762  -12.1428 C   0  0  0  0  0  0  0  0  0  0  0  0
   -1.6429  -30.2600  -14.2728 N   0  0  0  0  0  0  0  0  0  0  0  0
    1.1035  -31.3889  -12.1476 N   0  0  0  0  0  0  0  0  0  0  0  0
   -2.0156  -30.5372  -16.5190 C   0  0  0  0  0  0  0  0  0  0  0  0
   -2.5127  -29.8606   -9.7063 C   0  0  0  0  0  0  0  0  0  0  0  0
   -4.3244  -29.0120  -11.0390 C   0  0  0  0  0  0  0  0  0  0  0  0
   -4.5112  -29.1295   -8.6489 C   0  0  0  0  0  0  0  0  0  0  0  0
   -2.6436  -29.8711  -13.5449 C   0  0  0  0  0  0  0  0  0  0  0  0
   -3.3190  -30.2200  -16.1804 C   0  0  0  0  0  0  0  0  0  0  0  0
   -1.6732  -30.7734  -17.8175 C   0  0  0  0  0  0  0  0  0  0  0  0
   -3.0804  -29.5665  -10.9877 C   0  0  0  0  0  0  0  0  0  0  0  0
   -0.4204  -31.0758  -18.0420 N   0  0  0  0  0  0  0  0  0  0  0  0
   -5.0551  -28.7867   -9.8798 C   0  0  0  0  0  0  0  0  0  0  0  0
   -4.1237  -29.7143  -15.2992 N   0  0  0  0  0  0  0  0  0  0  0  0
    2.1331  -31.9770  -11.5444 C   0  0  0  0  0  0  0  0  0  0  0  0
   -3.2603  -29.7085   -8.5523 C   0  0  0  0  0  0  0  0  0  0  0  0
    2.1274  -31.9543  -10.1748 C   0  0  0  0  0  0  0  0  0  0  0  0
    0.0577  -30.8666  -10.0192 C   0  0  0  0  0  0  0  0  0  0  0  0
   -1.0004  -30.2695  -12.0173 C   0  0  0  0  0  0  0  0  0  0  0  0
   -3.8936  -29.5512  -13.9897 N   0  0  0  0  0  0  0  0  0  0  0  0
  1  6  2  0
  1 13  1  0
  1 15  1  0
  2 24  1  0
  3 10  1  0
  3 16  1  0
  3 29  1  0
  4 28  1  0
  4 29  2  0
  5 14  1  0
  5 29  1  0
  5 30  2  0
  6  9  1  0
  7  8  1  0
  8 11  1  0
  9 23  1  0
 10 11  1  0
 11 27  1  0
 12 19  1  0
 12 22  1  0
 12 30  2  0
 13 19  2  0
 14 26  2  0
 15 20  1  0
 15 21  1  0
 16 22  2  0
 16 27  1  0
 17 22  1  0
 17 24  2  0
 18 24  1  0
 18 27  2  0
 19 31  1  0
 20 25  1  0
 21 23  2  0
 25 31  2  0
 26 28  1  0
M  END
>  <ID>  (1) 
conformer_0

$$$$
