
     RDKit          3D

 46 56  0  0  0  0  0  0  0  0999 V2000
   -1.1442  -30.5459   -8.2697 C   0  0  0  0  0  0  0  0  0  0  0  0
   -1.1934  -30.4258  -11.9825 C   0  0  0  0  0  0  0  0  0  0  0  0
   -4.4144  -28.9432   -8.8578 C   0  0  0  0  0  0  0  0  0  0  0  0
   -7.0816  -24.5579   -7.8425 C   0  0  0  0  0  0  0  0  0  0  0  0
   -2.8786  -29.6896  -10.3861 C   0  0  0  0  0  0  0  0  0  0  0  0
   -1.1902  -30.6239  -15.1514 C   0  0  0  0  0  0  0  0  0  0  0  0
   -6.0449  -26.8621   -8.7851 C   0  0  0  0  0  0  0  0  0  0  0  0
   -2.1636  -30.0356  -12.9017 C   0  0  0  0  0  0  0  0  0  0  0  0
   -3.1913  -29.5565   -8.9955 C   0  0  0  0  0  0  0  0  0  0  0  0
   -5.9301  -27.5287  -10.0731 C   0  0  0  0  0  0  0  0  0  0  0  0
   -9.1612  -25.6456   -7.3393 C   0  0  0  0  0  0  0  0  0  0  0  0
   -3.4129  -29.8535  -14.8331 C   0  0  0  0  0  0  0  0  0  0  0  0
   -1.0557  -31.0279  -17.5592 C   0  0  0  0  0  0  0  0  0  0  0  0
    0.3876  -31.0757  -17.3584 C   0  0  0  0  0  0  0  0  0  0  0  0
    0.8565  -31.5705  -11.2245 C   0  0  0  0  0  0  0  0  0  0  0  0
   -1.8234  -30.7280  -16.4333 C   0  0  0  0  0  0  0  0  0  0  0  0
    1.3206  -31.8027   -8.8754 C   0  0  0  0  0  0  0  0  0  0  0  0
   -7.6631  -23.3364   -7.5336 C   0  0  0  0  0  0  0  0  0  0  0  0
   -2.3958  -29.9514   -7.9514 C   0  0  0  0  0  0  0  0  0  0  0  0
   -7.3052  -27.0717   -8.0784 C   0  0  0  0  0  0  0  0  0  0  0  0
    0.3448  -31.4665   -9.9116 C   0  0  0  0  0  0  0  0  0  0  0  0
   -4.9463  -28.9173   -7.5721 C   0  0  0  0  0  0  0  0  0  0  0  0
   -2.8089  -30.8821   -4.4045 C   0  0  0  0  0  0  0  0  0  0  0  0
    3.0743  -31.4917  -17.1818 C   0  0  0  0  0  0  0  0  0  0  0  0
   -3.4369  -29.5531  -12.4737 C   0  0  0  0  0  0  0  0  0  0  0  0
   -4.1913  -29.4636  -13.5812 N   0  0  0  0  0  0  0  0  0  0  0  0
   -1.6492  -30.2610  -10.6693 N   0  0  0  0  0  0  0  0  0  0  0  0
   -4.8565  -28.5522  -10.1128 C   0  0  0  0  0  0  0  0  0  0  0  0
   -2.1582  -29.7924   -5.3013 C   0  0  0  0  0  0  0  0  0  0  0  0
   -8.9727  -23.2926   -7.1214 C   0  0  0  0  0  0  0  0  0  0  0  0
   -3.0936  -30.2652  -16.2204 N   0  0  0  0  0  0  0  0  0  0  0  0
    2.5123  -31.2916  -18.4106 C   0  0  0  0  0  0  0  0  0  0  0  0
   -2.4215  -28.4958   -4.4458 C   0  0  0  0  0  0  0  0  0  0  0  0
    2.3040  -31.4135  -16.0304 C   0  0  0  0  0  0  0  0  0  0  0  0
    0.1942  -30.8853  -14.8822 C   0  0  0  0  0  0  0  0  0  0  0  0
    1.1711  -31.0961  -18.5185 C   0  0  0  0  0  0  0  0  0  0  0  0
   -7.8664  -25.7017   -7.7315 C   0  0  0  0  0  0  0  0  0  0  0  0
   -2.8772  -29.7325   -6.6069 C   0  0  0  0  0  0  0  0  0  0  0  0
   -4.2236  -29.3141   -6.4790 C   0  0  0  0  0  0  0  0  0  0  0  0
   -3.9245  -29.1587  -11.1741 N   0  0  0  0  0  0  0  0  0  0  0  0
    0.0998  -30.8969  -12.2655 C   0  0  0  0  0  0  0  0  0  0  0  0
   -9.7152  -24.4431   -7.0183 C   0  0  0  0  0  0  0  0  0  0  0  0
   -0.8071  -30.6976   -9.6365 C   0  0  0  0  0  0  0  0  0  0  0  0
   -2.1283  -30.1307  -14.2577 C   0  0  0  0  0  0  0  0  0  0  0  0
    0.9597  -31.1283  -16.0820 C   0  0  0  0  0  0  0  0  0  0  0  0
    0.7150  -30.8871  -13.5655 C   0  0  0  0  0  0  0  0  0  0  0  0
  1 19  1  0
  1 43  1  0
  2  8  1  0
  2 27  1  0
  2 41  1  0
  3  9  1  0
  3 22  1  0
  3 28  1  0
  4 18  2  0
  4 37  1  0
  5  9  1  0
  5 27  1  0
  5 40  1  0
  6 16  1  0
  6 35  2  0
  6 44  1  0
  7 10  1  0
  7 20  1  0
  8 25  2  0
  8 44  1  0
  9 19  2  0
 10 28  1  0
 11 37  2  0
 11 42  1  0
 12 26  1  0
 12 31  1  0
 12 44  2  0
 13 14  1  0
 13 16  1  0
 14 36  1  0
 14 45  2  0
 15 21  1  0
 15 41  2  0
 16 31  2  0
 17 21  1  0
 18 30  1  0
 19 38  1  0
 20 37  1  0
 21 43  2  0
 22 39  2  0
 23 29  1  0
 24 32  1  0
 24 34  2  0
 25 26  1  0
 25 40  1  0
 27 43  1  0
 28 40  1  0
 29 33  1  0
 29 38  1  0
 30 42  2  0
 32 36  2  0
 34 45  1  0
 35 45  1  0
 35 46  1  0
 38 39  1  0
 41 46  1  0
M  END
>  <ID>  (1) 
conformer_0

$$$$
