
     RDKit          3D

 26 29  0  0  0  0  0  0  0  0999 V2000
    1.4344  -31.2851  -11.7304 C   0  0  0  0  0  0  0  0  0  0  0  0
   -3.7040  -29.6257  -14.6292 C   0  0  0  0  0  0  0  0  0  0  0  0
   -3.9505  -29.4857  -10.0436 C   0  0  0  0  0  0  0  0  0  0  0  0
   -2.8570  -29.7776  -13.5893 N   0  0  0  0  0  0  0  0  0  0  0  0
    1.0593  -32.2443  -14.8613 C   0  0  0  0  0  0  0  0  0  0  0  0
   -1.2110  -30.6637  -15.1445 C   0  0  0  0  0  0  0  0  0  0  0  0
   -3.4167  -29.9954  -15.8716 N   0  0  0  0  0  0  0  0  0  0  0  0
   -0.2305  -30.7667  -17.6750 C   0  0  0  0  0  0  0  0  0  0  0  0
   -2.9280  -29.6687  -12.1821 C   0  0  0  0  0  0  0  0  0  0  0  0
   -0.7161  -32.0696  -17.4300 O   0  0  0  0  0  0  0  0  0  0  0  0
   -2.7028  -30.1076   -8.0779 O   0  0  0  0  0  0  0  0  0  0  0  0
   -0.7872  -30.2223  -12.7134 N   0  0  0  0  0  0  0  0  0  0  0  0
    2.4240  -31.9748  -14.3049 C   0  0  0  0  0  0  0  0  0  0  0  0
   -1.6150  -30.1008  -10.2372 C   0  0  0  0  0  0  0  0  0  0  0  0
    0.0829  -31.2928  -15.2226 N   0  0  0  0  0  0  0  0  0  0  0  0
    2.9919  -32.6541  -13.1134 C   0  0  0  0  0  0  0  0  0  0  0  0
    2.9776  -31.6805  -11.8559 C   0  0  0  0  0  0  0  0  0  0  0  0
   -2.1662  -30.5212  -16.1636 C   0  0  0  0  0  0  0  0  0  0  0  0
   -2.7639  -29.9055   -9.3899 C   0  0  0  0  0  0  0  0  0  0  0  0
   -4.0093  -29.3592  -11.4308 C   0  0  0  0  0  0  0  0  0  0  0  0
   -1.6644  -31.0186  -17.4976 C   0  0  0  0  0  0  0  0  0  0  0  0
   -1.5706  -30.2138  -13.8786 C   0  0  0  0  0  0  0  0  0  0  0  0
    3.2002  -31.1699  -15.1064 O   0  0  0  0  0  0  0  0  0  0  0  0
   -1.6892  -29.9960  -11.6101 C   0  0  0  0  0  0  0  0  0  0  0  0
    0.6326  -30.4374  -12.7114 C   0  0  0  0  0  0  0  0  0  0  0  0
   -3.8395  -30.5848   -7.2937 C   0  0  0  0  0  0  0  0  0  0  0  0
  1 17  1  0
  1 25  2  0
  2  4  1  0
  2  7  2  0
  3 19  2  0
  3 20  1  0
  4  9  1  0
  4 22  1  0
  5 13  1  0
  5 15  1  0
  6 15  1  0
  6 18  2  0
  6 22  1  0
  7 18  1  0
  8 10  1  0
  8 21  1  0
  9 20  2  0
  9 24  1  0
 11 19  1  0
 11 26  1  0
 12 22  1  0
 12 24  1  0
 12 25  1  0
 13 16  1  0
 13 23  1  0
 14 19  1  0
 14 24  2  0
 16 17  1  0
 18 21  1  0
M  END
>  <ID>  (1) 
conformer_0

$$$$
