
     RDKit          3D

 28 33  0  0  0  0  0  0  0  0999 V2000
   -4.8250  -29.3433   -8.9200 C   0  0  0  0  0  0  0  0  0  0  0  0
   -1.5147  -30.5276   -9.8093 P   0  0  0  0  0  0  0  0  0  0  0  0
   -3.3691  -29.6363  -13.2592 C   0  0  0  0  0  0  0  0  0  0  0  0
   -3.6922  -29.7131   -9.5395 C   0  0  0  0  0  0  0  0  0  0  0  0
   -1.6487  -30.2436  -12.7869 C   0  0  0  0  0  0  0  0  0  0  0  0
    0.6726  -31.0295  -13.6659 C   0  0  0  0  0  0  0  0  0  0  0  0
   -0.1030  -30.6585  -12.4455 C   0  0  0  0  0  0  0  0  0  0  0  0
   -3.3256  -29.6193  -10.9251 C   0  0  0  0  0  0  0  0  0  0  0  0
   -4.9884  -29.6776   -7.5888 C   0  0  0  0  0  0  0  0  0  0  0  0
   -3.9808  -30.3946   -6.9326 C   0  0  0  0  0  0  0  0  0  0  0  0
   -2.7966  -30.7092   -7.5612 N   0  0  0  0  0  0  0  0  0  0  0  0
   -1.5164  -30.7263  -16.5653 N   0  0  0  0  0  0  0  0  0  0  0  0
   -2.0255  -30.1355  -11.2146 C   0  0  0  0  0  0  0  0  0  0  0  0
    3.1083  -32.1122  -11.5049 C   0  0  0  0  0  0  0  0  0  0  0  0
    2.0209  -31.3028   -9.4711 C   0  0  0  0  0  0  0  0  0  0  0  0
   -1.8414  -30.8830  -17.8892 C   0  0  0  0  0  0  0  0  0  0  0  0
   -0.2196  -30.8584  -14.7101 C   0  0  0  0  0  0  0  0  0  0  0  0
    2.8154  -32.2238  -12.9967 C   0  0  0  0  0  0  0  0  0  0  0  0
   -4.0476  -29.5311  -14.4156 N   0  0  0  0  0  0  0  0  0  0  0  0
   -3.5565  -29.8901  -15.5638 N   0  0  0  0  0  0  0  0  0  0  0  0
   -3.9859  -29.2948  -12.0641 C   0  0  0  0  0  0  0  0  0  0  0  0
    0.6731  -30.7837  -11.2881 C   0  0  0  0  0  0  0  0  0  0  0  0
    1.9179  -31.3851  -10.9598 N   0  0  0  0  0  0  0  0  0  0  0  0
    2.0786  -31.0016  -13.4968 C   0  0  0  0  0  0  0  0  0  0  0  0
   -2.6389  -30.3383   -8.8522 C   0  0  0  0  0  0  0  0  0  0  0  0
   -0.2130  -31.0503  -16.0916 C   0  0  0  0  0  0  0  0  0  0  0  0
   -1.5651  -30.3927  -14.2964 N   0  0  0  0  0  0  0  0  0  0  0  0
   -2.2600  -30.3196  -15.4894 C   0  0  0  0  0  0  0  0  0  0  0  0
  1  4  2  0
  1  9  1  0
  2 13  1  0
  2 25  1  0
  3 19  2  0
  3 21  1  0
  4  8  1  0
  4 25  1  0
  5  7  1  0
  5 13  1  0
  5 27  1  0
  6  7  1  0
  6 17  1  0
  6 24  1  0
  7 22  2  0
  8 13  1  0
  8 21  2  0
  9 10  2  0
 10 11  1  0
 11 25  2  0
 12 16  1  0
 12 26  1  0
 12 28  1  0
 14 18  1  0
 14 23  1  0
 15 23  1  0
 17 26  1  0
 17 27  1  0
 18 24  1  0
 19 20  1  0
 20 28  2  0
 22 23  1  0
 27 28  1  0
M  END
>  <ID>  (1) 
conformer_0

$$$$
