
     RDKit          3D

 36 38  0  0  0  0  0  0  0  0999 V2000
   -1.0907  -30.7952   -6.6686 C   0  0  0  0  0  0  0  0  0  0  0  0
    1.7676  -31.2763  -17.0422 O   0  0  0  0  0  0  0  0  0  0  0  0
   -4.0291  -30.4363  -16.0533 N   0  0  0  0  0  0  0  0  0  0  0  0
    0.9446  -31.1987  -13.9138 C   0  0  0  0  0  0  0  0  0  0  0  0
   -0.0977  -30.6088   -9.5454 N   0  0  0  0  0  0  0  0  0  0  0  0
   -7.2048  -27.5142   -8.6491 O   0  0  0  0  0  0  0  0  0  0  0  0
   -4.5477  -28.8249  -14.1625 O   0  0  0  0  0  0  0  0  0  0  0  0
   -2.2436  -30.0036  -10.5976 N   0  0  0  0  0  0  0  0  0  0  0  0
   -3.0110  -29.8139  -13.0048 N   0  0  0  0  0  0  0  0  0  0  0  0
   -0.7264  -31.6480  -17.2457 C   0  0  0  0  0  0  0  0  0  0  0  0
    3.3840  -31.3110  -14.5148 C   0  0  0  0  0  0  0  0  0  0  0  0
   -5.4822  -28.3280   -9.9825 C   0  0  0  0  0  0  0  0  0  0  0  0
   -3.3691  -29.6060   -9.6721 C   0  0  0  0  0  0  0  0  0  0  0  0
   -0.8397  -31.2178   -5.2306 C   0  0  0  0  0  0  0  0  0  0  0  0
    1.8405  -31.6928  -11.5489 C   0  0  0  0  0  0  0  0  0  0  0  0
   -2.6932  -29.8107  -11.8565 C   0  0  0  0  0  0  0  0  0  0  0  0
    1.3021  -30.8830   -6.3694 C   0  0  0  0  0  0  0  0  0  0  0  0
   -4.4400  -29.5022   -7.4891 C   0  0  0  0  0  0  0  0  0  0  0  0
   -5.5347  -28.7768   -7.5949 C   0  0  0  0  0  0  0  0  0  0  0  0
    2.0052  -31.7632  -14.7198 C   0  0  0  0  0  0  0  0  0  0  0  0
   -3.4531  -29.9110   -8.3527 C   0  0  0  0  0  0  0  0  0  0  0  0
    0.2300  -30.8464   -7.3124 N   0  0  0  0  0  0  0  0  0  0  0  0
   -0.8084  -30.4886  -10.6387 C   0  0  0  0  0  0  0  0  0  0  0  0
    2.9930  -32.1905  -11.3960 C   0  0  0  0  0  0  0  0  0  0  0  0
   -6.1255  -28.1683   -8.7260 C   0  0  0  0  0  0  0  0  0  0  0  0
   -3.5087  -29.4552  -14.1280 C   0  0  0  0  0  0  0  0  0  0  0  0
   -3.0501  -30.1111  -15.4061 C   0  0  0  0  0  0  0  0  0  0  0  0
    0.6295  -30.9763   -4.9968 C   0  0  0  0  0  0  0  0  0  0  0  0
    0.8083  -31.1746  -12.4622 C   0  0  0  0  0  0  0  0  0  0  0  0
   -4.3876  -28.9230  -10.2264 C   0  0  0  0  0  0  0  0  0  0  0  0
    1.6627  -32.2665  -15.9813 O   0  0  0  0  0  0  0  0  0  0  0  0
   -1.9759  -30.7835  -17.3784 C   0  0  0  0  0  0  0  0  0  0  0  0
    0.5491  -31.3149   -8.6454 C   0  0  0  0  0  0  0  0  0  0  0  0
   -1.9925  -29.9247  -16.2050 N   0  0  0  0  0  0  0  0  0  0  0  0
   -0.2990  -30.6921  -11.8468 N   0  0  0  0  0  0  0  0  0  0  0  0
    0.4517  -30.7112  -17.4530 C   0  0  0  0  0  0  0  0  0  0  0  0
  1 14  1  0
  1 22  1  0
  2 31  1  0
  2 36  1  0
  3 27  2  0
  4 20  1  0
  4 29  2  0
  5 23  1  0
  5 33  1  0
  6 25  2  0
  7 26  2  0
  8 13  1  0
  8 16  1  0
  8 23  1  0
  9 16  1  0
  9 26  1  0
 10 32  1  0
 10 36  1  0
 11 20  1  0
 12 25  1  0
 12 30  2  0
 13 21  2  0
 13 30  1  0
 14 28  1  0
 15 24  2  0
 15 29  1  0
 17 22  1  0
 17 28  1  0
 18 19  2  0
 18 21  1  0
 19 25  1  0
 20 31  1  0
 22 33  1  0
 23 35  2  0
 26 27  1  0
 27 34  1  0
 29 35  1  0
 32 34  1  0
M  END
>  <ID>  (1) 
conformer_0

$$$$
