
     RDKit          3D

 28 32  0  0  0  0  0  0  0  0999 V2000
   -2.5747  -30.3167  -16.2192 N   0  0  0  0  0  0  0  0  0  0  0  0
   -3.3124  -29.6487  -10.2210 C   0  0  0  0  0  0  0  0  0  0  0  0
   -3.7393  -29.2531  -11.6910 C   0  0  0  0  0  0  0  0  0  0  0  0
    1.6149  -32.3818  -11.9997 C   0  0  0  0  0  0  0  0  0  0  0  0
   -1.4893  -30.1314  -11.5817 C   0  0  0  0  0  0  0  0  0  0  0  0
    2.1737  -31.4596  -15.6862 C   0  0  0  0  0  0  0  0  0  0  0  0
   -0.1519  -31.0346   -9.1777 O   0  0  0  0  0  0  0  0  0  0  0  0
   -2.5076  -29.7077  -12.5425 C   0  0  0  0  0  0  0  0  0  0  0  0
   -1.3999  -30.6023   -9.1433 C   0  0  0  0  0  0  0  0  0  0  0  0
   -0.2853  -31.3483  -16.6125 C   0  0  0  0  0  0  0  0  0  0  0  0
   -2.0661  -30.1231  -10.2445 C   0  0  0  0  0  0  0  0  0  0  0  0
   -5.0749  -28.6663  -11.2915 C   0  0  0  0  0  0  0  0  0  0  0  0
   -1.7171  -31.4750  -16.3130 C   0  0  0  0  0  0  0  0  0  0  0  0
   -3.0684  -29.8989  -14.9864 C   0  0  0  0  0  0  0  0  0  0  0  0
   -0.2187  -30.5573  -11.6199 N   0  0  0  0  0  0  0  0  0  0  0  0
   -3.3165  -30.1576   -7.8562 C   0  0  0  0  0  0  0  0  0  0  0  0
    3.8264  -31.7223  -12.9632 O   0  0  0  0  0  0  0  0  0  0  0  0
    0.5306  -31.4673  -12.3065 C   0  0  0  0  0  0  0  0  0  0  0  0
    2.5762  -32.3517  -13.1889 C   0  0  0  0  0  0  0  0  0  0  0  0
   -0.6114  -30.3753  -14.1531 C   0  0  0  0  0  0  0  0  0  0  0  0
    1.1763  -31.5248  -16.7959 C   0  0  0  0  0  0  0  0  0  0  0  0
   -2.0502  -30.6486   -7.9360 C   0  0  0  0  0  0  0  0  0  0  0  0
   -3.9709  -29.6206   -8.9616 C   0  0  0  0  0  0  0  0  0  0  0  0
    0.7191  -30.9611  -13.7176 C   0  0  0  0  0  0  0  0  0  0  0  0
   -1.0663  -31.3249  -18.0180 S   0  0  0  0  0  0  0  0  0  0  0  0
   -4.2458  -29.5237  -14.8978 O   0  0  0  0  0  0  0  0  0  0  0  0
   -2.0922  -30.0583  -13.9396 C   0  0  0  0  0  0  0  0  0  0  0  0
    1.8334  -31.6827  -14.2716 C   0  0  0  0  0  0  0  0  0  0  0  0
  1 13  1  0
  1 14  1  0
  2  3  1  0
  2 11  2  0
  2 23  1  0
  3  8  1  0
  3 12  1  0
  4 18  1  0
  4 19  1  0
  5  8  2  0
  5 11  1  0
  5 15  1  0
  6 21  1  0
  6 28  1  0
  7  9  1  0
  8 27  1  0
  9 11  1  0
  9 22  2  0
 10 13  1  0
 10 21  1  0
 10 25  2  0
 14 26  2  0
 14 27  1  0
 15 18  1  0
 16 22  1  0
 16 23  2  0
 17 19  1  0
 18 24  1  0
 19 28  1  0
 20 24  1  0
 20 27  1  0
 24 28  1  0
M  END
>  <ID>  (1) 
conformer_0

$$$$
