
     RDKit          3D

 28 31  0  0  0  0  0  0  0  0999 V2000
   -1.4382  -30.8447   -9.0440 C   0  0  0  0  0  0  0  0  0  0  0  0
   -1.9622  -30.7921  -17.7052 N   0  0  0  0  0  0  0  0  0  0  0  0
   -5.1066  -28.5555  -10.0451 O   0  0  0  0  0  0  0  0  0  0  0  0
   -5.9916  -28.7507   -7.7489 C   0  0  0  0  0  0  0  0  0  0  0  0
   -0.7123  -30.8894  -18.2110 C   0  0  0  0  0  0  0  0  0  0  0  0
   -0.1977  -30.4347  -12.3882 C   0  0  0  0  0  0  0  0  0  0  0  0
    1.0656  -30.9666  -14.1846 C   0  0  0  0  0  0  0  0  0  0  0  0
   -1.9613  -30.7643  -16.3761 C   0  0  0  0  0  0  0  0  0  0  0  0
   -0.1387  -31.2931   -8.8882 O   0  0  0  0  0  0  0  0  0  0  0  0
    1.1075  -30.7869  -12.7857 C   0  0  0  0  0  0  0  0  0  0  0  0
   -1.8776  -29.7620   -6.9105 O   0  0  0  0  0  0  0  0  0  0  0  0
   -5.7322  -27.7750   -8.8683 C   0  0  0  0  0  0  0  0  0  0  0  0
    0.1603  -31.0890  -17.0897 C   0  0  0  0  0  0  0  0  0  0  0  0
   -2.9921  -30.3997  -15.6241 N   0  0  0  0  0  0  0  0  0  0  0  0
   -2.2027  -30.8881   -7.7773 C   0  0  0  0  0  0  0  0  0  0  0  0
   -2.9383  -29.6487  -10.7263 C   0  0  0  0  0  0  0  0  0  0  0  0
   -6.2445  -29.9991   -8.1298 O   0  0  0  0  0  0  0  0  0  0  0  0
   -0.2583  -30.7352  -14.6465 C   0  0  0  0  0  0  0  0  0  0  0  0
   -3.8675  -29.2099   -9.6625 C   0  0  0  0  0  0  0  0  0  0  0  0
   -2.3922  -29.9185  -13.3520 C   0  0  0  0  0  0  0  0  0  0  0  0
   -6.5933  -28.3409   -6.4912 C   0  0  0  0  0  0  0  0  0  0  0  0
   -0.6114  -30.2033  -11.1828 O   0  0  0  0  0  0  0  0  0  0  0  0
   -1.0368  -30.3566  -13.5391 C   0  0  0  0  0  0  0  0  0  0  0  0
   -0.6128  -30.9262  -15.9656 C   0  0  0  0  0  0  0  0  0  0  0  0
   -1.6267  -30.1690  -10.3107 C   0  0  0  0  0  0  0  0  0  0  0  0
   -3.3160  -29.8960  -14.4680 C   0  0  0  0  0  0  0  0  0  0  0  0
   -4.4377  -29.4816  -14.2548 O   0  0  0  0  0  0  0  0  0  0  0  0
   -3.0412  -29.4967  -12.1287 C   0  0  0  0  0  0  0  0  0  0  0  0
  1  9  1  0
  1 15  1  0
  1 25  1  0
  2  5  1  0
  2  8  1  0
  3 12  1  0
  3 19  1  0
  4 12  1  0
  4 17  1  0
  4 21  1  0
  5 13  1  0
  6 10  1  0
  6 22  1  0
  6 23  2  0
  7 10  1  0
  7 18  1  0
  8 14  1  0
  8 24  2  0
 11 15  1  0
 13 24  1  0
 14 26  1  0
 16 19  2  3
 16 25  1  0
 16 28  1  0
 18 23  1  0
 18 24  1  0
 20 23  1  0
 20 26  1  0
 20 28  1  0
 22 25  1  0
 26 27  2  0
M  END
>  <ID>  (1) 
conformer_0

$$$$
