
     RDKit          3D

 33 37  0  0  0  0  0  0  0  0999 V2000
   -3.4345  -29.9190   -7.9057 O   0  0  0  0  0  0  0  0  0  0  0  0
   -8.3635  -26.5073   -8.0692 C   0  0  0  0  0  0  0  0  0  0  0  0
   -1.2823  -30.5944  -15.3366 N   0  0  0  0  0  0  0  0  0  0  0  0
   -4.7090  -28.8949   -9.6466 C   0  0  0  0  0  0  0  0  0  0  0  0
    0.1880  -30.3076  -17.9621 C   0  0  0  0  0  0  0  0  0  0  0  0
   -2.2755  -30.5387  -16.2878 C   0  0  0  0  0  0  0  0  0  0  0  0
   -2.0483  -31.4288  -17.4871 C   0  0  0  0  0  0  0  0  0  0  0  0
   -5.7720  -28.3794   -9.0598 O   0  0  0  0  0  0  0  0  0  0  0  0
   -3.8429  -29.6639  -14.7735 N   0  0  0  0  0  0  0  0  0  0  0  0
    0.9524  -31.2832  -14.6001 N   0  0  0  0  0  0  0  0  0  0  0  0
    0.5616  -31.0632  -13.3603 C   0  0  0  0  0  0  0  0  0  0  0  0
   -7.7260  -26.4935   -9.4288 C   0  0  0  0  0  0  0  0  0  0  0  0
    1.4487  -31.3038  -12.2788 C   0  0  0  0  0  0  0  0  0  0  0  0
   -8.1223  -27.7537   -7.4345 N   0  0  0  0  0  0  0  0  0  0  0  0
   -9.4734  -25.5420   -8.0291 C   0  0  0  0  0  0  0  0  0  0  0  0
   -0.6711  -30.5968  -12.9449 C   0  0  0  0  0  0  0  0  0  0  0  0
   -2.8385  -29.4984  -13.9245 C   0  0  0  0  0  0  0  0  0  0  0  0
   -1.6397  -30.2493  -14.0030 C   0  0  0  0  0  0  0  0  0  0  0  0
   -1.3335  -30.3370  -10.1821 C   0  0  0  0  0  0  0  0  0  0  0  0
   -0.8172  -30.5686   -9.0208 O   0  0  0  0  0  0  0  0  0  0  0  0
   -4.5227  -28.8405  -11.0421 C   0  0  0  0  0  0  0  0  0  0  0  0
   -2.6644  -29.8174  -10.2367 C   0  0  0  0  0  0  0  0  0  0  0  0
   -3.1371  -30.5209   -6.7641 C   0  0  0  0  0  0  0  0  0  0  0  0
    2.8307  -31.6216  -12.5016 C   0  0  0  0  0  0  0  0  0  0  0  0
   -0.5593  -30.6083  -11.3910 C   0  0  0  0  0  0  0  0  0  0  0  0
   -3.3103  -29.3955  -11.3448 C   0  0  0  0  0  0  0  0  0  0  0  0
   -1.1508  -30.8250  -18.5073 C   0  0  0  0  0  0  0  0  0  0  0  0
    0.6137  -31.3876  -16.9524 C   0  0  0  0  0  0  0  0  0  0  0  0
   -3.5443  -30.1743  -15.9573 N   0  0  0  0  0  0  0  0  0  0  0  0
    0.7267  -31.0620  -11.0830 C   0  0  0  0  0  0  0  0  0  0  0  0
    0.0271  -31.0854  -15.6021 C   0  0  0  0  0  0  0  0  0  0  0  0
   -6.4071  -27.2382   -9.4782 C   0  0  0  0  0  0  0  0  0  0  0  0
   -3.5257  -29.5779   -9.1364 C   0  0  0  0  0  0  0  0  0  0  0  0
  1 23  1  0
  1 33  1  0
  2 12  1  0
  2 14  1  0
  2 15  1  0
  3  6  1  0
  3 18  1  0
  3 31  1  0
  4  8  1  0
  4 21  1  0
  4 33  1  0
  5 27  1  0
  5 28  1  0
  6  7  1  0
  6 29  2  0
  7 27  1  0
  8 32  1  0
  9 17  1  0
  9 29  1  0
 10 11  2  0
 10 31  1  0
 11 13  1  0
 11 16  1  0
 12 32  1  0
 13 24  1  0
 13 30  1  0
 16 18  2  0
 16 25  1  0
 17 18  1  0
 19 20  1  0
 19 22  1  0
 19 25  2  3
 21 26  1  0
 22 26  1  0
 22 33  2  0
 25 30  1  0
 28 31  1  0
M  END
>  <ID>  (1) 
conformer_0

$$$$
