
     RDKit          3D

 26 28  0  0  0  0  0  0  0  0999 V2000
   -4.3593  -29.1928  -10.4281 C   0  0  0  0  0  0  0  0  0  0  0  0
   -2.3436  -29.9087  -13.6266 C   0  0  0  0  0  0  0  0  0  0  0  0
   -2.6228  -29.0708   -8.6903 C   0  0  0  0  0  0  0  0  0  0  0  0
   -1.8572  -30.0744  -12.1307 C   0  0  0  0  0  0  0  0  0  0  0  0
   -0.4702  -30.4897  -12.1630 C   0  0  0  0  0  0  0  0  0  0  0  0
   -3.0318  -29.4327  -10.0126 C   0  0  0  0  0  0  0  0  0  0  0  0
   -4.0163  -28.7458  -14.8564 O   0  0  0  0  0  0  0  0  0  0  0  0
   -3.4009  -28.4157   -7.7545 C   0  0  0  0  0  0  0  0  0  0  0  0
   -6.7586  -27.0304   -8.7965 C   0  0  0  0  0  0  0  0  0  0  0  0
   -1.3792  -28.8176   -6.7814 C   0  0  0  0  0  0  0  0  0  0  0  0
   -2.2587  -29.9859  -10.9025 N   0  0  0  0  0  0  0  0  0  0  0  0
    1.4714  -31.7605  -11.1213 C   0  0  0  0  0  0  0  0  0  0  0  0
   -0.5471  -31.0598  -16.7837 C   0  0  0  0  0  0  0  0  0  0  0  0
   -5.5775  -27.8626   -8.8658 C   0  0  0  0  0  0  0  0  0  0  0  0
   -1.3108  -31.0544  -18.1897 C   0  0  0  0  0  0  0  0  0  0  0  0
   -1.0240  -30.0397  -15.8961 C   0  0  0  0  0  0  0  0  0  0  0  0
    1.1283  -30.5239  -13.9003 O   0  0  0  0  0  0  0  0  0  0  0  0
   -4.6386  -27.8940   -7.8365 C   0  0  0  0  0  0  0  0  0  0  0  0
   -0.0689  -30.4001  -13.5334 C   0  0  0  0  0  0  0  0  0  0  0  0
   -3.7257  -30.7937  -15.5603 N   0  0  0  0  0  0  0  0  0  0  0  0
   -1.1207  -30.1055  -14.4391 C   0  0  0  0  0  0  0  0  0  0  0  0
    0.2060  -31.0408  -10.9574 C   0  0  0  0  0  0  0  0  0  0  0  0
   -5.3621  -28.5949  -10.0521 C   0  0  0  0  0  0  0  0  0  0  0  0
   -1.3353  -29.3404   -8.1595 S   0  0  0  0  0  0  0  0  0  0  0  0
   -2.6269  -28.2870   -6.5599 C   0  0  0  0  0  0  0  0  0  0  0  0
   -3.4956  -29.8215  -14.6942 C   0  0  0  0  0  0  0  0  0  0  0  0
  1  6  1  0
  1 23  2  0
  2  4  1  0
  2 21  2  0
  2 26  1  0
  3  6  2  0
  3  8  1  0
  3 24  1  0
  4  5  2  0
  4 11  1  0
  5 19  1  0
  5 22  1  0
  6 11  1  0
  7 26  2  0
  8 18  2  0
  8 25  1  0
  9 14  1  0
 10 24  1  0
 10 25  1  0
 12 22  1  0
 13 15  1  0
 13 16  1  0
 14 18  1  0
 14 23  1  0
 16 21  1  0
 17 19  2  0
 19 21  1  0
 20 26  1  0
M  END
>  <ID>  (1) 
conformer_0

$$$$
