
     RDKit          3D

 37 42  0  0  0  0  0  0  0  0999 V2000
   -4.5516  -28.9029  -14.4352 N   0  0  0  0  0  0  0  0  0  0  0  0
   -3.5853  -29.7736  -14.2507 C   0  0  0  0  0  0  0  0  0  0  0  0
    3.5890  -32.5112  -12.3170 C   0  0  0  0  0  0  0  0  0  0  0  0
   -2.1177  -30.8212  -15.8865 C   0  0  0  0  0  0  0  0  0  0  0  0
   -5.0694  -28.2690   -6.5970 C   0  0  0  0  0  0  0  0  0  0  0  0
   -1.5927  -30.3257  -10.9847 C   0  0  0  0  0  0  0  0  0  0  0  0
   -1.9307  -30.2727   -9.6618 C   0  0  0  0  0  0  0  0  0  0  0  0
   -1.0383  -31.1194  -15.1602 C   0  0  0  0  0  0  0  0  0  0  0  0
   -4.5257  -29.0329   -5.5602 C   0  0  0  0  0  0  0  0  0  0  0  0
    4.1097  -32.5595   -9.8673 C   0  0  0  0  0  0  0  0  0  0  0  0
   -3.3479  -30.6135  -15.3019 O   0  0  0  0  0  0  0  0  0  0  0  0
   -0.7162  -31.1595  -17.8294 C   0  0  0  0  0  0  0  0  0  0  0  0
    2.1417  -30.2558  -13.9217 O   0  0  0  0  0  0  0  0  0  0  0  0
    4.6305  -32.4047  -11.2754 C   0  0  0  0  0  0  0  0  0  0  0  0
   -0.3522  -30.7485  -11.4148 C   0  0  0  0  0  0  0  0  0  0  0  0
    0.1631  -30.8324  -12.7033 N   0  0  0  0  0  0  0  0  0  0  0  0
    2.9451  -31.6802   -9.6049 C   0  0  0  0  0  0  0  0  0  0  0  0
   -3.6198  -29.3488  -10.8651 C   0  0  0  0  0  0  0  0  0  0  0  0
    0.3256  -31.5532  -17.0280 C   0  0  0  0  0  0  0  0  0  0  0  0
   -3.3420  -30.2881   -7.1925 C   0  0  0  0  0  0  0  0  0  0  0  0
   -6.5770  -26.4802   -7.1939 C   0  0  0  0  0  0  0  0  0  0  0  0
    0.1205  -31.5943  -15.6260 C   0  0  0  0  0  0  0  0  0  0  0  0
    1.4065  -31.2834  -13.3850 C   0  0  0  0  0  0  0  0  0  0  0  0
   -3.7606  -29.4687   -8.2575 C   0  0  0  0  0  0  0  0  0  0  0  0
   -5.9735  -27.2702   -6.2400 C   0  0  0  0  0  0  0  0  0  0  0  0
    1.0728  -32.2563  -14.7344 C   0  0  0  0  0  0  0  0  0  0  0  0
    3.6230  -33.3736  -13.6437 C   0  0  0  0  0  0  0  0  0  0  0  0
   -6.2604  -26.7054   -8.5353 C   0  0  0  0  0  0  0  0  0  0  0  0
   -1.9506  -30.8146  -17.2811 C   0  0  0  0  0  0  0  0  0  0  0  0
   -4.7281  -28.4602   -7.9472 C   0  0  0  0  0  0  0  0  0  0  0  0
   -2.7618  -29.7957  -11.8005 C   0  0  0  0  0  0  0  0  0  0  0  0
   -5.3654  -27.6688   -8.9013 C   0  0  0  0  0  0  0  0  0  0  0  0
    2.2523  -31.9091  -12.1141 C   0  0  0  0  0  0  0  0  0  0  0  0
   -3.1592  -29.6676   -9.5506 C   0  0  0  0  0  0  0  0  0  0  0  0
   -2.8979  -29.8645  -13.1222 N   0  0  0  0  0  0  0  0  0  0  0  0
    1.9484  -31.4748  -10.6909 C   0  0  0  0  0  0  0  0  0  0  0  0
   -3.7043  -30.1148   -5.8968 C   0  0  0  0  0  0  0  0  0  0  0  0
  1  2  2  0
  2 11  1  0
  2 35  1  0
  3 14  1  0
  3 27  1  0
  3 33  1  0
  4  8  1  0
  4 11  1  0
  4 29  2  0
  5  9  1  0
  5 25  1  0
  5 30  2  0
  6  7  1  0
  6 15  2  0
  6 31  1  0
  7 34  1  0
  8 22  2  0
  9 37  1  0
 10 14  1  0
 10 17  1  0
 12 19  2  0
 12 29  1  0
 13 23  1  0
 15 16  1  0
 16 23  1  0
 17 36  1  0
 18 31  1  0
 18 34  1  0
 19 22  1  0
 20 24  1  0
 20 37  2  0
 21 25  2  0
 21 28  1  0
 22 26  1  0
 23 26  1  0
 23 33  1  0
 24 30  1  0
 24 34  1  0
 28 32  2  0
 30 32  1  0
 31 35  2  0
 33 36  2  0
M  END
>  <ID>  (1) 
conformer_0

$$$$
