
     RDKit          3D

 31 36  0  0  0  0  0  0  0  0999 V2000
    0.1728  -30.9046  -10.6746 C   0  0  0  0  0  0  0  0  0  0  0  0
    0.3572  -30.9968  -14.8366 C   0  0  0  0  0  0  0  0  0  0  0  0
   -1.1360  -30.6281  -15.2684 C   0  0  0  0  0  0  0  0  0  0  0  0
   -6.0163  -28.2142   -8.0851 C   0  0  0  0  0  0  0  0  0  0  0  0
   -2.2197  -30.5226  -16.2703 C   0  0  0  0  0  0  0  0  0  0  0  0
   -1.9157  -30.2595   -9.3295 C   0  0  0  0  0  0  0  0  0  0  0  0
   -2.8287  -30.0231   -8.3525 C   0  0  0  0  0  0  0  0  0  0  0  0
   -4.0296  -29.3498   -8.7180 C   0  0  0  0  0  0  0  0  0  0  0  0
   -3.3132  -29.4691  -11.0913 C   0  0  0  0  0  0  0  0  0  0  0  0
   -5.0774  -29.5855   -6.4353 C   0  0  0  0  0  0  0  0  0  0  0  0
   -0.8108  -30.4484  -12.8912 N   0  0  0  0  0  0  0  0  0  0  0  0
   -1.9919  -30.9097  -17.6224 O   0  0  0  0  0  0  0  0  0  0  0  0
   -3.4586  -30.1266  -15.9214 N   0  0  0  0  0  0  0  0  0  0  0  0
   -0.6192  -31.1615  -18.0314 N   0  0  0  0  0  0  0  0  0  0  0  0
    2.7361  -31.5485  -13.5417 C   0  0  0  0  0  0  0  0  0  0  0  0
   -4.2306  -29.0425  -10.0888 C   0  0  0  0  0  0  0  0  0  0  0  0
    2.7110  -31.6883  -14.9362 C   0  0  0  0  0  0  0  0  0  0  0  0
    1.4972  -31.3980  -15.5412 C   0  0  0  0  0  0  0  0  0  0  0  0
    1.6286  -31.1505  -12.8552 N   0  0  0  0  0  0  0  0  0  0  0  0
   -3.5529  -29.4266  -12.4710 N   0  0  0  0  0  0  0  0  0  0  0  0
   -2.0858  -30.0390  -10.6645 C   0  0  0  0  0  0  0  0  0  0  0  0
   -7.2304  -26.9334   -9.7979 C   0  0  0  0  0  0  0  0  0  0  0  0
   -3.0517  -29.6617  -13.7321 C   0  0  0  0  0  0  0  0  0  0  0  0
   -0.9865  -30.4136  -11.5257 C   0  0  0  0  0  0  0  0  0  0  0  0
   -2.5883  -30.4241   -7.1000 O   0  0  0  0  0  0  0  0  0  0  0  0
    0.4492  -30.8765  -13.4877 C   0  0  0  0  0  0  0  0  0  0  0  0
   -5.3546  -28.3057  -10.3658 C   0  0  0  0  0  0  0  0  0  0  0  0
   -4.9649  -29.0391   -7.7485 N   0  0  0  0  0  0  0  0  0  0  0  0
   -3.8519  -29.4621  -14.8678 C   0  0  0  0  0  0  0  0  0  0  0  0
   -1.7648  -30.2167  -13.9539 C   0  0  0  0  0  0  0  0  0  0  0  0
   -6.1858  -27.8298   -9.3888 C   0  0  0  0  0  0  0  0  0  0  0  0
  1 24  1  0
  2  3  1  0
  2 18  2  0
  2 26  1  0
  3  5  2  0
  3 30  1  0
  4 28  1  0
  4 31  1  0
  5 12  1  0
  5 13  1  0
  6  7  2  0
  6 21  1  0
  7  8  1  0
  7 25  1  0
  8 16  2  0
  8 28  1  0
  9 16  1  0
  9 20  1  0
  9 21  2  0
 10 28  1  0
 11 24  1  0
 11 26  1  0
 11 30  1  0
 12 14  1  0
 13 29  1  0
 15 17  2  0
 15 19  1  0
 16 27  1  0
 17 18  1  0
 19 26  2  0
 20 23  2  0
 21 24  1  0
 22 31  1  0
 23 29  1  0
 23 30  1  0
 27 31  2  0
M  END
>  <ID>  (1) 
conformer_0

$$$$
