
     RDKit          3D

 27 32  0  0  0  0  0  0  0  0999 V2000
    3.6741  -31.6421  -12.7673 C   0  0  0  0  0  0  0  0  0  0  0  0
   -3.0102  -29.4841  -12.6551 C   0  0  0  0  0  0  0  0  0  0  0  0
   -3.7504  -30.4739   -7.2824 F   0  0  0  0  0  0  0  0  0  0  0  0
   -1.9268  -29.8897  -14.9177 N   0  0  0  0  0  0  0  0  0  0  0  0
   -2.7031  -30.6341  -17.0381 N   0  0  0  0  0  0  0  0  0  0  0  0
    0.2429  -30.6479  -14.1049 C   0  0  0  0  0  0  0  0  0  0  0  0
    0.4193  -31.0427  -15.4108 C   0  0  0  0  0  0  0  0  0  0  0  0
   -0.9734  -30.0408  -13.8320 C   0  0  0  0  0  0  0  0  0  0  0  0
   -2.3641  -30.1108   -9.1490 C   0  0  0  0  0  0  0  0  0  0  0  0
   -3.4302  -28.0114  -14.8812 O   0  0  0  0  0  0  0  0  0  0  0  0
    1.3029  -30.8876  -13.1872 C   0  0  0  0  0  0  0  0  0  0  0  0
   -3.2662  -29.3276  -14.3591 C   0  0  0  0  0  0  0  0  0  0  0  0
   -1.2049  -30.1302  -11.3551 C   0  0  0  0  0  0  0  0  0  0  0  0
   -4.5510  -29.1974  -10.5958 C   0  0  0  0  0  0  0  0  0  0  0  0
   -3.3747  -29.5003  -11.2592 C   0  0  0  0  0  0  0  0  0  0  0  0
    2.4661  -31.5110  -13.6502 C   0  0  0  0  0  0  0  0  0  0  0  0
    1.5550  -31.6671  -15.8540 C   0  0  0  0  0  0  0  0  0  0  0  0
   -4.6689  -29.4365   -9.2256 C   0  0  0  0  0  0  0  0  0  0  0  0
   -1.7250  -30.4336  -16.1751 C   0  0  0  0  0  0  0  0  0  0  0  0
   -2.2816  -29.9163  -10.4619 C   0  0  0  0  0  0  0  0  0  0  0  0
    0.1881  -31.3787  -17.5282 C   0  0  0  0  0  0  0  0  0  0  0  0
    2.5935  -31.9566  -14.9795 C   0  0  0  0  0  0  0  0  0  0  0  0
   -4.2643  -30.1399  -14.5787 O   0  0  0  0  0  0  0  0  0  0  0  0
   -1.6453  -29.8982  -12.6450 C   0  0  0  0  0  0  0  0  0  0  0  0
   -0.4664  -30.9070  -16.4383 N   0  0  0  0  0  0  0  0  0  0  0  0
    1.4016  -31.8776  -17.1964 N   0  0  0  0  0  0  0  0  0  0  0  0
   -3.5723  -29.9836   -8.5424 C   0  0  0  0  0  0  0  0  0  0  0  0
  1 16  1  0
  2 12  1  0
  2 15  1  0
  2 24  1  0
  3 27  1  0
  4  8  1  0
  4 12  1  0
  4 19  1  0
  5 19  2  0
  6  7  2  0
  6  8  1  0
  6 11  1  0
  7 17  1  0
  7 25  1  0
  8 24  2  0
  9 20  2  0
  9 27  1  0
 10 12  1  0
 11 16  2  0
 12 23  1  0
 13 20  1  0
 13 24  1  0
 14 15  2  0
 14 18  1  0
 15 20  1  0
 16 22  1  0
 17 22  2  0
 17 26  1  0
 18 27  2  0
 19 25  1  0
 21 25  1  0
 21 26  1  0
M  END
>  <ID>  (1) 
conformer_0

$$$$
