
     RDKit          3D

 29 37  0  0  0  0  0  0  0  0999 V2000
   22.2612    8.2008  -12.2770 C   0  0  0  0  0  0  0  0  0  0  0  0
   23.2178   11.1654  -14.2870 C   0  0  0  0  0  0  0  0  0  0  0  0
   23.1855    7.5302  -13.4134 C   0  0  0  0  0  0  0  0  0  0  0  0
   22.9224    8.0957  -14.7894 C   0  0  0  0  0  0  0  0  0  0  0  0
   24.0538   10.1237  -15.2231 C   0  0  0  0  0  0  0  0  0  0  0  0
   24.6719    8.6275  -14.5330 C   0  0  0  0  0  0  0  0  0  0  0  0
   20.7846   10.9346   -8.3058 C   0  0  0  0  0  0  0  0  0  0  0  0
   24.4188    6.4505  -15.0208 C   0  0  0  0  0  0  0  0  0  0  0  0
   24.7591    7.4987  -15.9785 C   0  0  0  0  0  0  0  0  0  0  0  0
   22.9110   13.3219  -12.7531 O   0  0  0  0  0  0  0  0  0  0  0  0
   25.3325    5.7210  -16.4229 C   0  0  0  0  0  0  0  0  0  0  0  0
   21.5224   11.2175  -13.0033 C   0  0  0  0  0  0  0  0  0  0  0  0
   21.3488   12.5370   -7.9995 C   0  0  0  0  0  0  0  0  0  0  0  0
   27.3961    6.4158  -15.8294 O   0  0  0  0  0  0  0  0  0  0  0  0
   22.0947   12.5380  -12.7499 C   0  0  0  0  0  0  0  0  0  0  0  0
   21.4992   13.1702   -7.4586 O   0  0  0  0  0  0  0  0  0  0  0  0
   26.7441    4.0373  -15.1569 O   0  0  0  0  0  0  0  0  0  0  0  0
   21.4356    9.4772  -11.0812 C   0  0  0  0  0  0  0  0  0  0  0  0
   21.2589   11.5563  -11.5100 C   0  0  0  0  0  0  0  0  0  0  0  0
   26.4851    5.5352  -15.7041 C   0  0  0  0  0  0  0  0  0  0  0  0
   20.2679   10.3913  -10.3786 C   0  0  0  0  0  0  0  0  0  0  0  0
   20.1149   13.1669  -12.1730 C   0  0  0  0  0  0  0  0  0  0  0  0
   20.5296   11.6738   -9.5101 C   0  0  0  0  0  0  0  0  0  0  0  0
   20.5981   13.8083  -10.8988 C   0  0  0  0  0  0  0  0  0  0  0  0
   21.5350   13.2197   -9.7001 C   0  0  0  0  0  0  0  0  0  0  0  0
   19.4641   12.0142  -11.4537 C   0  0  0  0  0  0  0  0  0  0  0  0
   21.2487    9.4304  -12.7522 C   0  0  0  0  0  0  0  0  0  0  0  0
   23.2517    9.8781  -13.1977 C   0  0  0  0  0  0  0  0  0  0  0  0
   22.0120    9.5389  -14.5390 C   0  0  0  0  0  0  0  0  0  0  0  0
  3  1  1  0
  4  3  1  0
  5  2  1  0
  6  4  1  0
  6  5  1  0
  9  6  1  0
  9  8  1  0
 11  8  1  0
 11  9  1  0
 13  7  1  0
 15 10  2  0
 15 12  1  0
 16 13  1  0
 18  1  1  0
 19 12  1  0
 19 15  1  0
 20 11  1  0
 20 14  2  0
 20 17  1  0
 21 18  1  0
 21 19  1  0
 23  7  1  0
 23 13  1  0
 23 21  1  0
 24 22  1  0
 25 13  1  0
 25 23  1  0
 25 24  1  0
 26 19  1  0
 26 22  1  0
 27  1  1  0
 27 12  1  0
 27 18  1  0
 28  2  1  0
 29  4  1  0
 29 27  1  0
 29 28  1  0
M  END
>  <ID>  (1) 
conformer_0

$$$$
