
     RDKit          3D

 21 22  0  0  0  0  0  0  0  0999 V2000
   24.0516    9.4032  -14.7878 C   0  0  0  0  0  0  0  0  0  0  0  0
   22.2055    8.8535  -14.2320 C   0  0  0  0  0  0  0  0  0  0  0  0
   20.5879   11.3846   -9.2215 C   0  0  0  0  0  0  0  0  0  0  0  0
   24.7365    8.0522  -15.1354 C   0  0  2  0  0  0  0  0  0  0  0  0
   20.7492   12.8423  -10.8266 C   0  0  0  0  0  0  0  0  0  0  0  0
   24.9860    6.8534  -15.4120 C   0  0  0  0  0  0  0  0  0  0  0  0
   21.4850   12.4874   -8.7751 C   0  0  0  0  0  0  0  0  0  0  0  0
   19.5758   12.2280  -11.1684 C   0  0  0  0  0  0  0  0  0  0  0  0
   23.3896   10.5238  -14.3038 C   0  0  0  0  0  0  0  0  0  0  0  0
   22.3654   10.6620  -13.2450 C   0  0  0  0  0  0  0  0  0  0  0  0
   21.8135    9.0658  -12.1311 C   0  0  0  0  0  0  0  0  0  0  0  0
   21.0446    9.8616  -11.3844 C   0  0  2  0  0  0  0  0  0  0  0  0
   26.3208    5.6963  -15.7275 C   0  0  0  0  0  0  0  0  0  0  0  0
   27.5005    6.5018  -16.3888 O   0  0  0  0  0  0  0  0  0  0  0  0
   22.7304    8.0848  -13.1298 C   0  0  1  0  0  0  0  0  0  0  0  0
   23.4557    7.0831  -14.3312 C   0  0  0  0  0  0  0  0  0  0  0  0
   22.3650   12.6751  -12.4865 C   0  0  0  0  0  0  0  0  0  0  0  0
   21.5368   12.8061   -7.8470 C   0  0  0  0  0  0  0  0  0  0  0  0
   19.8513   10.9209  -10.3051 C   0  0  1  0  0  0  0  0  0  0  0  0
   21.3197   11.4599  -11.9991 C   0  0  1  0  0  0  0  0  0  0  0  0
   22.2835   13.3812  -13.0661 O   0  0  0  0  0  0  0  0  0  0  0  0
  4  1  1  0
  4  6  1  6
  7  3  1  0
  8  5  1  0
  9  1  1  0
 10  9  1  0
 12 11  1  6
 13  6  1  0
 14 13  1  0
 15  2  1  6
 15 11  1  0
 16  4  1  0
 16 15  1  0
 18  7  2  3
 19  3  1  1
 19  8  1  0
 19 12  1  0
 20  5  1  0
 20 10  1  0
 20 12  1  0
 20 17  1  6
 21 17  1  0
M  END
>  <ID>  (1) 
conformer_0

$$$$
