
     RDKit          3D

 25 30  0  0  0  0  0  0  0  0999 V2000
   22.9366    8.7810  -12.8839 C   0  0  0  0  0  0  0  0  0  0  0  0
   22.0768    8.5168  -11.8046 C   0  0  0  0  0  0  0  0  0  0  0  0
   23.3951    8.4587  -15.1393 C   0  0  0  0  0  0  0  0  0  0  0  0
   20.6809   11.9123  -12.0198 C   0  0  0  0  0  0  0  0  0  0  0  0
   20.6810   13.3200  -11.0069 C   0  0  0  0  0  0  0  0  0  0  0  0
   20.8921    9.7397  -11.1576 C   0  0  0  0  0  0  0  0  0  0  0  0
   19.6299   11.3392  -10.7728 C   0  0  0  0  0  0  0  0  0  0  0  0
   20.2369   10.8928   -9.5722 C   0  0  0  0  0  0  0  0  0  0  0  0
   24.8789    7.4730  -15.8867 C   0  0  0  0  0  0  0  0  0  0  0  0
   20.6925   11.7474   -8.8557 C   0  0  0  0  0  0  0  0  0  0  0  0
   21.5012   13.2702   -9.9581 C   0  0  0  0  0  0  0  0  0  0  0  0
   21.1122   13.2646   -8.6585 C   0  0  0  0  0  0  0  0  0  0  0  0
   26.9461    5.4577  -15.7186 C   0  0  0  0  0  0  0  0  0  0  0  0
   25.7480    6.4357  -16.0636 C   0  0  0  0  0  0  0  0  0  0  0  0
   21.2721   13.9143   -8.0874 O   0  0  0  0  0  0  0  0  0  0  0  0
   26.8988    4.7914  -14.9450 O   0  0  0  0  0  0  0  0  0  0  0  0
   27.9634    5.4294  -15.9662 O   0  0  0  0  0  0  0  0  0  0  0  0
   23.9114    6.7624  -14.7898 C   0  0  0  0  0  0  0  0  0  0  0  0
   23.0025    7.3408  -13.5057 C   0  0  0  0  0  0  0  0  0  0  0  0
   21.6939   10.6180  -11.8986 C   0  0  0  0  0  0  0  0  0  0  0  0
   24.0331    9.7507  -14.7874 C   0  0  0  0  0  0  0  0  0  0  0  0
   22.1121   12.8443  -12.4086 C   0  0  0  0  0  0  0  0  0  0  0  0
   21.9813    9.7644  -13.7156 C   0  0  0  0  0  0  0  0  0  0  0  0
   23.2448   10.9274  -14.6290 C   0  0  0  0  0  0  0  0  0  0  0  0
   22.4041   11.3314  -13.4735 C   0  0  0  0  0  0  0  0  0  0  0  0
  2  1  1  0
  5  4  1  0
  6  2  1  0
  7  4  1  0
  8  7  1  0
  9  3  1  0
 10  8  2  0
 11  5  1  0
 12 10  1  0
 12 11  1  0
 14  9  1  0
 14 13  1  0
 15 12  1  0
 16 13  1  0
 17 13  2  0
 18  3  1  0
 18  9  1  0
 19  1  1  0
 19 18  1  0
 20  4  1  0
 20  6  1  0
 21  3  1  0
 22  4  1  0
 23  1  1  0
 24 21  1  0
 24 23  1  0
 25 20  1  0
 25 22  1  0
 25 23  1  0
 25 24  1  0
M  END
>  <ID>  (1) 
conformer_0

$$$$
