
     RDKit          3D

 24 26  0  0  0  0  0  0  0  0999 V2000
   19.3144   11.5612  -11.0212 C   0  0  0  0  0  0  0  0  0  0  0  0
   21.2004   11.2757  -11.7563 C   0  0  0  0  0  0  0  0  0  0  0  0
   20.9402    9.8482  -11.3848 C   0  0  0  0  0  0  0  0  0  0  0  0
   21.1414   13.4075   -9.8825 C   0  0  0  0  0  0  0  0  0  0  0  0
   21.9178   10.8205  -13.0852 C   0  0  0  0  0  0  0  0  0  0  0  0
   22.3802    9.0109  -11.8469 C   0  0  0  0  0  0  0  0  0  0  0  0
   23.7099    9.1692  -12.8406 C   0  0  0  0  0  0  0  0  0  0  0  0
   20.2994   12.7732  -11.1038 C   0  0  0  0  0  0  0  0  0  0  0  0
   21.8572    8.8073  -13.4393 C   0  0  0  0  0  0  0  0  0  0  0  0
   24.3567    8.4618  -14.8927 C   0  0  0  0  0  0  0  0  0  0  0  0
   23.2316   13.1123  -12.2118 O   0  0  0  0  0  0  0  0  0  0  0  0
   24.0294   10.1898  -14.8725 C   0  0  0  0  0  0  0  0  0  0  0  0
   23.0585   10.9945  -14.3351 C   0  0  0  0  0  0  0  0  0  0  0  0
   21.2899   12.9324   -7.8632 C   0  0  0  0  0  0  0  0  0  0  0  0
   27.7138    6.0850  -16.1531 O   0  0  0  0  0  0  0  0  0  0  0  0
   26.5477    5.5390  -16.0889 C   0  0  0  0  0  0  0  0  0  0  0  0
   22.1081   12.7584  -12.2160 C   0  0  0  0  0  0  0  0  0  0  0  0
   22.9268    7.7087  -14.0723 C   0  0  0  0  0  0  0  0  0  0  0  0
   24.0988    7.0885  -15.3840 C   0  0  0  0  0  0  0  0  0  0  0  0
   25.0993    6.5309  -16.4192 C   0  0  0  0  0  0  0  0  0  0  0  0
   21.9348   13.0267   -7.0644 O   0  0  0  0  0  0  0  0  0  0  0  0
   26.9295    4.4340  -15.7320 O   0  0  0  0  0  0  0  0  0  0  0  0
   20.1429   10.9863   -9.6543 C   0  0  0  0  0  0  0  0  0  0  0  0
   20.7953   11.7446   -8.9841 C   0  0  0  0  0  0  0  0  0  0  0  0
  3  2  1  0
  5  2  1  0
  6  3  1  0
  7  6  1  0
  8  1  1  0
  8  2  1  0
  8  4  1  0
  9  6  1  0
 12 10  1  0
 13  5  1  0
 13 12  1  0
 16 15  2  0
 17  2  1  0
 17 11  2  0
 18  9  1  0
 18 10  1  0
 19 10  1  0
 19 18  1  0
 20 16  1  0
 20 19  1  0
 21 14  1  0
 22 16  1  0
 23  1  1  0
 24  4  1  0
 24 14  1  0
 24 23  1  0
M  END
>  <ID>  (1) 
conformer_0

$$$$
