
     RDKit          3D

 27 32  0  0  0  0  0  0  0  0999 V2000
   22.0852   11.3681  -13.0938 C   0  0  0  0  0  0  0  0  0  0  0  0
   21.5132    9.2352  -13.0943 C   0  0  0  0  0  0  0  0  0  0  0  0
   22.6832    7.8285  -12.8367 C   0  0  0  0  0  0  0  0  0  0  0  0
   23.3491   11.0344  -14.8555 C   0  0  0  0  0  0  0  0  0  0  0  0
   24.2745    9.6677  -14.8274 C   0  0  0  0  0  0  0  0  0  0  0  0
   22.3988    8.8096  -14.6372 C   0  0  0  0  0  0  0  0  0  0  0  0
   21.3383    8.8985  -11.7337 C   0  0  0  0  0  0  0  0  0  0  0  0
   24.1536    8.3424  -15.5624 C   0  0  0  0  0  0  0  0  0  0  0  0
   24.7595    7.1419  -14.8522 C   0  0  0  0  0  0  0  0  0  0  0  0
   23.2449    7.2436  -14.1059 C   0  0  0  0  0  0  0  0  0  0  0  0
   19.1932   12.0504  -11.0563 C   0  0  0  0  0  0  0  0  0  0  0  0
   23.3905   13.0365  -12.4036 O   0  0  0  0  0  0  0  0  0  0  0  0
   26.7045    5.6723  -15.9852 C   0  0  0  0  0  0  0  0  0  0  0  0
   21.1720   12.4439   -8.1229 C   0  0  0  0  0  0  0  0  0  0  0  0
   27.7008    6.2766  -16.3487 O   0  0  0  0  0  0  0  0  0  0  0  0
   20.1464   12.9291  -12.0945 C   0  0  0  0  0  0  0  0  0  0  0  0
   21.2351   13.1142   -7.4490 O   0  0  0  0  0  0  0  0  0  0  0  0
   26.4390    4.5958  -15.3469 O   0  0  0  0  0  0  0  0  0  0  0  0
   22.5687   12.4974  -12.1367 C   0  0  0  0  0  0  0  0  0  0  0  0
   23.2214   10.1138  -13.5641 C   0  0  0  0  0  0  0  0  0  0  0  0
   21.0006   12.8000  -10.9076 C   0  0  0  0  0  0  0  0  0  0  0  0
   19.9206   10.2630  -11.1198 C   0  0  0  0  0  0  0  0  0  0  0  0
   25.3716    6.6069  -16.1979 C   0  0  0  0  0  0  0  0  0  0  0  0
   21.0466   10.8229  -11.7009 C   0  0  0  0  0  0  0  0  0  0  0  0
   20.0234   10.9437   -9.6349 C   0  0  0  0  0  0  0  0  0  0  0  0
   20.5370   11.0285   -8.6797 C   0  0  0  0  0  0  0  0  0  0  0  0
   21.4537   12.6072   -9.3916 C   0  0  0  0  0  0  0  0  0  0  0  0
  3  2  1  0
  5  4  1  0
  6  2  1  0
  7  2  1  0
  8  5  1  0
  9  8  1  0
 10  3  1  0
 10  6  1  0
 10  9  1  0
 15 13  2  0
 16 11  1  0
 17 14  1  0
 18 13  1  0
 19  1  1  0
 19 12  2  0
 20  1  1  0
 20  4  1  0
 20  5  1  0
 20  6  1  0
 21 11  1  0
 21 16  1  0
 22 11  1  0
 23  9  1  0
 23 13  1  0
 24  1  1  0
 24  7  1  0
 24 22  1  0
 25 22  1  0
 26 14  1  0
 26 25  1  0
 27 14  1  0
 27 21  1  0
M  END
>  <ID>  (1) 
conformer_0

$$$$
