
     RDKit          3D

 25 30  0  0  0  0  0  0  0  0999 V2000
   20.7007    9.8039  -11.9236 C   0  0  0  0  0  0  0  0  0  0  0  0
   20.9553   12.5786  -10.6874 C   0  0  0  0  0  0  0  0  0  0  0  0
   21.3414   11.6627  -12.7427 C   0  0  0  0  0  0  0  0  0  0  0  0
   19.9435   12.2597  -11.7501 C   0  0  0  0  0  0  0  0  0  0  0  0
   20.9495   10.2515  -10.7242 C   0  0  0  0  0  0  0  0  0  0  0  0
   22.7495   10.9741  -14.3491 C   0  0  0  0  0  0  0  0  0  0  0  0
   20.0664   11.0825   -9.3755 C   0  0  0  0  0  0  0  0  0  0  0  0
   22.0039    8.6931  -11.9006 C   0  0  0  0  0  0  0  0  0  0  0  0
   23.8563   10.0276  -14.5966 C   0  0  0  0  0  0  0  0  0  0  0  0
   21.6117   13.2674   -9.2289 C   0  0  0  0  0  0  0  0  0  0  0  0
   22.8473    8.0949  -13.0522 C   0  0  0  0  0  0  0  0  0  0  0  0
   23.0568   13.2506  -12.0668 O   0  0  0  0  0  0  0  0  0  0  0  0
   27.0940    5.5695  -16.1745 C   0  0  0  0  0  0  0  0  0  0  0  0
   28.1391    5.9846  -16.6034 O   0  0  0  0  0  0  0  0  0  0  0  0
   23.6840    8.6174  -15.0761 C   0  0  0  0  0  0  0  0  0  0  0  0
   21.1192   13.1090   -8.0931 C   0  0  0  0  0  0  0  0  0  0  0  0
   20.8190   11.7389   -8.4791 C   0  0  0  0  0  0  0  0  0  0  0  0
   24.8119    7.0929  -15.3920 C   0  0  0  0  0  0  0  0  0  0  0  0
   27.2183    4.6818  -15.3781 O   0  0  0  0  0  0  0  0  0  0  0  0
   21.8863    8.9928  -14.1765 C   0  0  0  0  0  0  0  0  0  0  0  0
   22.1867   13.2289  -11.6533 C   0  0  0  0  0  0  0  0  0  0  0  0
   25.6278    6.3818  -16.0880 C   0  0  0  0  0  0  0  0  0  0  0  0
   23.4092    7.1946  -14.4631 C   0  0  0  0  0  0  0  0  0  0  0  0
   19.2854   11.1940  -10.6156 C   0  0  0  0  0  0  0  0  0  0  0  0
   22.2586   10.2138  -12.8737 C   0  0  0  0  0  0  0  0  0  0  0  0
  4  2  1  0
  4  3  1  0
  5  1  1  0
  7  5  1  0
  8  1  1  0
  9  6  1  0
 10  2  1  0
 11  8  1  0
 14 13  2  0
 15  9  1  0
 16 10  1  0
 17  7  1  0
 17 16  1  0
 18 15  1  0
 19 13  1  0
 20 11  1  0
 21  2  2  0
 21 12  2  0
 22 13  1  0
 22 18  1  0
 23 11  1  0
 23 15  1  0
 23 18  1  0
 24  4  1  0
 24  5  1  0
 24  7  1  0
 25  3  1  0
 25  6  1  0
 25  8  1  0
 25 20  1  0
M  END
>  <ID>  (1) 
conformer_0

$$$$
