
     RDKit          3D

 28 33  0  0  0  0  0  0  0  0999 V2000
   20.6998   13.0377  -10.1140 C   0  0  0  0  0  0  0  0  0  0  0  0
   20.8573   13.2139  -11.5320 C   0  0  0  0  0  0  0  0  0  0  0  0
   21.5124   11.3432  -12.7809 C   0  0  0  0  0  0  0  0  0  0  0  0
   21.1668    9.7155  -11.4893 C   0  0  0  0  0  0  0  0  0  0  0  0
   22.6267   10.7480  -13.7286 C   0  0  0  0  0  0  0  0  0  0  0  0
   22.3039    8.8847  -11.8740 C   0  0  0  0  0  0  0  0  0  0  0  0
   20.4398   10.6341   -9.6298 C   0  0  0  0  0  0  0  0  0  0  0  0
   23.8767    7.3759  -14.8569 C   0  0  0  0  0  0  0  0  0  0  0  0
   24.8372    8.5804  -15.5712 C   0  0  0  0  0  0  0  0  0  0  0  0
   23.9126   10.0939  -15.0882 C   0  0  0  0  0  0  0  0  0  0  0  0
   20.8672   12.2813   -7.8845 C   0  0  0  0  0  0  0  0  0  0  0  0
   23.2371   13.0554  -12.9334 O   0  0  0  0  0  0  0  0  0  0  0  0
   27.1502    5.3712  -16.0319 C   0  0  0  0  0  0  0  0  0  0  0  0
   24.7874    6.9202  -16.1544 C   0  0  0  0  0  0  0  0  0  0  0  0
   20.4992   11.3787   -8.7175 C   0  0  0  0  0  0  0  0  0  0  0  0
   28.3017    5.6056  -16.4591 O   0  0  0  0  0  0  0  0  0  0  0  0
   22.5009   12.4489  -12.7728 C   0  0  0  0  0  0  0  0  0  0  0  0
   25.9434    6.0198  -16.2732 C   0  0  0  0  0  0  0  0  0  0  0  0
   20.8909   13.2485   -7.5804 O   0  0  0  0  0  0  0  0  0  0  0  0
   19.0964   11.0680  -10.2060 C   0  0  0  0  0  0  0  0  0  0  0  0
   27.2906    4.6248  -15.0731 O   0  0  0  0  0  0  0  0  0  0  0  0
   23.7444    9.5631  -13.6451 C   0  0  0  0  0  0  0  0  0  0  0  0
   21.5725    9.2929  -13.6336 C   0  0  0  0  0  0  0  0  0  0  0  0
   22.7822    7.8447  -12.8814 C   0  0  0  0  0  0  0  0  0  0  0  0
   22.6483    8.2849  -14.6413 C   0  0  0  0  0  0  0  0  0  0  0  0
   19.3627   11.8649  -11.3492 C   0  0  0  0  0  0  0  0  0  0  0  0
   21.1721   13.5302   -9.2928 C   0  0  0  0  0  0  0  0  0  0  0  0
   21.2727   11.3659  -11.3251 C   0  0  0  0  0  0  0  0  0  0  0  0
  2  1  1  0
  5  3  1  0
  6  4  1  0
  9  8  1  0
 10  9  1  0
 14  8  1  0
 14  9  1  0
 15  7  1  0
 15 11  1  0
 16 13  2  0
 17  3  1  0
 17  5  1  0
 17 12  1  0
 18 13  1  0
 18 14  1  0
 19 11  1  0
 20  7  1  0
 21 13  1  0
 22  5  1  0
 22 10  1  0
 23  5  1  0
 23  6  1  0
 24  6  1  0
 25  8  1  0
 25 22  1  0
 25 23  1  0
 25 24  1  0
 26 20  1  0
 27  1  1  0
 27 11  1  0
 28  2  1  0
 28  3  1  0
 28  4  1  0
M  END
>  <ID>  (1) 
conformer_0

$$$$
