
     RDKit          3D

 24 23  0  0  0  0  0  0  0  0999 V2000
   21.2814   11.6100  -12.4619 C   0  0  0  0  0  0  0  0  0  0  0  0
   22.5719   10.6837  -12.7995 C   0  0  0  0  0  0  0  0  0  0  0  0
   20.9247   10.2826  -11.0429 C   0  0  0  0  0  0  0  0  0  0  0  0
   21.1424    9.4207  -12.0524 C   0  0  0  0  0  0  0  0  0  0  0  0
   19.6840   12.1527  -11.5882 C   0  0  1  0  0  0  0  0  0  0  0  0
   22.2893    8.5098  -12.7820 C   0  0  2  0  0  0  0  0  0  0  0  0
   19.9613   10.9588  -10.1196 C   0  0  2  0  0  0  0  0  0  0  0  0
   23.2720   10.9023  -14.3084 C   0  0  0  0  0  0  0  0  0  0  0  0
   23.6314    6.6701  -14.6047 C   0  0  0  0  0  0  0  0  0  0  0  0
   20.6526   11.4569   -9.1745 C   0  0  0  0  0  0  0  0  0  0  0  0
   21.4372   12.6189   -8.0927 C   0  0  0  0  0  0  0  0  0  0  0  0
   23.2865   13.2523  -12.6475 O   0  0  0  0  0  0  0  0  0  0  0  0
   21.8420    9.4862  -14.1929 C   0  0  0  0  0  0  0  0  0  0  0  0
   26.5998    5.6136  -15.8480 C   0  0  0  0  0  0  0  0  0  0  0  0
   24.9798    5.7756  -16.0344 C   0  0  0  0  0  0  0  0  0  0  0  0
   27.7991    6.1436  -16.2908 O   0  0  0  0  0  0  0  0  0  0  0  0
   22.5295   12.7525  -12.7653 C   0  0  0  0  0  0  0  0  0  0  0  0
   21.8443   13.1691   -7.4333 O   0  0  0  0  0  0  0  0  0  0  0  0
   24.7622    7.3272  -15.3859 C   0  0  0  0  0  0  0  0  0  0  0  0
   24.1889    9.3237  -15.1767 C   0  0  0  0  0  0  0  0  0  0  0  0
   22.8117    7.7643  -14.1198 C   0  0  0  0  0  0  0  0  0  0  0  0
   24.1190    9.5002  -13.9855 C   0  0  0  0  0  0  0  0  0  0  0  0
   20.7438   13.2797  -11.1076 C   0  0  0  0  0  0  0  0  0  0  0  0
   21.3127   13.0947  -10.0547 C   0  0  0  0  0  0  0  0  0  0  0  0
  2  1  1  0
  4  3  2  3
  5  1  1  6
  6  4  1  0
  7  3  1  0
  7  5  1  0
  8  2  1  0
  7 10  1  1
 11 10  3  0
  6 13  1  6
 15 14  1  0
 16 14  1  0
 17  1  2  0
 17 12  2  0
 18 11  1  0
 19  9  1  0
 19 15  1  0
 21  6  1  0
 21  9  1  0
 22  8  1  0
 22 20  1  0
 23  5  1  0
 24 23  2  3
M  END
>  <ID>  (1) 
conformer_0

$$$$
