
     RDKit          3D

 30 35  0  0  0  0  0  0  0  0999 V2000
   21.0107   12.0294  -12.5336 C   0  0  1  0  0  0  0  0  0  0  0  0
   19.1857   10.7274   -9.8659 C   0  0  0  0  0  0  0  0  0  0  0  0
   20.6461   11.9994   -9.9310 C   0  0  0  0  0  0  0  0  0  0  0  0
   22.0842   10.8140  -12.6439 C   0  0  1  0  0  0  0  0  0  0  0  0
   22.6962   11.5214  -14.0175 C   0  0  0  0  0  0  0  0  0  0  0  0
   23.7227    9.8947  -13.7715 C   0  0  2  0  0  0  0  0  0  0  0  0
   19.3247   11.5419  -11.3557 C   0  0  0  0  0  0  0  0  0  0  0  0
   20.7890   13.1927  -11.3287 C   0  0  1  0  0  0  0  0  0  0  0  0
   25.1482    8.7828  -15.2568 C   0  0  0  0  0  0  0  0  0  0  0  0
   20.6186   11.0234   -8.4506 C   0  0  0  0  0  0  0  0  0  0  0  0
   21.4023   13.5497   -9.4072 C   0  0  0  0  0  0  0  0  0  0  0  0
   23.4730   13.0769  -12.2556 O   0  0  0  0  0  0  0  0  0  0  0  0
   21.1165   12.3238   -7.8873 C   0  0  0  0  0  0  0  0  0  0  0  0
   22.1888   13.1452  -12.4933 C   0  0  0  0  0  0  0  0  0  0  0  0
   27.9140    5.7429  -16.3736 O   0  0  0  0  0  0  0  0  0  0  0  0
   26.8954    5.3271  -15.8058 C   0  0  0  0  0  0  0  0  0  0  0  0
   25.7350    5.8911  -15.4038 C   0  0  0  0  0  0  0  0  0  0  0  0
   26.8845    4.1609  -14.9263 O   0  0  0  0  0  0  0  0  0  0  0  0
   21.8986   14.4505  -12.6852 O   0  0  0  0  0  0  0  0  0  0  0  0
   21.7070   12.9968   -7.1888 O   0  0  0  0  0  0  0  0  0  0  0  0
   24.2278   10.3205  -15.0625 C   0  0  0  0  0  0  0  0  0  0  0  0
   20.7531   10.1546  -10.3994 C   0  0  2  0  0  0  0  0  0  0  0  0
   21.6251    9.4599  -13.9115 C   0  0  1  0  0  0  0  0  0  0  0  0
   20.7972    9.8851  -11.9213 C   0  0  2  0  0  0  0  0  0  0  0  0
   25.1694    6.9072  -16.1605 C   0  0  0  0  0  0  0  0  0  0  0  0
   22.4617    8.9609  -14.9050 C   0  0  2  0  0  0  0  0  0  0  0  0
   22.0458    8.6093  -11.9484 C   0  0  0  0  0  0  0  0  0  0  0  0
   23.9381    7.9895  -15.6821 C   0  0  2  0  0  0  0  0  0  0  0  0
   22.3868    7.8659  -13.2786 C   0  0  2  0  0  0  0  0  0  0  0  0
   23.4552    7.1527  -14.4332 C   0  0  0  0  0  0  0  0  0  0  0  0
  4  1  1  0
  4  5  1  1
  6  5  1  1
  7  2  1  0
  8  1  1  0
  8  3  1  1
 10  3  1  0
 11  3  1  0
 13 10  1  0
  1 14  1  6
 14  8  1  0
 14 12  1  0
 16 15  2  0
 17 16  1  0
 18 16  1  0
 19 14  1  0
 20 13  1  0
 21  6  1  0
 21  9  1  0
 22  2  1  6
 22  3  1  0
 23  4  1  0
 24  4  1  0
 24 22  1  0
 25 17  2  3
 26  6  1  1
 26 23  1  0
 24 27  1  1
 28  9  1  6
 28 25  1  0
 28 26  1  0
 23 29  1  1
 29 27  1  1
 30 28  1  0
 30 29  1  0
M  END
>  <ID>  (1) 
conformer_0

$$$$
