
     RDKit          3D

 26 31  0  0  0  0  0  0  0  0999 V2000
   21.4895   11.1740  -12.0667 C   0  0  0  0  0  0  0  0  0  0  0  0
   23.9951   10.5644  -15.0579 C   0  0  0  0  0  0  0  0  0  0  0  0
   20.9623    9.6522  -11.4932 C   0  0  0  0  0  0  0  0  0  0  0  0
   22.0774    8.7222  -11.8782 C   0  0  0  0  0  0  0  0  0  0  0  0
   20.3080   10.9467   -9.2314 C   0  0  0  0  0  0  0  0  0  0  0  0
   20.5138   12.9414  -11.5367 C   0  0  0  0  0  0  0  0  0  0  0  0
   22.7580   10.9554  -13.6536 C   0  0  0  0  0  0  0  0  0  0  0  0
   21.6804    9.3953  -13.3485 C   0  0  0  0  0  0  0  0  0  0  0  0
   21.0073   11.8269   -9.0527 C   0  0  0  0  0  0  0  0  0  0  0  0
   22.9329    7.6253  -13.1490 C   0  0  0  0  0  0  0  0  0  0  0  0
   24.5560    8.8977  -15.2616 C   0  0  0  0  0  0  0  0  0  0  0  0
   22.9607   13.3808  -12.8528 O   0  0  0  0  0  0  0  0  0  0  0  0
   21.3842   12.9724   -8.4628 C   0  0  0  0  0  0  0  0  0  0  0  0
   26.4582    5.9113  -15.9775 C   0  0  0  0  0  0  0  0  0  0  0  0
   27.5334    6.6498  -16.2232 O   0  0  0  0  0  0  0  0  0  0  0  0
   21.5859   13.6041   -7.7869 O   0  0  0  0  0  0  0  0  0  0  0  0
   21.0824   13.3768  -10.3047 C   0  0  0  0  0  0  0  0  0  0  0  0
   23.8705    6.7654  -14.7231 C   0  0  0  0  0  0  0  0  0  0  0  0
   22.9394    8.1727  -14.5929 C   0  0  0  0  0  0  0  0  0  0  0  0
   22.2714   12.8032  -12.7405 C   0  0  0  0  0  0  0  0  0  0  0  0
   24.5281    7.1678  -15.9051 C   0  0  0  0  0  0  0  0  0  0  0  0
   25.2692    6.0329  -16.5922 C   0  0  0  0  0  0  0  0  0  0  0  0
   26.9631    4.6148  -15.2998 O   0  0  0  0  0  0  0  0  0  0  0  0
   19.9710   10.4874  -10.8183 C   0  0  0  0  0  0  0  0  0  0  0  0
   19.4330   11.7617  -10.9724 C   0  0  0  0  0  0  0  0  0  0  0  0
   23.5695    9.6320  -13.6394 C   0  0  0  0  0  0  0  0  0  0  0  0
  3  1  2  0
  4  3  1  0
  7  2  1  0
  8  4  1  0
  8  7  1  0
  9  5  1  0
 10  4  1  0
 11  2  1  0
 13  9  1  0
 15 14  2  0
 16 13  1  0
 17  6  1  0
 17 13  1  0
 19 10  1  0
 19 11  1  0
 19 18  1  0
 20  1  2  0
 20 12  1  0
 21 11  1  0
 21 18  1  0
 22 14  1  0
 22 21  1  0
 23 14  1  0
 24  3  1  0
 24  5  1  0
 25  6  1  0
 25 24  1  0
 26  2  1  0
 26  7  1  0
 26  8  1  0
 26 19  1  0
M  END
>  <ID>  (1) 
conformer_0

$$$$
