
     RDKit          3D

 25 30  0  0  0  0  0  0  0  0999 V2000
   20.5856   10.5050  -10.4811 C   0  0  0  0  0  0  0  0  0  0  0  0
   21.7066    9.8689  -13.1097 C   0  0  0  0  0  0  0  0  0  0  0  0
   19.8217   11.0282   -9.3375 C   0  0  0  0  0  0  0  0  0  0  0  0
   22.5046   11.1815  -13.7128 C   0  0  0  0  0  0  0  0  0  0  0  0
   21.6202    9.6423  -11.5536 C   0  0  0  0  0  0  0  0  0  0  0  0
   21.2497   11.5586  -11.9567 C   0  0  0  0  0  0  0  0  0  0  0  0
   25.7339    6.6734  -16.0363 C   0  0  0  0  0  0  0  0  0  0  0  0
   20.7780   11.0998   -8.6862 C   0  0  0  0  0  0  0  0  0  0  0  0
   24.1235    9.2854  -14.7185 C   0  0  0  0  0  0  0  0  0  0  0  0
   23.4744   10.6166  -14.5564 C   0  0  0  0  0  0  0  0  0  0  0  0
   23.3183   13.2134  -12.5125 O   0  0  0  0  0  0  0  0  0  0  0  0
   20.2548   12.9203  -11.1492 C   0  0  0  0  0  0  0  0  0  0  0  0
   21.0001   12.9000   -8.5750 C   0  0  0  0  0  0  0  0  0  0  0  0
   27.2227    5.7957  -16.1696 C   0  0  0  0  0  0  0  0  0  0  0  0
   21.1624   13.4288   -7.8313 O   0  0  0  0  0  0  0  0  0  0  0  0
   21.0359   13.2851  -10.1479 C   0  0  0  0  0  0  0  0  0  0  0  0
   28.2458    6.1630  -16.6690 O   0  0  0  0  0  0  0  0  0  0  0  0
   19.0918   11.5036  -10.9149 C   0  0  0  0  0  0  0  0  0  0  0  0
   22.5711   12.8364  -12.8176 C   0  0  0  0  0  0  0  0  0  0  0  0
   27.6467    5.2151  -15.4267 O   0  0  0  0  0  0  0  0  0  0  0  0
   24.9616    7.9995  -15.4825 C   0  0  0  0  0  0  0  0  0  0  0  0
   22.2960    8.8161  -14.3406 C   0  0  0  0  0  0  0  0  0  0  0  0
   24.0794    6.8229  -14.9358 C   0  0  0  0  0  0  0  0  0  0  0  0
   23.2551    7.3372  -13.9441 C   0  0  0  0  0  0  0  0  0  0  0  0
   22.5709    8.3459  -12.7789 C   0  0  0  0  0  0  0  0  0  0  0  0
  3  1  1  0
  4  2  1  0
  5  1  1  0
  5  2  1  0
  8  3  1  0
 10  4  1  0
 10  9  1  0
 12  6  1  0
 13  8  1  0
 14  7  1  0
 15 13  1  0
 16 12  1  0
 16 13  1  0
 17 14  2  0
 18  1  1  0
 18  3  1  0
 18 12  1  0
 19  4  1  0
 19 11  2  0
 20 14  1  0
 21  7  1  0
 21  9  1  0
 22  2  1  0
 22  9  1  0
 23 21  1  0
 24 22  1  0
 24 23  1  0
 25  2  1  0
 25 22  1  0
 25 24  1  0
M  END
>  <ID>  (1) 
conformer_0

$$$$
