
     RDKit          3D

 25 34  0  0  0  0  0  0  0  0999 V2000
   24.0058   10.2417  -14.9851 C   0  0  0  0  0  0  0  0  0  0  0  0
   20.9962   13.1156   -9.4477 C   0  0  0  0  0  0  0  0  0  0  0  0
   21.5590    9.3529  -13.2066 C   0  0  0  0  0  0  0  0  0  0  0  0
   20.4000   10.8552   -9.6571 C   0  0  0  0  0  0  0  0  0  0  0  0
   20.3663   10.2209  -11.3010 C   0  0  0  0  0  0  0  0  0  0  0  0
   22.5479    8.0036  -12.6999 C   0  0  0  0  0  0  0  0  0  0  0  0
   20.7284   11.5460   -8.6178 C   0  0  0  0  0  0  0  0  0  0  0  0
   20.5940   13.1896  -10.7619 C   0  0  0  0  0  0  0  0  0  0  0  0
   21.5201    9.3341  -11.6123 C   0  0  0  0  0  0  0  0  0  0  0  0
   21.8476   11.0650  -12.5407 C   0  0  0  0  0  0  0  0  0  0  0  0
   22.7083   10.9563  -13.9420 C   0  0  0  0  0  0  0  0  0  0  0  0
   20.8874   12.2442  -11.9808 C   0  0  0  0  0  0  0  0  0  0  0  0
   26.4988    4.6075  -15.0380 O   0  0  0  0  0  0  0  0  0  0  0  0
   23.4142   12.9274  -12.4591 O   0  0  0  0  0  0  0  0  0  0  0  0
   21.3624   12.8784   -7.8249 C   0  0  0  0  0  0  0  0  0  0  0  0
   27.2641    6.2379  -15.9604 O   0  0  0  0  0  0  0  0  0  0  0  0
   23.3945    6.8705  -13.9339 C   0  0  0  0  0  0  0  0  0  0  0  0
   26.3113    5.8350  -15.9383 C   0  0  0  0  0  0  0  0  0  0  0  0
   24.6509    8.6365  -15.2927 C   0  0  0  0  0  0  0  0  0  0  0  0
   22.5431   12.5446  -12.4218 C   0  0  0  0  0  0  0  0  0  0  0  0
   24.2889    7.1242  -15.1914 C   0  0  0  0  0  0  0  0  0  0  0  0
   22.6531    8.3302  -14.6582 C   0  0  0  0  0  0  0  0  0  0  0  0
   19.5780   11.6245  -11.0343 C   0  0  0  0  0  0  0  0  0  0  0  0
   23.6042    9.3833  -13.6220 C   0  0  0  0  0  0  0  0  0  0  0  0
   24.9037    6.5822  -16.3912 C   0  0  0  0  0  0  0  0  0  0  0  0
  5  4  1  0
  6  3  1  0
  7  2  1  0
  7  4  1  0
  8  2  1  0
  9  3  1  0
  9  5  1  0
 10  3  1  0
 11  1  1  0
 11 10  1  0
 12  8  1  0
 12 10  1  0
 15  2  1  0
 15  7  1  0
 17  6  1  0
 18 13  1  0
 18 16  2  0
 19  1  1  0
 20 10  1  0
 20 12  1  0
 20 14  2  0
 21 17  1  0
 21 19  1  0
 22 17  1  0
 23  4  1  0
 23  5  1  0
 23  8  1  0
 23 12  1  0
 24  1  1  0
 24  6  1  0
 24 11  1  0
 24 22  1  0
 25 18  1  0
 25 21  1  0
M  END
>  <ID>  (1) 
conformer_0

$$$$
