
     RDKit          3D

 26 27  0  0  0  0  0  0  0  0999 V2000
   21.8830    9.1900  -14.0674 C   0  0  0  0  0  0  0  0  0  0  0  0
   22.6241    7.8408  -13.2890 C   0  0  0  0  0  0  0  0  0  0  0  0
   22.9674   10.9064  -14.5552 C   0  0  0  0  0  0  0  0  0  0  0  0
   19.4855   11.3991  -11.2956 C   0  0  0  0  0  0  0  0  0  0  0  0
   21.3589   11.5822  -12.4765 C   0  0  0  0  0  0  0  0  0  0  0  0
   24.0192    9.5800  -13.8749 C   0  0  0  0  0  0  0  0  0  0  0  0
   24.2931    9.5703  -15.1650 C   0  0  0  0  0  0  0  0  0  0  0  0
   23.2176    7.7213  -14.7531 C   0  0  0  0  0  0  0  0  0  0  0  0
   21.2579    9.9189  -10.6138 C   0  0  0  0  0  0  0  0  0  0  0  0
   23.2349   13.1749  -12.5412 O   0  0  0  0  0  0  0  0  0  0  0  0
   22.2902   10.6357  -13.0500 C   0  0  0  0  0  0  0  0  0  0  0  0
   26.6282    5.7369  -15.9255 C   0  0  0  0  0  0  0  0  0  0  0  0
   21.2654   12.8338   -8.1078 C   0  0  0  0  0  0  0  0  0  0  0  0
   27.7489    6.2186  -16.3833 O   0  0  0  0  0  0  0  0  0  0  0  0
   21.1532   12.4385  -10.2843 C   0  0  0  0  0  0  0  0  0  0  0  0
   22.2058   12.9104  -12.3458 C   0  0  0  0  0  0  0  0  0  0  0  0
   20.6532   13.0975  -11.5707 C   0  0  0  0  0  0  0  0  0  0  0  0
   22.1473    8.8064  -12.0608 C   0  0  0  0  0  0  0  0  0  0  0  0
   20.8226    9.7697  -11.8835 C   0  0  0  0  0  0  0  0  0  0  0  0
   26.9166    4.8124  -15.2215 O   0  0  0  0  0  0  0  0  0  0  0  0
   19.7554   11.0159   -9.9118 C   0  0  0  0  0  0  0  0  0  0  0  0
   24.1186    6.7988  -14.4345 C   0  0  0  0  0  0  0  0  0  0  0  0
   20.6052   11.0378   -9.0131 C   0  0  0  0  0  0  0  0  0  0  0  0
   25.2682    8.0605  -14.9995 C   0  0  0  0  0  0  0  0  0  0  0  0
   21.6085   12.2240   -7.6752 C   0  0  0  0  0  0  0  0  0  0  0  0
   25.4139    6.3448  -16.0366 C   0  0  0  0  0  0  0  0  0  0  0  0
  2  1  1  0
  6  3  1  0
  7  6  1  0
  8  2  1  0
 11  1  1  0
 11  3  1  0
 11  5  1  0
 14 12  2  0
 16  5  1  0
 16 10  2  0
 17  5  1  0
 17 15  1  0
 17 16  1  0
 18  2  1  0
 19  9  1  0
 19 18  1  0
 20 12  1  0
 21  4  1  0
 22  8  1  0
 23 15  1  0
 23 21  1  0
 24  7  1  0
 24 22  1  0
 25 13  1  0
 25 23  1  0
 26 12  1  0
 26 24  1  0
M  END
>  <ID>  (1) 
conformer_0

$$$$
