
     RDKit          3D

 26 29  0  0  0  0  0  0  0  0999 V2000
   19.5578   11.2450  -11.1782 C   0  0  0  0  0  0  0  0  0  0  0  0
   21.4783   11.5476  -11.7030 C   0  0  0  0  0  0  0  0  0  0  0  0
   20.8461   13.7001  -10.8371 C   0  0  0  0  0  0  0  0  0  0  0  0
   20.9733    9.8614  -10.9911 C   0  0  0  0  0  0  0  0  0  0  0  0
   19.9731   10.8359   -9.7388 C   0  0  0  0  0  0  0  0  0  0  0  0
   20.4716   12.6639  -12.2537 C   0  0  0  0  0  0  0  0  0  0  0  0
   22.3137    8.5947  -12.0534 C   0  0  0  0  0  0  0  0  0  0  0  0
   21.1495   12.8081   -9.7979 C   0  0  0  0  0  0  0  0  0  0  0  0
   22.1056   11.3702  -13.3669 C   0  0  0  0  0  0  0  0  0  0  0  0
   20.8142   11.2455   -8.7948 C   0  0  0  0  0  0  0  0  0  0  0  0
   23.1158    7.7180  -13.5858 C   0  0  0  0  0  0  0  0  0  0  0  0
   21.3271   12.4463   -7.8910 C   0  0  0  0  0  0  0  0  0  0  0  0
   23.3312   13.3306  -12.6686 O   0  0  0  0  0  0  0  0  0  0  0  0
   23.4328    7.3051  -15.2307 C   0  0  0  0  0  0  0  0  0  0  0  0
   28.1040    5.9086  -16.5121 O   0  0  0  0  0  0  0  0  0  0  0  0
   26.9936    5.4105  -16.1818 C   0  0  0  0  0  0  0  0  0  0  0  0
   26.9062    4.5383  -15.5267 O   0  0  0  0  0  0  0  0  0  0  0  0
   24.6518    7.0792  -15.8622 C   0  0  0  0  0  0  0  0  0  0  0  0
   25.4333    6.2786  -16.5892 C   0  0  0  0  0  0  0  0  0  0  0  0
   22.4765   12.9867  -12.5314 C   0  0  0  0  0  0  0  0  0  0  0  0
   24.2185    8.9713  -15.0707 C   0  0  0  0  0  0  0  0  0  0  0  0
   23.6724   10.3346  -14.4985 C   0  0  0  0  0  0  0  0  0  0  0  0
   21.2337    9.6210  -12.5086 C   0  0  0  0  0  0  0  0  0  0  0  0
   22.1074    8.5937  -14.2141 C   0  0  0  0  0  0  0  0  0  0  0  0
   21.3200   13.1013   -7.2383 O   0  0  0  0  0  0  0  0  0  0  0  0
   23.1293   10.0869  -13.1565 C   0  0  0  0  0  0  0  0  0  0  0  0
  4  2  1  0
  5  1  1  0
  5  4  1  0
  6  2  1  0
  6  3  1  0
  8  3  1  0
  9  2  1  0
 10  5  1  0
 10  8  1  0
 11  7  1  0
 12  8  1  0
 12 10  1  0
 14 11  1  0
 16 15  2  0
 17 16  1  0
 18 14  1  0
 19 16  1  0
 19 18  1  0
 20  2  1  0
 20  9  1  0
 20 13  1  0
 21 14  1  0
 22 21  1  0
 23  4  1  0
 23  7  1  0
 24 11  1  0
 25 12  2  0
 26  9  1  0
 26 22  1  0
M  END
>  <ID>  (1) 
conformer_0

$$$$
