
     RDKit          3D

 27 32  0  0  0  0  0  0  0  0999 V2000
   19.9435   10.7984   -9.8859 C   0  0  0  0  0  0  0  0  0  0  0  0
   22.6482    8.8928  -12.5596 C   0  0  0  0  0  0  0  0  0  0  0  0
   20.3938   11.6199   -8.8474 C   0  0  0  0  0  0  0  0  0  0  0  0
   20.1542   10.2296  -12.1765 C   0  0  0  0  0  0  0  0  0  0  0  0
   21.3909    9.3049  -11.5969 C   0  0  0  0  0  0  0  0  0  0  0  0
   23.3901    8.1157  -15.2630 C   0  0  0  0  0  0  0  0  0  0  0  0
   21.6357    8.9401  -13.8659 C   0  0  0  0  0  0  0  0  0  0  0  0
   23.1458   10.7120  -14.2152 C   0  0  0  0  0  0  0  0  0  0  0  0
   24.0382    9.2958  -14.2453 C   0  0  0  0  0  0  0  0  0  0  0  0
   22.2875   10.7434  -12.8328 C   0  0  0  0  0  0  0  0  0  0  0  0
   23.2699   13.0918  -12.5267 O   0  0  0  0  0  0  0  0  0  0  0  0
   21.3240   12.9360   -8.4819 C   0  0  0  0  0  0  0  0  0  0  0  0
   24.4545   10.0001  -15.5450 C   0  0  0  0  0  0  0  0  0  0  0  0
   25.2759    8.5626  -15.9717 C   0  0  0  0  0  0  0  0  0  0  0  0
   27.5656    6.0619  -15.8304 O   0  0  0  0  0  0  0  0  0  0  0  0
   26.1385    5.7808  -15.5237 C   0  0  0  0  0  0  0  0  0  0  0  0
   21.5195   12.9893   -7.3766 O   0  0  0  0  0  0  0  0  0  0  0  0
   26.6543    4.6862  -15.3415 O   0  0  0  0  0  0  0  0  0  0  0  0
   25.2857    7.0666  -15.9829 C   0  0  0  0  0  0  0  0  0  0  0  0
   22.6744   12.6585  -12.7642 C   0  0  0  0  0  0  0  0  0  0  0  0
   20.5484   12.9489  -11.0544 C   0  0  0  0  0  0  0  0  0  0  0  0
   21.2030   12.8511   -9.8657 C   0  0  0  0  0  0  0  0  0  0  0  0
   19.3135   11.5866  -11.0566 C   0  0  0  0  0  0  0  0  0  0  0  0
   21.5664   10.5986  -10.5204 C   0  0  0  0  0  0  0  0  0  0  0  0
   21.3714   11.9003  -12.0741 C   0  0  0  0  0  0  0  0  0  0  0  0
   23.1986    7.3958  -13.9265 C   0  0  0  0  0  0  0  0  0  0  0  0
   24.3100    6.2545  -14.7696 C   0  0  0  0  0  0  0  0  0  0  0  0
  3  1  1  0
  5  2  1  0
  5  4  1  0
  7  2  1  0
  9  6  1  0
  9  8  1  0
 10  2  1  0
 10  8  1  0
 12  3  1  0
 13  9  1  0
 14 13  1  0
 16 15  2  0
 17 12  1  0
 18 16  1  0
 19 14  1  0
 19 16  1  0
 20 10  1  0
 20 11  1  0
 22  3  1  0
 22 12  1  0
 22 21  1  0
 23  1  1  0
 23  4  1  0
 23 21  1  0
 24  1  1  0
 24  5  1  0
 25 10  1  0
 25 20  1  0
 25 21  1  0
 26  6  1  0
 27 19  1  0
 27 26  1  0
M  END
>  <ID>  (1) 
conformer_0

$$$$
