
     RDKit          3D

 30 38  0  0  0  0  0  0  0  0999 V2000
   21.3774   11.4997  -11.8487 C   0  0  2  0  0  0  0  0  0  0  0  0
   19.2097   11.2623  -10.8016 C   0  0  0  0  0  0  0  0  0  0  0  0
   20.4852   12.9996  -10.5304 C   0  0  1  0  0  0  0  0  0  0  0  0
   20.6434   10.0005  -10.9261 C   0  0  2  0  0  0  0  0  0  0  0  0
   22.3544   11.1390  -13.6627 C   0  0  0  0  0  0  0  0  0  0  0  0
   19.6935   12.4683  -11.7249 C   0  0  1  0  0  0  0  0  0  0  0  0
   23.4117    7.4904  -13.9288 C   0  0  1  0  0  0  0  0  0  0  0  0
   20.6365   11.7111   -8.8065 C   0  0  2  0  0  0  0  0  0  0  0  0
   23.6788   10.8903  -14.9000 C   0  0  0  0  0  0  0  0  0  0  0  0
   21.0833    9.9865  -12.6867 C   0  0  2  0  0  0  0  0  0  0  0  0
   27.3491    5.4732  -16.2792 C   0  0  0  0  0  0  0  0  0  0  0  0
   21.4990   13.1843   -8.9511 C   0  0  0  0  0  0  0  0  0  0  0  0
   23.5947    6.7638  -15.2662 C   0  0  0  0  0  0  0  0  0  0  0  0
   28.1014    5.9979  -16.4943 O   0  0  0  0  0  0  0  0  0  0  0  0
   23.1080   13.3650  -11.9773 O   0  0  0  0  0  0  0  0  0  0  0  0
   21.9184   12.4988   -6.5099 O   0  0  0  0  0  0  0  0  0  0  0  0
   21.6412   12.3534   -7.6877 C   0  0  1  0  0  0  0  0  0  0  0  0
   21.8212   13.2821  -11.3870 C   0  0  0  0  0  0  0  0  0  0  0  0
   24.7399    7.1129  -15.7556 C   0  0  1  0  0  0  0  0  0  0  0  0
   25.1455    8.8354  -15.1420 C   0  0  0  0  0  0  0  0  0  0  0  0
   24.3399    9.5633  -14.6408 C   0  0  1  0  0  0  0  0  0  0  0  0
   20.0720   10.7996   -9.5599 C   0  0  1  0  0  0  0  0  0  0  0  0
   21.7811   14.4358  -11.3176 O   0  0  0  0  0  0  0  0  0  0  0  0
   26.5643    5.2175  -15.4798 N   0  0  0  0  0  0  0  0  0  0  0  0
   25.3395    5.9231  -16.9969 C   0  0  0  0  0  0  0  0  0  0  0  0
   23.2059    9.9702  -13.0948 C   0  0  2  0  0  0  0  0  0  0  0  0
   22.3856    8.6717  -14.2892 C   0  0  2  0  0  0  0  0  0  0  0  0
   21.9173    9.0319  -11.4495 C   0  0  2  0  0  0  0  0  0  0  0  0
   22.4725    8.1318  -12.6102 C   0  0  2  0  0  0  0  0  0  0  0  0
   25.4958    6.0098  -15.9577 C   0  0  0  0  0  0  0  0  0  0  0  0
  4  1  1  0
  6  1  1  0
  6  2  1  1
  6  3  1  0
  9  5  1  0
 10  1  1  0
 10  4  1  0
 12  3  1  0
  8 12  1  6
  7 13  1  6
 14 11  2  0
 17  8  1  0
 17 12  1  0
 17 16  1  1
  1 18  1  1
  3 18  1  6
 18 15  1  0
 19 13  1  1
 20 19  1  0
 21  9  1  1
 21 20  1  0
 22  2  1  6
  4 22  1  6
 22  8  1  0
 23 18  1  0
 24 11  1  0
 26  5  1  6
 26 21  1  0
 27  7  1  0
 27 26  1  1
 28  4  1  0
 10 28  1  1
 29  7  1  1
 29 27  1  0
 28 29  1  6
 30 19  1  0
 30 24  1  0
 30 25  2  3
M  END
>  <ID>  (1) 
conformer_0

$$$$
