
     RDKit          3D

 30 41  0  0  0  0  0  0  0  0999 V2000
   22.3471   10.8526  -12.4630 C   0  0  0  0  0  0  0  0  0  0  0  0
   20.7756   11.0762   -8.5268 C   0  0  0  0  0  0  0  0  0  0  0  0
   23.8280   10.6387  -14.9765 C   0  0  0  0  0  0  0  0  0  0  0  0
   21.5425   13.1753   -9.4956 C   0  0  0  0  0  0  0  0  0  0  0  0
   21.0848   13.6042  -11.0340 C   0  0  0  0  0  0  0  0  0  0  0  0
   22.2329    8.0332  -12.8530 C   0  0  0  0  0  0  0  0  0  0  0  0
   22.1587    8.8000  -11.5285 C   0  0  0  0  0  0  0  0  0  0  0  0
   19.8028   11.3662   -9.3207 C   0  0  0  0  0  0  0  0  0  0  0  0
   19.4552   11.1202  -10.9013 C   0  0  0  0  0  0  0  0  0  0  0  0
   22.6845   11.5153  -14.2037 C   0  0  0  0  0  0  0  0  0  0  0  0
   23.3814    7.5413  -13.7521 C   0  0  0  0  0  0  0  0  0  0  0  0
   21.1319   12.5194   -8.1169 C   0  0  0  0  0  0  0  0  0  0  0  0
   23.4335   12.9977  -12.4831 O   0  0  0  0  0  0  0  0  0  0  0  0
   26.3859    5.5681  -16.0429 C   0  0  0  0  0  0  0  0  0  0  0  0
   26.6586    4.5192  -15.4277 O   0  0  0  0  0  0  0  0  0  0  0  0
   24.3792    8.3808  -15.2035 C   0  0  0  0  0  0  0  0  0  0  0  0
   27.6238    6.0396  -16.2631 O   0  0  0  0  0  0  0  0  0  0  0  0
   21.6233   12.9247   -7.2481 O   0  0  0  0  0  0  0  0  0  0  0  0
   19.4863   12.5809  -11.5373 C   0  0  0  0  0  0  0  0  0  0  0  0
   23.5383    6.8269  -15.2033 C   0  0  0  0  0  0  0  0  0  0  0  0
   22.6494   12.3275  -12.5057 C   0  0  0  0  0  0  0  0  0  0  0  0
   25.2141    6.6395  -15.1910 C   0  0  0  0  0  0  0  0  0  0  0  0
   25.1402    6.1130  -16.9514 C   0  0  0  0  0  0  0  0  0  0  0  0
   24.4083    9.5579  -13.9444 C   0  0  0  0  0  0  0  0  0  0  0  0
   20.8074   12.3341  -12.7316 C   0  0  0  0  0  0  0  0  0  0  0  0
   23.0234    9.8466  -13.3614 C   0  0  0  0  0  0  0  0  0  0  0  0
   22.0892    8.7797  -14.5353 C   0  0  0  0  0  0  0  0  0  0  0  0
   20.9114    9.9223  -10.5061 C   0  0  0  0  0  0  0  0  0  0  0  0
   21.1881   11.5934  -10.8130 C   0  0  0  0  0  0  0  0  0  0  0  0
   21.0049    9.8387  -12.4806 C   0  0  0  0  0  0  0  0  0  0  0  0
  5  4  1  0
  7  6  1  0
  8  2  1  0
  9  8  1  0
 10  1  1  0
 10  3  1  0
 11  6  1  0
 12  2  1  0
 12  4  1  0
 15 14  1  0
 16 11  1  0
 17 14  1  0
 18 12  1  0
 19  5  1  0
 19  9  1  0
 20 11  1  0
 20 16  1  0
 21  1  1  0
 21 10  1  0
 21 13  1  0
 22 14  1  0
 22 16  1  0
 22 20  1  0
 23 14  1  0
 23 22  1  0
 24  3  1  0
 24 16  1  0
 25 19  1  0
 25 21  1  0
 26  1  1  0
 26 10  1  0
 26 24  1  0
 27  6  1  0
 27 11  1  0
 27 26  1  0
 28  7  1  0
 28  9  1  0
 29  9  1  0
 29 28  1  0
 30  1  1  0
 30  7  1  0
M  END
>  <ID>  (1) 
conformer_0

$$$$
