
     RDKit          3D

 29 32  0  0  0  0  0  0  0  0999 V2000
   20.3237   12.8804  -11.1541 C   0  0  0  0  0  0  0  0  0  0  0  0
   21.2947   11.4649  -11.6218 C   0  0  0  0  0  0  0  0  0  0  0  0
   21.1428    9.4956  -12.6765 C   0  0  0  0  0  0  0  0  0  0  0  0
   20.9415   12.1185   -8.9171 C   0  0  0  0  0  0  0  0  0  0  0  0
   21.0377    9.9426  -10.7595 C   0  0  0  0  0  0  0  0  0  0  0  0
   22.5290    8.9408  -11.7588 C   0  0  0  0  0  0  0  0  0  0  0  0
   21.7147   11.2648  -13.5008 C   0  0  0  0  0  0  0  0  0  0  0  0
   22.9756    7.7568  -12.8800 C   0  0  0  0  0  0  0  0  0  0  0  0
   20.4792   10.7763   -8.9299 C   0  0  0  0  0  0  0  0  0  0  0  0
   21.4374   13.5297  -10.0328 C   0  0  0  0  0  0  0  0  0  0  0  0
   21.9599    9.1494  -14.3989 C   0  0  0  0  0  0  0  0  0  0  0  0
   26.6166    5.8084  -16.1645 C   0  0  0  0  0  0  0  0  0  0  0  0
   23.2144   12.9788  -12.1975 O   0  0  0  0  0  0  0  0  0  0  0  0
   21.4972   13.1110   -8.4915 C   0  0  0  0  0  0  0  0  0  0  0  0
   22.3466   12.4830  -12.3236 C   0  0  0  0  0  0  0  0  0  0  0  0
   23.6772    6.6332  -14.4441 C   0  0  0  0  0  0  0  0  0  0  0  0
   28.1223    5.6447  -16.4633 O   0  0  0  0  0  0  0  0  0  0  0  0
   21.6390   13.1934   -7.2888 O   0  0  0  0  0  0  0  0  0  0  0  0
   22.2791    7.5576  -14.4664 C   0  0  0  0  0  0  0  0  0  0  0  0
   25.1042    7.8312  -15.7757 C   0  0  0  0  0  0  0  0  0  0  0  0
   23.9059    8.8088  -14.4162 C   0  0  0  0  0  0  0  0  0  0  0  0
   26.6324    5.6733  -15.3399 N   0  0  0  0  0  0  0  0  0  0  0  0
   23.8921    6.7812  -15.8362 C   0  0  0  0  0  0  0  0  0  0  0  0
   19.4534   11.0498  -11.4569 C   0  0  0  0  0  0  0  0  0  0  0  0
   19.3556   11.2408  -10.1016 C   0  0  0  0  0  0  0  0  0  0  0  0
   25.5524    5.7854  -16.9819 C   0  0  0  0  0  0  0  0  0  0  0  0
   23.1129   10.0749  -13.1520 C   0  0  0  0  0  0  0  0  0  0  0  0
   24.5777    9.8517  -15.1644 C   0  0  0  0  0  0  0  0  0  0  0  0
   23.3041   11.0984  -14.6463 C   0  0  0  0  0  0  0  0  0  0  0  0
  2  1  1  0
  5  2  1  0
  6  3  1  0
  8  6  1  0
  9  4  1  0
 10  1  1  0
 11  3  1  0
 14  4  1  0
 14 10  1  0
 15  2  1  0
 15  7  1  0
 15 13  2  0
 17 12  2  0
 18 14  1  0
 19  8  1  0
 19 11  1  0
 19 16  1  0
 22 12  1  0
 23 16  1  0
 23 20  1  0
 24  2  1  0
 25  9  1  0
 25 24  1  0
 26 12  1  0
 26 23  1  0
 27  6  1  0
 27  7  1  0
 27 11  1  0
 28 21  1  0
 29  7  1  0
 29 27  1  0
 29 28  1  0
M  END
>  <ID>  (1) 
conformer_0

$$$$
