
     RDKit          3D

 22 25  0  0  0  0  0  0  0  0999 V2000
   22.4284    8.7666  -12.5642 C   0  0  0  0  0  0  0  0  0  0  0  0
   23.4515    7.7124  -13.6715 C   0  0  2  0  0  0  0  0  0  0  0  0
   24.9119    6.8510  -15.8538 C   0  0  0  0  0  0  0  0  0  0  0  0
   21.3196   11.4544  -12.1010 C   0  0  2  0  0  0  0  0  0  0  0  0
   20.7075   10.3545  -11.0822 C   0  0  1  0  0  0  0  0  0  0  0  0
   24.2080    7.0443  -14.8615 C   0  0  2  0  0  0  0  0  0  0  0  0
   23.8544   10.2544  -14.7126 C   0  0  2  0  0  0  0  0  0  0  0  0
   24.4831    8.9189  -15.1217 C   0  0  0  0  0  0  0  0  0  0  0  0
   19.6694   11.1982   -9.8493 C   0  0  1  0  0  0  0  0  0  0  0  0
   20.5046   11.4154   -8.9762 C   0  0  0  0  0  0  0  0  0  0  0  0
   21.1147   12.6420   -8.3425 C   0  0  0  0  0  0  0  0  0  0  0  0
   23.2183   12.9644  -11.7214 O   0  0  0  0  0  0  0  0  0  0  0  0
   26.3184    5.7165  -15.8266 C   0  0  0  0  0  0  0  0  0  0  0  0
   20.8501   12.8088  -10.3300 C   0  0  0  0  0  0  0  0  0  0  0  0
   21.6899   13.0556   -7.4940 O   0  0  0  0  0  0  0  0  0  0  0  0
   26.4958    4.6280  -15.1271 O   0  0  0  0  0  0  0  0  0  0  0  0
   27.6564    5.9353  -16.3288 O   0  0  0  0  0  0  0  0  0  0  0  0
   21.7156    9.7311  -12.6172 C   0  0  2  0  0  0  0  0  0  0  0  0
   22.8296   10.6794  -13.6709 C   0  0  0  0  0  0  0  0  0  0  0  0
   22.5747   12.5443  -12.2629 C   0  0  0  0  0  0  0  0  0  0  0  0
   22.5412    8.8423  -14.5865 C   0  0  0  0  0  0  0  0  0  0  0  0
   19.9029   12.4838  -11.2512 C   0  0  1  0  0  0  0  0  0  0  0  0
  2  1  1  1
  5  4  1  0
  6  2  1  0
  6  3  1  1
  8  6  1  0
  7  8  1  1
  5  9  1  6
  9 10  1  1
 11 10  2  3
 13  3  1  0
 15 11  1  0
 16 13  1  0
 17 13  2  0
 18  1  1  1
 18  4  1  0
 18  5  1  0
 19  7  1  0
 19 18  1  0
  4 20  1  1
 20 12  2  0
 21  2  1  0
 21  7  1  0
 22  4  1  0
 22  9  1  0
 22 14  1  1
M  END
>  <ID>  (1) 
conformer_0

$$$$
