
     RDKit          3D

 27 30  0  0  0  0  0  0  0  0999 V2000
   23.3323    7.3109  -13.6610 C   0  0  0  0  0  0  0  0  0  0  0  0
   22.0023   11.2603  -12.7791 C   0  0  0  0  0  0  0  0  0  0  0  0
   24.2478    9.5944  -15.1307 C   0  0  0  0  0  0  0  0  0  0  0  0
   23.1074   10.7994  -14.5637 C   0  0  0  0  0  0  0  0  0  0  0  0
   20.8700    9.9045  -11.6590 C   0  0  0  0  0  0  0  0  0  0  0  0
   22.1120    8.2180  -12.7697 C   0  0  0  0  0  0  0  0  0  0  0  0
   20.6413   11.0672   -8.7276 C   0  0  0  0  0  0  0  0  0  0  0  0
   22.5545    8.3998  -14.7050 C   0  0  0  0  0  0  0  0  0  0  0  0
   24.9647    8.3725  -15.0998 C   0  0  0  0  0  0  0  0  0  0  0  0
   23.2339   13.0955  -12.2785 O   0  0  0  0  0  0  0  0  0  0  0  0
   26.2850    6.1147  -15.8122 C   0  0  0  0  0  0  0  0  0  0  0  0
   21.3688   12.6104   -8.4837 C   0  0  0  0  0  0  0  0  0  0  0  0
   23.9193    6.6445  -14.7535 C   0  0  0  0  0  0  0  0  0  0  0  0
   25.3039    6.7023  -15.8182 C   0  0  0  0  0  0  0  0  0  0  0  0
   20.6863   13.5685  -11.2462 C   0  0  0  0  0  0  0  0  0  0  0  0
   21.8244   13.1561   -7.5345 O   0  0  0  0  0  0  0  0  0  0  0  0
   27.6766    6.3973  -16.2826 O   0  0  0  0  0  0  0  0  0  0  0  0
   22.2191   12.7191  -12.2122 C   0  0  0  0  0  0  0  0  0  0  0  0
   25.6664    4.4399  -15.8664 O   0  0  0  0  0  0  0  0  0  0  0  0
   21.1485   12.7920   -9.6300 C   0  0  0  0  0  0  0  0  0  0  0  0
   20.2755   12.4991  -11.9641 C   0  0  0  0  0  0  0  0  0  0  0  0
   19.7168   10.7386   -9.7274 C   0  0  0  0  0  0  0  0  0  0  0  0
   19.2486   11.7228  -11.0306 C   0  0  0  0  0  0  0  0  0  0  0  0
   21.1783   10.9830  -10.6546 C   0  0  0  0  0  0  0  0  0  0  0  0
   23.8052    9.7192  -13.3488 C   0  0  0  0  0  0  0  0  0  0  0  0
   22.7599    9.5296  -11.7776 C   0  0  0  0  0  0  0  0  0  0  0  0
   21.6976    9.6432  -13.7525 C   0  0  0  0  0  0  0  0  0  0  0  0
  4  3  1  0
  6  1  1  0
  8  1  1  0
  9  3  1  0
 12  7  1  0
 13  1  1  0
 14  9  1  0
 14 11  1  0
 14 13  1  0
 16 12  1  0
 17 11  2  0
 18  2  1  0
 18 10  2  0
 19 11  1  0
 20 12  1  0
 20 15  1  0
 21 15  1  0
 22  7  1  0
 23 21  1  0
 23 22  1  0
 24  5  1  0
 24 22  1  0
 25  3  1  0
 25  4  1  0
 26  5  1  0
 26  6  1  0
 26 25  1  0
 27  2  1  0
 27  6  1  0
 27  8  1  0
M  END
>  <ID>  (1) 
conformer_0

$$$$
