
     RDKit          3D

 23 23  0  0  0  0  0  0  0  0999 V2000
   20.9871   10.1112  -11.3964 C   0  0  0  0  0  0  0  0  0  0  0  0
   20.2829   12.8975  -11.3077 C   0  0  0  0  0  0  0  0  0  0  0  0
   21.8708    9.0102  -12.3605 C   0  0  0  0  0  0  0  0  0  0  0  0
   21.5986   11.2196  -12.2067 C   0  0  0  0  0  0  0  0  0  0  0  0
   23.5827   10.3239  -14.3330 C   0  0  0  0  0  0  0  0  0  0  0  0
   19.4381   11.6775  -11.0374 C   0  0  0  0  0  0  0  0  0  0  0  0
   22.7749    7.9208  -13.1505 C   0  0  0  0  0  0  0  0  0  0  0  0
   24.1584    8.9946  -14.7217 C   0  0  0  0  0  0  0  0  0  0  0  0
   20.2429   10.9218   -9.8001 C   0  0  0  0  0  0  0  0  0  0  0  0
   23.5355    7.5255  -14.9452 C   0  0  0  0  0  0  0  0  0  0  0  0
   23.3709   13.0977  -12.1062 O   0  0  0  0  0  0  0  0  0  0  0  0
   24.5147    6.9547  -15.5807 C   0  0  0  0  0  0  0  0  0  0  0  0
   21.9659   13.3802   -7.4195 O   0  0  0  0  0  0  0  0  0  0  0  0
   21.4596   12.8794   -8.2866 C   0  0  0  0  0  0  0  0  0  0  0  0
   26.7036    5.4634  -16.1039 C   0  0  0  0  0  0  0  0  0  0  0  0
   25.1861    5.7581  -16.7356 C   0  0  0  0  0  0  0  0  0  0  0  0
   22.2513   12.9497  -12.0436 C   0  0  0  0  0  0  0  0  0  0  0  0
   27.6350    6.1585  -16.3182 O   0  0  0  0  0  0  0  0  0  0  0  0
   22.6428   10.7252  -13.5422 C   0  0  0  0  0  0  0  0  0  0  0  0
   21.9091    8.9940  -14.3452 C   0  0  0  0  0  0  0  0  0  0  0  0
   20.9089   11.5248   -8.8167 C   0  0  0  0  0  0  0  0  0  0  0  0
   21.1943   13.3212  -10.0768 C   0  0  0  0  0  0  0  0  0  0  0  0
   27.1315    4.9094  -15.2779 O   0  0  0  0  0  0  0  0  0  0  0  0
  3  1  1  0
  4  1  1  0
  6  2  1  0
  7  3  1  0
  8  5  1  0
  9  1  1  0
  9  6  1  0
 10  8  1  0
 12 10  1  0
 14 13  1  0
 16 12  1  0
 16 15  1  0
 17  4  1  0
 17 11  2  0
 18 15  2  0
 19  4  2  0
 19  5  2  0
 20  7  1  0
 21  9  1  0
 21 14  1  0
 22  2  1  0
 22 14  1  0
 23 15  1  0
M  END
>  <ID>  (1) 
conformer_0

$$$$
