
     RDKit          3D

 24 27  0  0  0  0  0  0  0  0999 V2000
   20.1431   10.5055  -11.2468 C   0  0  2  0  0  0  0  0  0  0  0  0
   21.3889    9.4981  -11.3516 C   0  0  2  0  0  0  0  0  0  0  0  0
   21.4790    9.4092  -13.1705 C   0  0  1  0  0  0  0  0  0  0  0  0
   21.3523   11.4383  -11.9028 C   0  0  0  0  0  0  0  0  0  0  0  0
   20.6310   13.2190  -10.9176 C   0  0  1  0  0  0  0  0  0  0  0  0
   21.2179   13.5732   -9.9307 C   0  0  0  0  0  0  0  0  0  0  0  0
   23.1848   10.8211  -14.4756 C   0  0  0  0  0  0  0  0  0  0  0  0
   22.5675   10.6796  -13.2521 C   0  0  2  0  0  0  0  0  0  0  0  0
   20.2818   10.9587   -9.2836 C   0  0  0  0  0  0  0  0  0  0  0  0
   20.8144   11.3495   -9.0997 C   0  0  0  0  0  0  0  0  0  0  0  0
   24.0677    9.5289  -14.4883 C   0  0  1  0  0  0  0  0  0  0  0  0
   23.0817   13.4706  -12.4404 O   0  0  0  0  0  0  0  0  0  0  0  0
   26.5403    5.7786  -16.1528 C   0  0  0  0  0  0  0  0  0  0  0  0
   21.1384   12.6779   -8.2302 C   0  0  1  0  0  0  0  0  0  0  0  0
   22.7177    8.8727  -15.0090 C   0  0  0  0  0  0  0  0  0  0  0  0
   27.7875    5.8008  -16.3530 O   0  0  0  0  0  0  0  0  0  0  0  0
   21.3222   13.1429   -7.5050 O   0  0  0  0  0  0  0  0  0  0  0  0
   22.3084    8.3988  -12.5186 C   0  0  2  0  0  0  0  0  0  0  0  0
   22.2399   13.3889  -12.1559 C   0  0  0  0  0  0  0  0  0  0  0  0
   19.5622   11.9022  -11.0175 C   0  0  0  0  0  0  0  0  0  0  0  0
   24.9182    8.1750  -15.1874 C   0  0  0  0  0  0  0  0  0  0  0  0
   22.8004    7.7085  -13.8153 C   0  0  2  0  0  0  0  0  0  0  0  0
   23.7772    7.2357  -15.3396 C   0  0  2  0  0  0  0  0  0  0  0  0
   24.8161    6.4941  -16.2315 C   0  0  0  0  0  0  0  0  0  0  0  0
  2  1  1  6
  3  2  1  0
  4  1  1  0
  5  6  1  1
  3  8  1  1
  8  4  1  6
  8  7  1  0
 10  9  2  3
 11  7  1  6
 14  6  1  0
 14 10  1  0
 15 11  1  0
 16 13  2  0
 14 17  1  6
 18  2  1  0
 18  3  1  0
 19  5  1  0
 19 12  1  0
  1 20  1  1
 20  5  1  0
 21 11  1  0
 22 15  1  6
 18 22  1  6
 23 21  1  0
 23 22  1  0
 24 13  1  0
 23 24  1  1
M  END
>  <ID>  (1) 
conformer_0

$$$$
