
     RDKit          3D

 26 29  0  0  0  0  0  0  0  0999 V2000
   20.6694   11.6944   -9.2868 C   0  0  0  0  0  0  0  0  0  0  0  0
   20.8070   13.2824  -10.5597 C   0  0  0  0  0  0  0  0  0  0  0  0
   21.5327   11.3162  -11.9613 C   0  0  0  0  0  0  0  0  0  0  0  0
   19.4484   11.5723  -11.2171 C   0  0  0  0  0  0  0  0  0  0  0  0
   20.4537   12.8111  -11.8436 C   0  0  0  0  0  0  0  0  0  0  0  0
   20.0795   10.7273  -10.1173 C   0  0  0  0  0  0  0  0  0  0  0  0
   21.6839   12.9551   -8.9968 C   0  0  0  0  0  0  0  0  0  0  0  0
   23.6527    9.5801  -13.2524 C   0  0  0  0  0  0  0  0  0  0  0  0
   23.7407    6.5397  -14.7879 C   0  0  0  0  0  0  0  0  0  0  0  0
   24.4975    8.9308  -14.8239 C   0  0  0  0  0  0  0  0  0  0  0  0
   22.5187   11.1213  -13.8111 C   0  0  0  0  0  0  0  0  0  0  0  0
   23.2345   13.0651  -12.4597 O   0  0  0  0  0  0  0  0  0  0  0  0
   26.5898    5.5450  -15.8500 C   0  0  0  0  0  0  0  0  0  0  0  0
   26.5468    4.4666  -15.4670 O   0  0  0  0  0  0  0  0  0  0  0  0
   27.7005    5.8768  -16.1251 O   0  0  0  0  0  0  0  0  0  0  0  0
   22.3832   12.6603  -12.3019 C   0  0  0  0  0  0  0  0  0  0  0  0
   24.4658    7.3288  -15.8806 C   0  0  0  0  0  0  0  0  0  0  0  0
   25.3377    6.4413  -16.0471 C   0  0  0  0  0  0  0  0  0  0  0  0
   21.3674   13.2335   -8.6550 C   0  0  0  0  0  0  0  0  0  0  0  0
   21.0464   13.2527   -7.2790 O   0  0  0  0  0  0  0  0  0  0  0  0
   20.7363    9.7176  -11.1639 C   0  0  0  0  0  0  0  0  0  0  0  0
   23.2125    7.5248  -13.7349 C   0  0  0  0  0  0  0  0  0  0  0  0
   21.3835    9.6024  -12.7606 C   0  0  0  0  0  0  0  0  0  0  0  0
   22.2812    8.2347  -14.4599 C   0  0  0  0  0  0  0  0  0  0  0  0
   22.3621    8.6889  -12.2242 C   0  0  0  0  0  0  0  0  0  0  0  0
   23.8140   10.3420  -14.6188 C   0  0  0  0  0  0  0  0  0  0  0  0
  5  2  1  0
  5  3  1  0
  5  4  1  0
  6  1  1  0
  6  4  1  0
  7  1  1  0
  7  2  1  0
 10  8  1  0
 14 13  1  0
 15 13  2  0
 16  3  1  0
 16 12  2  0
 17  9  1  0
 17 10  1  0
 18 13  1  0
 18 17  1  0
 19  7  1  0
 20 19  1  0
 21  3  1  0
 21  6  1  0
 22  9  1  0
 23  3  1  0
 23 21  1  0
 24 22  1  0
 25  8  1  0
 25 23  1  0
 26  8  1  0
 26 10  1  0
 26 11  1  0
M  END
>  <ID>  (1) 
conformer_0

$$$$
