
     RDKit          3D

 25 30  0  0  0  0  0  0  0  0999 V2000
   19.6447   11.5030  -10.9177 C   0  0  0  0  0  0  0  0  0  0  0  0
   20.8192   13.7194  -10.8248 C   0  0  0  0  0  0  0  0  0  0  0  0
   22.4451    8.4669  -12.0571 C   0  0  0  0  0  0  0  0  0  0  0  0
   23.0754    7.4495  -13.6274 C   0  0  0  0  0  0  0  0  0  0  0  0
   19.9972   10.7399   -9.8373 C   0  0  0  0  0  0  0  0  0  0  0  0
   23.5472    6.6996  -15.0184 C   0  0  0  0  0  0  0  0  0  0  0  0
   21.1785   13.0485   -9.6802 C   0  0  0  0  0  0  0  0  0  0  0  0
   25.0926    6.3749  -16.4726 C   0  0  0  0  0  0  0  0  0  0  0  0
   20.5430   11.4651   -8.8439 C   0  0  0  0  0  0  0  0  0  0  0  0
   21.5714    9.6683  -11.2103 C   0  0  0  0  0  0  0  0  0  0  0  0
   23.1954   12.9826  -12.3946 O   0  0  0  0  0  0  0  0  0  0  0  0
   21.1345   12.7766   -8.0457 C   0  0  0  0  0  0  0  0  0  0  0  0
   20.8563   12.0157  -11.7295 C   0  0  0  0  0  0  0  0  0  0  0  0
   20.7372   10.2615  -12.1160 C   0  0  0  0  0  0  0  0  0  0  0  0
   26.7424    5.8950  -16.0019 C   0  0  0  0  0  0  0  0  0  0  0  0
   27.9958    5.8654  -16.6095 O   0  0  0  0  0  0  0  0  0  0  0  0
   21.8898   13.0401   -7.2422 O   0  0  0  0  0  0  0  0  0  0  0  0
   22.2516   12.5609  -12.2501 C   0  0  0  0  0  0  0  0  0  0  0  0
   25.2606    7.3449  -15.5378 C   0  0  0  0  0  0  0  0  0  0  0  0
   21.9905    8.9473  -13.7825 C   0  0  0  0  0  0  0  0  0  0  0  0
   21.8369   10.8553  -13.2081 C   0  0  0  0  0  0  0  0  0  0  0  0
   23.8649    8.3655  -14.7830 C   0  0  0  0  0  0  0  0  0  0  0  0
   23.1961   10.1242  -13.5348 C   0  0  0  0  0  0  0  0  0  0  0  0
   24.9284    9.4857  -15.0635 C   0  0  0  0  0  0  0  0  0  0  0  0
   23.9268   10.7597  -14.8263 C   0  0  0  0  0  0  0  0  0  0  0  0
  5  1  1  0
  6  4  1  0
  7  2  1  0
  9  5  1  0
  9  7  1  0
 10  3  1  0
 12  7  1  0
 12  9  1  0
 13  1  1  0
 13  2  1  0
 14 10  1  0
 14 13  1  0
 15  8  1  0
 16 15  1  0
 17 12  1  0
 18 11  1  0
 18 13  1  0
 19  6  1  0
 19  8  1  0
 20  3  1  0
 20  4  1  0
 21 14  1  0
 22  4  1  0
 22  6  1  0
 22 19  1  0
 23 20  1  0
 23 21  1  0
 24 22  1  0
 25 23  1  0
 25 24  1  0
M  END
>  <ID>  (1) 
conformer_0

$$$$
