
     RDKit          3D

 29 34  0  0  0  0  0  0  0  0999 V2000
   22.8032    7.8372  -12.9121 C   0  0  0  0  0  0  0  0  0  0  0  0
   22.4775   10.2765  -12.1741 C   0  0  0  0  0  0  0  0  0  0  0  0
   20.9379   10.3845  -10.3433 C   0  0  0  0  0  0  0  0  0  0  0  0
   24.9895    6.6458  -16.2294 C   0  0  0  0  0  0  0  0  0  0  0  0
   22.7477    8.8722  -14.4831 C   0  0  0  0  0  0  0  0  0  0  0  0
   23.1031    7.0761  -14.1364 C   0  0  0  0  0  0  0  0  0  0  0  0
   23.9323    9.9341  -14.0479 C   0  0  0  0  0  0  0  0  0  0  0  0
   24.5224    6.4069  -14.6253 C   0  0  0  0  0  0  0  0  0  0  0  0
   24.9995    8.8041  -15.3890 C   0  0  0  0  0  0  0  0  0  0  0  0
   23.9496    8.0100  -15.6185 C   0  0  0  0  0  0  0  0  0  0  0  0
   23.2793   13.1036  -12.7576 O   0  0  0  0  0  0  0  0  0  0  0  0
   21.4175    9.2320  -13.3747 C   0  0  0  0  0  0  0  0  0  0  0  0
   26.1883    6.0377  -15.8453 C   0  0  0  0  0  0  0  0  0  0  0  0
   19.3281   11.4356  -11.0242 C   0  0  0  0  0  0  0  0  0  0  0  0
   20.7230   11.2510  -12.5367 C   0  0  0  0  0  0  0  0  0  0  0  0
   21.0220   13.0680   -7.5820 O   0  0  0  0  0  0  0  0  0  0  0  0
   22.5344   12.4695  -11.9897 C   0  0  0  0  0  0  0  0  0  0  0  0
   21.1906   12.8287   -8.6714 C   0  0  0  0  0  0  0  0  0  0  0  0
   27.2627    6.3261  -16.4659 O   0  0  0  0  0  0  0  0  0  0  0  0
   26.9275    5.3751  -15.1535 O   0  0  0  0  0  0  0  0  0  0  0  0
   19.7810   10.9570   -9.3477 C   0  0  0  0  0  0  0  0  0  0  0  0
   21.6667   12.1285  -11.1505 C   0  0  0  0  0  0  0  0  0  0  0  0
   20.2656   13.0084  -11.1147 C   0  0  0  0  0  0  0  0  0  0  0  0
   20.9027   12.3896   -9.2608 C   0  0  0  0  0  0  0  0  0  0  0  0
   21.4978   13.9961   -9.9067 C   0  0  0  0  0  0  0  0  0  0  0  0
   24.0790   10.5472  -15.4089 C   0  0  0  0  0  0  0  0  0  0  0  0
   22.6341   10.9786  -13.8831 C   0  0  0  0  0  0  0  0  0  0  0  0
   20.3924    9.6562  -11.5625 C   0  0  0  0  0  0  0  0  0  0  0  0
   21.8516    8.5641  -11.6884 C   0  0  0  0  0  0  0  0  0  0  0  0
  6  1  1  0
  6  5  1  0
  7  5  1  0
  8  4  1  0
  8  6  1  0
 10  4  1  0
 10  5  1  0
 10  6  1  0
 10  9  1  0
 12  2  1  0
 12  5  1  0
 13  4  1  0
 17 11  1  0
 18 16  1  0
 19 13  2  0
 20 13  1  0
 21  3  1  0
 21 14  1  0
 22 15  1  0
 22 17  1  0
 23 14  1  0
 23 22  1  0
 24 18  1  0
 24 21  1  0
 25 18  1  0
 26  7  1  0
 27  2  1  0
 27  7  1  0
 28  3  1  0
 28 15  1  0
 29  1  1  0
 29  2  1  0
 29 12  1  0
 29 28  1  0
M  END
>  <ID>  (1) 
conformer_0

$$$$
