
     RDKit          3D

 27 28  0  0  0  0  0  0  0  0999 V2000
   19.4612   10.7872  -10.8793 C   0  0  1  0  0  0  0  0  0  0  0  0
   20.9406    9.5192  -12.4811 C   0  0  0  0  0  0  0  0  0  0  0  0
   21.0655   11.5958  -12.1250 C   0  0  2  0  0  0  0  0  0  0  0  0
   20.6204   13.4036  -11.0892 C   0  0  0  0  0  0  0  0  0  0  0  0
   23.1034   11.0417  -14.2486 C   0  0  0  0  0  0  0  0  0  0  0  0
   24.3377   10.4424  -14.9330 C   0  0  0  0  0  0  0  0  0  0  0  0
   19.5561   12.5971  -11.4810 C   0  0  2  0  0  0  0  0  0  0  0  0
   21.1846   10.1070  -11.0159 C   0  0  1  0  0  0  0  0  0  0  0  0
   21.7760    9.0656  -13.9044 C   0  0  2  0  0  0  0  0  0  0  0  0
   25.1473    8.7214  -15.0703 C   0  0  0  0  0  0  0  0  0  0  0  0
   22.9768    7.2479  -13.7005 C   0  0  0  0  0  0  0  0  0  0  0  0
   23.0302   12.9842  -12.1093 O   0  0  0  0  0  0  0  0  0  0  0  0
   26.3331    6.3056  -15.8572 C   0  0  0  0  0  0  0  0  0  0  0  0
   24.2986    9.1924  -13.7599 C   0  0  0  0  0  0  0  0  0  0  0  0
   22.2788   12.5475  -12.3009 C   0  0  0  0  0  0  0  0  0  0  0  0
   20.9672   12.5959   -7.9822 C   0  0  0  0  0  0  0  0  0  0  0  0
   27.6299    6.2701  -16.1743 O   0  0  0  0  0  0  0  0  0  0  0  0
   22.9319    8.3104  -14.9060 C   0  0  0  0  0  0  0  0  0  0  0  0
   20.4175   10.7582   -8.9434 C   0  0  0  0  0  0  0  0  0  0  0  0
   20.5411   11.7670   -9.7829 C   0  0  0  0  0  0  0  0  0  0  0  0
   21.1078   13.2455   -7.3270 O   0  0  0  0  0  0  0  0  0  0  0  0
   24.2916    6.6306  -14.6277 C   0  0  0  0  0  0  0  0  0  0  0  0
   24.3487    7.0474  -16.0412 C   0  0  0  0  0  0  0  0  0  0  0  0
   21.5244   12.5900   -8.9944 C   0  0  0  0  0  0  0  0  0  0  0  0
   25.2528    6.2466  -17.1114 C   0  0  0  0  0  0  0  0  0  0  0  0
   22.8727    8.6058  -12.1958 C   0  0  0  0  0  0  0  0  0  0  0  0
   22.7515   10.3933  -12.8704 C   0  0  1  0  0  0  0  0  0  0  0  0
  6  5  1  0
  7  1  1  0
  7  3  1  0
  7  4  1  1
  8  1  1  0
  8  2  1  6
  8  3  1  0
  9  2  1  1
 10  6  1  0
 14  6  1  0
 14 10  1  0
  3 15  1  1
 15 12  1  0
 17 13  1  0
 18  9  1  0
 18 11  1  0
  1 20  1  1
 20 19  2  3
 21 16  1  0
 22 11  1  0
 23 22  2  3
 24 16  1  0
 24 20  1  0
 25 13  1  0
 25 23  1  0
 27  5  1  0
 27  9  1  0
 27 26  1  6
M  END
>  <ID>  (1) 
conformer_0

$$$$
