
     RDKit          3D

 30 38  0  0  0  0  0  0  0  0999 V2000
   20.0414   10.3752  -10.2809 C   0  0  0  0  0  0  0  0  0  0  0  0
   19.1133   11.8571  -10.9728 C   0  0  0  0  0  0  0  0  0  0  0  0
   20.6758   13.5193  -10.7558 C   0  0  0  0  0  0  0  0  0  0  0  0
   24.3240    9.4159  -15.1703 C   0  0  0  0  0  0  0  0  0  0  0  0
   21.2842   11.5923  -11.1867 C   0  0  0  0  0  0  0  0  0  0  0  0
   20.0104   12.9404  -11.8166 C   0  0  0  0  0  0  0  0  0  0  0  0
   19.9651   11.6027   -9.4709 C   0  0  0  0  0  0  0  0  0  0  0  0
   21.8895    9.6258  -11.3999 C   0  0  0  0  0  0  0  0  0  0  0  0
   20.7293   11.0649   -8.4164 C   0  0  0  0  0  0  0  0  0  0  0  0
   20.4656   10.4208  -12.1120 C   0  0  0  0  0  0  0  0  0  0  0  0
   24.2845    9.1044  -13.7981 C   0  0  0  0  0  0  0  0  0  0  0  0
   23.0140   13.2367  -12.5225 O   0  0  0  0  0  0  0  0  0  0  0  0
   26.3545    5.7660  -15.9363 C   0  0  0  0  0  0  0  0  0  0  0  0
   27.6601    6.0554  -16.4278 O   0  0  0  0  0  0  0  0  0  0  0  0
   25.0749    7.3969  -15.1135 C   0  0  0  0  0  0  0  0  0  0  0  0
   21.5006   12.6151   -8.0613 C   0  0  0  0  0  0  0  0  0  0  0  0
   21.9385   13.0156   -7.1682 O   0  0  0  0  0  0  0  0  0  0  0  0
   26.4253    4.7796  -15.2989 O   0  0  0  0  0  0  0  0  0  0  0  0
   21.5792    8.9497  -13.1876 C   0  0  0  0  0  0  0  0  0  0  0  0
   21.3402   12.7501   -9.1720 C   0  0  0  0  0  0  0  0  0  0  0  0
   22.1519   13.0171  -11.9367 C   0  0  0  0  0  0  0  0  0  0  0  0
   25.1442    6.1013  -16.7068 C   0  0  0  0  0  0  0  0  0  0  0  0
   23.8787    6.6188  -15.3529 C   0  0  0  0  0  0  0  0  0  0  0  0
   22.9157    8.3551  -12.4193 C   0  0  0  0  0  0  0  0  0  0  0  0
   23.1984    6.9772  -13.8525 C   0  0  0  0  0  0  0  0  0  0  0  0
   21.9147   11.1734  -13.0886 C   0  0  0  0  0  0  0  0  0  0  0  0
   23.5938   10.9811  -14.6891 C   0  0  0  0  0  0  0  0  0  0  0  0
   23.1340   10.2646  -12.9507 C   0  0  0  0  0  0  0  0  0  0  0  0
   22.6924    8.0797  -14.6036 C   0  0  0  0  0  0  0  0  0  0  0  0
   22.0985    9.8321  -14.6649 C   0  0  0  0  0  0  0  0  0  0  0  0
  2  1  1  0
  5  1  1  0
  6  2  1  0
  6  3  1  0
  6  5  1  0
  7  1  1  0
  7  2  1  0
  9  7  1  0
 10  1  1  0
 10  5  1  0
 10  8  1  0
 11  4  1  0
 14 13  2  0
 16  9  1  0
 17 16  1  0
 18 13  1  0
 19  8  1  0
 20  3  1  0
 20  7  1  0
 20 16  1  0
 21  3  1  0
 21  5  1  0
 21 12  2  0
 22 13  1  0
 23 15  1  0
 23 22  1  0
 24  8  1  0
 24 19  1  0
 25 23  1  0
 26 10  1  0
 27  4  1  0
 28 11  1  0
 28 26  1  0
 28 27  1  0
 29 25  1  0
 30 19  1  0
 30 27  1  0
 30 29  1  0
M  END
>  <ID>  (1) 
conformer_0

$$$$
