
     RDKit          3D

 28 35  0  0  0  0  0  0  0  0999 V2000
   24.2523   10.0924  -15.0167 C   0  0  0  0  0  0  0  0  0  0  0  0
   21.2729   11.4297  -11.4749 C   0  0  0  0  0  0  0  0  0  0  0  0
   22.1699    8.9608  -14.3472 C   0  0  0  0  0  0  0  0  0  0  0  0
   23.0676   10.0481  -12.8873 C   0  0  0  0  0  0  0  0  0  0  0  0
   20.0739   12.5276  -12.3691 C   0  0  0  0  0  0  0  0  0  0  0  0
   22.9603    7.3670  -14.1199 C   0  0  0  0  0  0  0  0  0  0  0  0
   24.1605    6.7300  -14.9959 C   0  0  0  0  0  0  0  0  0  0  0  0
   25.4912    6.6244  -16.4609 C   0  0  0  0  0  0  0  0  0  0  0  0
   24.5602    8.0486  -15.6953 C   0  0  0  0  0  0  0  0  0  0  0  0
   21.5150   13.4921   -9.6596 C   0  0  0  0  0  0  0  0  0  0  0  0
   23.1712   13.0917  -11.9412 O   0  0  0  0  0  0  0  0  0  0  0  0
   23.1893   11.0427  -14.2384 C   0  0  0  0  0  0  0  0  0  0  0  0
   26.6086    5.8983  -15.8877 C   0  0  0  0  0  0  0  0  0  0  0  0
   27.7354    6.4641  -16.1766 O   0  0  0  0  0  0  0  0  0  0  0  0
   21.6688   12.6997   -8.4533 C   0  0  0  0  0  0  0  0  0  0  0  0
   21.9830   13.1145   -7.4960 O   0  0  0  0  0  0  0  0  0  0  0  0
   22.5402    8.2073  -12.5173 C   0  0  0  0  0  0  0  0  0  0  0  0
   24.1736    8.8135  -14.0880 C   0  0  0  0  0  0  0  0  0  0  0  0
   22.4007   12.7996  -11.8769 C   0  0  0  0  0  0  0  0  0  0  0  0
   26.7674    4.4643  -15.4244 O   0  0  0  0  0  0  0  0  0  0  0  0
   21.3513    9.3834  -12.2580 C   0  0  0  0  0  0  0  0  0  0  0  0
   21.7580   11.2533  -13.1377 C   0  0  0  0  0  0  0  0  0  0  0  0
   21.2188    9.6349  -10.8000 C   0  0  0  0  0  0  0  0  0  0  0  0
   20.5145   13.5146  -11.1544 C   0  0  0  0  0  0  0  0  0  0  0  0
   19.1419   12.1918  -10.9541 C   0  0  0  0  0  0  0  0  0  0  0  0
   19.5760   10.7727  -10.5292 C   0  0  0  0  0  0  0  0  0  0  0  0
   20.8966   11.8424   -9.3976 C   0  0  0  0  0  0  0  0  0  0  0  0
   20.1642   10.6964   -9.1479 C   0  0  0  0  0  0  0  0  0  0  0  0
  5  2  1  0
  6  3  1  0
  7  6  1  0
  9  7  1  0
  9  8  1  0
 12  1  1  0
 12  4  1  0
 13  8  1  0
 14 13  2  0
 15 10  1  0
 16 15  1  0
 17  4  1  0
 17  6  1  0
 18  1  1  0
 18  6  1  0
 18  9  1  0
 19  2  1  0
 19 11  2  0
 20 13  1  0
 21  4  1  0
 21 17  1  0
 22  2  1  0
 22  4  1  0
 22 12  1  0
 23  2  1  0
 23 21  1  0
 24  5  1  0
 24 10  1  0
 25  5  1  0
 25 24  1  0
 26 25  1  0
 27 10  1  0
 27 15  1  0
 28 26  1  0
 28 27  1  0
M  END
>  <ID>  (1) 
conformer_0

$$$$
