
     RDKit          3D

 28 32  0  0  0  0  0  0  0  0999 V2000
   22.7987    8.0483  -12.9331 C   0  0  1  0  0  0  0  0  0  0  0  0
   24.7689    9.9963  -15.3234 C   0  0  0  0  0  0  0  0  0  0  0  0
   21.4779    8.9148  -11.9504 C   0  0  1  0  0  0  0  0  0  0  0  0
   23.2133   10.8651  -14.6277 C   0  0  0  0  0  0  0  0  0  0  0  0
   22.9099    7.7933  -14.3310 C   0  0  1  0  0  0  0  0  0  0  0  0
   24.1023    8.7222  -14.8775 C   0  0  1  0  0  0  0  0  0  0  0  0
   20.0366    9.8049  -11.7077 C   0  0  2  0  0  0  0  0  0  0  0  0
   24.0057    6.4623  -14.6773 C   0  0  0  0  0  0  0  0  0  0  0  0
   21.7080    9.5017  -13.4697 C   0  0  1  0  0  0  0  0  0  0  0  0
   21.7468   11.7106  -13.1038 C   0  0  0  0  0  0  0  0  0  0  0  0
   23.2927   10.1359  -13.4801 C   0  0  0  0  0  0  0  0  0  0  0  0
   21.3615   12.1269   -7.6731 C   0  0  0  0  0  0  0  0  0  0  0  0
   23.4863   13.2282  -12.7324 O   0  0  0  0  0  0  0  0  0  0  0  0
   22.6419   12.7068  -12.5663 C   0  0  0  0  0  0  0  0  0  0  0  0
   26.3520    5.4408  -15.9235 C   0  0  0  0  0  0  0  0  0  0  0  0
   27.6993    5.9549  -16.2760 O   0  0  0  0  0  0  0  0  0  0  0  0
   24.5969    7.1927  -15.9314 C   0  0  2  0  0  0  0  0  0  0  0  0
   26.5853    4.3809  -15.1740 O   0  0  0  0  0  0  0  0  0  0  0  0
   25.2097    5.8689  -16.4048 C   0  0  0  0  0  0  0  0  0  0  0  0
   20.6449   10.5241   -9.8167 C   0  0  0  0  0  0  0  0  0  0  0  0
   20.7942   12.4744   -9.9799 C   0  0  0  0  0  0  0  0  0  0  0  0
   20.9771   13.3791  -11.4405 C   0  0  0  0  0  0  0  0  0  0  0  0
   21.8556   12.8595   -7.0726 O   0  0  0  0  0  0  0  0  0  0  0  0
   21.6967   13.0306   -9.4070 C   0  0  0  0  0  0  0  0  0  0  0  0
   20.6771   11.1144   -8.5804 C   0  0  2  0  0  0  0  0  0  0  0  0
   21.5141   10.7812  -11.7569 C   0  0  2  0  0  0  0  0  0  0  0  0
   19.9171   11.9817  -11.7171 C   0  0  0  0  0  0  0  0  0  0  0  0
   19.2216   10.9966  -10.3738 C   0  0  1  0  0  0  0  0  0  0  0  0
  3  1  1  0
  4  2  1  0
  1  5  1  6
  6  2  1  6
  6  5  1  0
  7  3  1  0
  5  8  1  1
  9  1  1  0
  9  3  1  0
 11  4  1  0
  9 11  1  1
 14 10  1  0
 14 13  2  0
 16 15  2  0
 17  6  1  0
 17  8  1  0
 18 15  1  0
 19 15  1  0
 17 19  1  1
 22 21  1  0
 23 12  1  0
 24 21  2  3
 25 12  1  1
 25 20  1  0
 25 21  1  0
  3 26  1  1
 26  7  1  0
 26 10  1  6
 27 22  1  0
  7 28  1  1
 28 20  1  1
 28 27  1  0
M  END
>  <ID>  (1) 
conformer_0

$$$$
