
     RDKit          3D

 28 33  0  0  0  0  0  0  0  0999 V2000
   25.7603    6.7384  -15.6676 C   0  0  0  0  0  0  0  0  0  0  0  0
   19.4164   10.6298  -11.1524 C   0  0  0  0  0  0  0  0  0  0  0  0
   19.1449   12.3908  -11.3642 C   0  0  0  0  0  0  0  0  0  0  0  0
   23.4831    6.5077  -14.7140 C   0  0  0  0  0  0  0  0  0  0  0  0
   20.0246   11.4656   -9.7561 C   0  0  0  0  0  0  0  0  0  0  0  0
   20.7716   12.2193  -11.7246 C   0  0  0  0  0  0  0  0  0  0  0  0
   21.2402   10.7678  -10.6076 C   0  0  0  0  0  0  0  0  0  0  0  0
   20.9396   11.2308   -8.4387 C   0  0  0  0  0  0  0  0  0  0  0  0
   21.1422    9.9360  -12.5146 C   0  0  0  0  0  0  0  0  0  0  0  0
   22.8533   13.4297  -12.5496 O   0  0  0  0  0  0  0  0  0  0  0  0
   26.7748    5.5324  -15.8775 C   0  0  0  0  0  0  0  0  0  0  0  0
   21.4074   13.0689   -7.5014 O   0  0  0  0  0  0  0  0  0  0  0  0
   20.5567   13.9484  -11.0215 C   0  0  0  0  0  0  0  0  0  0  0  0
   27.9879    5.4571  -16.5485 O   0  0  0  0  0  0  0  0  0  0  0  0
   21.1611   12.5246   -8.2529 C   0  0  0  0  0  0  0  0  0  0  0  0
   21.4325   13.4986   -9.5618 C   0  0  0  0  0  0  0  0  0  0  0  0
   26.7754    4.7932  -14.8633 O   0  0  0  0  0  0  0  0  0  0  0  0
   24.7312    6.0360  -16.4649 C   0  0  0  0  0  0  0  0  0  0  0  0
   21.8636   13.1567  -11.9030 C   0  0  0  0  0  0  0  0  0  0  0  0
   22.1016    8.7138  -14.2370 C   0  0  0  0  0  0  0  0  0  0  0  0
   23.6097    7.7348  -15.2964 C   0  0  0  0  0  0  0  0  0  0  0  0
   24.8736    8.3170  -15.5006 C   0  0  0  0  0  0  0  0  0  0  0  0
   24.0641    9.9332  -15.2756 C   0  0  0  0  0  0  0  0  0  0  0  0
   23.0195   11.0849  -14.4757 C   0  0  0  0  0  0  0  0  0  0  0  0
   22.3058   11.0282  -12.8077 C   0  0  0  0  0  0  0  0  0  0  0  0
   22.6423    7.6543  -13.3748 C   0  0  0  0  0  0  0  0  0  0  0  0
   22.0327    8.9800  -11.8933 C   0  0  0  0  0  0  0  0  0  0  0  0
   23.3741    9.6855  -13.8450 C   0  0  0  0  0  0  0  0  0  0  0  0
  3  2  1  0
  5  2  1  0
  6  3  1  0
  7  2  1  0
  7  5  1  0
  7  6  1  0
  8  5  1  0
  9  7  1  0
 11  1  1  0
 13  6  1  0
 14 11  2  0
 15  8  1  0
 15 12  1  0
 16 13  1  0
 16 15  1  0
 17 11  1  0
 18  1  1  0
 19  6  1  0
 19 10  2  0
 19 13  1  0
 21  4  1  0
 22  1  1  0
 22 21  1  0
 23 22  1  0
 24 23  1  0
 25  9  1  0
 25 24  1  0
 26  4  1  0
 26 20  1  0
 27  9  1  0
 28 20  1  0
 28 23  1  0
 28 24  1  0
M  END
>  <ID>  (1) 
conformer_0

$$$$
