
     RDKit          3D

 25 27  0  0  0  0  0  0  0  0999 V2000
   21.7741    9.2682  -12.5137 C   0  0  2  0  0  0  0  0  0  0  0  0
   21.7414   11.2130  -12.4619 C   0  0  1  0  0  0  0  0  0  0  0  0
   23.5153   10.5957  -14.8898 C   0  0  0  0  0  0  0  0  0  0  0  0
   22.7458   10.9441  -13.7665 C   0  0  2  0  0  0  0  0  0  0  0  0
   21.1049    9.9973  -11.4932 C   0  0  1  0  0  0  0  0  0  0  0  0
   22.5092    8.1660  -13.4490 C   0  0  2  0  0  0  0  0  0  0  0  0
   23.6941    9.5095  -12.8899 C   0  0  1  0  0  0  0  0  0  0  0  0
   22.0622    9.0570  -14.8108 C   0  0  0  0  0  0  0  0  0  0  0  0
   20.3116   11.2478   -9.0631 C   0  0  0  0  0  0  0  0  0  0  0  0
   21.1427   12.8761   -8.5479 C   0  0  0  0  0  0  0  0  0  0  0  0
   23.5358    7.2207  -14.1984 C   0  0  0  0  0  0  0  0  0  0  0  0
   23.2143   13.1812  -12.4954 O   0  0  0  0  0  0  0  0  0  0  0  0
   27.6665    5.9014  -15.8576 O   0  0  0  0  0  0  0  0  0  0  0  0
   24.3734    9.1073  -14.5167 C   0  0  0  0  0  0  0  0  0  0  0  0
   26.6520    5.4265  -15.6893 C   0  0  0  0  0  0  0  0  0  0  0  0
   26.4665    4.3850  -14.8533 O   0  0  0  0  0  0  0  0  0  0  0  0
   20.0528   10.7356  -10.2466 C   0  0  1  0  0  0  0  0  0  0  0  0
   22.1670   12.7774  -12.4979 C   0  0  0  0  0  0  0  0  0  0  0  0
   24.1753    7.2989  -15.2922 C   0  0  0  0  0  0  0  0  0  0  0  0
   25.2673    6.4481  -15.8125 C   0  0  0  0  0  3  0  0  0  0  0  0
   21.7044   13.5702   -7.9699 O   0  0  0  0  0  0  0  0  0  0  0  0
   21.1004   13.1994   -9.9616 C   0  0  0  0  0  0  0  0  0  0  0  0
   20.7426   12.9558   -7.2268 O   0  0  0  0  0  0  0  0  0  0  0  0
   19.7277   11.8718  -11.2066 C   0  0  0  0  0  0  0  0  0  0  0  0
   20.2163   12.9049  -11.7793 C   0  0  0  0  0  0  0  0  0  0  0  0
  2  1  1  0
  4  2  1  0
  4  3  1  6
  5  1  1  0
  5  2  1  0
  1  6  1  1
  7  4  1  0
  7  6  1  0
  6  8  1  6
 10  9  1  0
 11  6  1  0
 14  3  1  0
  7 14  1  6
 15 13  2  0
 16 15  1  0
  5 17  1  6
 17  9  1  1
  2 18  1  6
 18 12  2  0
 19 11  1  0
 20 15  1  0
 20 19  2  3
 21 10  1  0
 22 10  1  0
 23 10  1  0
 24 17  1  0
 25 24  2  3
M  RAD  1  20   2
M  END
>  <ID>  (1) 
conformer_0

$$$$
