
     RDKit          3D

 29 33  0  0  0  0  0  0  0  0999 V2000
   19.3829   12.1155  -11.1976 C   0  0  0  0  0  0  0  0  0  0  0  0
   20.5527   13.4203  -10.9999 C   0  0  0  0  0  0  0  0  0  0  0  0
   22.1315    8.7345  -14.1017 C   0  0  0  0  0  0  0  0  0  0  0  0
   21.0439   11.8279   -8.9215 C   0  0  0  0  0  0  0  0  0  0  0  0
   22.0569    8.1985  -12.1786 C   0  0  0  0  0  0  0  0  0  0  0  0
   19.3956   10.8050  -10.5027 C   0  0  0  0  0  0  0  0  0  0  0  0
   21.1091    9.5661  -11.0434 C   0  0  0  0  0  0  0  0  0  0  0  0
   22.9845    9.7412  -12.9054 C   0  0  0  0  0  0  0  0  0  0  0  0
   25.3432    6.6061  -16.1655 C   0  0  0  0  0  0  0  0  0  0  0  0
   21.5827   13.6999   -9.6785 C   0  0  0  0  0  0  0  0  0  0  0  0
   22.7543    7.3236  -13.5672 C   0  0  0  0  0  0  0  0  0  0  0  0
   23.3831   13.2251  -12.1532 O   0  0  0  0  0  0  0  0  0  0  0  0
   26.4183    5.8879  -15.7432 C   0  0  0  0  0  0  0  0  0  0  0  0
   21.1394   12.9116   -7.4683 O   0  0  0  0  0  0  0  0  0  0  0  0
   27.8097    6.2279  -16.2431 O   0  0  0  0  0  0  0  0  0  0  0  0
   20.2486   10.7445   -9.0586 C   0  0  0  0  0  0  0  0  0  0  0  0
   22.2681   13.2516  -11.6591 C   0  0  0  0  0  0  0  0  0  0  0  0
   21.2953   12.5470   -8.6376 C   0  0  0  0  0  0  0  0  0  0  0  0
   26.3203    4.7989  -15.1883 O   0  0  0  0  0  0  0  0  0  0  0  0
   23.7025    6.5731  -14.7287 C   0  0  0  0  0  0  0  0  0  0  0  0
   25.1172    8.3680  -15.8240 C   0  0  0  0  0  0  0  0  0  0  0  0
   23.6954    7.7997  -15.4182 C   0  0  0  0  0  0  0  0  0  0  0  0
   21.1459   11.4615  -10.9933 C   0  0  0  0  0  0  0  0  0  0  0  0
   21.2431   12.3413  -12.5664 C   0  0  0  0  0  0  0  0  0  0  0  0
   24.2620    9.3619  -14.1926 C   0  0  0  0  0  0  0  0  0  0  0  0
   22.2737   11.0888  -12.9894 C   0  0  0  0  0  0  0  0  0  0  0  0
   24.3978   10.1336  -15.3205 C   0  0  0  0  0  0  0  0  0  0  0  0
   23.1978   11.2239  -14.3057 C   0  0  0  0  0  0  0  0  0  0  0  0
   20.7844    9.7584  -12.3565 C   0  0  0  0  0  0  0  0  0  0  0  0
  2  1  1  0
  6  1  1  0
  8  3  1  0
  8  5  1  0
 10  2  1  0
 11  3  1  0
 11  5  1  0
 13  9  1  0
 15 13  2  0
 16  4  1  0
 16  6  1  0
 17  2  1  0
 17 12  2  0
 18  4  1  0
 18 10  1  0
 18 14  1  0
 19 13  1  0
 20 11  1  0
 21  9  1  0
 22 20  1  0
 22 21  1  0
 23  1  1  0
 23  6  1  0
 23  7  1  0
 24 17  1  0
 24 23  1  0
 25  8  1  0
 26  8  1  0
 26 24  1  0
 27 25  1  0
 28 26  2  0
 28 27  1  0
 29  7  1  0
M  END
>  <ID>  (1) 
conformer_0

$$$$
