
     RDKit          3D

 25 28  0  0  0  0  0  0  0  0999 V2000
   20.8448   10.4892  -10.3625 C   0  0  0  0  0  0  0  0  0  0  0  0
   21.0517   12.6152   -9.8243 C   0  0  0  0  0  0  0  0  0  0  0  0
   23.3671   11.0817  -14.5181 C   0  0  0  0  0  0  0  0  0  0  0  0
   22.3623   10.7830  -12.7829 C   0  0  0  0  0  0  0  0  0  0  0  0
   21.0214   10.8597  -12.0607 C   0  0  0  0  0  0  0  0  0  0  0  0
   19.3129   11.0501  -10.5893 C   0  0  0  0  0  0  0  0  0  0  0  0
   21.3747    9.2621  -12.1144 C   0  0  0  0  0  0  0  0  0  0  0  0
   20.6854   11.2372   -8.7828 C   0  0  0  0  0  0  0  0  0  0  0  0
   21.8075    9.2015  -14.2649 C   0  0  0  0  0  0  0  0  0  0  0  0
   26.5296    5.5426  -15.8412 C   0  0  0  0  0  0  0  0  0  0  0  0
   24.1380    9.1870  -14.9488 C   0  0  0  0  0  0  0  0  0  0  0  0
   21.5152   13.1770   -7.4617 O   0  0  0  0  0  0  0  0  0  0  0  0
   23.3832   12.8186  -11.8576 O   0  0  0  0  0  0  0  0  0  0  0  0
   22.4743   12.1676  -12.4250 C   0  0  0  0  0  0  0  0  0  0  0  0
   21.2838   12.6827   -8.3141 C   0  0  0  0  0  0  0  0  0  0  0  0
   27.8003    5.6679  -16.4202 O   0  0  0  0  0  0  0  0  0  0  0  0
   21.5327   13.1563  -13.5423 O   0  0  0  0  0  0  0  0  0  0  0  0
   24.3534    7.2802  -14.8492 C   0  0  0  0  0  0  0  0  0  0  0  0
   26.9765    4.4988  -15.0008 O   0  0  0  0  0  0  0  0  0  0  0  0
   22.3908    8.2725  -13.3885 C   0  0  0  0  0  0  0  0  0  0  0  0
   23.3553    7.1685  -14.1617 C   0  0  0  0  0  0  0  0  0  0  0  0
   19.4726   12.2001  -11.4447 C   0  0  0  0  0  0  0  0  0  0  0  0
   20.5372   13.4207  -11.2158 C   0  0  0  0  0  0  0  0  0  0  0  0
   25.1831    6.5809  -16.0272 C   0  0  0  0  0  0  0  0  0  0  0  0
   23.6513    9.8916  -13.6091 C   0  0  0  0  0  0  0  0  0  0  0  0
  5  1  1  0
  5  4  1  0
  6  1  1  0
  7  4  1  0
  7  5  1  0
  8  1  1  0
  8  2  1  0
 14  4  1  0
 14 13  2  0
 15  2  1  0
 15  8  1  0
 15 12  1  0
 16 10  2  0
 17 14  1  0
 18 11  1  0
 19 10  1  0
 20  7  1  0
 20  9  1  0
 21 18  1  0
 21 20  1  0
 22  6  1  0
 23  2  1  0
 23 22  1  0
 24 10  1  0
 24 18  1  0
 25  3  1  0
 25  4  1  0
 25 11  1  0
M  END
>  <ID>  (1) 
conformer_0

$$$$
