
     RDKit          3D

 29 32  0  0  0  0  0  0  0  0999 V2000
   24.5962    9.7770  -15.1883 C   0  0  0  0  0  0  0  0  0  0  0  0
   21.6247    9.4641  -11.2841 C   0  0  0  0  0  0  0  0  0  0  0  0
   22.2869    8.4686  -12.2874 C   0  0  0  0  0  0  0  0  0  0  0  0
   24.1867    6.9243  -15.7254 C   0  0  0  0  0  0  0  0  0  0  0  0
   23.4436   10.9401  -14.8825 C   0  0  0  0  0  0  0  0  0  0  0  0
   18.9261   11.4337  -10.6340 C   0  0  0  0  0  0  0  0  0  0  0  0
   25.0785    8.2395  -15.3398 C   0  0  0  0  0  0  0  0  0  0  0  0
   25.3468    6.2645  -15.9294 C   0  0  0  0  0  0  0  0  0  0  0  0
   20.5022   11.3754   -8.4635 C   0  0  0  0  0  0  0  0  0  0  0  0
   19.6531   10.6553   -9.7382 C   0  0  0  0  0  0  0  0  0  0  0  0
   22.9027    7.6851  -13.3773 C   0  0  0  0  0  0  0  0  0  0  0  0
   23.5192    6.8854  -14.2578 C   0  0  0  0  0  0  0  0  0  0  0  0
   23.3221   13.1700  -12.2777 O   0  0  0  0  0  0  0  0  0  0  0  0
   27.6642    5.8407  -15.9956 O   0  0  0  0  0  0  0  0  0  0  0  0
   26.4966    5.5405  -15.7512 C   0  0  0  0  0  0  0  0  0  0  0  0
   21.2396   12.7538   -7.0460 O   0  0  0  0  0  0  0  0  0  0  0  0
   26.3041    4.3527  -15.0072 O   0  0  0  0  0  0  0  0  0  0  0  0
   22.3284   12.9499  -11.4735 C   0  0  0  0  0  0  0  0  0  0  0  0
   22.9857    8.7001  -15.0845 C   0  0  0  0  0  0  0  0  0  0  0  0
   21.3333   12.6968   -8.3596 C   0  0  0  0  0  0  0  0  0  0  0  0
   23.5149    9.8922  -13.4525 C   0  0  0  0  0  0  0  0  0  0  0  0
   21.9573   11.1239  -13.5452 C   0  0  0  0  0  0  0  0  0  0  0  0
   22.0733   10.9774  -12.1071 C   0  0  0  0  0  0  0  0  0  0  0  0
   21.0862   12.9356   -9.1947 C   0  0  0  0  0  0  0  0  0  0  0  0
   20.3238   12.5376  -11.8718 C   0  0  0  0  0  0  0  0  0  0  0  0
   21.0540   13.8699  -10.8888 C   0  0  0  0  0  0  0  0  0  0  0  0
   21.7111    9.3892  -14.0591 C   0  0  0  0  0  0  0  0  0  0  0  0
   20.2145   10.2702  -11.7722 C   0  0  0  0  0  0  0  0  0  0  0  0
   20.8657   11.5126  -10.4833 C   0  0  0  0  0  0  0  0  0  0  0  0
  3  2  1  0
  5  1  1  0
  7  1  1  0
  7  4  1  0
  8  4  1  0
 10  6  1  0
 10  9  1  0
 11  3  3  0
 12  4  1  0
 12 11  1  0
 15  8  1  0
 15 14  2  0
 17 15  1  0
 18 13  1  0
 19  1  1  0
 20  9  1  0
 20 16  1  0
 21  5  1  0
 23  2  1  0
 23 22  1  0
 24 20  1  0
 26 18  1  0
 26 24  1  0
 26 25  1  0
 27 19  1  0
 27 21  1  0
 27 22  1  0
 28  2  1  0
 29 10  1  0
 29 24  1  0
 29 25  1  0
 29 28  1  0
M  END
>  <ID>  (1) 
conformer_0

$$$$
