
     RDKit          3D

 27 32  0  0  0  0  0  0  0  0999 V2000
   19.7945   10.8600   -9.3846 C   0  0  0  0  0  0  0  0  0  0  0  0
   23.5271    7.0834  -14.4225 C   0  0  0  0  0  0  0  0  0  0  0  0
   20.4637   12.9554  -11.3535 C   0  0  0  0  0  0  0  0  0  0  0  0
   20.6724   11.8569   -8.6575 C   0  0  0  0  0  0  0  0  0  0  0  0
   24.4172   10.2214  -14.9602 C   0  0  0  0  0  0  0  0  0  0  0  0
   24.9477    8.8997  -14.7637 C   0  0  0  0  0  0  0  0  0  0  0  0
   21.0478   11.9208  -12.5457 C   0  0  0  0  0  0  0  0  0  0  0  0
   22.8288   11.1344  -14.2859 C   0  0  0  0  0  0  0  0  0  0  0  0
   19.5704   11.3786  -11.1357 C   0  0  0  0  0  0  0  0  0  0  0  0
   21.1494   12.6359  -10.0967 C   0  0  0  0  0  0  0  0  0  0  0  0
   21.6900    9.5428  -13.8838 C   0  0  0  0  0  0  0  0  0  0  0  0
   21.2447   13.0223   -8.5140 C   0  0  0  0  0  0  0  0  0  0  0  0
   26.4733    5.5674  -15.8343 C   0  0  0  0  0  0  0  0  0  0  0  0
   23.4331   12.9779  -12.4259 O   0  0  0  0  0  0  0  0  0  0  0  0
   27.5419    5.9666  -16.1519 O   0  0  0  0  0  0  0  0  0  0  0  0
   26.2686    4.4406  -15.0802 O   0  0  0  0  0  0  0  0  0  0  0  0
   22.5986   12.3407  -12.4404 C   0  0  0  0  0  0  0  0  0  0  0  0
   24.8904    7.5711  -15.5242 C   0  0  0  0  0  0  0  0  0  0  0  0
   24.9635    6.4510  -15.9598 C   0  0  0  0  0  0  0  0  0  0  0  0
   21.4241   13.6450   -7.9757 O   0  0  0  0  0  0  0  0  0  0  0  0
   22.7653    8.8152  -15.1177 C   0  0  0  0  0  0  0  0  0  0  0  0
   20.5536   10.2510  -10.4966 C   0  0  0  0  0  0  0  0  0  0  0  0
   23.5094    9.8594  -13.5256 C   0  0  0  0  0  0  0  0  0  0  0  0
   21.9365   10.8102  -12.2653 C   0  0  0  0  0  0  0  0  0  0  0  0
   20.9013    9.5181  -11.6725 C   0  0  0  0  0  0  0  0  0  0  0  0
   22.7435    7.7786  -13.3600 C   0  0  0  0  0  0  0  0  0  0  0  0
   22.0316    8.5402  -12.0790 C   0  0  0  0  0  0  0  0  0  0  0  0
  4  1  1  0
  6  5  1  0
  7  3  1  0
  8  5  1  0
  9  1  1  0
  9  3  1  0
 10  3  1  0
 10  4  1  0
 12  4  1  0
 12 10  1  0
 15 13  2  0
 16 13  1  0
 17  7  1  0
 17 14  2  0
 18  2  1  0
 18  6  1  0
 19 13  1  0
 19 18  1  0
 20 12  1  0
 21 11  1  0
 22  1  1  0
 22  9  1  0
 23  5  1  0
 23  8  1  0
 23 11  1  0
 24  7  1  0
 24 17  1  0
 25 22  1  0
 25 24  1  0
 26  2  2  0
 27 25  1  0
 27 26  2  0
M  END
>  <ID>  (1) 
conformer_0

$$$$
