
     RDKit          3D

 27 31  0  0  0  0  0  0  0  0999 V2000
   23.6974    7.3424  -14.7902 C   0  0  2  0  0  0  0  0  0  0  0  0
   20.7043   12.4234  -12.0412 C   0  0  1  0  0  0  0  0  0  0  0  0
   19.4833   11.5570  -10.7774 C   0  0  0  0  0  0  0  0  0  0  0  0
   19.8967   10.8689   -9.7195 C   0  0  0  0  0  0  0  0  0  0  0  0
   22.5844   10.8686  -13.0312 C   0  0  1  0  0  0  0  0  0  0  0  0
   23.2972   10.9019  -14.3721 C   0  0  0  0  0  0  0  0  0  0  0  0
   20.6046   11.7046   -8.9277 C   0  0  2  0  0  0  0  0  0  0  0  0
   24.2070    9.7921  -14.2786 C   0  0  0  0  0  0  0  0  0  0  0  0
   20.1384   13.5423  -11.3242 C   0  0  0  0  0  0  0  0  0  0  0  0
   23.0418   13.1111  -12.0192 O   0  0  0  0  0  0  0  0  0  0  0  0
   25.2697    7.2337  -15.5984 C   0  0  1  0  0  0  0  0  0  0  0  0
   26.8596    5.3845  -16.3145 C   0  0  0  0  0  0  0  0  0  0  0  0
   21.0525   12.3537   -7.8319 C   0  0  0  0  0  0  0  0  0  0  0  0
   21.0472   13.2397  -10.0013 C   0  0  0  0  0  0  0  0  0  0  0  0
   21.5643   12.7895   -7.2827 O   0  0  0  0  0  0  0  0  0  0  0  0
   25.2115    6.3184  -16.4511 C   0  0  0  0  0  0  0  0  0  0  0  0
   27.8862    5.7030  -16.9154 O   0  0  0  0  0  0  0  0  0  0  0  0
   22.2819    8.9283  -14.6459 C   0  0  0  0  0  0  0  0  0  0  0  0
   22.4304   12.2935  -12.4658 C   0  0  0  0  0  0  0  0  0  0  0  0
   27.5441    4.6036  -15.4240 O   0  0  0  0  0  0  0  0  0  0  0  0
   21.4156   10.7522  -11.2425 C   0  0  0  0  0  0  0  0  0  0  0  0
   20.8907    9.5885  -11.6613 C   0  0  1  0  0  0  0  0  0  0  0  0
   24.2540    8.7611  -15.4180 C   0  0  1  0  0  0  0  0  0  0  0  0
   21.5550    9.5342  -13.4159 C   0  0  2  0  0  0  0  0  0  0  0  0
   22.8479    7.9175  -13.1436 C   0  0  2  0  0  0  0  0  0  0  0  0
   22.3822    8.5974  -11.9288 C   0  0  2  0  0  0  0  0  0  0  0  0
   21.7731   13.1598   -9.8810 C   0  0  0  0  0  0  0  0  0  0  0  0
  3  2  1  0
  4  3  1  0
  6  5  1  0
  7  4  1  0
  8  6  1  0
  9  2  1  0
  1 11  1  1
  7 13  1  1
 14  7  1  0
 14  9  1  0
 15 13  1  0
 11 16  1  6
 16 12  1  0
 17 12  2  0
  2 19  1  1
  5 19  1  6
 19 10  2  0
 20 12  1  0
 22 21  1  1
 23  1  1  0
 23  8  1  1
 23 11  1  0
 24  5  1  0
 24 18  1  1
 24 22  1  0
 25  1  1  0
 25 18  1  6
 26 22  1  1
 26 24  1  0
 26 25  1  0
 27 14  2  3
M  END
>  <ID>  (1) 
conformer_0

$$$$
