
     RDKit          3D

 25 27  0  0  0  0  0  0  0  0999 V2000
   22.3434   10.4865  -12.6823 C   0  0  0  0  0  0  0  0  0  0  0  0
   20.4644    9.8629  -11.9265 C   0  0  0  0  0  0  0  0  0  0  0  0
   22.1515    8.9710  -14.1566 C   0  0  0  0  0  0  0  0  0  0  0  0
   22.6231   10.9245  -14.0872 C   0  0  0  0  0  0  0  0  0  0  0  0
   21.8330    9.1074  -11.7149 C   0  0  0  0  0  0  0  0  0  0  0  0
   19.7255   11.2570  -10.1747 C   0  0  0  0  0  0  0  0  0  0  0  0
   23.1015    8.5979  -12.7794 C   0  0  0  0  0  0  0  0  0  0  0  0
   24.4703    9.1294  -15.1030 C   0  0  0  0  0  0  0  0  0  0  0  0
   24.0495    9.8883  -14.3334 C   0  0  0  0  0  0  0  0  0  0  0  0
   23.1594   13.0905  -12.2536 O   0  0  0  0  0  0  0  0  0  0  0  0
   21.2671   11.6924  -12.3795 C   0  0  0  0  0  0  0  0  0  0  0  0
   20.5613   10.5371  -10.2371 C   0  0  0  0  0  0  0  0  0  0  0  0
   19.7278   12.3446  -11.5014 C   0  0  0  0  0  0  0  0  0  0  0  0
   26.8492    5.4206  -16.2397 C   0  0  0  0  0  0  0  0  0  0  0  0
   28.0878    5.8945  -16.6598 O   0  0  0  0  0  0  0  0  0  0  0  0
   21.2038   12.6345   -7.8967 C   0  0  0  0  0  0  0  0  0  0  0  0
   22.1790   12.7174  -11.9370 C   0  0  0  0  0  0  0  0  0  0  0  0
   20.5581   13.2646  -10.8089 C   0  0  0  0  0  0  0  0  0  0  0  0
   23.2129    7.4236  -14.0209 C   0  0  0  0  0  0  0  0  0  0  0  0
   27.0383    4.5496  -15.4007 O   0  0  0  0  0  0  0  0  0  0  0  0
   24.7359    7.5307  -15.6488 C   0  0  0  0  0  0  0  0  0  0  0  0
   20.7819   11.4679   -8.3358 C   0  0  0  0  0  0  0  0  0  0  0  0
   24.0208    6.6567  -15.1223 C   0  0  0  0  0  0  0  0  0  0  0  0
   21.3740   13.2481   -9.2140 C   0  0  0  0  0  0  0  0  0  0  0  0
   25.6411    5.7006  -16.7976 C   0  0  0  0  0  0  0  0  0  0  0  0
  4  1  1  0
  5  1  1  0
  5  2  1  0
  7  3  1  0
  7  5  1  0
  9  4  1  0
  9  8  1  0
 11  1  1  0
 12  2  1  0
 12  6  1  0
 13  6  1  0
 13 11  1  0
 15 14  2  0
 17 10  2  0
 17 11  1  0
 18 13  1  0
 19  3  1  0
 19  7  1  0
 20 14  1  0
 21  8  1  0
 22 16  1  0
 23 19  1  0
 23 21  1  0
 24 16  1  0
 24 18  1  0
 25 14  1  0
 25 21  1  0
M  END
>  <ID>  (1) 
conformer_0

$$$$
