
     RDKit          3D

 28 33  0  0  0  0  0  0  0  0999 V2000
   21.6066    9.6828  -11.2290 C   0  0  0  0  0  0  0  0  0  0  0  0
   20.7038   13.4965  -11.5432 C   0  0  0  0  0  0  0  0  0  0  0  0
   24.1147    7.8461  -15.7141 C   0  0  0  0  0  0  0  0  0  0  0  0
   25.3442    6.6438  -15.7705 C   0  0  0  0  0  0  0  0  0  0  0  0
   21.1702   13.8515  -10.0711 C   0  0  0  0  0  0  0  0  0  0  0  0
   24.2677    6.3557  -14.6411 C   0  0  0  0  0  0  0  0  0  0  0  0
   21.3324   11.8014  -12.0732 C   0  0  0  0  0  0  0  0  0  0  0  0
   22.1488    8.3289  -12.1693 C   0  0  0  0  0  0  0  0  0  0  0  0
   24.3258   10.2810  -15.2290 C   0  0  0  0  0  0  0  0  0  0  0  0
   25.0722    8.8445  -15.1450 C   0  0  0  0  0  0  0  0  0  0  0  0
   23.3679   13.0592  -12.5744 O   0  0  0  0  0  0  0  0  0  0  0  0
   20.1872   10.8327   -9.9243 C   0  0  0  0  0  0  0  0  0  0  0  0
   26.2552    5.6553  -15.8399 C   0  0  0  0  0  0  0  0  0  0  0  0
   23.4016   10.5832  -14.0757 C   0  0  0  0  0  0  0  0  0  0  0  0
   27.6038    6.0669  -16.3650 O   0  0  0  0  0  0  0  0  0  0  0  0
   21.2216   12.8512   -8.3497 C   0  0  0  0  0  0  0  0  0  0  0  0
   22.5155   12.4152  -12.3677 C   0  0  0  0  0  0  0  0  0  0  0  0
   21.5841   13.2144   -7.4569 O   0  0  0  0  0  0  0  0  0  0  0  0
   20.6499   12.1874   -9.8758 C   0  0  0  0  0  0  0  0  0  0  0  0
   26.3222    4.4939  -15.5546 O   0  0  0  0  0  0  0  0  0  0  0  0
   20.6416   11.2590   -8.3196 C   0  0  0  0  0  0  0  0  0  0  0  0
   23.0025    7.1803  -13.8511 C   0  0  0  0  0  0  0  0  0  0  0  0
   19.5351   12.2792  -11.4847 C   0  0  0  0  0  0  0  0  0  0  0  0
   22.3950   10.6111  -12.9554 C   0  0  0  0  0  0  0  0  0  0  0  0
   23.4796    8.6533  -13.4750 C   0  0  0  0  0  0  0  0  0  0  0  0
   20.3270   10.4059  -11.6929 C   0  0  0  0  0  0  0  0  0  0  0  0
   21.3388    9.2392  -13.2808 C   0  0  0  0  0  0  0  0  0  0  0  0
   22.6356    8.8781  -14.8806 C   0  0  0  0  0  0  0  0  0  0  0  0
  4  3  1  0
  5  2  1  0
  6  3  1  0
  6  4  1  0
  7  2  1  0
  8  1  1  0
 10  3  1  0
 10  9  1  0
 13  4  1  0
 14  9  1  0
 15 13  2  0
 17  7  1  0
 17 11  1  0
 18 16  1  0
 19  5  1  0
 19 12  1  0
 19 16  1  0
 20 13  1  0
 21 12  1  0
 21 16  1  0
 21 19  1  0
 22  6  1  0
 23  2  1  0
 24  7  1  0
 24 14  1  0
 25  8  1  0
 25 22  1  0
 26  1  1  0
 26  7  1  0
 26 12  1  0
 27  8  1  0
 27 24  1  0
 28 25  1  0
M  END
>  <ID>  (1) 
conformer_0

$$$$
