
     RDKit          3D

 24 29  0  0  0  0  0  0  0  0999 V2000
   20.2043   11.7296   -9.3657 C   0  0  0  0  0  0  0  0  0  0  0  0
   20.6920    9.9632  -11.4460 C   0  0  0  0  0  0  0  0  0  0  0  0
   21.2613   11.6654  -11.7073 C   0  0  0  0  0  0  0  0  0  0  0  0
   21.3318   13.1051   -9.6900 C   0  0  0  0  0  0  0  0  0  0  0  0
   23.3704    7.2876  -14.1479 C   0  0  0  0  0  0  0  0  0  0  0  0
   22.4532    8.6338  -14.7646 C   0  0  0  0  0  0  0  0  0  0  0  0
   22.1651   10.9858  -12.6821 C   0  0  0  0  0  0  0  0  0  0  0  0
   21.7949    8.9501  -11.5053 C   0  0  0  0  0  0  0  0  0  0  0  0
   24.3469    8.4420  -15.1561 C   0  0  0  0  0  0  0  0  0  0  0  0
   23.1918   10.6548  -13.7555 C   0  0  0  0  0  0  0  0  0  0  0  0
   23.2055   13.2774  -12.1550 O   0  0  0  0  0  0  0  0  0  0  0  0
   24.1754    6.9145  -15.7155 C   0  0  0  0  0  0  0  0  0  0  0  0
   26.8662    5.7446  -16.0502 C   0  0  0  0  0  0  0  0  0  0  0  0
   22.2962   12.9510  -11.9948 C   0  0  0  0  0  0  0  0  0  0  0  0
   21.4486   13.3129   -7.6809 O   0  0  0  0  0  0  0  0  0  0  0  0
   25.3571    6.1866  -15.9821 C   0  0  0  0  0  0  0  0  0  0  0  0
   21.0496   13.2648   -8.7030 C   0  0  0  0  0  0  0  0  0  0  0  0
   27.6691    6.4539  -16.4944 O   0  0  0  0  0  0  0  0  0  0  0  0
   22.9876    8.5226  -12.6003 C   0  0  0  0  0  0  0  0  0  0  0  0
   24.0212   10.0537  -14.5634 C   0  0  0  0  0  0  0  0  0  0  0  0
   20.0183   10.5638  -10.1052 C   0  0  0  0  0  0  0  0  0  0  0  0
   20.3699   13.0953  -11.2383 C   0  0  0  0  0  0  0  0  0  0  0  0
   19.2030   12.0382  -11.0169 C   0  0  0  0  0  0  0  0  0  0  0  0
   21.5779    9.2233  -13.3784 C   0  0  0  0  0  0  0  0  0  0  0  0
  3  2  1  0
  4  1  1  0
  6  5  1  0
  7  3  1  0
  8  2  1  0
  9  5  1  0
  9  6  1  0
 10  7  3  0
 12  5  1  0
 12  9  1  0
 14  3  1  0
 14 11  2  0
 16 12  1  0
 16 13  1  0
 17  4  1  0
 17 15  1  0
 18 13  2  0
 19  8  1  0
 20  9  1  0
 20 10  1  0
 21  1  1  0
 21  2  1  0
 22  3  1  0
 22  4  1  0
 23 21  1  0
 23 22  1  0
 24  6  1  0
 24  8  1  0
 24 19  1  0
M  END
>  <ID>  (1) 
conformer_0

$$$$
