
     RDKit          3D

 27 31  0  0  0  0  0  0  0  0999 V2000
   23.1382   10.9292  -13.7597 C   0  0  0  0  0  0  0  0  0  0  0  0
   21.9768   10.1652  -12.2306 C   0  0  0  0  0  0  0  0  0  0  0  0
   20.5634   13.1857  -11.5615 C   0  0  0  0  0  0  0  0  0  0  0  0
   22.3401    8.5231  -11.9142 C   0  0  0  0  0  0  0  0  0  0  0  0
   20.6277   11.6371  -10.3580 C   0  0  0  0  0  0  0  0  0  0  0  0
   23.1191    7.6388  -13.5080 C   0  0  0  0  0  0  0  0  0  0  0  0
   24.6860    9.7788  -14.9047 C   0  0  0  0  0  0  0  0  0  0  0  0
   23.9794    9.4604  -13.5104 C   0  0  0  0  0  0  0  0  0  0  0  0
   20.5318   11.4299   -8.5991 C   0  0  0  0  0  0  0  0  0  0  0  0
   24.4533    6.7557  -14.9552 C   0  0  0  0  0  0  0  0  0  0  0  0
   21.3537   12.9238   -8.4367 C   0  0  0  0  0  0  0  0  0  0  0  0
   21.2023   13.2424   -9.9262 C   0  0  0  0  0  0  0  0  0  0  0  0
   23.2410   12.9102  -12.4378 O   0  0  0  0  0  0  0  0  0  0  0  0
   27.9263    6.2329  -16.3505 O   0  0  0  0  0  0  0  0  0  0  0  0
   26.7635    5.6866  -15.9817 C   0  0  0  0  0  0  0  0  0  0  0  0
   22.3166   12.0145  -12.4053 C   0  0  0  0  0  0  0  0  0  0  0  0
   22.2113   10.1065  -14.7365 C   0  0  0  0  0  0  0  0  0  0  0  0
   21.4482   13.3270   -7.6395 O   0  0  0  0  0  0  0  0  0  0  0  0
   27.0290    4.4173  -15.2993 O   0  0  0  0  0  0  0  0  0  0  0  0
   25.1012    7.7669  -15.4323 C   0  0  0  0  0  0  0  0  0  0  0  0
   25.7415    5.8692  -16.3859 C   0  0  0  0  0  0  0  0  0  0  0  0
   21.1332   11.6506  -12.5338 C   0  0  0  0  0  0  0  0  0  0  0  0
   19.4373   10.8741   -9.9981 C   0  0  0  0  0  0  0  0  0  0  0  0
   19.1677   11.7049  -11.3734 C   0  0  0  0  0  0  0  0  0  0  0  0
   20.6396    9.7948  -11.4282 C   0  0  0  0  0  0  0  0  0  0  0  0
   23.2914    8.4011  -15.0392 C   0  0  0  0  0  0  0  0  0  0  0  0
   21.6447    9.0342  -13.5633 C   0  0  0  0  0  0  0  0  0  0  0  0
  4  2  1  0
  8  1  1  0
  8  7  1  0
  9  5  1  0
 11  9  1  0
 12  3  1  0
 12  5  1  0
 12 11  1  0
 15 14  2  0
 16  1  1  0
 16 13  1  0
 17  1  1  0
 18 11  1  0
 19 15  1  0
 20 10  1  0
 21 10  1  0
 21 15  1  0
 22  2  1  0
 22  3  1  0
 22 16  1  0
 23  5  1  0
 23  9  1  0
 24  5  1  0
 24 23  1  0
 25  2  1  0
 26  6  1  0
 26  7  1  0
 26 20  1  0
 27  2  1  0
 27  4  1  0
 27 17  1  0
M  END
>  <ID>  (1) 
conformer_0

$$$$
