
     RDKit          3D

 29 35  0  0  0  0  0  0  0  0999 V2000
   21.4502    9.5007  -13.8313 C   0  0  0  0  0  0  0  0  0  0  0  0
   22.5110   10.6964  -12.8795 C   0  0  0  0  0  0  0  0  0  0  0  0
   22.4344    8.2154  -12.4259 C   0  0  0  0  0  0  0  0  0  0  0  0
   21.3469   11.6148  -11.8818 C   0  0  0  0  0  0  0  0  0  0  0  0
   22.6019   10.9709  -14.5793 C   0  0  0  0  0  0  0  0  0  0  0  0
   19.5194   10.9207  -10.3669 C   0  0  0  0  0  0  0  0  0  0  0  0
   23.7577    9.3103  -12.8808 C   0  0  0  0  0  0  0  0  0  0  0  0
   19.7536   12.0735  -11.5287 C   0  0  0  0  0  0  0  0  0  0  0  0
   24.6438    9.0652  -14.3577 C   0  0  0  0  0  0  0  0  0  0  0  0
   23.1005    7.5568  -14.0961 C   0  0  0  0  0  0  0  0  0  0  0  0
   24.0380   10.4314  -14.7576 C   0  0  0  0  0  0  0  0  0  0  0  0
   23.2996   12.9704  -12.3828 O   0  0  0  0  0  0  0  0  0  0  0  0
   22.3978    8.8819  -14.8238 C   0  0  0  0  0  0  0  0  0  0  0  0
   26.1816    6.0453  -15.8170 C   0  0  0  0  0  0  0  0  0  0  0  0
   27.4697    6.5231  -16.0393 O   0  0  0  0  0  0  0  0  0  0  0  0
   21.4751   13.1023   -8.7506 C   0  0  0  0  0  0  0  0  0  0  0  0
   21.6474    9.2156  -11.6167 C   0  0  0  0  0  0  0  0  0  0  0  0
   20.9425   13.4731  -11.6036 C   0  0  0  0  0  0  0  0  0  0  0  0
   23.9065    6.5904  -15.1125 C   0  0  0  0  0  0  0  0  0  0  0  0
   20.4239   14.4501   -8.7648 O   0  0  0  0  0  0  0  0  0  0  0  0
   26.5737    5.0261  -15.1744 N   0  0  0  0  0  0  0  0  0  0  0  0
   22.3934   12.7156  -12.0227 C   0  0  0  0  0  0  0  0  0  0  0  0
   25.1199    5.9753  -16.5035 C   0  0  0  0  0  0  0  0  0  0  0  0
   24.9712    7.9529  -15.3498 C   0  0  0  0  0  0  0  0  0  0  0  0
   22.1208   13.3091   -7.4270 O   0  0  0  0  0  0  0  0  0  0  0  0
   20.4164   10.0055  -11.5427 C   0  0  0  0  0  0  0  0  0  0  0  0
   21.5086   12.9055   -9.8103 C   0  0  0  0  0  0  0  0  0  0  0  0
   20.5465   11.0351   -9.3205 C   0  0  0  0  0  0  0  0  0  0  0  0
   20.9664   11.7234   -8.1999 C   0  0  0  0  0  0  0  0  0  0  0  0
  2  1  1  0
  4  2  1  0
  5  2  1  0
  7  2  1  0
  7  3  1  0
  8  4  1  0
  8  6  1  0
  9  7  1  0
 10  3  1  0
 11  5  1  0
 11  9  1  0
 13  1  1  0
 13 10  1  0
 15 14  2  0
 17  3  1  0
 18  8  1  0
 19 10  1  0
 20 16  1  0
 21 14  1  0
 22  4  1  0
 22 12  2  0
 22 18  1  0
 23 14  1  0
 23 19  1  0
 24  9  1  0
 24 19  1  0
 25 16  1  0
 26  4  1  0
 26  6  1  0
 26 17  1  0
 27 16  1  0
 27 18  1  0
 28  6  1  0
 29 16  1  0
 29 28  1  0
M  END
>  <ID>  (1) 
conformer_0

$$$$
