
     RDKit          3D

 24 28  0  0  0  0  0  0  0  0999 V2000
   21.5903   11.1944  -12.0084 C   0  0  0  0  0  0  0  0  0  0  0  0
   22.5780   10.8762  -13.6959 C   0  0  0  0  0  0  0  0  0  0  0  0
   19.4719   11.5749  -11.3122 C   0  0  0  0  0  0  0  0  0  0  0  0
   19.7398   10.8825   -9.9595 C   0  0  0  0  0  0  0  0  0  0  0  0
   20.6743    9.8815  -11.2407 C   0  0  0  0  0  0  0  0  0  0  0  0
   20.6857   12.7991  -11.2910 C   0  0  0  0  0  0  0  0  0  0  0  0
   23.6806   10.4811  -14.9095 C   0  0  0  0  0  0  0  0  0  0  0  0
   23.1814    7.3137  -13.8619 C   0  0  0  0  0  0  0  0  0  0  0  0
   20.5520   11.5594   -9.0936 C   0  0  0  0  0  0  0  0  0  0  0  0
   24.2615    7.0161  -15.1260 C   0  0  0  0  0  0  0  0  0  0  0  0
   21.2714   12.8458   -9.5589 C   0  0  0  0  0  0  0  0  0  0  0  0
   26.6984    6.0492  -16.0212 C   0  0  0  0  0  0  0  0  0  0  0  0
   23.4164   12.9929  -12.3705 O   0  0  0  0  0  0  0  0  0  0  0  0
   27.9118    6.2866  -16.5924 O   0  0  0  0  0  0  0  0  0  0  0  0
   24.1307    8.4140  -15.2696 C   0  0  0  0  0  0  0  0  0  0  0  0
   22.6361   12.3944  -12.4844 C   0  0  0  0  0  0  0  0  0  0  0  0
   27.0071    4.8189  -15.4322 O   0  0  0  0  0  0  0  0  0  0  0  0
   20.7721   12.4453   -7.9841 C   0  0  0  0  0  0  0  0  0  0  0  0
   20.8707   12.4598   -6.8648 O   0  0  0  0  0  0  0  0  0  0  0  0
   22.5193    8.3509  -12.5755 C   0  0  0  0  0  0  0  0  0  0  0  0
   23.9947    9.5264  -13.6873 C   0  0  0  0  0  0  0  0  0  0  0  0
   25.0741    6.4060  -16.3626 C   0  0  0  0  0  0  0  0  0  0  0  0
   22.1536    9.0124  -14.4749 C   0  0  0  0  0  0  0  0  0  0  0  0
   21.5956    9.4601  -12.5121 C   0  0  0  0  0  0  0  0  0  0  0  0
  4  3  1  0
  5  1  1  0
  5  4  1  0
  6  3  1  0
  7  2  1  0
  9  4  1  0
 10  8  1  0
 11  6  1  0
 11  9  1  0
 14 12  2  0
 15 10  1  0
 16  1  1  0
 16  2  1  0
 16 13  1  0
 17 12  1  0
 18  9  1  0
 18 11  1  0
 19 18  1  0
 20  8  1  0
 21  2  1  0
 21  7  1  0
 21 15  1  0
 22 10  1  0
 22 12  1  0
 23 20  1  0
 24  1  1  0
 24  5  1  0
 24 20  1  0
M  END
>  <ID>  (1) 
conformer_0

$$$$
