
     RDKit          3D

 30 40  0  0  0  0  0  0  0  0999 V2000
   21.7842    8.8704  -13.8878 C   0  0  0  0  0  0  0  0  0  0  0  0
   22.7787   11.2847  -14.2352 C   0  0  0  0  0  0  0  0  0  0  0  0
   22.9619    7.8793  -13.3254 C   0  0  0  0  0  0  0  0  0  0  0  0
   23.7575   10.0535  -13.7948 C   0  0  0  0  0  0  0  0  0  0  0  0
   24.0175   10.7146  -15.5041 C   0  0  0  0  0  0  0  0  0  0  0  0
   22.1247    8.6412  -11.7060 C   0  0  0  0  0  0  0  0  0  0  0  0
   24.7641    8.9986  -15.3564 C   0  0  0  0  0  0  0  0  0  0  0  0
   19.6660   10.7172   -9.2991 C   0  0  0  0  0  0  0  0  0  0  0  0
   20.8714   10.5793  -10.2143 C   0  0  0  0  0  0  0  0  0  0  0  0
   23.0194    7.2775  -14.9084 C   0  0  0  0  0  0  0  0  0  0  0  0
   20.5850    9.7058  -11.6298 C   0  0  0  0  0  0  0  0  0  0  0  0
   27.1693    4.5832  -15.3182 O   0  0  0  0  0  0  0  0  0  0  0  0
   27.0369    5.5948  -15.9675 C   0  0  0  0  0  0  0  0  0  0  0  0
   28.0080    6.1297  -16.3417 O   0  0  0  0  0  0  0  0  0  0  0  0
   24.4670    7.5130  -16.2821 C   0  0  0  0  0  0  0  0  0  0  0  0
   23.2068   12.7425  -12.0184 O   0  0  0  0  0  0  0  0  0  0  0  0
   21.6502   12.8677   -7.1985 O   0  0  0  0  0  0  0  0  0  0  0  0
   21.3349   12.6287   -8.3962 C   0  0  0  0  0  0  0  0  0  0  0  0
   24.7209    6.5454  -15.2301 C   0  0  0  0  0  0  0  0  0  0  0  0
   22.3183   12.2478  -12.3715 C   0  0  0  0  0  0  0  0  0  0  0  0
   25.8978    6.1963  -16.3622 C   0  0  0  0  0  0  0  0  0  0  0  0
   21.3951   11.3913  -12.0545 C   0  0  0  0  0  0  0  0  0  0  0  0
   19.1252   11.2137  -10.9290 C   0  0  0  0  0  0  0  0  0  0  0  0
   20.9483   11.6037   -8.1051 C   0  0  0  0  0  0  0  0  0  0  0  0
   20.5755   12.2905  -10.0401 C   0  0  0  0  0  0  0  0  0  0  0  0
   21.7848   13.5992   -9.1734 C   0  0  0  0  0  0  0  0  0  0  0  0
   20.1882   12.7573  -11.6658 C   0  0  0  0  0  0  0  0  0  0  0  0
   21.1362   13.9575  -10.7907 C   0  0  0  0  0  0  0  0  0  0  0  0
   23.1182    9.0420  -15.3338 C   0  0  0  0  0  0  0  0  0  0  0  0
   22.4076   10.0755  -12.6427 C   0  0  0  0  0  0  0  0  0  0  0  0
  3  1  1  0
  4  2  1  0
  5  2  1  0
  5  4  1  0
  7  5  1  0
  9  8  1  0
 10  3  1  0
 11  6  1  0
 11  9  1  0
 13 12  1  0
 14 13  2  0
 15  7  1  0
 18 17  1  0
 19 10  1  0
 19 15  1  0
 20 16  2  0
 21 13  1  0
 21 15  1  0
 21 19  1  0
 22 11  1  0
 22 20  1  0
 23  8  1  0
 24  8  1  0
 24 18  1  0
 25  9  1  0
 25 18  1  0
 26 18  1  0
 27 22  1  0
 27 25  1  0
 28 25  1  0
 28 26  1  0
 28 27  1  0
 29  4  1  0
 29  5  1  0
 29  7  1  0
 29 10  1  0
 30  1  1  0
 30  4  1  0
 30  6  1  0
 30 22  1  0
M  END
>  <ID>  (1) 
conformer_0

$$$$
