
     RDKit          3D

 27 32  0  0  0  0  0  0  0  0999 V2000
   19.4199   11.7955  -11.7669 C   0  0  0  0  0  0  0  0  0  0  0  0
   20.4502   13.0690  -11.8536 C   0  0  0  0  0  0  0  0  0  0  0  0
   19.5291   10.5782  -10.4103 C   0  0  0  0  0  0  0  0  0  0  0  0
   22.9931    9.9992  -12.6425 C   0  0  0  0  0  0  0  0  0  0  0  0
   20.2129   11.8505   -9.8927 C   0  0  0  0  0  0  0  0  0  0  0  0
   21.2314    9.8944  -10.8000 C   0  0  0  0  0  0  0  0  0  0  0  0
   21.7517    9.4689  -14.2632 C   0  0  0  0  0  0  0  0  0  0  0  0
   20.4777   11.0822   -8.6160 C   0  0  0  0  0  0  0  0  0  0  0  0
   20.7992    9.7075  -12.1976 C   0  0  0  0  0  0  0  0  0  0  0  0
   24.5124    7.1703  -15.5184 C   0  0  0  0  0  0  0  0  0  0  0  0
   23.2937   13.1901  -12.3224 O   0  0  0  0  0  0  0  0  0  0  0  0
   26.5089    5.4387  -15.8690 C   0  0  0  0  0  0  0  0  0  0  0  0
   21.3639   12.9750   -9.9602 C   0  0  0  0  0  0  0  0  0  0  0  0
   27.5293    6.1398  -16.3539 O   0  0  0  0  0  0  0  0  0  0  0  0
   21.1706   12.7721   -8.3896 C   0  0  0  0  0  0  0  0  0  0  0  0
   21.7035   13.2030   -7.4799 O   0  0  0  0  0  0  0  0  0  0  0  0
   26.9278    4.2218  -15.3624 O   0  0  0  0  0  0  0  0  0  0  0  0
   22.3998   12.8406  -12.3382 C   0  0  0  0  0  0  0  0  0  0  0  0
   25.0903    5.8735  -15.4998 C   0  0  0  0  0  0  0  0  0  0  0  0
   24.2382    9.1562  -14.5652 C   0  0  0  0  0  0  0  0  0  0  0  0
   22.8947    8.5963  -15.1435 C   0  0  0  0  0  0  0  0  0  0  0  0
   21.4826   11.6004  -11.8887 C   0  0  0  0  0  0  0  0  0  0  0  0
   23.5023   10.6363  -14.3553 C   0  0  0  0  0  0  0  0  0  0  0  0
   22.1306   11.3331  -13.5308 C   0  0  0  0  0  0  0  0  0  0  0  0
   22.5821    8.0472  -13.4698 C   0  0  0  0  0  0  0  0  0  0  0  0
   23.5389    6.8215  -14.5599 C   0  0  0  0  0  0  0  0  0  0  0  0
   22.2155    8.6198  -11.9793 C   0  0  0  0  0  0  0  0  0  0  0  0
  2  1  1  0
  3  1  1  0
  5  3  1  0
  6  3  1  0
  8  5  1  0
  9  6  1  0
 13  5  1  0
 14 12  2  0
 15  8  1  0
 15 13  1  0
 16 15  1  0
 17 12  1  0
 18 11  1  0
 19 10  1  0
 19 12  1  0
 21  7  1  0
 21 20  1  0
 22  2  1  0
 22 18  1  0
 23  4  1  0
 23 20  1  0
 24  4  1  0
 24 18  1  0
 24 22  1  0
 24 23  1  0
 25  7  1  0
 25 21  1  0
 26 10  1  0
 26 25  1  0
 27  4  1  0
 27  9  1  0
 27 25  1  0
M  END
>  <ID>  (1) 
conformer_0

$$$$
