
     RDKit          3D

 23 28  0  0  0  0  0  0  0  0999 V2000
   25.1813    6.8484  -15.9000 C   0  0  0  0  0  0  0  0  0  0  0  0
   20.1207   10.5681  -11.0005 C   0  0  0  0  0  0  0  0  0  0  0  0
   19.8364   12.3276  -11.4553 C   0  0  0  0  0  0  0  0  0  0  0  0
   20.7136   13.5239  -11.0517 C   0  0  0  0  0  0  0  0  0  0  0  0
   19.8454   10.9548   -9.7548 C   0  0  0  0  0  0  0  0  0  0  0  0
   22.4928    8.8325  -14.2921 C   0  0  0  0  0  0  0  0  0  0  0  0
   20.3689   11.0338   -8.6156 C   0  0  0  0  0  0  0  0  0  0  0  0
   24.7067    8.3247  -15.5825 C   0  0  0  0  0  0  0  0  0  0  0  0
   21.2311    9.6031  -12.0786 C   0  0  0  0  0  0  0  0  0  0  0  0
   22.2694    8.6834  -12.4703 C   0  0  0  0  0  0  0  0  0  0  0  0
   23.1811   13.2941  -12.7883 O   0  0  0  0  0  0  0  0  0  0  0  0
   21.0275   13.2198   -9.8314 C   0  0  0  0  0  0  0  0  0  0  0  0
   26.5533    5.6195  -16.0179 C   0  0  0  0  0  0  0  0  0  0  0  0
   20.9422   12.4291   -7.8751 C   0  0  0  0  0  0  0  0  0  0  0  0
   27.8922    5.6190  -16.3521 O   0  0  0  0  0  0  0  0  0  0  0  0
   21.4784   11.4987  -12.0435 C   0  0  0  0  0  0  0  0  0  0  0  0
   22.2668   10.5750  -13.1889 C   0  0  0  0  0  0  0  0  0  0  0  0
   21.1809   13.0365   -7.3701 O   0  0  0  0  0  0  0  0  0  0  0  0
   23.4137   10.3334  -14.2670 C   0  0  0  0  0  0  0  0  0  0  0  0
   24.3770    9.6478  -15.2046 C   0  0  0  0  0  0  0  0  0  0  0  0
   22.4077   13.0265  -12.7103 C   0  0  0  0  0  0  0  0  0  0  0  0
   23.8651    6.7989  -14.6931 C   0  0  0  0  0  0  0  0  0  0  0  0
   23.0884    7.5220  -13.6034 C   0  0  0  0  0  0  0  0  0  0  0  0
  3  2  1  0
  4  3  1  0
  5  2  1  0
  7  5  1  0
  8  1  1  0
  9  2  1  0
 10  6  1  0
 10  9  1  0
 12  4  1  0
 13  1  1  0
 14  7  1  0
 15 13  1  0
 16  3  1  0
 16  9  1  0
 17  9  1  0
 17 16  1  0
 18 14  1  0
 19  6  1  0
 19 17  1  0
 20  8  1  0
 20 19  1  0
 21 11  2  0
 21 16  1  0
 22  1  1  0
 22  8  1  0
 23  6  1  0
 23 10  1  0
 23 22  1  0
M  END
>  <ID>  (1) 
conformer_0

$$$$
