
     RDKit          3D

 26 36  0  0  0  0  0  0  0  0999 V2000
   20.5785   10.4956  -11.4004 C   0  0  0  0  0  0  0  0  0  0  0  0
   21.7228    9.3808  -11.6994 C   0  0  0  0  0  0  0  0  0  0  0  0
   23.1402    7.6640  -13.3680 C   0  0  0  0  0  0  0  0  0  0  0  0
   23.2141    8.8439  -12.2231 C   0  0  0  0  0  0  0  0  0  0  0  0
   19.2300   11.5541  -10.9195 C   0  0  0  0  0  0  0  0  0  0  0  0
   24.3792    9.4117  -15.1159 C   0  0  0  0  0  0  0  0  0  0  0  0
   20.0558   11.0625   -9.7853 C   0  0  0  0  0  0  0  0  0  0  0  0
   23.5342   10.6139  -14.7627 C   0  0  0  0  0  0  0  0  0  0  0  0
   20.7558   11.1893   -8.6219 C   0  0  0  0  0  0  0  0  0  0  0  0
   24.7827    7.9073  -15.5100 C   0  0  0  0  0  0  0  0  0  0  0  0
   24.9554    6.2353  -16.0014 C   0  0  0  0  0  0  0  0  0  0  0  0
   23.8204    6.6427  -14.6311 C   0  0  0  0  0  0  0  0  0  0  0  0
   27.6462    6.2291  -16.2814 O   0  0  0  0  0  0  0  0  0  0  0  0
   22.9647   13.6463  -12.3108 O   0  0  0  0  0  0  0  0  0  0  0  0
   26.3822    6.0711  -15.6974 C   0  0  0  0  0  0  0  0  0  0  0  0
   21.3874   13.0397   -7.4188 O   0  0  0  0  0  0  0  0  0  0  0  0
   20.6035   12.7299  -11.5164 C   0  0  0  0  0  0  0  0  0  0  0  0
   21.0969   12.4793   -8.2033 C   0  0  0  0  0  0  0  0  0  0  0  0
   21.8538   13.8026  -11.4502 C   0  0  0  0  0  0  0  0  0  0  0  0
   21.8370   11.0917  -12.4348 C   0  0  0  0  0  0  0  0  0  0  0  0
   21.9093   14.9310  -10.8384 O   0  0  0  0  0  0  0  0  0  0  0  0
   21.1763   12.7747  -10.0926 C   0  0  0  0  0  0  0  0  0  0  0  0
   26.6724    4.9198  -14.7601 O   0  0  0  0  0  0  0  0  0  0  0  0
   21.8529    9.1590  -13.4551 C   0  0  0  0  0  0  0  0  0  0  0  0
   23.0759    8.4143  -14.7600 C   0  0  0  0  0  0  0  0  0  0  0  0
   23.1354   10.4948  -13.6028 C   0  0  0  0  0  0  0  0  0  0  0  0
  2  1  1  0
  4  2  1  0
  4  3  1  0
  5  1  1  0
  7  1  1  0
  7  5  1  0
  8  6  1  0
  9  7  1  0
 10  6  1  0
 11 10  1  0
 12  3  1  0
 12 10  1  0
 12 11  1  0
 15 11  1  0
 15 13  2  0
 17  5  1  0
 18  9  1  0
 18 16  1  0
 19 14  1  0
 19 17  1  0
 20  1  1  0
 20  2  1  0
 21 19  1  0
 22 17  1  0
 22 18  1  0
 22 19  1  0
 23 15  1  0
 24  2  1  0
 24  4  1  0
 25  3  1  0
 25  6  1  0
 25 10  1  0
 25 12  1  0
 26  8  1  0
 26 20  1  0
 26 24  1  0
M  END
>  <ID>  (1) 
conformer_0

$$$$
