
     RDKit          3D

 28 36  0  0  0  0  0  0  0  0999 V2000
   22.4330    8.0823  -12.4890 C   0  0  2  0  0  0  0  0  0  0  0  0
   23.0500   10.9613  -14.2318 C   0  0  2  0  0  0  0  0  0  0  0  0
   21.2225    9.1991  -13.5689 C   0  0  1  0  0  0  0  0  0  0  0  0
   21.7137    9.5409  -11.8055 C   0  0  1  0  0  0  0  0  0  0  0  0
   22.0908    8.4338  -14.5968 C   0  0  2  0  0  0  0  0  0  0  0  0
   21.0028   11.4662   -8.6491 C   0  0  1  0  0  0  0  0  0  0  0  0
   25.5748    5.9091  -16.0034 C   0  0  0  0  0  0  0  0  0  0  0  0
   23.0368    6.9483  -14.1072 C   0  0  0  0  0  0  0  0  0  0  0  0
   23.5000    9.5350  -13.2551 C   0  0  1  0  0  0  0  0  0  0  0  0
   24.4168   10.0392  -14.7935 C   0  0  1  0  0  0  0  0  0  0  0  0
   23.0102   13.4211  -12.2545 O   0  0  0  0  0  0  0  0  0  0  0  0
   19.4557   11.7021  -10.9436 C   0  0  1  0  0  0  0  0  0  0  0  0
   26.8504    5.5863  -15.8587 C   0  0  0  0  0  0  0  0  0  0  0  0
   28.1589    5.5961  -16.3043 O   0  0  0  0  0  0  0  0  0  0  0  0
   21.4448   12.9886   -8.6567 C   0  0  0  0  0  0  0  0  0  0  0  0
   21.4539   13.3751   -7.7203 O   0  0  0  0  0  0  0  0  0  0  0  0
   22.0842   13.1558  -12.0274 C   0  0  0  0  0  0  0  0  0  0  0  0
   25.1669    7.8828  -15.4182 C   0  0  0  0  0  0  0  0  0  0  0  0
   23.8497    8.5297  -14.8223 C   0  0  2  0  0  0  0  0  0  0  0  0
   26.9748    4.2269  -15.3487 O   0  0  0  0  0  0  0  0  0  0  0  0
   24.0058    6.4828  -15.3966 C   0  0  1  0  0  0  0  0  0  0  0  0
   20.2898   10.2019  -11.6763 C   0  0  0  0  0  0  0  0  0  0  0  0
   19.7901   10.6755   -9.5328 C   0  0  1  0  0  0  0  0  0  0  0  0
   21.1233   11.6086  -10.4704 C   0  0  2  0  0  0  0  0  0  0  0  0
   20.6898   12.2692  -12.4047 C   0  0  2  0  0  0  0  0  0  0  0  0
   20.4698   13.4755  -11.4349 C   0  0  0  0  0  0  0  0  0  0  0  0
   21.6688   13.4207   -9.8283 C   0  0  0  0  0  0  0  0  0  0  0  0
   22.0935   10.9597  -12.7524 C   0  0  2  0  0  0  0  0  0  0  0  0
  1  3  1  6
  4  1  1  0
  4  3  1  0
  3  5  1  6
  5  8  1  1
  9  1  1  0
  9  2  1  1
 10  2  1  6
 10  9  1  0
 13  7  1  0
 14 13  2  0
  6 15  1  1
 16 15  1  0
 17 11  2  0
 19  5  1  0
 19  9  1  0
 19 10  1  0
 19 18  1  1
 20 13  1  0
 21  7  1  1
 21  8  1  0
 21 18  1  0
  4 22  1  1
 12 22  1  6
 23  6  1  1
 23 12  1  0
 24  6  1  1
 24 12  1  0
 24 23  1  0
 25 17  1  0
 26 17  1  0
 25 26  1  1
 27 15  2  3
  2 28  1  1
 28  4  1  0
 28 25  1  6
M  END
>  <ID>  (1) 
conformer_0

$$$$
