
     RDKit          3D

 29 35  0  0  0  0  0  0  0  0999 V2000
   19.5148   10.6525  -11.4134 C   0  0  0  0  0  0  0  0  0  0  0  0
   20.8091   13.5423  -11.2753 C   0  0  0  0  0  0  0  0  0  0  0  0
   20.9761   11.3048   -8.4475 C   0  0  0  0  0  0  0  0  0  0  0  0
   19.5306   10.7942   -9.6550 C   0  0  0  0  0  0  0  0  0  0  0  0
   21.1188   12.0805  -12.5883 C   0  0  0  0  0  0  0  0  0  0  0  0
   21.6089   13.1318   -9.4498 C   0  0  0  0  0  0  0  0  0  0  0  0
   21.4425    9.7641  -13.1126 C   0  0  0  0  0  0  0  0  0  0  0  0
   22.4412    8.3751  -12.4236 C   0  0  0  0  0  0  0  0  0  0  0  0
   21.0115    9.2229  -11.4270 C   0  0  0  0  0  0  0  0  0  0  0  0
   22.6678   10.5372  -13.0286 C   0  0  0  0  0  0  0  0  0  0  0  0
   23.0934   11.3466  -14.1393 C   0  0  0  0  0  0  0  0  0  0  0  0
   23.4600   13.1297  -11.8624 O   0  0  0  0  0  0  0  0  0  0  0  0
   24.3108   10.4083  -15.0178 C   0  0  0  0  0  0  0  0  0  0  0  0
   27.3703    6.7929  -15.9932 O   0  0  0  0  0  0  0  0  0  0  0  0
   26.4977    5.8465  -16.0010 C   0  0  0  0  0  0  0  0  0  0  0  0
   21.2997   12.7870   -8.0390 C   0  0  0  0  0  0  0  0  0  0  0  0
   22.4981   12.8532  -12.0776 C   0  0  0  0  0  0  0  0  0  0  0  0
   22.7895    7.3425  -13.5326 C   0  0  0  0  0  0  0  0  0  0  0  0
   24.0192    9.3731  -13.7965 C   0  0  0  0  0  0  0  0  0  0  0  0
   21.3342   13.1310   -7.2550 O   0  0  0  0  0  0  0  0  0  0  0  0
   26.7837    4.5406  -15.5617 O   0  0  0  0  0  0  0  0  0  0  0  0
   22.8101    8.7408  -14.6339 C   0  0  0  0  0  0  0  0  0  0  0  0
   24.5579    8.3194  -15.4173 C   0  0  0  0  0  0  0  0  0  0  0  0
   25.3316    6.2955  -16.5420 C   0  0  0  0  0  0  0  0  0  0  0  0
   24.1527    6.8463  -15.7687 C   0  0  0  0  0  0  0  0  0  0  0  0
   23.6444    6.5953  -14.4426 C   0  0  0  0  0  0  0  0  0  0  0  0
   21.2696   10.9718  -11.2537 C   0  0  0  0  0  0  0  0  0  0  0  0
   19.3093   12.2947  -11.3561 C   0  0  0  0  0  0  0  0  0  0  0  0
   20.5722   11.8393   -9.7490 C   0  0  0  0  0  0  0  0  0  0  0  0
  4  1  1  0
  4  3  1  0
  8  7  1  0
  9  7  1  0
  9  8  1  0
 10  7  1  0
 11 10  1  0
 13 11  1  0
 15 14  2  0
 16  3  1  0
 16  6  1  0
 17  5  1  0
 17 12  1  0
 18  8  1  0
 19 10  1  0
 19 13  1  0
 20 16  1  0
 21 15  1  0
 22 18  1  0
 22 19  1  0
 23 22  1  0
 24 15  1  0
 25 23  1  0
 25 24  1  0
 26 18  1  0
 26 25  1  0
 27  1  1  0
 27  5  1  0
 27  9  1  0
 28  1  1  0
 28  2  1  0
 29  3  1  0
 29  4  1  0
 29  6  1  0
 29 27  1  0
M  END
>  <ID>  (1) 
conformer_0

$$$$
