
     RDKit          3D

 28 34  0  0  0  0  0  0  0  0999 V2000
   19.4814   12.4782  -11.4850 C   0  0  0  0  0  0  0  0  0  0  0  0
   20.2374   10.1884  -11.3714 C   0  0  1  0  0  0  0  0  0  0  0  0
   23.4807   10.8787  -15.0362 C   0  0  0  0  0  0  0  0  0  0  0  0
   18.9704   11.2709  -10.5137 C   0  0  1  0  0  0  0  0  0  0  0  0
   20.6746   11.3546   -9.7907 C   0  0  2  0  0  0  0  0  0  0  0  0
   21.4761    9.4351  -13.3827 C   0  0  1  0  0  0  0  0  0  0  0  0
   20.7520   13.0448  -11.9570 C   0  0  2  0  0  0  0  0  0  0  0  0
   23.6825    9.7322  -13.8534 C   0  0  2  0  0  0  0  0  0  0  0  0
   22.3609   11.0310  -13.6091 C   0  0  2  0  0  0  0  0  0  0  0  0
   20.1562   10.9470   -8.9101 C   0  0  0  0  0  0  0  0  0  0  0  0
   23.2667   13.0674  -12.0505 O   0  0  0  0  0  0  0  0  0  0  0  0
   26.8061    5.7692  -15.9690 C   0  0  0  0  0  0  0  0  0  0  0  0
   21.6384   11.1350  -11.9535 C   0  0  1  0  0  0  0  0  0  0  0  0
   21.1160   13.0979   -8.6497 C   0  0  0  0  0  0  0  0  0  0  0  0
   28.0012    5.8785  -16.4188 O   0  0  0  0  0  0  0  0  0  0  0  0
   20.8109   13.9448   -8.2548 O   0  0  0  0  0  0  0  0  0  0  0  0
   22.3280    8.8458  -14.8204 C   0  0  1  0  0  0  0  0  0  0  0  0
   21.2969    9.2834  -11.3097 C   0  0  0  0  0  0  0  0  0  0  0  0
   22.3980   12.6781  -11.9105 C   0  0  0  0  0  0  0  0  0  0  0  0
   21.0820   12.9260  -10.1577 C   0  0  1  0  0  0  0  0  0  0  0  0
   26.9391    4.7787  -15.2159 O   0  0  0  0  0  0  0  0  0  0  0  0
   24.3692    9.0706  -15.2032 C   0  0  0  0  0  0  0  0  0  0  0  0
   25.6098    6.2910  -16.1499 C   0  0  0  0  0  0  0  0  0  0  0  0
   23.9392    6.8040  -14.7788 C   0  0  0  0  0  0  0  0  0  0  0  0
   22.2474    8.4987  -12.4723 C   0  0  1  0  0  0  0  0  0  0  0  0
   23.0823    7.5253  -13.7995 C   0  0  1  0  0  0  0  0  0  0  0  0
   21.4102   12.1467   -7.7205 C   0  0  0  0  0  0  0  0  0  0  0  0
   25.1466    7.5824  -14.9905 C   0  0  2  0  0  0  0  0  0  0  0  0
  4  1  1  6
  4  2  1  0
  5  4  1  0
  7  1  1  0
  8  3  1  6
  9  3  1  6
  9  6  1  0
  9  8  1  0
  5 10  1  1
 13  2  1  0
 13  9  1  0
 15 12  2  0
 16 14  1  0
 17  6  1  0
 17  8  1  0
  2 18  1  1
  7 19  1  6
 19 11  2  0
 13 19  1  6
 20  5  1  0
 20  7  1  0
 20 14  1  1
 21 12  1  0
 22  8  1  0
 23 12  1  0
  6 25  1  1
 25 18  1  6
 17 26  1  1
 26 24  1  1
 26 25  1  0
 27 14  2  3
 28 22  1  0
 28 23  1  6
 28 24  1  0
M  END
>  <ID>  (1) 
conformer_0

$$$$
