
     RDKit          3D

 23 27  0  0  0  0  0  0  0  0999 V2000
   21.0029    9.8788  -11.8019 C   0  0  0  0  0  0  0  0  0  0  0  0
   21.7990   11.0894  -12.4531 C   0  0  0  0  0  0  0  0  0  0  0  0
   20.9655   11.8309   -8.6289 C   0  0  0  0  0  0  0  0  0  0  0  0
   20.0897   10.9120  -10.0125 C   0  0  0  0  0  0  0  0  0  0  0  0
   19.6090   11.1720  -11.0861 C   0  0  0  0  0  0  0  0  0  0  0  0
   22.6114   11.1302  -13.7732 C   0  0  0  0  0  0  0  0  0  0  0  0
   23.9999   10.0080  -14.8652 C   0  0  0  0  0  0  0  0  0  0  0  0
   20.5533   12.5269  -11.6565 C   0  0  0  0  0  0  0  0  0  0  0  0
   24.5977    6.5440  -15.4887 C   0  0  0  0  0  0  0  0  0  0  0  0
   24.3353    8.4125  -15.0935 C   0  0  0  0  0  0  0  0  0  0  0  0
   23.2488   13.0593  -11.6379 O   0  0  0  0  0  0  0  0  0  0  0  0
   27.4823    6.1968  -15.9901 O   0  0  0  0  0  0  0  0  0  0  0  0
   26.1790    5.5491  -15.6771 C   0  0  0  0  0  0  0  0  0  0  0  0
   21.8629    8.9549  -12.3944 C   0  0  0  0  0  0  0  0  0  0  0  0
   22.6600    7.8273  -13.3769 C   0  0  0  0  0  0  0  0  0  0  0  0
   23.3828    6.8804  -14.4708 C   0  0  0  0  0  0  0  0  0  0  0  0
   21.4109   12.8945   -8.5434 C   0  0  0  0  0  0  0  0  0  0  0  0
   22.4215   12.9166  -12.0305 C   0  0  0  0  0  0  0  0  0  0  0  0
   21.1796   13.6832   -7.9578 O   0  0  0  0  0  0  0  0  0  0  0  0
   22.3146    9.2457  -14.4348 C   0  0  0  0  0  0  0  0  0  0  0  0
   23.5078    9.8567  -13.4185 C   0  0  0  0  0  0  0  0  0  0  0  0
   20.9866   12.8637  -10.4561 C   0  0  0  0  0  0  0  0  0  0  0  0
   26.3534    4.7565  -15.3215 N   0  0  0  0  0  0  0  0  0  0  0  0
  2  1  1  0
  4  3  2  0
  5  4  1  0
  6  2  1  0
  8  5  1  0
 10  7  1  0
 10  9  1  0
 13  9  1  0
 13 12  2  0
 14  1  1  0
 15 14  1  0
 16  9  1  0
 16 10  1  0
 16 15  1  0
 17  3  1  0
 18  2  1  0
 18  8  1  0
 18 11  1  0
 19 17  1  0
 20  7  1  0
 20 15  1  0
 21  6  1  0
 21  7  1  0
 21 20  1  0
 22  8  1  0
 22 17  1  0
 23 13  1  0
M  END
>  <ID>  (1) 
conformer_0

$$$$
