
     RDKit          3D

 31 38  0  0  0  0  0  0  0  0999 V2000
   21.9504   11.7795  -12.8718 C   0  0  0  0  0  0  0  0  0  0  0  0
   20.7833   10.0115  -10.6103 C   0  0  0  0  0  0  0  0  0  0  0  0
   21.8533    8.8536  -11.7072 C   0  0  0  0  0  0  0  0  0  0  0  0
   20.8462   10.2480  -12.4709 C   0  0  0  0  0  0  0  0  0  0  0  0
   20.6549   11.0178   -8.7421 C   0  0  0  0  0  0  0  0  0  0  0  0
   20.9208   12.5882   -9.8742 C   0  0  0  0  0  0  0  0  0  0  0  0
   24.4333    9.1604  -15.6553 C   0  0  0  0  0  0  0  0  0  0  0  0
   23.8302   10.8178  -14.5633 C   0  0  0  0  0  0  0  0  0  0  0  0
   22.9304   10.2131  -12.9258 C   0  0  0  0  0  0  0  0  0  0  0  0
   22.6344    7.6849  -12.7800 C   0  0  0  0  0  0  0  0  0  0  0  0
   21.6932   13.2517   -9.6311 C   0  0  0  0  0  0  0  0  0  0  0  0
   23.2916   13.2091  -12.6654 O   0  0  0  0  0  0  0  0  0  0  0  0
   22.9704    8.0948  -14.6186 C   0  0  0  0  0  0  0  0  0  0  0  0
   21.1106   14.0635  -10.9354 C   0  0  0  0  0  0  0  0  0  0  0  0
   22.4138   13.0264  -12.4635 C   0  0  0  0  0  0  0  0  0  0  0  0
   26.6264    5.6625  -16.0828 C   0  0  0  0  0  0  0  0  0  0  0  0
   25.5079    7.3678  -15.3978 C   0  0  0  0  0  0  0  0  0  0  0  0
   27.9248    6.0413  -16.1675 O   0  0  0  0  0  0  0  0  0  0  0  0
   21.8582   13.0186   -7.6439 O   0  0  0  0  0  0  0  0  0  0  0  0
   26.9303    4.5950  -15.6814 O   0  0  0  0  0  0  0  0  0  0  0  0
   21.5153    8.7158  -13.6619 C   0  0  0  0  0  0  0  0  0  0  0  0
   20.1073   12.8844  -11.5846 C   0  0  0  0  0  0  0  0  0  0  0  0
   23.5765    6.7691  -14.4175 C   0  0  0  0  0  0  0  0  0  0  0  0
   19.3884   10.8935   -9.3644 C   0  0  0  0  0  0  0  0  0  0  0  0
   24.5074    6.6386  -16.0477 C   0  0  0  0  0  0  0  0  0  0  0  0
   25.9504    5.7298  -17.1008 C   0  0  0  0  0  0  0  0  0  0  0  0
   21.1546   12.2088   -7.9798 C   0  0  0  0  0  0  0  0  0  0  0  0
   24.4485    8.9967  -14.2123 C   0  0  0  0  0  0  0  0  0  0  0  0
   22.3886   10.2173  -14.3865 C   0  0  0  0  0  0  0  0  0  0  0  0
   21.4495   11.4920  -11.2013 C   0  0  0  0  0  0  0  0  0  0  0  0
   19.2950   11.2996  -10.9167 C   0  0  0  0  0  0  0  0  0  0  0  0
  3  2  1  0
  4  1  1  0
  4  2  1  0
  4  3  1  0
  9  1  1  0
  9  8  1  0
 10  3  1  0
 11  6  1  0
 13 10  1  0
 14 11  1  0
 15  1  1  0
 15 12  2  0
 18 16  1  0
 20 16  1  0
 21 10  1  0
 21 13  1  0
 22  6  1  0
 22 14  1  0
 23 13  1  0
 24  5  1  0
 25 17  1  0
 25 23  1  0
 26 16  1  0
 26 25  1  0
 27  5  1  0
 27 19  1  0
 28  7  1  0
 28  8  1  0
 28 13  1  0
 29  8  1  0
 29  9  1  0
 29 21  1  0
 30  1  1  0
 30  2  1  0
 30  4  1  0
 30  6  1  0
 31 22  1  0
 31 24  1  0
M  END
>  <ID>  (1) 
conformer_0

$$$$
