
     RDKit          3D

 26 30  0  0  0  0  0  0  0  0999 V2000
   22.4520    8.1569  -13.0381 C   0  0  0  0  0  0  0  0  0  0  0  0
   20.6614   13.4826  -11.2875 C   0  0  0  0  0  0  0  0  0  0  0  0
   22.4684   10.9654  -13.3021 C   0  0  0  0  0  0  0  0  0  0  0  0
   22.8173    7.8182  -14.5628 C   0  0  0  0  0  0  0  0  0  0  0  0
   20.1751   10.2381  -10.9163 C   0  0  0  0  0  0  0  0  0  0  0  0
   24.7868    7.9152  -14.8966 C   0  0  0  0  0  0  0  0  0  0  0  0
   20.8323   11.0990   -8.7662 C   0  0  0  0  0  0  0  0  0  0  0  0
   23.7279    6.5709  -14.5497 C   0  0  0  0  0  0  0  0  0  0  0  0
   23.1983   11.1444  -15.0550 C   0  0  0  0  0  0  0  0  0  0  0  0
   24.3230    9.8255  -15.0137 C   0  0  0  0  0  0  0  0  0  0  0  0
   21.2559   12.4682   -7.9284 C   0  0  0  0  0  0  0  0  0  0  0  0
   23.4653   13.0326  -12.6184 O   0  0  0  0  0  0  0  0  0  0  0  0
   26.1681    5.8369  -15.9142 C   0  0  0  0  0  0  0  0  0  0  0  0
   27.4819    6.2786  -16.3736 O   0  0  0  0  0  0  0  0  0  0  0  0
   21.4450   11.7836  -11.0842 C   0  0  0  0  0  0  0  0  0  0  0  0
   21.4073   13.0222   -9.8400 C   0  0  0  0  0  0  0  0  0  0  0  0
   20.9518   13.0954   -7.3713 O   0  0  0  0  0  0  0  0  0  0  0  0
   22.9052   12.2426  -12.8002 C   0  0  0  0  0  0  0  0  0  0  0  0
   19.8192   10.7397   -9.5923 C   0  0  0  0  0  0  0  0  0  0  0  0
   26.4373    4.9986  -15.6478 N   0  0  0  0  0  0  0  0  0  0  0  0
   19.4268   11.8843  -11.2991 C   0  0  0  0  0  0  0  0  0  0  0  0
   21.6625    9.3375  -14.3333 C   0  0  0  0  0  0  0  0  0  0  0  0
   22.1193   10.2664  -11.7968 C   0  0  0  0  0  0  0  0  0  0  0  0
   24.7058    6.2784  -16.2501 C   0  0  0  0  0  0  0  0  0  0  0  0
   21.1387    9.3420  -12.2315 C   0  0  0  0  0  0  0  0  0  0  0  0
   23.5364    9.7394  -13.7623 C   0  0  0  0  0  0  0  0  0  0  0  0
  4  1  1  0
  8  4  1  0
  8  6  1  0
  9  3  1  0
 10  6  1  0
 10  9  1  0
 11  7  1  0
 14 13  2  0
 15  2  1  0
 16  2  1  0
 16 15  1  0
 17 11  1  0
 18  3  1  0
 18 12  1  0
 19  5  1  0
 19  7  1  0
 20 13  1  0
 21  5  1  0
 22  1  1  0
 22  4  1  0
 23  3  1  0
 23 15  1  0
 24  8  1  0
 24 13  1  0
 25  1  1  0
 25  5  1  0
 25 23  1  0
 26  3  1  0
 26  9  1  0
 26 10  1  0
M  END
>  <ID>  (1) 
conformer_0

$$$$
