
     RDKit          3D

 27 36  0  0  0  0  0  0  0  0999 V2000
   22.6608    8.2635  -13.1863 C   0  0  0  0  0  0  0  0  0  0  0  0
   22.6840   10.8103  -13.3399 C   0  0  0  0  0  0  0  0  0  0  0  0
   21.6965    9.4430  -13.7842 C   0  0  0  0  0  0  0  0  0  0  0  0
   23.1684    8.6364  -15.0223 C   0  0  0  0  0  0  0  0  0  0  0  0
   20.7577   12.5298   -9.1757 C   0  0  0  0  0  0  0  0  0  0  0  0
   23.4778   10.5966  -14.4768 C   0  0  0  0  0  0  0  0  0  0  0  0
   23.2617    7.1151  -14.1702 C   0  0  0  0  0  0  0  0  0  0  0  0
   20.6161   12.5276  -11.1231 C   0  0  0  0  0  0  0  0  0  0  0  0
   25.2843    5.9992  -16.3291 C   0  0  0  0  0  0  0  0  0  0  0  0
   24.2850    6.7305  -15.5339 C   0  0  0  0  0  0  0  0  0  0  0  0
   24.5259    9.6167  -14.8339 C   0  0  0  0  0  0  0  0  0  0  0  0
   25.0648    7.9345  -15.3681 C   0  0  0  0  0  0  0  0  0  0  0  0
   23.1900   13.1936  -12.5661 O   0  0  0  0  0  0  0  0  0  0  0  0
   21.2467   12.7945   -8.1938 C   0  0  0  0  0  0  0  0  0  0  0  0
   21.5793   13.0087   -7.0765 O   0  0  0  0  0  0  0  0  0  0  0  0
   27.6727    6.2194  -16.8126 O   0  0  0  0  0  0  0  0  0  0  0  0
   22.2142   13.0509  -11.9810 C   0  0  0  0  0  0  0  0  0  0  0  0
   26.7669    5.6623  -16.1609 C   0  0  0  0  0  0  0  0  0  0  0  0
   27.4036    4.7307  -15.4033 O   0  0  0  0  0  0  0  0  0  0  0  0
   19.4643   10.8194   -9.8082 C   0  0  0  0  0  0  0  0  0  0  0  0
   20.5530   11.1332   -8.8368 C   0  0  0  0  0  0  0  0  0  0  0  0
   19.3242   11.3749  -11.0230 C   0  0  0  0  0  0  0  0  0  0  0  0
   20.9579   13.7270  -10.2965 C   0  0  0  0  0  0  0  0  0  0  0  0
   21.5621   11.2986  -12.1658 C   0  0  0  0  0  0  0  0  0  0  0  0
   21.0853   10.1521  -10.4085 C   0  0  0  0  0  0  0  0  0  0  0  0
   21.8460    9.0642  -11.9333 C   0  0  0  0  0  0  0  0  0  0  0  0
   20.3848   10.0691  -11.9491 C   0  0  0  0  0  0  0  0  0  0  0  0
  3  1  1  0
  3  2  1  0
  4  1  1  0
  6  2  1  0
  7  1  1  0
  7  4  1  0
 10  7  1  0
 10  9  1  0
 11  4  1  0
 11  6  1  0
 12 10  1  0
 12 11  1  0
 14  5  1  0
 15 14  1  0
 17  8  1  0
 17 13  1  0
 18  9  1  0
 18 16  2  0
 19 18  1  0
 21  5  1  0
 21 20  1  0
 22  8  1  0
 22 20  1  0
 23  5  1  0
 23  8  1  0
 24  2  1  0
 24  8  1  0
 24 17  1  0
 25 20  1  0
 25 21  1  0
 26  1  1  0
 26  3  1  0
 27 22  1  0
 27 24  1  0
 27 25  1  0
 27 26  1  0
M  END
>  <ID>  (1) 
conformer_0

$$$$
