
     RDKit          3D

 26 30  0  0  0  0  0  0  0  0999 V2000
   22.9061   11.2963  -14.1541 C   0  0  0  0  0  0  0  0  0  0  0  0
   23.8425   10.5030  -15.1267 C   0  0  0  0  0  0  0  0  0  0  0  0
   22.4702    8.0573  -12.9631 C   0  0  0  0  0  0  0  0  0  0  0  0
   21.4912    9.5593  -13.3682 C   0  0  0  0  0  0  0  0  0  0  0  0
   21.7481   11.2403  -12.3357 C   0  0  0  0  0  0  0  0  0  0  0  0
   23.2096    7.3063  -14.2021 C   0  0  0  0  0  0  0  0  0  0  0  0
   21.2861    9.2386  -11.6955 C   0  0  0  0  0  0  0  0  0  0  0  0
   20.4974   10.5195  -11.1108 C   0  0  0  0  0  0  0  0  0  0  0  0
   24.3218    6.3758  -14.6433 C   0  0  0  0  0  0  0  0  0  0  0  0
   20.1541   10.7754   -9.3972 C   0  0  0  0  0  0  0  0  0  0  0  0
   24.5212    9.2313  -14.2225 C   0  0  0  0  0  0  0  0  0  0  0  0
   27.4596    6.3064  -15.9321 O   0  0  0  0  0  0  0  0  0  0  0  0
   26.1956    5.7152  -15.6820 C   0  0  0  0  0  0  0  0  0  0  0  0
   22.4192   12.6130  -11.9410 C   0  0  0  0  0  0  0  0  0  0  0  0
   21.3704   13.1329   -7.3279 O   0  0  0  0  0  0  0  0  0  0  0  0
   21.2875   12.6586   -8.3051 C   0  0  0  0  0  0  0  0  0  0  0  0
   22.3867    9.0232  -14.8267 C   0  0  0  0  0  0  0  0  0  0  0  0
   26.3916    4.6818  -15.1153 O   0  0  0  0  0  0  0  0  0  0  0  0
   19.5235   11.5414  -11.1073 C   0  0  0  0  0  0  0  0  0  0  0  0
   23.3696    9.9620  -13.0016 C   0  0  0  0  0  0  0  0  0  0  0  0
   23.3214   12.8589  -11.9983 O   0  0  0  0  0  0  0  0  0  0  0  0
   24.4890    8.0928  -15.3294 C   0  0  0  0  0  0  0  0  0  0  0  0
   20.7152   11.2836   -8.6591 C   0  0  0  0  0  0  0  0  0  0  0  0
   20.4897   12.8105  -11.7008 C   0  0  0  0  0  0  0  0  0  0  0  0
   25.1378    6.2995  -16.3255 C   0  0  0  0  0  0  0  0  0  0  0  0
   21.2002   12.9682  -10.0187 C   0  0  0  0  0  0  0  0  0  0  0  0
  2  1  1  0
  4  3  1  0
  6  3  1  0
  7  4  1  0
  8  5  1  0
  8  7  1  0
  9  6  1  0
 10  8  1  0
 11  2  1  0
 13 12  2  0
 14  5  1  0
 16 15  1  0
 17  4  1  0
 18 13  1  0
 19  8  1  0
 20  1  1  0
 20  4  1  0
 20 11  1  0
 21 14  2  0
 22  6  1  0
 22  9  1  0
 22 11  1  0
 23 10  1  0
 23 16  1  0
 24 14  1  0
 24 19  1  0
 25  9  1  0
 25 13  1  0
 26 16  1  0
 26 24  1  0
M  END
>  <ID>  (1) 
conformer_0

$$$$
