
     RDKit          3D

 27 33  0  0  0  0  0  0  0  0999 V2000
   22.1604    8.9932  -11.4476 C   0  0  0  0  0  0  0  0  0  0  0  0
   22.9065   10.2528  -13.2142 C   0  0  0  0  0  0  0  0  0  0  0  0
   19.9886   12.6735  -11.9313 C   0  0  0  0  0  0  0  0  0  0  0  0
   21.4573   10.4822  -10.9941 C   0  0  0  0  0  0  0  0  0  0  0  0
   21.3739   11.3585  -12.8564 C   0  0  0  0  0  0  0  0  0  0  0  0
   19.0585   11.5126  -10.8760 C   0  0  0  0  0  0  0  0  0  0  0  0
   23.2602    7.2353  -14.2635 C   0  0  0  0  0  0  0  0  0  0  0  0
   20.7137   12.7668  -10.6029 C   0  0  0  0  0  0  0  0  0  0  0  0
   24.3111    6.4394  -15.6596 C   0  0  0  0  0  0  0  0  0  0  0  0
   25.6656    5.8133  -16.0794 C   0  0  0  0  0  0  0  0  0  0  0  0
   22.9230    8.2631  -12.8113 C   0  0  0  0  0  0  0  0  0  0  0  0
   23.0090   13.1753  -11.9119 O   0  0  0  0  0  0  0  0  0  0  0  0
   21.8919   14.5372  -10.0843 O   0  0  0  0  0  0  0  0  0  0  0  0
   26.8484    5.5760  -16.0370 C   0  0  0  0  0  0  0  0  0  0  0  0
   21.5510   13.0227   -8.3532 C   0  0  0  0  0  0  0  0  0  0  0  0
   24.2895    7.8564  -15.2663 C   0  0  0  0  0  0  0  0  0  0  0  0
   23.0944   10.6953  -14.6704 C   0  0  0  0  0  0  0  0  0  0  0  0
   24.1753    9.6442  -14.8499 C   0  0  0  0  0  0  0  0  0  0  0  0
   21.9931   13.4477   -7.5342 O   0  0  0  0  0  0  0  0  0  0  0  0
   21.5314   13.4084  -11.2720 C   0  0  0  0  0  0  0  0  0  0  0  0
   27.3046    4.7331  -15.2949 O   0  0  0  0  0  0  0  0  0  0  0  0
   22.4665    8.7556  -14.6353 C   0  0  0  0  0  0  0  0  0  0  0  0
   27.7676    6.2203  -16.3144 O   0  0  0  0  0  0  0  0  0  0  0  0
   21.2733   12.3362   -8.6331 C   0  0  0  0  0  0  0  0  0  0  0  0
   20.0885   10.3727  -11.3769 C   0  0  0  0  0  0  0  0  0  0  0  0
   21.4425    9.4471  -12.9744 C   0  0  0  0  0  0  0  0  0  0  0  0
   20.2605   11.3018   -9.5891 C   0  0  0  0  0  0  0  0  0  0  0  0
  4  1  1  0
  5  2  1  0
  6  3  1  0
  8  3  1  0
  9  7  1  0
 10  9  1  0
 11  1  1  0
 11  7  1  0
 14 10  1  0
 16  7  1  0
 16  9  1  0
 17  2  1  0
 18 16  1  0
 18 17  1  0
 19 15  1  0
 20  8  1  0
 20 12  1  0
 20 13  1  0
 21 14  1  0
 22  7  1  0
 22 11  1  0
 22 18  1  0
 23 14  2  0
 24 15  1  0
 25  4  1  0
 25  6  1  0
 26  1  1  0
 26  2  1  0
 26  5  1  0
 26 11  1  0
 27  6  1  0
 27  8  1  0
 27 24  1  0
M  END
>  <ID>  (1) 
conformer_0

$$$$
