
     RDKit          3D

 23 27  0  0  0  0  0  0  0  0999 V2000
   20.6626   12.8898  -10.4294 C   0  0  0  0  0  0  0  0  0  0  0  0
   21.3826    9.2178  -11.8197 C   0  0  0  0  0  0  0  0  0  0  0  0
   22.0949   10.9498  -13.4402 C   0  0  0  0  0  0  0  0  0  0  0  0
   22.0055    9.1807  -14.4188 C   0  0  2  0  0  0  0  0  0  0  0  0
   21.4957   11.0449  -12.0396 C   0  0  1  0  0  0  0  0  0  0  0  0
   23.8517    9.9409  -15.0094 C   0  0  0  0  0  0  0  0  0  0  0  0
   23.3188   10.5881  -14.0929 C   0  0  1  0  0  0  0  0  0  0  0  0
   20.3039   10.2220  -11.0074 C   0  0  0  0  0  0  0  0  0  0  0  0
   23.8480    7.0437  -14.8008 C   0  0  2  0  0  0  0  0  0  0  0  0
   19.2922   11.0087  -10.2321 C   0  0  0  0  0  0  0  0  0  0  0  0
   23.1083   13.0233  -11.4888 O   0  0  0  0  0  0  0  0  0  0  0  0
   20.4145   12.7299  -11.5962 C   0  0  0  0  0  0  0  0  0  0  0  0
   26.9816    5.7270  -16.2714 C   0  0  0  0  0  0  0  0  0  0  0  0
   20.3034   11.3129   -9.4691 C   0  0  0  0  0  0  0  0  0  0  0  0
   27.7567    6.2715  -16.6815 O   0  0  0  0  0  0  0  0  0  0  0  0
   27.2864    4.7878  -15.3728 O   0  0  0  0  0  0  0  0  0  0  0  0
   22.3633    8.7013  -12.5503 C   0  0  2  0  0  0  0  0  0  0  0  0
   22.8891    7.7903  -13.7102 C   0  0  1  0  0  0  0  0  0  0  0  0
   21.0047   13.1976   -8.6691 C   0  0  0  0  0  0  0  0  0  0  0  0
   22.3959   12.5727  -11.4970 C   0  0  0  0  0  0  0  0  0  0  0  0
   21.5859   12.5243   -8.3609 C   0  0  0  0  0  0  0  0  0  0  0  0
   25.1344    6.9285  -15.9160 C   0  0  2  0  0  0  0  0  0  0  0  0
   24.2615    8.4283  -15.3974 C   0  0  2  0  0  0  0  0  0  0  0  0
  5  2  1  0
  5  3  1  0
  7  3  1  6
  4  7  1  6
  7  6  1  0
  8  2  1  0
  8  5  1  0
 10  8  1  0
 12  1  2  3
 14  1  1  0
 14 10  1  0
 15 13  2  0
 16 13  1  0
 17  2  1  1
 17  4  1  0
 18  4  1  0
 18  9  1  0
 18 17  1  1
 19  1  1  0
  5 20  1  1
 20 11  2  0
 21 19  1  0
  9 22  1  1
 22 13  1  1
 23  6  1  1
 23  9  1  0
 23 22  1  0
M  END
>  <ID>  (1) 
conformer_0

$$$$
