
     RDKit          3D

 26 27  0  0  0  0  0  0  0  0999 V2000
   23.9414    6.6768  -14.8721 C   0  0  0  0  0  0  0  0  0  0  0  0
   25.0491    6.4434  -16.0405 C   0  0  0  0  0  0  0  0  0  0  0  0
   20.8604   12.6370  -10.4034 C   0  0  0  0  0  0  0  0  0  0  0  0
   22.8101    7.9097  -13.4486 C   0  0  0  0  0  0  0  0  0  0  0  0
   23.2242    8.2003  -14.8219 C   0  0  0  0  0  0  0  0  0  0  0  0
   20.7983   13.2458  -11.7142 C   0  0  0  0  0  0  0  0  0  0  0  0
   21.8418    8.5136  -12.0848 C   0  0  0  0  0  0  0  0  0  0  0  0
   21.7742   11.4144  -12.6714 C   0  0  0  0  0  0  0  0  0  0  0  0
   23.2332   10.6753  -14.3792 C   0  0  0  0  0  0  0  0  0  0  0  0
   24.5121    9.7299  -14.8424 C   0  0  0  0  0  0  0  0  0  0  0  0
   26.2481    5.7152  -15.9078 C   0  0  0  0  0  0  0  0  0  0  0  0
   23.3391   13.0789  -12.9096 O   0  0  0  0  0  0  0  0  0  0  0  0
   21.2340   10.4723  -11.9905 C   0  0  0  0  0  0  0  0  0  0  0  0
   20.8527   12.6469   -8.1326 C   0  0  0  0  0  0  0  0  0  0  0  0
   27.7164    5.9501  -16.4669 O   0  0  0  0  0  0  0  0  0  0  0  0
   22.6358   12.4805  -12.7365 C   0  0  0  0  0  0  0  0  0  0  0  0
   25.0566    8.1583  -15.5468 C   0  0  0  0  0  0  0  0  0  0  0  0
   19.5260   12.0538  -11.4291 C   0  0  0  0  0  0  0  0  0  0  0  0
   20.1480   13.4985   -7.8214 O   0  0  0  0  0  0  0  0  0  0  0  0
   20.4147    9.6677  -11.5701 C   0  0  0  0  0  0  0  0  0  0  0  0
   21.7189   13.5002   -7.9561 O   0  0  0  0  0  0  0  0  0  0  0  0
   19.5740   11.0327  -10.1810 C   0  0  0  0  0  0  0  0  0  0  0  0
   21.5130    9.2338  -13.8186 C   0  0  0  0  0  0  0  0  0  0  0  0
   20.1727   10.9960   -9.2412 C   0  0  0  0  0  0  0  0  0  0  0  0
   23.2544    9.9752  -13.2599 C   0  0  0  0  0  0  0  0  0  0  0  0
   21.0518   11.6243   -7.6949 C   0  0  0  0  0  0  0  0  0  0  0  0
  2  1  1  0
  5  1  1  0
  5  4  1  0
  6  3  1  0
  7  4  1  0
 10  9  1  0
 11  2  1  0
 13  8  1  0
 15 11  1  0
 16  8  2  0
 16 12  2  0
 17  2  1  0
 17 10  1  0
 18  3  1  0
 18  6  1  0
 19 14  1  0
 20  7  1  0
 20 13  1  0
 21 14  1  0
 22 18  1  0
 22 20  1  0
 23  4  1  0
 23  7  1  0
 24 22  1  0
 25  9  1  0
 26 14  1  0
 26 24  1  0
M  END
>  <ID>  (1) 
conformer_0

$$$$
