
     RDKit          3D

 24 30  0  0  0  0  0  0  0  0999 V2000
   22.6876   11.0151  -13.6186 C   0  0  0  0  0  0  0  0  0  0  0  0
   20.8487   13.3105  -11.5514 C   0  0  0  0  0  0  0  0  0  0  0  0
   23.8529   10.2145  -14.1914 C   0  0  0  0  0  0  0  0  0  0  0  0
   21.3049   12.7742  -10.1638 C   0  0  0  0  0  0  0  0  0  0  0  0
   22.0838    9.6278  -14.0332 C   0  0  0  0  0  0  0  0  0  0  0  0
   21.0368   10.0552  -11.5742 C   0  0  0  0  0  0  0  0  0  0  0  0
   23.2607    7.4446  -14.3162 C   0  0  0  0  0  0  0  0  0  0  0  0
   22.8854    8.5051  -12.9930 C   0  0  0  0  0  0  0  0  0  0  0  0
   21.7123    9.0448  -11.9689 C   0  0  0  0  0  0  0  0  0  0  0  0
   23.1966   13.3832  -12.7671 O   0  0  0  0  0  0  0  0  0  0  0  0
   24.1806    6.8350  -14.9771 C   0  0  0  0  0  0  0  0  0  0  0  0
   21.4336   12.5673   -8.6301 C   0  0  0  0  0  0  0  0  0  0  0  0
   26.3889    5.7962  -15.7097 C   0  0  0  0  0  0  0  0  0  0  0  0
   20.3744   11.4036   -9.3760 C   0  0  0  0  0  0  0  0  0  0  0  0
   21.6516   13.0380   -7.7978 O   0  0  0  0  0  0  0  0  0  0  0  0
   27.5705    6.1756  -16.0478 O   0  0  0  0  0  0  0  0  0  0  0  0
   22.6407   12.7454  -12.1134 C   0  0  0  0  0  0  0  0  0  0  0  0
   24.3012    8.8854  -14.7044 C   0  0  0  0  0  0  0  0  0  0  0  0
   26.3300    4.4398  -15.5110 O   0  0  0  0  0  0  0  0  0  0  0  0
   19.7288   12.8559  -11.2938 C   0  0  0  0  0  0  0  0  0  0  0  0
   25.0183    6.3553  -16.1762 C   0  0  0  0  0  0  0  0  0  0  0  0
   20.0918   10.3814  -10.3412 C   0  0  0  0  0  0  0  0  0  0  0  0
   19.1354   11.3674  -10.7046 C   0  0  0  0  0  0  0  0  0  0  0  0
   21.6404   11.4800  -12.3303 C   0  0  0  0  0  0  0  0  0  0  0  0
  3  1  1  0
  4  2  1  0
  5  1  1  0
  5  3  1  0
  8  5  1  0
  8  7  1  0
  9  6  2  0
  9  8  1  0
 11  7  1  0
 12  4  1  0
 14  4  1  0
 14 12  1  0
 15 12  1  0
 16 13  2  0
 17  2  1  0
 17 10  1  0
 18  3  1  0
 18  7  1  0
 19 13  1  0
 20  2  1  0
 21 11  1  0
 21 13  1  0
 22  6  1  0
 22 14  1  0
 23 14  1  0
 23 20  1  0
 23 22  1  0
 24  1  1  0
 24  6  1  0
 24 17  1  0
M  END
>  <ID>  (1) 
conformer_0

$$$$
