
     RDKit          3D

 27 35  0  0  0  0  0  0  0  0999 V2000
   21.9644   10.9918  -12.3477 C   0  0  0  0  0  0  0  0  0  0  0  0
   20.9832   12.3152   -9.0406 C   0  0  0  0  0  0  0  0  0  0  0  0
   20.9241   12.4131  -11.9875 C   0  0  0  0  0  0  0  0  0  0  0  0
   22.3925    8.7226  -14.3269 C   0  0  0  0  0  0  0  0  0  0  0  0
   21.2538   12.7643  -10.4473 C   0  0  0  0  0  0  0  0  0  0  0  0
   23.9889    9.5895  -15.1514 C   0  0  0  0  0  0  0  0  0  0  0  0
   20.2053   10.3088  -11.4766 C   0  0  0  0  0  0  0  0  0  0  0  0
   22.5807   11.0841  -13.9489 C   0  0  0  0  0  0  0  0  0  0  0  0
   23.6964    9.8965  -13.8634 C   0  0  0  0  0  0  0  0  0  0  0  0
   24.5498    7.0274  -15.5827 C   0  0  0  0  0  0  0  0  0  0  0  0
   23.1813   13.3494  -12.3480 O   0  0  0  0  0  0  0  0  0  0  0  0
   21.2388   10.4591  -10.3004 C   0  0  0  0  0  0  0  0  0  0  0  0
   19.2552   12.1236  -11.2032 C   0  0  0  0  0  0  0  0  0  0  0  0
   27.0269    5.7754  -16.1556 C   0  0  0  0  0  0  0  0  0  0  0  0
   21.5425   13.5205   -9.0129 C   0  0  0  0  0  0  0  0  0  0  0  0
   28.0877    6.2676  -16.7016 O   0  0  0  0  0  0  0  0  0  0  0  0
   21.7200   14.3395   -8.8315 O   0  0  0  0  0  0  0  0  0  0  0  0
   24.9939    8.0878  -15.1977 C   0  0  0  0  0  0  0  0  0  0  0  0
   25.8149    6.1337  -16.1583 C   0  0  0  0  0  0  0  0  0  0  0  0
   22.3159   13.2914  -11.9636 C   0  0  0  0  0  0  0  0  0  0  0  0
   20.2689   11.0252   -8.9890 C   0  0  0  0  0  0  0  0  0  0  0  0
   19.1703   11.1851  -10.0682 C   0  0  0  0  0  0  0  0  0  0  0  0
   27.5584    4.9306  -15.5383 O   0  0  0  0  0  0  0  0  0  0  0  0
   23.4882    7.3763  -14.1069 C   0  0  0  0  0  0  0  0  0  0  0  0
   22.5019    8.1451  -12.5797 C   0  0  0  0  0  0  0  0  0  0  0  0
   21.7612    9.0135  -11.5040 C   0  0  0  0  0  0  0  0  0  0  0  0
   21.3768    9.5680  -13.0744 C   0  0  0  0  0  0  0  0  0  0  0  0
  3  1  1  0
  5  2  1  0
  5  3  1  0
  8  1  1  0
  9  4  1  0
  9  6  1  0
  9  8  1  0
 12  7  1  0
 13  3  1  0
 15  2  1  0
 15  5  1  0
 16 14  2  0
 17 15  1  0
 18  6  1  0
 18 10  1  0
 19 10  1  0
 19 14  1  0
 20  3  1  0
 20  5  1  0
 20 11  1  0
 21  2  1  0
 21 12  1  0
 22  7  1  0
 22 13  1  0
 22 21  1  0
 23 14  1  0
 24  4  1  0
 24 10  1  0
 25  4  1  0
 26 12  1  0
 26 25  1  0
 27  1  1  0
 27  4  1  0
 27 25  1  0
 27 26  1  0
M  END
>  <ID>  (1) 
conformer_0

$$$$
