
     RDKit          3D

 27 29  0  0  0  0  0  0  0  0999 V2000
   20.5976   13.3482  -11.1048 C   0  0  0  0  0  0  0  0  0  0  0  0
   22.1071   10.8387  -14.0081 C   0  0  0  0  0  0  0  0  0  0  0  0
   21.1607   11.6508   -8.9384 C   0  0  0  0  0  0  0  0  0  0  0  0
   23.3751   10.7964  -14.3029 C   0  0  0  0  0  0  0  0  0  0  0  0
   21.1639   10.3926  -10.8383 C   0  0  0  0  0  0  0  0  0  0  0  0
   21.0643    9.9833  -12.3744 C   0  0  0  0  0  0  0  0  0  0  0  0
   23.5989    9.2199  -15.3824 C   0  0  0  0  0  0  0  0  0  0  0  0
   23.4557    7.0172  -14.5682 C   0  0  0  0  0  0  0  0  0  0  0  0
   24.6441    7.5229  -15.7151 C   0  0  0  0  0  0  0  0  0  0  0  0
   25.1871    6.4476  -15.8185 C   0  0  0  0  0  0  0  0  0  0  0  0
   23.1299   13.0599  -12.5777 O   0  0  0  0  0  0  0  0  0  0  0  0
   21.4887   12.9181   -9.9015 C   0  0  0  0  0  0  0  0  0  0  0  0
   21.3621   13.1064   -8.5025 C   0  0  0  0  0  0  0  0  0  0  0  0
   27.5408    6.1286  -16.0038 O   0  0  0  0  0  0  0  0  0  0  0  0
   26.5075    5.5923  -15.6377 C   0  0  0  0  0  0  0  0  0  0  0  0
   26.3203    4.5726  -14.7710 O   0  0  0  0  0  0  0  0  0  0  0  0
   21.8660    8.8290  -14.4456 C   0  0  0  0  0  0  0  0  0  0  0  0
   23.1634    7.5500  -13.3319 C   0  0  0  0  0  0  0  0  0  0  0  0
   21.2294   13.5368   -7.6822 O   0  0  0  0  0  0  0  0  0  0  0  0
   22.3036   12.5821  -12.7265 C   0  0  0  0  0  0  0  0  0  0  0  0
   24.4801    9.0463  -14.0220 C   0  0  0  0  0  0  0  0  0  0  0  0
   21.4101   11.7070  -12.2990 C   0  0  0  0  0  0  0  0  0  0  0  0
   19.4390   11.0116  -10.7893 C   0  0  0  0  0  0  0  0  0  0  0  0
   19.6529   12.3210  -11.3933 C   0  0  0  0  0  0  0  0  0  0  0  0
   20.1819   11.1913   -9.3943 C   0  0  0  0  0  0  0  0  0  0  0  0
   22.1508    8.6989  -12.4183 C   0  0  0  0  0  0  0  0  0  0  0  0
   23.3875    9.5811  -12.6466 C   0  0  0  0  0  0  0  0  0  0  0  0
  4  2  1  0
  6  5  1  0
  7  4  1  0
  9  8  1  0
 10  9  1  0
 12  1  1  0
 12  3  1  0
 13  3  1  0
 13 12  1  0
 15 10  1  0
 15 14  2  0
 16 15  1  0
 17  7  1  0
 18  8  1  0
 19 13  1  0
 20 11  2  0
 21  7  1  0
 22  6  1  0
 22 20  1  0
 23  5  1  0
 24  1  1  0
 24 23  1  0
 25  3  1  0
 25  5  1  0
 25 23  1  0
 26  6  1  0
 26 18  1  0
 27 21  1  0
 27 26  1  0
M  END
>  <ID>  (1) 
conformer_0

$$$$
