
     RDKit          3D

 27 31  0  0  0  0  0  0  0  0999 V2000
   22.2256    8.3219  -12.3278 C   0  0  0  0  0  0  0  0  0  0  0  0
   22.2407    9.0219  -14.0968 C   0  0  0  0  0  0  0  0  0  0  0  0
   21.3723    9.5569  -12.5655 C   0  0  0  0  0  0  0  0  0  0  0  0
   22.2828   11.2948  -13.5441 C   0  0  0  0  0  0  0  0  0  0  0  0
   24.0369    9.6064  -14.8285 C   0  0  0  0  0  0  0  0  0  0  0  0
   23.5038   10.4780  -13.8191 C   0  0  0  0  0  0  0  0  0  0  0  0
   19.5556   11.2100  -10.6871 C   0  0  0  0  0  0  0  0  0  0  0  0
   23.1962    7.6859  -13.7056 C   0  0  0  0  0  0  0  0  0  0  0  0
   20.9768    9.8079  -11.1836 C   0  0  0  0  0  0  0  0  0  0  0  0
   24.8710    8.4781  -15.3954 C   0  0  0  0  0  0  0  0  0  0  0  0
   21.2919   12.4695   -7.9118 C   0  0  0  0  0  0  0  0  0  0  0  0
   19.8705   10.6531   -9.4800 C   0  0  0  0  0  0  0  0  0  0  0  0
   26.5957    5.5459  -16.1447 C   0  0  0  0  0  0  0  0  0  0  0  0
   27.8378    6.1830  -16.4590 O   0  0  0  0  0  0  0  0  0  0  0  0
   22.7013   13.7045  -12.7821 O   0  0  0  0  0  0  0  0  0  0  0  0
   22.0873   13.0517  -12.5909 C   0  0  0  0  0  0  0  0  0  0  0  0
   25.0044    6.8807  -15.7226 C   0  0  0  0  0  0  0  0  0  0  0  0
   23.6985    6.9549  -14.9423 C   0  0  0  0  0  0  0  0  0  0  0  0
   21.4885   12.9220   -7.0960 O   0  0  0  0  0  0  0  0  0  0  0  0
   20.7565   11.1609   -8.2765 C   0  0  0  0  0  0  0  0  0  0  0  0
   26.8557    4.6251  -15.7408 N   0  0  0  0  0  0  0  0  0  0  0  0
   20.8284   12.1990   -9.9978 C   0  0  0  0  0  0  0  0  0  0  0  0
   24.9371    5.7541  -16.7283 C   0  0  0  0  0  0  0  0  0  0  0  0
   21.9576   13.4331   -8.6840 O   0  0  0  0  0  0  0  0  0  0  0  0
   20.0973   12.3788  -12.1715 C   0  0  0  0  0  0  0  0  0  0  0  0
   20.4688   13.2849  -11.3520 C   0  0  0  0  0  0  0  0  0  0  0  0
   21.5366   11.3584  -12.2455 C   0  0  0  0  0  0  0  0  0  0  0  0
  2  1  1  0
  3  1  1  0
  3  2  1  0
  6  2  1  0
  6  4  1  0
  6  5  1  0
  8  1  1  0
  8  2  1  0
  9  3  1  0
 10  5  1  0
 12  7  1  0
 14 13  2  0
 16 15  1  0
 17 10  1  0
 18  8  1  0
 18 17  1  0
 19 11  1  0
 20 11  1  0
 20 12  1  0
 21 13  1  0
 22  7  1  0
 23 13  1  0
 23 17  1  0
 24 11  2  0
 25  7  1  0
 26 22  1  0
 26 25  1  0
 27  3  1  0
 27  4  1  0
 27 16  1  0
 27 25  1  0
M  END
>  <ID>  (1) 
conformer_0

$$$$
