
     RDKit          3D

 28 34  0  0  0  0  0  0  0  0999 V2000
   20.0646   10.3950   -9.5125 C   0  0  0  0  0  0  0  0  0  0  0  0
   20.3544   12.2181  -12.0513 C   0  0  0  0  0  0  0  0  0  0  0  0
   20.5687   13.5501  -11.3563 C   0  0  0  0  0  0  0  0  0  0  0  0
   23.8432   10.5228  -15.2484 C   0  0  0  0  0  0  0  0  0  0  0  0
   19.2004   11.4808  -11.0569 C   0  0  0  0  0  0  0  0  0  0  0  0
   24.6219    8.0736  -15.3204 C   0  0  0  0  0  0  0  0  0  0  0  0
   20.6639   11.2218   -8.3931 C   0  0  0  0  0  0  0  0  0  0  0  0
   20.4042   10.0855  -11.3614 C   0  0  0  0  0  0  0  0  0  0  0  0
   21.5079    9.2566  -11.5252 C   0  0  0  0  0  0  0  0  0  0  0  0
   21.1519   13.5754   -9.8949 C   0  0  0  0  0  0  0  0  0  0  0  0
   23.1224    7.4084  -14.0365 C   0  0  0  0  0  0  0  0  0  0  0  0
   21.1784   12.7698   -8.3106 C   0  0  0  0  0  0  0  0  0  0  0  0
   23.2812   13.1733  -12.7812 O   0  0  0  0  0  0  0  0  0  0  0  0
   26.6659    5.4277  -15.8704 C   0  0  0  0  0  0  0  0  0  0  0  0
   21.5618   13.2292   -7.3930 O   0  0  0  0  0  0  0  0  0  0  0  0
   27.8579    5.7743  -16.1246 O   0  0  0  0  0  0  0  0  0  0  0  0
   24.2021    6.6679  -15.0127 C   0  0  0  0  0  0  0  0  0  0  0  0
   25.5795    6.4152  -15.9770 C   0  0  0  0  0  0  0  0  0  0  0  0
   22.6359   11.2460  -14.3436 C   0  0  0  0  0  0  0  0  0  0  0  0
   22.6005   12.5806  -12.8680 C   0  0  0  0  0  0  0  0  0  0  0  0
   22.6024    8.1274  -12.7316 C   0  0  0  0  0  0  0  0  0  0  0  0
   24.2634    9.5575  -14.0046 C   0  0  0  0  0  0  0  0  0  0  0  0
   21.6933    9.3487  -13.4197 C   0  0  0  0  0  0  0  0  0  0  0  0
   26.2992    4.3628  -15.4465 O   0  0  0  0  0  0  0  0  0  0  0  0
   20.5725   11.7126   -9.8571 C   0  0  0  0  0  0  0  0  0  0  0  0
   21.8753   11.2043  -12.2633 C   0  0  0  0  0  0  0  0  0  0  0  0
   22.5330    8.8870  -15.0013 C   0  0  0  0  0  0  0  0  0  0  0  0
   23.2520   10.3713  -12.9364 C   0  0  0  0  0  0  0  0  0  0  0  0
  3  2  1  0
  5  2  1  0
  7  1  1  0
  8  1  1  0
  8  5  1  0
  9  8  1  0
 10  3  1  0
 12  7  1  0
 12 10  1  0
 15 12  1  0
 16 14  2  0
 17  6  1  0
 17 11  1  0
 18 14  1  0
 18 17  1  0
 19  4  1  0
 20 13  2  0
 21 11  1  0
 22  4  1  0
 23  9  1  0
 23 21  1  0
 24 14  1  0
 25  1  1  0
 25  5  1  0
 25  7  1  0
 25 10  1  0
 26  2  1  0
 26 20  1  0
 27 11  1  0
 27 23  1  0
 28 19  1  0
 28 22  1  0
 28 23  1  0
 28 26  1  0
M  END
>  <ID>  (1) 
conformer_0

$$$$
