
     RDKit          3D

 23 26  0  0  0  0  0  0  0  0999 V2000
   20.7554   13.1694  -11.1281 C   0  0  0  0  0  0  0  0  0  0  0  0
   20.4678   11.1637   -9.7137 C   0  0  0  0  0  0  0  0  0  0  0  0
   23.1088   10.0274  -13.3836 C   0  0  2  0  0  0  0  0  0  0  0  0
   20.7335   11.4856   -8.6917 C   0  0  0  0  0  0  0  0  0  0  0  0
   20.5055   10.0529  -11.5844 C   0  0  2  0  0  0  0  0  0  0  0  0
   22.6182   11.1977  -14.0750 C   0  0  0  0  0  0  0  0  0  0  0  0
   21.1568   13.2333   -9.6984 C   0  0  0  0  0  0  0  0  0  0  0  0
   22.0592    9.5193  -11.4551 C   0  0  1  0  0  0  0  0  0  0  0  0
   22.5483    8.2596  -12.5053 C   0  0  2  0  0  0  0  0  0  0  0  0
   26.5561    5.4856  -15.8150 C   0  0  0  0  0  0  0  0  0  0  0  0
   23.3271   12.9505  -12.2128 O   0  0  0  0  0  0  0  0  0  0  0  0
   23.8104   10.5163  -14.9369 C   0  0  2  0  0  0  0  0  0  0  0  0
   21.2667   12.5217   -8.0369 C   0  0  0  0  0  0  0  0  0  0  0  0
   27.5190    6.3664  -16.4141 O   0  0  0  0  0  0  0  0  0  0  0  0
   22.2398   12.3803  -12.1101 C   0  0  0  0  0  0  0  0  0  0  0  0
   21.4800   12.9512   -7.0330 O   0  0  0  0  0  0  0  0  0  0  0  0
   23.8197    6.8694  -14.6977 C   0  0  0  0  0  0  0  0  0  0  0  0
   23.7500    8.8380  -14.9937 C   0  0  0  0  0  0  0  0  0  0  0  0
   24.6927    6.5103  -15.9077 C   0  0  0  0  0  0  0  0  0  0  0  0
   21.4593   11.2818  -12.0423 C   0  0  2  0  0  0  0  0  0  0  0  0
   22.7318    7.7485  -14.2171 C   0  0  2  0  0  0  0  0  0  0  0  0
   21.5478    9.2376  -13.6017 C   0  0  0  0  0  0  0  0  0  0  0  0
   19.5317   11.4621  -10.6945 C   0  0  0  0  0  0  0  0  0  0  0  0
  4  2  1  0
  3  6  1  1
  7  1  1  0
  8  5  1  0
  8  9  1  6
 12  3  1  0
 12  6  1  6
 13  4  2  0
 13  7  1  0
 14 10  1  0
 15  1  1  0
 15 11  2  0
 16 13  1  0
 18 12  1  0
 19 10  1  0
 19 17  2  3
 20  5  1  0
 20  8  1  0
 20 15  1  1
 21  9  1  0
 21 17  1  0
 21 18  1  6
 22  3  1  0
  9 22  1  1
 23  2  1  0
  5 23  1  1
M  END
>  <ID>  (1) 
conformer_0

$$$$
