
     RDKit          3D

 24 25  0  0  0  0  0  0  0  0999 V2000
   20.2109   12.5080  -11.7598 C   0  0  0  0  0  0  0  0  0  0  0  0
   21.3550   11.0474  -12.3594 C   0  0  0  0  0  0  0  0  0  0  0  0
   19.5094   11.4212  -10.8821 C   0  0  0  0  0  0  0  0  0  0  0  0
   21.4170    9.7655  -11.2585 C   0  0  0  0  0  0  0  0  0  0  0  0
   20.3263   10.7321   -9.8200 C   0  0  0  0  0  0  0  0  0  0  0  0
   22.2441    8.8011  -12.1397 C   0  0  0  0  0  0  0  0  0  0  0  0
   22.5326   10.5192  -13.1755 C   0  0  0  0  0  0  0  0  0  0  0  0
   22.1870    8.8153  -13.6684 C   0  0  0  0  0  0  0  0  0  0  0  0
   20.8249   11.4689   -9.0089 C   0  0  0  0  0  0  0  0  0  0  0  0
   24.0638    9.9319  -14.7770 C   0  0  0  0  0  0  0  0  0  0  0  0
   23.1951   10.6841  -14.3586 C   0  0  0  0  0  0  0  0  0  0  0  0
   22.9855    7.5701  -14.0453 C   0  0  0  0  0  0  0  0  0  0  0  0
   22.8347   13.4895  -12.7662 O   0  0  0  0  0  0  0  0  0  0  0  0
   26.6121    5.7662  -16.0505 C   0  0  0  0  0  0  0  0  0  0  0  0
   21.9852   13.2713   -7.4092 O   0  0  0  0  0  0  0  0  0  0  0  0
   24.2106    8.2100  -14.9705 C   0  0  0  0  0  0  0  0  0  0  0  0
   21.8047   12.9103   -8.3860 C   0  0  0  0  0  0  0  0  0  0  0  0
   27.1023    4.8992  -15.3935 O   0  0  0  0  0  0  0  0  0  0  0  0
   21.9818   13.5466  -11.7980 C   0  0  0  0  0  0  0  0  0  0  0  0
   27.6352    6.1235  -16.6537 O   0  0  0  0  0  0  0  0  0  0  0  0
   24.4464    6.6939  -15.3423 C   0  0  0  0  0  0  0  0  0  0  0  0
   21.0224   13.0217  -10.4904 C   0  0  0  0  0  0  0  0  0  0  0  0
   24.9455    6.0344  -16.4781 C   0  0  0  0  0  0  0  0  0  0  0  0
   23.1850   13.1441  -10.6402 O   0  0  0  0  0  0  0  0  0  0  0  0
  2  1  1  0
  3  1  1  0
  4  2  1  0
  5  3  1  0
  6  4  1  0
  7  2  1  0
  8  6  1  0
  8  7  1  0
  9  5  1  0
 11  7  1  0
 11 10  1  0
 12  8  1  0
 16 10  1  0
 16 12  1  0
 17  9  1  0
 17 15  1  0
 18 14  1  0
 19 13  1  0
 20 14  2  0
 21 16  1  0
 22  1  1  0
 22 19  1  0
 23 14  1  0
 23 21  1  0
 24 19  1  0
M  END
>  <ID>  (1) 
conformer_0

$$$$
