
     RDKit          3D

 29 41  0  0  0  0  0  0  0  0999 V2000
   19.8894   10.6250  -11.7813 C   0  0  0  0  0  0  0  0  0  0  0  0
   20.7504   13.1850  -11.1537 C   0  0  0  0  0  0  0  0  0  0  0  0
   21.1416   12.6991   -9.5439 C   0  0  0  0  0  0  0  0  0  0  0  0
   19.4301   12.0742  -11.0854 C   0  0  0  0  0  0  0  0  0  0  0  0
   21.0659   10.4993  -10.2295 C   0  0  0  0  0  0  0  0  0  0  0  0
   20.9785   12.3882  -12.5788 C   0  0  0  0  0  0  0  0  0  0  0  0
   21.1028    9.1462  -11.7095 C   0  0  0  0  0  0  0  0  0  0  0  0
   22.5774    8.9036  -11.8884 C   0  0  0  0  0  0  0  0  0  0  0  0
   23.6341    9.5554  -13.7237 C   0  0  0  0  0  0  0  0  0  0  0  0
   23.4314   13.1239  -12.6967 O   0  0  0  0  0  0  0  0  0  0  0  0
   21.4758   12.6274   -7.8967 C   0  0  0  0  0  0  0  0  0  0  0  0
   23.6865    6.8298  -14.7614 C   0  0  0  0  0  0  0  0  0  0  0  0
   25.1504    6.5407  -16.1264 C   0  0  0  0  0  0  0  0  0  0  0  0
   22.6649    7.5300  -13.2661 C   0  0  0  0  0  0  0  0  0  0  0  0
   27.5672    6.0697  -16.0399 O   0  0  0  0  0  0  0  0  0  0  0  0
   26.3925    5.7458  -15.6899 C   0  0  0  0  0  0  0  0  0  0  0  0
   22.6719   12.5944  -13.4136 C   0  0  0  0  0  0  0  0  0  0  0  0
   26.4736    4.5675  -15.0502 O   0  0  0  0  0  0  0  0  0  0  0  0
   21.7893   13.1466   -7.3419 O   0  0  0  0  0  0  0  0  0  0  0  0
   24.6174    7.8455  -15.5995 C   0  0  0  0  0  0  0  0  0  0  0  0
   22.2093   13.2630  -14.1458 O   0  0  0  0  0  0  0  0  0  0  0  0
   19.5731   10.7421   -9.8212 C   0  0  0  0  0  0  0  0  0  0  0  0
   20.7140   11.3624   -8.5982 C   0  0  0  0  0  0  0  0  0  0  0  0
   21.7772   10.9044  -12.1899 C   0  0  0  0  0  0  0  0  0  0  0  0
   22.4598   10.8986  -13.6931 C   0  0  0  0  0  0  0  0  0  0  0  0
   24.4417    9.5892  -15.2406 C   0  0  0  0  0  0  0  0  0  0  0  0
   23.7102   11.1024  -14.8380 C   0  0  0  0  0  0  0  0  0  0  0  0
   22.7158    8.2760  -14.6162 C   0  0  0  0  0  0  0  0  0  0  0  0
   21.4603    9.2846  -13.6292 C   0  0  0  0  0  0  0  0  0  0  0  0
  3  2  1  0
  4  1  1  0
  4  2  1  0
  5  1  1  0
  6  2  1  0
  7  1  1  0
  8  7  1  0
 11  3  1  0
 14  8  1  0
 14 12  1  0
 16 13  1  0
 16 15  2  0
 17  6  1  0
 17 10  1  0
 18 16  1  0
 19 11  1  0
 20 12  1  0
 20 13  1  0
 21 17  1  0
 22  4  1  0
 22  5  1  0
 23  3  1  0
 23  5  1  0
 23 11  1  0
 23 22  1  0
 24  1  1  0
 24  6  1  0
 24  7  1  0
 25  9  1  0
 25 17  1  0
 25 24  1  0
 26  9  1  0
 26 20  1  0
 27  9  1  0
 27 25  1  0
 27 26  1  0
 28  9  1  0
 28 12  1  0
 28 14  1  0
 29  7  1  0
 29 28  1  0
M  END
>  <ID>  (1) 
conformer_0

$$$$
