
     RDKit          3D

 29 39  0  0  0  0  0  0  0  0999 V2000
   21.3696   11.7532  -11.3589 C   0  0  0  0  0  0  0  0  0  0  0  0
   20.0061   10.7956   -9.4577 C   0  0  0  0  0  0  0  0  0  0  0  0
   20.3361   13.2969  -11.3874 C   0  0  0  0  0  0  0  0  0  0  0  0
   21.4498    9.9925  -10.3759 C   0  0  0  0  0  0  0  0  0  0  0  0
   22.7527    9.0946  -11.9632 C   0  0  0  0  0  0  0  0  0  0  0  0
   21.3844   13.5146  -10.0800 C   0  0  0  0  0  0  0  0  0  0  0  0
   21.5948    9.2627  -13.6914 C   0  0  0  0  0  0  0  0  0  0  0  0
   20.6188   11.8769   -9.0236 C   0  0  0  0  0  0  0  0  0  0  0  0
   23.2003   10.9844  -14.8144 C   0  0  0  0  0  0  0  0  0  0  0  0
   23.1402   10.5609  -13.2091 C   0  0  0  0  0  0  0  0  0  0  0  0
   21.1780   13.1326   -8.5736 C   0  0  0  0  0  0  0  0  0  0  0  0
   26.4025    5.9793  -16.1222 C   0  0  0  0  0  0  0  0  0  0  0  0
   27.7332    6.5186  -16.6126 O   0  0  0  0  0  0  0  0  0  0  0  0
   22.5316    9.1482  -14.8964 C   0  0  0  0  0  0  0  0  0  0  0  0
   26.7875    4.7210  -15.3561 O   0  0  0  0  0  0  0  0  0  0  0  0
   21.7252   13.3891   -7.7564 O   0  0  0  0  0  0  0  0  0  0  0  0
   23.0015    7.5102  -13.9542 C   0  0  0  0  0  0  0  0  0  0  0  0
   24.1874    9.0176  -14.0364 C   0  0  0  0  0  0  0  0  0  0  0  0
   23.0877   13.0791  -12.1618 O   0  0  0  0  0  0  0  0  0  0  0  0
   24.5028    9.8206  -15.3948 C   0  0  0  0  0  0  0  0  0  0  0  0
   19.8799   10.4094  -11.4852 C   0  0  0  0  0  0  0  0  0  0  0  0
   25.3172    7.7180  -15.4100 C   0  0  0  0  0  0  0  0  0  0  0  0
   19.4722   11.9748  -10.8987 C   0  0  0  0  0  0  0  0  0  0  0  0
   23.7302    7.3334  -15.5958 C   0  0  0  0  0  0  0  0  0  0  0  0
   21.9270   13.4433  -10.9365 C   0  0  0  0  0  0  0  0  0  0  0  0
   25.3766    6.1988  -17.1443 C   0  0  0  0  0  0  0  0  0  0  0  0
   24.3813    6.1251  -15.0430 C   0  0  0  0  0  0  0  0  0  0  0  0
   21.1976    9.1711  -11.8960 C   0  0  0  0  0  0  0  0  0  0  0  0
   21.4856   11.0081  -12.9204 C   0  0  0  0  0  0  0  0  0  0  0  0
  3  1  1  0
  4  2  1  0
  8  2  1  0
 10  5  1  0
 10  9  1  0
 11  6  1  0
 11  8  1  0
 13 12  1  0
 14  7  1  0
 14  9  1  0
 15 12  1  0
 16 11  1  0
 17 14  1  0
 18 14  1  0
 18 17  1  0
 20  9  1  0
 20 18  1  0
 21  4  1  0
 22 12  1  0
 23  1  1  0
 23  2  1  0
 23  3  1  0
 23 21  1  0
 24 17  1  0
 24 22  1  0
 25  1  1  0
 25  3  1  0
 25  6  1  0
 25 19  1  0
 26 12  1  0
 27 22  1  0
 27 24  1  0
 28  4  1  0
 28  5  1  0
 28  7  1  0
 28 21  1  0
 29  1  1  0
 29  7  1  0
 29 10  1  0
M  END
>  <ID>  (1) 
conformer_0

$$$$
