
     RDKit          3D

 25 30  0  0  0  0  0  0  0  0999 V2000
   20.3283   12.7729  -11.3321 C   0  0  0  0  0  0  0  0  0  0  0  0
   19.4313   11.4402  -11.0567 C   0  0  0  0  0  0  0  0  0  0  0  0
   20.4106   10.2656  -10.7640 C   0  0  0  0  0  0  0  0  0  0  0  0
   20.2114   10.9254   -9.2918 C   0  0  0  0  0  0  0  0  0  0  0  0
   20.5994   11.8086   -8.9167 C   0  0  0  0  0  0  0  0  0  0  0  0
   21.6664    9.4575  -11.2720 C   0  0  0  0  0  0  0  0  0  0  0  0
   21.2008   13.5017  -10.1197 C   0  0  0  0  0  0  0  0  0  0  0  0
   21.1155   11.5955  -12.1669 C   0  0  0  0  0  0  0  0  0  0  0  0
   22.6069    8.4632  -12.0514 C   0  0  0  0  0  0  0  0  0  0  0  0
   24.2035    9.8740  -15.1010 C   0  0  0  0  0  0  0  0  0  0  0  0
   23.1858   11.0740  -14.5894 C   0  0  0  0  0  0  0  0  0  0  0  0
   23.2608   13.2956  -12.7074 O   0  0  0  0  0  0  0  0  0  0  0  0
   23.4180    9.4882  -13.7133 C   0  0  0  0  0  0  0  0  0  0  0  0
   26.7596    5.6961  -15.9491 C   0  0  0  0  0  0  0  0  0  0  0  0
   28.0872    5.8373  -16.3998 O   0  0  0  0  0  0  0  0  0  0  0  0
   21.3424   13.0081   -8.7057 C   0  0  0  0  0  0  0  0  0  0  0  0
   21.8054   13.1291   -7.6158 O   0  0  0  0  0  0  0  0  0  0  0  0
   23.7958    7.1724  -15.0788 C   0  0  0  0  0  0  0  0  0  0  0  0
   22.5243   12.8189  -12.6042 C   0  0  0  0  0  0  0  0  0  0  0  0
   24.6278    7.7719  -15.1993 C   0  0  0  0  0  0  0  0  0  0  0  0
   25.4579    6.0867  -16.3611 C   0  0  0  0  0  0  0  0  0  0  0  0
   22.9701    7.6839  -13.5384 C   0  0  0  0  0  0  0  0  0  0  0  0
   22.2103   10.9776  -13.2570 C   0  0  0  0  0  0  0  0  0  0  0  0
   22.1026    8.7253  -14.4339 C   0  0  0  0  0  0  0  0  0  0  0  0
   21.1825    9.5349  -12.8374 C   0  0  0  0  0  0  0  0  0  0  0  0
  2  1  1  0
  3  2  1  0
  4  3  1  0
  5  4  2  0
  6  3  1  0
  7  1  1  0
  8  1  1  0
  9  6  1  0
 11 10  1  0
 13 10  1  0
 13 11  1  0
 15 14  1  0
 16  5  2  0
 16  7  1  0
 17 16  1  0
 19  8  1  0
 19 12  1  0
 20 18  1  0
 21 14  1  0
 21 20  1  0
 22  9  1  0
 22 13  1  0
 22 18  1  0
 23  8  1  0
 23 11  1  0
 24 13  1  0
 24 22  1  0
 25  6  1  0
 25  9  1  0
 25 23  1  0
M  END
>  <ID>  (1) 
conformer_0

$$$$
