
     RDKit          3D

 24 28  0  0  0  0  0  0  0  0999 V2000
   24.0638   10.1244  -14.8423 C   0  0  0  0  0  0  0  0  0  0  0  0
   20.3195   10.5008  -11.1698 C   0  0  2  0  0  0  0  0  0  0  0  0
   21.6200   11.3506  -12.3729 C   0  0  2  0  0  0  0  0  0  0  0  0
   21.3129    9.4727  -11.6072 C   0  0  0  0  0  0  0  0  0  0  0  0
   23.1827   10.9703  -14.6427 C   0  0  0  0  0  0  0  0  0  0  0  0
   21.1202   12.8207  -11.3542 C   0  0  0  0  0  0  0  0  0  0  0  0
   22.7494   10.4468  -13.0635 C   0  0  1  0  0  0  0  0  0  0  0  0
   19.9975   10.7792   -9.4746 C   0  0  1  0  0  0  0  0  0  0  0  0
   22.3748    8.7189  -12.4096 C   0  0  2  0  0  0  0  0  0  0  0  0
   21.7681    9.0599  -13.8853 C   0  0  2  0  0  0  0  0  0  0  0  0
   22.7864    7.6105  -14.0361 C   0  0  2  0  0  0  0  0  0  0  0  0
   23.6308   13.2831  -12.7601 O   0  0  0  0  0  0  0  0  0  0  0  0
   26.5778    5.5853  -15.8902 C   0  0  0  0  0  0  0  0  0  0  0  0
   27.5876    6.2771  -16.2317 O   0  0  0  0  0  0  0  0  0  0  0  0
   20.5972   11.1838   -8.4738 C   0  0  0  0  0  0  0  0  0  0  0  0
   22.6121   12.9283  -12.6621 C   0  0  0  0  0  0  0  0  0  0  0  0
   21.2580   12.4245   -7.8461 C   0  0  0  0  0  0  0  0  0  0  0  0
   26.7434    4.4930  -15.5879 O   0  0  0  0  0  0  0  0  0  0  0  0
   21.8665   12.9658   -7.2730 O   0  0  0  0  0  0  0  0  0  0  0  0
   21.2191   13.0000   -9.9516 C   0  0  0  0  0  0  0  0  0  0  0  0
   19.5452   11.6111  -10.9146 C   0  0  0  0  0  0  0  0  0  0  0  0
   23.6816    8.7038  -14.6416 C   0  0  1  0  0  0  0  0  0  0  0  0
   24.0521    7.1538  -15.1757 C   0  0  0  0  0  0  0  0  0  0  0  0
   24.9830    6.5479  -15.5990 C   0  0  0  0  0  3  0  0  0  0  0  0
  3  2  1  0
  2  4  1  6
  5  1  1  0
  3  6  1  1
  7  3  1  0
  7  5  1  1
  8  2  1  0
  9  4  1  1
  9  7  1  0
 10  7  1  0
 10  9  1  1
 11 10  1  0
 14 13  2  0
  8 15  1  1
 16  3  1  0
 16 12  2  0
 17 15  1  0
 18 13  1  0
 19 17  1  0
 20  6  1  0
 21  2  1  0
 21  8  1  0
 22  1  1  6
 22 11  1  0
 11 23  1  6
 23 22  1  0
 24 13  1  0
 24 23  2  3
M  RAD  1  24   2
M  END
>  <ID>  (1) 
conformer_0

$$$$
