
     RDKit          3D

 27 31  0  0  0  0  0  0  0  0999 V2000
   21.1804    9.7581  -11.6008 C   0  0  0  0  0  0  0  0  0  0  0  0
   23.6004   10.4888  -15.2101 C   0  0  0  0  0  0  0  0  0  0  0  0
   21.4201   10.9840  -11.9898 C   0  0  0  0  0  0  0  0  0  0  0  0
   19.5396   10.5132  -10.8090 C   0  0  0  0  0  0  0  0  0  0  0  0
   20.6113   11.0274   -9.6888 C   0  0  0  0  0  0  0  0  0  0  0  0
   22.5926   11.0796  -13.9415 C   0  0  0  0  0  0  0  0  0  0  0  0
   19.2984   11.9548  -10.7909 C   0  0  0  0  0  0  0  0  0  0  0  0
   22.1641    8.4674  -11.9793 C   0  0  0  0  0  0  0  0  0  0  0  0
   22.5620    8.7835  -15.0288 C   0  0  0  0  0  0  0  0  0  0  0  0
   23.0808    9.8888  -13.1509 C   0  0  0  0  0  0  0  0  0  0  0  0
   23.1716   13.1053  -12.4618 O   0  0  0  0  0  0  0  0  0  0  0  0
   20.2818   12.6987  -11.8355 C   0  0  0  0  0  0  0  0  0  0  0  0
   26.4324    5.7249  -16.0224 C   0  0  0  0  0  0  0  0  0  0  0  0
   21.3765   12.6279   -8.0726 C   0  0  0  0  0  0  0  0  0  0  0  0
   21.8521   13.1478   -7.3056 O   0  0  0  0  0  0  0  0  0  0  0  0
   22.3414   12.5751  -12.4253 C   0  0  0  0  0  0  0  0  0  0  0  0
   20.6538   13.6851  -10.9972 C   0  0  0  0  0  0  0  0  0  0  0  0
   27.9076    5.7829  -16.6729 O   0  0  0  0  0  0  0  0  0  0  0  0
   21.4202    9.2967  -13.7409 C   0  0  0  0  0  0  0  0  0  0  0  0
   20.4882   11.0985   -8.6380 C   0  0  0  0  0  0  0  0  0  0  0  0
   21.3454   12.9715   -9.4722 C   0  0  0  0  0  0  0  0  0  0  0  0
   26.5924    5.3964  -15.4053 N   0  0  0  0  0  0  0  0  0  0  0  0
   24.6185    9.4536  -14.6805 C   0  0  0  0  0  0  0  0  0  0  0  0
   24.8659    6.5357  -15.9320 C   0  0  0  0  0  0  0  0  0  0  0  0
   25.0248    8.1227  -15.3251 C   0  0  0  0  0  0  0  0  0  0  0  0
   22.7564    7.7439  -13.4727 C   0  0  0  0  0  0  0  0  0  0  0  0
   23.6641    7.2754  -14.6967 C   0  0  0  0  0  0  0  0  0  0  0  0
  3  1  2  0
  4  1  1  0
  5  4  1  0
  6  2  1  0
  7  4  1  0
  7  5  1  0
  8  1  1  0
 10  6  1  0
 12  7  1  0
 15 14  1  0
 16  3  2  0
 16 11  1  0
 17 12  1  0
 18 13  2  0
 19  9  1  0
 19 10  1  0
 20  5  1  0
 20 14  1  0
 21 14  1  0
 21 17  1  0
 22 13  1  0
 23  2  1  0
 24 13  1  0
 25 23  1  0
 25 24  1  0
 26  8  1  0
 26  9  1  0
 27  9  1  0
 27 24  1  0
 27 25  1  0
 27 26  1  0
M  END
>  <ID>  (1) 
conformer_0

$$$$
