
     RDKit          3D

 29 36  0  0  0  0  0  0  0  0999 V2000
   19.8860   10.4283   -9.6798 C   0  0  0  0  0  0  0  0  0  0  0  0
   23.2334   11.1747  -14.3493 C   0  0  0  0  0  0  0  0  0  0  0  0
   20.2515   13.2741  -11.4206 C   0  0  0  0  0  0  0  0  0  0  0  0
   19.9734   11.7727  -10.0636 C   0  0  0  0  0  0  0  0  0  0  0  0
   21.2649   13.7968  -10.0442 C   0  0  0  0  0  0  0  0  0  0  0  0
   21.3782   11.5108  -10.9365 C   0  0  0  0  0  0  0  0  0  0  0  0
   20.3160    9.8773  -11.5981 C   0  0  0  0  0  0  0  0  0  0  0  0
   22.7337   10.3716  -12.7126 C   0  0  0  0  0  0  0  0  0  0  0  0
   21.6315    9.2068  -11.2309 C   0  0  0  0  0  0  0  0  0  0  0  0
   22.8261    8.1289  -12.5091 C   0  0  0  0  0  0  0  0  0  0  0  0
   24.3552   10.0173  -15.2699 C   0  0  0  0  0  0  0  0  0  0  0  0
   26.5039    5.8497  -16.0955 C   0  0  0  0  0  0  0  0  0  0  0  0
   22.8889   13.2552  -12.2386 O   0  0  0  0  0  0  0  0  0  0  0  0
   27.7042    6.3728  -16.5823 O   0  0  0  0  0  0  0  0  0  0  0  0
   21.0347   11.0614  -12.7822 C   0  0  0  0  0  0  0  0  0  0  0  0
   21.3274   13.0379   -8.6788 C   0  0  0  0  0  0  0  0  0  0  0  0
   23.3241    7.1880  -14.1028 C   0  0  0  0  0  0  0  0  0  0  0  0
   22.8539    8.4580  -14.9540 C   0  0  0  0  0  0  0  0  0  0  0  0
   26.7283    4.7250  -15.3652 O   0  0  0  0  0  0  0  0  0  0  0  0
   21.2111   13.2573   -7.6805 O   0  0  0  0  0  0  0  0  0  0  0  0
   22.1810   13.0693  -11.5115 C   0  0  0  0  0  0  0  0  0  0  0  0
   25.1648    8.2607  -15.2281 C   0  0  0  0  0  0  0  0  0  0  0  0
   24.0323    7.1723  -15.6478 C   0  0  0  0  0  0  0  0  0  0  0  0
   25.1773    6.3839  -16.2771 C   0  0  0  0  0  0  0  0  0  0  0  0
   19.0699   11.6414  -11.5745 C   0  0  0  0  0  0  0  0  0  0  0  0
   20.8648   11.6787   -8.3856 C   0  0  0  0  0  0  0  0  0  0  0  0
   21.6957    8.7661  -13.1530 C   0  0  0  0  0  0  0  0  0  0  0  0
   21.8133    9.8878  -14.4846 C   0  0  0  0  0  0  0  0  0  0  0  0
   24.1298    9.4972  -13.8893 C   0  0  0  0  0  0  0  0  0  0  0  0
  4  1  1  0
  5  3  1  0
  6  4  1  0
  8  2  1  0
  9  7  1  0
 11  2  1  0
 14 12  2  0
 15  6  1  0
 15  7  1  0
 15  8  1  0
 16  5  1  0
 17 10  1  0
 18 17  1  0
 19 12  1  0
 20 16  1  0
 21  3  1  0
 21  5  1  0
 21  6  1  0
 21 13  1  0
 22 11  1  0
 23 17  1  0
 23 18  1  0
 23 22  1  0
 24 12  1  0
 24 23  1  0
 25  4  1  0
 26  4  1  0
 26 16  1  0
 27  8  1  0
 27 10  1  0
 28  2  1  0
 28 18  1  0
 28 27  1  0
 29  2  1  0
 29 11  1  0
 29 18  1  0
M  END
>  <ID>  (1) 
conformer_0

$$$$
