
     RDKit          3D

 25 32  0  0  0  0  0  0  0  0999 V2000
   20.5841   11.0014   -9.0893 C   0  0  0  0  0  0  0  0  0  0  0  0
   19.8248   12.9348  -11.5604 C   0  0  2  0  0  0  0  0  0  0  0  0
   21.9480   10.8393  -12.2763 C   0  0  2  0  0  0  0  0  0  0  0  0
   20.6047   11.9038  -12.2571 C   0  0  2  0  0  0  0  0  0  0  0  0
   20.7524   10.2180  -10.8972 C   0  0  0  0  0  0  0  0  0  0  0  0
   21.7247    9.0733  -11.8525 C   0  0  1  0  0  0  0  0  0  0  0  0
   22.6975   10.9704  -14.0186 C   0  0  1  0  0  0  0  0  0  0  0  0
   21.0173   11.9152   -9.5609 C   0  0  0  0  0  0  0  0  0  0  0  0
   21.7219    9.5477  -13.3888 C   0  0  1  0  0  0  0  0  0  0  0  0
   23.5977   10.3487  -15.2149 C   0  0  0  0  0  0  0  0  0  0  0  0
   20.9268   13.5784  -10.5633 C   0  0  0  0  0  0  0  0  0  0  0  0
   21.5861   12.8915   -8.7296 C   0  0  0  0  0  0  0  0  0  0  0  0
   22.9318   13.1160  -12.2218 O   0  0  0  0  0  0  0  0  0  0  0  0
   22.7240    8.0277  -12.7005 C   0  0  2  0  0  0  0  0  0  0  0  0
   26.6804    5.7615  -15.9126 C   0  0  0  0  0  0  0  0  0  0  0  0
   22.7471    8.3662  -14.4414 C   0  0  1  0  0  0  0  0  0  0  0  0
   21.3396   13.4332   -7.7648 O   0  0  0  0  0  0  0  0  0  0  0  0
   24.7369    7.8876  -15.1665 C   0  0  0  0  0  0  0  0  0  0  0  0
   27.7847    5.8586  -15.9558 O   0  0  0  0  0  0  0  0  0  0  0  0
   24.6459    6.6382  -15.2010 C   0  0  0  0  0  0  0  0  0  0  0  0
   22.1204   12.7425  -11.9025 C   0  0  0  0  0  0  0  0  0  0  0  0
   25.8256    5.6811  -16.7336 C   0  0  0  0  0  0  0  0  0  0  0  0
   23.3437    6.9891  -13.9422 C   0  0  1  0  0  0  0  0  0  0  0  0
   19.4738   11.3197  -10.8936 C   0  0  1  0  0  0  0  0  0  0  0  0
   23.9211    9.5595  -14.1395 C   0  0  2  0  0  0  0  0  0  0  0  0
  4  2  1  0
  3  4  1  6
  6  3  1  0
  6  5  1  1
  7  3  1  0
  8  1  2  3
  9  3  1  0
  9  6  1  1
  9  7  1  0
  7 10  1  1
  2 11  1  1
 11  8  1  0
 12  8  1  0
 14  6  1  0
 16  9  1  0
 16 14  1  0
 17 12  1  0
 19 15  2  0
 20 18  2  3
  4 21  1  6
 21 13  2  0
 22 15  1  0
 22 20  1  0
 14 23  1  6
 16 23  1  6
 23 20  1  1
 24  2  1  0
 24  4  1  0
 24  5  1  1
 25  7  1  0
 25 10  1  6
 25 16  1  0
M  END
>  <ID>  (1) 
conformer_0

$$$$
