
     RDKit          3D

 25 29  0  0  0  0  0  0  0  0999 V2000
   20.1169   12.7751  -11.8417 C   0  0  0  0  0  0  0  0  0  0  0  0
   21.1593   10.0567  -12.0511 C   0  0  0  0  0  0  0  0  0  0  0  0
   20.8072   13.4575  -10.8246 C   0  0  0  0  0  0  0  0  0  0  0  0
   20.0136   10.6534  -10.6933 C   0  0  0  0  0  0  0  0  0  0  0  0
   21.6381   11.2191  -12.2784 C   0  0  0  0  0  0  0  0  0  0  0  0
   23.6857    9.5361  -13.1364 C   0  0  0  0  0  0  0  0  0  0  0  0
   20.9141   12.0657   -9.6777 C   0  0  0  0  0  0  0  0  0  0  0  0
   22.0363    8.8544  -12.6586 C   0  0  0  0  0  0  0  0  0  0  0  0
   22.6199   10.7208  -13.8020 C   0  0  0  0  0  0  0  0  0  0  0  0
   22.3967    8.6795  -14.3106 C   0  0  0  0  0  0  0  0  0  0  0  0
   23.8092   10.0511  -14.8674 C   0  0  0  0  0  0  0  0  0  0  0  0
   21.3709   12.6441   -7.8631 C   0  0  0  0  0  0  0  0  0  0  0  0
   24.4179    8.6643  -15.3267 C   0  0  0  0  0  0  0  0  0  0  0  0
   23.2319   13.0195  -12.3861 O   0  0  0  0  0  0  0  0  0  0  0  0
   26.5074    5.7934  -16.1773 C   0  0  0  0  0  0  0  0  0  0  0  0
   27.6549    6.2752  -16.3652 O   0  0  0  0  0  0  0  0  0  0  0  0
   24.2320    7.3342  -15.6692 C   0  0  0  0  0  0  0  0  0  0  0  0
   23.2223    7.2175  -14.2205 C   0  0  0  0  0  0  0  0  0  0  0  0
   20.7705   13.9028   -8.0532 O   0  0  0  0  0  0  0  0  0  0  0  0
   19.2133   11.7656  -11.2785 C   0  0  0  0  0  0  0  0  0  0  0  0
   25.0176    6.4689  -16.7627 C   0  0  0  0  0  0  0  0  0  0  0  0
   26.9351    4.6873  -14.9308 O   0  0  0  0  0  0  0  0  0  0  0  0
   26.6904    4.7219  -15.4303 N   0  0  0  0  0  0  0  0  0  0  0  0
   20.5242   11.1974   -8.8104 C   0  0  0  0  0  0  0  0  0  0  0  0
   22.5591   12.7006  -12.3527 C   0  0  0  0  0  0  0  0  0  0  0  0
  3  1  1  0
  4  2  1  0
  5  2  1  0
  7  3  1  0
  7  4  1  0
  8  2  1  0
  8  6  1  0
  9  5  1  0
  9  6  1  0
 10  6  1  0
 10  8  1  0
 11  6  1  0
 11  9  1  0
 13 11  1  0
 16 15  2  0
 17 13  1  0
 18 10  1  0
 18 17  1  0
 19 12  1  0
 20  1  1  0
 20  4  1  0
 21 15  1  0
 21 17  1  0
 23 15  1  0
 23 22  1  0
 24  7  1  0
 24 12  1  0
 25  5  1  0
 25 14  2  0
M  END
>  <ID>  (1) 
conformer_0

$$$$
