
     RDKit          3D

 29 36  0  0  0  0  0  0  0  0999 V2000
   19.1212   11.2016  -11.2234 C   0  0  0  0  0  0  0  0  0  0  0  0
   21.6201    9.3026  -13.9686 C   0  0  0  0  0  0  0  0  0  0  0  0
   22.3869    7.9678  -12.7256 C   0  0  0  0  0  0  0  0  0  0  0  0
   23.1794    9.6799  -13.1609 C   0  0  0  0  0  0  0  0  0  0  0  0
   20.5130    9.6188  -12.3336 C   0  0  0  0  0  0  0  0  0  0  0  0
   22.6240    7.9758  -14.5649 C   0  0  0  0  0  0  0  0  0  0  0  0
   21.9142    8.9957  -11.4833 C   0  0  0  0  0  0  0  0  0  0  0  0
   24.0549    8.5171  -15.2963 C   0  0  0  0  0  0  0  0  0  0  0  0
   23.4275    6.8090  -14.3295 C   0  0  0  0  0  0  0  0  0  0  0  0
   24.3270    9.8926  -14.6448 C   0  0  0  0  0  0  0  0  0  0  0  0
   23.2650   11.0473  -14.6547 C   0  0  0  0  0  0  0  0  0  0  0  0
   23.2629   13.1457  -12.1369 O   0  0  0  0  0  0  0  0  0  0  0  0
   26.8667    5.5969  -15.9602 C   0  0  0  0  0  0  0  0  0  0  0  0
   21.0415   12.7772   -7.9748 C   0  0  0  0  0  0  0  0  0  0  0  0
   26.8632    4.6762  -15.0840 O   0  0  0  0  0  0  0  0  0  0  0  0
   27.8894    5.9517  -16.3439 O   0  0  0  0  0  0  0  0  0  0  0  0
   22.3715   11.1672  -13.1049 C   0  0  0  0  0  0  0  0  0  0  0  0
   22.3692   12.7858  -11.8853 C   0  0  0  0  0  0  0  0  0  0  0  0
   21.3037   13.0211   -6.9212 O   0  0  0  0  0  0  0  0  0  0  0  0
   25.2021    7.0283  -15.5507 C   0  0  0  0  0  0  0  0  0  0  0  0
   25.3458    5.9266  -16.9911 C   0  0  0  0  0  0  0  0  0  0  0  0
   20.5079   10.2465  -10.3956 C   0  0  0  0  0  0  0  0  0  0  0  0
   21.5242   11.0207  -11.7585 C   0  0  0  0  0  0  0  0  0  0  0  0
   20.6015   11.1597   -8.4541 C   0  0  0  0  0  0  0  0  0  0  0  0
   20.2136   12.4473  -11.6457 C   0  0  0  0  0  0  0  0  0  0  0  0
   19.9100   11.6642   -9.7186 C   0  0  0  0  0  0  0  0  0  0  0  0
   21.0351   13.3978  -10.9296 C   0  0  0  0  0  0  0  0  0  0  0  0
   21.3642   13.0180   -9.1391 C   0  0  0  0  0  0  0  0  0  0  0  0
   24.0182    6.5738  -16.3360 C   0  0  0  0  0  0  0  0  0  0  0  0
  4  2  1  0
  4  3  1  0
  6  2  1  0
  6  3  1  0
  7  3  1  0
  7  5  1  0
  8  6  1  0
  9  6  1  0
 10  4  1  0
 10  8  1  0
 11 10  1  0
 15 13  1  0
 16 13  2  0
 17  4  1  0
 17 11  1  0
 18 12  2  0
 19 14  1  0
 20  8  1  0
 21 13  1  0
 21 20  1  0
 22  1  1  0
 23  5  1  0
 23 17  1  0
 23 22  1  0
 24 14  1  0
 25  1  1  0
 25 23  1  0
 26  1  1  0
 26 22  1  0
 26 24  1  0
 27 18  1  0
 27 25  1  0
 28 14  1  0
 28 27  1  0
 29 20  1  0
 29 21  1  0
M  END
>  <ID>  (1) 
conformer_0

$$$$
