
     RDKit          3D

 26 30  0  0  0  0  0  0  0  0999 V2000
   20.5707   13.1401  -11.1593 C   0  0  1  0  0  0  0  0  0  0  0  0
   20.2173   11.3294   -9.0977 C   0  0  0  0  0  0  0  0  0  0  0  0
   22.7295   11.1042  -14.0282 C   0  0  0  0  0  0  0  0  0  0  0  0
   19.5801   11.4655  -11.2574 C   0  0  0  0  0  0  0  0  0  0  0  0
   21.2960   12.5904   -9.8516 C   0  0  0  0  0  0  0  0  0  0  0  0
   20.7785   12.3991  -12.5480 C   0  0  0  0  0  0  0  0  0  0  0  0
   19.7725   10.8155   -9.9410 C   0  0  0  0  0  0  0  0  0  0  0  0
   23.8251   10.3871  -14.7413 C   0  0  2  0  0  0  0  0  0  0  0  0
   23.4216   13.0517  -12.5102 O   0  0  0  0  0  0  0  0  0  0  0  0
   21.9261   10.8841  -11.7725 C   0  0  2  0  0  0  0  0  0  0  0  0
   27.3411    5.2897  -16.1426 C   0  0  0  0  0  0  0  0  0  0  0  0
   20.9923    9.7910  -11.1567 C   0  0  0  0  0  0  0  0  0  0  0  0
   21.2146   12.6694   -8.6080 C   0  0  1  0  0  0  0  0  0  0  0  0
   22.3147    8.3454  -12.4429 C   0  0  2  0  0  0  0  0  0  0  0  0
   22.6070   12.4127  -12.3251 C   0  0  0  0  0  0  0  0  0  0  0  0
   22.3657    8.6044  -14.2659 C   0  0  1  0  0  0  0  0  0  0  0  0
   27.7871    6.2431  -16.1189 O   0  0  0  0  0  0  0  0  0  0  0  0
   21.1564   13.1752   -7.7040 O   0  0  0  0  0  0  0  0  0  0  0  0
   25.5181    5.9984  -16.8752 C   0  0  0  0  0  0  0  0  0  0  0  0
   21.4073    9.8738  -13.0450 C   0  0  2  0  0  0  0  0  0  0  0  0
   26.4516    5.1989  -15.2208 N   0  0  0  0  0  0  0  0  0  0  0  0
   24.1364    8.7391  -14.6689 C   0  0  1  0  0  0  0  0  0  0  0  0
   24.2379    6.9302  -15.3735 C   0  0  2  0  0  0  0  0  0  0  0  0
   23.3091    7.0702  -13.9799 C   0  0  0  0  0  0  0  0  0  0  0  0
   25.3786    6.0685  -15.7308 C   0  0  0  0  0  0  0  0  0  0  0  0
   23.5865    9.7021  -12.9543 C   0  0  2  0  0  0  0  0  0  0  0  0
  4  1  1  0
  5  1  1  0
  1  6  1  6
  7  2  1  0
  7  4  1  0
  8  3  1  6
 12 10  1  0
 13  2  1  0
 13  5  1  0
 15  6  1  0
 15  9  2  0
 10 15  1  6
 16 14  1  0
 17 11  1  0
 13 18  1  6
 20 10  1  0
 20 12  1  1
 14 20  1  1
 21 11  1  0
 22  8  1  0
 22 16  1  0
 22 23  1  6
 16 24  1  6
 23 24  1  1
 25 19  2  3
 25 21  1  0
 25 23  1  0
 26  3  1  1
 26  8  1  0
 26 14  1  0
M  END
>  <ID>  (1) 
conformer_0

$$$$
