
     RDKit          3D

 27 33  0  0  0  0  0  0  0  0999 V2000
   20.1260   10.1963  -11.5402 C   0  0  0  0  0  0  0  0  0  0  0  0
   24.2398    9.7133  -14.6208 C   0  0  0  0  0  0  0  0  0  0  0  0
   23.0961    7.9830  -13.2543 C   0  0  0  0  0  0  0  0  0  0  0  0
   21.7700   11.5506  -12.8761 C   0  0  0  0  0  0  0  0  0  0  0  0
   21.6792    9.6248  -11.4512 C   0  0  0  0  0  0  0  0  0  0  0  0
   24.9359    6.5029  -14.8793 C   0  0  0  0  0  0  0  0  0  0  0  0
   20.5028   10.5377   -9.4204 C   0  0  0  0  0  0  0  0  0  0  0  0
   24.1571    8.1514  -15.1600 C   0  0  0  0  0  0  0  0  0  0  0  0
   25.1470    5.9918  -16.3119 C   0  0  0  0  0  0  0  0  0  0  0  0
   23.4153   13.0702  -12.4003 O   0  0  0  0  0  0  0  0  0  0  0  0
   23.3972   10.9957  -14.7435 C   0  0  0  0  0  0  0  0  0  0  0  0
   21.2172   12.6524   -8.1933 C   0  0  0  0  0  0  0  0  0  0  0  0
   20.8406   13.5800  -11.3910 C   0  0  0  0  0  0  0  0  0  0  0  0
   27.4301    6.5718  -16.0799 O   0  0  0  0  0  0  0  0  0  0  0  0
   26.4584    5.6239  -15.9128 C   0  0  0  0  0  0  0  0  0  0  0  0
   22.4009   12.5481  -12.5688 C   0  0  0  0  0  0  0  0  0  0  0  0
   21.8168   13.0196   -7.4209 O   0  0  0  0  0  0  0  0  0  0  0  0
   26.6630    4.3878  -15.5116 O   0  0  0  0  0  0  0  0  0  0  0  0
   22.9823   10.3014  -13.3362 C   0  0  0  0  0  0  0  0  0  0  0  0
   20.4790   11.6336   -8.6807 C   0  0  0  0  0  0  0  0  0  0  0  0
   20.7535   13.3487   -9.8743 C   0  0  0  0  0  0  0  0  0  0  0  0
   19.5726   12.2462  -11.6481 C   0  0  0  0  0  0  0  0  0  0  0  0
   23.4216    6.7716  -14.5415 C   0  0  0  0  0  0  0  0  0  0  0  0
   21.5648    9.2748  -13.0368 C   0  0  0  0  0  0  0  0  0  0  0  0
   22.1714    8.6122  -14.4777 C   0  0  0  0  0  0  0  0  0  0  0  0
   19.3568   11.2840  -10.2963 C   0  0  0  0  0  0  0  0  0  0  0  0
   21.1753   11.7726  -11.1638 C   0  0  0  0  0  0  0  0  0  0  0  0
  5  1  1  0
  8  2  1  0
  8  6  1  0
  9  6  1  0
 11  2  1  0
 15  9  1  0
 15 14  2  0
 16  4  1  0
 16 10  2  0
 17 12  1  0
 18 15  1  0
 19  2  1  0
 19  4  1  0
 19 11  1  0
 20  7  1  0
 20 12  1  0
 21 12  1  0
 21 13  1  0
 22 13  1  0
 23  3  1  0
 23  6  1  0
 23  8  1  0
 24  5  1  0
 24 19  1  0
 25  3  1  0
 25 24  1  0
 26  1  1  0
 26  7  1  0
 26 22  1  0
 27  1  1  0
 27  4  1  0
 27 13  1  0
 27 22  1  0
M  END
>  <ID>  (1) 
conformer_0

$$$$
