
     RDKit          3D

 28 36  0  0  0  0  0  0  0  0999 V2000
   19.6515   10.6004  -10.9321 C   0  0  0  0  0  0  0  0  0  0  0  0
   21.4885   11.8363  -12.5278 C   0  0  0  0  0  0  0  0  0  0  0  0
   23.9858    9.5117  -14.1749 C   0  0  0  0  0  0  0  0  0  0  0  0
   24.3481   10.1867  -15.4796 C   0  0  0  0  0  0  0  0  0  0  0  0
   23.7430    7.9911  -14.9504 C   0  0  0  0  0  0  0  0  0  0  0  0
   23.0762   11.0104  -14.2984 C   0  0  0  0  0  0  0  0  0  0  0  0
   22.5959   10.4381  -12.9239 C   0  0  0  0  0  0  0  0  0  0  0  0
   20.2040   10.8704   -9.3824 C   0  0  0  0  0  0  0  0  0  0  0  0
   25.1325    6.0996  -15.7416 C   0  0  0  0  0  0  0  0  0  0  0  0
   20.7086   11.8092   -8.8345 C   0  0  0  0  0  0  0  0  0  0  0  0
   20.9449   13.2642  -11.2109 C   0  0  0  0  0  0  0  0  0  0  0  0
   21.5058   13.1344   -8.3650 C   0  0  0  0  0  0  0  0  0  0  0  0
   23.3765   13.1249  -12.6804 O   0  0  0  0  0  0  0  0  0  0  0  0
   27.5365    5.9028  -16.0162 O   0  0  0  0  0  0  0  0  0  0  0  0
   26.3001    5.5059  -15.6389 C   0  0  0  0  0  0  0  0  0  0  0  0
   21.3851   13.2084   -9.8876 C   0  0  0  0  0  0  0  0  0  0  0  0
   26.4289    4.5525  -14.6864 O   0  0  0  0  0  0  0  0  0  0  0  0
   22.7405   12.5477  -12.8891 C   0  0  0  0  0  0  0  0  0  0  0  0
   23.7806    6.4458  -14.6338 C   0  0  0  0  0  0  0  0  0  0  0  0
   25.3635    7.8517  -15.3414 C   0  0  0  0  0  0  0  0  0  0  0  0
   21.7858   13.5430   -7.7309 O   0  0  0  0  0  0  0  0  0  0  0  0
   19.6391   12.3189  -11.0609 C   0  0  0  0  0  0  0  0  0  0  0  0
   22.7375    7.5056  -13.5502 C   0  0  0  0  0  0  0  0  0  0  0  0
   21.2876   11.1294  -11.1810 C   0  0  0  0  0  0  0  0  0  0  0  0
   21.0670    9.2134  -11.2055 C   0  0  0  0  0  0  0  0  0  0  0  0
   22.2538    8.4213  -12.3665 C   0  0  0  0  0  0  0  0  0  0  0  0
   21.9549    8.9235  -14.2272 C   0  0  0  0  0  0  0  0  0  0  0  0
   20.9430    9.5946  -12.6189 C   0  0  0  0  0  0  0  0  0  0  0  0
  4  3  1  0
  5  3  1  0
  6  3  1  0
  6  4  1  0
  7  2  1  0
  7  6  1  0
  8  1  1  0
 10  8  1  0
 12 10  1  0
 15  9  1  0
 15 14  2  0
 16 10  1  0
 16 11  1  0
 16 12  1  0
 17 15  1  0
 18  2  1  0
 18 13  2  0
 19  5  1  0
 19  9  1  0
 20  5  1  0
 20  9  1  0
 21 12  1  0
 22  1  1  0
 22 11  1  0
 23  5  1  0
 23 19  1  0
 24  1  1  0
 24  2  1  0
 25 24  1  0
 26 23  1  0
 26 25  1  0
 27 23  1  0
 27 26  1  0
 28  7  1  0
 28 25  1  0
 28 26  1  0
M  END
>  <ID>  (1) 
conformer_0

$$$$
