
     RDKit          3D

 26 32  0  0  0  0  0  0  0  0999 V2000
   21.3523    9.2899  -11.3511 C   0  0  0  0  0  0  0  0  0  0  0  0
   22.2311   11.4586  -13.3845 C   0  0  0  0  0  0  0  0  0  0  0  0
   21.4536   11.0771  -11.6628 C   0  0  0  0  0  0  0  0  0  0  0  0
   22.6109    8.5682  -12.6604 C   0  0  0  0  0  0  0  0  0  0  0  0
   23.3989   10.2979  -13.6247 C   0  0  0  0  0  0  0  0  0  0  0  0
   23.8410   10.8592  -14.8124 C   0  0  0  0  0  0  0  0  0  0  0  0
   22.9698    7.8053  -14.0200 C   0  0  0  0  0  0  0  0  0  0  0  0
   19.8380   10.3001  -11.1469 C   0  0  0  0  0  0  0  0  0  0  0  0
   20.6393   12.8865  -12.1645 C   0  0  0  0  0  0  0  0  0  0  0  0
   19.3896   12.1046  -11.2431 C   0  0  0  0  0  0  0  0  0  0  0  0
   20.9989   12.0842   -8.0826 C   0  0  0  0  0  0  0  0  0  0  0  0
   26.5514    5.4903  -15.9283 C   0  0  0  0  0  0  0  0  0  0  0  0
   23.4488   12.9133  -11.9204 O   0  0  0  0  0  0  0  0  0  0  0  0
   24.3433    9.0737  -14.8494 C   0  0  0  0  0  0  0  0  0  0  0  0
   21.1486   12.2850   -7.0408 O   0  0  0  0  0  0  0  0  0  0  0  0
   22.6022   12.6143  -12.2075 C   0  0  0  0  0  0  0  0  0  0  0  0
   27.8677    6.1268  -16.4280 O   0  0  0  0  0  0  0  0  0  0  0  0
   19.5271   10.9386   -9.7590 C   0  0  0  0  0  0  0  0  0  0  0  0
   21.0825   13.2988  -11.0097 C   0  0  0  0  0  0  0  0  0  0  0  0
   20.8235   11.1224   -9.2807 C   0  0  0  0  0  0  0  0  0  0  0  0
   21.4584   12.5482   -9.5524 C   0  0  0  0  0  0  0  0  0  0  0  0
   21.4202    9.6292  -13.2539 C   0  0  0  0  0  0  0  0  0  0  0  0
   24.4290    6.5604  -14.6168 C   0  0  0  0  0  0  0  0  0  0  0  0
   24.1811    7.5667  -15.3566 C   0  0  0  0  0  0  0  0  0  0  0  0
   22.3062    9.3044  -14.9438 C   0  0  0  0  0  0  0  0  0  0  0  0
   25.4143    5.9277  -16.3646 C   0  0  0  0  0  0  0  0  0  0  0  0
  3  1  1  0
  3  2  1  0
  4  1  1  0
  5  2  1  0
  6  5  1  0
  7  4  1  0
  8  1  1  0
  8  3  1  0
 10  8  1  0
 10  9  1  0
 14  6  1  0
 15 11  1  0
 16  2  1  0
 16 13  2  0
 17 12  1  0
 18  8  1  0
 18 10  1  0
 19  9  1  0
 20 11  1  0
 20 18  1  0
 21 11  1  0
 21 19  1  0
 21 20  1  0
 22  1  1  0
 22  4  1  0
 24  7  1  0
 24 14  1  0
 24 23  1  0
 25  7  1  0
 25 22  1  0
 26 12  1  0
 26 23  1  0
M  END
>  <ID>  (1) 
conformer_0

$$$$
