
     RDKit          3D

 28 32  0  0  0  0  0  0  0  0999 V2000
   25.1198    6.2130  -16.2644 C   0  0  0  0  0  0  0  0  0  0  0  0
   24.6817    7.7841  -15.7129 C   0  0  0  0  0  0  0  0  0  0  0  0
   23.9054    6.6023  -14.8590 C   0  0  0  0  0  0  0  0  0  0  0  0
   24.7259    8.8164  -14.2889 C   0  0  0  0  0  0  0  0  0  0  0  0
   21.2655   11.9347  -12.6146 C   0  0  0  0  0  0  0  0  0  0  0  0
   21.0272    9.2498  -11.6056 C   0  0  0  0  0  0  0  0  0  0  0  0
   24.1835   10.3311  -15.0743 C   0  0  0  0  0  0  0  0  0  0  0  0
   22.9611   11.4477  -14.4152 C   0  0  0  0  0  0  0  0  0  0  0  0
   22.5407   10.8039  -13.0120 C   0  0  0  0  0  0  0  0  0  0  0  0
   22.8721    8.3053  -14.8094 C   0  0  0  0  0  0  0  0  0  0  0  0
   23.7478    9.7801  -13.3969 C   0  0  0  0  0  0  0  0  0  0  0  0
   23.3190   13.0262  -11.9965 O   0  0  0  0  0  0  0  0  0  0  0  0
   22.2395   12.7468  -11.7793 C   0  0  0  0  0  0  0  0  0  0  0  0
   27.5443    6.2115  -15.9763 O   0  0  0  0  0  0  0  0  0  0  0  0
   26.2768    5.6535  -15.8774 C   0  0  0  0  0  0  0  0  0  0  0  0
   21.0180   12.5494   -8.2460 C   0  0  0  0  0  0  0  0  0  0  0  0
   20.0062   10.5827  -10.1688 C   0  0  0  0  0  0  0  0  0  0  0  0
   21.7556    9.4009  -13.5919 C   0  0  0  0  0  0  0  0  0  0  0  0
   22.1645    8.3614  -12.1752 C   0  0  0  0  0  0  0  0  0  0  0  0
   22.8735    7.5655  -13.4223 C   0  0  0  0  0  0  0  0  0  0  0  0
   20.7100   13.0096   -7.3319 O   0  0  0  0  0  0  0  0  0  0  0  0
   21.0810   10.6549  -11.4971 C   0  0  0  0  0  0  0  0  0  0  0  0
   26.5548    4.7812  -15.5154 N   0  0  0  0  0  0  0  0  0  0  0  0
   21.5314   12.3699   -7.9594 C   0  0  0  0  0  0  0  0  0  0  0  0
   20.9853   12.7589  -10.1880 C   0  0  0  0  0  0  0  0  0  0  0  0
   20.1546   13.3164  -11.5829 C   0  0  0  0  0  0  0  0  0  0  0  0
   19.3065   12.0484  -11.1010 C   0  0  0  0  0  0  0  0  0  0  0  0
   19.9778   11.2395   -9.2322 C   0  0  0  0  0  0  0  0  0  0  0  0
  2  1  1  0
  3  1  1  0
  3  2  1  0
  4  2  1  0
  7  4  1  0
  8  7  1  0
  9  5  1  0
  9  8  1  0
 11  4  1  0
 11  7  1  0
 11  9  1  0
 13  5  1  0
 13 12  2  0
 15  1  1  0
 15 14  2  0
 18  9  1  0
 19  6  1  0
 19 18  1  0
 20 10  1  0
 20 19  1  0
 21 16  1  0
 22  5  1  0
 22  6  1  0
 22 17  1  0
 23 15  1  0
 24 16  1  0
 25 16  1  0
 26 25  1  0
 27 17  1  0
 27 26  1  0
 28 16  1  0
 28 17  1  0
M  END
>  <ID>  (1) 
conformer_0

$$$$
