
     RDKit          3D

 31 36  0  0  0  0  0  0  0  0999 V2000
   21.1731    8.9883  -12.5201 C   0  0  0  0  0  0  0  0  0  0  0  0
   19.2064   12.3726  -11.3739 C   0  0  0  0  0  0  0  0  0  0  0  0
   23.6555    8.3270  -15.2985 C   0  0  0  0  0  0  0  0  0  0  0  0
   20.5795   13.5811  -11.6692 C   0  0  0  0  0  0  0  0  0  0  0  0
   23.9480    6.3869  -14.6456 C   0  0  0  0  0  0  0  0  0  0  0  0
   22.4716    8.5993  -11.6889 C   0  0  0  0  0  0  0  0  0  0  0  0
   25.0727    8.3558  -15.1031 C   0  0  0  0  0  0  0  0  0  0  0  0
   23.6153    9.8490  -13.6604 C   0  0  0  0  0  0  0  0  0  0  0  0
   20.7438   11.2561   -8.5373 C   0  0  0  0  0  0  0  0  0  0  0  0
   25.2527    6.7584  -16.1626 C   0  0  0  0  0  0  0  0  0  0  0  0
   20.9972   12.7883   -8.0812 C   0  0  0  0  0  0  0  0  0  0  0  0
   27.6834    6.5194  -16.3923 O   0  0  0  0  0  0  0  0  0  0  0  0
   27.1410    5.8083  -16.0901 C   0  0  0  0  0  0  0  0  0  0  0  0
   23.3213   13.1924  -12.6105 O   0  0  0  0  0  0  0  0  0  0  0  0
   22.2420   12.9260  -12.4559 C   0  0  0  0  0  0  0  0  0  0  0  0
   21.4290   13.4625   -9.6963 C   0  0  0  0  0  0  0  0  0  0  0  0
   21.1832    9.9512  -10.7359 C   0  0  0  0  0  0  0  0  0  0  0  0
   21.0596   11.8819  -12.5004 C   0  0  0  0  0  0  0  0  0  0  0  0
   24.1254   10.3646  -15.0241 C   0  0  0  0  0  0  0  0  0  0  0  0
   26.4872    5.2795  -15.1659 N   0  0  0  0  0  0  0  0  0  0  0  0
   20.3444   13.1374   -7.3412 O   0  0  0  0  0  0  0  0  0  0  0  0
   21.6505   13.3271   -7.6985 O   0  0  0  0  0  0  0  0  0  0  0  0
   22.8343   11.5046  -14.1516 C   0  0  0  0  0  0  0  0  0  0  0  0
   22.1889   10.7883  -12.4828 C   0  0  0  0  0  0  0  0  0  0  0  0
   23.1862    7.5293  -13.0698 C   0  0  0  0  0  0  0  0  0  0  0  0
   22.4630    7.3673  -14.2608 C   0  0  0  0  0  0  0  0  0  0  0  0
   22.1109    9.2802  -13.9532 C   0  0  0  0  0  0  0  0  0  0  0  0
   25.2600    6.3470  -15.2606 C   0  0  0  0  0  0  0  0  0  0  0  0
   19.8473   10.2724  -11.7316 C   0  0  0  0  0  0  0  0  0  0  0  0
   20.4128   12.1342  -10.3819 C   0  0  0  0  0  0  0  0  0  0  0  0
   19.7878   10.9699   -9.8231 C   0  0  0  0  0  0  0  0  0  0  0  0
  4  2  1  0
  6  1  1  0
  7  3  1  0
 10  7  1  0
 11  9  1  0
 13 12  2  0
 15  4  1  0
 15 14  2  0
 16 11  1  0
 18  4  1  0
 18 15  1  0
 19  8  1  0
 20 13  1  0
 21 11  1  0
 22 11  1  0
 23  8  1  0
 23 19  1  0
 24 18  1  0
 24 23  1  0
 25  6  1  0
 26  3  1  0
 26  5  1  0
 26 25  1  0
 27  1  1  0
 27  8  1  0
 27 26  1  0
 28  5  1  0
 28 10  1  0
 28 20  1  0
 29 17  1  0
 30  2  1  0
 30  4  1  0
 30 16  1  0
 31  9  1  0
 31 17  1  0
 31 30  1  0
M  END
>  <ID>  (1) 
conformer_0

$$$$
