
     RDKit          3D

 27 32  0  0  0  0  0  0  0  0999 V2000
   20.9152   11.4336   -9.2698 C   0  0  0  0  0  0  0  0  0  0  0  0
   21.0026   11.7001  -11.9101 C   0  0  0  0  0  0  0  0  0  0  0  0
   19.4284   12.0791  -11.2834 C   0  0  0  0  0  0  0  0  0  0  0  0
   22.3671   10.4689  -12.6520 C   0  0  0  0  0  0  0  0  0  0  0  0
   19.7756   11.1307  -10.0797 C   0  0  0  0  0  0  0  0  0  0  0  0
   20.9680    9.9104  -10.7832 C   0  0  0  0  0  0  0  0  0  0  0  0
   20.4246    9.9108  -12.3399 C   0  0  0  0  0  0  0  0  0  0  0  0
   21.8782    9.0190  -13.7884 C   0  0  0  0  0  0  0  0  0  0  0  0
   22.4635   11.1613  -13.8360 C   0  0  0  0  0  0  0  0  0  0  0  0
   21.5172   12.8490   -9.6437 C   0  0  0  0  0  0  0  0  0  0  0  0
   23.8729    8.6497  -15.2252 C   0  0  0  0  0  0  0  0  0  0  0  0
   21.4907   12.7575   -8.1829 C   0  0  0  0  0  0  0  0  0  0  0  0
   27.4764    6.8298  -16.3437 O   0  0  0  0  0  0  0  0  0  0  0  0
   26.3434    6.0826  -15.9766 C   0  0  0  0  0  0  0  0  0  0  0  0
   22.2092   13.2870   -7.4940 O   0  0  0  0  0  0  0  0  0  0  0  0
   22.3146   12.5578  -11.7520 C   0  0  0  0  0  0  0  0  0  0  0  0
   23.2070   12.9794  -11.9645 O   0  0  0  0  0  0  0  0  0  0  0  0
   20.6190   13.4903  -11.0751 C   0  0  0  0  0  0  0  0  0  0  0  0
   20.7203   12.4026   -7.0576 O   0  0  0  0  0  0  0  0  0  0  0  0
   24.7742    6.3422  -16.3010 C   0  0  0  0  0  0  0  0  0  0  0  0
   23.4585    6.8131  -14.7072 C   0  0  0  0  0  0  0  0  0  0  0  0
   21.8191    8.4769  -12.1491 C   0  0  0  0  0  0  0  0  0  0  0  0
   22.8891    7.6873  -13.5360 C   0  0  0  0  0  0  0  0  0  0  0  0
   26.7510    5.2594  -15.4398 N   0  0  0  0  0  0  0  0  0  0  0  0
   23.6165   10.5983  -14.6836 C   0  0  0  0  0  0  0  0  0  0  0  0
   24.1254    9.4413  -13.9503 C   0  0  0  0  0  0  0  0  0  0  0  0
   25.0422    7.4674  -15.2828 C   0  0  0  0  0  0  0  0  0  0  0  0
  3  2  1  0
  4  2  1  0
  5  1  1  0
  5  3  1  0
  6  5  1  0
  7  2  1  0
  7  6  1  0
  8  4  1  0
  9  4  1  0
 10  1  1  0
 12  1  1  0
 12 10  1  0
 14 13  2  0
 15 12  1  0
 16  2  1  0
 17 16  1  0
 18  3  1  0
 18 10  1  0
 19 12  1  0
 20 14  1  0
 21 11  1  0
 22  8  1  0
 23  8  1  0
 23 21  1  0
 23 22  1  0
 24 14  1  0
 25  9  1  0
 26 11  1  0
 26 25  1  0
 27 11  1  0
 27 20  1  0
 27 21  1  0
M  END
>  <ID>  (1) 
conformer_0

$$$$
