
     RDKit          3D

 28 33  0  0  0  0  0  0  0  0999 V2000
   19.8295   10.7367  -11.4952 C   0  0  0  0  0  0  0  0  0  0  0  0
   19.6321   12.7526  -11.7305 C   0  0  0  0  0  0  0  0  0  0  0  0
   25.0993    6.1478  -15.9603 C   0  0  0  0  0  0  0  0  0  0  0  0
   22.1916   10.9484  -13.3391 C   0  0  0  0  0  0  0  0  0  0  0  0
   21.2702    9.0434  -13.5032 C   0  0  0  0  0  0  0  0  0  0  0  0
   22.5302    8.4439  -14.8667 C   0  0  0  0  0  0  0  0  0  0  0  0
   23.0581    7.1890  -13.9452 C   0  0  0  0  0  0  0  0  0  0  0  0
   23.9334    6.6687  -15.0933 C   0  0  0  0  0  0  0  0  0  0  0  0
   23.1412   10.8765  -15.1169 C   0  0  0  0  0  0  0  0  0  0  0  0
   24.6863    9.3971  -15.2036 C   0  0  0  0  0  0  0  0  0  0  0  0
   24.9910    8.0097  -14.6664 C   0  0  0  0  0  0  0  0  0  0  0  0
   23.3493   12.8912  -12.2030 O   0  0  0  0  0  0  0  0  0  0  0  0
   26.4228    5.8464  -15.7176 C   0  0  0  0  0  0  0  0  0  0  0  0
   21.9207   13.7310   -7.9054 O   0  0  0  0  0  0  0  0  0  0  0  0
   27.5485    6.3276  -16.2867 O   0  0  0  0  0  0  0  0  0  0  0  0
   21.8481   13.0518   -8.7169 C   0  0  0  0  0  0  0  0  0  0  0  0
   21.7861   10.9385  -11.7293 C   0  0  0  0  0  0  0  0  0  0  0  0
   26.8110    4.7403  -15.1234 O   0  0  0  0  0  0  0  0  0  0  0  0
   22.5964   12.5171  -11.8285 C   0  0  0  0  0  0  0  0  0  0  0  0
   19.2314   11.6714  -10.3674 C   0  0  0  0  0  0  0  0  0  0  0  0
   21.0789   12.6424  -11.1185 C   0  0  0  0  0  0  0  0  0  0  0  0
   20.2886   10.7240   -9.5181 C   0  0  0  0  0  0  0  0  0  0  0  0
   21.5190   12.6786   -9.6589 C   0  0  0  0  0  0  0  0  0  0  0  0
   20.7697   11.5515   -8.6044 C   0  0  0  0  0  0  0  0  0  0  0  0
   24.0301   10.1177  -14.0044 C   0  0  0  0  0  0  0  0  0  0  0  0
   22.9768    9.2017  -13.3547 C   0  0  0  0  0  0  0  0  0  0  0  0
   20.9662    9.6357  -11.5224 C   0  0  0  0  0  0  0  0  0  0  0  0
   22.2913    8.5059  -12.0629 C   0  0  0  0  0  0  0  0  0  0  0  0
  6  5  1  0
  7  6  1  0
  8  3  1  0
  8  7  1  0
 11  8  1  0
 11 10  1  0
 13  3  1  0
 15 13  2  0
 16 14  1  0
 17  4  1  0
 18 13  1  0
 19 12  2  0
 19 17  1  0
 20  1  1  0
 20  2  1  0
 21  2  1  0
 21 17  1  0
 21 19  1  0
 22 20  1  0
 23 16  1  0
 23 21  1  0
 24 22  1  0
 24 23  1  0
 25  9  1  0
 25 10  1  0
 26  5  1  0
 26  6  1  0
 26 25  1  0
 27  1  1  0
 27 17  1  0
 28  5  1  0
 28 26  1  0
 28 27  1  0
M  END
>  <ID>  (1) 
conformer_0

$$$$
