
     RDKit          3D

 28 32  0  0  0  0  0  0  0  0999 V2000
   20.3454   10.2350  -11.8333 C   0  0  0  0  0  0  0  0  0  0  0  0
   20.6840   12.9271  -11.8386 C   0  0  1  0  0  0  0  0  0  0  0  0
   21.2190   12.6895  -10.2413 C   0  0  1  0  0  0  0  0  0  0  0  0
   21.3726   11.5446  -12.5543 C   0  0  2  0  0  0  0  0  0  0  0  0
   19.2262   11.8476  -11.4250 C   0  0  0  0  0  0  0  0  0  0  0  0
   24.0012   10.3855  -15.3319 C   0  0  0  0  0  0  0  0  0  0  0  0
   22.8680   11.2578  -14.2849 C   0  0  0  0  0  0  0  0  0  0  0  0
   22.0820    8.5030  -12.4035 C   0  0  0  0  0  0  0  0  0  0  0  0
   21.0699   11.6976   -8.3350 C   0  0  0  0  0  0  0  0  0  0  0  0
   24.1876    9.5711  -14.0306 C   0  0  0  0  0  0  0  0  0  0  0  0
   27.6576    6.5346  -16.3222 O   0  0  0  0  0  0  0  0  0  0  0  0
   22.7617    8.7123  -14.8169 C   0  0  0  0  0  0  0  0  0  0  0  0
   26.4326    5.9520  -15.8927 C   0  0  0  0  0  0  0  0  0  0  0  0
   21.6025   12.9469   -8.5221 C   0  0  2  0  0  0  0  0  0  0  0  0
   23.2117   13.1350  -12.2039 O   0  0  0  0  0  0  0  0  0  0  0  0
   21.6050    9.6604  -14.0642 C   0  0  0  0  0  0  0  0  0  0  0  0
   26.1332    4.6018  -15.0634 O   0  0  0  0  0  0  0  0  0  0  0  0
   20.9743   10.7687   -9.9936 C   0  0  2  0  0  0  0  0  0  0  0  0
   22.2226   13.0546  -12.1083 C   0  0  0  0  0  0  0  0  0  0  0  0
   21.8070   13.7765   -8.1964 O   0  0  0  0  0  0  0  0  0  0  0  0
   25.6266    6.4092  -16.3458 C   0  0  0  0  0  0  0  0  0  0  0  0
   24.7914    8.3782  -15.5416 C   0  0  0  0  0  0  0  0  0  0  0  0
   23.0602    7.8231  -13.0448 C   0  0  0  0  0  0  0  0  0  0  0  0
   24.5464    6.9342  -15.0728 C   0  0  1  0  0  0  0  0  0  0  0  0
   23.3924    6.8765  -14.2223 C   0  0  0  0  0  0  0  0  0  0  0  0
   21.6285    9.3703  -11.1392 C   0  0  1  0  0  0  0  0  0  0  0  0
   19.5796   10.7912  -10.0204 C   0  0  0  0  0  0  0  0  0  0  0  0
   22.6073   10.3746  -12.7630 C   0  0  0  0  0  0  0  0  0  0  0  0
  3  2  1  0
  4  1  1  0
  4  2  1  0
  2  5  1  1
  7  6  1  0
 10  6  1  0
 12 10  1  0
 13 11  2  0
  3 14  1  1
 14  9  1  0
 16 12  1  0
 17 13  1  0
 18  3  1  0
 18  9  1  1
 19  2  1  0
 19  4  1  0
 19 15  2  0
 14 20  1  1
 21 13  1  0
 23  8  2  3
 24 21  1  0
 24 22  1  6
 25 23  1  0
 25 24  1  0
 26  1  1  6
 26  8  1  0
 26 18  1  0
 27  5  1  0
 27 18  1  0
  4 28  1  6
 28  7  1  0
 28 16  1  0
M  END
>  <ID>  (1) 
conformer_0

$$$$
