
     RDKit          3D

 26 27  0  0  0  0  0  0  0  0999 V2000
   20.7690   10.4693  -12.1467 C   0  0  0  0  0  0  0  0  0  0  0  0
   20.6084   13.6423  -11.4483 C   0  0  0  0  0  0  0  0  0  0  0  0
   21.6897    9.2681  -13.9286 C   0  0  0  0  0  0  0  0  0  0  0  0
   22.8948    7.8390  -13.3680 C   0  0  0  0  0  0  0  0  0  0  0  0
   21.9483   11.3468  -12.8233 C   0  0  0  0  0  0  0  0  0  0  0  0
   19.7847   12.5233  -12.0447 C   0  0  0  0  0  0  0  0  0  0  0  0
   20.9478   11.2709   -8.8187 C   0  0  0  0  0  0  0  0  0  0  0  0
   21.5577    9.8456  -10.8159 C   0  0  0  0  0  0  0  0  0  0  0  0
   22.0056    8.7403  -11.9718 C   0  0  0  0  0  0  0  0  0  0  0  0
   20.0973   10.5496   -9.6966 C   0  0  0  0  0  0  0  0  0  0  0  0
   26.2350    6.1399  -15.7304 C   0  0  0  0  0  0  0  0  0  0  0  0
   27.4726    6.6320  -16.3740 O   0  0  0  0  0  0  0  0  0  0  0  0
   23.3836   12.9290  -12.0628 O   0  0  0  0  0  0  0  0  0  0  0  0
   22.4253   12.5430  -11.7684 C   0  0  0  0  0  0  0  0  0  0  0  0
   22.8409    7.6336  -14.7385 C   0  0  0  0  0  0  0  0  0  0  0  0
   23.5765    6.2407  -14.6227 C   0  0  0  0  0  0  0  0  0  0  0  0
   21.6193   12.4561   -8.2645 C   0  0  0  0  0  0  0  0  0  0  0  0
   21.4984   13.0109   -7.3994 O   0  0  0  0  0  0  0  0  0  0  0  0
   23.4414   10.7447  -14.4168 C   0  0  0  0  0  0  0  0  0  0  0  0
   24.3712    9.5259  -14.6455 C   0  0  0  0  0  0  0  0  0  0  0  0
   19.3302   11.4575  -11.0444 C   0  0  0  0  0  0  0  0  0  0  0  0
   26.5126    5.2532  -15.2813 N   0  0  0  0  0  0  0  0  0  0  0  0
   23.1567    9.9637  -13.1340 C   0  0  0  0  0  0  0  0  0  0  0  0
   24.7822    8.1736  -14.9817 C   0  0  0  0  0  0  0  0  0  0  0  0
   24.6820    6.6200  -16.0379 C   0  0  0  0  0  0  0  0  0  0  0  0
   21.2775   12.1126  -10.3764 C   0  0  0  0  0  0  0  0  0  0  0  0
  4  3  1  0
  5  1  1  0
  6  2  1  0
  8  1  1  0
  9  4  1  0
  9  8  1  0
 10  7  1  0
 12 11  2  0
 14  5  1  0
 14 13  2  0
 15  4  1  0
 16 15  1  0
 17  7  1  0
 18 17  1  0
 20 19  1  0
 21  6  1  0
 21 10  1  0
 22 11  1  0
 23  3  1  0
 23  5  1  0
 23 19  1  0
 24 20  1  0
 25 11  1  0
 25 16  1  0
 25 24  1  0
 26  7  1  0
 26 14  1  0
M  END
>  <ID>  (1) 
conformer_0

$$$$
