
     RDKit          3D

 29 35  0  0  0  0  0  0  0  0999 V2000
   20.9909    9.2003  -11.5117 C   0  0  0  0  0  0  0  0  0  0  0  0
   21.6560    9.3755  -13.2947 C   0  0  0  0  0  0  0  0  0  0  0  0
   21.1724   13.2388  -11.3565 C   0  0  0  0  0  0  0  0  0  0  0  0
   21.1257   10.5039  -11.1584 C   0  0  0  0  0  0  0  0  0  0  0  0
   23.2480   10.8805  -14.6248 C   0  0  0  0  0  0  0  0  0  0  0  0
   21.2123   11.7176  -12.3684 C   0  0  0  0  0  0  0  0  0  0  0  0
   19.4405   12.5373  -11.2816 C   0  0  0  0  0  0  0  0  0  0  0  0
   22.4579   10.7692  -13.1626 C   0  0  0  0  0  0  0  0  0  0  0  0
   22.4491    8.4291  -12.1434 C   0  0  0  0  0  0  0  0  0  0  0  0
   19.4188   11.0781  -10.9385 C   0  0  0  0  0  0  0  0  0  0  0  0
   23.4049   13.0233  -12.9621 O   0  0  0  0  0  0  0  0  0  0  0  0
   20.8767   12.7064   -9.8534 C   0  0  0  0  0  0  0  0  0  0  0  0
   22.9531    7.4890  -13.4711 C   0  0  0  0  0  0  0  0  0  0  0  0
   27.5414    6.6177  -15.9202 O   0  0  0  0  0  0  0  0  0  0  0  0
   26.7297    5.8247  -15.9396 C   0  0  0  0  0  0  0  0  0  0  0  0
   20.6983   12.3779   -7.8854 C   0  0  0  0  0  0  0  0  0  0  0  0
   22.4785   12.7860  -12.6790 C   0  0  0  0  0  0  0  0  0  0  0  0
   20.5482   13.2404   -7.6196 O   0  0  0  0  0  0  0  0  0  0  0  0
   24.4155   10.0860  -15.2634 C   0  0  0  0  0  0  0  0  0  0  0  0
   23.8968    9.3230  -13.6223 C   0  0  0  0  0  0  0  0  0  0  0  0
   26.8438    4.8038  -14.8227 O   0  0  0  0  0  0  0  0  0  0  0  0
   24.0286    6.8300  -14.7539 C   0  0  0  0  0  0  0  0  0  0  0  0
   19.9940   10.8855   -9.4134 C   0  0  0  0  0  0  0  0  0  0  0  0
   20.7728   11.2069   -8.4754 C   0  0  0  0  0  0  0  0  0  0  0  0
   24.5226    7.3217  -15.9109 C   0  0  0  0  0  0  0  0  0  0  0  0
   26.6545    4.8855  -15.1936 N   0  0  0  0  0  0  0  0  0  0  0  0
   25.8181    5.9578  -16.7045 C   0  0  0  0  0  0  0  0  0  0  0  0
   22.7752    8.4790  -14.7898 C   0  0  0  0  0  0  0  0  0  0  0  0
   25.0866    8.6000  -15.0899 C   0  0  0  0  0  0  0  0  0  0  0  0
  2  1  1  0
  4  1  1  0
  6  3  1  0
  6  4  1  0
  7  3  1  0
  8  2  1  0
  8  5  1  0
  8  6  1  0
  9  1  1  0
  9  2  1  0
 10  4  1  0
 10  7  1  0
 12  3  1  0
 13  9  1  0
 15 14  2  0
 17  3  1  0
 17  6  1  0
 17 11  2  0
 18 16  1  0
 19  5  1  0
 20  5  1  0
 20 19  1  0
 22 13  1  0
 23 10  1  0
 24 16  1  0
 24 23  1  0
 25 22  1  0
 26 15  1  0
 26 21  1  0
 27 15  1  0
 27 25  1  0
 28 13  1  0
 28 20  1  0
 29 19  1  0
 29 25  1  0
M  END
>  <ID>  (1) 
conformer_0

$$$$
