
     RDKit          3D

 28 35  0  0  0  0  0  0  0  0999 V2000
   19.1277   11.5908  -10.9846 C   0  0  1  0  0  0  0  0  0  0  0  0
   19.9886   10.8629   -9.4045 C   0  0  1  0  0  0  0  0  0  0  0  0
   21.8516    8.5862  -14.4504 C   0  0  0  0  0  0  0  0  0  0  0  0
   20.1790   13.0050  -11.5057 C   0  0  1  0  0  0  0  0  0  0  0  0
   20.9855   11.5253  -10.7192 C   0  0  1  0  0  0  0  0  0  0  0  0
   24.8765    6.5089  -16.4431 C   0  0  0  0  0  0  0  0  0  0  0  0
   25.4595    7.1872  -15.5481 C   0  0  0  0  0  0  0  0  0  0  0  0
   21.0175   11.6587   -8.6890 C   0  0  0  0  0  0  0  0  0  0  0  0
   24.1269   10.0292  -14.6244 C   0  0  0  0  0  0  0  0  0  0  0  0
   22.9243   10.4295  -12.9067 C   0  0  2  0  0  0  0  0  0  0  0  0
   26.6697    5.8018  -15.9061 C   0  0  0  0  0  0  0  0  0  0  0  0
   22.6670   13.6962  -12.2604 O   0  0  0  0  0  0  0  0  0  0  0  0
   24.9170    8.8290  -15.3859 C   0  0  2  0  0  0  0  0  0  0  0  0
   27.8884    5.9550  -16.3857 O   0  0  0  0  0  0  0  0  0  0  0  0
   26.4634    4.8309  -14.9891 O   0  0  0  0  0  0  0  0  0  0  0  0
   21.9175   13.2342   -7.7199 O   0  0  0  0  0  0  0  0  0  0  0  0
   21.0643   13.5264  -10.0593 C   0  0  2  0  0  0  0  0  0  0  0  0
   21.6941   13.7927  -11.2231 C   0  0  2  0  0  0  0  0  0  0  0  0
   23.3416    8.2577  -15.6001 C   0  0  1  0  0  0  0  0  0  0  0  0
   23.4731    7.0060  -14.5949 C   0  0  0  0  0  0  0  0  0  0  0  0
   22.8447   10.4394  -14.3970 C   0  0  0  0  0  0  0  0  0  0  0  0
   21.4558   12.9261   -8.6329 C   0  0  0  0  0  0  0  0  0  0  0  0
   19.9212   10.1641  -11.3907 C   0  0  1  0  0  0  0  0  0  0  0  0
   23.2925    8.0477  -13.4582 C   0  0  2  0  0  0  0  0  0  0  0  0
   21.3197    9.4220  -12.7362 C   0  0  2  0  0  0  0  0  0  0  0  0
   21.7148    9.5342  -10.9908 C   0  0  2  0  0  0  0  0  0  0  0  0
   22.4486    8.3198  -12.1345 C   0  0  2  0  0  0  0  0  0  0  0  0
   21.5144   11.4563  -12.4450 C   0  0  0  0  0  0  0  0  0  0  0  0
  1  2  1  1
  4  1  1  0
  5  2  1  0
  5  4  1  0
  7  6  2  3
  2  8  1  1
 11  7  1  0
 13  7  1  1
 13  9  1  0
 14 11  2  0
 15 11  1  0
 17  4  1  0
  4 18  1  6
 18 12  1  1
 18 17  1  0
 19  3  1  1
 19 13  1  0
 20 19  1  0
 21  9  1  0
 21 10  1  0
 22  8  1  0
 22 16  1  0
 17 22  1  1
 23  1  1  1
 23  5  1  0
 24  3  1  6
 24 20  1  0
 25 10  1  6
 26 23  1  1
 26 25  1  0
 27 24  1  6
 27 25  1  0
 27 26  1  0
  5 28  1  1
 10 28  1  1
M  END
>  <ID>  (1) 
conformer_0

$$$$
