
     RDKit          3D

 31 39  0  0  0  0  0  0  0  0999 V2000
   21.6483    9.0899  -13.4106 C   0  0  0  0  0  0  0  0  0  0  0  0
   21.7465    9.2056  -11.4804 C   0  0  0  0  0  0  0  0  0  0  0  0
   23.0295   10.2206  -13.1696 C   0  0  0  0  0  0  0  0  0  0  0  0
   22.8971   11.6794  -14.4020 C   0  0  0  0  0  0  0  0  0  0  0  0
   21.8395   11.3078  -12.8802 C   0  0  0  0  0  0  0  0  0  0  0  0
   23.5797    7.5403  -13.4526 C   0  0  0  0  0  0  0  0  0  0  0  0
   20.3537    9.7998  -11.6730 C   0  0  0  0  0  0  0  0  0  0  0  0
   23.9112   10.9153  -15.2319 C   0  0  0  0  0  0  0  0  0  0  0  0
   20.2066   12.6106  -11.3314 C   0  0  0  0  0  0  0  0  0  0  0  0
   22.7892    9.5112  -14.6695 C   0  0  0  0  0  0  0  0  0  0  0  0
   21.3359   12.7219   -9.6498 C   0  0  0  0  0  0  0  0  0  0  0  0
   22.7097   13.5169  -12.3764 O   0  0  0  0  0  0  0  0  0  0  0  0
   26.7658    5.4837  -15.8971 C   0  0  0  0  0  0  0  0  0  0  0  0
   20.1641   10.6469   -9.8358 C   0  0  0  0  0  0  0  0  0  0  0  0
   24.4970    7.7560  -15.4735 C   0  0  0  0  0  0  0  0  0  0  0  0
   21.6167   13.3087  -11.9942 C   0  0  0  0  0  0  0  0  0  0  0  0
   21.3320   12.8751   -8.7316 C   0  0  0  0  0  0  0  0  0  0  0  0
   22.3085    8.0081  -12.2048 C   0  0  0  0  0  0  0  0  0  0  0  0
   27.5170    5.7073  -15.4234 O   0  0  0  0  0  0  0  0  0  0  0  0
   20.8423   14.3001  -11.9669 O   0  0  0  0  0  0  0  0  0  0  0  0
   21.4612   14.1462   -8.6629 O   0  0  0  0  0  0  0  0  0  0  0  0
   27.4705    4.7345  -16.2073 O   0  0  0  0  0  1  0  0  0  0  0  0
   20.4287   11.3444   -8.6764 C   0  0  0  0  0  0  0  0  0  0  0  0
   23.0039    7.5294  -14.4278 C   0  0  0  0  0  0  0  0  0  0  0  0
   21.6729   12.3475   -7.3294 C   0  0  0  0  0  0  0  0  0  0  0  0
   25.9137    6.8966  -15.3423 C   0  0  0  0  0  0  0  0  0  0  0  0
   24.2623    6.0776  -15.3192 C   0  0  0  0  0  0  0  0  0  0  0  0
   25.1983    5.3663  -16.5502 C   0  0  0  0  0  0  0  0  0  0  0  0
   19.1077   11.2419  -10.7597 C   0  0  0  0  0  0  0  0  0  0  0  0
   21.3120   11.3221  -11.3985 C   0  0  0  0  0  0  0  0  0  0  0  0
   24.5478    9.3491  -14.6280 C   0  0  0  0  0  0  0  0  0  0  0  0
  2  1  1  0
  3  1  1  0
  4  3  1  0
  5  3  1  0
  5  4  1  0
  7  2  1  0
  8  4  1  0
 10  1  1  0
 10  3  1  0
 10  8  1  0
 16  9  1  0
 16 12  2  0
 17 11  1  0
 18  1  1  0
 18  2  1  0
 18  6  1  0
 19 13  1  0
 20 16  1  0
 21 17  1  0
 22 13  1  0
 23 14  1  0
 23 17  1  0
 24  6  1  0
 24 15  1  0
 25 17  1  0
 26 13  1  0
 26 15  1  0
 27 15  1  0
 27 26  1  0
 28 13  1  0
 28 27  1  0
 29  9  1  0
 29 14  1  0
 30  5  1  0
 30  7  1  0
 30  9  1  0
 31  8  1  0
 31 10  1  0
 31 15  1  0
M  RAD  1  22   2
M  END
>  <ID>  (1) 
conformer_0

$$$$
