
     RDKit          3D

 26 30  0  0  0  0  0  0  0  0999 V2000
   23.1592    7.0295  -14.0639 C   0  0  0  0  0  0  0  0  0  0  0  0
   23.1934   10.1732  -13.3474 C   0  0  0  0  0  0  0  0  0  0  0  0
   24.1549    6.3646  -15.3329 C   0  0  0  0  0  0  0  0  0  0  0  0
   23.4799   10.6279  -14.4662 C   0  0  0  0  0  0  0  0  0  0  0  0
   25.0857    6.3467  -16.5832 C   0  0  0  0  0  0  0  0  0  0  0  0
   22.0674    9.5534  -11.3477 C   0  0  0  0  0  0  0  0  0  0  0  0
   20.9006   10.3869  -11.7495 C   0  0  0  0  0  0  0  0  0  0  0  0
   24.7700    7.7523  -15.9435 C   0  0  0  0  0  0  0  0  0  0  0  0
   24.3054    9.0974  -14.9857 C   0  0  0  0  0  0  0  0  0  0  0  0
   20.5482   10.8611   -9.7944 C   0  0  0  0  0  0  0  0  0  0  0  0
   21.9341   11.3220  -12.6703 C   0  0  0  0  0  0  0  0  0  0  0  0
   23.2694   13.2483  -12.7026 O   0  0  0  0  0  0  0  0  0  0  0  0
   21.2799   12.5446   -7.8348 C   0  0  0  0  0  0  0  0  0  0  0  0
   26.5515    5.8935  -15.9578 C   0  0  0  0  0  0  0  0  0  0  0  0
   20.0237   12.3264  -11.6297 C   0  0  0  0  0  0  0  0  0  0  0  0
   21.7170   12.7783   -6.6340 O   0  0  0  0  0  0  0  0  0  0  0  0
   27.9473    5.9965  -16.5133 O   0  0  0  0  0  0  0  0  0  0  0  0
   22.3054   12.7977  -12.2468 C   0  0  0  0  0  0  0  0  0  0  0  0
   20.5699   11.5747   -8.6498 C   0  0  0  0  0  0  0  0  0  0  0  0
   19.4622   11.2869  -10.6292 C   0  0  0  0  0  0  0  0  0  0  0  0
   22.6914    8.4717  -12.6835 C   0  0  0  0  0  0  0  0  0  0  0  0
   22.9793    8.1264  -14.7975 C   0  0  0  0  0  0  0  0  0  0  0  0
   21.4912    9.1132  -13.7460 C   0  0  0  0  0  0  0  0  0  0  0  0
   26.4768    4.5169  -15.6280 O   0  0  0  0  0  0  0  0  0  0  0  0
   20.7328   13.5027  -11.1386 C   0  0  0  0  0  0  0  0  0  0  0  0
   21.0374   13.1657   -9.3952 C   0  0  0  0  0  0  0  0  0  0  0  0
  3  1  1  0
  4  2  1  0
  5  3  1  0
  7  6  1  0
  8  3  1  0
  8  5  1  0
  9  4  1  0
  9  8  1  0
 11  2  1  0
 11  7  1  0
 14  5  1  0
 16 13  1  0
 17 14  1  0
 18 11  1  0
 18 12  2  0
 19 10  1  0
 19 13  1  0
 20  7  1  0
 20 10  1  0
 20 15  1  0
 21  2  1  0
 21  6  1  0
 22  1  1  0
 22  9  1  0
 23 21  1  0
 24 14  1  0
 25 15  1  0
 26 13  1  0
 26 19  1  0
 26 25  1  0
M  END
>  <ID>  (1) 
conformer_0

$$$$
