
     RDKit          3D

 26 28  0  0  0  0  0  0  0  0999 V2000
   22.8087   10.8273  -13.0276 C   0  0  0  0  0  0  0  0  0  0  0  0
   20.6056    9.6080  -11.8493 C   0  0  0  0  0  0  0  0  0  0  0  0
   21.5151   11.6346  -12.7872 C   0  0  0  0  0  0  0  0  0  0  0  0
   21.9058    9.4279  -11.9307 C   0  0  0  0  0  0  0  0  0  0  0  0
   23.4025   10.7312  -14.4005 C   0  0  0  0  0  0  0  0  0  0  0  0
   20.8919   11.0336  -10.9794 C   0  0  0  0  0  0  0  0  0  0  0  0
   22.7709    8.5212  -13.2309 C   0  0  0  0  0  0  0  0  0  0  0  0
   19.6367   11.8141  -11.8152 C   0  0  0  0  0  0  0  0  0  0  0  0
   20.6250   13.2261  -11.7521 C   0  0  0  0  0  0  0  0  0  0  0  0
   20.1068   10.6560   -9.6581 C   0  0  0  0  0  0  0  0  0  0  0  0
   20.6752   12.3113   -9.7788 C   0  0  0  0  0  0  0  0  0  0  0  0
   23.1112   13.2497  -11.9571 O   0  0  0  0  0  0  0  0  0  0  0  0
   26.8635    5.6764  -16.0129 C   0  0  0  0  0  0  0  0  0  0  0  0
   22.0334   13.2178  -11.5616 C   0  0  0  0  0  0  0  0  0  0  0  0
   21.3314   12.6701   -8.1923 C   0  0  0  0  0  0  0  0  0  0  0  0
   21.7088   12.9854   -7.1773 O   0  0  0  0  0  0  0  0  0  0  0  0
   27.9304    6.0562  -16.2814 O   0  0  0  0  0  0  0  0  0  0  0  0
   24.3102    9.3262  -14.2262 C   0  0  0  0  0  0  0  0  0  0  0  0
   20.5726   11.4126   -8.2419 C   0  0  0  0  0  0  0  0  0  0  0  0
   23.2615    7.1137  -14.5592 C   0  0  0  0  0  0  0  0  0  0  0  0
   25.1720    7.3182  -15.1576 C   0  0  0  0  0  0  0  0  0  0  0  0
   21.4881   13.7868   -9.4822 C   0  0  0  0  0  0  0  0  0  0  0  0
   24.3280    6.1831  -15.4115 C   0  0  0  0  0  0  0  0  0  0  0  0
   25.9592    5.3964  -16.3468 C   0  0  0  0  0  0  0  0  0  0  0  0
   23.1445    8.5392  -15.1909 C   0  0  0  0  0  0  0  0  0  0  0  0
   21.5798    9.1540  -13.9631 C   0  0  0  0  0  0  0  0  0  0  0  0
  3  1  1  0
  4  1  1  0
  4  2  1  0
  5  1  1  0
  6  2  1  0
  7  4  1  0
  8  6  1  0
  9  8  1  0
 10  6  1  0
 11  6  1  0
 11 10  1  0
 14  9  1  0
 14 12  2  0
 15 11  1  0
 16 15  1  0
 17 13  2  0
 18  5  1  0
 19 10  1  0
 19 15  1  0
 22 11  1  0
 22 15  1  0
 23 20  1  0
 23 21  1  0
 24 13  1  0
 24 23  1  0
 25 18  1  0
 25 20  1  0
 26  7  1  0
M  END
>  <ID>  (1) 
conformer_0

$$$$
