
     RDKit          3D

 31 34  0  0  0  0  0  0  0  0999 V2000
   21.5154   10.0875  -10.7517 C   0  0  0  0  0  0  0  0  0  0  0  0
   18.9427   11.1080  -10.1669 C   0  0  0  0  0  0  0  0  0  0  0  0
   21.1113   12.2265  -12.1213 C   0  0  0  0  0  0  0  0  0  0  0  0
   20.7758   13.9116  -10.8759 C   0  0  0  0  0  0  0  0  0  0  0  0
   22.6702    8.3046  -11.8039 C   0  0  0  0  0  0  0  0  0  0  0  0
   20.8381   11.9283  -10.4952 C   0  0  0  0  0  0  0  0  0  0  0  0
   21.8284    9.0987  -14.2754 C   0  0  0  0  0  0  0  0  0  0  0  0
   22.5989    7.7050  -13.4424 C   0  0  0  0  0  0  0  0  0  0  0  0
   23.0419   10.9932  -14.4798 C   0  0  0  0  0  0  0  0  0  0  0  0
   23.7082    9.3335  -14.0724 C   0  0  0  0  0  0  0  0  0  0  0  0
   23.6828    8.1034  -15.4762 C   0  0  0  0  0  0  0  0  0  0  0  0
   27.0989    5.6265  -15.9444 C   0  0  0  0  0  0  0  0  0  0  0  0
   23.2240   13.2208  -11.9648 O   0  0  0  0  0  0  0  0  0  0  0  0
   28.4769    5.9921  -16.5457 O   0  0  0  0  0  0  0  0  0  0  0  0
   27.0483    4.4432  -15.1204 O   0  0  0  0  0  0  0  0  0  0  0  0
   24.5361    6.4615  -15.8254 C   0  0  0  0  0  0  0  0  0  0  0  0
   23.5279    6.8204  -14.2956 C   0  0  0  0  0  0  0  0  0  0  0  0
   21.2069   13.3267   -9.3410 C   0  0  0  0  0  0  0  0  0  0  0  0
   21.4090   14.3289  -13.1462 O   0  0  0  0  0  0  0  0  0  0  0  0
   26.1986    6.1575  -16.4385 C   0  0  0  0  0  0  0  0  0  0  0  0
   24.6182    9.8747  -15.0176 C   0  0  0  0  0  0  0  0  0  0  0  0
   21.2306   14.1244   -8.7125 O   0  0  0  0  0  0  0  0  0  0  0  0
   21.3177    9.0393  -12.0451 C   0  0  0  0  0  0  0  0  0  0  0  0
   19.7108   10.2861  -11.4668 C   0  0  0  0  0  0  0  0  0  0  0  0
   21.6623   13.5893  -11.7965 C   0  0  0  0  0  0  0  0  0  0  0  0
   25.5360    7.7513  -15.4726 C   0  0  0  0  0  0  0  0  0  0  0  0
   21.5298   10.7297  -13.0484 C   0  0  0  0  0  0  0  0  0  0  0  0
   20.7314   12.2016   -8.7184 C   0  0  0  0  0  0  0  0  0  0  0  0
   20.3024   10.6981   -8.9888 C   0  0  0  0  0  0  0  0  0  0  0  0
   19.0995   12.3006  -11.4035 C   0  0  0  0  0  0  0  0  0  0  0  0
   22.9702   10.3287  -12.5877 C   0  0  0  0  0  0  0  0  0  0  0  0
  6  3  1  0
  8  5  1  0
  8  7  1  0
 10  7  1  0
 10  9  1  0
 11 10  1  0
 14 12  2  0
 15 12  1  0
 16 11  1  0
 17  8  1  0
 17 11  1  0
 17 16  1  0
 18  4  1  0
 20 12  1  0
 20 16  1  0
 21 10  1  0
 22 18  1  0
 23  1  1  0
 23  5  1  0
 24  1  1  0
 24  2  1  0
 25  3  1  0
 25  4  1  0
 25 13  1  0
 25 19  1  0
 26 11  1  0
 26 16  1  0
 27  3  1  0
 28  6  1  0
 28 18  1  0
 29  2  1  0
 29 28  1  0
 30  2  1  0
 31 27  1  0
M  END
>  <ID>  (1) 
conformer_0

$$$$
