
     RDKit          3D

 26 33  0  0  0  0  0  0  0  0999 V2000
   23.4583    9.8197  -13.8449 C   0  0  0  0  0  0  0  0  0  0  0  0
   21.8926    9.1058  -11.5188 C   0  0  0  0  0  0  0  0  0  0  0  0
   23.9838    6.6020  -15.1305 C   0  0  0  0  0  0  0  0  0  0  0  0
   25.3508    8.3169  -15.6085 C   0  0  0  0  0  0  0  0  0  0  0  0
   24.8807    6.5983  -16.3364 C   0  0  0  0  0  0  0  0  0  0  0  0
   20.5662    9.7686  -11.8561 C   0  0  0  0  0  0  0  0  0  0  0  0
   21.7847    9.2556  -14.0873 C   0  0  0  0  0  0  0  0  0  0  0  0
   24.5810    9.8653  -15.0775 C   0  0  0  0  0  0  0  0  0  0  0  0
   22.5954    8.3378  -12.5637 C   0  0  0  0  0  0  0  0  0  0  0  0
   23.3048    8.3827  -15.2854 C   0  0  0  0  0  0  0  0  0  0  0  0
   23.1386    7.4045  -13.9861 C   0  0  0  0  0  0  0  0  0  0  0  0
   23.3565   13.0196  -12.3600 O   0  0  0  0  0  0  0  0  0  0  0  0
   21.1734   12.4607   -7.7746 C   0  0  0  0  0  0  0  0  0  0  0  0
   26.2882    6.1058  -15.8248 C   0  0  0  0  0  0  0  0  0  0  0  0
   20.8515   12.1954  -12.1140 C   0  0  0  0  0  0  0  0  0  0  0  0
   26.6608    4.8050  -15.4070 O   0  0  0  0  0  0  0  0  0  0  0  0
   21.8537   12.9541   -7.0606 O   0  0  0  0  0  0  0  0  0  0  0  0
   27.5836    6.3115  -16.3579 O   0  0  0  0  0  0  0  0  0  0  0  0
   20.2539   10.6055  -10.1569 C   0  0  0  0  0  0  0  0  0  0  0  0
   20.5472   13.3606  -11.1810 C   0  0  0  0  0  0  0  0  0  0  0  0
   22.5270   12.5747  -12.4716 C   0  0  0  0  0  0  0  0  0  0  0  0
   21.1478   12.9489   -9.5719 C   0  0  0  0  0  0  0  0  0  0  0  0
   20.4786   11.3423   -8.9078 C   0  0  0  0  0  0  0  0  0  0  0  0
   19.5242   11.5099  -11.0852 C   0  0  0  0  0  0  0  0  0  0  0  0
   21.8167   10.8481  -12.5419 C   0  0  0  0  0  0  0  0  0  0  0  0
   22.6584   11.0868  -14.0583 C   0  0  0  0  0  0  0  0  0  0  0  0
  5  3  1  0
  5  4  1  0
  6  2  1  0
  7  1  1  0
  8  1  1  0
  8  4  1  0
  9  2  1  0
  9  7  1  0
 10  3  1  0
 10  8  1  0
 11  3  1  0
 11  9  1  0
 11 10  1  0
 14  5  1  0
 16 14  1  0
 17 13  1  0
 18 14  2  0
 19  6  1  0
 20 15  1  0
 21 12  2  0
 21 15  1  0
 22 13  1  0
 22 20  1  0
 23 13  1  0
 23 19  1  0
 23 22  1  0
 24 15  1  0
 24 19  1  0
 25  6  1  0
 25 15  1  0
 25 21  1  0
 26  1  1  0
 26 25  1  0
M  END
>  <ID>  (1) 
conformer_0

$$$$
