
     RDKit          3D

 24 28  0  0  0  0  0  0  0  0999 V2000
   24.6292    8.4539  -15.5523 C   0  0  0  0  0  0  0  0  0  0  0  0
   19.8483   12.7677  -11.5908 C   0  0  0  0  0  0  0  0  0  0  0  0
   19.9350   10.9762   -9.6885 C   0  0  0  0  0  0  0  0  0  0  0  0
   19.2692   11.3468  -11.1068 C   0  0  0  0  0  0  0  0  0  0  0  0
   21.0608   11.9153  -12.1722 C   0  0  0  0  0  0  0  0  0  0  0  0
   20.9566   10.1809  -11.1269 C   0  0  0  0  0  0  0  0  0  0  0  0
   20.8137   10.0329  -12.4717 C   0  0  0  0  0  0  0  0  0  0  0  0
   22.1285   11.1906  -13.5960 C   0  0  0  0  0  0  0  0  0  0  0  0
   23.6932   10.6279  -14.8021 C   0  0  0  0  0  0  0  0  0  0  0  0
   20.9786   13.3184  -10.1677 C   0  0  0  0  0  0  0  0  0  0  0  0
   21.3814   13.1019   -8.3880 C   0  0  0  0  0  0  0  0  0  0  0  0
   26.3689    5.5306  -15.7417 C   0  0  0  0  0  0  0  0  0  0  0  0
   20.6876   12.0548   -9.2744 C   0  0  0  0  0  0  0  0  0  0  0  0
   27.5636    5.9165  -16.0485 O   0  0  0  0  0  0  0  0  0  0  0  0
   21.6828   13.3336   -7.4264 O   0  0  0  0  0  0  0  0  0  0  0  0
   26.8928    4.3626  -15.0103 O   0  0  0  0  0  0  0  0  0  0  0  0
   24.2277    9.3938  -14.5392 C   0  0  0  0  0  0  0  0  0  0  0  0
   23.4655   12.8435  -12.5021 O   0  0  0  0  0  0  0  0  0  0  0  0
   22.0756    8.7764  -12.5426 C   0  0  0  0  0  0  0  0  0  0  0  0
   23.7296    6.7739  -14.6789 C   0  0  0  0  0  0  0  0  0  0  0  0
   24.9149    6.5174  -15.6459 C   0  0  0  0  0  0  0  0  0  0  0  0
   23.1193    7.7124  -13.8367 C   0  0  0  0  0  0  0  0  0  0  0  0
   22.1228    8.8928  -14.2517 C   0  0  0  0  0  0  0  0  0  0  0  0
   23.0846   10.2433  -13.0101 C   0  0  0  0  0  0  0  0  0  0  0  0
  4  2  1  0
  4  3  1  0
  5  2  1  0
  6  3  1  0
  7  5  1  0
  7  6  1  0
  8  5  1  0
 10  2  1  0
 11 10  1  0
 13  3  1  0
 13 10  1  0
 13 11  1  0
 14 12  2  0
 15 11  1  0
 16 12  1  0
 17  1  1  0
 17  9  1  0
 18  8  1  0
 19  7  1  0
 21  1  1  0
 21 12  1  0
 21 20  1  0
 22 20  1  0
 23 19  1  0
 23 22  1  0
 24  8  1  0
 24  9  1  0
 24 19  1  0
M  END
>  <ID>  (1) 
conformer_0

$$$$
