
     RDKit          3D

 26 28  0  0  0  0  0  0  0  0999 V2000
   20.3553   10.5563   -9.5176 C   0  0  0  0  0  0  0  0  0  0  0  0
   21.4756   10.7270  -11.3523 C   0  0  0  0  0  0  0  0  0  0  0  0
   20.7949   12.8074  -11.2143 C   0  0  0  0  0  0  0  0  0  0  0  0
   21.9696   11.1477  -12.8201 C   0  0  0  0  0  0  0  0  0  0  0  0
   21.9925    8.8327  -12.1461 C   0  0  0  0  0  0  0  0  0  0  0  0
   24.4049    9.3064  -14.5553 C   0  0  0  0  0  0  0  0  0  0  0  0
   23.6163    6.5518  -14.2996 C   0  0  0  0  0  0  0  0  0  0  0  0
   20.6316   11.5949   -9.0806 C   0  0  0  0  0  0  0  0  0  0  0  0
   24.7029    7.0275  -15.2006 C   0  0  0  0  0  0  0  0  0  0  0  0
   23.2450   13.0028  -12.2450 O   0  0  0  0  0  0  0  0  0  0  0  0
   26.6971    5.6574  -16.0133 C   0  0  0  0  0  0  0  0  0  0  0  0
   25.3274    6.3545  -16.0055 C   0  0  0  0  0  0  0  0  0  0  0  0
   27.8166    6.1269  -16.5676 O   0  0  0  0  0  0  0  0  0  0  0  0
   21.1788   13.2921   -7.7177 O   0  0  0  0  0  0  0  0  0  0  0  0
   21.3796   13.4641   -9.7726 C   0  0  0  0  0  0  0  0  0  0  0  0
   21.3543   13.1813   -8.9471 C   0  0  0  0  0  0  0  0  0  0  0  0
   26.8095    4.4365  -15.2334 O   0  0  0  0  0  0  0  0  0  0  0  0
   22.9690    7.7832  -13.0572 C   0  0  0  0  0  0  0  0  0  0  0  0
   22.3559   12.7842  -11.8271 C   0  0  0  0  0  0  0  0  0  0  0  0
   23.2923   10.7659  -14.6828 C   0  0  0  0  0  0  0  0  0  0  0  0
   22.7970    8.1546  -14.5651 C   0  0  0  0  0  0  0  0  0  0  0  0
   20.5107    9.7495  -11.9031 C   0  0  0  0  0  0  0  0  0  0  0  0
   19.6823   12.1058  -11.4633 C   0  0  0  0  0  0  0  0  0  0  0  0
   19.2454   10.8993  -10.7251 C   0  0  0  0  0  0  0  0  0  0  0  0
   23.3229    9.9848  -13.1234 C   0  0  0  0  0  0  0  0  0  0  0  0
   21.6679    9.4182  -14.0425 C   0  0  0  0  0  0  0  0  0  0  0  0
  4  2  1  0
  8  1  1  0
  9  7  1  0
 12  9  1  0
 12 11  1  0
 13 11  2  0
 15  3  1  0
 16  8  1  0
 16 14  1  0
 16 15  1  0
 17 11  1  0
 18  5  1  0
 18  7  1  0
 19  3  1  0
 19  4  1  0
 19 10  2  0
 20  6  1  0
 21  7  1  0
 21 18  1  0
 22  2  1  0
 22  5  1  0
 23  3  1  0
 24  1  1  0
 24 23  1  0
 25  4  1  0
 25  6  1  0
 25 20  1  0
 26 21  1  0
M  END
>  <ID>  (1) 
conformer_0

$$$$
