
     RDKit          3D

 23 26  0  0  0  0  0  0  0  0999 V2000
   21.4183    9.8726  -12.2254 C   0  0  0  0  0  0  0  0  0  0  0  0
   21.8323   11.2580  -12.9304 C   0  0  0  0  0  0  0  0  0  0  0  0
   19.8538   10.9112   -9.7605 C   0  0  0  0  0  0  0  0  0  0  0  0
   23.5489    9.7493  -13.1267 C   0  0  0  0  0  0  0  0  0  0  0  0
   22.3229    8.6072  -12.2551 C   0  0  0  0  0  0  0  0  0  0  0  0
   20.6319   11.1153   -8.9059 C   0  0  0  0  0  0  0  0  0  0  0  0
   23.0891   10.6989  -14.3424 C   0  0  0  0  0  0  0  0  0  0  0  0
   23.0443    7.5116  -13.9148 C   0  0  0  0  0  0  0  0  0  0  0  0
   23.8933    8.4450  -15.4168 C   0  0  0  0  0  0  0  0  0  0  0  0
   23.3454   13.0354  -12.3784 O   0  0  0  0  0  0  0  0  0  0  0  0
   24.1227    6.8975  -15.3010 C   0  0  0  0  0  0  0  0  0  0  0  0
   25.1871    6.5390  -16.2720 C   0  0  0  0  0  0  0  0  0  0  0  0
   26.5840    5.6363  -16.0498 C   0  0  0  0  0  0  0  0  0  0  0  0
   21.2383   12.9446  -10.1817 C   0  0  0  0  0  0  0  0  0  0  0  0
   27.6480    6.3278  -16.2508 O   0  0  0  0  0  0  0  0  0  0  0  0
   21.5221   13.0431   -7.5880 O   0  0  0  0  0  0  0  0  0  0  0  0
   21.3676   12.7122   -8.7401 C   0  0  0  0  0  0  0  0  0  0  0  0
   22.2972   12.8786  -12.0693 C   0  0  0  0  0  0  0  0  0  0  0  0
   22.0751    8.9282  -14.1569 C   0  0  0  0  0  0  0  0  0  0  0  0
   24.6822    9.2911  -14.4264 C   0  0  0  0  0  0  0  0  0  0  0  0
   21.0813   10.2675  -10.9300 C   0  0  0  0  0  0  0  0  0  0  0  0
   20.4949   12.4994  -11.8892 C   0  0  0  0  0  0  0  0  0  0  0  0
   19.5380   11.7183  -11.1154 C   0  0  0  0  0  0  0  0  0  0  0  0
  2  1  1  0
  5  1  1  0
  5  4  1  0
  6  3  1  0
  7  4  1  0
  9  8  1  0
 11  8  1  0
 11  9  1  0
 12 11  1  0
 13 12  1  0
 15 13  1  0
 17  6  1  0
 17 14  1  0
 17 16  1  0
 18  2  1  0
 18 10  1  0
 19  5  1  0
 19  8  1  0
 20  4  1  0
 20  9  1  0
 21  1  1  0
 21  3  1  0
 22 14  1  0
 22 18  1  0
 23  3  1  0
 23 22  1  0
M  END
>  <ID>  (1) 
conformer_0

$$$$
