
     RDKit          3D

 22 25  0  0  0  0  0  0  0  0999 V2000
   20.7523   13.1171  -11.0297 C   0  0  0  0  0  0  0  0  0  0  0  0
   20.5796   10.2485  -11.0421 C   0  0  0  0  0  0  0  0  0  0  0  0
   20.6135   11.6334   -9.0289 C   0  0  0  0  0  0  0  0  0  0  0  0
   20.3381   10.8183   -9.2359 C   0  0  0  0  0  0  0  0  0  0  0  0
   19.4468   11.4480  -10.8679 C   0  0  0  0  0  0  0  0  0  0  0  0
   20.8744   11.7746  -12.0085 C   0  0  0  0  0  0  0  0  0  0  0  0
   21.2465   13.3432   -9.6255 C   0  0  0  0  0  0  0  0  0  0  0  0
   23.5425   10.3606  -14.4169 C   0  0  0  0  0  0  0  0  0  0  0  0
   21.1523    9.8736  -12.4451 C   0  0  0  0  0  0  0  0  0  0  0  0
   22.3822    8.7656  -12.6309 C   0  0  0  0  0  0  0  0  0  0  0  0
   23.2992   13.0203  -12.7109 O   0  0  0  0  0  0  0  0  0  0  0  0
   22.4183   10.7190  -13.3939 C   0  0  0  0  0  0  0  0  0  0  0  0
   27.0707    5.1295  -15.9619 C   0  0  0  0  0  0  0  0  0  0  0  0
   21.1216   12.5231   -8.0552 C   0  0  0  0  0  0  0  0  0  0  0  0
   27.9664    5.8433  -16.2973 O   0  0  0  0  0  0  0  0  0  0  0  0
   21.3929   12.9513   -7.1538 O   0  0  0  0  0  0  0  0  0  0  0  0
   22.3858   12.7199  -12.4233 C   0  0  0  0  0  0  0  0  0  0  0  0
   23.3514    7.5072  -14.1006 C   0  0  0  0  0  0  0  0  0  0  0  0
   24.3782    9.5659  -14.7299 C   0  0  0  0  0  0  0  0  0  0  0  0
   24.4115    7.9587  -15.1242 C   0  0  0  0  0  0  0  0  0  0  0  0
   25.1031    6.8696  -15.7026 C   0  0  0  0  0  0  0  0  0  0  0  0
   22.3181    8.4994  -13.9613 C   0  0  0  0  0  0  0  0  0  0  0  0
  4  2  1  0
  4  3  1  0
  5  2  1  0
  5  4  1  0
  6  1  1  0
  6  2  1  0
  6  5  1  0
  7  1  1  0
  9  2  1  0
 10  9  1  0
 12  8  1  0
 12  9  1  0
 14  3  1  0
 14  7  2  0
 15 13  1  0
 16 14  1  0
 17  6  1  0
 17 11  1  0
 19  8  1  0
 20 18  1  0
 20 19  1  0
 21 13  1  0
 21 20  1  0
 22 10  1  0
 22 18  1  0
M  END
>  <ID>  (1) 
conformer_0

$$$$
