
     RDKit          3D

 25 28  0  0  0  0  0  0  0  0999 V2000
   19.5932   11.0625   -9.5815 C   0  0  0  0  0  0  0  0  0  0  0  0
   19.1856   11.8552  -11.2083 C   0  0  0  0  0  0  0  0  0  0  0  0
   20.4244   10.6138  -10.9864 C   0  0  0  0  0  0  0  0  0  0  0  0
   21.4155    9.5351  -11.4928 C   0  0  0  0  0  0  0  0  0  0  0  0
   20.5482   13.2593  -11.4368 C   0  0  0  0  0  0  0  0  0  0  0  0
   24.4077    6.9779  -15.5166 C   0  0  0  0  0  0  0  0  0  0  0  0
   20.4350   11.1539   -8.6863 C   0  0  0  0  0  0  0  0  0  0  0  0
   22.2927    8.4593  -12.5511 C   0  0  0  0  0  0  0  0  0  0  0  0
   20.6488   12.2078  -12.6557 C   0  0  0  0  0  0  0  0  0  0  0  0
   22.9451   10.9576  -13.7159 C   0  0  0  0  0  0  0  0  0  0  0  0
   23.8942    9.7698  -13.6250 C   0  0  0  0  0  0  0  0  0  0  0  0
   23.3514   13.1486  -12.2739 O   0  0  0  0  0  0  0  0  0  0  0  0
   20.7992   12.6175   -8.2321 C   0  0  0  0  0  0  0  0  0  0  0  0
   26.8104    5.8910  -16.0263 C   0  0  0  0  0  0  0  0  0  0  0  0
   20.8197   12.7520   -9.8084 C   0  0  0  0  0  0  0  0  0  0  0  0
   21.3393   13.0218   -7.3354 O   0  0  0  0  0  0  0  0  0  0  0  0
   27.9046    6.3529  -16.5022 O   0  0  0  0  0  0  0  0  0  0  0  0
   24.3359    9.7359  -14.9616 C   0  0  0  0  0  0  0  0  0  0  0  0
   25.4799    6.3429  -16.2544 C   0  0  0  0  0  0  0  0  0  0  0  0
   24.9422    8.2289  -15.3568 C   0  0  0  0  0  0  0  0  0  0  0  0
   22.5133   12.6762  -12.1322 C   0  0  0  0  0  0  0  0  0  0  0  0
   21.8804   11.0606  -12.3957 C   0  0  0  0  0  0  0  0  0  0  0  0
   23.3003    7.3114  -14.2302 C   0  0  0  0  0  0  0  0  0  0  0  0
   21.6317    9.4372  -13.6405 C   0  0  0  0  0  0  0  0  0  0  0  0
   22.6593    8.4521  -14.7436 C   0  0  0  0  0  0  0  0  0  0  0  0
  2  1  1  0
  3  1  1  0
  3  2  1  0
  4  3  1  0
  5  2  1  0
  7  1  1  0
  8  4  1  0
  9  5  1  0
 11 10  1  0
 13  7  1  0
 15  5  1  0
 15 13  1  0
 16 13  1  0
 17 14  2  0
 18 11  1  0
 19  6  1  0
 19 14  1  0
 20  6  1  0
 20 18  1  0
 21 12  2  0
 22  4  1  0
 22  9  1  0
 22 10  1  0
 22 21  1  0
 23  6  1  0
 24  8  1  0
 25 23  1  0
 25 24  1  0
M  END
>  <ID>  (1) 
conformer_0

$$$$
