
     RDKit          3D

 27 32  0  0  0  0  0  0  0  0999 V2000
   24.4724    9.5115  -14.4485 C   0  0  0  0  0  0  0  0  0  0  0  0
   22.9417   10.0361  -13.1850 C   0  0  0  0  0  0  0  0  0  0  0  0
   20.6797   10.1794  -11.9472 C   0  0  0  0  0  0  0  0  0  0  0  0
   21.7724    9.0444  -11.6576 C   0  0  0  0  0  0  0  0  0  0  0  0
   20.4552   12.7408  -11.7167 C   0  0  0  0  0  0  0  0  0  0  0  0
   23.7778   10.7759  -15.1160 C   0  0  0  0  0  0  0  0  0  0  0  0
   20.4850   10.2272  -10.2618 C   0  0  0  0  0  0  0  0  0  0  0  0
   21.6071    8.9479  -13.4687 C   0  0  0  0  0  0  0  0  0  0  0  0
   23.0409    7.7794  -13.4440 C   0  0  0  0  0  0  0  0  0  0  0  0
   24.2883    8.2264  -15.4564 C   0  0  0  0  0  0  0  0  0  0  0  0
   23.2573   13.1078  -12.5072 O   0  0  0  0  0  0  0  0  0  0  0  0
   26.6695    5.6068  -16.0025 C   0  0  0  0  0  0  0  0  0  0  0  0
   23.3461    6.9255  -14.8013 C   0  0  0  0  0  0  0  0  0  0  0  0
   21.3311   12.8092   -8.4562 C   0  0  0  0  0  0  0  0  0  0  0  0
   27.6587    6.2837  -16.3485 O   0  0  0  0  0  0  0  0  0  0  0  0
   26.8703    4.4596  -15.4682 O   0  0  0  0  0  0  0  0  0  0  0  0
   22.4308   12.6081  -12.5243 C   0  0  0  0  0  0  0  0  0  0  0  0
   21.0981   12.8966   -7.2632 O   0  0  0  0  0  0  0  0  0  0  0  0
   24.9250    6.6072  -15.3716 C   0  0  0  0  0  0  0  0  0  0  0  0
   25.0644    6.0500  -16.6975 C   0  0  0  0  0  0  0  0  0  0  0  0
   22.5328    9.0061  -14.8874 C   0  0  0  0  0  0  0  0  0  0  0  0
   22.3285   11.1578  -13.8486 C   0  0  0  0  0  0  0  0  0  0  0  0
   20.0940   11.1071   -8.9203 C   0  0  0  0  0  0  0  0  0  0  0  0
   21.0119   13.3649  -10.4981 C   0  0  0  0  0  0  0  0  0  0  0  0
   21.0066   12.3288   -9.3452 C   0  0  0  0  0  0  0  0  0  0  0  0
   19.3251   11.2449  -10.5808 C   0  0  0  0  0  0  0  0  0  0  0  0
   21.5458   11.4687  -11.7357 C   0  0  0  0  0  0  0  0  0  0  0  0
  4  3  1  0
  6  1  1  0
  7  3  1  0
  8  2  1  0
  8  4  1  0
  9  8  1  0
 10  1  1  0
 13  9  1  0
 13 10  1  0
 15 12  2  0
 16 12  1  0
 17 11  1  0
 18 14  1  0
 19 10  1  0
 19 13  1  0
 20 12  1  0
 20 19  1  0
 21  8  1  0
 21  9  1  0
 22  2  1  0
 22  6  1  0
 22 17  1  0
 23  7  1  0
 24  5  1  0
 25 14  1  0
 25 23  1  0
 25 24  1  0
 26  7  1  0
 26 23  1  0
 27  3  1  0
 27  5  1  0
 27 17  1  0
M  END
>  <ID>  (1) 
conformer_0

$$$$
