
     RDKit          3D

 23 24  0  0  0  0  0  0  0  0999 V2000
   22.4086    8.7250  -12.7513 C   0  0  0  0  0  0  0  0  0  0  0  0
   19.8130   11.1413   -9.6953 C   0  0  0  0  0  0  0  0  0  0  0  0
   25.3201    6.9414  -16.1221 C   0  0  0  0  0  0  0  0  0  0  0  0
   23.2943    7.5107  -14.1502 C   0  0  0  0  0  0  0  0  0  0  0  0
   21.5016    9.5145  -12.1842 C   0  0  0  0  0  0  0  0  0  0  0  0
   24.1575    7.0607  -15.2290 C   0  0  0  0  0  0  0  0  0  0  0  0
   20.6384   11.3853   -8.5854 C   0  0  0  0  0  0  0  0  0  0  0  0
   22.3437    8.5104  -14.2802 C   0  0  0  0  0  0  0  0  0  0  0  0
   24.7814    8.7329  -15.3344 C   0  0  0  0  0  0  0  0  0  0  0  0
   24.1945    9.7802  -14.7827 C   0  0  0  0  0  0  0  0  0  0  0  0
   23.2928   13.0182  -12.1049 O   0  0  0  0  0  0  0  0  0  0  0  0
   19.0112   11.5003  -10.8564 C   0  0  0  0  0  0  0  0  0  0  0  0
   21.9652   13.0753   -7.2882 O   0  0  0  0  0  0  0  0  0  0  0  0
   21.4108   12.4448   -7.7974 C   0  0  0  0  0  0  0  0  0  0  0  0
   26.5877    5.7716  -15.9526 C   0  0  0  0  0  0  0  0  0  0  0  0
   27.7204    6.0187  -16.2158 O   0  0  0  0  0  0  0  0  0  0  0  0
   20.8870   13.1654   -9.7794 C   0  0  0  0  0  0  0  0  0  0  0  0
   22.4103   12.6994  -12.3613 C   0  0  0  0  0  0  0  0  0  0  0  0
   22.3783   10.9133  -13.2649 C   0  0  0  0  0  0  0  0  0  0  0  0
   20.2428   13.0394  -11.1518 C   0  0  0  0  0  0  0  0  0  0  0  0
   20.5157   10.3573  -11.0889 C   0  0  0  0  0  0  0  0  0  0  0  0
   21.1561   11.7442  -11.9724 C   0  0  0  0  0  0  0  0  0  0  0  0
   23.3584   10.6817  -14.1362 C   0  0  0  0  0  0  0  0  0  0  0  0
  5  1  1  0
  6  3  1  0
  6  4  1  0
  7  2  1  0
  8  1  1  0
  8  4  1  0
  9  6  1  0
 10  9  2  0
 12  2  1  0
 14  7  1  0
 14 13  1  0
 15  3  1  0
 16 15  2  0
 18 11  2  0
 20 17  1  0
 21  2  1  0
 21  5  1  0
 21 12  1  0
 22 18  1  0
 22 19  1  0
 22 20  1  0
 22 21  1  0
 23 10  2  0
 23 19  1  0
M  END
>  <ID>  (1) 
conformer_0

$$$$
