
     RDKit          3D

 23 25  0  0  0  0  0  0  0  0999 V2000
   21.4508    9.1923  -12.3362 C   0  0  0  0  0  0  0  0  0  0  0  0
   22.4743   10.7581  -13.2079 C   0  0  0  0  0  0  0  0  0  0  0  0
   21.4755   11.4508  -11.9689 C   0  0  2  0  0  0  0  0  0  0  0  0
   21.1977   13.1421  -10.3235 C   0  0  0  0  0  0  0  0  0  0  0  0
   23.3896   10.6263  -14.0843 C   0  0  0  0  0  0  0  0  0  0  0  0
   22.6147    8.0914  -12.9010 C   0  0  1  0  0  0  0  0  0  0  0  0
   20.5189   10.0604  -11.8613 C   0  0  2  0  0  0  0  0  0  0  0  0
   23.2182    7.2907  -14.3873 C   0  0  2  0  0  0  0  0  0  0  0  0
   20.4076   13.0386  -11.1342 C   0  0  0  0  0  0  0  0  0  0  0  0
   24.4093    6.8639  -15.5026 C   0  0  2  0  0  0  0  0  0  0  0  0
   23.4120   13.1255  -12.3544 O   0  0  0  0  0  0  0  0  0  0  0  0
   26.9498    5.4932  -16.2317 C   0  0  0  0  0  0  0  0  0  0  0  0
   20.7152   11.5346   -8.7477 C   0  0  0  0  0  0  0  0  0  0  0  0
   20.8562   12.8282   -8.2991 C   0  0  0  0  0  0  0  0  0  0  0  0
   19.8102   10.9920   -9.8795 C   0  0  0  0  0  0  0  0  0  0  0  0
   22.5435   12.8007  -12.2544 C   0  0  0  0  0  0  0  0  0  0  0  0
   25.4306    6.1760  -16.4183 C   0  0  0  0  0  0  0  0  0  0  0  0
   24.3567    8.5539  -14.8554 C   0  0  1  0  0  0  0  0  0  0  0  0
   24.4102   10.1240  -14.7837 C   0  0  0  0  0  0  0  0  0  0  0  0
   28.0038    5.4435  -16.5785 O   0  0  0  0  0  0  0  0  0  0  0  0
   22.0674    9.0285  -14.1019 C   0  0  0  0  0  0  0  0  0  0  0  0
   27.4469    5.0737  -15.3821 O   0  0  0  0  0  0  0  0  0  0  0  0
   19.4958   11.4471  -10.9507 C   0  0  2  0  0  0  0  0  0  0  0  0
  3  2  1  0
  5  2  3  0
  6  1  1  0
  7  1  1  1
  7  3  1  0
  8  6  1  1
  9  4  1  0
 10  8  1  0
 14 13  2  3
 15 13  1  0
  3 16  1  6
 16 11  2  0
 10 17  1  1
 17 12  1  0
 18  8  1  0
 18 10  1  0
 19  5  1  0
 18 19  1  6
 20 12  2  0
 21  1  1  0
  6 21  1  6
 22 12  1  0
 23  7  1  0
 23  9  1  1
 23 15  1  0
M  END
>  <ID>  (1) 
conformer_0

$$$$
