
     RDKit          3D

 29 32  0  0  0  0  0  0  0  0999 V2000
   22.6843    7.7802  -14.0785 C   0  0  0  0  0  0  0  0  0  0  0  0
   21.2364    9.3701  -13.3539 C   0  0  0  0  0  0  0  0  0  0  0  0
   25.5145    5.6328  -16.4419 C   0  0  0  0  0  0  0  0  0  0  0  0
   24.4299    6.4075  -14.8155 C   0  0  0  0  0  0  0  0  0  0  0  0
   21.6939   10.1113  -11.6713 C   0  0  0  0  0  0  0  0  0  0  0  0
   22.8627   11.3822  -14.1620 C   0  0  0  0  0  0  0  0  0  0  0  0
   23.9140    8.3704  -13.7315 C   0  0  0  0  0  0  0  0  0  0  0  0
   24.1318   10.3822  -14.9988 C   0  0  0  0  0  0  0  0  0  0  0  0
   25.0142    9.3795  -15.0144 C   0  0  0  0  0  0  0  0  0  0  0  0
   25.8781    7.8638  -15.4241 C   0  0  0  0  0  0  0  0  0  0  0  0
   20.9420   12.3624   -7.8782 C   0  0  0  0  0  0  0  0  0  0  0  0
   26.6769    5.8183  -15.9961 C   0  0  0  0  0  0  0  0  0  0  0  0
   19.3250   10.9804   -9.7017 C   0  0  0  0  0  0  0  0  0  0  0  0
   22.1688    8.3876  -12.2194 C   0  0  0  0  0  0  0  0  0  0  0  0
   28.0070    6.2152  -16.6015 O   0  0  0  0  0  0  0  0  0  0  0  0
   21.1178   12.7736   -6.9909 O   0  0  0  0  0  0  0  0  0  0  0  0
   22.4503   12.8566  -12.5495 C   0  0  0  0  0  0  0  0  0  0  0  0
   20.2293    9.9192  -11.2230 C   0  0  0  0  0  0  0  0  0  0  0  0
   23.3148   13.1213  -12.5679 O   0  0  0  0  0  0  0  0  0  0  0  0
   22.1900    9.4148  -14.8205 C   0  0  0  0  0  0  0  0  0  0  0  0
   20.6400   10.8789   -8.7626 C   0  0  0  0  0  0  0  0  0  0  0  0
   21.4759   11.5125  -12.7998 C   0  0  0  0  0  0  0  0  0  0  0  0
   19.4105   11.7997  -11.0674 C   0  0  0  0  0  0  0  0  0  0  0  0
   20.8911   12.4174   -9.0108 C   0  0  0  0  0  0  0  0  0  0  0  0
   20.9344   13.3634  -11.7263 C   0  0  0  0  0  0  0  0  0  0  0  0
   21.0148   13.8316  -10.1343 C   0  0  0  0  0  0  0  0  0  0  0  0
   23.1543   10.1687  -13.2099 C   0  0  0  0  0  0  0  0  0  0  0  0
   24.1490    7.5997  -15.7262 C   0  0  0  0  0  0  0  0  0  0  0  0
   21.1016   11.7473  -10.8258 C   0  0  0  0  0  0  0  0  0  0  0  0
  4  3  1  0
  5  2  1  0
  7  1  1  0
  8  6  1  0
  9  7  1  0
  9  8  1  0
 10  9  1  0
 12  3  1  0
 14  2  1  0
 14  5  1  0
 15 12  1  0
 16 11  1  0
 18  5  1  0
 19 17  2  0
 20  1  1  0
 20  2  1  0
 21 13  1  0
 22  5  1  0
 22  6  1  0
 22 17  1  0
 23 13  1  0
 24 11  1  0
 24 21  1  0
 25 17  1  0
 26 24  1  0
 26 25  1  0
 27  6  1  0
 28  4  1  0
 28 10  1  0
 29 23  1  0
 29 24  1  0
 29 25  1  0
M  END
>  <ID>  (1) 
conformer_0

$$$$
