
     RDKit          3D

 29 35  0  0  0  0  0  0  0  0999 V2000
   21.1965   10.0882  -10.2156 C   0  0  0  0  0  0  0  0  0  0  0  0
   19.4994   10.9206   -9.8880 C   0  0  0  0  0  0  0  0  0  0  0  0
   20.8907   12.5656   -9.7823 C   0  0  0  0  0  0  0  0  0  0  0  0
   23.5303    8.4271  -15.1823 C   0  0  0  0  0  0  0  0  0  0  0  0
   20.5277   11.2113   -8.6116 C   0  0  0  0  0  0  0  0  0  0  0  0
   20.1620   10.9988  -11.4674 C   0  0  0  0  0  0  0  0  0  0  0  0
   23.9941    6.3390  -15.0335 C   0  0  0  0  0  0  0  0  0  0  0  0
   20.7253   13.7172  -11.1079 C   0  0  0  0  0  0  0  0  0  0  0  0
   20.8683   12.5181  -12.6339 C   0  0  0  0  0  0  0  0  0  0  0  0
   21.2338   13.2261   -8.9437 C   0  0  0  0  0  0  0  0  0  0  0  0
   22.7694   11.1460  -13.5712 C   0  0  0  0  0  0  0  0  0  0  0  0
   23.1672   13.0165  -11.8680 O   0  0  0  0  0  0  0  0  0  0  0  0
   25.7869    6.4239  -15.5186 C   0  0  0  0  0  0  0  0  0  0  0  0
   28.1240    5.5063  -16.2126 O   0  0  0  0  0  0  0  0  0  0  0  0
   25.2226    7.3559  -15.9498 C   0  0  0  0  0  0  0  0  0  0  0  0
   21.7763   13.7841   -8.2865 O   0  0  0  0  0  0  0  0  0  0  0  0
   24.0642   10.4734  -14.7822 C   0  0  0  0  0  0  0  0  0  0  0  0
   25.0530    9.0812  -15.2457 C   0  0  0  0  0  0  0  0  0  0  0  0
   26.3286    5.7812  -15.3348 N   0  0  0  0  0  0  0  0  0  0  0  0
   22.2669   12.8485  -12.1246 C   0  0  0  0  0  0  0  0  0  0  0  0
   19.4381   12.5073  -11.2475 C   0  0  0  0  0  0  0  0  0  0  0  0
   21.8647   10.9781  -12.1230 C   0  0  0  0  0  0  0  0  0  0  0  0
   22.4660    8.7987  -11.9898 C   0  0  0  0  0  0  0  0  0  0  0  0
   21.1025    9.2749  -12.1139 C   0  0  0  0  0  0  0  0  0  0  0  0
   27.3459    4.9442  -15.9939 C   0  0  0  0  0  0  0  0  0  0  0  0
   23.3456    7.3104  -13.8547 C   0  0  0  0  0  0  0  0  0  0  0  0
   23.4667    9.6323  -13.5092 C   0  0  0  0  0  0  0  0  0  0  0  0
   21.9653    7.9805  -14.2117 C   0  0  0  0  0  0  0  0  0  0  0  0
   21.5186    9.5373  -13.9868 C   0  0  0  0  0  0  0  0  0  0  0  0
  2  1  1  0
  5  2  1  0
  5  3  1  0
  6  1  1  0
  6  2  1  0
  8  3  1  0
  9  8  1  0
 10  3  1  0
 15  7  1  0
 15 13  1  0
 16 10  1  0
 17 11  1  0
 18  4  1  0
 18 15  1  0
 18 17  1  0
 19 13  1  0
 20  9  1  0
 20 12  1  0
 21  6  1  0
 21  8  1  0
 22  6  1  0
 22  9  1  0
 22 11  1  0
 24 22  1  0
 24 23  1  0
 25 14  1  0
 25 19  1  0
 26  4  1  0
 26  7  1  0
 27 11  1  0
 27 17  1  0
 28  4  1  0
 28 26  1  0
 29 24  1  0
 29 28  1  0
M  END
>  <ID>  (1) 
conformer_0

$$$$
