
     RDKit          3D

 25 26  0  0  0  0  0  0  0  0999 V2000
   36.3626    4.5887   -4.8925 C   0  0  0  0  0  0  0  0  0  0  0  0
   37.7126    3.5301   -5.3019 C   0  0  0  0  0  0  0  0  0  0  0  0
   37.5750    5.4844   -4.1109 C   0  0  0  0  0  0  0  0  0  0  0  0
   34.3005    4.5471   -4.7614 C   0  0  0  0  0  0  0  0  0  0  0  0
   31.3735    4.4858   -7.3704 C   0  0  0  0  0  0  0  0  0  0  0  0
   33.0102    4.7740   -5.4476 C   0  0  0  0  0  0  0  0  0  0  0  0
   27.9505    2.4387   -9.0249 C   0  0  0  0  0  0  0  0  0  0  0  0
   38.7716    4.9970   -3.8462 C   0  0  0  0  0  0  0  0  0  0  0  0
   30.7997    1.5741   -3.9387 C   0  0  0  0  0  0  0  0  0  0  0  0
   29.3400    1.3072   -4.2816 C   0  0  0  0  0  0  0  0  0  0  0  0
   26.7664    1.8753   -9.9826 C   0  0  0  0  0  0  0  0  0  0  0  0
   30.1570    2.4102   -6.1655 N   0  0  0  0  0  0  0  0  0  0  0  0
   31.9189    1.5138   -6.2444 O   0  0  0  0  0  0  0  0  0  0  0  0
   28.5222    1.4121   -3.4873 O   0  0  0  0  0  0  0  0  0  0  0  0
   27.2647    1.6527   -7.7564 O   0  0  0  0  0  0  0  0  0  0  0  0
   35.8170    4.3212   -5.8380 C   0  0  0  0  0  0  0  0  0  0  0  0
   29.4301    3.2932  -10.9599 O   0  0  0  0  0  1  0  0  0  0  0  0
   30.5248    1.7245   -9.8205 O   0  0  0  0  0  0  0  0  0  0  0  0
   29.9661    3.2526   -8.2743 C   0  0  0  0  0  0  0  0  0  0  0  0
   29.8784    2.6307   -9.6564 P   0  0  0  0  0  4  0  0  0  0  0  0
   27.6165    1.1052   -4.7638 O   0  0  0  0  0  0  0  0  0  0  0  0
   38.7703    3.6682   -4.4619 C   0  0  0  0  0  0  0  0  0  0  0  0
   31.0956    2.2167   -6.1477 C   0  0  0  0  0  0  0  0  0  0  0  0
   33.3912    4.7378   -6.8467 C   0  0  0  0  0  0  0  0  0  0  0  0
   34.7328    4.6391   -7.1467 C   0  0  0  0  0  0  0  0  0  0  0  0
  2  1  2  0
  3  1  1  0
  6  4  2  0
  8  3  1  0
 10  9  1  0
 11  7  1  0
 14 10  1  0
 15  7  1  0
 16  1  1  0
 16  4  1  0
 19  5  1  0
 19  7  1  0
 20 17  1  0
 20 18  1  0
 20 19  1  0
 21 14  1  0
 22  2  1  0
 22  8  2  0
 23  5  1  0
 23  9  1  0
 23 12  1  0
 23 13  1  0
 24  5  1  0
 24  6  1  0
 25 16  1  0
 25 24  2  0
M  RAD  2  17   2  20   2
M  END
>  <ID>  (1) 
conformer_0

$$$$
