
     RDKit          3D

 22 21  0  0  0  0  0  0  0  0999 V2000
   33.3022    4.7781   -6.6178 C   0  0  0  0  0  0  0  0  0  0  0  0
   36.1732    4.6868   -4.8601 C   0  0  0  0  0  0  0  0  0  0  0  0
   37.9380    3.6179   -5.0319 C   0  0  0  0  0  0  0  0  0  0  0  0
   37.7055    5.4881   -3.9341 C   0  0  0  0  0  0  0  0  0  0  0  0
   31.4208    4.7355   -7.4087 C   0  0  1  0  0  0  0  0  0  0  0  0
   30.0044    3.3653   -8.3031 C   0  0  1  0  0  0  0  0  0  0  0  0
   38.5796    4.4359   -4.1965 C   0  0  0  0  0  0  0  0  0  0  0  0
   29.1320    1.2592   -4.5637 C   0  0  0  0  0  0  0  0  0  0  0  0
   33.8328    4.7998   -5.2611 C   0  0  0  0  0  0  0  0  0  0  0  0
   28.2139    1.7919   -3.7855 O   0  0  0  0  0  0  0  0  0  0  0  0
   30.8497    1.6125   -3.7450 C   0  0  0  0  0  0  0  0  0  0  0  0
   30.3952    2.3160   -6.1320 N   0  0  0  0  0  0  0  0  0  0  0  0
   29.4665    3.2815  -10.7443 O   0  0  0  0  0  1  0  0  0  0  0  0
   30.2892    1.5326   -9.9688 O   0  0  0  0  0  0  0  0  0  0  0  0
   32.1808    1.6084   -6.5731 O   0  0  0  0  0  0  0  0  0  0  0  0
   31.1496    2.0868   -5.8948 C   0  0  1  0  0  0  0  0  0  0  0  0
   35.9472    4.2619   -5.6769 C   0  0  0  0  0  0  0  0  0  0  0  0
   34.5263    4.5557   -7.1754 C   0  0  0  0  0  0  0  0  0  0  0  0
   28.0934    2.1613   -8.7457 C   0  0  2  0  0  0  0  0  0  0  0  0
   26.6373    1.5997  -10.1657 C   0  0  0  0  0  0  0  0  0  0  0  0
   29.7348    2.4186   -9.7306 P   0  0  1  0  0  4  0  0  0  0  0  0
   28.2776    2.0997   -7.4846 N   0  0  0  0  0  0  0  0  0  0  0  0
  4  2  1  0
  5  1  1  6
  6  5  1  0
  7  3  2  3
  7  4  1  0
  9  1  1  0
 10  8  1  0
 11  8  1  0
 16  5  1  0
 16 11  1  0
 16 12  1  6
 16 15  1  0
 17  2  1  0
 18  1  2  3
 18 17  1  0
  6 19  1  6
 19 20  1  1
 21  6  1  0
 21 13  1  6
 21 14  1  0
 22 19  1  0
M  RAD  2  13   2  21   2
M  END
>  <ID>  (1) 
conformer_0

$$$$
