
     RDKit          3D

 28 29  0  0  0  0  0  0  0  0999 V2000
   37.1051    3.7967   -5.4405 C   0  0  0  0  0  0  0  0  0  0  0  0
   35.8533    4.5629   -5.1602 C   0  0  0  0  0  0  0  0  0  0  0  0
   32.9012    4.9555   -6.6936 C   0  0  0  0  0  0  0  0  0  0  0  0
   38.3661    3.5376   -4.9101 C   0  0  0  0  0  0  0  0  0  0  0  0
   32.9221    5.1047   -5.3230 C   0  0  0  0  0  0  0  0  0  0  0  0
   31.6475    5.6691   -6.7356 C   0  0  0  0  0  0  0  0  0  0  0  0
   29.3015    1.4374   -4.2843 C   0  0  0  0  0  0  0  0  0  0  0  0
   37.0549    5.4561   -4.3661 C   0  0  0  0  0  3  0  0  0  0  0  0
   38.2738    5.7430   -3.9222 C   0  0  0  0  0  0  0  0  0  0  0  0
   27.9280    2.0822   -9.7225 C   0  0  0  0  0  0  0  0  0  0  0  0
   30.3873    2.4871   -6.2104 N   0  0  0  0  0  0  0  0  0  0  0  0
   31.2519    2.2081   -9.0800 O   0  0  0  0  0  0  0  0  0  0  0  0
   26.6127    1.7812  -10.0569 C   0  0  0  0  0  0  0  0  0  0  0  0
   32.2546    1.4691   -6.2382 O   0  0  0  0  0  0  0  0  0  0  0  0
   29.4766    3.2218  -10.6786 O   0  0  0  0  0  0  0  0  0  0  0  0
   27.9297    1.2946   -4.3807 O   0  0  0  0  0  0  0  0  0  0  0  0
   31.1006    1.9841   -5.7684 C   0  0  0  0  0  0  0  0  0  0  0  0
   29.8032    2.4998   -9.5334 P   0  0  0  0  0  0  0  0  0  0  0  0
   34.2321    4.6752   -4.8276 C   0  0  0  0  0  0  0  0  0  0  0  0
   30.8329    1.7402   -4.0300 C   0  0  0  0  0  0  0  0  0  0  0  0
   29.8256    3.2822   -8.2805 C   0  0  0  0  0  0  0  0  0  0  0  0
   28.6942    1.4528   -3.5224 O   0  0  0  0  0  0  0  0  0  0  0  0
   28.3269    1.8624   -8.0976 O   0  0  0  0  0  0  0  0  0  0  0  0
   35.2057    4.4462   -6.5518 C   0  0  0  0  0  0  0  0  0  0  0  0
   34.0935    4.6671   -7.3972 C   0  0  0  0  0  0  0  0  0  0  0  0
   29.9131    1.1477  -10.1395 O   0  0  0  0  0  0  0  0  0  0  0  0
   38.9615    4.4949   -4.0126 C   0  0  0  0  0  0  0  0  0  0  0  0
   31.0718    4.4977   -7.6491 C   0  0  0  0  0  0  0  0  0  0  0  0
  2  1  1  0
  4  1  1  0
  5  3  2  0
  6  3  1  0
  8  2  1  0
  9  8  2  0
 13 10  1  0
 15 10  1  0
 17 11  1  0
 17 14  1  0
 18 12  1  0
 19  2  1  0
 19  5  1  0
 20  7  1  0
 20 17  1  0
 21 10  1  0
 21 17  1  0
 21 18  1  0
 22  7  1  0
 22 16  1  0
 23 10  1  0
 24  2  1  0
 25  3  1  0
 25 24  1  0
 26 18  1  0
 27  4  2  0
 27  9  1  0
 28  6  1  0
 28 21  1  0
M  RAD  1   8   2
M  END
>  <ID>  (1) 
conformer_0

$$$$
