
     RDKit          3D

 25 26  0  0  0  0  0  0  0  0999 V2000
   37.3045    5.4845   -4.2514 C   0  0  0  0  0  0  0  0  0  0  0  0
   38.9473    4.0961   -4.1754 C   0  0  0  0  0  0  0  0  0  0  0  0
   33.9033    4.5569   -7.3207 C   0  0  0  0  0  0  0  0  0  0  0  0
   35.1960    4.2550   -6.9445 C   0  0  0  0  0  0  0  0  0  0  0  0
   30.8725    4.1633   -7.8822 C   0  0  0  0  0  0  0  0  0  0  0  0
   38.5405    5.4970   -3.8639 C   0  0  0  0  0  0  0  0  0  0  0  0
   30.0819    3.3921   -8.5338 C   0  0  0  0  0  0  0  0  0  0  0  0
   29.1036    1.5318   -4.4217 C   0  0  0  0  0  0  0  0  0  0  0  0
   26.3121    1.7559   -9.9503 C   0  0  0  0  0  0  0  0  0  0  0  0
   36.6937    4.0727   -5.4254 C   0  0  0  0  0  0  0  0  0  0  0  0
   33.0470    4.9814   -6.2104 C   0  0  0  0  0  0  0  0  0  0  0  0
   28.2978    1.3680   -3.0650 O   0  0  0  0  0  0  0  0  0  0  0  0
   30.1987    2.5956   -6.1998 N   0  0  0  0  0  0  0  0  0  0  0  0
   29.1350    3.1569  -10.6012 O   0  0  0  0  0  0  0  0  0  0  0  0
   31.9719    1.5994   -6.4728 O   0  0  0  0  0  0  0  0  0  0  0  0
   27.4856    2.0300   -9.1069 C   0  0  0  0  0  0  0  0  0  0  0  0
   27.2299    0.9454   -4.9429 O   0  0  0  0  0  0  0  0  0  0  0  0
   30.5328    1.8625   -4.1307 C   0  0  0  0  0  0  0  0  0  0  0  0
   30.5002    2.0427   -9.8001 O   0  0  0  0  0  0  0  0  0  0  0  0
   35.5836    4.5761   -5.2334 C   0  0  0  0  0  0  0  0  0  0  0  0
   31.1304    2.4371   -6.4914 C   0  0  0  0  0  0  0  0  0  0  0  0
   33.8128    5.0172   -5.0863 C   0  0  0  0  0  0  0  0  0  0  0  0
   29.5690    2.4785   -9.6327 P   0  0  0  0  0  0  0  0  0  0  0  0
   38.0786    3.4163   -5.0577 C   0  0  0  0  0  0  0  0  0  0  0  0
   31.9251    4.8672   -7.2492 C   0  0  0  0  0  0  0  0  0  0  0  0
  4  3  2  0
  6  1  2  0
  6  2  1  0
  7  5  1  0
 10  1  1  0
 11  3  1  0
 12  8  2  0
 16  7  1  0
 16  9  1  0
 17  8  1  0
 18  8  1  0
 20  4  1  0
 20 10  1  0
 21  5  1  0
 21 13  1  0
 21 15  1  0
 21 18  1  0
 22 11  1  0
 22 20  2  0
 23  7  1  0
 23 14  1  0
 23 19  1  0
 24  2  2  0
 24 10  1  0
 25  5  1  0
 25 11  1  0
M  END
>  <ID>  (1) 
conformer_0

$$$$
