
     RDKit          3D

 28 29  0  0  0  0  0  0  0  0999 V2000
   35.5207    4.3554   -6.6022 C   0  0  0  0  0  0  0  0  0  0  0  0
   31.0026    4.1759   -7.6304 C   0  0  1  0  0  0  0  0  0  0  0  0
   37.4058    3.8206   -5.4524 C   0  0  0  0  0  0  0  0  0  0  0  0
   33.1208    4.8959   -5.5326 C   0  0  0  0  0  0  0  0  0  0  0  0
   34.3363    4.6183   -4.9809 C   0  0  0  0  0  0  0  0  0  0  0  0
   36.0812    4.5626   -5.2858 C   0  0  2  0  0  0  0  0  0  0  0  0
   28.5415    1.1334   -3.8360 C   0  0  0  0  0  0  0  0  0  0  0  0
   28.0272    2.1097   -8.7151 C   0  0  2  0  0  0  0  0  0  0  0  0
   38.3179    5.8330   -3.8702 C   0  0  0  0  0  0  0  0  0  0  0  0
   39.0451    4.6064   -3.9501 C   0  0  0  0  0  0  0  0  0  0  0  0
   26.8067    2.0911   -9.5791 C   0  0  0  0  0  0  0  0  0  0  0  0
   29.6418    0.8989  -10.4765 O   0  0  0  0  0  0  0  0  0  0  0  0
   29.5831    3.2785  -10.5341 O   0  0  0  0  0  0  0  0  0  0  0  0
   27.5129    1.2729   -4.0862 O   0  0  0  0  0  0  0  0  0  0  0  0
   30.1665    1.4976   -4.6555 C   0  0  0  0  0  0  0  0  0  0  0  0
   31.9056    1.5342   -6.2012 O   0  0  0  0  0  0  0  0  0  0  0  0
   27.6948    1.4751   -7.0667 O   0  0  0  0  0  0  0  0  0  0  0  0
   30.0532    2.3323   -6.1850 N   0  0  0  0  0  0  0  0  0  0  0  0
   29.8797    2.3291   -9.6512 P   0  0  0  0  0  0  0  0  0  0  0  0
   37.1297    5.4363   -4.3456 C   0  0  0  0  0  3  0  0  0  0  0  0
   30.6915    1.3501   -3.8033 C   0  0  0  0  0  0  0  0  0  0  0  0
   29.8912    3.1801   -8.2233 C   0  0  1  0  0  0  0  0  0  0  0  0
   31.6091    5.1629   -7.4415 C   0  0  0  0  0  0  0  0  0  0  0  0
   34.4875    4.5689   -7.4889 C   0  0  0  0  0  0  0  0  0  0  0  0
   33.2622    4.7379   -6.9562 C   0  0  0  0  0  0  0  0  0  0  0  0
   30.9217    1.8166   -9.3881 O   0  0  0  0  0  0  0  0  0  0  0  0
   31.2121    2.2859   -6.4225 C   0  0  0  0  0  0  0  0  0  0  0  0
   38.5458    3.5412   -4.7917 C   0  0  0  0  0  0  0  0  0  0  0  0
  5  4  1  0
  6  1  1  6
  6  3  1  0
  6  5  1  0
 10  9  1  0
  8 11  1  1
 14  7  1  0
 15  7  1  0
 17  8  1  0
 18 15  1  0
 19 12  1  0
 19 13  1  0
 20  6  1  0
 20  9  2  0
 21 15  2  3
 22  2  1  0
 22  8  1  0
 22 13  1  6
  2 23  1  1
 24  1  1  0
 25  4  1  0
 25 23  1  0
 25 24  2  0
 26 19  1  0
 27  2  1  0
 27 16  2  0
 27 18  1  0
 28  3  1  0
 28 10  2  0
M  RAD  1  20   2
M  END
>  <ID>  (1) 
conformer_0

$$$$
