
     RDKit          3D

 25 26  0  0  0  0  0  0  0  0999 V2000
   37.6108    3.3975   -5.4001 C   0  0  0  0  0  0  0  0  0  0  0  0
   33.0376    4.8217   -5.4640 C   0  0  0  0  0  0  0  0  0  0  0  0
   38.7024    4.9183   -3.9568 C   0  0  0  0  0  0  0  0  0  0  0  0
   37.5976    5.6112   -4.1532 C   0  0  0  0  0  0  0  0  0  0  0  0
   31.7098    5.1822   -6.7713 C   0  0  0  0  0  0  0  0  0  0  0  0
   36.3899    4.7735   -4.8591 C   0  0  0  0  0  0  0  0  0  0  0  0
   28.7995    1.1928   -4.1697 C   0  0  0  0  0  0  0  0  0  0  0  0
   33.4752    4.7470   -6.8246 C   0  0  0  0  0  0  0  0  0  0  0  0
   30.7202    1.6309   -3.8612 C   0  0  0  0  0  0  0  0  0  0  0  0
   27.8514    1.6037   -3.7877 O   0  0  0  0  0  0  0  0  0  0  0  0
   28.1041    2.3423   -9.5211 C   0  0  0  0  0  0  0  0  0  0  0  0
   26.8380    2.0001   -9.7700 C   0  0  0  0  0  0  0  0  0  0  0  0
   32.1222    1.6465   -6.5435 O   0  0  0  0  0  0  0  0  0  0  0  0
   38.7037    3.6323   -4.5720 C   0  0  0  0  0  0  0  0  0  0  0  0
   29.8690    2.2167   -6.3671 N   0  0  0  0  0  0  0  0  0  0  0  0
   30.2263    1.4671   -9.8205 O   0  0  0  0  0  0  0  0  0  0  0  0
   29.5531    3.1712  -11.0286 O   0  0  0  0  0  0  0  0  0  0  0  0
   30.1586    1.5660   -5.3099 C   0  0  0  0  0  0  0  0  0  0  0  0
   35.9734    4.1527   -5.7376 C   0  0  0  0  0  0  0  0  0  0  0  0
   34.8464    4.4870   -6.9035 C   0  0  0  0  0  0  0  0  0  0  0  0
   29.6723    2.4747   -9.6026 P   0  0  0  0  0  0  0  0  0  0  0  0
   30.9318    4.4272   -7.7481 C   0  0  0  0  0  0  0  0  0  0  0  0
   29.8324    3.1383   -8.3940 C   0  0  0  0  0  0  0  0  0  0  0  0
   31.3958    2.4364   -6.5310 C   0  0  0  0  0  0  0  0  0  0  0  0
   34.3320    4.6226   -4.7510 C   0  0  0  0  0  0  0  0  0  0  0  0
  4  3  2  0
  5  2  1  0
  6  4  1  0
  8  2  2  0
  8  5  1  0
 10  7  2  0
 12 11  1  0
 14  1  2  0
 14  3  1  0
 17 11  1  0
 18  7  1  0
 18  9  1  0
 18 15  1  0
 19  1  1  0
 19  6  2  0
 20  8  1  0
 20 19  1  0
 21 11  1  0
 21 16  1  0
 22  5  1  0
 23 21  1  0
 23 22  1  0
 24 13  2  0
 24 15  1  0
 24 22  1  0
 25  2  1  0
M  END
>  <ID>  (1) 
conformer_0

$$$$
