
     RDKit          3D

 24 25  0  0  0  0  0  0  0  0999 V2000
   36.2863    4.0458   -5.7939 C   0  0  0  0  0  0  0  0  0  0  0  0
   35.9209    4.5817   -5.0263 C   0  0  0  0  0  0  0  0  0  0  0  0
   33.0427    5.0820   -5.6087 C   0  0  0  0  0  0  0  0  0  0  0  0
   38.6887    3.6188   -4.6084 C   0  0  0  0  0  0  0  0  0  0  0  0
   31.8194    4.9230   -7.1521 C   0  0  0  0  0  0  0  0  0  0  0  0
   34.2037    4.8503   -4.7603 C   0  0  0  0  0  0  0  0  0  0  0  0
   29.3778    1.4120   -4.5690 C   0  0  0  0  0  0  0  0  0  0  0  0
   38.5045    4.8504   -3.9687 C   0  0  0  0  0  0  0  0  0  0  0  0
   28.1459    1.1066   -3.7477 O   0  0  0  0  0  0  0  0  0  0  0  0
   31.1442    2.2925   -5.9736 C   0  0  0  0  0  0  0  0  0  0  0  0
   31.0325    2.0709   -3.6336 C   0  0  0  0  0  0  0  0  0  0  0  0
   30.0734    1.5288  -10.1947 O   0  0  0  0  0  0  0  0  0  0  0  0
   37.6895    3.2745   -5.5138 C   0  0  0  0  0  0  0  0  0  0  0  0
   32.1493    1.7567   -6.6548 O   0  0  0  0  0  0  0  0  0  0  0  0
   26.5249    1.7299  -10.4173 C   0  0  0  0  0  0  0  0  0  0  0  0
   29.9800    2.3354   -5.9276 N   0  0  0  0  0  0  0  0  0  0  0  0
   29.6941    2.6272   -9.7737 P   0  0  0  0  0  0  0  0  0  0  0  0
   28.7980    3.3337  -11.0801 O   0  0  0  0  0  0  0  0  0  0  0  0
   33.5784    4.7876   -6.9547 C   0  0  0  0  0  0  0  0  0  0  0  0
   30.5594    3.1508   -8.0764 C   0  0  0  0  0  0  0  0  0  0  0  0
   28.1972    2.6534  -10.0168 C   0  0  0  0  0  0  0  0  0  0  0  0
   37.3050    5.3514   -4.2592 C   0  0  0  0  0  0  0  0  0  0  0  0
   34.8549    4.5234   -6.9276 C   0  0  0  0  0  0  0  0  0  0  0  0
   30.9040    3.9782   -7.8036 C   0  0  0  0  0  0  0  0  0  0  0  0
  2  1  2  0
  6  2  1  0
  6  3  2  0
  8  4  1  0
  9  7  2  0
 11  7  1  0
 13  1  1  0
 13  4  2  0
 14 10  1  0
 16  7  1  0
 16 10  1  0
 17 12  1  0
 18 17  1  0
 19  3  1  0
 19  5  1  0
 20 10  1  0
 21 15  1  0
 21 18  1  0
 21 20  1  0
 22  2  1  0
 22  8  2  0
 23  1  1  0
 23 19  2  0
 24  5  2  0
 24 20  2  0
M  END
>  <ID>  (1) 
conformer_0

$$$$
