
     RDKit          3D

 21 20  0  0  0  0  0  0  0  0999 V2000
   33.2611    4.8688   -6.5266 C   0  0  0  0  0  0  0  0  0  0  0  0
   36.6258    4.3687   -5.2679 C   0  0  0  0  0  0  0  0  0  0  0  0
   35.8124    4.4998   -5.3572 C   0  0  0  0  0  0  0  0  0  0  0  0
   37.8401    5.5640   -4.2245 C   0  0  0  0  0  0  0  0  0  0  0  0
   31.3909    4.8545   -7.3071 C   0  0  0  0  0  0  0  0  0  0  0  0
   26.6897    1.4305  -10.1166 C   0  0  0  0  0  0  0  0  0  0  0  0
   38.7056    4.6225   -4.0858 C   0  0  0  0  0  0  0  0  0  0  0  0
   30.1738    3.3339   -8.0397 C   0  0  1  0  0  0  0  0  0  0  0  0
   33.8069    4.9063   -5.1606 C   0  0  0  0  0  0  0  0  0  0  0  0
   31.1524    2.2875   -6.0480 C   0  0  0  0  0  0  0  0  0  0  0  0
   28.5931    1.1457   -3.0764 O   0  0  0  0  0  0  0  0  0  0  0  0
   38.2322    3.5139   -4.8461 C   0  0  0  0  0  0  0  0  0  0  0  0
   30.2357    2.7157   -6.0508 N   0  0  0  0  0  0  0  0  0  0  0  0
   27.9771    2.2048   -9.0284 C   0  0  0  0  0  0  0  0  0  0  0  0
   32.1614    1.6539   -6.2022 O   0  0  0  0  0  0  0  0  0  0  0  0
   30.2219    1.6169  -10.0990 O   0  0  0  0  0  0  0  0  0  0  0  0
   30.8037    1.6377   -3.7398 C   0  0  0  0  0  0  0  0  0  0  0  0
   29.8835    2.6502   -9.5297 P   0  0  2  0  0  4  0  0  0  0  0  0
   34.5758    4.5353   -6.9984 C   0  0  0  0  0  0  0  0  0  0  0  0
   29.6127    1.4755   -4.2378 C   0  0  0  0  0  0  0  0  0  0  0  0
   29.8668    3.5117  -10.2396 O   0  0  0  0  0  1  0  0  0  0  0  0
  3  2  2  0
  5  1  1  0
  7  4  2  3
  8  5  1  6
  9  1  1  0
 12  2  2  0
 12  7  1  0
 13  8  1  0
 13 10  1  0
 14  6  1  0
 14  8  1  0
 15 10  2  0
 17 10  1  0
 18  8  1  0
 18 16  1  6
 19  1  2  3
 19  3  1  0
 20 11  1  0
 20 17  1  0
 21 18  1  0
M  RAD  2  18   2  21   2
M  END
>  <ID>  (1) 
conformer_0

$$$$
