
     RDKit          3D

 28 30  0  0  0  0  0  0  0  0999 V2000
   36.1573    4.5172   -5.0431 C   0  0  0  0  0  0  0  0  0  0  0  0
   38.3411    5.6939   -3.8695 C   0  0  0  0  0  0  0  0  0  0  0  0
   37.2293    5.4376   -4.3659 C   0  0  0  0  0  3  0  0  0  0  0  0
   39.0558    4.4007   -3.7717 C   0  0  0  0  0  0  0  0  0  0  0  0
   31.9260    5.0877   -7.1939 C   0  0  0  0  0  0  0  0  0  0  0  0
   37.4250    3.6370   -5.2246 C   0  0  0  0  0  0  0  0  0  0  0  0
   29.2830    1.2966   -4.5122 C   0  0  0  0  0  0  0  0  0  0  0  0
   26.9567    1.6753   -8.3649 C   0  0  0  0  0  0  0  0  0  0  0  0
   28.5537    1.8709   -3.7123 O   0  0  0  0  0  0  0  0  0  0  0  0
   34.4124    4.5675   -4.8893 C   0  0  0  0  0  0  0  0  0  0  0  0
   33.1266    4.8515   -5.6653 C   0  0  0  0  0  0  0  0  0  0  0  0
   26.3457    1.4079   -9.7611 C   0  0  0  0  0  0  0  0  0  0  0  0
   30.1144    2.2292   -6.1461 N   0  0  0  0  0  0  0  0  0  0  0  0
   26.7733    1.8144   -7.6285 O   0  0  0  0  0  0  0  0  0  0  0  0
   29.5769    3.1816  -10.7857 O   0  0  0  0  0  1  0  0  0  0  0  0
   31.8379    1.2435   -6.0190 O   0  0  0  0  0  0  0  0  0  0  0  0
   30.4959    1.8377   -9.5126 O   0  0  0  0  0  0  0  0  0  0  0  0
   30.3030    3.2167   -8.1025 C   0  0  0  0  0  0  0  0  0  0  0  0
   35.5823    4.4186   -6.3260 C   0  0  0  0  0  0  0  0  0  0  0  0
   30.9777    1.6682   -3.8534 C   0  0  0  0  0  0  0  0  0  0  0  0
   31.1193    1.8015   -5.7000 C   0  0  0  0  0  0  0  0  0  0  0  0
   27.3796    0.7800   -5.4247 O   0  0  0  0  0  0  0  0  0  0  0  0
   29.8130    2.5863   -9.5378 P   0  0  0  0  0  4  0  0  0  0  0  0
   33.4172    4.8048   -7.0158 C   0  0  0  0  0  0  0  0  0  0  0  0
   34.6785    4.6488   -7.4768 C   0  0  0  0  0  0  0  0  0  0  0  0
   30.9493    4.0525   -7.9661 C   0  0  0  0  0  0  0  0  0  0  0  0
   28.4514    2.8434   -8.9751 C   0  0  0  0  0  0  0  0  0  0  0  0
   38.5754    3.3435   -4.5515 C   0  0  0  0  0  0  0  0  0  0  0  0
  3  1  1  0
  3  2  1  0
  4  2  2  0
  6  1  1  0
  9  7  2  0
 10  1  1  0
 11 10  2  0
 12  8  1  0
 14  8  2  0
 19  1  1  0
 19 10  1  0
 20  7  1  0
 21 13  1  0
 21 16  1  0
 21 18  1  0
 21 20  1  0
 22  7  1  0
 23 15  1  0
 23 17  1  0
 24  5  1  0
 24 11  1  0
 25 19  1  0
 25 24  2  0
 26  5  2  0
 26 18  2  0
 27  8  1  0
 27 18  1  0
 27 23  1  0
 28  4  1  0
 28  6  2  0
M  RAD  3   3   2  15   2  23   2
M  END
>  <ID>  (1) 
conformer_0

$$$$
