
     RDKit          3D

 27 30  0  0  0  0  0  0  0  0999 V2000
   34.3116    4.7249   -4.8393 C   0  0  0  0  0  0  0  0  0  0  0  0
   35.9581    4.5121   -5.3379 C   0  0  0  0  0  0  0  0  0  0  0  0
   38.6424    4.9334   -3.9679 C   0  0  0  0  0  0  0  0  0  0  0  0
   37.5899    5.3654   -4.3553 C   0  0  0  0  0  0  0  0  0  0  0  0
   30.9978    4.3384   -7.8532 C   0  0  1  0  0  0  0  0  0  0  0  0
   35.0852    4.5735   -7.0921 C   0  0  0  0  0  0  0  0  0  0  0  0
   33.2730    4.9114   -5.7624 C   0  0  1  0  0  0  0  0  0  0  0  0
   28.5404    1.2880   -4.5511 C   0  0  1  0  0  0  0  0  0  0  0  0
   26.4200    2.0165  -10.1118 C   0  0  0  0  0  0  0  0  0  0  0  0
   29.8940    3.8036   -8.5873 C   0  0  2  0  0  0  0  0  0  0  0  0
   27.6539    1.5065   -3.8028 O   0  0  0  0  0  0  0  0  0  0  0  0
   38.9081    3.5365   -4.3602 C   0  0  0  0  0  0  0  0  0  0  0  0
   29.9742    1.5995   -9.9234 O   0  0  0  0  0  0  0  0  0  0  0  0
   31.9190    1.5484   -5.8922 O   0  0  0  0  0  0  0  0  0  0  0  0
   30.8894    3.3084   -5.9057 N   0  0  0  0  0  0  0  0  0  0  0  0
   29.2120    3.3954  -10.8122 O   0  0  0  0  0  0  0  0  0  0  0  0
   33.7660    4.8058   -7.1407 C   0  0  0  0  0  0  0  0  0  0  0  0
   27.2447    1.7251   -8.8393 C   0  0  1  0  0  0  0  0  0  0  0  0
   27.7551    1.8818   -7.8441 O   0  0  0  0  0  0  0  0  0  0  0  0
   30.2681    1.7725   -4.8770 C   0  0  1  0  0  0  0  0  0  0  0  0
   30.1105    1.2677   -3.4602 C   0  0  0  0  0  0  0  0  0  0  0  0
   29.3754    2.5587   -9.5394 P   0  0  0  0  0  0  0  0  0  0  0  0
   36.7668    4.0134   -5.6569 C   0  0  0  0  0  0  0  0  0  0  0  0
   38.0865    3.0042   -5.2848 C   0  0  0  0  0  0  0  0  0  0  0  0
   31.9263    5.0894   -7.0756 C   0  0  1  0  0  0  0  0  0  0  0  0
   31.2280    2.9089   -6.5448 C   0  0  0  0  0  0  0  0  0  0  0  0
   29.2885    1.7904   -5.8736 N   0  0  0  0  0  0  0  0  0  0  0  0
  2  1  2  0
  4  3  2  3
  6  2  1  0
  7  1  1  1
 10  5  1  0
  8 11  1  1
 12  3  1  0
 17  6  2  0
 17  7  1  0
 18  9  1  1
 18 10  1  0
 19 18  1  0
 20  8  1  0
 20 15  1  1
 21  8  1  0
 21 20  1  0
 10 22  1  6
 22 13  1  0
 22 16  1  0
 23  2  1  0
 24 12  2  3
 24 23  1  0
 25  5  1  0
 25  7  1  0
 25 17  1  6
  5 26  1  1
 26 14  2  0
 26 15  1  0
 27  8  1  0
 27 20  1  0
M  END
>  <ID>  (1) 
conformer_0

$$$$
