
     RDKit          3D

 27 29  0  0  0  0  0  0  0  0999 V2000
   38.4835    3.3845   -4.9044 C   0  0  0  0  0  0  0  0  0  0  0  0
   37.3974    3.6563   -5.7306 C   0  0  0  0  0  0  0  0  0  0  0  0
   38.8522    4.3206   -3.9688 C   0  0  0  0  0  0  0  0  0  0  0  0
   34.4357    4.6847   -5.0725 C   0  0  0  0  0  0  0  0  0  0  0  0
   30.9686    3.9890   -7.7725 C   0  0  0  0  0  0  0  0  0  0  0  0
   33.0518    5.1167   -5.3994 C   0  0  0  0  0  0  0  0  0  0  0  0
   29.9822    3.1933   -8.0608 C   0  0  0  0  0  0  0  0  0  0  0  0
   36.8221    5.1560   -4.6353 C   0  0  0  0  0  0  0  0  0  0  0  0
   37.9680    5.5185   -3.9297 C   0  0  0  0  0  0  0  0  0  0  0  0
   30.9001    2.1692   -6.0916 C   0  0  0  0  0  0  0  0  0  0  0  0
   26.5756    2.1442  -10.0002 C   0  0  0  0  0  0  0  0  0  0  0  0
   28.0975    1.6199   -4.0745 O   0  0  0  0  0  0  0  0  0  0  0  0
   30.3438    2.5692   -5.6821 N   0  0  0  0  0  0  0  0  0  0  0  0
   29.2862    3.1440  -10.6695 O   0  0  0  0  0  0  0  0  0  0  0  0
   27.9901    2.1030   -9.0939 C   0  0  0  0  0  0  0  0  0  0  0  0
   31.9827    1.5880   -6.2936 O   0  0  0  0  0  0  0  0  0  0  0  0
   30.2246    1.1456   -3.5743 C   0  0  0  0  0  0  0  0  0  0  0  0
   30.6504    2.0113   -9.6557 O   0  0  0  0  0  0  0  0  0  0  0  0
   32.9967    4.8533   -6.7597 C   0  0  0  0  0  0  0  0  0  0  0  0
   29.6708    2.5010   -9.6965 P   0  0  0  0  0  0  0  0  0  0  0  0
   29.4145    1.4745   -4.3327 C   0  0  0  0  0  0  0  0  0  0  0  0
   27.8025    1.3764   -7.1141 O   0  0  0  0  0  0  0  0  0  0  0  0
   36.0942    4.4207   -5.6321 C   0  0  0  0  0  0  0  0  0  0  0  0
   34.1416    4.5554   -7.4688 C   0  0  0  0  0  0  0  0  0  0  0  0
   29.1249    2.4275   -7.5441 N   0  0  0  0  0  0  0  0  0  0  0  0
   31.7149    5.0862   -7.3539 C   0  0  0  0  0  0  0  0  0  0  0  0
   35.3578    4.4034   -6.9288 C   0  0  0  0  0  3  0  0  0  0  0  0
  2  1  2  0
  3  1  1  0
  6  4  2  0
  7  5  1  0
  8  2  1  0
  9  3  1  0
  9  8  2  0
 10  7  1  0
 13 10  1  0
 15 11  1  0
 16 10  2  0
 19  6  1  0
 20  7  1  0
 20 14  1  0
 20 18  1  0
 21 12  2  0
 21 13  1  0
 21 17  1  0
 22 15  1  0
 23  2  1  0
 23  4  1  0
 23  8  1  0
 24 19  2  0
 25  7  1  0
 25 22  1  0
 26  5  1  0
 26 19  1  0
 27 23  1  0
 27 24  1  0
M  RAD  1  27   2
M  END
>  <ID>  (1) 
conformer_0

$$$$
