
     RDKit          3D

 25 25  0  0  0  0  0  0  0  0999 V2000
   36.1308    4.6060   -5.1188 C   0  0  0  0  0  0  0  0  0  0  0  0
   37.4153    5.4404   -4.2558 C   0  0  0  0  0  0  0  0  0  0  0  0
   33.7600    4.8363   -5.1159 C   0  0  0  0  0  0  0  0  0  0  0  0
   31.8574    5.0379   -7.0622 C   0  0  0  0  0  0  0  0  0  0  0  0
   38.5471    4.7731   -3.9525 C   0  0  0  0  0  0  0  0  0  0  0  0
   35.6475    4.3260   -5.9340 C   0  0  0  0  0  0  0  0  0  0  0  0
   28.2466    2.6290   -9.1537 C   0  0  0  0  0  0  0  0  0  0  0  0
   29.1389    1.3266   -4.7410 C   0  0  0  0  0  0  0  0  0  0  0  0
   33.1376    4.7986   -6.4201 C   0  0  0  0  0  0  0  0  0  0  0  0
   28.1438    0.1753   -3.6799 C   0  0  0  0  0  0  0  0  0  0  0  0
   29.9351    2.2540   -6.2244 N   0  0  0  0  0  0  0  0  0  0  0  0
   26.6688    2.1608  -10.1322 C   0  0  0  0  0  0  0  0  0  0  0  0
   28.9955    3.3414  -11.0389 O   0  0  0  0  0  0  0  0  0  0  0  0
   38.5283    3.5188   -4.6889 C   0  0  0  0  0  0  0  0  0  0  0  0
   27.4955    2.3078   -7.6821 O   0  0  0  0  0  0  0  0  0  0  0  0
   31.9115    1.5611   -6.6094 O   0  0  0  0  0  0  0  0  0  0  0  0
   30.9184    2.2477   -6.4175 C   0  0  1  0  0  0  0  0  0  0  0  0
   30.6159    2.0994   -9.8083 O   0  0  0  0  0  0  0  0  0  0  0  0
   34.2602    4.4996   -7.1618 C   0  0  0  0  0  0  0  0  0  0  0  0
   28.4505    2.0904   -4.2773 O   0  0  0  0  0  0  0  0  0  0  0  0
   30.0119    2.7204   -9.4073 P   0  0  0  0  0  0  0  0  0  0  0  0
   37.4005    3.4209   -5.4543 C   0  0  0  0  0  0  0  0  0  0  0  0
   31.1383    3.9936   -7.8439 C   0  0  0  0  0  0  0  0  0  0  0  0
   29.9855    3.2210   -8.2060 C   0  0  2  0  0  0  0  0  0  0  0  0
   30.0399    0.9576   -3.7980 C   0  0  0  0  0  0  0  0  0  0  0  0
  2  1  2  0
  5  2  1  0
  6  1  1  0
  9  3  1  0
  9  4  1  0
 10  8  1  0
 11  8  1  0
 12  7  1  0
 13  7  1  0
 14  5  2  0
 15  7  1  0
 17 11  1  0
 17 16  1  6
 19  6  1  0
 19  9  2  3
 20  8  1  0
 21  7  1  0
 21 18  1  0
 22  1  1  0
 22 14  1  0
 23  4  1  0
 24 17  1  0
 24 21  1  0
 24 23  1  6
 25  8  1  0
M  END
>  <ID>  (1) 
conformer_0

$$$$
