
     RDKit          3D

 25 26  0  0  0  0  0  0  0  0999 V2000
   38.6167    3.2303   -4.8016 C   0  0  0  0  0  0  0  0  0  0  0  0
   33.9933    4.7120   -7.2554 C   0  0  0  0  0  0  0  0  0  0  0  0
   33.3292    4.9027   -5.0680 C   0  0  0  0  0  0  0  0  0  0  0  0
   30.6666    4.2528   -7.8891 C   0  0  0  0  0  0  0  0  0  0  0  0
   35.2815    4.3606   -6.7282 C   0  0  0  0  0  0  0  0  0  0  0  0
   26.7482    1.5632  -10.3444 C   0  0  0  0  0  0  0  0  0  0  0  0
   32.9359    4.6802   -6.4051 C   0  0  0  0  0  0  0  0  0  0  0  0
   31.1336    2.1493   -5.8074 C   0  0  2  0  0  0  0  0  0  0  0  0
   34.6577    4.4841   -4.7621 C   0  0  0  0  0  0  0  0  0  0  0  0
   36.0632    4.2702   -5.3681 C   0  0  1  0  0  0  0  0  0  0  0  0
   29.3234    1.3075   -4.2435 C   0  0  0  0  0  0  0  0  0  0  0  0
   27.9864    0.9981   -3.8359 O   0  0  0  0  0  0  0  0  0  0  0  0
   32.0624    1.5752   -6.3028 O   0  0  0  0  0  0  0  0  0  0  0  0
   29.0814    3.2276  -11.1414 O   0  0  0  0  0  0  0  0  0  0  0  0
   30.4197    1.7151   -9.7029 O   0  0  0  0  0  0  0  0  0  0  0  0
   30.2004    2.4953   -5.7956 N   0  0  0  0  0  0  0  0  0  0  0  0
   29.7918    2.6403   -9.5297 P   0  0  0  0  0  0  0  0  0  0  0  0
   30.6795    1.5862   -3.6414 C   0  0  0  0  0  0  0  0  0  0  0  0
   37.4731    3.5582   -5.4754 C   0  0  0  0  0  0  0  0  0  0  0  0
   30.6282    3.3088   -7.9246 C   0  0  1  0  0  0  0  0  0  0  0  0
   28.1006    2.5618   -9.8687 C   0  0  2  0  0  0  0  0  0  0  0  0
   39.0585    4.2855   -3.8976 C   0  0  0  0  0  0  0  0  0  0  0  0
   31.6292    5.0192   -7.1585 C   0  0  0  0  0  0  0  0  0  0  0  0
   37.0171    5.2047   -4.4725 C   0  0  0  0  0  3  0  0  0  0  0  0
   38.2288    5.4678   -3.8771 C   0  0  0  0  0  0  0  0  0  0  0  0
  5  2  1  0
  7  2  2  0
  7  3  1  0
  9  3  2  0
 10  5  1  6
 10  9  1  0
 12 11  2  0
  8 13  1  6
 16  8  1  0
 16 11  1  0
 17 15  1  0
 18 11  1  0
 19  1  2  0
 19 10  1  0
 20  4  1  0
 20  8  1  0
 20 17  1  1
 21  6  1  6
 21 14  1  0
 21 17  1  0
 22  1  1  0
 23  4  2  3
 23  7  1  0
 24 10  1  0
 25 22  2  0
 25 24  1  0
M  RAD  1  24   2
M  END
>  <ID>  (1) 
conformer_0

$$$$
