
     RDKit          3D

 25 27  0  0  0  0  0  0  0  0999 V2000
   33.2027    4.6676   -5.4143 C   0  0  0  0  0  0  0  0  0  0  0  0
   37.2546    3.8114   -5.2482 C   0  0  0  0  0  0  0  0  0  0  0  0
   36.9786    5.2445   -4.2296 C   0  0  0  0  0  0  0  0  0  0  0  0
   35.8681    4.3400   -5.2654 C   0  0  0  0  0  0  0  0  0  0  0  0
   38.2914    5.6527   -3.7657 C   0  0  0  0  0  0  0  0  0  0  0  0
   29.2157    1.2463   -4.3666 C   0  0  0  0  0  0  0  0  0  0  0  0
   30.2243    3.4211   -8.3879 C   0  0  0  0  0  0  0  0  0  0  0  0
   26.7782    1.8430  -10.1322 C   0  0  0  0  0  0  0  0  0  0  0  0
   31.4396    4.7127   -7.3909 C   0  0  0  0  0  0  0  0  0  0  0  0
   39.0558    4.4102   -3.8596 C   0  0  0  0  0  0  0  0  0  0  0  0
   34.4203    4.4293   -4.8699 C   0  0  0  0  0  0  0  0  0  0  0  0
   30.2216    1.3474   -9.9227 O   0  0  0  0  0  0  0  0  0  0  0  0
   30.1078    2.5614   -6.1989 N   0  0  0  0  0  0  0  0  0  0  0  0
   31.7329    1.5240   -6.1273 O   0  0  0  0  0  0  0  0  0  0  0  0
   29.3912    3.1404  -10.8613 O   0  0  0  0  0  0  0  0  0  0  0  0
   38.4796    3.4343   -4.6906 C   0  0  0  0  0  0  0  0  0  0  0  0
   27.6504    1.5625   -7.4865 O   0  0  0  0  0  0  0  0  0  0  0  0
   31.1185    2.2966   -3.8110 C   0  0  0  0  0  0  0  0  0  0  0  0
   28.3056    2.3996   -9.0960 C   0  0  0  0  0  0  0  0  0  0  0  0
   28.2674    1.4104   -3.6794 O   0  0  0  0  0  0  0  0  0  0  0  0
   30.8194    2.0568   -5.7796 C   0  0  0  0  0  0  0  0  0  0  0  0
   29.7419    2.3134   -9.7272 P   0  0  0  0  0  0  0  0  0  0  0  0
   33.0375    4.7163   -6.7710 C   0  0  0  0  0  0  0  0  0  0  0  0
   34.3019    4.6567   -7.4632 C   0  0  0  0  0  0  0  0  0  0  0  0
   35.3529    4.3878   -6.7688 C   0  0  0  0  0  3  0  0  0  0  0  0
  3  2  2  0
  4  2  1  0
  4  3  1  0
  5  3  1  0
  9  7  1  0
 10  5  2  0
 11  1  2  0
 11  4  1  0
 16  2  1  0
 16 10  1  0
 18  6  1  0
 19  7  1  0
 19  8  1  0
 19 17  1  0
 20  6  2  0
 21  7  1  0
 21 13  1  0
 21 14  1  0
 21 18  1  0
 22 12  1  0
 22 15  1  0
 22 19  1  0
 23  1  1  0
 23  9  1  0
 24 23  2  0
 25  4  1  0
 25 24  1  0
M  RAD  1  25   2
M  END
>  <ID>  (1) 
conformer_0

$$$$
