
     RDKit          3D

 28 29  0  0  0  0  0  0  0  0999 V2000
   34.2687    4.7601   -5.0094 C   0  0  0  0  0  0  0  0  0  0  0  0
   33.5354    4.7662   -7.0916 C   0  0  0  0  0  0  0  0  0  0  0  0
   32.9786    5.0654   -5.7790 C   0  0  0  0  0  0  0  0  0  0  0  0
   37.6988    3.1589   -5.3522 C   0  0  0  0  0  0  0  0  0  0  0  0
   31.5900    5.3706   -6.9979 C   0  0  0  0  0  0  0  0  0  0  0  0
   26.8631    2.4811   -9.9514 C   0  0  0  0  0  0  0  0  0  0  0  0
   35.9671    4.0890   -5.7083 C   0  0  0  0  0  0  0  0  0  0  0  0
   38.7729    3.2986   -4.5200 C   0  0  0  0  0  0  0  0  0  0  0  0
   28.7219    1.4340   -4.6278 C   0  0  0  0  0  0  0  0  0  0  0  0
   30.7259    2.0880   -5.7877 C   0  0  0  0  0  0  0  0  0  0  0  0
   36.6066    4.5837   -4.9568 C   0  0  0  0  0  0  0  0  0  0  0  0
   29.9618    1.3652  -10.1982 O   0  0  0  0  0  0  0  0  0  0  0  0
   30.5062    2.6351   -6.1712 N   0  0  0  0  0  0  0  0  0  0  0  0
   34.8741    4.4434   -7.0598 C   0  0  0  0  0  0  0  0  0  0  0  0
   29.9641    2.5264   -9.3169 P   0  0  0  0  0  0  0  0  0  0  0  0
   28.3052    2.2645   -8.8425 C   0  0  0  0  0  0  0  0  0  0  0  0
   27.8183    1.5923   -3.7987 O   0  0  0  0  0  0  0  0  0  0  0  0
   27.6610    0.7386   -5.1306 O   0  0  0  0  0  0  0  0  0  0  0  0
   29.6744    3.3916  -10.3347 O   0  0  0  0  0  0  0  0  0  0  0  0
   30.2272    1.8627   -4.4550 C   0  0  0  0  0  0  0  0  0  0  0  0
   31.9482    1.6328   -6.3850 O   0  0  0  0  0  0  0  0  0  0  0  0
   27.6276    1.6883   -7.1153 O   0  0  0  0  0  0  0  0  0  0  0  0
   30.5127    3.3216   -7.9175 C   0  0  0  0  0  0  0  0  0  0  0  0
   38.8231    4.5566   -3.8546 C   0  0  0  0  0  0  0  0  0  0  0  0
   37.7232    5.3752   -4.1122 C   0  0  0  0  0  0  0  0  0  0  0  0
   26.8277    1.0086   -9.6513 C   0  0  0  0  0  0  0  0  0  0  0  0
   31.4215    2.1262   -9.0788 O   0  0  0  0  0  0  0  0  0  0  0  0
   31.0651    4.2921   -7.7787 C   0  0  0  0  0  0  0  0  0  0  0  0
  3  1  2  0
  3  2  1  0
  5  3  1  0
  7  1  1  0
  8  4  2  0
 11  4  1  0
 11  7  1  0
 13 10  1  0
 14  2  2  0
 14  7  1  0
 15 12  1  0
 16  6  1  0
 17  9  1  0
 18  9  1  0
 19 15  1  0
 19 16  1  0
 20  9  1  0
 20 10  1  0
 21 10  2  0
 22  9  1  0
 22 16  1  0
 23 16  1  0
 24  8  1  0
 25 11  1  0
 25 24  2  0
 26  6  1  0
 27 15  1  0
 28  5  1  0
 28 23  1  0
M  END
>  <ID>  (1) 
conformer_0

$$$$
