
     RDKit          3D

 30 32  0  0  0  0  0  0  0  0999 V2000
   34.3166    4.7678   -4.7153 C   0  0  0  0  0  0  0  0  0  0  0  0
   37.1323    5.2837   -4.3116 C   0  0  0  0  0  0  0  0  0  0  0  0
   38.3893    5.1706   -3.7944 C   0  0  0  0  0  0  0  0  0  0  0  0
   38.3443    3.0682   -5.0386 C   0  0  0  0  0  0  0  0  0  0  0  0
   26.5240    1.9640   -9.4553 C   0  0  0  0  0  0  0  0  0  0  0  0
   33.0862    5.0214   -5.4534 C   0  0  0  0  0  0  0  0  0  0  0  0
   31.7639    5.0574   -6.9290 C   0  0  0  0  0  0  0  0  0  0  0  0
   29.9997    1.7634   -5.2927 C   0  0  0  0  0  0  0  0  0  0  0  0
   39.0080    3.9359   -4.1088 C   0  0  0  0  0  0  0  0  0  0  0  0
   28.2341    1.5134   -3.4266 O   0  0  0  0  0  0  0  0  0  0  0  0
   31.0513    2.0216   -9.1135 O   0  0  0  0  0  0  0  0  0  0  0  0
   28.4670    1.2399   -4.3661 C   0  0  0  0  0  0  0  0  0  0  0  0
   37.1729    3.4832   -5.5228 C   0  0  0  0  0  0  0  0  0  0  0  0
   31.8510    1.4995   -6.1146 O   0  0  0  0  0  0  0  0  0  0  0  0
   29.2045    3.3093  -10.9127 O   0  0  0  0  0  0  0  0  0  0  0  0
   29.1910    1.7640   -6.2041 N   0  0  0  0  0  0  0  0  0  0  0  0
   27.4836    0.5663   -5.1188 O   0  0  0  0  0  0  0  0  0  0  0  0
   30.8518    1.9477   -3.8765 C   0  0  0  0  0  0  0  0  0  0  0  0
   29.8405    2.5770   -9.5224 P   0  0  0  0  0  0  0  0  0  0  0  0
   34.4279    4.6790   -7.4068 C   0  0  0  0  0  0  0  0  0  0  0  0
   33.2072    4.7913   -6.8871 C   0  0  0  0  0  0  0  0  0  0  0  0
   31.2161    2.6289   -6.4779 C   0  0  0  0  0  0  0  0  0  0  0  0
   27.9981    2.7620  -10.1787 C   0  0  0  0  0  0  0  0  0  0  0  0
   36.1563    4.4679   -5.1284 C   0  0  0  0  0  0  0  0  0  0  0  0
   29.7661    1.2475  -10.3000 O   0  0  0  0  0  0  0  0  0  0  0  0
   26.5074    2.2068  -10.8609 C   0  0  0  0  0  0  0  0  0  0  0  0
   30.8476    3.2258   -5.8027 N   0  0  0  0  0  0  0  0  0  0  0  0
   30.8344    4.1735   -7.9277 C   0  0  0  0  0  0  0  0  0  0  0  0
   35.4428    4.3109   -6.4130 C   0  0  0  0  0  3  0  0  0  0  0  0
   30.2057    3.5318   -8.3170 C   0  0  0  0  0  0  0  0  0  0  0  0
  3  2  1  0
  6  1  2  0
  9  3  2  0
  9  4  1  0
 12  8  1  0
 12 10  2  0
 13  4  2  0
 16  8  1  0
 17 12  1  0
 18  8  1  0
 19 11  1  0
 21  6  1  0
 21  7  1  0
 21 20  2  0
 22 14  2  0
 23  5  1  0
 23 15  1  0
 24  1  1  0
 24  2  1  0
 24 13  1  0
 25 19  1  0
 26  5  1  0
 26 23  1  0
 27  8  1  0
 27 22  1  0
 28  7  1  0
 28 22  1  0
 29 20  1  0
 29 24  1  0
 30 19  1  0
 30 23  1  0
 30 28  1  0
M  RAD  1  29   2
M  END
>  <ID>  (1) 
conformer_0

$$$$
