
     RDKit          3D

 27 29  0  0  0  0  0  0  0  0999 V2000
   35.2525    4.4322   -6.7785 C   0  0  0  0  0  3  0  0  0  0  0  0
   37.0366    3.7952   -5.6161 C   0  0  0  0  0  0  0  0  0  0  0  0
   38.1322    3.0529   -5.2582 C   0  0  0  0  0  0  0  0  0  0  0  0
   38.9810    4.8783   -3.8909 C   0  0  0  0  0  0  0  0  0  0  0  0
   31.5920    5.3028   -7.1684 C   0  0  0  0  0  0  0  0  0  0  0  0
   32.9060    5.0233   -5.3687 C   0  0  0  0  0  0  0  0  0  0  0  0
   38.9937    3.6014   -4.3712 C   0  0  0  0  0  0  0  0  0  0  0  0
   30.1435    3.2841   -8.0663 C   0  0  0  0  0  0  0  0  0  0  0  0
   26.5742    1.6964   -9.8458 C   0  0  0  0  0  0  0  0  0  0  0  0
   30.5979    1.5844   -4.3095 C   0  0  0  0  0  0  0  0  0  0  0  0
   28.2525    1.4078   -3.6584 O   0  0  0  0  0  0  0  0  0  0  0  0
   35.4714    4.4398   -5.3544 C   0  0  0  0  0  0  0  0  0  0  0  0
   34.0800    4.6995   -4.6980 C   0  0  0  0  0  0  0  0  0  0  0  0
   30.8949    2.0906   -6.0110 C   0  0  0  0  0  0  0  0  0  0  0  0
   29.6483    2.2580   -6.4253 N   0  0  0  0  0  0  0  0  0  0  0  0
   28.9400    3.2007  -10.7405 O   0  0  0  0  0  0  0  0  0  0  0  0
   28.7227    1.2163   -4.5347 C   0  0  0  0  0  0  0  0  0  0  0  0
   30.4843    1.6794   -9.8096 O   0  0  0  0  0  0  0  0  0  0  0  0
   29.7292    2.5802   -9.5507 P   0  0  0  0  0  0  0  0  0  0  0  0
   31.8876    1.5750   -6.4024 O   0  0  0  0  0  0  0  0  0  0  0  0
   26.9609    0.7660   -5.0694 O   0  0  0  0  0  0  0  0  0  0  0  0
   27.9836    2.3361   -9.0250 C   0  0  0  0  0  0  0  0  0  0  0  0
   33.0345    4.8098   -6.7455 C   0  0  0  0  0  0  0  0  0  0  0  0
   34.1674    4.7546   -7.4905 C   0  0  0  0  0  0  0  0  0  0  0  0
   31.0609    4.2227   -7.6016 C   0  0  0  0  0  0  0  0  0  0  0  0
   36.9057    4.9578   -4.6604 C   0  0  0  0  0  0  0  0  0  0  0  0
   37.8971    5.7117   -4.0194 C   0  0  0  0  0  0  0  0  0  0  0  0
  3  2  2  0
  7  3  1  0
  7  4  2  0
 12  1  1  0
 12  2  1  0
 13  6  2  0
 13 12  1  0
 14 10  1  0
 15  8  1  0
 15 14  1  0
 17 10  1  0
 17 11  2  0
 19  8  1  0
 19 16  1  0
 19 18  1  0
 20 14  2  0
 21 17  1  0
 22  9  1  0
 22 16  1  0
 23  5  1  0
 23  6  1  0
 24  1  1  0
 24 23  2  0
 25  5  1  0
 25  8  1  0
 26  2  1  0
 26 12  1  0
 27  4  1  0
 27 26  2  0
M  RAD  1   1   2
M  END
>  <ID>  (1) 
conformer_0

$$$$
