
     RDKit          3D

 23 24  0  0  0  0  0  0  0  0999 V2000
   35.0870    4.4823   -5.3953 C   0  0  0  0  0  0  0  0  0  0  0  0
   33.3228    4.8751   -6.8135 C   0  0  0  0  0  0  0  0  0  0  0  0
   31.5713    5.4229   -7.0097 C   0  0  0  0  0  0  0  0  0  0  0  0
   38.8380    3.7472   -4.3474 C   0  0  0  0  0  0  0  0  0  0  0  0
   33.3659    4.9113   -5.4045 C   0  0  0  0  0  0  0  0  0  0  0  0
   38.5188    5.1820   -3.9461 C   0  0  0  0  0  0  0  0  0  0  0  0
   30.2253    3.2569   -8.1310 C   0  0  0  0  0  0  0  0  0  0  0  0
   28.8229    1.1105   -4.2412 C   0  0  0  0  0  0  0  0  0  0  0  0
   36.2971    4.2455   -5.7525 C   0  0  0  0  0  0  0  0  0  0  0  0
   37.8337    3.4444   -5.2610 C   0  0  0  0  0  0  0  0  0  0  0  0
   27.6865    1.2540   -3.5346 O   0  0  0  0  0  0  0  0  0  0  0  0
   26.5853    1.7453  -10.0871 C   0  0  0  0  0  0  0  0  0  0  0  0
   30.1738    2.5598   -6.2127 N   0  0  0  0  0  0  0  0  0  0  0  0
   30.5736    2.0100   -5.8324 C   0  0  0  0  0  0  0  0  0  0  0  0
   30.8609    2.6944   -9.8262 O   0  0  0  0  0  0  0  0  0  0  0  0
   31.9118    1.6164   -6.4773 O   0  0  0  0  0  0  0  0  0  0  0  0
   34.6201    4.5528   -7.2847 C   0  0  0  0  0  0  0  0  0  0  0  0
   27.8150    2.0353   -7.7594 O   0  0  0  0  0  0  0  0  0  0  0  0
   30.5498    1.3032   -4.0643 C   0  0  0  0  0  0  0  0  0  0  0  0
   28.4727    2.5363   -9.2094 C   0  0  0  0  0  0  0  0  0  0  0  0
   29.1662    2.6536  -10.4565 O   0  0  0  0  0  0  0  0  0  0  0  0
   37.3453    5.2645   -4.5303 C   0  0  0  0  0  0  0  0  0  0  0  0
   30.9205    4.4137   -7.7587 C   0  0  0  0  0  0  0  0  0  0  0  0
  3  2  1  0
  5  1  1  0
  5  2  2  0
  6  4  2  0
  9  1  1  0
 10  4  1  0
 10  9  1  0
 11  8  1  0
 13  7  1  0
 14 13  1  0
 15  7  1  0
 16 14  2  0
 17  1  2  0
 17  2  1  0
 19  8  1  0
 19 14  1  0
 20  7  1  0
 20 12  1  0
 20 18  1  0
 21 20  1  0
 22  6  1  0
 22  9  2  0
 23  3  1  0
 23  7  1  0
M  END
>  <ID>  (1) 
conformer_0

$$$$
