
     RDKit          3D

 22 22  0  0  0  0  0  0  0  0999 V2000
   34.3775    4.6113   -5.0290 C   0  0  0  0  0  0  0  0  0  0  0  0
   33.3570    4.7654   -6.0230 C   0  0  0  0  0  0  0  0  0  0  0  0
   36.1973    4.5685   -5.0980 C   0  0  1  0  0  0  0  0  0  0  0  0
   34.1100    4.5608   -7.3367 C   0  0  0  0  0  0  0  0  0  0  0  0
   31.2730    4.5233   -7.4565 C   0  0  0  0  0  0  0  0  0  0  0  0
   38.5897    3.5780   -4.5113 C   0  0  0  0  0  0  0  0  0  0  0  0
   30.8174    2.3624   -6.4689 C   0  0  1  0  0  0  0  0  0  0  0  0
   29.1595    1.4228   -4.6038 C   0  0  1  0  0  0  0  0  0  0  0  0
   26.3790    1.8653   -9.9096 C   0  0  0  0  0  0  0  0  0  0  0  0
   37.1931    3.9250   -5.2076 C   0  0  0  0  0  0  0  0  0  0  0  0
   38.8525    4.9112   -3.8592 C   0  0  0  0  0  0  0  0  0  0  0  0
   28.0174    2.2312   -9.2392 C   0  0  1  0  0  0  0  0  0  0  0  0
   28.0471    1.9440   -3.9270 O   0  0  0  0  0  0  0  0  0  0  0  0
   29.0075    1.8041   -6.6238 N   0  0  0  0  0  0  0  0  0  0  0  0
   31.9550    1.4889   -6.4017 O   0  0  0  0  0  0  0  0  0  0  0  0
   29.0596    2.9669  -10.7958 O   0  0  0  0  0  0  0  0  0  0  0  0
   30.5271    1.8332   -9.6812 O   0  0  0  0  0  0  0  0  0  0  0  0
   37.8078    5.6527   -4.0989 C   0  0  0  0  0  0  0  0  0  0  0  0
   30.8465    2.2663   -3.9363 C   0  0  0  0  0  0  0  0  0  0  0  0
   29.9483    3.1468   -8.3236 C   0  0  1  0  0  0  0  0  0  0  0  0
   35.4211    4.2882   -6.7487 C   0  0  0  0  0  0  0  0  0  0  0  0
   30.7464    2.9754   -6.1014 N   0  0  0  0  0  0  0  0  0  0  0  0
  2  1  2  0
  3  1  1  0
  4  2  1  0
  5  2  1  0
  3 10  1  1
 10  6  1  0
 11  6  1  0
 12  9  1  1
 13  8  1  0
 14  7  1  0
 14  8  1  0
 15  7  1  0
 16 12  1  0
 18 11  2  3
  8 19  1  1
 20  5  1  0
 20  7  1  0
 20 12  1  0
 20 17  1  6
 21  3  1  0
 21  4  2  0
  7 22  1  1
M  END
>  <ID>  (1) 
conformer_0

$$$$
