
     RDKit          3D

 27 28  0  0  0  0  0  0  0  0999 V2000
   33.0671    4.8325   -6.2701 C   0  0  0  0  0  0  0  0  0  0  0  0
   37.9489    3.2406   -5.2818 C   0  0  0  0  0  0  0  0  0  0  0  0
   36.6250    4.1021   -5.6370 C   0  0  0  0  0  0  0  0  0  0  0  0
   33.9576    4.6657   -5.1237 C   0  0  0  0  0  0  0  0  0  0  0  0
   31.7282    5.1541   -6.8964 C   0  0  0  0  0  0  0  0  0  0  0  0
   29.3480    1.3735   -4.1164 C   0  0  0  0  0  0  0  0  0  0  0  0
   33.9777    4.7616   -7.4274 C   0  0  0  0  0  0  0  0  0  0  0  0
   38.8712    3.6065   -4.3673 C   0  0  0  0  0  0  0  0  0  0  0  0
   28.4317    2.4303   -8.6909 C   0  0  1  0  0  0  0  0  0  0  0  0
   27.7005    1.8452   -7.3914 O   0  0  0  0  0  0  0  0  0  0  0  0
   30.0035    2.3588   -6.2328 N   0  0  0  0  0  0  0  0  0  0  0  0
   31.0441    2.4645   -9.5841 O   0  0  0  0  0  0  0  0  0  0  0  0
   28.0235    1.5358   -3.7267 O   0  0  0  0  0  0  0  0  0  0  0  0
   29.2902    3.4356  -11.2745 O   0  0  0  0  0  0  0  0  0  0  0  0
   35.6595    4.5127   -5.1721 C   0  0  0  0  0  0  0  0  0  0  0  0
   38.4960    4.8977   -3.7840 C   0  0  0  0  0  0  0  0  0  0  0  0
   29.9091    2.7148   -9.6210 P   0  0  0  0  0  0  0  0  0  0  0  0
   32.0858    1.5860   -6.7085 O   0  0  0  0  0  0  0  0  0  0  0  0
   30.5241    1.2157   -3.7409 C   0  0  0  0  0  0  0  0  0  0  0  0
   27.0518    2.0757  -10.2506 C   0  0  0  0  0  0  0  0  0  0  0  0
   31.0262    2.0647   -6.1445 C   0  0  0  0  0  0  0  0  0  0  0  0
   30.3775    3.4299   -8.0107 C   0  0  0  0  0  0  0  0  0  0  0  0
   37.2289    5.2274   -4.1824 C   0  0  0  0  0  0  0  0  0  0  0  0
   29.7517    1.1897  -10.2865 O   0  0  0  0  0  0  0  0  0  0  0  0
   35.2743    4.5487   -7.0707 C   0  0  0  0  0  0  0  0  0  0  0  0
   31.1696    4.2130   -7.7878 C   0  0  0  0  0  0  0  0  0  0  0  0
   28.9077    1.6545   -6.0541 C   0  0  1  0  0  0  0  0  0  0  0  0
  3  2  2  0
  4  1  2  0
  5  1  1  0
  7  1  1  0
  8  2  1  0
 10  9  1  0
 13  6  1  0
 15  3  1  0
 15  4  1  0
 16  8  1  0
 17  9  1  0
 17 12  1  0
 19  6  2  3
  9 20  1  6
 20 14  1  0
 21 11  1  0
 21 18  1  0
 22  9  1  0
 23  3  1  0
 23 16  2  0
 24 17  1  0
 25  7  1  0
 25 15  2  0
 26  5  1  0
 26 22  1  0
 27  6  1  0
 27 10  1  0
 27 11  1  1
M  END
>  <ID>  (1) 
conformer_0

$$$$
