
     RDKit          3D

 25 26  0  0  0  0  0  0  0  0999 V2000
   38.7435    3.7086   -4.5555 C   0  0  0  0  0  0  0  0  0  0  0  0
   37.6061    3.6969   -5.3081 C   0  0  0  0  0  0  0  0  0  0  0  0
   38.6875    4.9960   -3.8137 C   0  0  0  0  0  0  0  0  0  0  0  0
   36.1327    4.5499   -4.9201 C   0  0  0  0  0  0  0  0  0  0  0  0
   31.5916    5.2452   -7.0044 C   0  0  0  0  0  0  0  0  0  0  0  0
   35.6755    4.3493   -5.8970 C   0  0  0  0  0  0  0  0  0  0  0  0
   30.3962    3.1031   -7.7194 C   0  0  0  0  0  0  0  0  0  0  0  0
   34.7470    4.6448   -7.3137 C   0  0  0  0  0  0  0  0  0  0  0  0
   29.0239    1.4575   -4.3097 C   0  0  0  0  0  0  0  0  0  0  0  0
   34.0840    4.7601   -4.8444 C   0  0  0  0  0  0  0  0  0  0  0  0
   27.5251    0.5386   -5.6688 O   0  0  0  0  0  0  0  0  0  0  0  0
   30.3580    2.0806   -3.5901 C   0  0  0  0  0  0  0  0  0  0  0  0
   30.3996    1.5184  -10.0648 O   0  0  0  0  0  0  0  0  0  0  0  0
   30.1249    2.5779   -6.1094 N   0  0  0  0  0  0  0  0  0  0  0  0
   29.8028    2.4451   -9.8690 P   0  0  0  0  0  4  0  0  0  0  0  0
   27.3887    1.3751   -3.7156 O   0  0  0  0  0  0  0  0  0  0  0  0
   31.8394    1.5059   -5.9782 O   0  0  0  0  0  0  0  0  0  0  0  0
   29.4658    3.3314  -10.8743 O   0  0  0  0  0  1  0  0  0  0  0  0
   37.4588    5.4263   -4.0040 C   0  0  0  0  0  0  0  0  0  0  0  0
   26.6193    1.3560  -10.0789 C   0  0  0  0  0  0  0  0  0  0  0  0
   30.8731    2.1445   -5.7677 C   0  0  0  0  0  0  0  0  0  0  0  0
   33.0324    4.9801   -5.7766 C   0  0  0  0  0  0  0  0  0  0  0  0
   33.4659    4.8242   -7.1452 C   0  0  0  0  0  0  0  0  0  0  0  0
   28.6299    2.3953   -8.6158 C   0  0  0  0  0  0  0  0  0  0  0  0
   30.9464    4.0087   -7.7851 C   0  0  0  0  0  0  0  0  0  0  0  0
  2  1  2  0
  3  1  1  0
  4  2  1  0
  6  4  1  0
  8  6  2  0
 10  6  1  0
 11  9  1  0
 12  9  1  0
 14  7  1  0
 15 13  1  0
 16  9  2  0
 18 15  1  0
 19  3  1  0
 19  4  2  0
 21 12  1  0
 21 14  1  0
 21 17  2  0
 22  5  1  0
 22 10  1  0
 23  8  1  0
 23 22  2  0
 24  7  1  0
 24 15  1  0
 24 20  1  0
 25  5  1  0
 25  7  1  0
M  RAD  2  15   2  18   2
M  END
>  <ID>  (1) 
conformer_0

$$$$
