
     RDKit          3D

 27 29  0  0  0  0  0  0  0  0999 V2000
   33.6475    4.6380   -4.6076 C   0  0  0  0  0  0  0  0  0  0  0  0
   35.8632    4.2670   -6.2620 C   0  0  0  0  0  0  0  0  0  0  0  0
   38.5385    3.1282   -4.7542 C   0  0  0  0  0  0  0  0  0  0  0  0
   37.4655    3.3589   -5.3265 C   0  0  0  0  0  0  0  0  0  0  0  0
   31.4952    5.3734   -6.9678 C   0  0  0  0  0  0  0  0  0  0  0  0
   32.6645    5.0248   -5.8268 C   0  0  0  0  0  0  0  0  0  0  0  0
   39.1269    4.0507   -3.8781 C   0  0  0  0  0  0  0  0  0  0  0  0
   30.8856    2.1007   -5.9514 C   0  0  0  0  0  0  0  0  0  0  0  0
   27.9158    2.0969   -9.0603 C   0  0  0  0  0  0  0  0  0  0  0  0
   28.1241    1.5185   -3.4602 O   0  0  0  0  0  0  0  0  0  0  0  0
   34.6685    4.4437   -5.3835 C   0  0  0  0  0  0  0  0  0  0  0  0
   31.8034    1.4518   -6.2185 O   0  0  0  0  0  0  0  0  0  0  0  0
   29.6244    0.9378  -10.3771 O   0  0  0  0  0  0  0  0  0  0  0  0
   30.6537    1.5771   -3.6764 C   0  0  0  0  0  0  0  0  0  0  0  0
   28.9263    3.0702  -10.9468 O   0  0  0  0  0  0  0  0  0  0  0  0
   29.5030    2.2719   -9.7182 P   0  0  0  0  0  0  0  0  0  0  0  0
   29.8437    2.4364   -6.0863 N   0  0  0  0  0  0  0  0  0  0  0  0
   29.3068    1.5718   -4.3120 C   0  0  0  0  0  0  0  0  0  0  0  0
   33.1455    4.5811   -6.9590 C   0  0  0  0  0  0  0  0  0  0  0  0
   34.5278    4.5640   -7.3664 C   0  0  0  0  0  0  0  0  0  0  0  0
   26.7373    1.7151   -9.6746 C   0  0  0  0  0  0  0  0  0  0  0  0
   30.9211    2.2444   -9.5061 O   0  0  0  0  0  0  0  0  0  0  0  0
   29.9136    3.0375   -7.9486 C   0  0  0  0  0  0  0  0  0  0  0  0
   31.0464    4.1415   -7.6608 C   0  0  0  0  0  0  0  0  0  0  0  0
   36.3781    4.4871   -4.7224 C   0  0  0  0  0  0  0  0  0  0  0  0
   38.4814    5.3510   -3.7441 C   0  0  0  0  0  0  0  0  0  0  0  0
   37.3853    5.4620   -4.3665 C   0  0  0  0  0  3  0  0  0  0  0  0
  4  3  2  0
  6  1  2  0
  6  5  1  0
  7  3  1  0
 11  1  1  0
 11  2  2  0
 12  8  1  0
 15  9  1  0
 16 13  1  0
 16 15  1  0
 17  8  1  0
 18  8  1  0
 18 10  1  0
 18 14  1  0
 19  6  1  0
 20  2  1  0
 20 19  2  0
 21  9  1  0
 22 16  1  0
 23  9  1  0
 23 17  1  0
 24  5  1  0
 24 23  1  0
 25  2  1  0
 25  4  1  0
 25 11  1  0
 26  7  2  0
 27 25  1  0
 27 26  1  0
M  RAD  1  27   2
M  END
>  <ID>  (1) 
conformer_0

$$$$
