
     RDKit          3D

 27 29  0  0  0  0  0  0  0  0999 V2000
   37.3768    5.2987   -4.2333 C   0  0  0  0  0  0  0  0  0  0  0  0
   34.2196    4.5611   -7.1736 C   0  0  0  0  0  0  0  0  0  0  0  0
   38.6506    5.1632   -3.7066 C   0  0  0  0  0  0  0  0  0  0  0  0
   30.8947    4.2678   -7.7521 C   0  0  0  0  0  0  0  0  0  0  0  0
   38.4422    3.1116   -5.0552 C   0  0  0  0  0  0  0  0  0  0  0  0
   35.3415    4.3531   -6.2183 C   0  0  0  0  0  0  0  0  0  0  0  0
   39.1148    3.8205   -4.0100 C   0  0  0  0  0  0  0  0  0  0  0  0
   28.9072    1.4165   -4.6240 C   0  0  0  0  0  0  0  0  0  0  0  0
   29.9868    3.2876   -8.4788 C   0  0  0  0  0  0  0  0  0  0  0  0
   30.6811    2.2871   -4.2025 C   0  0  0  0  0  0  0  0  0  0  0  0
   30.0540    1.4800  -10.3731 O   0  0  0  0  0  0  0  0  0  0  0  0
   37.3445    3.7069   -5.4648 C   0  0  0  0  0  3  0  0  0  0  0  0
   30.0473    2.4421   -6.3877 N   0  0  0  0  0  0  0  0  0  0  0  0
   28.7737    3.2468  -11.2106 O   0  0  0  0  0  0  0  0  0  0  0  0
   29.6716    2.4664   -9.9936 P   0  0  0  0  0  0  0  0  0  0  0  0
   31.1289    2.3323   -5.9159 C   0  0  0  0  0  0  0  0  0  0  0  0
   32.1112    1.6474   -6.6072 O   0  0  0  0  0  0  0  0  0  0  0  0
   27.1237    1.7268   -7.5043 O   0  0  0  0  0  0  0  0  0  0  0  0
   27.5540    1.2553   -4.1877 O   0  0  0  0  0  0  0  0  0  0  0  0
   26.1510    1.6277   -9.9879 C   0  0  0  0  0  0  0  0  0  0  0  0
   36.1927    4.5735   -5.0203 C   0  0  0  0  0  0  0  0  0  0  0  0
   34.4452    4.8216   -4.6508 C   0  0  0  0  0  0  0  0  0  0  0  0
   27.5834    2.0163   -8.4260 C   0  0  0  0  0  0  0  0  0  0  0  0
   31.7173    5.1604   -7.0064 C   0  0  0  0  0  0  0  0  0  0  0  0
   27.6239    0.7581   -5.5461 O   0  0  0  0  0  0  0  0  0  0  0  0
   33.0840    4.9420   -6.4629 C   0  0  0  0  0  0  0  0  0  0  0  0
   33.1784    5.1896   -5.0881 C   0  0  0  0  0  0  0  0  0  0  0  0
  3  1  2  0
  6  2  2  0
  7  3  1  0
  7  5  2  0
  9  4  2  0
 10  8  1  0
 12  5  1  0
 13  9  1  0
 15  9  1  0
 15 11  1  0
 15 14  1  0
 16 10  1  0
 16 13  1  0
 17 16  2  0
 19  8  1  0
 21  1  1  0
 21  6  1  0
 21 12  1  0
 22  6  1  0
 22 21  1  0
 23 18  1  0
 23 20  1  0
 24  4  2  0
 25  8  1  0
 25 18  1  0
 26  2  1  0
 26 24  1  0
 27 22  2  0
 27 26  1  0
M  RAD  1  12   2
M  END
>  <ID>  (1) 
conformer_0

$$$$
