
     RDKit          3D

 27 29  0  0  0  0  0  0  0  0999 V2000
   34.4221    4.4063   -7.2664 C   0  0  0  0  0  0  0  0  0  0  0  0
   37.3085    3.7258   -5.2304 C   0  0  0  0  0  0  0  0  0  0  0  0
   39.0999    4.4149   -3.8915 C   0  0  0  0  0  0  0  0  0  0  0  0
   30.9082    3.9299   -7.8417 C   0  0  0  0  0  0  0  0  0  0  0  0
   38.3357    5.6815   -3.7704 C   0  0  0  0  0  0  0  0  0  0  0  0
   28.9631    2.6047   -9.8589 C   0  0  0  0  0  0  0  0  0  0  0  0
   38.5389    3.4336   -4.7435 C   0  0  0  0  0  0  0  0  0  0  0  0
   33.1832    4.8438   -6.8116 C   0  0  0  0  0  0  0  0  0  0  0  0
   30.9734    2.1267   -5.9691 C   0  0  0  0  0  0  0  0  0  0  0  0
   28.0271    1.2881   -3.6728 O   0  0  0  0  0  0  0  0  0  0  0  0
   30.9021    2.1465   -4.1960 C   0  0  0  0  0  0  0  0  0  0  0  0
   29.6742    1.9506   -6.1609 N   0  0  0  0  0  0  0  0  0  0  0  0
   28.8060    1.2982   -4.6671 C   0  0  0  0  0  0  0  0  0  0  0  0
   35.3502    4.1551   -6.1740 C   0  0  0  0  0  3  0  0  0  0  0  0
   32.1950    1.7088   -6.6917 O   0  0  0  0  0  0  0  0  0  0  0  0
   29.4326    3.3019  -10.8778 O   0  0  0  0  0  0  0  0  0  0  0  0
   29.7666    1.2645  -10.4497 O   0  0  0  0  0  0  0  0  0  0  0  0
   26.8790    2.0307  -10.5400 C   0  0  0  0  0  0  0  0  0  0  0  0
   34.1633    4.9258   -4.8004 C   0  0  0  0  0  0  0  0  0  0  0  0
   31.5158    5.1911   -7.1951 C   0  0  0  0  0  0  0  0  0  0  0  0
   27.8680    2.3376   -7.8537 O   0  0  0  0  0  0  0  0  0  0  0  0
   29.9891    2.8072   -8.3128 C   0  0  0  0  0  0  0  0  0  0  0  0
   32.9500    5.2112   -5.5149 C   0  0  0  0  0  0  0  0  0  0  0  0
   27.1144    0.9619   -5.3857 O   0  0  0  0  0  0  0  0  0  0  0  0
   29.6990    1.6394  -10.1399 N   0  0  0  0  0  0  0  0  0  0  0  0
   35.9449    4.4524   -4.9923 C   0  0  0  0  0  0  0  0  0  0  0  0
   37.1194    5.3896   -4.2305 C   0  0  0  0  0  0  0  0  0  0  0  0
  5  3  2  0
  7  2  2  0
  7  3  1  0
  8  1  2  0
  9  4  1  0
 11  9  1  0
 12  9  1  0
 13 10  1  0
 13 12  1  0
 14  1  1  0
 15  9  1  0
 16  6  1  0
 18  6  1  0
 20  4  1  0
 20  8  1  0
 22  4  1  0
 22  6  1  0
 22 21  1  0
 23  8  1  0
 23 19  2  0
 24 13  1  0
 25  6  1  0
 25 17  1  0
 26  2  1  0
 26 14  1  0
 26 19  1  0
 27  2  1  0
 27  5  1  0
 27 26  1  0
M  RAD  1  14   2
M  END
>  <ID>  (1) 
conformer_0

$$$$
