
     RDKit          3D

 29 32  0  0  0  0  0  0  0  0999 V2000
   39.0183    3.9148   -4.0578 C   0  0  0  0  0  0  0  0  0  0  0  0
   36.7964    4.8001   -4.6377 C   0  0  0  0  0  0  0  0  0  0  0  0
   33.6688    4.8931   -7.5311 C   0  0  0  0  0  0  0  0  0  0  0  0
   37.5458    5.7969   -4.2366 C   0  0  0  0  0  0  0  0  0  0  0  0
   31.0840    3.7133   -7.6089 C   0  0  0  0  0  0  0  0  0  0  0  0
   32.9257    4.4855   -6.5516 C   0  0  0  0  0  0  0  0  0  0  0  0
   38.7661    5.2258   -3.7975 C   0  0  0  0  0  0  0  0  0  0  0  0
   30.4714    1.9183   -5.0378 C   0  0  0  0  0  0  0  0  0  0  0  0
   27.5607    1.8507   -8.8134 C   0  0  0  0  0  0  0  0  0  0  0  0
   28.5746    1.2473   -3.8121 C   0  0  0  0  0  0  0  0  0  0  0  0
   30.3913    1.4952   -3.7604 C   0  0  0  0  0  0  0  0  0  0  0  0
   28.1670    1.3828   -3.3886 O   0  0  0  0  0  0  0  0  0  0  0  0
   30.2876    2.6871   -5.8825 N   0  0  0  0  0  0  0  0  0  0  0  0
   34.7683    4.3904   -5.0550 C   0  0  0  0  0  0  0  0  0  0  0  0
   29.6123    1.1549  -10.2655 O   0  0  0  0  0  0  0  0  0  0  0  0
   31.9532    1.6100   -6.1143 O   0  0  0  0  0  0  0  0  0  0  0  0
   26.4423    1.4062   -9.7947 C   0  0  0  0  0  0  0  0  0  0  0  0
   29.4697    3.3525  -10.5297 O   0  0  0  0  0  0  0  0  0  0  0  0
   29.7462    2.5729   -9.4795 P   0  0  0  0  0  0  0  0  0  0  0  0
   33.4640    4.7432   -5.1587 C   0  0  0  0  0  0  0  0  0  0  0  0
   29.6040    3.2501   -8.3609 C   0  0  0  0  0  0  0  0  0  0  0  0
   27.0589    0.8987   -4.9153 O   0  0  0  0  0  0  0  0  0  0  0  0
   37.1540    3.6086   -5.4421 C   0  0  0  0  0  0  0  0  0  0  0  0
   38.3367    3.1621   -4.9836 C   0  0  0  0  0  0  0  0  0  0  0  0
   31.0823    1.9514   -9.2194 O   0  0  0  0  0  0  0  0  0  0  0  0
   35.7135    4.4713   -6.1240 C   0  0  0  0  0  0  0  0  0  0  0  0
   34.9480    4.5666   -7.5185 C   0  0  0  0  0  3  0  0  0  0  0  0
   31.4452    5.0953   -7.2773 C   0  0  0  0  0  0  0  0  0  0  0  0
   31.3225    2.9148   -6.9100 C   0  0  0  0  0  0  0  0  0  0  0  0
  4  2  2  0
  6  3  2  0
  7  1  2  0
  7  4  1  0
 11  8  1  0
 11 10  1  0
 12 10  2  0
 13  8  1  0
 16  8  1  0
 17  9  1  0
 19 15  1  0
 20  6  1  0
 20 14  2  0
 21  5  1  0
 21  9  1  0
 21 18  1  0
 21 19  1  0
 22 10  1  0
 23  2  1  0
 24  1  1  0
 24 23  2  0
 25 19  1  0
 26  2  1  0
 26 14  1  0
 26 23  1  0
 27  3  1  0
 27 26  1  0
 28  5  1  0
 28  6  1  0
 29  5  1  0
 29 13  1  0
 29 16  1  0
M  RAD  1  27   2
M  END
>  <ID>  (1) 
conformer_0

$$$$
