
     RDKit          3D

 26 27  0  0  0  0  0  0  0  0999 V2000
   33.5813    4.8231   -7.1931 C   0  0  0  0  0  0  0  0  0  0  0  0
   37.6038    3.3596   -5.4958 C   0  0  0  0  0  0  0  0  0  0  0  0
   37.7174    5.5986   -4.1146 C   0  0  0  0  0  0  0  0  0  0  0  0
   31.0209    4.2148   -7.8361 C   0  0  0  0  0  0  0  0  0  0  0  0
   38.7731    4.6596   -3.9733 C   0  0  0  0  0  0  0  0  0  0  0  0
   36.0433    4.1708   -5.8174 C   0  0  0  0  0  0  0  0  0  0  0  0
   31.1341    2.3933   -6.6797 C   0  0  0  0  0  0  0  0  0  0  0  0
   28.5436    1.2158   -3.8857 C   0  0  0  0  0  0  0  0  0  0  0  0
   34.8693    4.5744   -7.1492 C   0  0  0  0  0  0  0  0  0  0  0  0
   26.6395    1.6199  -10.3046 C   0  0  0  0  0  0  0  0  0  0  0  0
   30.0985    1.2792  -10.1384 O   0  0  0  0  0  0  0  0  0  0  0  0
   28.0041    1.6888   -3.4861 O   0  0  0  0  0  0  0  0  0  0  0  0
   29.8450    3.0664   -8.3360 C   0  0  0  0  0  0  0  0  0  0  0  0
   38.6226    3.4528   -4.6994 C   0  0  0  0  0  0  0  0  0  0  0  0
   30.1658    2.3475   -6.0730 N   0  0  0  0  0  0  0  0  0  0  0  0
   29.5056    3.3834  -10.4145 O   0  0  0  0  0  1  0  0  0  0  0  0
   32.0187    1.6160   -6.5641 O   0  0  0  0  0  0  0  0  0  0  0  0
   27.9724    2.0311   -9.4422 C   0  0  0  0  0  0  0  0  0  0  0  0
   31.2432    2.3185   -3.7379 C   0  0  0  0  0  0  0  0  0  0  0  0
   29.7941    2.3723   -9.6194 P   0  0  0  0  0  4  0  0  0  0  0  0
   27.5111    0.9342   -5.0475 O   0  0  0  0  0  0  0  0  0  0  0  0
   34.3306    4.6207   -5.0988 C   0  0  0  0  0  0  0  0  0  0  0  0
   33.0277    4.8851   -5.8762 C   0  0  0  0  0  0  0  0  0  0  0  0
   31.7524    5.2481   -7.2904 C   0  0  0  0  0  0  0  0  0  0  0  0
   36.6124    4.8702   -4.8850 C   0  0  0  0  0  3  0  0  0  0  0  0
   30.1644    1.7565   -4.9358 C   0  0  0  0  0  0  0  0  0  0  0  0
  5  3  1  0
  6  2  1  0
  7  4  1  0
  9  1  1  0
  9  6  1  0
 12  8  1  0
 13  4  1  0
 14  2  1  0
 14  5  2  0
 15  7  1  0
 17  7  2  0
 18 10  1  0
 18 13  1  0
 20 11  1  0
 20 13  1  0
 20 16  1  0
 21  8  1  0
 22  6  1  0
 23  1  2  0
 23 22  1  0
 24  1  1  0
 24  4  1  0
 25  3  2  0
 25  6  1  0
 26  8  1  0
 26 15  1  0
 26 19  1  0
M  RAD  3  16   2  20   2  25   2
M  END
>  <ID>  (1) 
conformer_0

$$$$
