
     RDKit          3D

 26 27  0  0  0  0  0  0  0  0999 V2000
   38.9834    4.9419   -3.7255 C   0  0  0  0  0  0  0  0  0  0  0  0
   33.3478    4.9133   -5.0159 C   0  0  0  0  0  0  0  0  0  0  0  0
   34.6326    4.6612   -4.7296 C   0  0  0  0  0  0  0  0  0  0  0  0
   36.8746    5.1465   -4.4500 C   0  0  0  0  0  3  0  0  0  0  0  0
   38.0089    5.8734   -3.9635 C   0  0  0  0  0  0  0  0  0  0  0  0
   31.3831    4.6884   -7.5069 C   0  0  0  0  0  0  0  0  0  0  0  0
   32.9715    4.7734   -6.4832 C   0  0  0  0  0  0  0  0  0  0  0  0
   28.5976    1.3281   -4.5333 C   0  0  0  0  0  0  0  0  0  0  0  0
   29.9876    2.7549   -9.4839 P   0  0  0  0  0  0  0  0  0  0  0  0
   30.8865    1.9375   -5.7940 C   0  0  0  0  0  0  0  0  0  0  0  0
   30.1998    1.5938   -4.0876 C   0  0  0  0  0  0  0  0  0  0  0  0
   34.1080    4.6359   -7.3175 C   0  0  0  0  0  0  0  0  0  0  0  0
   30.1079    2.4369   -6.2751 N   0  0  0  0  0  0  0  0  0  0  0  0
   27.6389    0.8781   -3.7484 O   0  0  0  0  0  0  0  0  0  0  0  0
   28.2540    2.3446   -9.0000 C   0  0  0  0  0  0  0  0  0  0  0  0
   32.2123    1.7119   -6.8046 O   0  0  0  0  0  0  0  0  0  0  0  0
   31.2838    2.7109   -9.5884 O   0  0  0  0  0  0  0  0  0  0  0  0
   29.2804    3.2264  -11.0187 O   0  0  0  0  0  0  0  0  0  0  0  0
   37.6781    3.4742   -5.0584 C   0  0  0  0  0  0  0  0  0  0  0  0
   27.1086    1.7540   -9.7148 C   0  0  0  0  0  0  0  0  0  0  0  0
   30.6585    3.2615   -7.7561 C   0  0  0  0  0  0  0  0  0  0  0  0
   27.5042    1.0458   -6.1903 O   0  0  0  0  0  0  0  0  0  0  0  0
   38.8002    3.6638   -4.2514 C   0  0  0  0  0  0  0  0  0  0  0  0
   36.1128    4.2754   -5.2901 C   0  0  0  0  0  0  0  0  0  0  0  0
   35.2466    4.4467   -6.6497 C   0  0  0  0  0  0  0  0  0  0  0  0
   29.9724    1.1130   -9.9485 O   0  0  0  0  0  0  0  0  0  0  0  0
  3  2  2  0
  5  1  1  0
  5  4  2  0
  7  2  1  0
  7  6  1  0
 11  8  1  0
 11 10  1  0
 12  7  1  0
 13 10  1  0
 14  8  2  0
 15  9  1  0
 16 10  2  0
 17  9  1  0
 18 15  1  0
 20 15  1  0
 21  6  1  0
 21 13  1  0
 21 15  1  0
 22  8  1  0
 23  1  2  0
 23 19  1  0
 24  3  1  0
 24  4  1  0
 24 19  1  0
 25 12  2  0
 25 24  1  0
 26  9  1  0
M  RAD  1   4   2
M  END
>  <ID>  (1) 
conformer_0

$$$$
