
     RDKit          3D

 26 27  0  0  0  0  0  0  0  0999 V2000
   38.7535    3.5536   -4.4838 C   0  0  0  0  0  0  0  0  0  0  0  0
   36.3029    4.2846   -5.4780 C   0  0  0  0  0  0  0  0  0  0  0  0
   39.0077    4.7199   -3.7485 C   0  0  0  0  0  0  0  0  0  0  0  0
   33.3557    4.9749   -5.1976 C   0  0  0  0  0  0  0  0  0  0  0  0
   31.7270    5.0208   -6.7396 C   0  0  0  0  0  0  0  0  0  0  0  0
   33.1249    4.8251   -6.5525 C   0  0  0  0  0  0  0  0  0  0  0  0
   29.2865    1.3626   -4.4790 C   0  0  0  0  0  0  0  0  0  0  0  0
   26.6670    1.9477   -9.9703 C   0  0  0  0  0  0  0  0  0  0  0  0
   28.0060    2.3425   -8.9196 C   0  0  0  0  0  0  0  0  0  0  0  0
   37.7280    3.5304   -5.3450 C   0  0  0  0  0  3  0  0  0  0  0  0
   37.9617    5.6980   -3.8570 C   0  0  0  0  0  0  0  0  0  0  0  0
   28.4261    0.8341   -3.3629 O   0  0  0  0  0  0  0  0  0  0  0  0
   30.4461    1.6593   -9.8916 O   0  0  0  0  0  0  0  0  0  0  0  0
   29.4626    3.4389  -10.9419 O   0  0  0  0  0  1  0  0  0  0  0  0
   30.0291    2.4102   -6.2470 N   0  0  0  0  0  0  0  0  0  0  0  0
   32.0258    1.5624   -6.3389 O   0  0  0  0  0  0  0  0  0  0  0  0
   30.8974    2.0501   -3.7905 C   0  0  0  0  0  0  0  0  0  0  0  0
   29.9928    3.2303   -8.1772 C   0  0  0  0  0  0  0  0  0  0  0  0
   29.8794    2.6975   -9.6804 P   0  0  0  0  0  4  0  0  0  0  0  0
   36.8246    5.0263   -4.4727 C   0  0  0  0  0  0  0  0  0  0  0  0
   34.7617    4.7237   -4.8349 C   0  0  0  0  0  0  0  0  0  0  0  0
   27.6343    1.2764   -5.4199 O   0  0  0  0  0  0  0  0  0  0  0  0
   30.9743    2.1188   -6.0077 C   0  0  0  0  0  0  0  0  0  0  0  0
   31.2748    3.8779   -7.7138 C   0  0  0  0  0  0  0  0  0  0  0  0
   35.3912    4.3623   -6.7509 C   0  0  0  0  0  0  0  0  0  0  0  0
   34.2756    4.6335   -7.4082 C   0  0  0  0  0  0  0  0  0  0  0  0
  3  1  2  0
  6  4  2  0
  6  5  1  0
  9  8  1  0
 10  1  1  0
 10  2  1  0
 11  3  1  0
 12  7  2  0
 17  7  1  0
 18  9  1  0
 18 15  1  0
 19 13  1  0
 19 14  1  0
 19 18  1  0
 20  2  1  0
 20 11  2  0
 21  2  1  0
 21  4  1  0
 22  7  1  0
 23 15  1  0
 23 16  2  0
 23 17  1  0
 24  5  1  0
 24 18  1  0
 25  2  1  0
 26  6  1  0
 26 25  2  0
M  RAD  3  10   2  14   2  19   2
M  END
>  <ID>  (1) 
conformer_0

$$$$
