
     RDKit          3D

 27 29  0  0  0  0  0  0  0  0999 V2000
   32.9077    4.9988   -5.4463 C   0  0  0  0  0  0  0  0  0  0  0  0
   34.1785    4.6162   -4.9036 C   0  0  0  0  0  0  0  0  0  0  0  0
   37.0822    3.8956   -5.4477 C   0  0  0  0  0  0  0  0  0  0  0  0
   31.2080    4.0799   -7.8554 C   0  0  0  0  0  0  0  0  0  0  0  0
   32.8423    4.7945   -6.7665 C   0  0  0  0  0  0  0  0  0  0  0  0
   35.0872    4.5302   -6.7096 C   0  0  0  0  0  3  0  0  0  0  0  0
   30.4945    1.9188   -5.9785 C   0  0  1  0  0  0  0  0  0  0  0  0
   27.6512    1.7641   -8.6807 C   0  0  0  0  0  0  0  0  0  0  0  0
   38.3019    3.3863   -4.9812 C   0  0  0  0  0  0  0  0  0  0  0  0
   29.5229    0.9869  -10.3896 O   0  0  0  0  0  0  0  0  0  0  0  0
   31.6590    1.3045   -5.9339 O   0  0  0  0  0  0  0  0  0  0  0  0
   34.0458    4.6777   -7.5303 C   0  0  0  0  0  0  0  0  0  0  0  0
   30.2067    2.5778   -5.9072 N   0  0  0  0  0  0  0  0  0  0  0  0
   29.6467    3.1468   -8.2830 C   0  0  2  0  0  0  0  0  0  0  0  0
   29.4394    3.2853  -10.5261 O   0  0  0  0  0  0  0  0  0  0  0  0
   29.6141    2.3734   -9.5277 P   0  0  0  0  0  0  0  0  0  0  0  0
   30.5543    1.2286   -3.6137 C   0  0  0  0  0  0  0  0  0  0  0  0
   35.7005    4.5130   -5.2684 C   0  0  1  0  0  0  0  0  0  0  0  0
   26.6821    1.6001  -10.0314 C   0  0  0  0  0  0  0  0  0  0  0  0
   27.9632    1.7980   -4.6081 O   0  0  0  0  0  0  0  0  0  0  0  0
   28.4849    2.0843   -7.5209 N   0  0  0  0  0  0  0  0  0  0  0  0
   38.9029    4.2235   -4.0144 C   0  0  0  0  0  0  0  0  0  0  0  0
   29.5393    1.5418   -4.3067 C   0  0  0  0  0  0  0  0  0  0  0  0
   31.4411    5.2920   -7.2453 C   0  0  0  0  0  0  0  0  0  0  0  0
   30.8901    1.8946   -9.3406 O   0  0  0  0  0  0  0  0  0  0  0  0
   36.7676    5.2417   -4.3256 C   0  0  1  0  0  0  0  0  0  0  0  0
   38.0936    5.3860   -3.7435 C   0  0  0  0  0  0  0  0  0  0  0  0
  2  1  2  0
  5  1  1  0
  9  3  2  0
 11  7  1  0
 12  5  2  0
 12  6  1  0
  7 13  1  1
 14  4  1  1
 14  7  1  0
 15 14  1  0
 16 10  1  0
 16 15  1  0
 18  2  1  0
 18  3  1  0
 18  6  1  6
 19  8  1  0
 21  8  1  0
 21 14  1  0
 22  9  1  0
 23  7  1  0
 23 17  2  3
 23 20  1  0
 24  4  1  0
 24  5  1  0
 25 16  1  0
 26  3  1  0
 26 18  1  0
 27 22  2  0
 26 27  1  1
M  RAD  1   6   2
M  END
>  <ID>  (1) 
conformer_0

$$$$
