
     RDKit          3D

 27 30  0  0  0  0  0  0  0  0999 V2000
   38.3885    5.6970   -3.8987 C   0  0  0  0  0  0  0  0  0  0  0  0
   37.2221    5.2311   -4.3497 C   0  0  0  0  0  0  0  0  0  0  0  0
   38.7295    3.3156   -4.6247 C   0  0  0  0  0  0  0  0  0  0  0  0
   37.5229    3.5379   -5.2506 C   0  0  0  0  0  0  0  0  0  0  0  0
   31.7047    5.3063   -6.7617 C   0  0  0  0  0  0  0  0  0  0  0  0
   36.1743    4.3418   -5.2515 C   0  0  0  0  0  0  0  0  0  0  0  0
   30.0513    3.1961   -8.1430 C   0  0  0  0  0  0  0  0  0  0  0  0
   26.7359    1.5107   -9.5538 C   0  0  0  0  0  0  0  0  0  0  0  0
   30.8662    1.8304   -4.1968 C   0  0  0  0  0  0  0  0  0  0  0  0
   34.6443    4.4921   -4.8050 C   0  0  0  0  0  0  0  0  0  0  0  0
   33.3071    4.8286   -5.1725 C   0  0  0  0  0  0  0  0  0  0  0  0
   29.2916    1.3954   -4.4305 C   0  0  0  0  0  0  0  0  0  0  0  0
   28.2833    1.3664   -3.6068 O   0  0  0  0  0  0  0  0  0  0  0  0
   29.8280    2.1945   -6.3305 N   0  0  0  0  0  0  0  0  0  0  0  0
   29.2496    3.3280  -10.8276 O   0  0  0  0  0  0  0  0  0  0  0  0
   35.4442    4.3598   -6.5698 C   0  0  0  0  0  0  0  0  0  0  0  0
   31.9070    1.6355   -6.7516 O   0  0  0  0  0  0  0  0  0  0  0  0
   30.6972    1.9517   -9.7594 O   0  0  0  0  0  0  0  0  0  0  0  0
   28.1408    2.1971   -8.8093 C   0  0  0  0  0  0  0  0  0  0  0  0
   29.9291    2.7046   -9.5718 P   0  0  0  0  0  0  0  0  0  0  0  0
   27.6472    0.4612   -5.4607 O   0  0  0  0  0  0  0  0  0  0  0  0
   34.3228    4.6422   -7.3856 C   0  0  0  0  0  0  0  0  0  0  0  0
   33.1555    4.8284   -6.6035 C   0  0  0  0  0  0  0  0  0  0  0  0
   27.5527    2.2558   -7.5708 O   0  0  0  0  0  0  0  0  0  0  0  0
   30.7724    2.1342   -6.3337 C   0  0  0  0  0  0  0  0  0  0  0  0
   31.0843    4.3389   -7.6103 C   0  0  0  0  0  0  0  0  0  0  0  0
   39.1370    4.4802   -3.8655 C   0  0  0  0  0  0  0  0  0  0  0  0
  2  1  2  0
  4  2  1  0
  4  3  2  0
  6  2  1  0
  6  4  1  0
 10  6  1  0
 11 10  2  0
 12  9  1  0
 13 12  2  0
 14  7  1  0
 16  6  1  0
 16 10  1  0
 19  8  1  0
 19 15  1  0
 20  7  1  0
 20 15  1  0
 20 18  1  0
 21 12  1  0
 22 16  1  0
 23  5  1  0
 23 11  1  0
 23 22  2  0
 24 19  2  0
 25  9  1  0
 25 14  1  0
 25 17  2  0
 26  5  1  0
 26  7  1  0
 27  1  1  0
 27  3  1  0
M  END
>  <ID>  (1) 
conformer_0

$$$$
