
     RDKit          3D

 23 23  0  0  0  0  0  0  0  0999 V2000
   37.4433    5.3625   -4.0673 C   0  0  0  0  0  0  0  0  0  0  0  0
   37.2553    3.8558   -5.2889 C   0  0  0  0  0  0  0  0  0  0  0  0
   36.0183    4.4204   -5.4798 C   0  0  0  0  0  0  0  0  0  0  0  0
   31.3097    4.8726   -7.3248 C   0  0  0  0  0  0  0  0  0  0  0  0
   33.3444    4.8290   -6.8966 C   0  0  1  0  0  0  0  0  0  0  0  0
   33.1191    4.8477   -5.4643 C   0  0  0  0  0  0  0  0  0  0  0  0
   29.3299    1.3347   -4.3544 C   0  0  0  0  0  0  0  0  0  0  0  0
   38.7635    4.8710   -3.7918 C   0  0  0  0  0  0  0  0  0  0  0  0
   31.0266    2.1431   -6.0946 C   0  0  1  0  0  0  0  0  0  0  0  0
   30.2060    1.4664   -9.8360 O   0  0  0  0  0  0  0  0  0  0  0  0
   29.1515    3.0649  -11.1083 O   0  0  0  0  0  0  0  0  0  0  0  0
   34.7796    4.5837   -7.0729 C   0  0  0  0  0  0  0  0  0  0  0  0
   30.1833    2.4434   -6.1580 N   0  0  0  0  0  0  0  0  0  0  0  0
   29.7218    2.4825   -9.4889 P   0  0  0  0  0  0  0  0  0  0  0  0
   30.7805    1.7697   -3.8086 C   0  0  0  0  0  0  0  0  0  0  0  0
   26.5389    1.3800  -10.0692 C   0  0  0  0  0  0  0  0  0  0  0  0
   31.9788    1.4594   -6.3097 O   0  0  0  0  0  0  0  0  0  0  0  0
   27.6551    2.0397   -8.9935 C   0  0  0  0  0  0  0  0  0  0  0  0
   28.4133    1.4834   -3.7857 O   0  0  0  0  0  0  0  0  0  0  0  0
   38.6743    3.5840   -4.6183 C   0  0  0  0  0  0  0  0  0  0  0  0
   27.5491    2.1249   -7.7242 O   0  0  0  0  0  0  0  0  0  0  0  0
   30.0834    3.4643   -8.1793 C   0  0  2  0  0  0  0  0  0  0  0  0
   34.6935    4.5855   -4.9685 C   0  0  0  0  0  0  0  0  0  0  0  0
  2  1  2  0
  3  2  1  0
  5  4  1  0
  6  5  1  0
  8  1  1  0
  5 12  1  1
  9 13  1  6
 14 10  1  0
 14 11  1  0
 15  7  1  0
 15  9  1  0
 17  9  1  0
 18 11  1  0
 18 16  1  0
 19  7  2  0
 20  2  1  0
 20  8  2  0
 21 18  2  0
 22  4  1  6
 22  9  1  0
 22 14  1  0
 23  3  1  0
 23  6  2  3
M  END
>  <ID>  (1) 
conformer_0

$$$$
