
     RDKit          3D

 23 23  0  0  0  0  0  0  0  0999 V2000
   33.6129    4.6579   -7.1284 C   0  0  0  0  0  0  0  0  0  0  0  0
   38.8086    3.8066   -4.4031 C   0  0  0  0  0  0  0  0  0  0  0  0
   36.3597    4.6684   -4.9384 C   0  0  0  0  0  0  0  0  0  0  0  0
   34.9263    4.4255   -7.2170 C   0  0  0  0  0  0  0  0  0  0  0  0
   38.7410    5.1889   -3.8367 C   0  0  0  0  0  0  0  0  0  0  0  0
   30.3729    3.2143   -8.1104 C   0  0  1  0  0  0  0  0  0  0  0  0
   31.5053    4.5441   -7.3745 C   0  0  0  0  0  0  0  0  0  0  0  0
   29.2052    1.4248   -4.4462 C   0  0  0  0  0  0  0  0  0  0  0  0
   37.5659    5.6241   -4.1261 C   0  0  0  0  0  0  0  0  0  0  0  0
   28.5481    1.5876   -3.2345 O   0  0  0  0  0  0  0  0  0  0  0  0
   33.0948    4.8849   -5.7742 C   0  0  0  0  0  0  0  0  0  0  0  0
   26.4958    2.0703   -9.9382 C   0  0  0  0  0  0  0  0  0  0  0  0
   31.0724    2.0929   -5.9975 C   0  0  1  0  0  0  0  0  0  0  0  0
   32.1830    1.7416   -6.8047 O   0  0  0  0  0  0  0  0  0  0  0  0
   31.1974    2.0973   -3.8814 C   0  0  0  0  0  0  0  0  0  0  0  0
   27.2155    0.9929   -4.5724 O   0  0  0  0  0  0  0  0  0  0  0  0
   29.7479    3.2449  -10.6343 O   0  0  0  0  0  0  0  0  0  0  0  0
   30.0227    2.1115   -6.0514 N   0  0  0  0  0  0  0  0  0  0  0  0
   29.8974    1.4246  -10.0071 O   0  0  0  0  0  0  0  0  0  0  0  0
   28.1476    2.6546   -9.3872 C   0  0  2  0  0  0  0  0  0  0  0  0
   35.9884    4.2892   -5.9059 C   0  0  0  0  0  0  0  0  0  0  0  0
   34.2501    4.8127   -4.9386 C   0  0  0  0  0  0  0  0  0  0  0  0
   37.8127    3.6536   -5.2795 C   0  0  0  0  0  0  0  0  0  0  0  0
  4  1  1  0
  5  2  2  0
  7  1  1  0
  6  7  1  1
  9  3  2  0
  9  5  1  0
 10  8  1  0
 11  1  2  3
 13  6  1  0
 14 13  1  0
 13 15  1  1
 16  8  1  0
 18  8  1  0
 18 13  1  0
 19 17  1  0
 20  6  1  0
 20 12  1  6
 20 17  1  0
 21  3  1  0
 21  4  1  0
 22 11  1  0
 23  2  1  0
 23  3  1  0
M  END
>  <ID>  (1) 
conformer_0

$$$$
