
     RDKit          3D

 22 22  0  0  0  0  0  0  0  0999 V2000
   38.6274    4.9565   -3.9515 C   0  0  0  0  0  0  0  0  0  0  0  0
   36.0802    4.5095   -5.1673 C   0  0  0  0  0  0  0  0  0  0  0  0
   37.4724    5.4356   -4.3287 C   0  0  0  0  0  0  0  0  0  0  0  0
   33.7310    4.6200   -5.2075 C   0  0  0  0  0  0  0  0  0  0  0  0
   31.1416    4.5740   -7.4924 C   0  0  0  0  0  0  0  0  0  0  0  0
   29.2702    2.8417   -8.3016 C   0  0  0  0  0  0  0  0  0  0  0  0
   37.5326    3.6373   -5.4990 C   0  0  0  0  0  0  0  0  0  0  0  0
   30.9461    2.1919   -5.9631 C   0  0  0  0  0  0  0  0  0  0  0  0
   33.1405    4.8269   -6.3166 C   0  0  0  0  0  0  0  0  0  0  0  0
   28.1328    1.1703   -3.6606 O   0  0  0  0  0  0  0  0  0  0  0  0
   26.7790    1.7770  -10.0566 C   0  0  0  0  0  0  0  0  0  0  0  0
   32.1170    1.6150   -6.0948 O   0  0  0  0  0  0  0  0  0  0  0  0
   29.9361    2.3643   -6.0860 N   0  0  0  0  0  0  0  0  0  0  0  0
   30.0415    1.4440   -9.9836 O   0  0  0  0  0  0  0  0  0  0  0  0
   38.6472    3.6614   -4.5755 C   0  0  0  0  0  0  0  0  0  0  0  0
   29.3473    3.2319  -11.1284 O   0  0  0  0  0  1  0  0  0  0  0  0
   29.7134    2.6686   -9.8133 P   0  0  0  0  0  4  0  0  0  0  0  0
   27.9582    1.8862   -7.7187 O   0  0  0  0  0  0  0  0  0  0  0  0
   28.9680    1.3572   -4.6620 C   0  0  0  0  0  0  0  0  0  0  0  0
   35.8630    4.3268   -6.3602 C   0  0  0  0  0  0  0  0  0  0  0  0
   34.4403    4.6171   -7.1534 C   0  0  0  0  0  0  0  0  0  0  0  0
   31.4210    2.5850   -3.9248 C   0  0  0  0  0  0  0  0  0  0  0  0
  3  1  2  0
  3  2  1  0
  6  5  1  0
  7  2  2  0
  9  4  1  0
  9  5  1  0
 11  6  1  0
 12  8  2  0
 13  8  1  0
 15  1  1  0
 15  7  1  0
 17  6  1  0
 17 14  1  0
 17 16  1  0
 18  6  1  0
 19 10  1  0
 19 13  1  0
 20  2  1  0
 21  9  1  0
 21 20  1  0
 22  8  1  0
 22  9  1  0
M  RAD  2  16   2  17   2
M  END
>  <ID>  (1) 
conformer_0

$$$$
