
     RDKit          3D

 24 26  0  0  0  0  0  0  0  0999 V2000
   38.4614    5.4637   -3.8280 C   0  0  0  0  0  0  0  0  0  0  0  0
   33.5161    4.7724   -6.8327 C   0  0  0  0  0  0  0  0  0  0  0  0
   34.8499    4.7384   -4.8664 C   0  0  0  0  0  0  0  0  0  0  0  0
   26.5474    1.5276   -9.6390 C   0  0  0  0  0  0  0  0  0  0  0  0
   37.1798    5.4254   -4.2960 C   0  0  0  0  0  0  0  0  0  0  0  0
   38.9887    4.0876   -4.0991 C   0  0  0  0  0  0  0  0  0  0  0  0
   30.2877    1.8330   -5.2335 C   0  0  0  0  0  0  0  0  0  0  0  0
   31.2475    4.8517   -7.1811 C   0  0  0  0  0  0  0  0  0  0  0  0
   29.0811    1.3997   -3.7039 C   0  0  0  0  0  0  0  0  0  0  0  0
   35.8845    4.2228   -5.9860 C   0  0  0  0  0  0  0  0  0  0  0  0
   34.7746    4.4901   -7.3010 C   0  0  0  0  0  0  0  0  0  0  0  0
   29.5404    2.3991   -9.7919 P   0  0  0  0  0  0  0  0  0  0  0  0
   30.2305    2.5227   -6.0865 N   0  0  0  0  0  0  0  0  0  0  0  0
   32.2028    1.8797   -6.7337 O   0  0  0  0  0  0  0  0  0  0  0  0
   30.4307    1.9157  -10.1191 O   0  0  0  0  0  0  0  0  0  0  0  0
   28.3314    1.8166   -3.5335 O   0  0  0  0  0  0  0  0  0  0  0  0
   27.9101    2.0249   -9.9146 C   0  0  0  0  0  0  0  0  0  0  0  0
   33.4272    4.9477   -5.3953 C   0  0  0  0  0  0  0  0  0  0  0  0
   30.5698    1.5357   -3.9064 C   0  0  0  0  0  0  0  0  0  0  0  0
   30.1063    3.2260   -8.1275 C   0  0  0  0  0  0  0  0  0  0  0  0
   36.8124    4.0418   -5.1985 C   0  0  0  0  0  0  0  0  0  0  0  0
   38.1670    3.2955   -4.9909 C   0  0  0  0  0  0  0  0  0  0  0  0
   26.5761    1.5040  -11.0306 C   0  0  0  0  0  0  0  0  0  0  0  0
   31.6000    3.0106   -6.9657 C   0  0  0  0  0  0  0  0  0  0  0  0
  5  1  2  0
  6  1  1  0
  8  2  1  0
 10  3  2  0
 11  2  2  0
 11 10  1  0
 13  7  1  0
 15 12  1  0
 16  9  2  0
 17  4  1  0
 17 12  1  0
 18  2  1  0
 18  3  1  0
 19  7  1  0
 19  9  1  0
 20 12  1  0
 21  5  1  0
 21 10  1  0
 22  6  1  0
 22 21  2  0
 23  4  1  0
 23 17  1  0
 24  8  1  0
 24 13  1  0
 24 14  1  0
 24 20  1  0
M  END
>  <ID>  (1) 
conformer_0

$$$$
