
     RDKit          3D

 25 26  0  0  0  0  0  0  0  0999 V2000
   34.6170    4.5315   -7.2021 C   0  0  0  0  0  0  0  0  0  0  0  0
   37.2282    5.3534   -4.2367 C   0  0  0  0  0  0  0  0  0  0  0  0
   38.8211    3.7069   -4.4551 C   0  0  0  0  0  0  0  0  0  0  0  0
   35.7401    4.2805   -5.9598 C   0  0  0  0  0  0  0  0  0  0  0  0
   31.3110    4.6850   -7.5724 C   0  0  0  0  0  0  0  0  0  0  0  0
   30.1137    3.3114   -8.2139 C   0  0  0  0  0  0  0  0  0  0  0  0
   38.5430    5.0063   -3.9052 C   0  0  0  0  0  0  0  0  0  0  0  0
   28.8550    1.1371   -4.4392 C   0  0  0  0  0  0  0  0  0  0  0  0
   34.4160    4.7834   -4.8277 C   0  0  0  0  0  0  0  0  0  0  0  0
   33.3439    4.7367   -6.8910 C   0  0  0  0  0  0  0  0  0  0  0  0
   26.5675    1.6230  -10.1299 C   0  0  0  0  0  0  0  0  0  0  0  0
   31.8800    1.5742   -6.0688 O   0  0  0  0  0  0  0  0  0  0  0  0
   29.0064    3.0683  -11.0272 O   0  0  0  0  0  0  0  0  0  0  0  0
   29.9831    2.3300   -6.3572 N   0  0  0  0  0  0  0  0  0  0  0  0
   28.1102    1.6135   -3.5422 O   0  0  0  0  0  0  0  0  0  0  0  0
   30.8224    2.0589   -5.7438 C   0  0  0  0  0  0  0  0  0  0  0  0
   30.2669    1.7519  -10.0484 O   0  0  0  0  0  0  0  0  0  0  0  0
   33.0755    4.9214   -5.5084 C   0  0  0  0  0  0  0  0  0  0  0  0
   27.2004    0.6971   -4.9719 O   0  0  0  0  0  0  0  0  0  0  0  0
   30.6793    1.7877   -3.9730 C   0  0  0  0  0  0  0  0  0  0  0  0
   28.5015    2.3210   -9.0633 C   0  0  0  0  0  0  0  0  0  0  0  0
   27.7687    2.1440   -7.7936 O   0  0  0  0  0  0  0  0  0  0  0  0
   29.6306    2.5344   -9.9728 P   0  0  0  0  0  0  0  0  0  0  0  0
   36.5130    4.3417   -5.1735 C   0  0  0  0  0  0  0  0  0  0  0  0
   37.8761    3.3020   -5.3366 C   0  0  0  0  0  0  0  0  0  0  0  0
  4  1  2  0
  6  5  1  0
  7  2  2  0
  7  3  1  0
  9  4  1  0
 10  1  1  0
 10  5  1  0
 14  6  1  0
 15  8  2  0
 16 12  2  0
 16 14  1  0
 18  9  2  0
 18 10  1  0
 19  8  1  0
 20  8  1  0
 20 16  1  0
 21  6  1  0
 21 11  1  0
 22 21  1  0
 23 13  1  0
 23 17  1  0
 23 21  1  0
 24  2  1  0
 24  4  1  0
 25  3  2  0
 25 24  1  0
M  END
>  <ID>  (1) 
conformer_0

$$$$
