
     RDKit          3D

 24 26  0  0  0  0  0  0  0  0999 V2000
   36.2634    4.7398   -4.9174 C   0  0  0  0  0  0  0  0  0  0  0  0
   33.1819    4.7088   -6.8504 C   0  0  0  0  0  0  0  0  0  0  0  0
   37.3042    3.9855   -5.4310 C   0  0  0  0  0  3  0  0  0  0  0  0
   38.8546    4.7533   -3.8211 C   0  0  0  0  0  0  0  0  0  0  0  0
   26.8012    2.1661   -9.8433 C   0  0  0  0  0  0  0  0  0  0  0  0
   31.4869    4.1729   -7.5865 C   0  0  0  0  0  0  0  0  0  0  0  0
   34.4713    4.6289   -7.4271 C   0  0  0  0  0  0  0  0  0  0  0  0
   37.6955    5.5475   -3.8817 C   0  0  0  0  0  0  0  0  0  0  0  0
   28.5691    1.1924   -4.4266 C   0  0  0  0  0  0  0  0  0  0  0  0
   30.4079    2.4977   -6.1401 N   0  0  0  0  0  0  0  0  0  0  0  0
   31.0884    1.9716   -5.5659 C   0  0  0  0  0  0  0  0  0  0  0  0
   35.6061    4.4717   -6.5862 C   0  0  0  0  0  0  0  0  0  0  0  0
   27.6075    1.3006   -3.4347 O   0  0  0  0  0  0  0  0  0  0  0  0
   30.2992    1.5419   -9.8356 O   0  0  0  0  0  0  0  0  0  0  0  0
   29.2826    3.3363  -11.1359 O   0  0  0  0  0  0  0  0  0  0  0  0
   29.9077    2.6655   -9.5899 P   0  0  0  0  0  0  0  0  0  0  0  0
   32.0239    1.4152   -6.1564 O   0  0  0  0  0  0  0  0  0  0  0  0
   27.2603    0.4455   -5.2871 O   0  0  0  0  0  0  0  0  0  0  0  0
   30.0940    1.7082   -4.3542 C   0  0  0  0  0  0  0  0  0  0  0  0
   28.2878    2.7351   -9.5084 C   0  0  0  0  0  0  0  0  0  0  0  0
   38.6513    3.6202   -4.7110 C   0  0  0  0  0  0  0  0  0  0  0  0
   30.9919    3.2394   -7.8854 C   0  0  0  0  0  0  0  0  0  0  0  0
   34.5978    4.6192   -4.9206 C   0  0  0  0  0  0  0  0  0  0  0  0
   33.2764    4.7477   -5.3964 C   0  0  0  0  0  0  0  0  0  0  0  0
  3  1  1  0
  6  2  1  0
  7  2  2  0
  8  1  1  0
  8  4  1  0
 11 10  1  0
 12  1  1  0
 12  7  1  0
 13  9  2  0
 16 14  1  0
 16 15  1  0
 17 11  1  0
 18  9  1  0
 19  9  1  0
 19 11  1  0
 20  5  1  0
 20 16  1  0
 21  3  1  0
 21  4  2  0
 22  6  1  0
 22 11  1  0
 22 20  1  0
 23  1  1  0
 23 12  2  0
 24  2  1  0
 24 23  1  0
M  RAD  1   3   2
M  END
>  <ID>  (1) 
conformer_0

$$$$
