
     RDKit          3D

 27 28  0  0  0  0  0  0  0  0999 V2000
   37.3245    3.3139   -5.5213 C   0  0  0  0  0  3  0  0  0  0  0  0
   36.1898    4.2466   -5.3095 C   0  0  0  0  0  0  0  0  0  0  0  0
   39.0031    4.1063   -4.0254 C   0  0  0  0  0  0  0  0  0  0  0  0
   33.0613    4.8722   -5.5884 C   0  0  0  0  0  0  0  0  0  0  0  0
   38.2403    5.3612   -3.9289 C   0  0  0  0  0  0  0  0  0  0  0  0
   31.6163    4.9430   -7.2136 C   0  0  0  0  0  0  0  0  0  0  0  0
   26.2920    1.8781   -9.7767 C   0  0  0  0  0  0  0  0  0  0  0  0
   33.1902    4.7892   -6.9235 C   0  0  0  0  0  0  0  0  0  0  0  0
   31.0838    2.1928   -6.1018 C   0  0  0  0  0  0  0  0  0  0  0  0
   27.3845    1.9300   -8.3970 C   0  0  0  0  0  0  0  0  0  0  0  0
   28.0474    1.4776   -3.6939 O   0  0  0  0  0  0  0  0  0  0  0  0
   26.6084    1.5007   -7.2478 O   0  0  0  0  0  0  0  0  0  0  0  0
   29.9831    3.1526   -8.1253 C   0  0  0  0  0  0  0  0  0  0  0  0
   38.4910    3.0890   -4.8639 C   0  0  0  0  0  0  0  0  0  0  0  0
   29.4155    3.2122  -10.7787 O   0  0  0  0  0  1  0  0  0  0  0  0
   30.3337    1.6346   -9.6806 O   0  0  0  0  0  0  0  0  0  0  0  0
   30.4344    2.5372   -5.9306 N   0  0  0  0  0  0  0  0  0  0  0  0
   31.9925    1.4692   -6.2378 O   0  0  0  0  0  0  0  0  0  0  0  0
   30.6201    1.6120   -4.1536 C   0  0  0  0  0  0  0  0  0  0  0  0
   29.8794    2.6643   -9.5122 P   0  0  0  0  0  4  0  0  0  0  0  0
   34.4358    4.4652   -4.9216 C   0  0  0  0  0  0  0  0  0  0  0  0
   29.1054    1.3383   -4.3216 C   0  0  0  0  0  0  0  0  0  0  0  0
   28.6717    2.0706   -7.5978 N   0  0  0  0  0  0  0  0  0  0  0  0
   37.1249    5.1983   -4.5417 C   0  0  0  0  0  0  0  0  0  0  0  0
   35.5295    4.4272   -6.5440 C   0  0  0  0  0  0  0  0  0  0  0  0
   34.4426    4.7098   -7.4914 C   0  0  0  0  0  0  0  0  0  0  0  0
   31.0712    3.7013   -7.8983 C   0  0  0  0  0  0  0  0  0  0  0  0
  2  1  1  0
  5  3  1  0
  8  4  2  0
  8  6  1  0
 10  7  1  0
 12 10  2  0
 14  1  1  0
 14  3  2  0
 17  9  1  0
 18  9  2  0
 19 17  1  0
 20 13  1  0
 20 15  1  0
 20 16  1  0
 21  2  1  0
 21  4  1  0
 22 11  2  0
 22 19  1  0
 23 10  1  0
 23 13  1  0
 24  2  1  0
 24  5  2  0
 25  2  1  0
 26  8  1  0
 26 25  2  0
 27  6  1  0
 27  9  1  0
 27 13  1  0
M  RAD  3   1   2  15   2  20   2
M  END
>  <ID>  (1) 
conformer_0

$$$$
