
     RDKit          3D

 24 23  0  0  0  0  0  0  0  0999 V2000
   38.9371    3.7919   -4.2689 C   0  0  0  0  0  0  0  0  0  0  0  0
   37.9857    3.2507   -5.1437 C   0  0  0  0  0  0  0  0  0  0  0  0
   36.3019    4.1263   -5.6993 C   0  0  0  0  0  0  0  0  0  0  0  0
   30.7256    4.6356   -7.8595 C   0  0  0  0  0  0  0  0  0  0  0  0
   35.0501    4.5944   -5.1054 C   0  0  0  0  0  0  0  0  0  0  0  0
   33.4017    5.0165   -5.2394 C   0  0  0  0  0  0  0  0  0  0  0  0
   30.4648    3.2722   -7.9552 C   0  0  1  0  0  0  0  0  0  0  0  0
   26.6991    2.2060  -10.0337 C   0  0  0  0  0  0  0  0  0  0  0  0
   30.7481    2.0428   -6.0360 C   0  0  0  0  0  0  0  0  0  0  0  0
   37.1831    5.0133   -4.5656 C   0  0  0  0  0  0  0  0  0  0  0  0
   38.4587    5.2529   -3.9030 C   0  0  0  0  0  0  0  0  0  0  0  0
   28.4190    1.1250   -3.1647 O   0  0  0  0  0  0  0  0  0  0  0  0
   32.0443    1.5916   -6.2952 O   0  0  0  0  0  0  0  0  0  0  0  0
   29.9176    2.4072   -6.3045 N   0  0  0  0  0  0  0  0  0  0  0  0
   29.1914    3.1376  -10.9420 O   0  0  0  0  0  1  0  0  0  0  0  0
   30.3691    1.5984   -9.7408 O   0  0  0  0  0  0  0  0  0  0  0  0
   30.8593    1.7070   -4.2190 C   0  0  0  0  0  0  0  0  0  0  0  0
   33.4376    4.9177   -6.7297 C   0  0  0  0  0  0  0  0  0  0  0  0
   29.0684    1.2734   -4.4812 C   0  0  0  0  0  0  0  0  0  0  0  0
   28.2037    1.6296   -7.7077 O   0  0  0  0  0  0  0  0  0  0  0  0
   28.6053    2.7845   -9.3275 C   0  0  1  0  0  0  0  0  0  0  0  0
   34.7535    4.5423   -7.1402 C   0  0  0  0  0  0  0  0  0  0  0  0
   29.5298    2.4130   -9.6200 P   0  0  2  0  0  4  0  0  0  0  0  0
   31.6193    5.3352   -6.8998 C   0  0  0  0  0  0  0  0  0  0  0  0
  2  1  1  0
  5  3  1  0
  6  5  1  0
  7  4  1  1
 10  3  2  3
 11  1  2  3
 11 10  1  0
 13  9  2  0
 14  7  1  0
 14  9  1  0
 17  9  1  0
 18  6  2  3
 19 12  1  0
 19 17  1  0
 21  7  1  0
 21  8  1  6
 21 20  1  0
 22 18  1  0
 23 15  1  6
 23 16  1  0
 23 21  1  0
 24  4  1  0
 24 18  1  0
M  RAD  2  15   2  23   2
M  END
>  <ID>  (1) 
conformer_0

$$$$
