
     RDKit          3D

 25 26  0  0  0  0  0  0  0  0999 V2000
   34.4321    4.6504   -7.4355 C   0  0  0  0  0  0  0  0  0  0  0  0
   36.3537    4.2814   -5.0444 C   0  0  0  0  0  0  0  0  0  0  0  0
   33.0261    4.9834   -5.4888 C   0  0  0  0  0  0  0  0  0  0  0  0
   31.4869    5.1999   -7.1124 C   0  0  0  0  0  0  0  0  0  0  0  0
   35.5119    4.2732   -6.1207 C   0  0  0  0  0  0  0  0  0  0  0  0
   33.2345    4.9057   -6.8891 C   0  0  0  0  0  0  0  0  0  0  0  0
   29.7251    3.1820   -8.1363 C   0  0  0  0  0  0  0  0  0  0  0  0
   26.5249    1.7476  -10.4435 C   0  0  0  0  0  0  0  0  0  0  0  0
   29.3559    1.4804   -4.5472 C   0  0  0  0  0  0  0  0  0  0  0  0
   38.5446    4.9442   -3.8873 C   0  0  0  0  0  0  0  0  0  0  0  0
   37.3050    5.3746   -4.2269 C   0  0  0  0  0  0  0  0  0  0  0  0
   28.2217    1.4600   -3.6416 O   0  0  0  0  0  0  0  0  0  0  0  0
   30.0808    1.3932  -10.0127 O   0  0  0  0  0  0  0  0  0  0  0  0
   31.8356    1.4527   -5.9019 O   0  0  0  0  0  0  0  0  0  0  0  0
   30.7817    1.8651   -3.8448 C   0  0  0  0  0  0  0  0  0  0  0  0
   29.0123    3.1300  -11.0701 O   0  0  0  0  0  0  0  0  0  0  0  0
   29.7851    2.3671   -6.2781 N   0  0  0  0  0  0  0  0  0  0  0  0
   28.1234    2.1686   -9.5240 C   0  0  0  0  0  0  0  0  0  0  0  0
   38.7458    3.5502   -4.4336 C   0  0  0  0  0  0  0  0  0  0  0  0
   37.6206    3.2126   -5.1943 C   0  0  0  0  0  0  0  0  0  0  0  0
   27.8891    2.0888   -7.8614 O   0  0  0  0  0  0  0  0  0  0  0  0
   29.2774    2.3522   -9.7887 P   0  0  0  0  0  0  0  0  0  0  0  0
   30.5800    2.1833   -6.3332 C   0  0  0  0  0  0  0  0  0  0  0  0
   30.7153    4.3697   -7.8852 C   0  0  0  0  0  0  0  0  0  0  0  0
   34.4104    4.6030   -4.8791 C   0  0  0  0  0  0  0  0  0  0  0  0
  5  1  2  0
  5  2  1  0
  6  1  1  0
  6  3  1  0
  6  4  1  0
 11  2  2  0
 11 10  1  0
 12  9  2  0
 15  9  1  0
 17  9  1  0
 18  7  1  0
 18  8  1  0
 19 10  2  0
 20  2  1  0
 20 19  1  0
 21 18  1  0
 22 13  1  0
 22 16  1  0
 22 18  1  0
 23  7  1  0
 23 14  2  0
 23 17  1  0
 24  4  1  0
 24  7  1  0
 25  3  2  0
 25  5  1  0
M  END
>  <ID>  (1) 
conformer_0

$$$$
