
     RDKit          3D

 24 26  0  0  0  0  0  0  0  0999 V2000
   38.8091    4.8162   -3.8117 C   0  0  0  0  0  0  0  0  0  0  0  0
   37.4187    3.4263   -5.2914 C   0  0  0  0  0  0  0  0  0  0  0  0
   32.6368    4.6447   -6.4603 C   0  0  0  0  0  0  0  0  0  0  0  0
   33.7876    4.6868   -7.2836 C   0  0  0  0  0  0  0  0  0  0  0  0
   37.7319    5.7063   -3.9839 C   0  0  0  0  0  0  0  0  0  0  0  0
   31.2922    4.6660   -7.3977 C   0  0  0  0  0  0  0  0  0  0  0  0
   36.5494    4.9737   -4.5948 C   0  0  0  0  0  0  0  0  0  0  0  0
   29.9679    3.2865   -8.0421 C   0  0  0  0  0  0  0  0  0  0  0  0
   29.3442    1.2535   -4.2313 C   0  0  0  0  0  0  0  0  0  0  0  0
   30.7865    1.7056   -4.1350 C   0  0  0  0  0  0  0  0  0  0  0  0
   35.0443    4.4066   -6.8467 C   0  0  0  0  0  3  0  0  0  0  0  0
   26.5218    2.1696  -10.5024 C   0  0  0  0  0  0  0  0  0  0  0  0
   28.2505    1.3914   -3.4483 O   0  0  0  0  0  0  0  0  0  0  0  0
   30.0385    1.3913  -10.0398 O   0  0  0  0  0  0  0  0  0  0  0  0
   29.9158    2.2041   -6.2883 N   0  0  0  0  0  0  0  0  0  0  0  0
   29.4590    2.5816   -9.6714 P   0  0  0  0  0  0  0  0  0  0  0  0
   29.1314    3.2893  -11.0705 O   0  0  0  0  0  0  0  0  0  0  0  0
   31.9305    1.7028   -6.6126 O   0  0  0  0  0  0  0  0  0  0  0  0
   30.9691    2.1603   -6.1859 C   0  0  0  0  0  0  0  0  0  0  0  0
   38.5910    3.6601   -4.4921 C   0  0  0  0  0  0  0  0  0  0  0  0
   27.8031    2.5902   -9.6061 C   0  0  0  0  0  0  0  0  0  0  0  0
   35.8480    4.1537   -5.5626 C   0  0  0  0  0  0  0  0  0  0  0  0
   33.0759    4.8324   -5.1875 C   0  0  0  0  0  0  0  0  0  0  0  0
   34.4357    4.5657   -4.8591 C   0  0  0  0  0  0  0  0  0  0  0  0
  4  3  2  0
  5  1  2  0
  6  3  1  0
  7  2  2  0
  7  5  1  0
  8  6  1  0
 10  9  1  0
 11  4  1  0
 13  9  1  0
 15  8  1  0
 16 14  1  0
 17 16  1  0
 19 10  1  0
 19 15  1  0
 19 18  2  0
 20  1  1  0
 20  2  1  0
 21  8  1  0
 21 12  1  0
 21 16  1  0
 22  2  1  0
 22  7  1  0
 22 11  1  0
 23  3  1  0
 24 22  1  0
 24 23  2  0
M  RAD  1  11   2
M  END
>  <ID>  (1) 
conformer_0

$$$$
