
     RDKit          3D

 26 27  0  0  0  0  0  0  0  0999 V2000
   36.4025    4.1639   -5.4901 C   0  0  0  0  0  0  0  0  0  0  0  0
   39.0905    4.4531   -3.8614 C   0  0  0  0  0  0  0  0  0  0  0  0
   38.1677    5.5571   -3.9076 C   0  0  0  0  0  0  0  0  0  0  0  0
   37.0312    5.0968   -4.4218 C   0  0  0  0  0  0  0  0  0  0  0  0
   30.9364    4.3128   -7.9079 C   0  0  2  0  0  0  0  0  0  0  0  0
   33.0289    4.9952   -6.0727 C   0  0  0  0  0  0  0  0  0  0  0  0
   29.8777    3.5262   -8.7267 C   0  0  0  0  0  0  0  0  0  0  0  0
   28.4885    0.9647   -4.1419 C   0  0  0  0  0  0  0  0  0  0  0  0
   31.0147    2.1365   -4.2783 C   0  0  0  0  0  0  0  0  0  0  0  0
   37.7173    3.3260   -5.2954 C   0  0  0  0  0  0  0  0  0  0  0  0
   33.8161    4.7570   -7.2300 C   0  0  0  0  0  0  0  0  0  0  0  0
   27.9892    1.0627   -3.3281 O   0  0  0  0  0  0  0  0  0  0  0  0
   26.6699    2.1539  -10.0369 C   0  0  0  0  0  0  0  0  0  0  0  0
   31.3681    2.7133   -6.7938 C   0  0  0  0  0  0  0  0  0  0  0  0
   32.2674    1.7837   -6.6891 O   0  0  0  0  0  0  0  0  0  0  0  0
   30.1832    2.2554   -6.2980 N   0  0  0  0  0  0  0  0  0  0  0  0
   29.2764    3.4255  -10.9456 O   0  0  0  0  0  0  0  0  0  0  0  0
   35.0928    4.4565   -6.8430 C   0  0  0  0  0  0  0  0  0  0  0  0
   29.8986    1.4883  -10.1036 O   0  0  0  0  0  0  0  0  0  0  0  0
   27.4397    0.4138   -5.2428 O   0  0  0  0  0  0  0  0  0  0  0  0
   28.3847    2.6382   -9.7574 C   0  0  0  0  0  0  0  0  0  0  0  0
   38.7878    3.3069   -4.6232 C   0  0  0  0  0  0  0  0  0  0  0  0
   31.6905    4.9468   -7.1033 C   0  0  0  0  0  0  0  0  0  0  0  0
   35.1758    4.6182   -4.9632 C   0  0  0  0  0  0  0  0  0  0  0  0
   33.7044    5.0172   -4.8226 C   0  0  0  0  0  0  0  0  0  0  0  0
   30.2485    1.5889   -4.9990 C   0  0  0  0  0  0  0  0  0  0  0  0
  3  2  2  0
  4  1  2  0
  4  3  1  0
  5  7  1  1
 10  1  1  0
 11  6  2  0
 12  8  2  0
 14  5  1  0
 15 14  2  0
 16 14  1  0
 18 11  1  0
 20  8  1  0
 21  7  1  0
 21 13  1  0
 21 17  1  0
 21 19  1  0
 22  2  1  0
 22 10  2  0
 23  5  1  0
 23  6  1  0
 24  1  1  0
 24 18  2  0
 25  6  1  0
 25 24  1  0
 26  8  1  0
 26  9  2  3
 26 16  1  0
M  END
>  <ID>  (1) 
conformer_0

$$$$
