
     RDKit          3D

 26 29  0  0  0  0  0  0  0  0999 V2000
   34.6816    4.5139   -4.9864 C   0  0  0  0  0  0  0  0  0  0  0  0
   33.0303    4.6243   -6.6657 C   0  0  0  0  0  0  0  0  0  0  0  0
   39.1245    4.8182   -3.7125 C   0  0  0  0  0  0  0  0  0  0  0  0
   37.1096    5.2300   -4.4407 C   0  0  0  0  0  0  0  0  0  0  0  0
   31.5545    5.0078   -6.9758 C   0  0  0  0  0  0  0  0  0  0  0  0
   38.8094    3.5052   -4.3838 C   0  0  0  0  0  0  0  0  0  0  0  0
   34.0999    4.5192   -7.5372 C   0  0  0  0  0  0  0  0  0  0  0  0
   31.1385    2.2376   -6.3594 C   0  0  0  0  0  0  0  0  0  0  0  0
   26.4727    2.0709  -10.1135 C   0  0  0  0  0  0  0  0  0  0  0  0
   33.3250    4.8253   -5.2495 C   0  0  0  0  0  0  0  0  0  0  0  0
   29.3030    1.3627   -4.3986 C   0  0  0  0  0  0  0  0  0  0  0  0
   27.6500    2.3023   -9.2525 C   0  0  0  0  0  0  0  0  0  0  0  0
   30.1627    2.4440   -6.0602 N   0  0  0  0  0  0  0  0  0  0  0  0
   30.4098    1.8480   -9.9085 O   0  0  0  0  0  0  0  0  0  0  0  0
   27.9896    1.3353   -4.4805 O   0  0  0  0  0  0  0  0  0  0  0  0
   31.9713    1.5222   -6.5450 O   0  0  0  0  0  0  0  0  0  0  0  0
   37.7229    3.5534   -5.0856 C   0  0  0  0  0  0  0  0  0  0  0  0
   28.9087    3.3538  -10.6576 O   0  0  0  0  0  0  0  0  0  0  0  0
   30.1352    1.4936   -3.4293 C   0  0  0  0  0  0  0  0  0  0  0  0
   29.8327    2.5956   -9.4544 P   0  0  0  0  0  0  0  0  0  0  0  0
   30.1475    3.1781   -8.2674 C   0  0  0  0  0  0  0  0  0  0  0  0
   38.2264    5.8893   -3.9747 C   0  0  0  0  0  0  0  0  0  0  0  0
   27.7266    1.7062   -7.8153 O   0  0  0  0  0  0  0  0  0  0  0  0
   31.0026    4.1628   -7.8111 C   0  0  0  0  0  0  0  0  0  0  0  0
   36.1991    4.2978   -5.3763 C   0  0  0  0  0  0  0  0  0  0  0  0
   35.2520    4.3636   -6.8467 C   0  0  0  0  0  0  0  0  0  0  0  0
  5  2  1  0
  6  3  2  0
  7  2  2  0
 10  1  2  0
 10  2  1  0
 12  9  1  0
 13  8  1  0
 13 11  1  0
 15 11  2  0
 16  8  1  0
 17  4  2  0
 17  6  1  0
 18 12  1  0
 19 11  1  0
 20 14  1  0
 20 18  1  0
 21  8  1  0
 21 20  1  0
 22  3  1  0
 22  4  1  0
 23 12  2  0
 24  5  1  0
 24 21  1  0
 25  1  1  0
 25  4  1  0
 25 17  1  0
 26  1  1  0
 26  7  1  0
 26 25  1  0
M  END
>  <ID>  (1) 
conformer_0

$$$$
