
     RDKit          3D

 27 29  0  0  0  0  0  0  0  0999 V2000
   30.6535    3.9906   -7.9580 C   0  0  0  0  0  0  0  0  0  0  0  0
   37.4141    3.6971   -5.2666 C   0  0  0  0  0  0  0  0  0  0  0  0
   38.6069    3.2668   -4.7426 C   0  0  0  0  0  0  0  0  0  0  0  0
   34.4538    4.8532   -4.7400 C   0  0  0  0  0  0  0  0  0  0  0  0
   33.2805    5.0487   -5.3917 C   0  0  0  0  0  0  0  0  0  0  0  0
   39.1218    4.1494   -3.8128 C   0  0  0  0  0  0  0  0  0  0  0  0
   35.9986    4.3984   -5.1838 C   0  0  0  0  0  0  0  0  0  0  0  0
   30.9198    2.2618   -6.0518 C   0  0  0  0  0  0  0  0  0  0  0  0
   27.7782    1.9599   -9.1367 C   0  0  0  0  0  0  0  0  0  0  0  0
   26.4792    2.0149   -9.7031 C   0  0  0  0  0  0  0  0  0  0  0  0
   33.2417    4.7581   -6.7846 C   0  0  0  0  0  0  0  0  0  0  0  0
   31.0413    2.1280   -3.9734 C   0  0  0  0  0  0  0  0  0  0  0  0
   29.7275    3.1128  -10.6586 O   0  0  0  0  0  0  0  0  0  0  0  0
   29.3832    1.3764   -4.3420 C   0  0  0  0  0  0  0  0  0  0  0  0
   30.6405    2.8322   -5.8936 N   0  0  0  0  0  0  0  0  0  0  0  0
   28.8288    0.9614   -3.3656 O   0  0  0  0  0  0  0  0  0  0  0  0
   38.3913    5.4512   -3.6920 C   0  0  0  0  0  0  0  0  0  0  0  0
   30.6170    1.6561   -9.4659 O   0  0  0  0  0  0  0  0  0  0  0  0
   27.7112    1.2481   -4.5887 O   0  0  0  0  0  0  0  0  0  0  0  0
   31.9007    1.5102   -6.0625 O   0  0  0  0  0  0  0  0  0  0  0  0
   29.6727    2.4926   -9.5985 P   0  0  0  0  0  0  0  0  0  0  0  0
   35.4641    4.2338   -6.5193 C   0  0  0  0  0  3  0  0  0  0  0  0
   29.8257    3.0989   -8.3554 C   0  0  0  0  0  0  0  0  0  0  0  0
   31.5677    4.8965   -7.2084 C   0  0  0  0  0  0  0  0  0  0  0  0
   34.4284    4.5003   -7.4474 C   0  0  0  0  0  0  0  0  0  0  0  0
   28.9328    2.1356   -7.4730 N   0  0  0  0  0  0  0  0  0  0  0  0
   37.1604    5.2808   -4.2264 C   0  0  0  0  0  0  0  0  0  0  0  0
  3  2  2  0
  5  4  2  0
  6  3  1  0
  7  2  1  0
  7  4  1  0
  9  1  1  0
 10  9  1  0
 11  5  1  0
 12  5  1  0
 12  8  1  0
 14 12  1  0
 15  8  1  0
 16 14  1  0
 17  6  2  0
 19 14  1  0
 20  8  1  0
 21 13  1  0
 21 18  1  0
 22  7  1  0
 23  1  1  0
 23 21  1  0
 24  1  1  0
 24 11  1  0
 25 11  2  0
 25 22  1  0
 26 23  1  0
 27  2  1  0
 27  7  1  0
 27 17  1  0
M  RAD  1  22   2
M  END
>  <ID>  (1) 
conformer_0

$$$$
