
     RDKit          3D

 27 28  0  0  0  0  0  0  0  0999 V2000
   37.2289    5.2989   -4.2062 C   0  0  0  0  0  0  0  0  0  0  0  0
   37.8771    3.3250   -5.3468 C   0  0  0  0  0  0  0  0  0  0  0  0
   38.4922    5.0619   -3.8711 C   0  0  0  0  0  0  0  0  0  0  0  0
   33.8576    4.9383   -4.9404 C   0  0  0  0  0  0  0  0  0  0  0  0
   30.8455    4.1499   -7.8159 C   0  0  0  0  0  0  0  0  0  0  0  0
   32.9775    5.0426   -6.0033 C   0  0  0  0  0  0  0  0  0  0  0  0
   28.6985    1.2618   -4.3798 C   0  0  0  0  0  0  0  0  0  0  0  0
   38.8269    3.7897   -4.4548 C   0  0  0  0  0  0  0  0  0  0  0  0
   29.8799    3.4457   -8.6720 C   0  0  2  0  0  0  0  0  0  0  0  0
   28.2228    1.5201   -3.5181 O   0  0  0  0  0  0  0  0  0  0  0  0
   26.3732    1.8461  -10.2598 C   0  0  0  0  0  0  0  0  0  0  0  0
   30.1760    2.2984   -6.0394 N   0  0  0  0  0  0  0  0  0  0  0  0
   29.6049    3.2627  -10.7128 O   0  0  0  0  0  0  0  0  0  0  0  0
   36.5091    4.1032   -5.5318 C   0  0  0  0  0  0  0  0  0  0  0  0
   27.3543    2.0424   -9.3535 C   0  0  0  0  0  0  0  0  0  0  0  0
   30.4439    1.6426   -9.5812 O   0  0  0  0  0  0  0  0  0  0  0  0
   32.2881    1.6298   -6.6906 O   0  0  0  0  0  0  0  0  0  0  0  0
   30.9223    2.0557   -3.9703 C   0  0  0  0  0  0  0  0  0  0  0  0
   33.6716    4.7296   -7.2261 C   0  0  0  0  0  0  0  0  0  0  0  0
   31.4624    2.6893   -6.9304 C   0  0  0  0  0  0  0  0  0  0  0  0
   29.7467    2.4790   -9.5607 P   0  0  0  0  0  0  0  0  0  0  0  0
   27.3641    0.8128   -5.3432 O   0  0  0  0  0  0  0  0  0  0  0  0
   35.5501    4.5424   -5.1648 C   0  0  1  0  0  0  0  0  0  0  0  0
   34.9112    4.4292   -6.9871 C   0  0  0  0  0  0  0  0  0  0  0  0
   27.4407    1.8142   -7.9904 O   0  0  0  0  0  0  0  0  0  0  0  0
   31.6952    5.1117   -7.0830 C   0  0  0  0  0  0  0  0  0  0  0  0
   30.5882    1.8112   -5.0042 C   0  0  1  0  0  0  0  0  0  0  0  0
  3  1  2  0
  6  4  2  0
  8  2  2  0
  8  3  1  0
  9  5  1  0
 10  7  2  0
 14  1  1  0
 14  2  1  0
 15  9  1  0
 15 11  2  3
 19  6  1  0
 20  5  1  0
 20 12  1  0
 20 17  2  0
  9 21  1  1
 21 13  1  0
 21 16  1  0
 22  7  1  0
 23  4  1  0
 23 14  1  1
 24 19  2  0
 24 23  1  0
 25 15  1  0
 26  5  2  3
 26  6  1  0
 27  7  1  0
 27 12  1  0
 27 18  1  1
M  END
>  <ID>  (1) 
conformer_0

$$$$
