
     RDKit          3D

 20 20  0  0  0  0  0  0  0  0999 V2000
   36.1572    4.6486   -5.3349 C   0  0  0  0  0  0  0  0  0  0  0  0
   33.7636    4.7007   -5.5042 C   0  0  0  0  0  0  0  0  0  0  0  0
   38.7139    4.4407   -4.0809 C   0  0  0  0  0  0  0  0  0  0  0  0
   37.6799    5.3752   -4.2168 C   0  0  0  0  0  0  0  0  0  0  0  0
   31.6051    4.7987   -7.1881 C   0  0  2  0  0  0  0  0  0  0  0  0
   26.6243    1.6157  -10.1175 C   0  0  0  0  0  0  0  0  0  0  0  0
   30.7739    2.7681   -6.8387 C   0  0  1  0  0  0  0  0  0  0  0  0
   34.9933    4.6136   -6.9742 C   0  0  1  0  0  0  0  0  0  0  0  0
   29.3103    1.5817   -4.4861 C   0  0  1  0  0  0  0  0  0  0  0  0
   30.2701    2.7166   -6.1317 N   0  0  0  0  0  0  0  0  0  0  0  0
   28.6720    2.6741   -8.7338 C   0  0  1  0  0  0  0  0  0  0  0  0
   33.3975    4.8306   -6.9099 C   0  0  0  0  0  0  0  0  0  0  0  0
   32.0036    1.5144   -6.1362 O   0  0  0  0  0  0  0  0  0  0  0  0
   30.5617    1.7815   -9.6066 O   0  0  0  0  0  0  0  0  0  0  0  0
   29.1487    3.2692  -10.6220 O   0  0  0  0  0  0  0  0  0  0  0  0
   30.5466    1.6848   -3.7820 C   0  0  0  0  0  0  0  0  0  0  0  0
   28.0060    1.0553   -3.7760 O   0  0  0  0  0  0  0  0  0  0  0  0
   38.3935    3.3312   -5.0284 C   0  0  0  0  0  0  0  0  0  0  0  0
   36.9775    3.9285   -5.7204 C   0  0  0  0  0  0  0  0  0  0  0  0
   29.9140    2.5749   -9.2676 P   0  0  0  0  0  0  0  0  0  0  0  0
  4  3  1  0
  7  5  1  0
  8  1  1  1
  8  2  1  0
  9  7  1  0
  7 10  1  6
 11  5  1  0
 11  6  1  6
 12  2  2  0
  5 12  1  6
 12  8  1  0
 13  7  1  0
  9 16  1  1
 17  9  1  0
 18  3  2  3
 19  1  2  3
 19 18  1  0
 20 11  1  0
 20 14  1  0
 20 15  1  0
M  END
>  <ID>  (1) 
conformer_0

$$$$
