
     RDKit          3D

 24 23  0  0  0  0  0  0  0  0999 V2000
   36.3334    4.1669   -5.6946 C   0  0  0  0  0  0  0  0  0  0  0  0
   35.4563    4.5564   -5.2157 C   0  0  0  0  0  0  0  0  0  0  0  0
   33.2284    4.7243   -6.5794 C   0  0  0  0  0  0  0  0  0  0  0  0
   30.8892    4.0378   -7.6445 C   0  0  0  0  0  0  0  0  0  0  0  0
   37.7616    3.3325   -5.3386 C   0  0  0  0  0  0  0  0  0  0  0  0
   29.5383    2.7046   -7.9375 C   0  0  0  0  0  0  0  0  0  0  0  0
   38.7663    3.6482   -4.5403 C   0  0  0  0  0  0  0  0  0  0  0  0
   30.3666    1.3705   -3.7095 C   0  0  0  0  0  0  0  0  0  0  0  0
   26.5384    1.9885  -10.2659 C   0  0  0  0  0  0  0  0  0  0  0  0
   31.0099    2.3131   -6.2773 C   0  0  1  0  0  0  0  0  0  0  0  0
   28.1861    1.8682   -3.8717 O   0  0  0  0  0  0  0  0  0  0  0  0
   33.5575    4.8772   -5.2011 C   0  0  0  0  0  0  0  0  0  0  0  0
   28.9118    1.2668   -4.2965 C   0  0  0  0  0  0  0  0  0  0  0  0
   32.1486    1.6831   -6.4778 O   0  0  0  0  0  0  0  0  0  0  0  0
   30.7942    3.0876  -10.3260 O   0  0  0  0  0  0  0  0  0  0  0  0
   29.7709    2.1075   -6.1485 N   0  0  0  0  0  0  0  0  0  0  0  0
   28.7930    2.9862  -11.4343 O   0  0  0  0  0  0  0  0  0  0  0  0
   38.5639    4.9812   -3.9403 C   0  0  0  0  0  0  0  0  0  0  0  0
   34.5324    4.5366   -7.1018 C   0  0  0  0  0  0  0  0  0  0  0  0
   29.6449    2.6220   -9.7983 P   0  0  0  0  0  0  0  0  0  0  0  0
   31.6419    4.9998   -7.0846 C   0  0  0  0  0  0  0  0  0  0  0  0
   28.1694    2.4546   -9.5219 C   0  0  0  0  0  0  0  0  0  0  0  0
   37.3362    5.2042   -4.3297 C   0  0  0  0  0  0  0  0  0  0  0  0
   29.9040    1.3004  -10.0473 O   0  0  0  0  0  0  0  0  0  0  0  0
  2  1  1  0
  5  1  1  0
  6  4  2  0
  7  5  2  3
 10  8  1  0
 12  2  1  0
 12  3  2  3
 13  8  1  0
 13 11  2  0
 10 14  1  6
 16  6  1  0
 16 10  1  0
 18  7  1  0
 19  3  1  0
 20 15  1  0
 21  3  1  0
 21  4  2  0
 22  6  1  0
 22  9  1  0
 22 17  1  0
 22 20  1  0
 23 18  2  3
 24 20  1  0
M  END
>  <ID>  (1) 
conformer_0

$$$$
