
     RDKit          3D

 23 23  0  0  0  0  0  0  0  0999 V2000
   38.3975    4.8649   -3.8444 C   0  0  0  0  0  0  0  0  0  0  0  0
   37.8019    3.1873   -5.3642 C   0  0  0  0  0  0  0  0  0  0  0  0
   33.2420    4.8895   -5.1812 C   0  0  0  0  0  0  0  0  0  0  0  0
   30.7570    4.6731   -7.8583 C   0  0  0  0  0  0  0  0  0  0  0  0
   37.0485    4.8792   -4.6077 C   0  0  0  0  0  0  0  0  0  0  0  0
   30.0059    3.1513   -8.4140 C   0  0  1  0  0  0  0  0  0  0  0  0
   38.8237    3.5510   -4.3545 C   0  0  0  0  0  0  0  0  0  0  0  0
   34.8390    4.5495   -5.0992 C   0  0  0  0  0  0  0  0  0  0  0  0
   29.6162    1.6948   -4.3216 C   0  0  0  0  0  0  0  0  0  0  0  0
   28.3389    2.1159   -9.0376 C   0  0  2  0  0  0  0  0  0  0  0  0
   29.8228    1.1859  -10.4412 O   0  0  0  0  0  0  0  0  0  0  0  0
   26.8168    1.8509  -10.1992 C   0  0  0  0  0  0  0  0  0  0  0  0
   36.1693    4.1197   -5.7903 C   0  0  0  0  0  0  0  0  0  0  0  0
   28.2465    1.6076   -3.6364 O   0  0  0  0  0  0  0  0  0  0  0  0
   29.8760    3.2886  -10.4977 O   0  0  0  0  0  0  0  0  0  0  0  0
   29.9682    2.4912   -6.3807 N   0  0  0  0  0  0  0  0  0  0  0  0
   31.9130    1.6653   -6.7343 O   0  0  0  0  0  0  0  0  0  0  0  0
   30.8099    1.7908   -3.8066 C   0  0  0  0  0  0  0  0  0  0  0  0
   33.2293    4.8439   -6.6375 C   0  0  0  0  0  0  0  0  0  0  0  0
   34.5568    4.5121   -7.0795 C   0  0  0  0  0  0  0  0  0  0  0  0
   30.7890    2.3330   -6.5982 C   0  0  2  0  0  0  0  0  0  0  0  0
   27.6255    2.1389   -7.5840 O   0  0  0  0  0  0  0  0  0  0  0  0
   31.5446    5.1644   -7.0539 C   0  0  0  0  0  0  0  0  0  0  0  0
  5  1  2  0
  6  4  1  1
  7  1  1  0
  7  2  1  0
  8  3  1  0
 10  6  1  0
 10 12  1  6
 13  2  2  0
 13  5  1  0
 13  8  1  0
 14  9  1  0
 15  6  1  0
 15 11  1  0
 18  9  2  3
 19  3  2  3
 20 19  1  0
 21  6  1  0
 21  9  1  0
 21 16  1  1
 21 17  1  0
 22 10  1  0
 23  4  1  0
 23 19  1  0
M  END
>  <ID>  (1) 
conformer_0

$$$$
