
     RDKit          3D

 23 23  0  0  0  0  0  0  0  0999 V2000
   37.9305    3.2385   -5.1120 C   0  0  0  0  0  0  0  0  0  0  0  0
   38.9063    3.7814   -4.2125 C   0  0  0  0  0  0  0  0  0  0  0  0
   36.4601    4.0971   -5.4746 C   0  0  0  0  0  0  0  0  0  0  0  0
   37.3348    5.4188   -4.2673 C   0  0  0  0  0  0  0  0  0  0  0  0
   31.7030    4.4823   -7.2772 C   0  0  0  0  0  0  0  0  0  0  0  0
   38.5989    5.1643   -3.8537 C   0  0  0  0  0  0  0  0  0  0  0  0
   30.3179    2.9628   -7.6849 C   0  0  0  0  0  0  0  0  0  0  0  0
   29.0685    1.3628   -4.7865 C   0  0  0  0  0  0  0  0  0  0  0  0
   28.4465    1.2805   -3.8526 O   0  0  0  0  0  0  0  0  0  0  0  0
   26.7937    2.0990  -10.2249 C   0  0  0  0  0  0  0  0  0  0  0  0
   33.2086    4.9107   -5.8320 C   0  0  0  0  0  0  0  0  0  0  0  0
   33.8229    4.8449   -7.1880 C   0  0  0  0  0  0  0  0  0  0  0  0
   32.1601    1.6738   -6.1359 O   0  0  0  0  0  0  0  0  0  0  0  0
   29.8553    2.2915   -6.2922 N   0  0  0  0  0  0  0  0  0  0  0  0
   29.0092    3.3550  -11.3637 O   0  0  0  0  0  0  0  0  0  0  0  0
   31.1202    2.3136   -3.9544 C   0  0  0  0  0  0  0  0  0  0  0  0
   31.1081    2.1620   -5.7854 C   0  0  0  0  0  0  0  0  0  0  0  0
   30.4948    2.0130  -10.1643 O   0  0  0  0  0  0  0  0  0  0  0  0
   35.1244    4.6019   -6.9551 C   0  0  0  0  0  0  0  0  0  0  0  0
   29.7535    2.6124   -9.9540 P   0  0  0  0  0  0  0  0  0  0  0  0
   28.7387    2.6262   -9.4165 C   0  0  0  0  0  0  0  0  0  0  0  0
   35.8059    4.5860   -4.9795 C   0  0  0  0  0  0  0  0  0  0  0  0
   34.1370    4.8180   -4.7395 C   0  0  0  0  0  0  0  0  0  0  0  0
  2  1  2  0
  3  1  1  0
  6  2  1  0
  6  4  2  0
  7  5  1  0
  9  8  1  0
 11  5  1  0
 12 11  1  0
 14  7  1  0
 16  8  1  0
 17 13  2  0
 17 14  1  0
 17 16  1  0
 19 12  1  0
 20 15  1  0
 20 18  1  0
 21  7  1  0
 21 10  1  0
 21 20  1  0
 22  3  2  0
 22  4  1  0
 23 11  1  0
 23 22  1  0
M  END
>  <ID>  (1) 
conformer_0

$$$$
