
     RDKit          3D

 23 23  0  0  0  0  0  0  0  0999 V2000
   38.2371    5.4176   -3.8758 C   0  0  0  0  0  0  0  0  0  0  0  0
   37.5423    4.8646   -4.4341 C   0  0  0  0  0  0  0  0  0  0  0  0
   33.3508    4.6782   -7.2114 C   0  0  0  0  0  0  0  0  0  0  0  0
   36.0845    4.5780   -5.0151 C   0  0  0  0  0  0  0  0  0  0  0  0
   31.2799    4.2245   -7.7750 C   0  0  1  0  0  0  0  0  0  0  0  0
   33.0370    4.7383   -5.8400 C   0  0  0  0  0  0  0  0  0  0  0  0
   38.9499    3.7797   -4.2947 C   0  0  0  0  0  0  0  0  0  0  0  0
   29.4047    1.5386   -4.5168 C   0  0  1  0  0  0  0  0  0  0  0  0
   29.9815    3.2620   -8.8690 C   0  0  0  0  0  0  0  0  0  0  0  0
   26.3565    1.8773   -9.4438 C   0  0  0  0  0  0  0  0  0  0  0  0
   28.2380    1.9512   -3.9094 O   0  0  0  0  0  0  0  0  0  0  0  0
   33.9737    4.6178   -4.9246 C   0  0  0  0  0  0  0  0  0  0  0  0
   30.1543    2.3967   -6.1125 N   0  0  0  0  0  0  0  0  0  0  0  0
   30.0380    1.4835  -10.0259 O   0  0  0  0  0  0  0  0  0  0  0  0
   37.8707    3.2017   -5.2443 C   0  0  0  0  0  0  0  0  0  0  0  0
   28.9955    3.1731  -10.8936 O   0  0  0  0  0  0  0  0  0  0  0  0
   27.5146    2.0265   -8.7553 C   0  0  0  0  0  0  0  0  0  0  0  0
   31.9538    1.5750   -6.4839 O   0  0  0  0  0  0  0  0  0  0  0  0
   30.7629    1.8507   -3.7461 C   0  0  0  0  0  0  0  0  0  0  0  0
   30.8842    2.2808   -6.4485 C   0  0  0  0  0  0  0  0  0  0  0  0
   35.7417    4.2270   -5.9704 C   0  0  0  0  0  0  0  0  0  0  0  0
   34.6430    4.6173   -7.3720 C   0  0  0  0  0  0  0  0  0  0  0  0
   27.8056    1.5639   -6.8599 O   0  0  0  0  0  0  0  0  0  0  0  0
  2  1  1  0
  4  2  1  0
  5  3  1  0
  6  3  2  3
  7  2  1  0
  5  9  1  6
 11  8  1  0
 12  6  1  0
 13  8  1  0
 14  9  1  0
 15  2  1  0
 15  7  2  0
 16  9  1  0
 17  9  1  0
 17 10  2  3
  8 19  1  1
 20  5  1  0
 20 13  1  0
 20 18  2  0
 21  4  1  0
 22  3  1  0
 22 21  1  0
 23 17  1  0
M  END
>  <ID>  (1) 
conformer_0

$$$$
