
     RDKit          3D

 22 22  0  0  0  0  0  0  0  0999 V2000
   34.4493    4.6439   -7.2937 C   0  0  0  0  0  0  0  0  0  0  0  0
   37.5293    5.4896   -4.1939 C   0  0  0  0  0  0  0  0  0  0  0  0
   38.6201    3.5538   -4.6052 C   0  0  0  0  0  0  0  0  0  0  0  0
   31.7167    4.5282   -7.4291 C   0  0  0  0  0  0  0  0  0  0  0  0
   38.6816    4.9186   -3.8862 C   0  0  0  0  0  0  0  0  0  0  0  0
   35.9843    4.6646   -4.9637 C   0  0  0  0  0  0  0  0  0  0  0  0
   27.8444    2.4482   -9.2992 C   0  0  0  0  0  0  0  0  0  0  0  0
   30.2691    1.3723   -3.7688 C   0  0  0  0  0  0  0  0  0  0  0  0
   26.3830    2.1364  -10.2174 C   0  0  0  0  0  0  0  0  0  0  0  0
   27.8189    1.1714   -3.3048 O   0  0  0  0  0  0  0  0  0  0  0  0
   37.4637    3.6849   -5.3233 C   0  0  0  0  0  0  0  0  0  0  0  0
   35.7622    4.3813   -6.1439 C   0  0  0  0  0  0  0  0  0  0  0  0
   31.0754    2.2775   -6.0535 C   0  0  2  0  0  0  0  0  0  0  0  0
   32.0782    1.5543   -6.2713 O   0  0  0  0  0  0  0  0  0  0  0  0
   29.0488    1.1544   -4.1238 C   0  0  0  0  0  0  0  0  0  0  0  0
   30.1145    1.3312  -10.0042 O   0  0  0  0  0  0  0  0  0  0  0  0
   30.3007    2.5367   -6.0108 N   0  0  0  0  0  0  0  0  0  0  0  0
   29.3063    3.1823  -10.8507 O   0  0  0  0  0  0  0  0  0  0  0  0
   33.9282    4.7644   -5.0379 C   0  0  0  0  0  0  0  0  0  0  0  0
   33.3754    4.7870   -6.3925 C   0  0  0  0  0  0  0  0  0  0  0  0
   29.8246    3.1610   -8.7210 C   0  0  0  0  0  0  0  0  0  0  0  0
   31.0085    3.6723   -8.1005 C   0  0  1  0  0  0  0  0  0  0  0  0
  5  2  2  0
  5  3  1  0
  6  2  1  0
  9  7  1  0
 11  3  2  0
 11  6  1  0
 12  1  1  0
 12  6  1  0
 13  8  1  0
 14 13  1  0
 15  8  1  0
 15 10  1  0
 13 17  1  6
 20  1  2  3
 20  4  1  0
 20 19  1  0
 21  7  1  0
 21 16  1  0
 21 18  1  0
 22  4  1  1
 22 13  1  0
 22 21  1  0
M  END
>  <ID>  (1) 
conformer_0

$$$$
