
     RDKit          3D

 27 29  0  0  0  0  0  0  0  0999 V2000
   37.6283    3.4433   -5.3736 C   0  0  0  0  0  0  0  0  0  0  0  0
   36.2038    4.3901   -5.4593 C   0  0  0  0  0  0  0  0  0  0  0  0
   38.6720    3.2232   -4.6020 C   0  0  0  0  0  0  0  0  0  0  0  0
   33.1669    5.3078   -5.4878 C   0  0  0  0  0  0  0  0  0  0  0  0
   30.8359    4.4768   -7.9621 C   0  0  0  0  0  0  0  0  0  0  0  0
   39.0411    4.2950   -3.7643 C   0  0  0  0  0  0  0  0  0  0  0  0
   30.2797    3.3802   -8.2442 C   0  0  0  0  0  0  0  0  0  0  0  0
   28.7165    1.2087   -4.4863 C   0  0  0  0  0  0  0  0  0  0  0  0
   26.4968    1.3841  -10.3363 C   0  0  0  0  0  0  0  0  0  0  0  0
   33.1063    4.9258   -6.7663 C   0  0  0  0  0  0  0  0  0  0  0  0
   35.4081    4.4892   -6.7131 C   0  0  0  0  0  0  0  0  0  0  0  0
   27.4787    1.1228   -3.5308 O   0  0  0  0  0  0  0  0  0  0  0  0
   29.8515    1.3827  -10.4849 O   0  0  0  0  0  0  0  0  0  0  0  0
   29.2477    1.7337   -6.3785 N   0  0  0  0  0  0  0  0  0  0  0  0
   31.8255    1.6173   -6.3605 O   0  0  0  0  0  0  0  0  0  0  0  0
   29.1943    3.4451  -10.8793 O   0  0  0  0  0  0  0  0  0  0  0  0
   29.4838    2.4403   -9.9779 P   0  0  0  0  0  0  0  0  0  0  0  0
   30.6297    2.1267   -6.1402 C   0  0  0  0  0  0  0  0  0  0  0  0
   34.5627    4.8396   -5.0099 C   0  0  0  0  0  0  0  0  0  0  0  0
   30.2116    1.5553   -4.1432 C   0  0  0  0  0  0  0  0  0  0  0  0
   27.3850    1.7801   -7.4501 O   0  0  0  0  0  0  0  0  0  0  0  0
   34.2711    4.6954   -7.4667 C   0  0  0  0  0  0  0  0  0  0  0  0
   28.2198    2.1784   -8.9680 C   0  0  0  0  0  0  0  0  0  0  0  0
   31.6989    5.1610   -7.1671 C   0  0  0  0  0  0  0  0  0  0  0  0
   37.1515    5.2293   -4.6429 C   0  0  0  0  0  3  0  0  0  0  0  0
   38.2303    5.5598   -3.9120 C   0  0  0  0  0  0  0  0  0  0  0  0
   30.7006    3.0973   -6.3846 N   0  0  0  0  0  0  0  0  0  0  0  0
  2  1  1  0
  3  1  1  0
  6  3  2  0
  7  5  1  0
 10  4  2  0
 11  2  1  0
 12  8  2  0
 14  8  1  0
 17 13  1  0
 17 16  1  0
 18 14  1  0
 18 15  2  0
 19  2  1  0
 19  4  1  0
 19 11  1  0
 20  8  1  0
 22 10  1  0
 22 11  2  0
 23  7  1  0
 23  9  1  0
 23 17  1  0
 23 21  1  0
 24  5  1  0
 24 10  1  0
 25  2  1  0
 26  6  1  0
 26 25  2  0
 27  7  1  0
 27 18  1  0
M  RAD  1  25   2
M  END
>  <ID>  (1) 
conformer_0

$$$$
