
     RDKit          3D

 29 31  0  0  0  0  0  0  0  0999 V2000
   39.0003    4.3200   -3.7544 C   0  0  0  0  0  0  0  0  0  0  0  0
   33.0821    5.0840   -5.2645 C   0  0  0  0  0  0  0  0  0  0  0  0
   38.7979    3.3884   -4.6722 C   0  0  0  0  0  0  0  0  0  0  0  0
   38.3383    5.6008   -3.7539 C   0  0  0  0  0  0  0  0  0  0  0  0
   31.7657    4.6450   -7.0807 C   0  0  0  0  0  0  0  0  0  0  0  0
   36.9610    5.3285   -4.0877 C   0  0  0  0  0  0  0  0  0  0  0  0
   32.9834    4.6823   -6.5534 C   0  0  0  0  0  0  0  0  0  0  0  0
   28.8416    1.1921   -4.1720 C   0  0  0  0  0  0  0  0  0  0  0  0
   26.4779    2.2073  -10.3527 C   0  0  0  0  0  0  0  0  0  0  0  0
   36.7448    4.3641   -5.0471 C   0  0  0  0  0  0  0  0  0  0  0  0
   28.6152    1.5008   -3.4070 O   0  0  0  0  0  0  0  0  0  0  0  0
   27.8738    2.4138   -8.0724 O   0  0  0  0  0  0  0  0  0  0  0  0
   31.9565    1.5339   -6.2267 O   0  0  0  0  0  0  0  0  0  0  0  0
   30.1496    1.7488   -9.8932 O   0  0  0  0  0  0  0  0  0  0  0  0
   30.0125    2.3239   -5.9842 N   0  0  0  0  0  0  0  0  0  0  0  0
   30.5227    1.6560   -5.1098 C   0  0  0  0  0  0  0  0  0  0  0  0
   29.6004    2.7567   -9.7916 P   0  0  0  0  0  0  0  0  0  0  0  0
   29.0782    3.1712  -11.3659 O   0  0  0  0  0  0  0  0  0  0  0  0
   31.2001    2.2511   -3.9152 C   0  0  0  0  0  0  0  0  0  0  0  0
   34.0254    4.7105   -7.4213 C   0  0  0  0  0  0  0  0  0  0  0  0
   27.6470    0.6512   -4.9044 O   0  0  0  0  0  0  0  0  0  0  0  0
   30.0793    3.6451   -8.7952 C   0  0  0  0  0  0  0  0  0  0  0  0
   27.6028    2.4161   -9.9857 C   0  0  0  0  0  0  0  0  0  0  0  0
   34.4115    4.6739   -4.6358 C   0  0  0  0  0  0  0  0  0  0  0  0
   37.5496    3.3696   -5.3630 C   0  0  0  0  0  0  0  0  0  0  0  0
   30.9966    3.9112   -8.0889 C   0  0  0  0  0  0  0  0  0  0  0  0
   35.4175    4.4142   -5.5713 C   0  0  0  0  0  0  0  0  0  0  0  0
   35.3256    4.3375   -6.9812 C   0  0  0  0  0  0  0  0  0  0  0  0
   31.3320    2.7425   -6.7094 C   0  0  0  0  0  0  0  0  0  0  0  0
  3  1  2  0
  4  1  1  0
  6  4  2  0
  7  2  2  0
  7  5  1  0
 10  6  1  0
 11  8  2  0
 16  8  1  0
 16 13  1  0
 16 15  1  0
 17 14  1  0
 18 17  1  0
 19 16  1  0
 20  7  1  0
 21  8  1  0
 22 17  1  0
 23  9  1  0
 23 12  2  0
 23 18  1  0
 24  2  1  0
 25  3  1  0
 25 10  2  0
 26  5  1  0
 26 22  1  0
 27 10  1  0
 27 24  2  0
 28 20  2  0
 28 27  1  0
 29 13  1  0
 29 15  1  0
 29 26  1  0
M  END
>  <ID>  (1) 
conformer_0

$$$$
