
     RDKit          3D

 26 28  0  0  0  0  0  0  0  0999 V2000
   36.1820    4.2789   -5.4840 C   0  0  0  0  0  0  0  0  0  0  0  0
   37.0781    5.1114   -4.6285 C   0  0  0  0  0  0  0  0  0  0  0  0
   38.1587    5.6801   -4.0122 C   0  0  0  0  0  0  0  0  0  0  0  0
   33.3280    4.9370   -4.9873 C   0  0  0  0  0  0  0  0  0  0  0  0
   31.7422    4.3316   -7.4501 C   0  0  0  0  0  0  0  0  0  0  0  0
   26.5136    0.6711   -9.9316 C   0  0  0  0  0  0  0  0  0  0  0  0
   34.6640    4.6485   -4.8382 C   0  0  0  0  0  3  0  0  0  0  0  0
   39.0504    4.5329   -3.7794 C   0  0  0  0  0  0  0  0  0  0  0  0
   30.2902    3.0394   -7.9759 C   0  0  0  0  0  0  0  0  0  0  0  0
   29.2714    1.5220   -4.3753 C   0  0  0  0  0  0  0  0  0  0  0  0
   30.7850    2.0325   -3.6444 C   0  0  0  0  0  0  0  0  0  0  0  0
   37.7359    3.4501   -5.2922 C   0  0  0  0  0  0  0  0  0  0  0  0
   27.7568    1.3288   -4.0022 O   0  0  0  0  0  0  0  0  0  0  0  0
   30.0143    1.3572  -10.1039 O   0  0  0  0  0  0  0  0  0  0  0  0
   31.7019    1.5295   -6.2490 O   0  0  0  0  0  0  0  0  0  0  0  0
   29.5364    2.4750   -9.6938 P   0  0  0  0  0  0  0  0  0  0  0  0
   29.1261    3.2519  -10.8364 O   0  0  0  0  0  0  0  0  0  0  0  0
   30.0088    2.4910   -6.1480 N   0  0  0  0  0  0  0  0  0  0  0  0
   38.7813    3.3453   -4.4884 C   0  0  0  0  0  0  0  0  0  0  0  0
   27.8491    2.0552   -9.4642 C   0  0  0  0  0  0  0  0  0  0  0  0
   33.9732    4.4513   -7.3105 C   0  0  0  0  0  0  0  0  0  0  0  0
   35.2012    4.3218   -6.7798 C   0  0  0  0  0  0  0  0  0  0  0  0
   30.8733    2.1690   -5.9651 C   0  0  0  0  0  0  0  0  0  0  0  0
   26.3820    1.7877  -10.4458 C   0  0  0  0  0  0  0  0  0  0  0  0
   30.5190    4.4665   -7.8697 C   0  0  0  0  0  0  0  0  0  0  0  0
   33.0058    4.6542   -6.4193 C   0  0  0  0  0  0  0  0  0  0  0  0
  2  1  1  0
  3  2  2  0
  7  1  1  0
  7  4  1  0
  8  3  1  0
 11 10  1  0
 12  1  1  0
 12  2  1  0
 13 10  1  0
 16 14  1  0
 17 16  1  0
 18  9  1  0
 19  8  2  0
 19 12  1  0
 20  9  1  0
 20 16  1  0
 22  1  1  0
 22 21  2  0
 23 11  1  0
 23 15  2  0
 23 18  1  0
 24  6  1  0
 24 20  1  0
 25  5  1  0
 25  9  1  0
 26  4  2  0
 26  5  1  0
 26 21  1  0
M  RAD  1   7   2
M  END
>  <ID>  (1) 
conformer_0

$$$$
