
     RDKit          3D

 29 31  0  0  0  0  0  0  0  0999 V2000
   35.4656    4.2558   -6.3886 C   0  0  0  0  0  0  0  0  0  0  0  0
   37.2537    5.1362   -4.1831 C   0  0  0  0  0  0  0  0  0  0  0  0
   34.2989    4.7796   -4.7151 C   0  0  0  0  0  3  0  0  0  0  0  0
   33.1133    5.2350   -5.2695 C   0  0  0  0  0  0  0  0  0  0  0  0
   31.1910    4.2369   -7.6091 C   0  0  0  0  0  0  0  0  0  0  0  0
   32.9121    4.5217   -6.5852 C   0  0  0  0  0  0  0  0  0  0  0  0
   30.0039    3.3081   -8.2834 C   0  0  0  0  0  0  0  0  0  0  0  0
   38.5616    4.8510   -3.6986 C   0  0  0  0  0  0  0  0  0  0  0  0
   28.0358    0.9333   -4.1585 C   0  0  0  0  0  0  0  0  0  0  0  0
   26.7945    2.0212   -9.7312 C   0  0  0  0  0  0  0  0  0  0  0  0
   27.6935    1.2184   -3.4318 O   0  0  0  0  0  0  0  0  0  0  0  0
   29.8306    1.7245   -5.1253 C   0  0  0  0  0  0  0  0  0  0  0  0
   29.1704    2.1520   -6.8733 N   0  0  0  0  0  0  0  0  0  0  0  0
   31.9540    1.6776   -6.4179 O   0  0  0  0  0  0  0  0  0  0  0  0
   29.7876    1.2255  -10.2454 O   0  0  0  0  0  0  0  0  0  0  0  0
   39.0179    3.6970   -4.2629 C   0  0  0  0  0  0  0  0  0  0  0  0
   29.9141    1.5696   -4.0530 C   0  0  0  0  0  0  0  0  0  0  0  0
   28.9926    3.2556  -10.6676 O   0  0  0  0  0  0  0  0  0  0  0  0
   34.1506    4.5002   -7.1401 C   0  0  0  0  0  0  0  0  0  0  0  0
   29.8432    2.5807   -9.4417 P   0  0  0  0  0  0  0  0  0  0  0  0
   26.8979    0.7973   -5.0050 O   0  0  0  0  0  0  0  0  0  0  0  0
   38.2546    3.1013   -5.3423 C   0  0  0  0  0  0  0  0  0  0  0  0
   31.5883    5.3413   -6.8002 C   0  0  0  0  0  0  0  0  0  0  0  0
   28.2837    2.4122   -9.2693 C   0  0  0  0  0  0  0  0  0  0  0  0
   31.2097    2.4629   -9.5007 O   0  0  0  0  0  0  0  0  0  0  0  0
   36.1035    4.5862   -5.0535 C   0  0  0  0  0  0  0  0  0  0  0  0
   31.4489    2.6153   -6.4281 C   0  0  0  0  0  0  0  0  0  0  0  0
   30.8018    2.9326   -5.6606 N   0  0  0  0  0  0  0  0  0  0  0  0
   37.2711    3.8404   -5.8405 C   0  0  0  0  0  0  0  0  0  0  0  0
  4  3  1  0
  6  4  2  0
  7  5  1  0
  8  2  1  0
 11  9  2  0
 13 12  1  0
 16  8  2  0
 17  9  1  0
 17 12  1  0
 19  1  2  0
 19  6  1  0
 20  7  1  0
 20 15  1  0
 21  9  1  0
 22 16  1  0
 23  5  1  0
 23  6  1  0
 24  7  1  0
 24 10  1  0
 24 18  1  0
 25 20  1  0
 26  1  1  0
 26  2  1  0
 26  3  1  0
 27  5  1  0
 27 14  2  0
 28 12  1  0
 28 27  1  0
 29  1  1  0
 29 22  2  0
 29 26  1  0
M  RAD  1   3   2
M  END
>  <ID>  (1) 
conformer_0

$$$$
