
     RDKit          3D

 25 25  0  0  0  0  0  0  0  0999 V2000
   34.7290    4.5135   -7.3974 C   0  0  0  0  0  0  0  0  0  0  0  0
   32.8541    4.9313   -5.8317 C   0  0  0  0  0  0  0  0  0  0  0  0
   33.4197    4.7647   -7.1305 C   0  0  0  0  0  0  0  0  0  0  0  0
   36.0446    4.4907   -5.0477 C   0  0  0  0  0  0  0  0  0  0  0  0
   31.6770    5.1556   -7.4045 C   0  0  0  0  0  0  0  0  0  0  0  0
   38.5816    4.8764   -3.9342 C   0  0  0  0  0  0  0  0  0  0  0  0
   28.3580    2.4050   -9.2179 C   0  0  0  0  0  0  0  0  0  0  0  0
   35.7038    4.2494   -6.1745 C   0  0  0  0  0  0  0  0  0  0  0  0
   37.3481    5.3567   -4.1623 C   0  0  0  0  0  0  0  0  0  0  0  0
   29.9080    2.3375   -6.5469 N   0  0  0  0  0  0  0  0  0  0  0  0
   29.9311    3.2516   -8.3927 C   0  0  1  0  0  0  0  0  0  0  0  0
   26.8187    2.1459  -10.2719 C   0  0  0  0  0  0  0  0  0  0  0  0
   30.2137    1.3160   -4.0300 C   0  0  0  0  0  0  0  0  0  0  0  0
   31.9266    1.4875   -6.0876 O   0  0  0  0  0  0  0  0  0  0  0  0
   27.7855    1.3138   -3.9341 O   0  0  0  0  0  0  0  0  0  0  0  0
   29.9234    1.1436   -9.8052 O   0  0  0  0  0  0  0  0  0  0  0  0
   38.6571    3.6046   -4.6513 C   0  0  0  0  0  0  0  0  0  0  0  0
   29.1446    3.1939  -10.9608 O   0  0  0  0  0  0  0  0  0  0  0  0
   29.0863    1.3963   -4.2144 C   0  0  0  0  0  0  0  0  0  0  0  0
   27.3536    1.3326   -7.1491 O   0  0  0  0  0  0  0  0  0  0  0  0
   30.7544    2.0437   -6.1149 C   0  0  0  0  0  0  0  0  0  0  0  0
   34.0279    4.6195   -5.0229 C   0  0  0  0  0  0  0  0  0  0  0  0
   37.4876    3.5929   -5.4491 C   0  0  0  0  0  0  0  0  0  0  0  0
   30.9093    2.9452  -10.0979 O   0  0  0  0  0  0  0  0  0  0  0  0
   30.7411    4.2810   -8.0513 C   0  0  0  0  0  0  0  0  0  0  0  0
  3  1  2  3
  3  2  1  0
  5  3  1  0
  8  1  1  0
  8  4  1  0
  9  4  2  0
  9  6  1  0
 11  7  1  0
 11 10  1  0
 12  7  1  0
 16  7  1  0
 17  6  2  0
 18  7  1  0
 19 13  1  0
 19 15  1  0
 20 12  1  0
 21 10  1  0
 21 13  1  0
 21 14  2  0
 22  2  1  0
 23  4  1  0
 23 17  1  0
 11 24  1  6
 25  5  1  0
 25 11  1  0
M  END
>  <ID>  (1) 
conformer_0

$$$$
