
     RDKit          3D

 23 23  0  0  0  0  0  0  0  0999 V2000
   37.3518    5.0186   -4.4884 C   0  0  0  0  0  0  0  0  0  0  0  0
   33.4884    4.9407   -5.2562 C   0  0  0  0  0  0  0  0  0  0  0  0
   38.6231    4.9803   -3.9281 C   0  0  0  0  0  0  0  0  0  0  0  0
   31.2754    4.5835   -7.4749 C   0  0  0  0  0  0  0  0  0  0  0  0
   35.2280    4.5891   -5.1764 C   0  0  0  0  0  0  0  0  0  0  0  0
   37.8711    3.2335   -5.3514 C   0  0  0  0  0  0  0  0  0  0  0  0
   38.9224    3.4692   -4.4816 C   0  0  0  0  0  0  0  0  0  0  0  0
   30.1732    3.3288   -7.8987 C   0  0  1  0  0  0  0  0  0  0  0  0
   26.7278    1.8620  -10.2970 C   0  0  0  0  0  0  0  0  0  0  0  0
   30.8350    1.8875   -5.7601 C   0  0  0  0  0  0  0  0  0  0  0  0
   27.9128    1.6384   -3.7109 O   0  0  0  0  0  0  0  0  0  0  0  0
   30.3696    1.5943   -3.9034 C   0  0  0  0  0  0  0  0  0  0  0  0
   36.3079    4.2059   -5.7712 C   0  0  0  0  0  0  0  0  0  0  0  0
   30.4389    1.3985   -9.7207 O   0  0  0  0  0  0  0  0  0  0  0  0
   29.5939    3.1055  -10.9411 O   0  0  0  0  0  0  0  0  0  0  0  0
   30.0289    2.3834   -6.2718 N   0  0  0  0  0  0  0  0  0  0  0  0
   31.7029    1.1021   -5.7371 O   0  0  0  0  0  0  0  0  0  0  0  0
   29.6191    2.4201   -9.6728 P   0  0  0  0  0  0  0  0  0  0  0  0
   28.6314    1.1451   -4.3718 C   0  0  0  0  0  0  0  0  0  0  0  0
   34.6717    4.5188   -7.1954 C   0  0  0  0  0  0  0  0  0  0  0  0
   33.4595    4.8382   -6.7013 C   0  0  2  0  0  0  0  0  0  0  0  0
   28.1325    2.4173   -9.1547 C   0  0  1  0  0  0  0  0  0  0  0  0
   31.6364    5.6034   -6.8285 C   0  0  0  0  0  0  0  0  0  0  0  0
  3  1  2  0
  5  2  2  3
  7  3  1  0
  7  6  2  0
  8  4  1  1
 12 10  1  0
 13  1  1  0
 13  5  1  0
 13  6  1  0
 16  8  1  0
 16 10  1  0
 17 10  2  0
 18 14  1  0
 18 15  1  0
 19 11  1  0
 19 12  1  0
 21  2  1  0
 21 20  1  6
 22  8  1  0
 22  9  1  6
 22 18  1  0
 23  4  1  0
 23 21  1  0
M  END
>  <ID>  (1) 
conformer_0

$$$$
