
     RDKit          3D

 23 23  0  0  0  0  0  0  0  0999 V2000
   33.0790    4.9133   -6.0591 C   0  0  0  0  0  0  0  0  0  0  0  0
   37.2701    3.6432   -5.4708 C   0  0  0  0  0  0  0  0  0  0  0  0
   38.5365    3.4071   -4.8272 C   0  0  0  0  0  0  0  0  0  0  0  0
   30.9116    4.0899   -7.8292 C   0  0  1  0  0  0  0  0  0  0  0  0
   38.7107    4.6625   -4.0189 C   0  0  0  0  0  0  0  0  0  0  0  0
   35.4814    4.4088   -6.2772 C   0  0  0  0  0  0  0  0  0  0  0  0
   30.4298    3.1614   -8.4680 C   0  0  0  0  0  0  0  0  0  0  0  0
   29.3287    1.1887   -4.2526 C   0  0  0  0  0  0  0  0  0  0  0  0
   36.0019    4.6162   -5.0631 C   0  0  0  0  0  0  0  0  0  0  0  0
   33.8548    4.8533   -4.8980 C   0  0  0  0  0  0  0  0  0  0  0  0
   28.1786    1.3458   -3.2187 O   0  0  0  0  0  0  0  0  0  0  0  0
   30.6169    1.6763   -3.7365 C   0  0  0  0  0  0  0  0  0  0  0  0
   31.1358    2.2432   -6.2425 C   0  0  1  0  0  0  0  0  0  0  0  0
   26.6266    1.8999  -10.4494 C   0  0  0  0  0  0  0  0  0  0  0  0
   30.0733    2.3796   -6.0474 N   0  0  0  0  0  0  0  0  0  0  0  0
   31.9675    1.5396   -6.3417 O   0  0  0  0  0  0  0  0  0  0  0  0
   29.0118    3.2245  -10.9360 O   0  0  0  0  0  0  0  0  0  0  0  0
   34.0780    4.6782   -7.1866 C   0  0  0  0  0  0  0  0  0  0  0  0
   30.3468    1.7250  -10.2744 O   0  0  0  0  0  0  0  0  0  0  0  0
   27.5436    0.9965   -5.1329 O   0  0  0  0  0  0  0  0  0  0  0  0
   28.4905    2.5949   -9.5154 C   0  0  0  0  0  0  0  0  0  0  0  0
   37.5917    5.3442   -4.2166 C   0  0  0  0  0  0  0  0  0  0  0  0
   31.6459    4.9372   -7.0907 C   0  0  0  0  0  0  0  0  0  0  0  0
  3  2  2  0
  5  3  1  0
  4  7  1  6
  9  2  1  0
  9  6  1  0
 10  1  1  0
 11  8  2  0
 12  8  1  0
 13  4  1  0
 13 12  1  0
 13 15  1  6
 16 13  1  0
 18  1  2  3
 18  6  1  0
 20  8  1  0
 21  7  1  0
 21 14  1  0
 21 17  1  0
 21 19  1  0
 22  5  2  0
 22  9  1  0
 23  1  1  0
 23  4  1  0
M  END
>  <ID>  (1) 
conformer_0

$$$$
