
     RDKit          3D

 26 27  0  0  0  0  0  0  0  0999 V2000
   38.9461    3.7928   -4.2180 C   0  0  0  0  0  0  0  0  0  0  0  0
   38.5702    5.1520   -3.8746 C   0  0  0  0  0  0  0  0  0  0  0  0
   32.9153    4.9378   -5.8399 C   0  0  0  0  0  0  0  0  0  0  0  0
   37.3885    5.4231   -4.2895 C   0  0  0  0  0  0  0  0  0  0  0  0
   31.5975    5.1553   -6.8728 C   0  0  0  0  0  0  0  0  0  0  0  0
   36.6130    4.1360   -5.3964 C   0  0  0  0  0  0  0  0  0  0  0  0
   33.6258    4.6679   -7.0721 C   0  0  0  0  0  0  0  0  0  0  0  0
   30.7814    1.9331   -5.7628 C   0  0  0  0  0  0  0  0  0  0  0  0
   28.1852    2.4447   -9.4565 C   0  0  0  0  0  0  0  0  0  0  0  0
   28.7688    1.1775   -4.4374 C   0  0  0  0  0  0  0  0  0  0  0  0
   34.9157    4.4086   -6.9444 C   0  0  0  0  0  0  0  0  0  0  0  0
   31.9193    1.5420   -6.3873 O   0  0  0  0  0  0  0  0  0  0  0  0
   30.3653    1.7111  -10.0060 O   0  0  0  0  0  0  0  0  0  0  0  0
   26.7780    2.2148   -9.9543 C   0  0  0  0  0  0  0  0  0  0  0  0
   29.8887    2.1986   -6.0041 N   0  0  0  0  0  0  0  0  0  0  0  0
   29.8343    2.5643   -9.7044 P   0  0  0  0  0  0  0  0  0  0  0  0
   35.5498    4.5605   -5.2068 C   0  0  0  0  0  0  0  0  0  0  0  0
   27.3249    0.9000   -5.0162 O   0  0  0  0  0  0  0  0  0  0  0  0
   29.3097    0.1803   -3.8589 C   0  0  0  0  0  0  0  0  0  0  0  0
   27.8831    1.4695   -8.1169 O   0  0  0  0  0  0  0  0  0  0  0  0
   30.1120    3.1867   -8.1523 C   0  0  0  0  0  0  0  0  0  0  0  0
   38.0566    3.2362   -5.1167 C   0  0  0  0  0  0  0  0  0  0  0  0
   29.4380    3.2893  -10.9906 O   0  0  0  0  0  0  0  0  0  0  0  0
   33.8590    4.8349   -4.7986 C   0  0  0  0  0  0  0  0  0  0  0  0
   31.1147    4.0602   -7.5415 C   0  0  0  0  0  0  0  0  0  0  0  0
   31.3327    2.4706   -4.2236 C   0  0  0  0  0  0  0  0  0  0  0  0
  2  1  2  0
  4  2  1  0
  5  3  1  0
  6  4  2  0
  7  3  2  0
 11  7  1  0
 12  8  2  0
 14  9  1  0
 15  8  1  0
 15 10  1  0
 16  9  1  0
 16 13  1  0
 17  6  1  0
 17 11  2  0
 18 10  1  0
 19 10  1  0
 20  9  1  0
 21  9  1  0
 22  1  1  0
 22  6  1  0
 23 16  1  0
 24  3  1  0
 24 17  1  0
 25  5  1  0
 25 21  3  0
 26  8  1  0
 26 24  1  0
M  END
>  <ID>  (1) 
conformer_0

$$$$
