
     RDKit          3D

 30 33  0  0  0  0  0  0  0  0999 V2000
   37.2124    3.4924   -5.5376 C   0  0  0  0  0  0  0  0  0  0  0  0
   34.8909    4.5290   -7.3797 C   0  0  0  0  0  0  0  0  0  0  0  0
   38.3091    2.9469   -5.0620 C   0  0  0  0  0  0  0  0  0  0  0  0
   39.0158    3.7205   -4.1307 C   0  0  0  0  0  0  0  0  0  0  0  0
   30.8647    4.0252   -7.9563 C   0  0  0  0  0  0  0  0  0  0  0  0
   33.6436    4.5790   -7.4031 C   0  0  0  0  0  0  0  0  0  0  0  0
   28.3354    0.8386   -4.1552 C   0  0  0  0  0  0  0  0  0  0  0  0
   30.3448    3.3377   -7.9848 C   0  0  0  0  0  0  0  0  0  0  0  0
   37.6256    5.7405   -4.2800 C   0  0  0  0  0  0  0  0  0  0  0  0
   38.7658    5.0403   -3.8408 C   0  0  0  0  0  0  0  0  0  0  0  0
   30.5063    1.7909   -3.7542 C   0  0  0  0  0  0  0  0  0  0  0  0
   27.9029    1.1533   -3.4667 O   0  0  0  0  0  0  0  0  0  0  0  0
   30.1320    2.3607   -6.1887 N   0  0  0  0  0  0  0  0  0  0  0  0
   26.6314    1.9268   -9.6535 C   0  0  0  0  0  0  0  0  0  0  0  0
   30.1990    1.5606   -9.9007 O   0  0  0  0  0  0  0  0  0  0  0  0
   27.4413    1.7883   -7.4779 O   0  0  0  0  0  0  0  0  0  0  0  0
   32.0565    1.6510   -6.2259 O   0  0  0  0  0  0  0  0  0  0  0  0
   29.8510    1.5038   -4.9346 C   0  0  0  0  0  0  0  0  0  0  0  0
   35.7837    4.2766   -6.1989 C   0  0  0  0  0  0  0  0  0  0  0  0
   32.9082    4.8652   -6.2856 C   0  0  0  0  0  0  0  0  0  0  0  0
   29.6708    3.3978  -10.9346 O   0  0  0  0  0  0  0  0  0  0  0  0
   27.5512    2.0274   -8.6217 C   0  0  0  0  0  0  0  0  0  0  0  0
   27.1534    0.6726   -5.1442 O   0  0  0  0  0  0  0  0  0  0  0  0
   29.8176    2.5900   -9.6707 P   0  0  0  0  0  0  0  0  0  0  0  0
   31.7927    4.9989   -7.3520 C   0  0  0  0  0  0  0  0  0  0  0  0
   35.0312    4.6205   -5.0484 C   0  0  0  0  0  3  0  0  0  0  0  0
   33.5538    5.0092   -5.0304 C   0  0  0  0  0  0  0  0  0  0  0  0
   29.0824    3.2849   -9.5140 C   0  0  0  0  0  0  0  0  0  0  0  0
   31.5260    2.2428   -6.0160 C   0  0  0  0  0  0  0  0  0  0  0  0
   36.9739    4.8374   -4.8935 C   0  0  0  0  0  0  0  0  0  0  0  0
  3  1  2  0
  4  3  1  0
  6  2  2  0
  8  5  1  0
 10  4  2  0
 10  9  1  0
 12  7  1  0
 18  7  1  0
 18 11  1  0
 18 13  1  0
 19  1  1  0
 19  2  1  0
 20  6  1  0
 22 14  1  0
 22 16  2  0
 23  7  1  0
 24 15  1  0
 24 21  1  0
 25  5  1  0
 25  6  1  0
 25 20  1  0
 26 19  1  0
 27 20  2  0
 27 26  1  0
 28  8  1  0
 28 22  1  0
 28 24  1  0
 29  8  1  0
 29 13  1  0
 29 17  1  0
 30  1  1  0
 30  9  2  0
 30 19  1  0
M  RAD  1  26   2
M  END
>  <ID>  (1) 
conformer_0

$$$$
