
     RDKit          3D

 29 31  0  0  0  0  0  0  0  0999 V2000
   33.5475    4.7154   -7.5276 C   0  0  0  0  0  0  0  0  0  0  0  0
   38.7369    3.3358   -4.6712 C   0  0  0  0  0  0  0  0  0  0  0  0
   36.5160    3.9434   -5.6036 C   0  0  0  0  0  0  0  0  0  0  0  0
   32.7055    4.7193   -6.4115 C   0  0  0  0  0  0  0  0  0  0  0  0
   31.3581    4.7366   -7.4016 C   0  0  0  0  0  0  0  0  0  0  0  0
   29.1577    3.2023   -9.7542 C   0  0  0  0  0  0  0  0  0  0  0  0
   38.9841    4.4956   -3.9673 C   0  0  0  0  0  0  0  0  0  0  0  0
   28.4550    1.2616   -4.0252 C   0  0  0  0  0  0  0  0  0  0  0  0
   36.9563    5.0643   -4.6129 C   0  0  0  0  0  0  0  0  0  0  0  0
   38.0821    5.5743   -4.0380 C   0  0  0  0  0  0  0  0  0  0  0  0
   26.7802    2.2045   -9.4443 C   0  0  0  0  0  0  0  0  0  0  0  0
   28.9403    1.7634   -6.4813 N   0  0  0  0  0  0  0  0  0  0  0  0
   28.2259    1.7241   -3.4638 O   0  0  0  0  0  0  0  0  0  0  0  0
   29.3488    1.6340   -5.4926 C   0  0  0  0  0  0  0  0  0  0  0  0
   32.1586    1.6466   -6.6324 O   0  0  0  0  0  0  0  0  0  0  0  0
   29.2546    3.1675  -11.0168 O   0  0  0  0  0  0  0  0  0  0  0  0
   27.7285    1.6486   -7.4442 O   0  0  0  0  0  0  0  0  0  0  0  0
   33.7961    4.4642   -5.1310 C   0  0  0  0  0  0  0  0  0  0  0  0
   30.4899    1.8020   -9.6382 O   0  0  0  0  0  0  0  0  0  0  0  0
   27.1000    0.9376   -4.5453 O   0  0  0  0  0  0  0  0  0  0  0  0
   27.7774    1.9231   -8.1565 C   0  0  0  0  0  0  0  0  0  0  0  0
   30.8652    1.9518   -4.2985 C   0  0  0  0  0  0  0  0  0  0  0  0
   37.7253    3.1481   -5.3836 C   0  0  0  0  0  0  0  0  0  0  0  0
   30.4202    3.7163   -8.1551 C   0  0  0  0  0  0  0  0  0  0  0  0
   35.3095    4.3283   -5.7714 C   0  0  0  0  0  0  0  0  0  0  0  0
   34.9302    4.6315   -7.3111 C   0  0  0  0  0  0  0  0  0  0  0  0
   30.6638    2.6780   -6.1051 N   0  0  0  0  0  0  0  0  0  0  0  0
   29.9072    2.9272   -7.9516 C   0  0  0  0  0  0  0  0  0  0  0  0
   31.4523    2.1815   -6.0897 C   0  0  0  0  0  0  0  0  0  0  0  0
  4  1  2  0
  5  4  1  0
  7  2  2  0
  9  3  1  0
 10  7  1  0
 10  9  2  0
 13  8  1  0
 14  8  1  0
 14 12  1  0
 16  6  1  0
 17 12  1  0
 18  4  1  0
 19  6  1  0
 20  8  1  0
 21 11  1  0
 21 17  1  0
 22 14  1  0
 23  2  1  0
 23  3  2  0
 24  5  1  0
 25  3  1  0
 25 18  2  0
 26  1  1  0
 26 25  1  0
 27 14  1  0
 28  6  1  0
 28 21  1  0
 28 24  1  0
 29 15  2  0
 29 22  1  0
 29 27  1  0
M  END
>  <ID>  (1) 
conformer_0

$$$$
