
     RDKit          3D

 25 26  0  0  0  0  0  0  0  0999 V2000
   38.8343    4.9280   -3.9088 C   0  0  0  0  0  0  0  0  0  0  0  0
   37.7973    5.5558   -4.2187 C   0  0  0  0  0  0  0  0  0  0  0  0
   36.5311    4.6329   -5.0400 C   0  0  0  0  0  0  0  0  0  0  0  0
   33.5713    4.7740   -7.0229 C   0  0  0  0  0  0  0  0  0  0  0  0
   31.6081    4.7230   -7.1003 C   0  0  0  0  0  0  0  0  0  0  0  0
   36.0743    4.1974   -5.9909 C   0  0  0  0  0  0  0  0  0  0  0  0
   26.4915    2.1283  -10.2156 C   0  0  0  0  0  0  0  0  0  0  0  0
   30.6019    1.7417   -3.8512 C   0  0  0  0  0  0  0  0  0  0  0  0
   31.1026    2.1712   -5.9451 C   0  0  0  0  0  0  0  0  0  0  0  0
   33.3125    4.7541   -5.6426 C   0  0  0  0  0  0  0  0  0  0  0  0
   29.7734    2.7981   -7.7706 C   0  0  0  0  0  0  0  0  0  0  0  0
   28.2652    1.0349   -3.6535 O   0  0  0  0  0  0  0  0  0  0  0  0
   34.4805    4.5175   -4.8911 C   0  0  0  0  0  0  0  0  0  0  0  0
   30.1179    1.4904   -9.9445 O   0  0  0  0  0  0  0  0  0  0  0  0
   30.1809    2.4727   -6.1090 N   0  0  0  0  0  0  0  0  0  0  0  0
   32.1824    1.6119   -6.2274 O   0  0  0  0  0  0  0  0  0  0  0  0
   29.2393    3.2786  -11.0944 O   0  0  0  0  0  0  0  0  0  0  0  0
   29.4232    1.3176   -4.2710 C   0  0  0  0  0  0  0  0  0  0  0  0
   29.4696    2.5463   -9.7585 P   0  0  0  0  0  0  0  0  0  0  0  0
   38.7583    3.5795   -4.5183 C   0  0  0  0  0  0  0  0  0  0  0  0
   37.7721    3.4493   -5.4043 C   0  0  0  0  0  0  0  0  0  0  0  0
   28.2719    1.8031   -7.6076 O   0  0  0  0  0  0  0  0  0  0  0  0
   27.9112    2.3697   -9.3562 C   0  0  0  0  0  0  0  0  0  0  0  0
   34.9021    4.4990   -7.1801 C   0  0  0  0  0  0  0  0  0  0  0  0
   30.5895    3.8803   -7.9377 C   0  0  0  0  0  0  0  0  0  0  0  0
  2  1  2  0
  3  2  1  0
  5  4  1  0
  6  3  1  0
  9  8  1  0
 10  4  2  0
 13  6  2  0
 13 10  1  0
 15  9  1  0
 15 11  1  0
 16  9  2  0
 18  8  1  0
 18 12  1  0
 19 14  1  0
 19 17  1  0
 20  1  1  0
 21  3  2  0
 21 20  1  0
 22 11  1  0
 23  7  1  0
 23 19  1  0
 23 22  1  0
 24  4  1  0
 24  6  1  0
 25  5  1  0
 25 11  1  0
M  END
>  <ID>  (1) 
conformer_0

$$$$
