
     RDKit          3D

 27 29  0  0  0  0  0  0  0  0999 V2000
   37.0144    5.2813   -4.6489 C   0  0  0  0  0  3  0  0  0  0  0  0
   34.8691    4.4283   -4.9707 C   0  0  0  0  0  0  0  0  0  0  0  0
   35.3612    4.4722   -6.8409 C   0  0  0  0  0  0  0  0  0  0  0  0
   33.4305    4.8893   -5.0997 C   0  0  0  0  0  0  0  0  0  0  0  0
   30.8723    4.2408   -7.6571 C   0  0  0  0  0  0  0  0  0  0  0  0
   38.0765    5.8894   -4.0825 C   0  0  0  0  0  0  0  0  0  0  0  0
   29.0154    1.5954   -4.2744 C   0  0  0  0  0  0  0  0  0  0  0  0
   33.0542    4.8167   -6.4496 C   0  0  0  0  0  0  0  0  0  0  0  0
   28.1028    1.7108   -3.7562 O   0  0  0  0  0  0  0  0  0  0  0  0
   32.1290    1.6811   -6.5438 O   0  0  0  0  0  0  0  0  0  0  0  0
   30.5467    1.6950   -5.3193 C   0  0  0  0  0  0  0  0  0  0  0  0
   38.9604    4.8568   -3.7921 C   0  0  0  0  0  0  0  0  0  0  0  0
   26.2038    1.2799  -10.4930 C   0  0  0  0  0  0  0  0  0  0  0  0
   30.0260    2.4605   -6.1578 N   0  0  0  0  0  0  0  0  0  0  0  0
   29.4095    2.5055   -9.8075 P   0  0  0  0  0  0  0  0  0  0  0  0
   30.3979    1.9291   -9.8349 O   0  0  0  0  0  0  0  0  0  0  0  0
   27.4299    2.1332  -10.0655 C   0  0  0  0  0  0  0  0  0  0  0  0
   28.1749    1.9537   -8.0539 O   0  0  0  0  0  0  0  0  0  0  0  0
   28.7509    2.3506  -11.3818 O   0  0  0  0  0  0  0  0  0  0  0  0
   31.1823    1.8070   -4.1274 C   0  0  0  0  0  0  0  0  0  0  0  0
   34.1353    4.6695   -7.4391 C   0  0  0  0  0  0  0  0  0  0  0  0
   29.3734    3.2000   -8.4520 C   0  0  0  0  0  0  0  0  0  0  0  0
   31.6700    5.0589   -6.8763 C   0  0  0  0  0  0  0  0  0  0  0  0
   36.2423    4.2350   -5.5110 C   0  0  0  0  0  0  0  0  0  0  0  0
   38.7537    3.5955   -4.3807 C   0  0  0  0  0  0  0  0  0  0  0  0
   37.5629    3.3962   -5.1754 C   0  0  0  0  0  0  0  0  0  0  0  0
   31.0684    2.7642   -6.8152 C   0  0  0  0  0  0  0  0  0  0  0  0
  3  2  2  0
  4  2  1  0
  6  1  2  0
  8  4  1  0
  9  7  1  0
 11  7  1  0
 12  6  1  0
 14 11  1  0
 16 15  1  0
 17 13  1  0
 19 15  1  0
 19 17  1  0
 20 11  1  0
 21  3  1  0
 21  8  2  0
 22  5  1  0
 22 15  1  0
 22 18  1  0
 23  5  1  0
 23  8  1  0
 24  1  1  0
 24  2  1  0
 24  3  1  0
 25 12  2  0
 26 24  1  0
 26 25  1  0
 27  5  1  0
 27 10  2  0
 27 14  1  0
M  RAD  1   1   2
M  END
>  <ID>  (1) 
conformer_0

$$$$
