
     RDKit          3D

 26 27  0  0  0  0  0  0  0  0999 V2000
   35.8863    4.3639   -5.7546 C   0  0  0  0  0  0  0  0  0  0  0  0
   37.6317    5.6309   -4.0710 C   0  0  0  0  0  0  0  0  0  0  0  0
   37.9105    3.4667   -5.0900 C   0  0  0  0  0  0  0  0  0  0  0  0
   31.7353    5.3758   -7.0501 C   0  0  0  0  0  0  0  0  0  0  0  0
   38.8891    3.6912   -4.2368 C   0  0  0  0  0  0  0  0  0  0  0  0
   33.1683    5.0351   -5.8809 C   0  0  0  0  0  0  0  0  0  0  0  0
   38.7869    5.1122   -3.7437 C   0  0  0  0  0  0  0  0  0  0  0  0
   30.2220    3.1462   -7.8713 C   0  0  0  0  0  0  0  0  0  0  0  0
   30.4024    1.8656   -4.1943 C   0  0  0  0  0  0  0  0  0  0  0  0
   36.5741    4.6254   -4.9245 C   0  0  0  0  0  0  0  0  0  0  0  0
   34.2700    4.8193   -4.9108 C   0  0  0  0  0  0  0  0  0  0  0  0
   26.5690    2.1963   -9.4903 C   0  0  0  0  0  0  0  0  0  0  0  0
   29.8516    2.3941   -6.2835 N   0  0  0  0  0  0  0  0  0  0  0  0
   29.4659    3.1150  -10.6122 O   0  0  0  0  0  0  0  0  0  0  0  0
   29.7928    2.4003   -9.4723 P   0  0  0  0  0  0  0  0  0  0  0  0
   30.7604    1.9771   -5.7138 C   0  0  0  0  0  0  0  0  0  0  0  0
   31.9423    1.4653   -6.0912 O   0  0  0  0  0  0  0  0  0  0  0  0
   28.4152    0.9174   -4.0263 C   0  0  0  0  0  0  0  0  0  0  0  0
   30.6722    1.6418   -9.5785 O   0  0  0  0  0  0  0  0  0  0  0  0
   28.2165    0.3625   -3.4544 O   0  0  0  0  0  0  0  0  0  0  0  0
   27.1141    1.2538   -4.3599 O   0  0  0  0  0  0  0  0  0  0  0  0
   27.8753    2.3053   -8.6822 C   0  0  0  0  0  0  0  0  0  0  0  0
   27.3041    1.6916   -7.6314 O   0  0  0  0  0  0  0  0  0  0  0  0
   33.7056    4.8459   -7.1759 C   0  0  0  0  0  0  0  0  0  0  0  0
   34.9559    4.6064   -7.2295 C   0  0  0  0  0  0  0  0  0  0  0  0
   31.2496    4.2633   -7.7790 C   0  0  0  0  0  0  0  0  0  0  0  0
  5  3  2  0
  6  4  1  0
  7  2  2  0
  7  5  1  0
 10  1  1  0
 10  2  1  0
 10  3  1  0
 11  1  2  0
 11  6  1  0
 13  8  1  0
 15  8  1  0
 15 14  1  0
 16  9  1  0
 16 13  1  0
 17 16  2  0
 18  9  1  0
 19 15  1  0
 20 18  2  0
 21 18  1  0
 22 12  1  0
 22 14  1  0
 23 22  2  0
 24  6  2  0
 25  1  1  0
 25 24  1  0
 26  4  1  0
 26  8  1  0
M  END
>  <ID>  (1) 
conformer_0

$$$$
