
     RDKit          3D

 24 25  0  0  0  0  0  0  0  0999 V2000
   33.8361    4.9131   -4.9225 C   0  0  0  0  0  0  0  0  0  0  0  0
   36.0326    4.7080   -4.7575 C   0  0  0  0  0  0  0  0  0  0  0  0
   37.4007    3.2521   -5.4655 C   0  0  0  0  0  0  0  0  0  0  0  0
   37.3643    5.2957   -4.0517 C   0  0  0  0  0  0  0  0  0  0  0  0
   30.2704    2.0574   -4.7440 C   0  0  0  0  0  0  0  0  0  0  0  0
   31.6316    5.0428   -7.2304 C   0  0  2  0  0  0  0  0  0  0  0  0
   38.5134    3.4824   -4.7373 C   0  0  0  0  0  0  0  0  0  0  0  0
   38.5540    4.6390   -3.9664 C   0  0  0  0  0  0  0  0  0  0  0  0
   31.7773    2.9121   -6.5921 C   0  0  0  0  0  0  0  0  0  0  0  0
   32.1960    1.7620   -6.5745 O   0  0  0  0  0  0  0  0  0  0  0  0
   26.7261    2.2234  -10.4664 C   0  0  0  0  0  0  0  0  0  0  0  0
   30.4621    2.6312   -6.0495 N   0  0  0  0  0  0  0  0  0  0  0  0
   30.3343    1.7079   -9.5536 O   0  0  0  0  0  0  0  0  0  0  0  0
   29.2260    2.7042  -11.4763 O   0  0  0  0  0  0  0  0  0  0  0  0
   30.3649    3.7723   -8.5493 C   0  0  0  0  0  0  0  0  0  0  0  0
   29.7658    2.6194   -9.6844 P   0  0  0  0  0  0  0  0  0  0  0  0
   31.0360    1.8263   -4.0013 C   0  0  0  0  0  0  0  0  0  0  0  0
   33.0813    4.9602   -6.2039 C   0  0  0  0  0  0  0  0  0  0  0  0
   28.5289    1.9098   -3.4685 O   0  0  0  0  0  0  0  0  0  0  0  0
   28.0704    2.7431  -10.2560 C   0  0  2  0  0  0  0  0  0  0  0  0
   28.4084    0.7581   -4.9761 O   0  0  0  0  0  0  0  0  0  0  0  0
   35.9327    4.0646   -5.6098 C   0  0  0  0  0  0  0  0  0  0  0  0
   34.3762    4.5486   -6.7786 C   0  0  0  0  0  0  0  0  0  0  0  0
   29.0356    1.1828   -3.9136 C   0  0  0  0  0  0  0  0  0  0  0  0
  4  2  2  0
  7  3  1  0
  8  4  1  0
  8  7  2  0
  9  6  1  0
 10  9  2  0
 12  5  1  0
 12  9  1  0
  6 15  1  6
 16 13  1  0
 16 15  1  0
 17  5  2  3
 18  1  1  0
 18  6  1  0
 20 11  1  6
 20 14  1  0
 20 16  1  0
 22  2  1  0
 22  3  2  0
 23  1  1  0
 23 18  2  0
 23 22  1  0
 24  5  1  0
 24 19  1  0
 24 21  1  0
M  END
>  <ID>  (1) 
conformer_0

$$$$
