
     RDKit          3D

 25 26  0  0  0  0  0  0  0  0999 V2000
   37.3421    5.5821   -4.4002 C   0  0  0  0  0  0  0  0  0  0  0  0
   38.9264    4.0764   -4.1409 C   0  0  0  0  0  0  0  0  0  0  0  0
   32.9162    4.8201   -6.1251 C   0  0  0  0  0  0  0  0  0  0  0  0
   35.6517    4.5670   -5.3200 C   0  0  0  0  0  0  0  0  0  0  0  0
   31.3022    4.5008   -7.3888 C   0  0  0  0  0  0  0  0  0  0  0  0
   38.4797    5.4549   -3.9438 C   0  0  0  0  0  0  0  0  0  0  0  0
   30.0854    3.0245   -7.8696 C   0  0  0  0  0  0  0  0  0  0  0  0
   33.6535    4.5130   -7.2474 C   0  0  0  0  0  0  0  0  0  0  0  0
   30.8331    2.1162   -5.7798 C   0  0  0  0  0  0  0  0  0  0  0  0
   28.4267    1.2224   -4.2837 C   0  0  0  0  0  0  0  0  0  0  0  0
   35.0367    4.3254   -6.9197 C   0  0  0  0  0  0  0  0  0  0  0  0
   26.9439    1.4454  -10.4807 C   0  0  0  0  0  0  0  0  0  0  0  0
   29.8660    2.3377   -6.0153 N   0  0  0  0  0  0  0  0  0  0  0  0
   31.8813    1.6847   -6.2997 O   0  0  0  0  0  0  0  0  0  0  0  0
   29.7905    2.9795  -10.9984 O   0  0  0  0  0  0  0  0  0  0  0  0
   27.6751    1.7506   -7.4771 O   0  0  0  0  0  0  0  0  0  0  0  0
   30.2957    1.3434   -9.8815 O   0  0  0  0  0  0  0  0  0  0  0  0
   33.8780    4.7844   -5.0206 C   0  0  0  0  0  0  0  0  0  0  0  0
   29.8493    2.3310   -9.9045 P   0  0  0  0  0  0  0  0  0  0  0  0
   28.0581    1.6330   -4.1189 O   0  0  0  0  0  0  0  0  0  0  0  0
   28.3742    2.2634   -9.2391 C   0  0  0  0  0  0  0  0  0  0  0  0
   31.4972    2.5815   -4.1598 C   0  0  0  0  0  0  0  0  0  0  0  0
   36.7271    4.1501   -5.3871 C   0  0  0  0  0  0  0  0  0  0  0  0
   38.0749    3.3654   -5.0109 C   0  0  0  0  0  0  0  0  0  0  0  0
   29.1041    0.7300   -3.4104 C   0  0  0  0  0  0  0  0  0  0  0  0
  5  3  1  0
  6  1  2  0
  6  2  1  0
  7  5  1  0
  8  3  2  0
 11  4  2  0
 11  8  1  0
 13  7  1  0
 13  9  1  0
 14  9  2  0
 18  3  1  0
 18  4  1  0
 19 15  1  0
 19 17  1  0
 20 10  2  0
 21  7  1  0
 21 12  1  0
 21 16  1  0
 21 19  1  0
 22  9  1  0
 23  1  1  0
 23  4  1  0
 24  2  2  0
 24 23  1  0
 25 10  1  0
 25 22  1  0
M  END
>  <ID>  (1) 
conformer_0

$$$$
