
     RDKit          3D

 23 24  0  0  0  0  0  0  0  0999 V2000
   37.6603    5.6645   -4.1030 C   0  0  0  0  0  0  0  0  0  0  0  0
   35.8807    4.3082   -5.6202 C   0  0  0  0  0  0  0  0  0  0  0  0
   34.3545    4.4020   -4.8602 C   0  0  0  0  0  0  0  0  0  0  0  0
   36.5959    4.6422   -4.9614 C   0  0  0  0  0  0  0  0  0  0  0  0
   31.4006    4.2483   -7.5518 C   0  0  0  0  0  0  0  0  0  0  0  0
   33.0772    4.8029   -5.6797 C   0  0  0  0  0  0  0  0  0  0  0  0
   29.1004    1.4693   -4.5504 C   0  0  0  0  0  0  0  0  0  0  0  0
   31.0468    2.2291   -6.0193 C   0  0  0  0  0  0  0  0  0  0  0  0
   34.8448    4.6983   -7.0768 C   0  0  0  0  0  0  0  0  0  0  0  0
   26.6982    2.0494   -9.9928 C   0  0  0  0  0  0  0  0  0  0  0  0
   27.7832    1.4125   -3.7530 O   0  0  0  0  0  0  0  0  0  0  0  0
   30.1769    2.5280   -6.0428 N   0  0  0  0  0  0  0  0  0  0  0  0
   32.2261    1.6920   -6.4368 O   0  0  0  0  0  0  0  0  0  0  0  0
   29.0939    3.2464  -11.2149 O   0  0  0  0  0  0  0  0  0  0  0  0
   30.2902    1.6367   -9.9783 O   0  0  0  0  0  0  0  0  0  0  0  0
   37.8068    3.4865   -5.1382 C   0  0  0  0  0  0  0  0  0  0  0  0
   33.4222    4.7809   -7.0022 C   0  0  0  0  0  0  0  0  0  0  0  0
   30.2725    1.2643   -3.9101 C   0  0  0  0  0  0  0  0  0  0  0  0
   30.1282    3.1480   -7.9191 C   0  0  0  0  0  0  0  0  0  0  0  0
   29.5758    2.6229   -9.8870 P   0  0  0  0  0  0  0  0  0  0  0  0
   28.1367    2.5445   -9.4044 C   0  0  0  0  0  0  0  0  0  0  0  0
   38.8588    3.7691   -4.3179 C   0  0  0  0  0  0  0  0  0  0  0  0
   38.8128    5.1479   -3.8321 C   0  0  0  0  0  0  0  0  0  0  0  0
  3  2  2  0
  4  1  2  0
  4  2  1  0
  6  3  1  0
  9  2  1  0
 11  7  1  0
 12  8  1  0
 13  8  2  0
 16  4  1  0
 17  5  1  0
 17  6  2  0
 17  9  1  0
 18  7  1  0
 18  8  1  0
 19  5  1  0
 19 12  1  0
 20 14  1  0
 20 15  1  0
 21 10  1  0
 21 19  1  0
 21 20  1  0
 22 16  2  0
 23  1  1  0
 23 22  1  0
M  END
>  <ID>  (1) 
conformer_0

$$$$
