
     RDKit          3D

 26 26  0  0  0  0  0  0  0  0999 V2000
   37.6869    3.3316   -5.3632 C   0  0  0  0  0  0  0  0  0  0  0  0
   36.3809    4.5180   -5.0034 C   0  0  0  0  0  0  0  0  0  0  0  0
   35.7825    4.2549   -5.8481 C   0  0  0  0  0  0  0  0  0  0  0  0
   38.7436    4.8094   -3.8663 C   0  0  0  0  0  0  0  0  0  0  0  0
   31.7663    5.2528   -7.2601 C   0  0  0  0  0  0  0  0  0  0  0  0
   33.0070    5.0240   -5.6926 C   0  0  0  0  0  0  0  0  0  0  0  0
   30.2090    3.1790   -8.1307 C   0  0  1  0  0  0  0  0  0  0  0  0
   29.2434    1.6560   -4.3404 C   0  0  0  0  0  0  0  0  0  0  0  0
   38.7573    3.4803   -4.5272 C   0  0  0  0  0  0  0  0  0  0  0  0
   28.1609    1.7094   -3.5244 O   0  0  0  0  0  0  0  0  0  0  0  0
   30.7844    1.8195   -4.0023 C   0  0  0  0  0  0  0  0  0  0  0  0
   29.9981    2.3191   -6.3561 N   0  0  0  0  0  0  0  0  0  0  0  0
   29.8324    0.8924  -10.3890 O   0  0  0  0  0  0  0  0  0  0  0  0
   26.8795    1.7471  -10.2067 C   0  0  0  0  0  0  0  0  0  0  0  0
   34.1402    4.7526   -4.8594 C   0  0  0  0  0  0  0  0  0  0  0  0
   29.2717    3.1373  -11.1943 O   0  0  0  0  0  0  0  0  0  0  0  0
   32.1048    1.6809   -6.6904 O   0  0  0  0  0  0  0  0  0  0  0  0
   28.3910    2.3282   -9.0764 C   0  0  2  0  0  0  0  0  0  0  0  0
   29.8030    2.4713   -9.7981 P   0  0  0  0  0  0  0  0  0  0  0  0
   37.5786    5.4472   -4.1345 C   0  0  0  0  0  0  0  0  0  0  0  0
   27.6598    0.8679   -5.3160 O   0  0  0  0  0  0  0  0  0  0  0  0
   33.5115    4.7873   -7.0662 C   0  0  0  0  0  0  0  0  0  0  0  0
   34.8027    4.5144   -7.2297 C   0  0  0  0  0  0  0  0  0  0  0  0
   30.8957    2.2072   -6.2708 C   0  0  0  0  0  0  0  0  0  0  0  0
   31.1210    2.2460   -9.6256 O   0  0  0  0  0  0  0  0  0  0  0  0
   31.0095    4.1823   -7.8401 C   0  0  0  0  0  0  0  0  0  0  0  0
  2  1  1  0
  3  2  2  0
  9  1  1  0
  9  4  1  0
 10  8  2  0
 11  8  1  0
 12  7  1  0
 15  6  1  0
 18  7  1  0
 18 14  1  1
 18 16  1  0
 19 13  1  0
 19 18  1  0
 20  2  1  0
 20  4  2  0
 21  8  1  0
 22  5  1  0
 22  6  2  3
 23  3  2  0
 23 22  1  0
 24 11  1  0
 24 12  1  0
 24 17  2  0
 25 19  1  0
 26  5  1  0
  7 26  1  1
M  END
>  <ID>  (1) 
conformer_0

$$$$
