
     RDKit          3D

 27 28  0  0  0  0  0  0  0  0999 V2000
   36.5211    4.4657   -4.9117 C   0  0  0  0  0  0  0  0  0  0  0  0
   33.3080    4.9349   -5.7996 C   0  0  0  0  0  0  0  0  0  0  0  0
   37.6968    5.5112   -4.1201 C   0  0  0  0  0  0  0  0  0  0  0  0
   38.7947    5.1593   -3.7965 C   0  0  0  0  0  0  0  0  0  0  0  0
   31.6738    5.1576   -6.5418 C   0  0  0  0  0  0  0  0  0  0  0  0
   38.9911    3.6711   -4.1326 C   0  0  0  0  0  0  0  0  0  0  0  0
   34.3129    4.7266   -4.8920 C   0  0  0  0  0  0  0  0  0  0  0  0
   28.6260    2.7819   -9.7153 C   0  0  0  0  0  0  0  0  0  0  0  0
   29.0447    1.1480   -4.1149 C   0  0  0  0  0  0  0  0  0  0  0  0
   33.7803    4.7947   -7.1442 C   0  0  0  0  0  0  0  0  0  0  0  0
   26.7042    2.3922  -10.1088 C   0  0  0  0  0  0  0  0  0  0  0  0
   29.0288    1.5816   -6.3107 N   0  0  0  0  0  0  0  0  0  0  0  0
   27.2863    1.5391   -7.2897 O   0  0  0  0  0  0  0  0  0  0  0  0
   31.7171    1.5902   -6.1431 O   0  0  0  0  0  0  0  0  0  0  0  0
   30.4090    1.5233   -3.9863 C   0  0  0  0  0  0  0  0  0  0  0  0
   37.9731    3.3679   -4.9463 C   0  0  0  0  0  0  0  0  0  0  0  0
   28.2241    1.1042   -2.9131 O   0  0  0  0  0  0  0  0  0  0  0  0
   30.6197    2.0466   -5.7830 C   0  0  0  0  0  0  0  0  0  0  0  0
   30.1401    1.5296  -10.0837 O   0  0  0  0  0  0  0  0  0  0  0  0
   28.8979    2.5269  -11.2353 O   0  0  0  0  0  0  0  0  0  0  0  0
   30.8829    3.9176   -7.7078 C   0  0  0  0  0  0  0  0  0  0  0  0
   35.9206    4.3112   -5.7804 C   0  0  0  0  0  0  0  0  0  0  0  0
   35.1202    4.5851   -7.2388 C   0  0  0  0  0  0  0  0  0  0  0  0
   29.4177    2.3604   -9.8859 P   0  0  0  0  0  0  0  0  0  0  0  0
   30.4408    3.2810   -8.1802 C   0  0  0  0  0  0  0  0  0  0  0  0
   30.5466    3.0100   -5.8007 N   0  0  0  0  0  0  0  0  0  0  0  0
   28.3008    1.8775   -7.4929 C   0  0  0  0  0  0  0  0  0  0  0  0
  3  1  2  0
  4  3  1  0
  5  2  1  0
  6  4  2  0
  7  2  2  0
 10  2  1  0
 11  8  1  0
 15  9  1  0
 16  1  1  0
 16  6  1  0
 17  9  1  0
 18 12  1  0
 18 14  1  0
 18 15  1  0
 21  5  2  0
 22  1  1  0
 22  7  1  0
 23 10  1  0
 23 22  2  0
 24  8  1  0
 24 19  1  0
 24 20  1  0
 25 21  2  0
 26 18  1  0
 27  8  1  0
 27 12  1  0
 27 13  1  0
 27 25  1  0
M  END
>  <ID>  (1) 
conformer_0

$$$$
