
     RDKit          3D

 26 27  0  0  0  0  0  0  0  0999 V2000
   38.7459    4.9620   -3.7784 C   0  0  0  0  0  0  0  0  0  0  0  0
   35.9973    4.3503   -5.9752 C   0  0  0  0  0  3  0  0  0  0  0  0
   37.5494    5.4123   -4.2057 C   0  0  0  0  0  0  0  0  0  0  0  0
   31.5527    5.0483   -7.0735 C   0  0  0  0  0  0  0  0  0  0  0  0
   36.3372    4.4501   -4.9912 C   0  0  0  0  0  0  0  0  0  0  0  0
   33.1047    4.9770   -5.5912 C   0  0  0  0  0  0  0  0  0  0  0  0
   28.2415    1.1590   -4.3078 C   0  0  0  0  0  0  0  0  0  0  0  0
   34.9048    4.6280   -7.1720 C   0  0  0  0  0  0  0  0  0  0  0  0
   33.5139    4.8415   -6.7962 C   0  0  0  0  0  0  0  0  0  0  0  0
   26.6263    1.8638   -9.8168 C   0  0  0  0  0  0  0  0  0  0  0  0
   30.1142    3.5919   -8.6060 C   0  0  0  0  0  0  0  0  0  0  0  0
   30.1515    1.7037   -4.9241 C   0  0  1  0  0  0  0  0  0  0  0  0
   28.0890    1.6889   -4.0706 O   0  0  0  0  0  0  0  0  0  0  0  0
   30.4181    2.5865   -5.9242 N   0  0  0  0  0  0  0  0  0  0  0  0
   29.6937    2.4810   -9.9051 P   0  0  0  0  0  0  0  0  0  0  0  0
   30.4641    1.5893   -9.9969 O   0  0  0  0  0  0  0  0  0  0  0  0
   29.2757    3.1913  -10.8786 O   0  0  0  0  0  0  0  0  0  0  0  0
   32.0958    1.6591   -6.3998 O   0  0  0  0  0  0  0  0  0  0  0  0
   30.6398    1.9004   -3.7271 C   0  0  0  0  0  0  0  0  0  0  0  0
   27.8324    2.1354   -9.5996 C   0  0  0  0  0  0  0  0  0  0  0  0
   38.8122    3.6414   -4.3386 C   0  0  0  0  0  0  0  0  0  0  0  0
   27.0454    0.8558   -5.3666 O   0  0  0  0  0  0  0  0  0  0  0  0
   31.1634    3.9607   -7.8790 C   0  0  2  0  0  0  0  0  0  0  0  0
   34.4037    4.5001   -4.8206 C   0  0  0  0  0  0  0  0  0  0  0  0
   37.7733    3.5188   -5.2682 C   0  0  0  0  0  0  0  0  0  0  0  0
   31.6640    2.5541   -6.3695 C   0  0  1  0  0  0  0  0  0  0  0  0
  3  1  2  0
  5  2  1  0
  5  3  1  0
  8  2  1  0
  9  4  1  0
  9  6  1  0
  9  8  2  0
 12  7  1  0
 13  7  1  0
 14 12  1  0
 15 11  1  0
 16 15  1  0
 17 15  1  0
 12 19  1  1
 20 10  2  3
 20 17  1  0
 21  1  1  0
 22  7  1  0
 23  4  1  1
 23 11  1  0
 24  5  1  0
 24  6  2  0
 25  5  1  0
 25 21  2  0
 26 14  1  0
 26 18  1  6
 26 23  1  0
M  RAD  1   2   2
M  END
>  <ID>  (1) 
conformer_0

$$$$
