
     RDKit          3D

 25 26  0  0  0  0  0  0  0  0999 V2000
   37.8366    3.4384   -5.2166 C   0  0  0  0  0  0  0  0  0  0  0  0
   38.8224    5.0215   -3.8643 C   0  0  0  0  0  0  0  0  0  0  0  0
   37.6733    5.5374   -4.1975 C   0  0  0  0  0  0  0  0  0  0  0  0
   36.4666    4.5489   -4.9085 C   0  0  0  0  0  0  0  0  0  0  0  0
   31.4195    4.8536   -7.4055 C   0  0  0  0  0  0  0  0  0  0  0  0
   34.4906    4.4951   -4.7214 C   0  0  0  0  0  0  0  0  0  0  0  0
   26.4282    1.6884   -9.8715 C   0  0  0  0  0  0  0  0  0  0  0  0
   30.1824    3.2962   -8.2329 C   0  0  0  0  0  0  0  0  0  0  0  0
   29.2759    1.3783   -4.5278 C   0  0  0  0  0  0  0  0  0  0  0  0
   33.2778    4.7854   -5.4895 C   0  0  0  0  0  0  0  0  0  0  0  0
   28.5267    1.5648   -3.6286 O   0  0  0  0  0  0  0  0  0  0  0  0
   31.1801    2.3967   -3.8912 C   0  0  0  0  0  0  0  0  0  0  0  0
   33.5153    4.7649   -6.8294 C   0  0  0  0  0  0  0  0  0  0  0  0
   29.2879    1.7257   -6.0975 N   0  0  0  0  0  0  0  0  0  0  0  0
   31.9243    1.6128   -6.2341 O   0  0  0  0  0  0  0  0  0  0  0  0
   28.0516    2.3549   -9.0250 C   0  0  0  0  0  0  0  0  0  0  0  0
   27.2097    1.7233   -7.5623 O   0  0  0  0  0  0  0  0  0  0  0  0
   30.5690    1.7881   -9.8534 O   0  0  0  0  0  0  0  0  0  0  0  0
   29.1534    3.2236  -10.8710 O   0  0  0  0  0  0  0  0  0  0  0  0
   38.8851    3.6286   -4.3338 C   0  0  0  0  0  0  0  0  0  0  0  0
   29.9118    2.5392   -9.5465 P   0  0  0  0  0  0  0  0  0  0  0  0
   31.1350    2.3364   -5.9767 C   0  0  0  0  0  0  0  0  0  0  0  0
   35.8934    4.2439   -5.8016 C   0  0  0  0  0  0  0  0  0  0  0  0
   34.7994    4.6210   -7.0928 C   0  0  0  0  0  0  0  0  0  0  0  0
   30.8158    3.2054   -6.2044 N   0  0  0  0  0  0  0  0  0  0  0  0
  3  2  2  0
  4  1  2  0
  4  3  1  0
  8  5  1  0
 10  6  2  0
 11  9  2  0
 12 10  1  0
 13  5  1  0
 13 10  1  0
 14  9  1  0
 16  7  1  0
 17 16  2  0
 19 16  1  0
 20  1  1  0
 20  2  1  0
 21  8  1  0
 21 18  1  0
 21 19  1  0
 22 12  1  0
 22 14  1  0
 22 15  1  0
 23  4  1  0
 23  6  1  0
 24 13  2  0
 24 23  1  0
 25 22  1  0
M  END
>  <ID>  (1) 
conformer_0

$$$$
