
     RDKit          3D

 27 29  0  0  0  0  0  0  0  0999 V2000
   38.7299    3.3033   -4.6496 C   0  0  0  0  0  0  0  0  0  0  0  0
   33.3740    5.2097   -5.3906 C   0  0  0  0  0  0  0  0  0  0  0  0
   37.0374    5.1643   -4.4928 C   0  0  0  0  0  0  0  0  0  0  0  0
   30.7883    4.3413   -7.9639 C   0  0  0  0  0  0  0  0  0  0  0  0
   39.0539    4.3421   -3.7854 C   0  0  0  0  0  0  0  0  0  0  0  0
   32.9488    5.0206   -6.6785 C   0  0  0  0  0  0  0  0  0  0  0  0
   28.1141    2.1914   -9.8590 C   0  0  0  0  0  0  0  0  0  0  0  0
   30.9937    2.4608   -4.1985 C   0  0  0  0  0  0  0  0  0  0  0  0
   30.9012    2.0508   -5.8596 C   0  0  0  0  0  0  0  0  0  0  0  0
   36.3205    4.3432   -5.5157 C   0  0  2  0  0  0  0  0  0  0  0  0
   28.3437    1.2807   -3.5798 O   0  0  0  0  0  0  0  0  0  0  0  0
   29.5565    3.2868  -10.7448 O   0  0  0  0  0  0  0  0  0  0  0  0
   27.5022    1.8538   -7.6346 O   0  0  0  0  0  0  0  0  0  0  0  0
   32.0449    1.5730   -6.2069 O   0  0  0  0  0  0  0  0  0  0  0  0
   38.1765    5.5363   -3.7703 C   0  0  0  0  0  0  0  0  0  0  0  0
   29.7550    2.2135   -6.4020 N   0  0  0  0  0  0  0  0  0  0  0  0
   30.9493    1.9189   -9.3362 O   0  0  0  0  0  0  0  0  0  0  0  0
   26.8737    1.9129  -10.2872 C   0  0  0  0  0  0  0  0  0  0  0  0
   29.1861    1.2711   -4.3408 C   0  0  0  0  0  0  0  0  0  0  0  0
   34.7069    4.7125   -5.0273 C   0  0  2  0  0  0  0  0  0  0  0  0
   29.9297    2.6446   -9.5191 P   0  0  0  0  0  0  0  0  0  0  0  0
   30.2111    3.2276   -8.1887 C   0  0  0  0  0  0  0  0  0  0  0  0
   37.6417    3.4968   -5.3633 C   0  0  0  0  0  3  0  0  0  0  0  0
   31.6116    5.1628   -7.4057 C   0  0  0  0  0  0  0  0  0  0  0  0
   35.3471    4.4312   -6.8087 C   0  0  0  0  0  0  0  0  0  0  0  0
   34.1353    4.6427   -7.4896 C   0  0  0  0  0  0  0  0  0  0  0  0
   28.5220    1.9178   -7.8431 C   0  0  0  0  0  0  0  0  0  0  0  0
  5  1  2  0
  6  2  2  0
  9  8  1  0
 10  3  1  0
 12  7  1  0
 14  9  2  0
 15  3  2  0
 15  5  1  0
 16  9  1  0
 18  7  2  3
 19  8  1  0
 19 11  2  0
 20  2  1  6
 20 10  1  0
 21 12  1  0
 21 17  1  0
 22  4  2  0
 22 21  1  0
 23  1  1  0
 10 23  1  1
 24  4  2  0
 24  6  1  0
 25 10  1  0
 25 20  1  0
 26  6  1  0
 26 25  2  0
 27  7  1  0
 27 13  2  0
 27 16  1  0
M  RAD  1  23   2
M  END
>  <ID>  (1) 
conformer_0

$$$$
