
     RDKit          3D

 26 29  0  0  0  0  0  0  0  0999 V2000
   37.4062    3.5916   -5.1477 C   0  0  0  0  0  0  0  0  0  0  0  0
   38.5968    3.5413   -4.4894 C   0  0  0  0  0  0  0  0  0  0  0  0
   34.3260    4.6421   -4.8853 C   0  0  0  0  0  0  0  0  0  0  0  0
   35.9848    4.3253   -5.1811 C   0  0  0  0  0  0  0  0  0  0  0  0
   30.8202    4.2813   -7.8903 C   0  0  0  0  0  0  0  0  0  0  0  0
   28.3037    2.2011   -9.1591 C   0  0  0  0  0  0  0  0  0  0  0  0
   38.9938    4.7245   -3.8036 C   0  0  0  0  0  0  0  0  0  0  0  0
   32.9350    5.0416   -5.4045 C   0  0  0  0  0  0  0  0  0  0  0  0
   30.8142    2.1144   -6.1649 C   0  0  0  0  0  0  0  0  0  0  0  0
   35.3590    4.2681   -6.4933 C   0  0  0  0  0  0  0  0  0  0  0  0
   28.0077    1.5450   -3.8937 O   0  0  0  0  0  0  0  0  0  0  0  0
   30.7321    1.7448   -4.1345 C   0  0  0  0  0  0  0  0  0  0  0  0
   26.8203    1.5283   -9.9907 C   0  0  0  0  0  0  0  0  0  0  0  0
   28.8750    1.1782   -4.3951 C   0  0  0  0  0  0  0  0  0  0  0  0
   30.4026    2.4014   -5.8662 N   0  0  0  0  0  0  0  0  0  0  0  0
   32.0315    1.7001   -6.8797 O   0  0  0  0  0  0  0  0  0  0  0  0
   27.5422    1.5368   -7.1986 O   0  0  0  0  0  0  0  0  0  0  0  0
   33.0553    4.8520   -6.7469 C   0  0  0  0  0  0  0  0  0  0  0  0
   34.3448    4.5735   -7.3734 C   0  0  0  0  0  0  0  0  0  0  0  0
   30.8030    2.9184  -10.1072 O   0  0  0  0  0  0  0  0  0  0  0  0
   29.1570    2.4709  -10.8149 O   0  0  0  0  0  0  0  0  0  0  0  0
   29.9511    3.1672   -8.6166 C   0  0  0  0  0  0  0  0  0  0  0  0
   31.4968    5.2396   -7.1350 C   0  0  0  0  0  0  0  0  0  0  0  0
   36.9773    5.2734   -4.3799 C   0  0  0  0  0  0  0  0  0  0  0  0
   38.1271    5.8928   -3.8611 C   0  0  0  0  0  0  0  0  0  0  0  0
   29.2839    2.3794   -7.5507 N   0  0  0  0  0  0  0  0  0  0  0  0
  2  1  2  0
  4  1  1  0
  4  3  1  0
  7  2  1  0
  8  3  2  0
  9  5  1  0
 10  3  1  0
 10  4  1  0
 13  6  1  0
 14 11  2  0
 14 12  1  0
 15  9  1  0
 15 12  1  0
 16  9  1  0
 17 13  1  0
 18  8  1  0
 19 10  1  0
 19 18  2  0
 21  6  2  0
 22  5  1  0
 22 20  1  0
 23  5  1  0
 23 18  1  0
 24  1  1  0
 24  4  1  0
 25  7  2  0
 25 24  1  0
 26  6  1  0
 26 22  1  0
M  END
>  <ID>  (1) 
conformer_0

$$$$
