
     RDKit          3D

 24 23  0  0  0  0  0  0  0  0999 V2000
   38.9951    3.8966   -4.1667 C   0  0  0  0  0  0  0  0  0  0  0  0
   34.2829    4.7088   -4.8588 C   0  0  0  0  0  0  0  0  0  0  0  0
   37.5390    5.5121   -4.2815 C   0  0  0  0  0  0  0  0  0  0  0  0
   28.2761    2.7625   -9.0075 C   0  0  1  0  0  0  0  0  0  0  0  0
   38.7078    5.3538   -3.8354 C   0  0  0  0  0  0  0  0  0  0  0  0
   36.7484    4.1598   -5.5529 C   0  0  0  0  0  0  0  0  0  0  0  0
   26.5159    1.9363   -9.8853 C   0  0  0  0  0  0  0  0  0  0  0  0
   31.2404    2.3981   -6.1479 C   0  0  1  0  0  0  0  0  0  0  0  0
   33.3066    4.8321   -5.9139 C   0  0  0  0  0  0  0  0  0  0  0  0
   31.8118    4.9782   -6.9567 C   0  0  0  0  0  0  0  0  0  0  0  0
   29.3215    1.3682   -4.1706 C   0  0  0  0  0  0  0  0  0  0  0  0
   30.4896    2.7889   -6.0866 N   0  0  0  0  0  0  0  0  0  0  0  0
   31.9980    1.5358   -6.6283 O   0  0  0  0  0  0  0  0  0  0  0  0
   38.1911    3.3470   -5.0907 C   0  0  0  0  0  0  0  0  0  0  0  0
   27.5518    0.9623   -4.7847 O   0  0  0  0  0  0  0  0  0  0  0  0
   29.7670    1.4979  -10.5763 O   0  0  0  0  0  0  0  0  0  0  0  0
   28.9125    0.8526   -3.3626 O   0  0  0  0  0  0  0  0  0  0  0  0
   29.8727    3.3922  -10.6702 O   0  0  0  0  0  0  0  0  0  0  0  0
   30.0548    3.2087   -8.2488 C   0  0  2  0  0  0  0  0  0  0  0  0
   35.9237    4.5645   -5.0948 C   0  0  0  0  0  0  0  0  0  0  0  0
   33.9546    4.7698   -7.1930 C   0  0  0  0  0  0  0  0  0  0  0  0
   35.2220    4.4940   -6.9496 C   0  0  0  0  0  0  0  0  0  0  0  0
   30.8571    1.7655   -4.1512 C   0  0  0  0  0  0  0  0  0  0  0  0
   29.7005    2.5546   -9.9919 P   0  0  0  0  0  0  0  0  0  0  0  0
  5  1  1  0
  5  3  2  3
  4  7  1  1
  9  2  2  3
 10  9  1  0
  8 12  1  6
 13  8  1  0
 14  1  2  3
 14  6  1  0
 15 11  1  0
 17 11  2  0
 19  4  1  0
 19  8  1  0
 19 10  1  1
 20  2  1  0
 20  6  1  0
 21  9  1  0
 22 21  2  3
 23  8  1  0
 23 11  1  0
 24  4  1  0
 24 16  1  0
 24 18  1  0
M  END
>  <ID>  (1) 
conformer_0

$$$$
