
     RDKit          3D

 26 27  0  0  0  0  0  0  0  0999 V2000
   37.8359    3.4923   -5.1587 C   0  0  0  0  0  0  0  0  0  0  0  0
   36.5260    4.6016   -4.9368 C   0  0  0  0  0  0  0  0  0  0  0  0
   38.7448    5.1311   -3.8038 C   0  0  0  0  0  0  0  0  0  0  0  0
   34.3045    4.4961   -4.8564 C   0  0  0  0  0  0  0  0  0  0  0  0
   31.2213    4.1944   -7.7329 C   0  0  0  0  0  0  0  0  0  0  0  0
   37.5553    5.6281   -4.1279 C   0  0  0  0  0  0  0  0  0  0  0  0
   31.2018    2.2678   -6.2771 C   0  0  0  0  0  0  0  0  0  0  0  0
   26.6868    1.9128  -10.2024 C   0  0  0  0  0  0  0  0  0  0  0  0
   33.0377    4.7481   -5.6134 C   0  0  0  0  0  0  0  0  0  0  0  0
   29.1728    1.4197   -4.5565 C   0  0  0  0  0  0  0  0  0  0  0  0
   28.1884    1.6397   -3.6061 O   0  0  0  0  0  0  0  0  0  0  0  0
   30.2890    2.5017   -5.8561 N   0  0  0  0  0  0  0  0  0  0  0  0
   28.1349    2.3161   -9.4944 C   0  0  0  0  0  0  0  0  0  0  0  0
   31.9065    1.3855   -6.0197 O   0  0  0  0  0  0  0  0  0  0  0  0
   30.9626    2.0966   -9.6492 O   0  0  0  0  0  0  0  0  0  0  0  0
   33.5223    4.6783   -6.9149 C   0  0  0  0  0  0  0  0  0  0  0  0
   29.1440    2.7059  -10.9196 O   0  0  0  0  0  0  0  0  0  0  0  0
   38.8447    3.7779   -4.2912 C   0  0  0  0  0  0  0  0  0  0  0  0
   29.8662    2.5946   -9.6210 P   0  0  0  0  0  0  0  0  0  0  0  0
   30.4730    1.5897   -3.7719 C   0  0  0  0  0  0  0  0  0  0  0  0
   27.5697    0.7425   -5.2725 O   0  0  0  0  0  0  0  0  0  0  0  0
   30.1474    3.1607   -8.0765 C   0  0  0  0  0  0  0  0  0  0  0  0
   28.8013    2.2403   -7.5087 N   0  0  0  0  0  0  0  0  0  0  0  0
   35.9687    4.2441   -5.6685 C   0  0  0  0  0  0  0  0  0  0  0  0
   34.9069    4.5365   -7.0095 C   0  0  0  0  0  0  0  0  0  0  0  0
   31.6357    5.1172   -6.6647 C   0  0  0  0  0  0  0  0  0  0  0  0
  2  1  2  0
  6  2  1  0
  6  3  2  0
  9  4  2  0
 11 10  1  0
 12  7  1  0
 12 10  1  0
 13  8  1  0
 14  7  2  0
 16  9  1  0
 17 13  1  0
 18  1  1  0
 18  3  1  0
 19 15  1  0
 19 17  1  0
 20 10  1  0
 21 10  1  0
 22  5  1  0
 22  7  1  0
 22 19  1  0
 23 22  1  0
 24  2  1  0
 24  4  1  0
 25 16  2  0
 25 24  1  0
 26  5  1  0
 26  9  1  0
M  END
>  <ID>  (1) 
conformer_0

$$$$
