
     RDKit          3D

 24 25  0  0  0  0  0  0  0  0999 V2000
   36.6389    3.9368   -5.6843 C   0  0  0  0  0  0  0  0  0  0  0  0
   35.2185    4.3684   -6.8556 C   0  0  0  0  0  0  0  0  0  0  0  0
   38.1414    3.2735   -5.0934 C   0  0  0  0  0  0  0  0  0  0  0  0
   33.1602    5.0550   -5.8408 C   0  0  0  0  0  0  0  0  0  0  0  0
   31.6592    5.1694   -7.0523 C   0  0  0  0  0  0  0  0  0  0  0  0
   29.7343    3.1006   -8.5546 C   0  0  0  0  0  0  0  0  0  0  0  0
   33.9291    4.7236   -7.1182 C   0  0  0  0  0  0  0  0  0  0  0  0
   30.4218    2.2683   -6.5874 C   0  0  0  0  0  0  0  0  0  0  0  0
   26.2108    2.0104  -10.0243 C   0  0  0  0  0  0  0  0  0  0  0  0
   34.2060    4.8733   -4.9691 C   0  0  0  0  0  0  0  0  0  0  0  0
   38.7400    4.2330   -4.1423 C   0  0  0  0  0  0  0  0  0  0  0  0
   28.5704    1.3991   -3.2594 O   0  0  0  0  0  0  0  0  0  0  0  0
   30.0018    1.3864  -10.1074 O   0  0  0  0  0  0  0  0  0  0  0  0
   31.8548    1.4565   -6.1284 O   0  0  0  0  0  0  0  0  0  0  0  0
   29.7609    2.2959   -6.3578 N   0  0  0  0  0  0  0  0  0  0  0  0
   27.8795    2.2158   -8.9003 C   0  0  0  0  0  0  0  0  0  0  0  0
   29.1979    3.3191  -10.7798 O   0  0  0  0  0  0  0  0  0  0  0  0
   31.2047    2.2480   -3.9471 C   0  0  0  0  0  0  0  0  0  0  0  0
   36.1211    4.6954   -4.9062 C   0  0  0  0  0  0  0  0  0  0  0  0
   37.7979    5.1960   -4.0112 C   0  0  0  0  0  0  0  0  0  0  0  0
   27.0662    1.8306   -7.5551 O   0  0  0  0  0  0  0  0  0  0  0  0
   29.7711    1.5766   -4.4607 C   0  0  0  0  0  0  0  0  0  0  0  0
   27.9298    0.6104   -5.1342 O   0  0  0  0  0  0  0  0  0  0  0  0
   30.9579    4.2014   -7.8287 C   0  0  0  0  0  0  0  0  0  0  0  0
  2  1  2  0
  3  1  1  0
  5  4  1  0
  7  2  1  0
  7  4  1  0
  8  6  1  0
 10  4  2  0
 11  3  2  0
 14  8  2  0
 15  8  1  0
 16  6  1  0
 16  9  1  0
 17  6  1  0
 17 13  1  0
 19  1  1  0
 19 10  1  0
 20 11  1  0
 20 19  2  0
 21 16  1  0
 22 12  1  0
 22 15  1  0
 22 18  1  0
 23 22  1  0
 24  5  1  0
 24  6  1  0
M  END
>  <ID>  (1) 
conformer_0

$$$$
