
     RDKit          3D

 26 27  0  0  0  0  0  0  0  0999 V2000
   36.4542    4.5424   -4.8119 C   0  0  0  0  0  0  0  0  0  0  0  0
   37.6919    3.2567   -5.1957 C   0  0  0  0  0  0  0  0  0  0  0  0
   35.8090    4.1413   -5.6235 C   0  0  0  0  0  0  0  0  0  0  0  0
   34.1968    4.7061   -4.7952 C   0  0  0  0  0  0  0  0  0  0  0  0
   30.6334    4.0364   -7.7872 C   0  0  0  0  0  0  0  0  0  0  0  0
   33.0864    4.9249   -5.6274 C   0  0  0  0  0  0  0  0  0  0  0  0
   28.2699    2.4691   -8.9474 C   0  0  0  0  0  0  0  0  0  0  0  0
   30.0803    2.8104   -7.7692 C   0  0  0  0  0  0  0  0  0  0  0  0
   27.9615    1.4480   -3.8156 O   0  0  0  0  0  0  0  0  0  0  0  0
   38.7858    3.4682   -4.4346 C   0  0  0  0  0  0  0  0  0  0  0  0
   38.7921    4.7950   -3.8536 C   0  0  0  0  0  0  0  0  0  0  0  0
   28.9109    1.3838   -4.5218 C   0  0  0  0  0  0  0  0  0  0  0  0
   31.9744    1.5600   -6.1797 O   0  0  0  0  0  0  0  0  0  0  0  0
   26.5523    1.6807  -10.2937 C   0  0  0  0  0  0  0  0  0  0  0  0
   29.3847    3.0570  -11.2564 O   0  0  0  0  0  0  0  0  0  0  0  0
   29.1800    2.0116   -6.8847 N   0  0  0  0  0  0  0  0  0  0  0  0
   30.4391    1.6572   -3.6995 C   0  0  0  0  0  0  0  0  0  0  0  0
   33.4803    4.7050   -7.0298 C   0  0  0  0  0  0  0  0  0  0  0  0
   29.9748    1.3994  -10.3107 O   0  0  0  0  0  0  0  0  0  0  0  0
   27.5542    2.4845   -8.2486 O   0  0  0  0  0  0  0  0  0  0  0  0
   30.9360    2.1650   -5.9124 C   0  0  0  0  0  0  0  0  0  0  0  0
   31.4960    5.2104   -6.9306 C   0  0  0  0  0  0  0  0  0  0  0  0
   37.6424    5.4644   -4.0503 C   0  0  0  0  0  0  0  0  0  0  0  0
   34.7238    4.3727   -7.0800 C   0  0  0  0  0  0  0  0  0  0  0  0
   30.6013    2.8735   -5.5610 N   0  0  0  0  0  0  0  0  0  0  0  0
   28.8912    2.4136  -10.5269 C   0  0  0  0  0  0  0  0  0  0  0  0
  2  1  2  0
  3  1  1  0
  4  3  2  0
  6  4  1  0
  8  5  1  0
  8  7  1  0
 10  2  1  0
 11 10  2  0
 12  9  1  0
 14  7  1  0
 16  8  1  0
 17 12  1  0
 18  6  2  0
 20  7  1  0
 21 13  1  0
 21 16  1  0
 21 17  1  0
 22  5  1  0
 22 18  1  0
 23  1  1  0
 23 11  1  0
 24  3  1  0
 24 18  1  0
 25 21  1  0
 26  7  1  0
 26 15  1  0
 26 19  1  0
M  END
>  <ID>  (1) 
conformer_0

$$$$
