
     RDKit          3D

 22 21  0  0  0  0  0  0  0  0999 V2000
   34.0108    4.6888   -5.1391 C   0  0  0  0  0  0  0  0  0  0  0  0
   34.4855    4.6755   -7.2724 C   0  0  0  0  0  0  0  0  0  0  0  0
   38.6701    3.6244   -4.6641 C   0  0  0  0  0  0  0  0  0  0  0  0
   33.3872    4.8299   -6.2373 C   0  0  0  0  0  0  0  0  0  0  0  0
   31.4648    4.8754   -7.1591 C   0  0  0  0  0  0  0  0  0  0  0  0
   26.3445    1.7649  -10.0481 C   0  0  0  0  0  0  0  0  0  0  0  0
   31.3141    2.3711   -6.0828 C   0  0  1  0  0  0  0  0  0  0  0  0
   35.8236    4.3348   -6.3086 C   0  0  0  0  0  0  0  0  0  0  0  0
   29.2551    1.4098   -4.3337 C   0  0  0  0  0  0  0  0  0  0  0  0
   28.0853    1.8324   -3.7002 O   0  0  0  0  0  0  0  0  0  0  0  0
   27.9955    2.4478   -9.4590 C   0  0  2  0  0  0  0  0  0  0  0  0
   37.4279    3.8020   -5.4538 C   0  0  0  0  0  0  0  0  0  0  0  0
   32.2626    1.7875   -6.7252 O   0  0  0  0  0  0  0  0  0  0  0  0
   30.2899    2.4624   -6.0447 N   0  0  0  0  0  0  0  0  0  0  0  0
   28.8171    3.3277  -10.7981 O   0  0  0  0  0  0  0  0  0  0  0  0
   30.2864    1.7826   -9.7875 O   0  0  0  0  0  0  0  0  0  0  0  0
   30.3519    1.3163   -3.8180 C   0  0  0  0  0  0  0  0  0  0  0  0
   36.0386    4.6059   -5.0207 C   0  0  0  0  0  0  0  0  0  0  0  0
   38.7688    4.9458   -3.8906 C   0  0  0  0  0  0  0  0  0  0  0  0
   30.5052    3.1201   -7.8182 C   0  0  2  0  0  0  0  0  0  0  0  0
   29.7122    2.5414   -9.4668 P   0  0  0  0  0  0  0  0  0  0  0  0
   37.6269    5.5138   -4.2094 C   0  0  0  0  0  0  0  0  0  0  0  0
  4  1  2  3
  4  2  1  0
  5  4  1  0
  8  2  1  0
 10  9  1  0
 11  6  1  6
 12  3  1  0
  7 13  1  6
 14  7  1  0
 15 11  1  0
 17  7  1  0
 17  9  1  0
 18  8  2  3
 18 12  1  0
 19  3  1  0
 20  5  1  1
 20 11  1  0
 20 14  1  0
 21 15  1  0
 21 16  1  0
 22 19  2  3
M  END
>  <ID>  (1) 
conformer_0

$$$$
