
     RDKit          3D

 27 30  0  0  0  0  0  0  0  0999 V2000
   35.4176    4.5584   -5.1152 C   0  0  1  0  0  0  0  0  0  0  0  0
   33.9056    4.6255   -7.3665 C   0  0  0  0  0  0  0  0  0  0  0  0
   35.2964    4.4302   -6.8026 C   0  0  0  0  0  3  0  0  0  0  0  0
   31.6285    5.2623   -6.7837 C   0  0  0  0  0  0  0  0  0  0  0  0
   36.7333    4.0097   -5.6100 C   0  0  1  0  0  0  0  0  0  0  0  0
   38.2454    5.4299   -3.8101 C   0  0  0  0  0  0  0  0  0  0  0  0
   30.0746    3.3328   -8.3055 C   0  0  0  0  0  0  0  0  0  0  0  0
   28.0851    1.0145   -4.2880 C   0  0  0  0  0  0  0  0  0  0  0  0
   32.9037    4.6696   -6.4348 C   0  0  0  0  0  0  0  0  0  0  0  0
   30.3053    2.6233   -6.1237 N   0  0  0  0  0  0  0  0  0  0  0  0
   29.9072    1.8207   -4.7217 C   0  0  0  0  0  0  0  0  0  0  0  0
   26.8097    1.9011  -10.1588 C   0  0  0  0  0  0  0  0  0  0  0  0
   29.2542    3.0536  -11.1944 O   0  0  0  0  0  0  0  0  0  0  0  0
   32.0596    1.7020   -6.5395 O   0  0  0  0  0  0  0  0  0  0  0  0
   30.1845    1.3637  -10.1449 O   0  0  0  0  0  0  0  0  0  0  0  0
   27.4342    1.3892   -3.9171 O   0  0  0  0  0  0  0  0  0  0  0  0
   36.9977    5.3397   -4.3708 C   0  0  0  0  0  3  0  0  0  0  0  0
   30.3895    1.6332   -4.1455 C   0  0  0  0  0  0  0  0  0  0  0  0
   27.8417    0.2027   -4.9050 O   0  0  0  0  0  0  0  0  0  0  0  0
   33.6075    4.8550   -5.1908 C   0  0  0  0  0  0  0  0  0  0  0  0
   27.6925    1.9632   -7.5872 O   0  0  0  0  0  0  0  0  0  0  0  0
   28.3901    2.3499   -9.5034 C   0  0  1  0  0  0  0  0  0  0  0  0
   29.6449    2.4438  -10.0083 P   0  0  0  0  0  0  0  0  0  0  0  0
   38.8082    4.1037   -4.1260 C   0  0  0  0  0  0  0  0  0  0  0  0
   38.0159    3.4353   -5.1190 C   0  0  0  0  0  0  0  0  0  0  0  0
   31.1871    4.1165   -7.6114 C   0  0  2  0  0  0  0  0  0  0  0  0
   31.4977    2.5969   -6.5186 C   0  0  0  0  0  0  0  0  0  0  0  0
  3  1  1  0
  3  2  1  0
  5  1  1  0
  5  3  1  0
  9  2  2  0
  9  4  1  0
 11  8  1  0
 11 10  1  0
 16  8  2  0
 17  1  1  0
 17  5  1  0
 17  6  1  0
 18 11  2  3
 19  8  1  0
  1 20  1  1
 20  9  1  0
 21 12  1  0
 22  7  1  6
 22 12  1  0
 23 13  1  0
 23 15  1  0
 23 22  1  0
 24  6  2  0
  5 25  1  1
 25 24  1  0
 26  4  1  1
 26  7  1  0
 27 10  1  0
 27 14  2  0
 27 26  1  0
M  RAD  2   3   2  17   2
M  END
>  <ID>  (1) 
conformer_0

$$$$
