
     RDKit          3D

 25 26  0  0  0  0  0  0  0  0999 V2000
   33.6570    4.8033   -7.1922 C   0  0  0  0  0  0  0  0  0  0  0  0
   36.5696    4.4544   -4.9944 C   0  0  0  0  0  0  0  0  0  0  0  0
   38.9143    3.6950   -4.2624 C   0  0  0  0  0  0  0  0  0  0  0  0
   31.4898    4.9600   -7.1728 C   0  0  0  0  0  0  0  0  0  0  0  0
   38.7663    5.0842   -3.7060 C   0  0  0  0  0  0  0  0  0  0  0  0
   34.3687    4.6198   -4.9977 C   0  0  0  0  0  0  0  0  0  0  0  0
   37.5333    5.5540   -4.0594 C   0  0  0  0  0  0  0  0  0  0  0  0
   30.3556    2.9499   -7.9499 C   0  0  2  0  0  0  0  0  0  0  0  0
   26.7555    2.0777  -10.0724 C   0  0  0  0  0  0  0  0  0  0  0  0
   28.0189    2.4611   -9.0652 C   0  0  0  0  0  0  0  0  0  0  0  0
   28.9345    1.2326   -4.3730 C   0  0  2  0  0  0  0  0  0  0  0  0
   28.1791    1.7419   -3.5603 O   0  0  0  0  0  0  0  0  0  0  0  0
   27.7843    1.9395   -7.5794 O   0  0  0  0  0  0  0  0  0  0  0  0
   29.5488    3.0772  -10.8973 O   0  0  0  0  0  0  0  0  0  0  0  0
   35.8118    4.1622   -5.8318 C   0  0  0  0  0  0  0  0  0  0  0  0
   34.9327    4.5114   -7.2704 C   0  0  0  0  0  0  0  0  0  0  0  0
   30.7756    1.8697   -9.3337 O   0  0  0  0  0  0  0  0  0  0  0  0
   31.8968    1.4512   -6.3259 O   0  0  0  0  0  0  0  0  0  0  0  0
   30.3384    2.5409   -6.1545 N   0  0  0  0  0  0  0  0  0  0  0  0
   30.5509    4.1583   -7.7980 C   0  0  0  0  0  0  0  0  0  0  0  0
   29.8299    2.6793   -9.5672 P   0  0  0  0  0  0  0  0  0  0  0  0
   33.2004    4.9702   -5.8717 C   0  0  1  0  0  0  0  0  0  0  0  0
   31.0257    2.0422   -6.0903 C   0  0  0  0  0  0  0  0  0  0  0  0
   37.9297    3.4657   -5.1127 C   0  0  0  0  0  0  0  0  0  0  0  0
   28.6724    0.8456   -5.1845 N   0  0  0  0  0  0  0  0  0  0  0  0
  5  3  2  0
  7  2  2  0
  7  5  1  0
 10  9  1  0
 12 11  1  0
 13 10  2  0
 14 10  1  0
 15  2  1  0
 15  6  2  0
 16  1  2  0
 16 15  1  0
  8 19  1  1
 20  4  2  3
 20  8  1  0
 21  8  1  0
 21 14  1  0
 21 17  1  0
 22  1  1  0
 22  4  1  1
 22  6  1  0
 23 11  1  0
 23 18  2  0
 23 19  1  0
 24  2  1  0
 24  3  1  0
 11 25  1  6
M  END
>  <ID>  (1) 
conformer_0

$$$$
