
     RDKit          3D

 26 27  0  0  0  0  0  0  0  0999 V2000
   36.6802    4.8334   -4.5828 C   0  0  0  0  0  0  0  0  0  0  0  0
   34.6070    4.5237   -4.8481 C   0  0  0  0  0  0  0  0  0  0  0  0
   37.7539    3.6722   -5.3894 C   0  0  0  0  0  0  0  0  0  0  0  0
   38.9343    4.7716   -3.7496 C   0  0  0  0  0  0  0  0  0  0  0  0
   31.1841    4.9530   -7.4395 C   0  0  0  0  0  0  0  0  0  0  0  0
   33.2108    4.8676   -5.0796 C   0  0  0  0  0  0  0  0  0  0  0  0
   29.8251    3.2642   -8.1668 C   0  0  2  0  0  0  0  0  0  0  0  0
   28.6427    1.2063   -3.8419 C   0  0  0  0  0  0  0  0  0  0  0  0
   38.8009    3.6247   -4.5168 C   0  0  0  0  0  0  0  0  0  0  0  0
   30.6122    1.6353   -3.8082 C   0  0  0  0  0  0  0  0  0  0  0  0
   26.7327    1.6704  -10.2955 C   0  0  0  0  0  0  0  0  0  0  0  0
   36.0994    4.3120   -5.6857 C   0  0  0  0  0  0  0  0  0  0  0  0
   30.1706    2.4576   -6.2759 N   0  0  0  0  0  0  0  0  0  0  0  0
   30.0404    1.4123  -10.2978 O   0  0  0  0  0  0  0  0  0  0  0  0
   30.1747    1.6865   -5.0503 C   0  0  0  0  0  0  0  0  0  0  0  0
   29.6698    2.5314   -9.7957 P   0  0  0  0  0  0  0  0  0  0  0  0
   31.9893    1.8549   -6.8038 O   0  0  0  0  0  0  0  0  0  0  0  0
   27.5191    1.5459   -4.2838 O   0  0  0  0  0  0  0  0  0  0  0  0
   29.2569    3.3570  -10.6495 O   0  0  0  0  0  0  0  0  0  0  0  0
   37.7844    5.6199   -3.8403 C   0  0  0  0  0  0  0  0  0  0  0  0
   28.0971    2.1961   -9.2743 C   0  0  1  0  0  0  0  0  0  0  0  0
   28.2804    0.8133   -3.3947 O   0  0  0  0  0  0  0  0  0  0  0  0
   32.9175    4.8000   -6.4197 C   0  0  0  0  0  0  0  0  0  0  0  0
   35.1096    4.5171   -6.9251 C   0  0  0  0  0  0  0  0  0  0  0  0
   33.9667    4.7238   -7.3490 C   0  0  0  0  0  0  0  0  0  0  0  0
   31.1825    2.5044   -6.6743 C   0  0  1  0  0  0  0  0  0  0  0  0
  3  1  2  0
  6  2  2  0
  7  5  1  1
  9  3  1  0
  9  4  2  0
 12  1  1  0
 12  2  1  0
 15  8  1  0
 15 10  2  3
 15 13  1  0
 16 14  1  0
 18  8  1  0
 19 16  1  0
 20  1  1  0
 20  4  1  0
 21  7  1  0
 21 11  1  6
 21 16  1  0
 22  8  2  0
 23  5  1  0
 23  6  1  0
 24 12  2  0
 25 23  2  0
 25 24  1  0
 26  7  1  0
 26 13  1  0
 26 17  1  6
M  END
>  <ID>  (1) 
conformer_0

$$$$
