
     RDKit          3D

 24 25  0  0  0  0  0  0  0  0999 V2000
   36.1346    4.2280   -5.9194 C   0  0  0  0  0  0  0  0  0  0  0  0
   37.5102    5.7264   -4.3128 C   0  0  0  0  0  0  0  0  0  0  0  0
   36.4965    4.6855   -5.0715 C   0  0  0  0  0  0  0  0  0  0  0  0
   33.3570    4.9576   -6.0692 C   0  0  0  0  0  0  0  0  0  0  0  0
   31.0995    4.3756   -7.9439 C   0  0  0  0  0  0  0  0  0  0  0  0
   29.3436    1.3701   -4.2958 C   0  0  0  0  0  0  0  0  0  0  0  0
   38.7924    3.8951   -4.2685 C   0  0  0  0  0  0  0  0  0  0  0  0
   29.9099    3.3810   -8.6983 C   0  0  0  0  0  0  0  0  0  0  0  0
   26.5924    1.4075   -9.8007 C   0  0  0  0  0  0  0  0  0  0  0  0
   34.4926    4.6194   -5.1477 C   0  0  0  0  0  0  0  0  0  0  0  0
   28.3527    1.9154   -4.0749 O   0  0  0  0  0  0  0  0  0  0  0  0
   32.0782    1.5779   -6.1822 O   0  0  0  0  0  0  0  0  0  0  0  0
   29.8876    3.1782  -10.5552 O   0  0  0  0  0  0  0  0  0  0  0  0
   30.6799    1.5147   -3.2537 C   0  0  0  0  0  0  0  0  0  0  0  0
   30.2613    2.6400   -6.4987 N   0  0  0  0  0  0  0  0  0  0  0  0
   30.1759    1.4059   -9.6828 O   0  0  0  0  0  0  0  0  0  0  0  0
   37.7776    3.4095   -5.1301 C   0  0  0  0  0  0  0  0  0  0  0  0
   30.3165    1.6621   -5.4709 C   0  0  0  0  0  0  0  0  0  0  0  0
   33.8618    4.8012   -7.3679 C   0  0  0  0  0  0  0  0  0  0  0  0
   27.8335    1.8671   -9.3629 C   0  0  0  0  0  0  0  0  0  0  0  0
   38.6468    5.2825   -3.8617 C   0  0  0  0  0  0  0  0  0  0  0  0
   31.9717    5.1674   -7.1595 C   0  0  0  0  0  0  0  0  0  0  0  0
   35.1874    4.6216   -7.3133 C   0  0  0  0  0  0  0  0  0  0  0  0
   31.1709    2.8225   -7.0286 C   0  0  0  0  0  0  0  0  0  0  0  0
  3  1  1  0
  3  2  2  0
  8  5  1  0
 10  1  2  0
 10  4  1  0
 11  6  1  0
 13  8  1  0
 14  6  1  0
 16 13  1  0
 17  3  1  0
 17  7  2  0
 18  6  1  0
 18 15  1  0
 19  4  2  0
 20  8  1  0
 20  9  1  0
 21  2  1  0
 21  7  1  0
 22  4  1  0
 22  5  1  0
 23  1  1  0
 23 19  1  0
 24  5  1  0
 24 12  2  0
 24 15  1  0
M  END
>  <ID>  (1) 
conformer_0

$$$$
