
     RDKit          3D

 25 26  0  0  0  0  0  0  0  0999 V2000
   37.4093    3.6365   -5.3237 C   0  0  0  0  0  0  0  0  0  0  0  0
   38.5527    3.4369   -4.7159 C   0  0  0  0  0  0  0  0  0  0  0  0
   34.5099    4.5040   -7.4396 C   0  0  0  0  0  0  0  0  0  0  0  0
   33.0927    5.0525   -5.5660 C   0  0  0  0  0  0  0  0  0  0  0  0
   39.0680    4.4873   -3.9227 C   0  0  0  0  0  0  0  0  0  0  0  0
   31.2532    4.4753   -7.3683 C   0  0  0  0  0  0  0  0  0  0  0  0
   28.9364    1.4152   -4.2475 C   0  0  0  0  0  0  0  0  0  0  0  0
   30.6514    3.1618   -7.8783 C   0  0  0  0  0  0  0  0  0  0  0  0
   26.7561    1.6775  -10.2755 C   0  0  0  0  0  0  0  0  0  0  0  0
   35.4657    4.2343   -6.4089 C   0  0  0  0  0  3  0  0  0  0  0  0
   34.3525    4.7501   -4.9522 C   0  0  0  0  0  0  0  0  0  0  0  0
   27.9805    1.5758   -3.3417 O   0  0  0  0  0  0  0  0  0  0  0  0
   32.0602    1.5402   -6.4743 O   0  0  0  0  0  0  0  0  0  0  0  0
   30.0785    2.4412   -6.1684 N   0  0  0  0  0  0  0  0  0  0  0  0
   30.1926    1.3052  -10.0076 O   0  0  0  0  0  0  0  0  0  0  0  0
   29.5456    3.1909  -10.9498 O   0  0  0  0  0  0  0  0  0  0  0  0
   30.7436    2.2438   -3.9314 C   0  0  0  0  0  0  0  0  0  0  0  0
   28.1914    1.8286   -7.5262 O   0  0  0  0  0  0  0  0  0  0  0  0
   33.1773    4.7583   -6.9374 C   0  0  0  0  0  0  0  0  0  0  0  0
   30.6478    1.8949   -5.7996 C   0  0  0  0  0  0  0  0  0  0  0  0
   29.7140    2.4893   -9.9137 P   0  0  0  0  0  0  0  0  0  0  0  0
   28.6625    2.7062   -9.2522 C   0  0  0  0  0  0  0  0  0  0  0  0
   36.1072    4.4453   -5.2151 C   0  0  0  0  0  0  0  0  0  0  0  0
   38.3452    5.7586   -3.8958 C   0  0  0  0  0  0  0  0  0  0  0  0
   37.1667    5.3921   -4.4071 C   0  0  0  0  0  3  0  0  0  0  0  0
  2  1  1  0
  5  2  2  0
  8  6  1  0
 10  3  2  0
 11  4  1  0
 12  7  1  0
 14  8  1  0
 17  7  1  0
 19  3  1  0
 19  4  1  0
 19  6  1  0
 20 13  2  0
 20 14  1  0
 20 17  1  0
 21 15  1  0
 21 16  1  0
 22  8  1  0
 22  9  1  0
 22 18  1  0
 22 21  1  0
 23  1  1  0
 23 10  1  0
 23 11  1  0
 24  5  1  0
 25 23  1  0
 25 24  2  0
M  RAD  2  10   2  25   2
M  END
>  <ID>  (1) 
conformer_0

$$$$
