
     RDKit          3D

 22 22  0  0  0  0  0  0  0  0999 V2000
   34.8433    4.6075   -5.0068 C   0  0  0  0  0  0  0  0  0  0  0  0
   36.4281    4.1214   -5.6916 C   0  0  0  0  0  0  0  0  0  0  0  0
   38.0953    3.2948   -5.1255 C   0  0  0  0  0  0  0  0  0  0  0  0
   30.9408    4.0733   -7.9035 C   0  0  2  0  0  0  0  0  0  0  0  0
   38.8930    3.9096   -4.1784 C   0  0  0  0  0  0  0  0  0  0  0  0
   26.4272    1.6599  -10.5452 C   0  0  0  0  0  0  0  0  0  0  0  0
   33.3390    4.8091   -5.4852 C   0  0  0  0  0  0  0  0  0  0  0  0
   29.2170    1.4031   -4.3997 C   0  0  0  0  0  0  0  0  0  0  0  0
   29.4394    3.2694   -8.7784 C   0  0  0  0  0  0  0  0  0  0  0  0
   28.0527    1.3739   -3.3635 O   0  0  0  0  0  0  0  0  0  0  0  0
   37.0094    4.8918   -4.6127 C   0  0  0  0  0  0  0  0  0  0  0  0
   38.3062    5.2425   -3.8073 C   0  0  0  0  0  0  0  0  0  0  0  0
   31.9077    1.5332   -5.9935 O   0  0  0  0  0  0  0  0  0  0  0  0
   29.9600    1.6249  -10.3442 O   0  0  0  0  0  0  0  0  0  0  0  0
   30.0999    2.4995   -5.9683 N   0  0  0  0  0  0  0  0  0  0  0  0
   28.8280    3.3431  -11.1984 O   0  0  0  0  0  0  0  0  0  0  0  0
   30.6310    2.3882   -6.2277 C   0  0  0  0  0  0  0  0  0  0  0  0
   30.4120    1.1559   -3.2138 C   0  0  0  0  0  0  0  0  0  0  0  0
   33.6571    4.7533   -7.0145 C   0  0  0  0  0  0  0  0  0  0  0  0
   35.0065    4.5034   -7.0434 C   0  0  0  0  0  0  0  0  0  0  0  0
   27.4781    0.8260   -5.4105 O   0  0  0  0  0  0  0  0  0  0  0  0
   31.6713    4.8704   -7.1008 C   0  0  0  0  0  0  0  0  0  0  0  0
  2  1  1  0
  3  2  2  0
  5  3  1  0
  7  1  1  0
  9  4  1  0
  9  6  1  0
 10  8  1  0
 11  2  1  0
 12  5  2  0
 12 11  1  0
 15  8  1  0
 16  9  1  0
 16 14  1  0
 17  4  1  0
 17 13  2  0
 17 15  1  0
 18  8  1  0
 19  7  2  3
 20 19  1  0
 21  8  1  0
  4 22  1  1
 22 19  1  0
M  END
>  <ID>  (1) 
conformer_0

$$$$
