
     RDKit          3D

 27 27  0  0  0  0  0  0  0  0999 V2000
   35.7525    4.6194   -5.1168 C   0  0  0  0  0  0  0  0  0  0  0  0
   36.6821    4.2562   -5.5481 C   0  0  0  0  0  0  0  0  0  0  0  0
   34.0702    4.8257   -7.3336 C   0  0  0  0  0  0  0  0  0  0  0  0
   38.9253    4.0362   -4.0933 C   0  0  0  0  0  0  0  0  0  0  0  0
   30.9988    4.2433   -7.7498 C   0  0  1  0  0  0  0  0  0  0  0  0
   35.3454    4.5710   -7.0660 C   0  0  0  0  0  0  0  0  0  0  0  0
   29.0132    1.0286   -3.9188 C   0  0  0  0  0  0  0  0  0  0  0  0
   37.4309    5.4599   -4.2253 C   0  0  0  0  0  0  0  0  0  0  0  0
   30.8696    1.7499   -3.9274 C   0  0  0  0  0  0  0  0  0  0  0  0
   26.6152    1.9071   -9.9153 C   0  0  0  0  0  0  0  0  0  0  0  0
   28.4910    0.9834   -2.9648 O   0  0  0  0  0  0  0  0  0  0  0  0
   33.2650    5.0576   -6.1064 C   0  0  1  0  0  0  0  0  0  0  0  0
   32.1427    1.6768   -6.2128 O   0  0  0  0  0  0  0  0  0  0  0  0
   28.0012    2.2635   -9.5907 C   0  0  0  0  0  0  0  0  0  0  0  0
   30.1366    1.5152   -5.2011 C   0  0  2  0  0  0  0  0  0  0  0  0
   30.2940    2.4964   -6.0700 N   0  0  0  0  0  0  0  0  0  0  0  0
   29.8678    2.6623   -9.5791 P   0  0  0  0  0  0  0  0  0  0  0  0
   27.6308    0.5431   -5.0118 O   0  0  0  0  0  0  0  0  0  0  0  0
   30.3787    1.7006   -9.9858 O   0  0  0  0  0  0  0  0  0  0  0  0
   38.0322    3.4783   -5.0029 C   0  0  0  0  0  0  0  0  0  0  0  0
   30.0287    3.5114   -8.6609 C   0  0  0  0  0  0  0  0  0  0  0  0
   29.4426    3.2724  -10.7762 O   0  0  0  0  0  0  0  0  0  0  0  0
   31.7070    5.1691   -6.8146 C   0  0  0  0  0  0  0  0  0  0  0  0
   34.0501    4.9410   -4.9534 C   0  0  0  0  0  0  0  0  0  0  0  0
   28.5901    2.4747   -8.4979 O   0  0  0  0  0  0  0  0  0  0  0  0
   38.6525    5.4217   -3.8265 C   0  0  0  0  0  0  0  0  0  0  0  0
   31.5261    2.5992   -6.5124 C   0  0  0  0  0  0  0  0  0  0  0  0
  2  1  2  0
  6  3  2  3
  8  2  1  0
 11  7  2  0
 12  3  1  0
 14 10  1  0
 15  7  1  0
 15  9  1  1
 16 15  1  0
 18  7  1  0
 19 17  1  0
 20  2  1  0
 20  4  2  0
  5 21  1  1
 21 17  1  0
 22 14  1  0
 22 17  1  0
 23  5  1  0
 12 23  1  1
 24  1  2  0
 24 12  1  0
 25 14  2  0
 26  4  1  0
 26  8  1  0
 27  5  1  0
 27 13  2  0
 27 16  1  0
M  END
>  <ID>  (1) 
conformer_0

$$$$
