
     RDKit          3D

 28 30  0  0  0  0  0  0  0  0999 V2000
   33.9061    4.6853   -7.3668 C   0  0  0  0  0  0  0  0  0  0  0  0
   38.7052    3.2009   -4.7623 C   0  0  0  0  0  0  0  0  0  0  0  0
   36.0995    4.0986   -5.5352 C   0  0  0  0  0  0  0  0  0  0  0  0
   30.4920    4.1585   -8.1014 C   0  0  0  0  0  0  0  0  0  0  0  0
   33.3709    5.0391   -4.9863 C   0  0  0  0  0  0  0  0  0  0  0  0
   30.0424    2.7558   -7.6109 C   0  0  0  0  0  0  0  0  0  0  0  0
   32.9596    5.0726   -6.3232 C   0  0  0  0  0  0  0  0  0  0  0  0
   26.8533    2.5461  -10.1891 C   0  0  0  0  0  0  0  0  0  0  0  0
   37.5570    3.2641   -5.4657 C   0  0  0  0  0  0  0  0  0  0  0  0
   31.0939    2.0381   -5.5876 C   0  0  0  0  0  0  0  0  0  0  0  0
   28.6085    1.4558   -3.2563 O   0  0  0  0  0  0  0  0  0  0  0  0
   34.7825    4.6489   -4.7441 C   0  0  0  0  0  0  0  0  0  0  0  0
   29.5967    3.3421  -10.7767 O   0  0  0  0  0  0  0  0  0  0  0  0
   32.0538    1.5289   -6.2157 O   0  0  0  0  0  0  0  0  0  0  0  0
   29.8893    1.3630  -10.2371 O   0  0  0  0  0  0  0  0  0  0  0  0
   30.0211    2.4186   -6.2865 N   0  0  0  0  0  0  0  0  0  0  0  0
   27.6989    1.8312   -7.7803 O   0  0  0  0  0  0  0  0  0  0  0  0
   31.0280    1.9568   -3.6990 C   0  0  0  0  0  0  0  0  0  0  0  0
   29.2854    1.4860   -4.3623 C   0  0  0  0  0  0  0  0  0  0  0  0
   39.0290    4.3424   -3.9032 C   0  0  0  0  0  0  0  0  0  0  0  0
   31.5208    5.2375   -7.1425 C   0  0  0  0  0  0  0  0  0  0  0  0
   27.8068    1.2662   -4.7632 O   0  0  0  0  0  0  0  0  0  0  0  0
   27.9033    2.0075   -9.0244 C   0  0  0  0  0  0  0  0  0  0  0  0
   35.0427    4.2972   -6.8237 C   0  0  0  0  0  3  0  0  0  0  0  0
   36.7986    4.8175   -4.5443 C   0  0  0  0  0  0  0  0  0  0  0  0
   37.9457    5.2645   -3.8889 C   0  0  0  0  0  0  0  0  0  0  0  0
   29.5241    3.0479   -9.6602 C   0  0  0  0  0  0  0  0  0  0  0  0
   26.3229    1.1553   -9.7321 C   0  0  0  0  0  0  0  0  0  0  0  0
  6  4  1  0
  7  1  2  0
  7  5  1  0
  9  2  1  0
  9  3  1  0
 12  3  1  0
 12  5  2  0
 14 10  2  0
 16  6  1  0
 16 10  1  0
 18 10  1  0
 19 11  2  0
 19 18  1  0
 20  2  2  0
 21  4  1  0
 21  7  1  0
 22 19  1  0
 23  8  1  0
 23 17  1  0
 24  1  1  0
 24  3  1  0
 25  3  1  0
 26 20  1  0
 26 25  2  0
 27  6  1  0
 27 13  1  0
 27 15  1  0
 27 23  1  0
 28  8  1  0
 28 23  1  0
M  RAD  1  24   2
M  END
>  <ID>  (1) 
conformer_0

$$$$
