
     RDKit          3D

 26 27  0  0  0  0  0  0  0  0999 V2000
   37.1678    5.3549   -4.3054 C   0  0  0  0  0  0  0  0  0  0  0  0
   38.9562    3.9576   -4.1635 C   0  0  0  0  0  0  0  0  0  0  0  0
   38.4649    5.3023   -3.7825 C   0  0  0  0  0  0  0  0  0  0  0  0
   36.8345    4.0787   -5.5517 C   0  0  0  0  0  0  0  0  0  0  0  0
   31.7382    4.9632   -7.0981 C   0  0  0  0  0  0  0  0  0  0  0  0
   33.0942    4.8044   -6.0818 C   0  0  0  0  0  0  0  0  0  0  0  0
   26.3323    1.7232   -9.9182 C   0  0  0  0  0  0  0  0  0  0  0  0
   30.8725    2.1990   -6.0834 C   0  0  0  0  0  0  0  0  0  0  0  0
   35.7053    4.4795   -5.4154 C   0  0  0  0  0  0  0  0  0  0  0  0
   28.8455    1.3102   -4.5808 C   0  0  0  0  0  0  0  0  0  0  0  0
   30.6388    1.4095   -4.2901 C   0  0  0  0  0  0  0  0  0  0  0  0
   27.9305    1.5652   -3.6422 O   0  0  0  0  0  0  0  0  0  0  0  0
   30.1392    1.4995   -9.9874 O   0  0  0  0  0  0  0  0  0  0  0  0
   30.4983    2.6336   -5.9963 N   0  0  0  0  0  0  0  0  0  0  0  0
   32.0493    1.7546   -6.6000 O   0  0  0  0  0  0  0  0  0  0  0  0
   38.1575    3.3591   -5.1133 C   0  0  0  0  0  0  0  0  0  0  0  0
   29.5997    2.6116   -9.5823 P   0  0  0  0  0  0  0  0  0  0  0  0
   29.0624    3.3083  -10.9888 O   0  0  0  0  0  0  0  0  0  0  0  0
   27.8751    2.2239   -8.8953 C   0  0  0  0  0  0  0  0  0  0  0  0
   34.2138    4.6220   -5.0106 C   0  0  0  0  0  0  0  0  0  0  0  0
   27.3387    0.5845   -5.0420 O   0  0  0  0  0  0  0  0  0  0  0  0
   30.0446    3.2337   -8.1630 C   0  0  0  0  0  0  0  0  0  0  0  0
   33.7170    4.7688   -7.3273 C   0  0  0  0  0  0  0  0  0  0  0  0
   35.1017    4.5980   -7.1189 C   0  0  0  0  0  0  0  0  0  0  0  0
   30.8552    4.0765   -7.9565 C   0  0  0  0  0  0  0  0  0  0  0  0
   28.7771    2.0049   -7.1693 N   0  0  0  0  0  0  0  0  0  0  0  0
  3  1  2  0
  3  2  1  0
  4  1  1  0
  6  5  1  0
  9  4  1  0
 11  8  1  0
 11 10  1  0
 12 10  2  0
 14  8  1  0
 15  8  1  0
 16  2  2  0
 16  4  1  0
 17 13  1  0
 18 17  1  0
 19  7  1  0
 20  6  2  0
 20  9  1  0
 21 10  1  0
 22  8  1  0
 22 17  1  0
 23  6  1  0
 24  9  2  0
 24 23  1  0
 25  5  1  0
 25 22  1  0
 26 19  1  0
 26 22  1  0
M  END
>  <ID>  (1) 
conformer_0

$$$$
