
     RDKit          3D

 26 27  0  0  0  0  0  0  0  0999 V2000
   35.2191    4.4741   -5.3854 C   0  0  0  0  0  0  0  0  0  0  0  0
   33.6441    4.8103   -4.7081 C   0  0  0  0  0  0  0  0  0  0  0  0
   37.9868    5.6763   -4.1144 C   0  0  0  0  0  0  0  0  0  0  0  0
   31.5684    4.5718   -7.4711 C   0  0  0  0  0  0  0  0  0  0  0  0
   26.3723    2.0782  -10.9467 C   0  0  0  0  0  0  0  0  0  0  0  0
   38.9304    4.6194   -3.8555 C   0  0  0  0  0  0  0  0  0  0  0  0
   32.8265    4.8721   -5.8980 C   0  0  0  0  0  0  0  0  0  0  0  0
   29.7865    3.1234   -8.6662 C   0  0  0  0  0  0  0  0  0  0  0  0
   29.3519    1.4334   -4.3237 C   0  0  0  0  0  0  0  0  0  0  0  0
   28.1482    1.4542   -3.7942 O   0  0  0  0  0  0  0  0  0  0  0  0
   27.2696    2.4684   -8.2056 O   0  0  0  0  0  0  0  0  0  0  0  0
   37.8597    3.1247   -5.3811 C   0  0  0  0  0  0  0  0  0  0  0  0
   38.7841    3.4448   -4.5410 C   0  0  0  0  0  0  0  0  0  0  0  0
   30.8286    2.1145   -3.6672 C   0  0  0  0  0  0  0  0  0  0  0  0
   30.1246    2.3493   -5.9121 N   0  0  0  0  0  0  0  0  0  0  0  0
   32.0253    1.6869   -6.1197 O   0  0  0  0  0  0  0  0  0  0  0  0
   31.2412    2.2738   -6.0023 C   0  0  0  0  0  0  0  0  0  0  0  0
   29.2924    3.0440  -10.8123 O   0  0  0  0  0  0  0  0  0  0  0  0
   30.1103    1.4752  -10.0092 O   0  0  0  0  0  0  0  0  0  0  0  0
   33.2572    4.5799   -7.1344 C   0  0  0  0  0  0  0  0  0  0  0  0
   27.9466    2.3077   -9.5100 C   0  0  0  0  0  0  0  0  0  0  0  0
   30.8093    3.7085   -7.8574 C   0  0  0  0  0  0  0  0  0  0  0  0
   26.3449    1.1405  -10.0480 C   0  0  0  0  0  0  0  0  0  0  0  0
   36.9147    5.1269   -4.5704 C   0  0  0  0  0  0  0  0  0  0  0  0
   36.7207    4.0840   -5.5972 C   0  0  0  0  0  0  0  0  0  0  0  0
   34.7409    4.6562   -7.1126 C   0  0  0  0  0  0  0  0  0  0  0  0
  2  1  2  0
  6  3  2  0
  7  2  1  0
 10  9  1  0
 13  6  1  0
 13 12  2  0
 14  9  1  0
 15  9  1  0
 17 15  1  0
 17 16  1  0
 19 18  1  0
 20  4  1  0
 20  7  2  0
 21  8  1  0
 21 11  1  0
 21 18  1  0
 22  4  1  0
 22  8  1  0
 22 17  1  0
 23  5  1  0
 23 21  1  0
 24  3  1  0
 25  1  1  0
 25 12  1  0
 25 24  2  0
 26  1  1  0
 26 20  1  0
M  END
>  <ID>  (1) 
conformer_0

$$$$
