
     RDKit          3D

 27 29  0  0  0  0  0  0  0  0999 V2000
   37.6918    3.5808   -5.1353 C   0  0  0  0  0  0  0  0  0  0  0  0
   36.1703    4.3231   -5.4641 C   0  0  0  0  0  0  0  0  0  0  0  0
   39.0447    4.7722   -3.7463 C   0  0  0  0  0  0  0  0  0  0  0  0
   37.0073    5.0577   -4.4680 C   0  0  0  0  0  0  0  0  0  0  0  0
   31.6120    5.1992   -7.2077 C   0  0  0  0  0  0  0  0  0  0  0  0
   33.0385    4.8768   -6.6684 C   0  0  0  0  0  0  0  0  0  0  0  0
   38.0871    5.8059   -3.9197 C   0  0  0  0  0  0  0  0  0  0  0  0
   30.1784    3.3145   -8.4385 C   0  0  0  0  0  0  0  0  0  0  0  0
   30.6873    1.6026   -4.0050 C   0  0  0  0  0  0  0  0  0  0  0  0
   31.4623    2.2921   -6.1773 C   0  0  0  0  0  0  0  0  0  0  0  0
   34.6170    4.5064   -4.9199 C   0  0  0  0  0  3  0  0  0  0  0  0
   28.4550    1.2623   -3.0659 O   0  0  0  0  0  0  0  0  0  0  0  0
   30.1325    1.5444  -10.0808 O   0  0  0  0  0  0  0  0  0  0  0  0
   26.4170    1.7828   -9.7927 C   0  0  0  0  0  0  0  0  0  0  0  0
   32.2665    1.5881   -6.3972 O   0  0  0  0  0  0  0  0  0  0  0  0
   30.1180    2.3194   -6.3683 N   0  0  0  0  0  0  0  0  0  0  0  0
   38.7935    3.5270   -4.4391 C   0  0  0  0  0  0  0  0  0  0  0  0
   29.2107    3.3758  -11.0664 O   0  0  0  0  0  0  0  0  0  0  0  0
   28.8031    1.2508   -4.0331 C   0  0  0  0  0  0  0  0  0  0  0  0
   29.6349    2.6766   -9.8561 P   0  0  0  0  0  0  0  0  0  0  0  0
   27.7765    2.2492   -9.6715 C   0  0  0  0  0  0  0  0  0  0  0  0
   35.2222    4.5293   -6.8734 C   0  0  0  0  0  0  0  0  0  0  0  0
   34.1902    4.7283   -7.5593 C   0  0  0  0  0  0  0  0  0  0  0  0
   30.8164    4.1945   -7.8452 C   0  0  0  0  0  0  0  0  0  0  0  0
   28.0317    1.2129   -5.0553 N   0  0  0  0  0  0  0  0  0  0  0  0
   29.6954    1.7402   -5.9901 C   0  0  0  0  0  0  0  0  0  0  0  0
   33.2768    4.8305   -5.2540 C   0  0  0  0  0  0  0  0  0  0  0  0
  2  1  1  0
  4  1  2  0
  4  2  1  0
  6  5  1  0
  7  3  2  0
  7  4  1  0
 11  2  1  0
 15 10  2  0
 16 10  1  0
 17  1  1  0
 17  3  1  0
 19  9  1  0
 19 12  2  0
 20  8  1  0
 20 13  1  0
 20 18  1  0
 21 14  1  0
 21 18  1  0
 22  2  1  0
 23  6  1  0
 23 22  2  0
 24  5  1  0
 24  8  1  0
 25 19  1  0
 26 16  1  0
 26 24  1  0
 26 25  1  0
 27  6  2  0
 27 11  1  0
M  RAD  1  11   2
M  END
>  <ID>  (1) 
conformer_0

$$$$
