
     RDKit          3D

 26 28  0  0  0  0  0  0  0  0999 V2000
   36.8305    5.0895   -4.6914 C   0  0  0  0  0  0  0  0  0  0  0  0
   34.9947    4.3109   -4.8724 C   0  0  0  0  0  0  0  0  0  0  0  0
   37.7966    3.2738   -5.2948 C   0  0  0  0  0  3  0  0  0  0  0  0
   37.9208    5.8559   -4.1872 C   0  0  0  0  0  0  0  0  0  0  0  0
   33.4679    4.6204   -5.0325 C   0  0  0  0  0  0  0  0  0  0  0  0
   29.7237    2.7586   -7.8149 C   0  0  0  0  0  0  0  0  0  0  0  0
   31.6725    5.0611   -7.0789 C   0  0  0  0  0  0  0  0  0  0  0  0
   38.8555    4.9308   -3.9334 C   0  0  0  0  0  0  0  0  0  0  0  0
   27.5172    1.9823   -9.0625 C   0  0  0  0  0  0  0  0  0  0  0  0
   29.7594    1.6846   -4.4317 C   0  0  0  0  0  0  0  0  0  0  0  0
   29.9355    1.4009  -10.1762 O   0  0  0  0  0  0  0  0  0  0  0  0
   38.7686    3.6585   -4.4441 C   0  0  0  0  0  0  0  0  0  0  0  0
   28.4486    1.6756   -3.7565 O   0  0  0  0  0  0  0  0  0  0  0  0
   29.4681    2.5144   -9.6509 P   0  0  0  0  0  0  0  0  0  0  0  0
   30.8286    1.5880   -4.0398 C   0  0  0  0  0  0  0  0  0  0  0  0
   28.8972    3.3316  -10.8335 O   0  0  0  0  0  0  0  0  0  0  0  0
   30.6978    2.7357   -5.8175 N   0  0  0  0  0  0  0  0  0  0  0  0
   26.0657    1.7356  -10.0651 C   0  0  0  0  0  0  0  0  0  0  0  0
   32.1940    1.6933   -6.8090 O   0  0  0  0  0  0  0  0  0  0  0  0
   36.5349    3.9916   -5.4899 C   0  0  0  0  0  0  0  0  0  0  0  0
   33.1581    4.7345   -6.2940 C   0  0  0  0  0  0  0  0  0  0  0  0
   31.2743    2.3989   -6.4724 C   0  0  0  0  0  0  0  0  0  0  0  0
   28.9244    2.0794   -7.2035 N   0  0  0  0  0  0  0  0  0  0  0  0
   35.3751    4.4848   -6.6168 C   0  0  0  0  0  0  0  0  0  0  0  0
   34.1968    4.7224   -7.2772 C   0  0  0  0  0  0  0  0  0  0  0  0
   30.4261    4.2859   -7.8442 C   0  0  0  0  0  0  0  0  0  0  0  0
  4  1  2  0
  5  2  2  0
  8  4  1  0
 12  3  1  0
 12  8  2  0
 13 10  2  0
 14  6  1  0
 14 11  1  0
 15 10  1  0
 16  9  1  0
 16 14  1  0
 17 10  1  0
 18  9  1  0
 20  1  1  0
 20  2  1  0
 20  3  1  0
 21  5  1  0
 21  7  1  0
 22  6  1  0
 22 17  1  0
 22 19  2  0
 23  6  1  0
 24  2  1  0
 24 20  1  0
 25 21  2  0
 25 24  1  0
 26  6  1  0
 26  7  1  0
M  RAD  1   3   2
M  END
>  <ID>  (1) 
conformer_0

$$$$
