
     RDKit          3D

 28 30  0  0  0  0  0  0  0  0999 V2000
   37.7093    3.4084   -5.2214 C   0  0  0  0  0  0  0  0  0  0  0  0
   38.8036    3.4887   -4.4549 C   0  0  0  0  0  0  0  0  0  0  0  0
   35.2562    4.2559   -6.7097 C   0  0  0  0  0  0  0  0  0  0  0  0
   30.5929    4.5431   -8.0923 C   0  0  0  0  0  0  0  0  0  0  0  0
   36.9476    5.2114   -4.4557 C   0  0  0  0  0  3  0  0  0  0  0  0
   28.7030    1.3561   -4.5794 C   0  0  0  0  0  0  0  0  0  0  0  0
   34.1388    4.6278   -7.3075 C   0  0  0  0  0  0  0  0  0  0  0  0
   39.0503    4.7410   -3.8021 C   0  0  0  0  0  0  0  0  0  0  0  0
   28.3903    1.4673   -3.3928 O   0  0  0  0  0  0  0  0  0  0  0  0
   26.8127    1.6994   -9.6609 C   0  0  0  0  0  0  0  0  0  0  0  0
   28.1269    1.9360   -9.5579 C   0  0  0  0  0  0  0  0  0  0  0  0
   29.5273    2.8269  -11.0493 O   0  0  0  0  0  0  0  0  0  0  0  0
   32.0183    1.6431   -6.6202 O   0  0  0  0  0  0  0  0  0  0  0  0
   38.0757    5.7691   -3.9733 C   0  0  0  0  0  0  0  0  0  0  0  0
   30.3196    1.7837   -4.9276 C   0  0  2  0  0  0  0  0  0  0  0  0
   29.3791    1.9205   -6.5021 N   0  0  0  0  0  0  0  0  0  0  0  0
   30.9738    1.8789   -4.0813 C   0  0  0  0  0  0  0  0  0  0  0  0
   27.3827    0.8945   -5.1859 O   0  0  0  0  0  0  0  0  0  0  0  0
   30.2407    1.4366   -9.7673 O   0  0  0  0  0  0  0  0  0  0  0  0
   36.4251    4.1784   -5.3892 C   0  0  2  0  0  0  0  0  0  0  0  0
   33.0293    4.9157   -6.4924 C   0  0  0  0  0  0  0  0  0  0  0  0
   31.5633    4.9450   -7.2467 C   0  0  2  0  0  0  0  0  0  0  0  0
   29.8685    2.5420   -9.7076 P   0  0  0  0  0  0  0  0  0  0  0  0
   29.9177    3.6003   -8.9012 C   0  0  0  0  0  0  0  0  0  0  0  0
   31.4344    2.6279   -6.3535 C   0  0  0  0  0  0  0  0  0  0  0  0
   35.0043    4.5324   -4.9350 C   0  0  1  0  0  0  0  0  0  0  0  0
   33.5300    5.0588   -5.1302 C   0  0  0  0  0  0  0  0  0  0  0  0
   31.0542    3.2641   -5.7393 N   0  0  0  0  0  0  0  0  0  0  0  0
  2  1  2  0
  7  3  2  0
  8  2  1  0
  9  6  2  0
 11 10  2  3
 12 11  1  0
 14  5  1  0
 14  8  2  0
 15  6  1  0
 16 15  1  0
 15 17  1  1
 18  6  1  0
 20  1  1  0
 20  3  1  0
 20  5  1  6
 21  7  1  0
 22  4  1  6
 22 21  1  0
 23 12  1  0
 23 19  1  0
 24  4  1  0
 24 23  1  0
 25 13  2  0
 25 22  1  0
 26  3  1  0
 26 20  1  0
 27 21  2  0
 26 27  1  6
 28 15  1  0
 28 25  1  0
M  RAD  1   5   2
M  END
>  <ID>  (1) 
conformer_0

$$$$
