
     RDKit          3D

 24 25  0  0  0  0  0  0  0  0999 V2000
   37.3411    5.3942   -4.2447 C   0  0  0  0  0  0  0  0  0  0  0  0
   36.4441    4.2865   -5.7739 C   0  0  0  0  0  0  0  0  0  0  0  0
   38.8467    3.8388   -4.2835 C   0  0  0  0  0  0  0  0  0  0  0  0
   30.9216    4.1681   -7.8169 C   0  0  0  0  0  0  0  0  0  0  0  0
   33.2328    4.9787   -6.0272 C   0  0  0  0  0  0  0  0  0  0  0  0
   35.2426    4.5944   -7.1180 C   0  0  0  0  0  0  0  0  0  0  0  0
   33.9554    4.7811   -7.3172 C   0  0  0  0  0  0  0  0  0  0  0  0
   28.4595    2.4281   -9.3575 C   0  0  0  0  0  0  0  0  0  0  0  0
   37.9075    3.4369   -5.1885 C   0  0  0  0  0  0  0  0  0  0  0  0
   30.9561    2.2152   -5.9838 C   0  0  0  0  0  0  0  0  0  0  0  0
   29.9631    1.2565   -3.7519 C   0  0  0  0  0  0  0  0  0  0  0  0
   28.8387    1.1049   -4.3010 C   0  0  0  0  0  0  0  0  0  0  0  0
   26.7741    1.6312  -10.1418 C   0  0  0  0  0  0  0  0  0  0  0  0
   32.0386    1.5846   -5.9968 O   0  0  0  0  0  0  0  0  0  0  0  0
   27.7765    0.8449   -4.1793 O   0  0  0  0  0  0  0  0  0  0  0  0
   30.2772    2.5548   -6.1399 N   0  0  0  0  0  0  0  0  0  0  0  0
   29.8395    1.2652  -10.0950 O   0  0  0  0  0  0  0  0  0  0  0  0
   38.5819    5.1628   -3.8450 C   0  0  0  0  0  0  0  0  0  0  0  0
   28.7563    3.2426  -11.0447 O   0  0  0  0  0  0  0  0  0  0  0  0
   30.1062    3.1681   -8.1511 C   0  0  0  0  0  0  0  0  0  0  0  0
   31.6693    5.1392   -7.0079 C   0  0  0  0  0  0  0  0  0  0  0  0
   35.8585    4.6118   -4.9717 C   0  0  0  0  0  0  0  0  0  0  0  0
   34.0598    4.8278   -4.8983 C   0  0  0  0  0  0  0  0  0  0  0  0
   30.6732    3.0114  -10.4293 O   0  0  0  0  0  0  0  0  0  0  0  0
  6  2  1  0
  7  5  1  0
  7  6  2  0
  9  2  1  0
  9  3  2  0
 11 10  1  0
 12 11  1  0
 13  8  1  0
 14 10  2  0
 15 12  2  0
 16 10  1  0
 17  8  1  0
 18  1  2  0
 18  3  1  0
 19  8  1  0
 20  4  2  0
 20  8  1  0
 20 16  1  0
 21  4  2  0
 21  5  1  0
 22  1  1  0
 22  2  2  0
 23  5  2  0
 23 22  1  0
 24 19  1  0
M  END
>  <ID>  (1) 
conformer_0

$$$$
