
     RDKit          3D

 26 26  0  0  0  0  0  0  0  0999 V2000
   37.0814    5.3502   -4.3303 C   0  0  0  0  0  0  0  0  0  0  0  0
   33.9509    4.5723   -5.0685 C   0  0  0  0  0  0  0  0  0  0  0  0
   38.8479    4.0120   -4.2006 C   0  0  0  0  0  0  0  0  0  0  0  0
   33.1345    4.8400   -6.1583 C   0  0  1  0  0  0  0  0  0  0  0  0
   31.7400    5.2953   -6.8089 C   0  0  0  0  0  0  0  0  0  0  0  0
   29.4093    1.4064   -4.3294 C   0  0  0  0  0  0  0  0  0  0  0  0
   38.0151    3.4203   -5.0659 C   0  0  0  0  0  0  0  0  0  0  0  0
   30.0908    3.6205   -8.4354 C   0  0  0  0  0  0  0  0  0  0  0  0
   36.5691    4.0485   -5.5028 C   0  0  0  0  0  0  0  0  0  0  0  0
   29.9713    1.4901  -10.1702 O   0  0  0  0  0  0  0  0  0  0  0  0
   33.9214    4.7493   -7.4100 C   0  0  0  0  0  0  0  0  0  0  0  0
   32.0544    1.4629   -5.9102 O   0  0  0  0  0  0  0  0  0  0  0  0
   26.5056    1.7731   -9.7976 C   0  0  0  0  0  0  0  0  0  0  0  0
   30.1652    2.5631   -6.2435 N   0  0  0  0  0  0  0  0  0  0  0  0
   29.5707    3.4578  -10.4055 O   0  0  0  0  0  0  0  0  0  0  0  0
   27.6862    1.9812   -8.8440 C   0  0  0  0  0  0  0  0  0  0  0  0
   29.5463    2.4321   -9.6207 P   0  0  0  0  0  0  0  0  0  0  0  0
   28.1607    1.7272   -4.3356 O   0  0  0  0  0  0  0  0  0  0  0  0
   38.3472    5.3394   -3.8770 C   0  0  0  0  0  0  0  0  0  0  0  0
   27.8958    1.7602   -7.7797 O   0  0  0  0  0  0  0  0  0  0  0  0
   30.9743    1.8566   -5.2731 C   0  0  1  0  0  0  0  0  0  0  0  0
   31.5661    2.5076   -3.4928 C   0  0  0  0  0  0  0  0  0  0  0  0
   35.5309    4.3818   -5.1476 C   0  0  0  0  0  0  0  0  0  0  0  0
   35.1071    4.4317   -7.0847 C   0  0  0  0  0  0  0  0  0  0  0  0
   30.9193    4.4431   -7.7032 C   0  0  0  0  0  0  0  0  0  0  0  0
   29.9183    2.3066   -7.0595 C   0  0  1  0  0  0  0  0  0  0  0  0
  4  2  1  1
  5  4  1  0
  7  3  2  0
  9  1  1  0
  9  7  1  0
 11  4  1  0
 16 13  1  0
 17  8  1  0
 17 10  1  0
 17 15  1  0
 18  6  1  0
 19  1  1  0
 19  3  1  0
 20 16  1  0
 21  6  1  0
 21 12  1  0
 21 14  1  0
 21 22  1  1
 23  2  2  0
 23  9  2  0
 24 11  2  3
 25  5  2  0
 25  8  2  0
 26  8  1  0
 26 14  1  1
 26 20  1  0
M  END
>  <ID>  (1) 
conformer_0

$$$$
