
     RDKit          3D

 24 24  0  0  0  0  0  0  0  0999 V2000
   35.9512    4.5544   -5.1168 C   0  0  0  0  0  0  0  0  0  0  0  0
   36.8877    3.8506   -5.4516 C   0  0  0  0  0  0  0  0  0  0  0  0
   37.6806    5.2781   -4.1347 C   0  0  0  0  0  0  0  0  0  0  0  0
   34.0868    4.7496   -5.0600 C   0  0  0  0  0  0  0  0  0  0  0  0
   31.0654    3.9665   -7.6178 C   0  0  2  0  0  0  0  0  0  0  0  0
   33.0574    4.9757   -6.0841 C   0  0  0  0  0  0  0  0  0  0  0  0
   30.1109    3.2311   -8.3552 C   0  0  0  0  0  0  0  0  0  0  0  0
   38.7230    4.5099   -4.0747 C   0  0  0  0  0  0  0  0  0  0  0  0
   29.2547    1.4018   -4.4250 C   0  0  0  0  0  0  0  0  0  0  0  0
   29.9553    1.3601  -10.1013 O   0  0  0  0  0  0  0  0  0  0  0  0
   27.6553    2.0997   -8.7985 C   0  0  0  0  0  0  0  0  0  0  0  0
   30.0528    2.3333   -6.1631 N   0  0  0  0  0  0  0  0  0  0  0  0
   35.1686    4.4215   -6.8103 C   0  0  0  0  0  0  0  0  0  0  0  0
   29.5712    3.3365  -10.5349 O   0  0  0  0  0  1  0  0  0  0  0  0
   32.1094    1.5714   -6.2936 O   0  0  0  0  0  0  0  0  0  0  0  0
   26.2795    1.6649   -9.8132 C   0  0  0  0  0  0  0  0  0  0  0  0
   38.4051    3.3297   -4.9197 C   0  0  0  0  0  0  0  0  0  0  0  0
   29.6609    2.4099   -9.7149 P   0  0  2  0  0  4  0  0  0  0  0  0
   30.6486    1.6245   -3.9651 C   0  0  0  0  0  0  0  0  0  0  0  0
   31.2055    2.0946   -5.9790 C   0  0  1  0  0  0  0  0  0  0  0  0
   28.3802    1.8684   -3.9281 O   0  0  0  0  0  0  0  0  0  0  0  0
   33.8517    4.7561   -7.3622 C   0  0  0  0  0  0  0  0  0  0  0  0
   27.4426    1.5080   -7.8326 O   0  0  0  0  0  0  0  0  0  0  0  0
   31.5664    5.1920   -7.1526 C   0  0  0  0  0  0  0  0  0  0  0  0
  2  1  1  0
  4  1  2  0
  6  4  1  0
  7  5  1  0
  8  3  2  3
 11  7  1  0
 13  1  1  0
 16 11  1  0
 17  2  1  0
 17  8  1  0
 18  7  1  0
 18 10  1  6
 18 14  1  0
 19  9  1  0
 20  5  1  0
 20 12  1  6
 20 15  1  0
 20 19  1  0
 21  9  2  0
 22  6  2  0
 22 13  1  0
 23 11  2  0
  5 24  1  1
 24  6  1  0
M  RAD  2  14   2  18   2
M  END
>  <ID>  (1) 
conformer_0

$$$$
