
     RDKit          3D

 25 26  0  0  0  0  0  0  0  0999 V2000
   36.7550    4.1469   -5.4514 C   0  0  0  0  0  0  0  0  0  0  0  0
   38.0287    3.2816   -5.1744 C   0  0  0  0  0  0  0  0  0  0  0  0
   38.8870    3.7022   -4.2505 C   0  0  0  0  0  0  0  0  0  0  0  0
   31.2437    4.3353   -7.8023 C   0  0  0  0  0  0  0  0  0  0  0  0
   38.6341    5.0905   -3.8113 C   0  0  0  0  0  0  0  0  0  0  0  0
   33.0143    5.1701   -5.8618 C   0  0  0  0  0  0  0  0  0  0  0  0
   26.6212    1.5629   -9.7982 C   0  0  0  0  0  0  0  0  0  0  0  0
   27.9229    2.3225   -8.9625 C   0  0  0  0  0  0  0  0  0  0  0  0
   31.1364    2.3133   -4.1647 C   0  0  0  0  0  0  0  0  0  0  0  0
   37.4257    5.4489   -4.2170 C   0  0  0  0  0  0  0  0  0  0  0  0
   34.0861    4.9082   -4.8669 C   0  0  0  0  0  0  0  0  0  0  0  0
   29.2453    1.3463   -4.3136 C   0  0  0  0  0  0  0  0  0  0  0  0
   31.2413    2.2526   -6.2769 C   0  0  0  0  0  0  0  0  0  0  0  0
   30.2128    1.4256   -9.9966 O   0  0  0  0  0  0  0  0  0  0  0  0
   30.1339    2.3602   -6.1975 N   0  0  0  0  0  0  0  0  0  0  0  0
   29.1478    3.2871  -10.9673 O   0  0  0  0  0  0  0  0  0  0  0  0
   28.6130    1.2189   -3.4366 O   0  0  0  0  0  0  0  0  0  0  0  0
   27.8374    1.7894   -7.2622 O   0  0  0  0  0  0  0  0  0  0  0  0
   32.0426    1.6871   -6.6277 O   0  0  0  0  0  0  0  0  0  0  0  0
   33.7277    4.8128   -7.0421 C   0  0  0  0  0  0  0  0  0  0  0  0
   29.8637    2.5622   -9.6047 P   0  0  0  0  0  0  0  0  0  0  0  0
   30.0620    3.2584   -8.4305 C   0  0  0  0  0  0  0  0  0  0  0  0
   31.6743    5.2257   -7.2881 C   0  0  0  0  0  0  0  0  0  0  0  0
   35.7611    4.6521   -5.1235 C   0  0  0  0  0  0  0  0  0  0  0  0
   35.0445    4.4740   -6.8651 C   0  0  0  0  0  0  0  0  0  0  0  0
  2  1  2  0
  3  2  1  0
  5  3  2  0
  8  7  1  0
 10  1  1  0
 10  5  1  0
 11  6  2  0
 12  9  1  0
 13  4  1  0
 13  9  1  0
 15 13  1  0
 17 12  2  0
 18  8  1  0
 19 13  1  0
 20  6  1  0
 21 14  1  0
 21 16  1  0
 22  4  1  0
 22  8  1  0
 22 21  1  0
 23  4  1  0
 23  6  1  0
 24  1  1  0
 24 11  1  0
 25 20  1  0
 25 24  2  0
M  END
>  <ID>  (1) 
conformer_0

$$$$
