
     RDKit          3D

 26 27  0  0  0  0  0  0  0  0999 V2000
   35.7718    4.3353   -5.8679 C   0  0  0  0  0  0  0  0  0  0  0  0
   33.3227    4.7720   -6.9532 C   0  0  0  0  0  0  0  0  0  0  0  0
   37.6122    3.4132   -5.6250 C   0  0  0  0  0  0  0  0  0  0  0  0
   31.6152    5.0757   -6.9660 C   0  0  0  0  0  0  0  0  0  0  0  0
   34.5962    4.6072   -7.0957 C   0  0  0  0  0  0  0  0  0  0  0  0
   34.3202    4.8022   -4.7751 C   0  0  0  0  0  0  0  0  0  0  0  0
   38.6902    3.2335   -4.8141 C   0  0  0  0  0  0  0  0  0  0  0  0
   29.3250    1.4981   -4.4240 C   0  0  0  0  0  0  0  0  0  0  0  0
   30.1477    3.3381   -8.3806 C   0  0  0  0  0  0  0  0  0  0  0  0
   26.3665    1.5953  -10.7583 C   0  0  0  0  0  0  0  0  0  0  0  0
   28.2305    1.8059   -3.6176 O   0  0  0  0  0  0  0  0  0  0  0  0
   30.8494    1.9018   -3.9949 C   0  0  0  0  0  0  0  0  0  0  0  0
   30.2134    2.4507   -6.3091 N   0  0  0  0  0  0  0  0  0  0  0  0
   38.8707    4.3379   -3.8684 C   0  0  0  0  0  0  0  0  0  0  0  0
   29.3243    3.1533  -11.1708 O   0  0  0  0  0  0  0  0  0  0  0  0
   30.2851    1.7361   -9.9656 O   0  0  0  0  0  0  0  0  0  0  0  0
   32.0207    1.6828   -6.6621 O   0  0  0  0  0  0  0  0  0  0  0  0
   30.8987    2.2016   -6.2600 C   0  0  0  0  0  0  0  0  0  0  0  0
   33.0208    5.0585   -5.4974 C   0  0  0  0  0  0  0  0  0  0  0  0
   27.9212    0.7435   -4.9005 O   0  0  0  0  0  0  0  0  0  0  0  0
   30.8779    4.2590   -7.8082 C   0  0  0  0  0  0  0  0  0  0  0  0
   28.4461    2.1729   -8.4379 O   0  0  0  0  0  0  0  0  0  0  0  0
   29.6716    2.5924   -9.8230 P   0  0  0  0  0  0  0  0  0  0  0  0
   28.1001    2.6345   -9.7217 C   0  0  0  0  0  0  0  0  0  0  0  0
   36.4941    4.6688   -4.9429 C   0  0  0  0  0  0  0  0  0  0  0  0
   37.7185    5.1895   -4.0453 C   0  0  0  0  0  0  0  0  0  0  0  0
  4  2  1  0
  5  1  2  0
  5  2  1  0
  6  1  1  0
  7  3  2  0
 11  8  2  0
 12  8  1  0
 14  7  1  0
 18  9  1  0
 18 12  1  0
 18 13  1  0
 18 17  1  0
 19  2  2  0
 19  6  1  0
 20  8  1  0
 21  4  2  0
 21  9  2  0
 23 15  1  0
 23 16  1  0
 24  9  1  0
 24 10  1  0
 24 22  1  0
 24 23  1  0
 25  1  1  0
 25  3  1  0
 26 14  2  0
 26 25  1  0
M  END
>  <ID>  (1) 
conformer_0

$$$$
