
     RDKit          3D

 27 29  0  0  0  0  0  0  0  0999 V2000
   39.0631    4.1502   -4.0098 C   0  0  0  0  0  0  0  0  0  0  0  0
   35.4573    4.4208   -6.7347 C   0  0  0  0  0  0  0  0  0  0  0  0
   34.3008    4.5949   -7.3674 C   0  0  0  0  0  0  0  0  0  0  0  0
   38.6018    5.4853   -3.9297 C   0  0  0  0  0  0  0  0  0  0  0  0
   31.3407    3.8612   -7.8139 C   0  0  0  0  0  0  0  0  0  0  0  0
   34.4600    4.5859   -4.7859 C   0  0  0  0  0  0  0  0  0  0  0  0
   29.0074    1.5331   -4.3482 C   0  0  0  0  0  0  0  0  0  0  0  0
   26.4859    1.2145   -9.9565 C   0  0  0  0  0  0  0  0  0  0  0  0
   31.1192    2.8759   -7.3410 C   0  0  0  0  0  0  0  0  0  0  0  0
   33.1300    4.8098   -6.6198 C   0  0  0  0  0  0  0  0  0  0  0  0
   33.2592    5.0465   -5.2517 C   0  0  0  0  0  0  0  0  0  0  0  0
   28.0572    1.4038   -3.8593 O   0  0  0  0  0  0  0  0  0  0  0  0
   30.7468    2.1073   -3.7883 C   0  0  0  0  0  0  0  0  0  0  0  0
   30.4818    2.6800   -5.9215 N   0  0  0  0  0  0  0  0  0  0  0  0
   27.5446    1.6614   -9.0449 C   0  0  0  0  0  0  0  0  0  0  0  0
   29.4929    3.2022  -10.5344 O   0  0  0  0  0  1  0  0  0  0  0  0
   30.4572    1.6039   -9.6845 O   0  0  0  0  0  0  0  0  0  0  0  0
   31.8457    1.4128   -6.1287 O   0  0  0  0  0  0  0  0  0  0  0  0
   37.1691    3.8939   -5.4480 C   0  0  0  0  0  0  0  0  0  0  0  0
   38.4076    3.2686   -4.9348 C   0  0  0  0  0  0  0  0  0  0  0  0
   30.6478    1.8015   -5.2582 C   0  0  0  0  0  0  0  0  0  0  0  0
   29.8139    2.4753   -9.4581 P   0  0  0  0  0  4  0  0  0  0  0  0
   31.6165    5.0440   -7.1076 C   0  0  0  0  0  0  0  0  0  0  0  0
   36.0278    4.5091   -5.2890 C   0  0  0  0  0  0  0  0  0  0  0  0
   28.9192    2.1584   -7.6012 N   0  0  0  0  0  0  0  0  0  0  0  0
   37.4416    5.4325   -4.3770 C   0  0  0  0  0  0  0  0  0  0  0  0
   29.6568    3.1117   -8.6223 C   0  0  0  0  0  0  0  0  0  0  0  0
  3  2  2  0
  4  1  2  0
  9  5  1  0
 10  3  1  0
 11  6  1  0
 11 10  2  0
 12  7  2  0
 13  7  1  0
 14  9  1  0
 15  8  1  0
 20  1  1  0
 20 19  1  0
 21  7  1  0
 21 13  1  0
 21 14  1  0
 21 18  1  0
 22 16  1  0
 22 17  1  0
 23  5  1  0
 23 10  1  0
 24  2  1  0
 24  6  2  0
 24 19  1  0
 26  4  1  0
 26 19  2  0
 27  9  1  0
 27 15  1  0
 27 22  1  0
 27 25  1  0
M  RAD  2  16   2  22   2
M  END
>  <ID>  (1) 
conformer_0

$$$$
