
     RDKit          3D

 21 21  0  0  0  0  0  0  0  0999 V2000
   37.8931    3.4899   -5.0005 C   0  0  0  0  0  0  0  0  0  0  0  0
   36.3700    4.7330   -4.9096 C   0  0  0  0  0  0  0  0  0  0  0  0
   35.7945    4.3237   -5.5784 C   0  0  0  0  0  0  0  0  0  0  0  0
   31.0398    4.1643   -7.8774 C   0  0  2  0  0  0  0  0  0  0  0  0
   33.2438    4.8055   -6.5911 C   0  0  0  0  0  0  0  0  0  0  0  0
   30.0860    3.2798   -8.5722 C   0  0  0  0  0  0  0  0  0  0  0  0
   38.6195    4.2900   -4.1305 C   0  0  0  0  0  0  0  0  0  0  0  0
   29.4726    1.2605   -4.3048 C   0  0  0  0  0  0  0  0  0  0  0  0
   30.4739    0.8093   -3.6725 C   0  0  0  0  0  0  0  0  0  0  0  0
   30.3206    2.4068   -6.1733 N   0  0  0  0  0  0  0  0  0  0  0  0
   31.1973    2.3184   -6.3806 C   0  0  2  0  0  0  0  0  0  0  0  0
   34.3247    4.6836   -7.2465 C   0  0  0  0  0  0  0  0  0  0  0  0
   28.2831    1.5759   -3.6186 O   0  0  0  0  0  0  0  0  0  0  0  0
   32.2747    1.7556   -6.7987 O   0  0  0  0  0  0  0  0  0  0  0  0
   29.6955    3.2697  -10.7436 O   0  0  0  0  0  0  0  0  0  0  0  0
   37.7521    5.4293   -4.0117 C   0  0  0  0  0  0  0  0  0  0  0  0
   26.5889    1.9762  -10.4852 C   0  0  0  0  0  0  0  0  0  0  0  0
   28.1033    2.5332   -9.5340 C   0  0  0  0  0  0  0  0  0  0  0  0
   33.9925    4.7272   -5.3324 C   0  0  0  0  0  0  0  0  0  0  0  0
   27.7476    1.0652   -5.0694 O   0  0  0  0  0  0  0  0  0  0  0  0
   31.8098    5.0691   -7.2645 C   0  0  0  0  0  0  0  0  0  0  0  0
  2  1  2  0
  3  2  1  0
  4  6  1  1
  7  1  1  0
  9  8  2  3
 11  4  1  0
 11  8  1  0
 11 10  1  6
 12  5  2  3
 13  8  1  0
 14 11  1  0
 15  6  1  0
 16  2  1  0
 16  7  2  0
 18 15  1  0
 18 17  1  0
 19  3  1  0
 19  5  1  0
 20 13  1  0
 21  4  1  0
 21  5  1  0
M  END
>  <ID>  (1) 
conformer_0

$$$$
