
     RDKit          3D

 24 25  0  0  0  0  0  0  0  0999 V2000
   35.7231    4.4918   -5.4739 C   0  0  0  0  0  0  0  0  0  0  0  0
   37.3975    5.4813   -4.3047 C   0  0  0  0  0  0  0  0  0  0  0  0
   33.9709    4.7525   -5.1119 C   0  0  0  0  0  0  0  0  0  0  0  0
   38.5741    5.1534   -3.8405 C   0  0  0  0  0  0  0  0  0  0  0  0
   30.9129    4.4368   -7.6866 C   0  0  0  0  0  0  0  0  0  0  0  0
   35.0402    4.5804   -7.1111 C   0  0  0  0  0  0  0  0  0  0  0  0
   29.9273    3.2734   -8.5821 C   0  0  0  0  0  0  0  0  0  0  0  0
   32.9204    4.9219   -6.0826 C   0  0  0  0  0  0  0  0  0  0  0  0
   31.0449    2.2280   -6.1345 C   0  0  0  0  0  0  0  0  0  0  0  0
   29.8374    1.3430  -10.1175 O   0  0  0  0  0  0  0  0  0  0  0  0
   30.1769    2.4923   -6.1829 N   0  0  0  0  0  0  0  0  0  0  0  0
   32.0151    1.5369   -6.2702 O   0  0  0  0  0  0  0  0  0  0  0  0
   29.3362    1.4696   -4.1183 C   0  0  0  0  0  0  0  0  0  0  0  0
   28.6968    1.0800   -2.4799 O   0  0  0  0  0  0  0  0  0  0  0  0
   38.9142    3.7563   -4.1961 C   0  0  0  0  0  0  0  0  0  0  0  0
   26.2749    1.7294   -9.4823 C   0  0  0  0  0  0  0  0  0  0  0  0
   29.1811    3.2003  -10.8791 O   0  0  0  0  0  0  0  0  0  0  0  0
   27.8156    2.1103   -9.0821 C   0  0  0  0  0  0  0  0  0  0  0  0
   33.6853    4.7784   -7.3071 C   0  0  0  0  0  0  0  0  0  0  0  0
   28.0376    0.9750   -4.3802 O   0  0  0  0  0  0  0  0  0  0  0  0
   27.7358    2.0628   -7.7572 O   0  0  0  0  0  0  0  0  0  0  0  0
   30.1104    1.8205   -4.3307 C   0  0  0  0  0  0  0  0  0  0  0  0
   36.7220    4.1998   -5.3871 C   0  0  0  0  0  0  0  0  0  0  0  0
   38.0062    3.2206   -5.0954 C   0  0  0  0  0  0  0  0  0  0  0  0
  3  1  2  0
  4  2  2  0
  6  1  1  0
  7  5  1  0
  8  3  1  0
  8  5  1  0
  9  5  1  0
 11  9  1  0
 12  9  2  0
 14 13  2  0
 15  4  1  0
 17  7  1  0
 17 10  1  0
 18  7  1  0
 18 16  1  0
 19  6  1  0
 19  8  2  0
 20 13  1  0
 21 18  1  0
 22 11  1  0
 22 13  1  0
 23  1  1  0
 23  2  1  0
 24 15  2  0
 24 23  1  0
M  END
>  <ID>  (1) 
conformer_0

$$$$
