
     RDKit          3D

 24 26  0  0  0  0  0  0  0  0999 V2000
   37.6605    3.4773   -5.3622 C   0  0  0  0  0  0  0  0  0  0  0  0
   38.7806    3.4681   -4.5737 C   0  0  0  0  0  0  0  0  0  0  0  0
   34.4747    4.7734   -4.8841 C   0  0  0  0  0  0  0  0  0  0  0  0
   32.0550    5.2010   -6.9540 C   0  0  0  0  0  0  0  0  0  0  0  0
   33.4015    5.0245   -5.8921 C   0  0  0  0  0  0  0  0  0  0  0  0
   29.2882    1.0410   -4.1766 C   0  0  0  0  0  0  0  0  0  0  0  0
   38.8503    4.7409   -3.8584 C   0  0  0  0  0  0  0  0  0  0  0  0
   28.2377    2.5531   -8.9378 C   0  0  2  0  0  0  0  0  0  0  0  0
   33.9365    4.8384   -7.1970 C   0  0  0  0  0  0  0  0  0  0  0  0
   31.7916    1.4363   -5.9450 O   0  0  0  0  0  0  0  0  0  0  0  0
   26.7783    1.9160  -10.0421 C   0  0  0  0  0  0  0  0  0  0  0  0
   28.9822    3.3681  -10.9310 O   0  0  0  0  0  0  0  0  0  0  0  0
   29.8944    2.8516   -9.4254 P   0  0  0  0  0  0  0  0  0  0  0  0
   30.7567    2.0196   -5.6194 C   0  0  1  0  0  0  0  0  0  0  0  0
   36.3492    4.7713   -4.6791 C   0  0  0  0  0  0  0  0  0  0  0  0
   30.4860    1.9116   -9.7963 O   0  0  0  0  0  0  0  0  0  0  0  0
   29.3538    1.8648   -6.2469 N   0  0  0  0  0  0  0  0  0  0  0  0
   37.6158    5.4179   -3.9824 C   0  0  0  0  0  0  0  0  0  0  0  0
   30.2440    3.2640   -7.8332 C   0  0  0  0  0  0  0  0  0  0  0  0
   30.8942    1.8361   -3.5280 C   0  0  0  0  0  0  0  0  0  0  0  0
   31.1356    4.4209   -7.8004 C   0  0  0  0  0  0  0  0  0  0  0  0
   36.2000    4.1983   -5.6421 C   0  0  0  0  0  0  0  0  0  0  0  0
   35.2765    4.4217   -6.9882 C   0  0  0  0  0  0  0  0  0  0  0  0
   30.9599    3.2292   -5.8016 N   0  0  0  0  0  0  0  0  0  0  0  0
  2  1  2  0
  5  3  2  0
  5  4  1  0
  7  2  1  0
  9  4  1  0
  9  5  1  0
  8 11  1  6
 12  8  1  0
 13  8  1  0
 14 10  1  0
 15  3  1  0
 16 13  1  0
 17  6  1  0
 17 14  1  0
 18  7  2  0
 18 15  1  0
 19 13  1  0
 19 14  1  0
 20  6  1  0
 21  4  1  0
 21 19  2  3
 22  1  1  0
 22 15  2  0
 23  9  2  0
 23 22  1  0
 14 24  1  1
M  END
>  <ID>  (1) 
conformer_0

$$$$
