
     RDKit          3D

 29 32  0  0  0  0  0  0  0  0999 V2000
   35.6407    4.2627   -5.6611 C   0  0  0  0  0  0  0  0  0  0  0  0
   32.9119    5.2221   -5.3895 C   0  0  0  0  0  0  0  0  0  0  0  0
   37.5225    3.4012   -5.7650 C   0  0  0  0  0  0  0  0  0  0  0  0
   39.2547    4.3169   -3.7825 C   0  0  0  0  0  0  0  0  0  0  0  0
   34.0810    4.6362   -4.7911 C   0  0  0  0  0  0  0  0  0  0  0  0
   31.1178    2.3718   -6.6494 C   0  0  0  0  0  0  0  0  0  0  0  0
   28.3776    1.2702   -4.3211 C   0  0  0  0  0  0  0  0  0  0  0  0
   38.8341    3.0094   -4.8397 C   0  0  0  0  0  0  0  0  0  0  0  0
   26.7479    1.4891  -10.2782 C   0  0  0  0  0  0  0  0  0  0  0  0
   30.5268    1.8673   -3.9216 C   0  0  0  0  0  0  0  0  0  0  0  0
   27.9775    1.5622   -3.6054 O   0  0  0  0  0  0  0  0  0  0  0  0
   30.0320    2.3655   -6.2106 N   0  0  0  0  0  0  0  0  0  0  0  0
   31.0491    4.7829   -7.3615 C   0  0  0  0  0  0  0  0  0  0  0  0
   32.7435    4.8348   -6.6721 C   0  0  0  0  0  0  0  0  0  0  0  0
   29.6933    3.0520  -10.8654 O   0  0  0  0  0  0  0  0  0  0  0  0
   32.1417    1.6221   -5.9369 O   0  0  0  0  0  0  0  0  0  0  0  0
   29.8504    1.0184  -10.0925 O   0  0  0  0  0  0  0  0  0  0  0  0
   29.7938    2.4862   -9.5863 P   0  0  0  0  0  0  0  0  0  0  0  0
   37.9100    4.3804   -4.6304 C   0  0  0  0  0  0  0  0  0  0  0  0
   30.2608    1.6633   -4.9709 C   0  0  0  0  0  0  0  0  0  0  0  0
   27.3965    2.2523   -7.9203 O   0  0  0  0  0  0  0  0  0  0  0  0
   27.8612    2.1985   -9.2213 C   0  0  0  0  0  0  0  0  0  0  0  0
   27.4572    0.6971   -5.0064 O   0  0  0  0  0  0  0  0  0  0  0  0
   34.9526    4.5658   -6.9963 C   0  0  0  0  0  0  0  0  0  0  0  0
   33.8390    4.7747   -7.6212 C   0  0  0  0  0  0  0  0  0  0  0  0
   31.2709    1.9956   -9.0547 O   0  0  0  0  0  0  0  0  0  0  0  0
   37.9412    5.5888   -3.7645 C   0  0  0  0  0  0  0  0  0  0  0  0
   36.4506    4.9943   -4.8048 C   0  0  0  0  0  0  0  0  0  0  0  0
   29.6195    3.2064   -8.2271 C   0  0  0  0  0  0  0  0  0  0  0  0
  5  1  1  0
  5  2  2  0
  8  3  2  0
  8  4  1  0
 11  7  2  0
 12  6  1  0
 14  2  1  0
 14 13  1  0
 16  6  2  0
 18 15  1  0
 18 17  1  0
 19  3  1  0
 19  4  1  0
 20  7  1  0
 20 10  1  0
 20 12  1  0
 22  9  1  0
 22 15  1  0
 22 21  1  0
 23  7  1  0
 24  1  2  0
 25 14  2  0
 25 24  1  0
 26 18  1  0
 27  4  1  0
 27 19  1  0
 28  1  1  0
 28 19  1  0
 28 27  2  0
 29  6  1  0
 29 13  1  0
 29 22  1  0
M  END
>  <ID>  (1) 
conformer_0

$$$$
