
     RDKit          3D

 24 24  0  0  0  0  0  0  0  0999 V2000
    1.5468   -7.7125    8.8307 C   0  0  0  0  0  0  0  0  0  0  0  0
    3.7667  -16.3973    7.9645 C   0  0  0  0  0  0  0  0  0  0  0  0
    5.4800  -17.7748    9.4528 C   0  0  0  0  0  0  0  0  0  0  0  0
    3.3465   -7.4196    9.8102 C   0  0  0  0  0  0  0  0  0  0  0  0
    0.8273   -9.1518    7.7786 C   0  0  0  0  0  0  0  0  0  0  0  0
    4.7770  -16.7571    9.9156 C   0  0  0  0  0  0  0  0  0  0  0  0
    6.5199   -7.9564   11.0664 O   0  0  0  0  0  0  0  0  0  0  0  0
    3.9346  -14.1913    9.5278 N   0  0  0  0  0  0  0  0  0  0  0  0
    6.7709   -8.8755   13.5141 C   0  0  0  0  0  0  0  0  0  0  0  0
    1.8843   -6.2118    9.3114 O   0  0  0  0  0  0  0  0  0  0  0  0
    3.8164  -10.8935   10.3554 C   0  0  0  0  0  0  0  0  0  0  0  0
    2.7281   -8.7909    9.9016 C   0  0  0  0  0  0  0  0  0  0  0  0
    4.9207  -12.5901    8.8619 O   0  0  0  0  0  0  0  0  0  0  0  0
    4.2705  -13.1377    9.4908 C   0  0  0  0  0  0  0  0  0  0  0  0
    4.3363  -15.7044    9.0609 C   0  0  0  0  0  0  0  0  0  0  0  0
    2.5737  -10.1454    9.4016 O   0  0  0  0  0  0  0  0  0  0  0  0
    1.0984   -8.2425    8.1856 O   0  0  0  0  0  0  0  0  0  0  0  0
    3.9944   -6.3187   10.2683 O   0  0  0  0  0  0  0  0  0  0  0  0
    4.1307  -17.5993    7.5858 C   0  0  0  0  0  0  0  0  0  0  0  0
    5.0853  -10.2823   11.3534 N   0  0  0  0  0  0  0  0  0  0  0  0
    4.3692   -9.2334   10.5561 C   0  0  0  0  0  0  0  0  0  0  0  0
    4.1898  -12.5427   10.7450 N   0  0  0  0  0  0  0  0  0  0  0  0
    5.1823  -18.2546    8.1356 C   0  0  0  0  0  0  0  0  0  0  0  0
    6.3751   -8.6119   11.7268 C   0  0  0  0  0  0  0  0  0  0  0  0
  6  3  2  0
 10  1  1  0
 12  1  1  0
 12  4  1  0
 14  8  1  0
 14 13  2  0
 15  2  2  0
 15  6  1  0
 15  8  1  0
 16 12  1  0
 17  1  1  0
 17  5  1  0
 18  4  1  0
 19  2  1  0
 21 11  1  0
 21 12  1  0
 21 20  1  0
 22 11  1  0
 22 14  1  0
 23  3  1  0
 23 19  2  0
 24  7  2  0
 24  9  1  0
 24 11  1  0
M  END
>  <ID>  (1) 
conformer_0

$$$$
