
     RDKit          3D

 24 24  0  0  0  0  0  0  0  0999 V2000
    4.7379  -16.5331   10.0125 C   0  0  0  0  0  0  0  0  0  0  0  0
    2.5621   -9.7131    9.0229 C   0  0  0  0  0  0  0  0  0  0  0  0
    5.2675  -17.7010    9.7666 C   0  0  0  0  0  0  0  0  0  0  0  0
    0.7435   -8.8655    7.9086 C   0  0  0  0  0  0  0  0  0  0  0  0
    6.9285   -8.8471   13.4300 C   0  0  0  0  0  0  0  0  0  0  0  0
    1.8621   -7.7106    9.3263 C   0  0  0  0  0  0  0  0  0  0  0  0
    3.0543   -7.3695    9.9492 C   0  0  0  0  0  0  0  0  0  0  0  0
    6.8653   -8.0882   11.0464 O   0  0  0  0  0  0  0  0  0  0  0  0
    4.1672  -17.7418    7.7741 C   0  0  0  0  0  0  0  0  0  0  0  0
    4.4004  -14.2253    9.3204 N   0  0  0  0  0  0  0  0  0  0  0  0
    4.2693  -15.6801    9.0506 C   0  0  0  0  0  0  0  0  0  0  0  0
    4.2019   -6.2260   10.2195 O   0  0  0  0  0  0  0  0  0  0  0  0
    4.3909   -8.2509   10.3845 C   0  0  0  0  0  0  0  0  0  0  0  0
    3.6030  -12.3473    9.0030 O   0  0  0  0  0  0  0  0  0  0  0  0
    4.1182  -12.7792    9.1643 C   0  0  0  0  0  0  0  0  0  0  0  0
    5.2590   -8.9802   11.5164 N   0  0  0  0  0  0  0  0  0  0  0  0
    2.4026  -10.3443    8.8516 O   0  0  0  0  0  0  0  0  0  0  0  0
    2.0339   -6.2211    9.3562 O   0  0  0  0  0  0  0  0  0  0  0  0
    1.4601   -8.3740    8.1098 O   0  0  0  0  0  0  0  0  0  0  0  0
    3.8157   -9.9773   10.6968 N   0  0  0  0  0  0  0  0  0  0  0  0
    5.1185  -18.2334    8.5077 C   0  0  0  0  0  0  0  0  0  0  0  0
    3.8278  -16.4138    7.9110 C   0  0  0  0  0  0  0  0  0  0  0  0
    6.3586   -8.6594   11.9321 C   0  0  0  0  0  0  0  0  0  0  0  0
    4.2048  -10.1972   10.0301 C   0  0  0  0  0  0  0  0  0  0  0  0
  3  1  2  0
  7  6  1  0
 11  1  1  0
 11 10  1  0
 12  7  1  0
 13  7  1  0
 15  2  1  0
 15 10  1  0
 15 14  1  0
 16 13  1  0
 17  2  1  0
 18  6  1  0
 19  4  1  0
 19  6  1  0
 20 13  1  0
 21  3  1  0
 21  9  2  0
 22  9  1  0
 22 11  2  0
 23  5  1  0
 23  8  2  0
 23 16  1  0
 24  2  1  0
 24 20  1  0
M  END
>  <ID>  (1) 
conformer_0

$$$$
