
     RDKit          3D

 23 23  0  0  0  0  0  0  0  0999 V2000
    4.6353   -8.6354   10.7722 C   0  0  0  0  0  0  0  0  0  0  0  0
    5.0405  -17.8363    8.4238 C   0  0  0  0  0  0  0  0  0  0  0  0
    4.5447  -16.2170   10.1134 C   0  0  0  0  0  0  0  0  0  0  0  0
    1.0404   -8.2044    8.3861 C   0  0  0  0  0  0  0  0  0  0  0  0
    6.6873   -8.5845   12.0541 C   0  0  0  0  0  0  0  0  0  0  0  0
    2.9918   -7.4258    9.9199 C   0  0  0  0  0  0  0  0  0  0  0  0
    4.1597  -17.2064    7.6285 C   0  0  0  0  0  0  0  0  0  0  0  0
    1.6300   -6.1915    9.1615 O   0  0  0  0  0  0  0  0  0  0  0  0
    7.4727   -8.0540   12.0378 O   0  0  0  0  0  0  0  0  0  0  0  0
    4.0954  -15.1990    9.1894 C   0  0  0  0  0  0  0  0  0  0  0  0
    2.3679   -9.8407    8.4226 O   0  0  0  0  0  0  0  0  0  0  0  0
    2.3235   -8.7687    9.3483 C   0  0  0  0  0  0  0  0  0  0  0  0
    0.5871   -7.8946    7.6977 O   0  0  0  0  0  0  0  0  0  0  0  0
    3.8583   -6.2996   10.1495 O   0  0  0  0  0  0  0  0  0  0  0  0
    3.2837  -10.2125   10.3441 C   0  0  0  0  0  0  0  0  0  0  0  0
    3.7237  -13.7910    9.3809 N   0  0  0  0  0  0  0  0  0  0  0  0
    5.3014  -12.8453    9.7965 O   0  0  0  0  0  0  0  0  0  0  0  0
    4.6171   -9.9012   10.6657 N   0  0  0  0  0  0  0  0  0  0  0  0
    3.8116  -15.9225    7.9465 C   0  0  0  0  0  0  0  0  0  0  0  0
    3.8957  -12.3338    9.3331 C   0  0  0  0  0  0  0  0  0  0  0  0
    5.8666   -8.6603   11.7071 N   0  0  0  0  0  0  0  0  0  0  0  0
    2.9199  -11.9767    9.1975 O   0  0  0  0  0  0  0  0  0  0  0  0
    5.1765  -17.3667    9.7363 C   0  0  0  0  0  0  0  0  0  0  0  0
  7  2  2  0
  8  6  1  0
  9  5  2  0
 10  3  1  0
 12  4  1  0
 12  6  1  0
 12 11  1  0
 13  4  1  0
 14  6  1  0
 15 12  1  0
 16 10  1  0
 18  1  1  0
 18 15  1  0
 19  7  1  0
 19 10  2  0
 20 16  1  0
 20 17  2  0
 21  1  1  0
 21  5  1  0
 22 15  1  0
 22 20  1  0
 23  2  1  0
 23  3  2  0
M  END
>  <ID>  (1) 
conformer_0

$$$$
