
     RDKit          3D

 23 23  0  0  0  0  0  0  0  0999 V2000
    5.0885  -16.3642   10.1004 C   0  0  0  0  0  0  0  0  0  0  0  0
    2.2104   -7.6373    9.6490 C   0  0  0  0  0  0  0  0  0  0  0  0
    5.4384  -18.1516    8.6766 C   0  0  0  0  0  0  0  0  0  0  0  0
    1.1789   -8.3217    8.5092 C   0  0  0  0  0  0  0  0  0  0  0  0
    3.2347   -7.1950    9.8594 C   0  0  0  0  0  0  0  0  0  0  0  0
    6.5001   -7.8066   10.8426 O   0  0  0  0  0  0  0  0  0  0  0  0
    4.3551   -8.2888   10.3418 C   0  0  0  0  0  0  0  0  0  0  0  0
    4.4947  -17.6771    7.9210 C   0  0  0  0  0  0  0  0  0  0  0  0
    1.6463   -5.9319    9.2805 O   0  0  0  0  0  0  0  0  0  0  0  0
    4.3540  -15.6819    9.1672 C   0  0  0  0  0  0  0  0  0  0  0  0
    6.7728   -8.8607   13.1879 C   0  0  0  0  0  0  0  0  0  0  0  0
    4.1967   -6.1219   10.0811 O   0  0  0  0  0  0  0  0  0  0  0  0
    2.7448  -10.4207    9.0875 O   0  0  0  0  0  0  0  0  0  0  0  0
    6.4060   -8.6705   11.6708 C   0  0  0  0  0  0  0  0  0  0  0  0
    1.2649   -8.2052    8.1891 O   0  0  0  0  0  0  0  0  0  0  0  0
    3.9069  -14.0749    9.4948 N   0  0  0  0  0  0  0  0  0  0  0  0
    3.1397  -10.1449    9.6182 C   0  0  0  0  0  0  0  0  0  0  0  0
    4.2815  -11.3274   10.3715 N   0  0  0  0  0  0  0  0  0  0  0  0
    5.3765   -9.0732   11.3803 N   0  0  0  0  0  0  0  0  0  0  0  0
    3.9859  -16.4394    8.0755 C   0  0  0  0  0  0  0  0  0  0  0  0
    3.9446  -12.8881    9.4547 C   0  0  0  0  0  0  0  0  0  0  0  0
    1.5652  -10.4050    8.1216 C   0  0  0  0  0  0  0  0  0  0  0  0
    5.6621  -17.5859    9.9526 C   0  0  0  0  0  0  0  0  0  0  0  0
  4  2  1  0
  5  2  1  0
  7  5  1  0
  8  3  1  0
  9  2  1  0
 10  1  2  0
 12  5  1  0
 14  6  2  0
 14 11  1  0
 15  4  1  0
 16 10  1  0
 17 13  1  0
 18 17  1  0
 19  7  1  0
 19 14  1  0
 20  8  2  0
 20 10  1  0
 21 16  1  0
 21 18  1  0
 22  4  1  0
 22 13  1  0
 23  1  1  0
 23  3  2  0
M  END
>  <ID>  (1) 
conformer_0

$$$$
