
     RDKit          3D

 23 24  0  0  0  0  0  0  0  0999 V2000
    5.0491  -16.6640   10.0238 C   0  0  0  0  0  0  0  0  0  0  0  0
    2.1445   -9.2017    9.2320 C   0  0  0  0  0  0  0  0  0  0  0  0
    0.7507   -8.3975    8.1606 C   0  0  0  0  0  0  0  0  0  0  0  0
    5.1498  -17.7212    9.1427 C   0  0  0  0  0  0  0  0  0  0  0  0
    4.2949  -15.4320    9.1145 C   0  0  0  0  0  0  0  0  0  0  0  0
    6.5975   -8.0148   10.5781 O   0  0  0  0  0  0  0  0  0  0  0  0
    2.4708   -7.6248    9.3819 C   0  0  0  0  0  0  0  0  0  0  0  0
    4.4240  -17.5964    8.0442 C   0  0  0  0  0  0  0  0  0  0  0  0
    3.6925   -7.3310    9.8864 C   0  0  0  0  0  0  0  0  0  0  0  0
    1.8451   -6.2647    9.1868 O   0  0  0  0  0  0  0  0  0  0  0  0
    4.9991   -8.4050   10.5525 C   0  0  0  0  0  0  0  0  0  0  0  0
    5.2960   -9.4066   11.4873 N   0  0  0  0  0  0  0  0  0  0  0  0
    4.3268   -6.0916    9.8480 O   0  0  0  0  0  0  0  0  0  0  0  0
    3.8856  -10.0061   10.3876 C   0  0  0  0  0  0  0  0  0  0  0  0
    0.5065   -7.7951    7.8110 O   0  0  0  0  0  0  0  0  0  0  0  0
    2.9895  -12.2224   10.1292 O   0  0  0  0  0  0  0  0  0  0  0  0
    4.0627  -10.9527   10.4823 N   0  0  0  0  0  0  0  0  0  0  0  0
    4.1208  -14.2238    9.5818 N   0  0  0  0  0  0  0  0  0  0  0  0
    7.3548   -8.8644   13.1092 C   0  0  0  0  0  0  0  0  0  0  0  0
    3.8021  -16.3747    7.8371 C   0  0  0  0  0  0  0  0  0  0  0  0
    6.9210   -9.5502   11.9023 C   0  0  0  0  0  0  0  0  0  0  0  0
    4.3225  -12.5258    9.8662 C   0  0  0  0  0  0  0  0  0  0  0  0
    4.9609  -13.1693    9.2274 O   0  0  0  0  0  0  0  0  0  0  0  0
  3  2  1  0
  4  1  2  0
  5  1  1  0
  7  2  1  0
  8  4  1  0
  9  7  1  0
 10  7  1  0
 11  6  1  0
 11  9  1  0
 12 11  1  0
 13  9  1  0
 14 11  1  0
 15  3  2  0
 17 14  1  0
 17 16  1  0
 18  5  1  0
 20  5  1  0
 20  8  2  0
 21 12  1  0
 21 19  1  0
 22 16  1  0
 22 17  1  0
 23 18  1  0
 23 22  1  0
M  END
>  <ID>  (1) 
conformer_0

$$$$
