
     RDKit          3D

 22 22  0  0  0  0  0  0  0  0999 V2000
    4.5142  -17.6710    7.9434 C   0  0  0  0  0  0  0  0  0  0  0  0
    2.7209   -7.3254    9.7739 C   0  0  0  0  0  0  0  0  0  0  0  0
    5.1895  -17.7950    9.0585 C   0  0  0  0  0  0  0  0  0  0  0  0
    0.9948   -8.3783    8.2042 C   0  0  0  0  0  0  0  0  0  0  0  0
    4.0046  -10.1481   10.0109 C   0  0  0  0  0  0  0  0  0  0  0  0
    1.9071   -6.0818    9.3662 O   0  0  0  0  0  0  0  0  0  0  0  0
    5.0105  -16.7362    9.9471 C   0  0  0  0  0  0  0  0  0  0  0  0
    7.0461   -9.0769   13.5651 C   0  0  0  0  0  0  0  0  0  0  0  0
    4.3693  -15.5086    9.1263 C   0  0  0  0  0  0  0  0  0  0  0  0
    6.7574   -8.0967   11.6248 O   0  0  0  0  0  0  0  0  0  0  0  0
    4.1069   -8.1759   10.3186 C   0  0  0  0  0  0  0  0  0  0  0  0
    4.3695   -6.3709   10.2821 O   0  0  0  0  0  0  0  0  0  0  0  0
    6.3880   -8.4969   12.1371 C   0  0  0  0  0  0  0  0  0  0  0  0
    2.2591   -9.8473    9.1974 O   0  0  0  0  0  0  0  0  0  0  0  0
    4.2047  -12.8989    9.6260 C   0  0  0  0  0  0  0  0  0  0  0  0
    3.8954  -14.2221    9.4635 N   0  0  0  0  0  0  0  0  0  0  0  0
    0.5505   -7.9453    8.1493 O   0  0  0  0  0  0  0  0  0  0  0  0
    5.6236  -13.6953    9.0322 O   0  0  0  0  0  0  0  0  0  0  0  0
    3.8646  -16.4139    7.9032 C   0  0  0  0  0  0  0  0  0  0  0  0
    2.9153  -11.8534    9.3080 O   0  0  0  0  0  0  0  0  0  0  0  0
    2.4053   -8.7568    9.4115 C   0  0  0  0  0  0  0  0  0  0  0  0
    4.3832  -11.5744   10.1420 N   0  0  0  0  0  0  0  0  0  0  0  0
  3  1  2  0
  6  2  1  0
  7  3  1  0
  9  7  2  0
 11  2  1  0
 11  5  1  0
 12 11  1  0
 13  8  1  0
 13 10  2  0
 13 11  1  0
 16  9  1  0
 16 15  1  0
 17  4  2  0
 18 15  1  0
 19  1  1  0
 19  9  1  0
 20 15  1  0
 21  2  1  0
 21  4  1  0
 21 14  2  0
 22  5  1  0
 22 15  1  0
M  END
>  <ID>  (1) 
conformer_0

$$$$
