
     RDKit          3D

 23 23  0  0  0  0  0  0  0  0999 V2000
    1.8137   -7.8843    8.6309 C   0  0  0  0  0  0  0  0  0  0  0  0
    4.5256  -17.8270    7.8653 C   0  0  0  0  0  0  0  0  0  0  0  0
    5.3690  -17.8147    8.9113 C   0  0  0  0  0  0  0  0  0  0  0  0
    1.0366   -9.2300    7.8996 C   0  0  0  0  0  0  0  0  0  0  0  0
    4.4174  -15.6134    8.9357 C   0  0  0  0  0  0  0  0  0  0  0  0
    7.1639   -8.7620   13.6168 C   0  0  0  0  0  0  0  0  0  0  0  0
    6.4992   -7.7954   11.2683 O   0  0  0  0  0  0  0  0  0  0  0  0
    3.7724  -16.6669    7.7304 C   0  0  0  0  0  0  0  0  0  0  0  0
    4.0264   -6.2807    9.9856 O   0  0  0  0  0  0  0  0  0  0  0  0
    3.1116  -10.5289    9.7538 C   0  0  0  0  0  0  0  0  0  0  0  0
    3.8674  -14.6331    9.4604 N   0  0  0  0  0  0  0  0  0  0  0  0
    5.2138  -13.1875    8.6724 O   0  0  0  0  0  0  0  0  0  0  0  0
    3.4987   -7.4219    9.8887 C   0  0  0  0  0  0  0  0  0  0  0  0
    4.1241  -13.1261    9.4841 C   0  0  0  0  0  0  0  0  0  0  0  0
    6.6543   -8.3611   12.1809 C   0  0  0  0  0  0  0  0  0  0  0  0
    2.6514  -10.4017    9.5268 O   0  0  0  0  0  0  0  0  0  0  0  0
    0.7227   -8.5460    8.1109 O   0  0  0  0  0  0  0  0  0  0  0  0
    1.6972   -6.4554    9.0347 O   0  0  0  0  0  0  0  0  0  0  0  0
    5.1128   -8.6906   11.4473 N   0  0  0  0  0  0  0  0  0  0  0  0
    5.3411  -16.7635    9.7669 C   0  0  0  0  0  0  0  0  0  0  0  0
    3.6514  -12.3252    9.7580 N   0  0  0  0  0  0  0  0  0  0  0  0
    2.7958   -8.6728    9.9013 C   0  0  0  0  0  0  0  0  0  0  0  0
    4.6514   -8.5426   10.5222 C   0  0  0  0  0  0  0  0  0  0  0  0
  3  2  2  0
  8  2  1  0
  8  5  1  0
 11  5  1  0
 13  9  1  0
 14 11  1  0
 14 12  2  0
 15  6  1  0
 15  7  2  0
 16 10  1  0
 17  1  1  0
 17  4  1  0
 18  1  1  0
 19 15  1  0
 20  3  1  0
 20  5  2  0
 21 10  1  0
 21 14  1  0
 22  1  1  0
 22 13  1  0
 22 16  1  0
 23 13  1  0
 23 19  1  0
M  END
>  <ID>  (1) 
conformer_0

$$$$
