
     RDKit          3D

 24 24  0  0  0  0  0  0  0  0999 V2000
    2.0818   -7.7934    9.1240 C   0  0  0  0  0  0  0  0  0  0  0  0
    5.3273  -17.5411    9.1917 C   0  0  0  0  0  0  0  0  0  0  0  0
    3.7389  -17.3259    7.5589 C   0  0  0  0  0  0  0  0  0  0  0  0
    0.8766   -8.8492    8.2192 C   0  0  0  0  0  0  0  0  0  0  0  0
    6.6003   -7.8632   11.3588 O   0  0  0  0  0  0  0  0  0  0  0  0
    3.4322   -7.4461    9.7953 C   0  0  0  0  0  0  0  0  0  0  0  0
    6.7529   -9.0165   13.3836 C   0  0  0  0  0  0  0  0  0  0  0  0
    4.4477   -8.5748   10.5742 C   0  0  0  0  0  0  0  0  0  0  0  0
    4.1343  -15.5038    9.1012 C   0  0  0  0  0  0  0  0  0  0  0  0
    4.7953  -16.5397    9.9115 C   0  0  0  0  0  0  0  0  0  0  0  0
    4.1628   -6.2917   10.0767 O   0  0  0  0  0  0  0  0  0  0  0  0
    2.6403   -9.3952    9.5128 C   0  0  0  0  0  0  0  0  0  0  0  0
    4.0247  -14.1179    9.4192 N   0  0  0  0  0  0  0  0  0  0  0  0
    1.4011   -7.9061    7.8349 O   0  0  0  0  0  0  0  0  0  0  0  0
    4.2363  -13.0674    9.7010 C   0  0  0  0  0  0  0  0  0  0  0  0
    4.1261  -10.8687   10.4143 N   0  0  0  0  0  0  0  0  0  0  0  0
    5.0338   -9.1848   11.4983 N   0  0  0  0  0  0  0  0  0  0  0  0
    2.2720  -10.0511    9.4246 O   0  0  0  0  0  0  0  0  0  0  0  0
    1.9740   -6.3479    9.2831 O   0  0  0  0  0  0  0  0  0  0  0  0
    4.6505  -12.4473    9.7960 O   0  0  0  0  0  0  0  0  0  0  0  0
    4.7573  -17.9652    8.0602 C   0  0  0  0  0  0  0  0  0  0  0  0
    3.5456  -16.0455    7.9997 C   0  0  0  0  0  0  0  0  0  0  0  0
    6.3994   -8.7033   12.0397 C   0  0  0  0  0  0  0  0  0  0  0  0
    4.4352  -10.5186   10.4872 C   0  0  0  0  0  0  0  0  0  0  0  0
  6  1  1  0
  8  6  1  0
 10  2  2  0
 10  9  1  0
 11  6  1  0
 12  1  1  0
 13  9  1  0
 14  1  1  0
 14  4  1  0
 15 13  1  0
 17  8  1  0
 18 12  2  0
 19  1  1  0
 20 15  1  0
 20 16  1  0
 21  2  1  0
 21  3  2  0
 22  3  1  0
 22  9  2  0
 23  5  2  0
 23  7  1  0
 23 17  1  0
 24  8  1  0
 24 16  1  0
M  END
>  <ID>  (1) 
conformer_0

$$$$
