
     RDKit          3D

 25 25  0  0  0  0  0  0  0  0999 V2000
    1.2519   -7.5597    8.7503 C   0  0  0  0  0  0  0  0  0  0  0  0
    5.0752  -18.2871    8.1760 C   0  0  0  0  0  0  0  0  0  0  0  0
    4.0514  -17.4779    7.5969 C   0  0  0  0  0  0  0  0  0  0  0  0
    0.9872   -9.1334    7.9801 C   0  0  0  0  0  0  0  0  0  0  0  0
    2.5784   -7.8865   10.0584 C   0  0  0  0  0  0  0  0  0  0  0  0
    6.6748   -7.9660   11.0033 O   0  0  0  0  0  0  0  0  0  0  0  0
    5.4698  -17.7939    9.4563 C   0  0  0  0  0  0  0  0  0  0  0  0
    3.1675   -6.8346   10.0110 C   0  0  0  0  0  0  0  0  0  0  0  0
    3.7256  -13.8604    9.6788 N   0  0  0  0  0  0  0  0  0  0  0  0
    6.7672   -8.9668   13.3787 C   0  0  0  0  0  0  0  0  0  0  0  0
    4.6446   -8.3858   10.3708 C   0  0  0  0  0  0  0  0  0  0  0  0
    4.2518   -6.1017   10.0832 O   0  0  0  0  0  0  0  0  0  0  0  0
    2.5709  -10.4354    8.9230 O   0  0  0  0  0  0  0  0  0  0  0  0
    5.1458  -13.3463    8.6955 O   0  0  0  0  0  0  0  0  0  0  0  0
    1.6919   -5.8453    9.2907 O   0  0  0  0  0  0  0  0  0  0  0  0
    2.9046   -9.6489    9.4206 C   0  0  0  0  0  0  0  0  0  0  0  0
    4.8965   -9.0978   11.0230 N   0  0  0  0  0  0  0  0  0  0  0  0
    3.8594  -16.2764    8.0962 C   0  0  0  0  0  0  0  0  0  0  0  0
    4.2875  -15.6588    9.1526 C   0  0  0  0  0  0  0  0  0  0  0  0
    0.8817   -7.8422    8.2845 O   0  0  0  0  0  0  0  0  0  0  0  0
    3.9799  -11.0135    9.8268 C   0  0  0  0  0  0  0  0  0  0  0  0
    4.3608  -11.7208   10.3551 N   0  0  0  0  0  0  0  0  0  0  0  0
    4.9674  -16.6420    9.9117 C   0  0  0  0  0  0  0  0  0  0  0  0
    4.0936  -13.3894    9.4659 C   0  0  0  0  0  0  0  0  0  0  0  0
    6.4198   -8.6043   11.6506 C   0  0  0  0  0  0  0  0  0  0  0  0
  3  2  2  0
  5  1  1  0
  7  2  1  0
  8  5  1  0
 11  5  1  0
 12  8  1  0
 15  1  1  0
 16  5  1  0
 16 13  2  0
 17 11  1  0
 18  3  1  0
 19 18  2  0
 20  1  1  0
 20  4  1  0
 21 16  1  0
 22 21  1  0
 23  7  2  0
 23 19  1  0
 24  9  1  0
 24 14  1  0
 24 19  1  0
 24 22  1  0
 25  6  2  0
 25 10  1  0
 25 17  1  0
M  END
>  <ID>  (1) 
conformer_0

$$$$
