
     RDKit          3D

 24 24  0  0  0  0  0  0  0  0999 V2000
    5.4705  -17.5731    9.8519 C   0  0  0  0  0  0  0  0  0  0  0  0
    2.5836   -7.3092    9.5418 C   0  0  0  0  0  0  0  0  0  0  0  0
    5.2044  -16.3078   10.1437 C   0  0  0  0  0  0  0  0  0  0  0  0
    2.9191   -8.0001   10.3435 C   0  0  0  0  0  0  0  0  0  0  0  0
    4.7650   -8.4892   10.5457 C   0  0  0  0  0  0  0  0  0  0  0  0
    6.8205   -7.8676   11.2755 O   0  0  0  0  0  0  0  0  0  0  0  0
    7.1465   -8.9490   13.6104 C   0  0  0  0  0  0  0  0  0  0  0  0
    1.6933   -6.0936    9.2995 O   0  0  0  0  0  0  0  0  0  0  0  0
    4.4902  -17.2716    7.7232 C   0  0  0  0  0  0  0  0  0  0  0  0
    4.0402  -13.0975    9.3452 C   0  0  0  0  0  0  0  0  0  0  0  0
    4.3526  -15.6358    9.2836 C   0  0  0  0  0  0  0  0  0  0  0  0
    1.8117   -9.0499    8.7478 C   0  0  0  0  0  0  0  0  0  0  0  0
    3.7576  -13.9857    9.6153 N   0  0  0  0  0  0  0  0  0  0  0  0
    2.2216  -10.1637    8.8557 O   0  0  0  0  0  0  0  0  0  0  0  0
    3.9331   -6.2501   10.4412 O   0  0  0  0  0  0  0  0  0  0  0  0
    5.1857   -9.0261   11.4049 N   0  0  0  0  0  0  0  0  0  0  0  0
    0.8740   -7.6956    7.8484 O   0  0  0  0  0  0  0  0  0  0  0  0
    3.0817  -10.1957   10.0207 C   0  0  0  0  0  0  0  0  0  0  0  0
    3.9633  -16.0268    8.1377 C   0  0  0  0  0  0  0  0  0  0  0  0
    3.4170  -10.7680   10.0480 O   0  0  0  0  0  0  0  0  0  0  0  0
    6.6650   -8.7593   11.9592 C   0  0  0  0  0  0  0  0  0  0  0  0
    4.6383  -12.6775    8.9847 O   0  0  0  0  0  0  0  0  0  0  0  0
    0.5125   -7.9705    8.0080 C   0  0  0  0  0  0  0  0  0  0  0  0
    5.6712  -17.6443    8.4576 C   0  0  0  0  0  0  0  0  0  0  0  0
  3  1  2  0
  4  2  1  0
  5  4  2  3
  8  2  1  0
 11  3  1  0
 12  2  1  0
 13 10  1  0
 13 11  1  0
 14 12  1  0
 15  2  1  0
 16  5  1  0
 18 14  1  0
 19  9  1  0
 19 11  2  0
 20 10  1  0
 20 18  1  0
 21  6  2  0
 21  7  1  0
 21 16  1  0
 22 10  2  0
 23 12  1  0
 23 17  1  0
 24  1  1  0
 24  9  2  0
M  END
>  <ID>  (1) 
conformer_0

$$$$
