
     RDKit          3D

 22 22  0  0  0  0  0  0  0  0999 V2000
    4.6810  -17.4967    7.9169 C   0  0  0  0  0  0  0  0  0  0  0  0
    2.3647   -7.6301    9.1291 C   0  0  0  0  0  0  0  0  0  0  0  0
    5.6441  -17.5885   10.0378 C   0  0  0  0  0  0  0  0  0  0  0  0
    0.7764   -8.6392    8.0532 C   0  0  0  0  0  0  0  0  0  0  0  0
    3.2901   -7.6238    9.8816 C   0  0  0  0  0  0  0  0  0  0  0  0
    7.0458   -8.0247   11.4004 O   0  0  0  0  0  0  0  0  0  0  0  0
    6.7036   -8.7548   12.1944 C   0  0  0  0  0  0  0  0  0  0  0  0
    3.8805  -14.0442    9.4686 N   0  0  0  0  0  0  0  0  0  0  0  0
    4.7644  -16.4843   10.2328 C   0  0  0  0  0  0  0  0  0  0  0  0
    1.7560   -6.2576    9.0527 O   0  0  0  0  0  0  0  0  0  0  0  0
    2.5677  -10.5579    9.3135 O   0  0  0  0  0  0  0  0  0  0  0  0
    4.1827   -6.1941   10.0325 O   0  0  0  0  0  0  0  0  0  0  0  0
    4.6213   -8.7704   10.6781 C   0  0  0  0  0  0  0  0  0  0  0  0
    4.3246  -15.6501    9.2864 C   0  0  0  0  0  0  0  0  0  0  0  0
    5.7186   -9.3089   11.8243 N   0  0  0  0  0  0  0  0  0  0  0  0
    4.1927  -13.1377    9.2016 C   0  0  0  0  0  0  0  0  0  0  0  0
    0.5635   -8.0742    7.8547 O   0  0  0  0  0  0  0  0  0  0  0  0
    4.2666  -10.9266   10.4600 N   0  0  0  0  0  0  0  0  0  0  0  0
    4.1397  -16.2700    8.1252 C   0  0  0  0  0  0  0  0  0  0  0  0
    1.7720   -9.4884    9.3681 C   0  0  0  0  0  0  0  0  0  0  0  0
    3.6071  -10.4530   10.0797 C   0  0  0  0  0  0  0  0  0  0  0  0
    5.4265  -18.1757    8.7631 C   0  0  0  0  0  0  0  0  0  0  0  0
  5  2  1  0
  7  6  1  0
  9  3  1  0
 10  2  1  0
 12  5  1  0
 13  5  1  0
 14  8  1  0
 14  9  2  0
 15  7  1  0
 15 13  1  0
 16  8  1  0
 17  4  2  0
 18 16  1  0
 19  1  2  0
 19 14  1  0
 20  2  1  0
 20  4  1  0
 20 11  1  0
 21 11  1  0
 21 18  1  0
 22  1  1  0
 22  3  2  0
M  END
>  <ID>  (1) 
conformer_0

$$$$
