
     RDKit          3D

 23 23  0  0  0  0  0  0  0  0999 V2000
    4.7959  -16.7057    9.9501 C   0  0  0  0  0  0  0  0  0  0  0  0
    2.2419   -7.8274    9.1874 C   0  0  0  0  0  0  0  0  0  0  0  0
    5.1469  -17.7178    9.0938 C   0  0  0  0  0  0  0  0  0  0  0  0
    1.0529   -8.7519    8.1731 C   0  0  0  0  0  0  0  0  0  0  0  0
    3.3716   -7.6239    9.7664 C   0  0  0  0  0  0  0  0  0  0  0  0
    4.1592  -15.4979    9.0344 C   0  0  0  0  0  0  0  0  0  0  0  0
    6.5783   -8.9393   12.0641 C   0  0  0  0  0  0  0  0  0  0  0  0
    3.9010  -14.1579    9.4044 N   0  0  0  0  0  0  0  0  0  0  0  0
    4.5223  -17.5870    7.8241 C   0  0  0  0  0  0  0  0  0  0  0  0
    6.6897   -7.8585   11.2441 O   0  0  0  0  0  0  0  0  0  0  0  0
    4.1508   -6.2756   10.0915 O   0  0  0  0  0  0  0  0  0  0  0  0
    3.2377   -9.9307    9.8795 C   0  0  0  0  0  0  0  0  0  0  0  0
    2.8887  -11.6468    9.7284 O   0  0  0  0  0  0  0  0  0  0  0  0
    7.0478   -8.7276   13.3202 C   0  0  0  0  0  0  0  0  0  0  0  0
    3.9490  -12.5855    9.6336 C   0  0  0  0  0  0  0  0  0  0  0  0
    0.8185   -7.6364    8.0570 O   0  0  0  0  0  0  0  0  0  0  0  0
    1.9538   -6.0870    9.3402 O   0  0  0  0  0  0  0  0  0  0  0  0
    5.4175   -9.3531   11.3944 N   0  0  0  0  0  0  0  0  0  0  0  0
    2.3319   -9.8801    8.9765 O   0  0  0  0  0  0  0  0  0  0  0  0
    3.9142  -16.2966    7.7679 C   0  0  0  0  0  0  0  0  0  0  0  0
    4.5768  -10.6880   10.4007 N   0  0  0  0  0  0  0  0  0  0  0  0
    4.6670   -8.5625   10.5179 C   0  0  0  0  0  0  0  0  0  0  0  0
    4.7177  -12.5018    8.9422 O   0  0  0  0  0  0  0  0  0  0  0  0
  3  1  2  0
  4  2  1  0
  5  2  1  0
  6  1  1  0
  8  6  1  0
  9  3  1  0
 10  7  2  0
 11  5  1  0
 13 12  1  0
 14  7  1  0
 15  8  1  0
 15 13  1  0
 16  4  1  0
 17  2  1  0
 18  7  1  0
 19  4  1  0
 19 12  1  0
 20  6  1  0
 20  9  2  0
 21 12  1  0
 22  5  1  0
 22 18  1  0
 23 15  1  0
M  END
>  <ID>  (1) 
conformer_0

$$$$
