
     RDKit          3D

 24 25  0  0  0  0  0  0  0  0999 V2000
    5.0159  -17.8828    8.1257 C   0  0  0  0  0  0  0  0  0  0  0  0
    2.8856   -7.2986   10.0195 C   0  0  0  0  0  0  0  0  0  0  0  0
    4.1979  -16.7505    7.7426 C   0  0  0  0  0  0  0  0  0  0  0  0
    2.5563   -8.2060    9.3602 C   0  0  2  0  0  0  0  0  0  0  0  0
    7.0764   -8.8680   13.4490 C   0  0  0  0  0  0  0  0  0  0  0  0
    1.1724   -9.3879    7.9641 C   0  0  0  0  0  0  0  0  0  0  0  0
    6.2998   -7.7875   11.1918 O   0  0  0  0  0  0  0  0  0  0  0  0
    4.2770  -15.6630    8.9308 C   0  0  0  0  0  0  0  0  0  0  0  0
    3.8738  -14.7042    9.2678 N   0  0  0  0  0  0  0  0  0  0  0  0
    1.6110   -6.2570    9.1180 O   0  0  0  0  0  0  0  0  0  0  0  0
    3.7374  -11.0197    9.8102 C   0  0  2  0  0  0  0  0  0  0  0  0
    1.8282   -9.4010    8.8993 O   0  0  0  0  0  0  0  0  0  0  0  0
    4.0642  -13.3263    9.1323 C   0  0  2  0  0  0  0  0  0  0  0  0
    3.3891   -9.4451   10.4402 C   0  0  1  0  0  0  0  0  0  0  0  0
    3.8844   -6.3032   10.2942 O   0  0  0  0  0  0  0  0  0  0  0  0
    5.3429  -13.3537    8.4476 O   0  0  0  0  0  0  0  0  0  0  0  0
    5.4443  -17.6834    9.4690 C   0  0  0  0  0  0  0  0  0  0  0  0
    4.8927  -16.5867   10.1255 C   0  0  0  0  0  0  0  0  0  0  0  0
    5.0015   -8.9208   11.6698 N   0  0  0  0  0  0  0  0  0  0  0  0
    2.7284  -11.1637    9.1972 O   0  0  0  0  0  0  0  0  0  0  0  0
    4.7387   -8.4038   10.6668 C   0  0  1  0  0  0  0  0  0  0  0  0
    3.9215  -12.5282    9.9213 N   0  0  0  0  0  0  0  0  0  0  0  0
    6.4763   -8.4481   12.4366 C   0  0  0  0  0  0  0  0  0  0  0  0
    0.7943   -7.7745    8.2745 C   0  0  0  0  0  0  0  0  0  0  0  0
  3  1  2  0
  4  2  1  0
  8  3  1  0
  9  8  1  0
 10  2  1  0
  4 12  1  1
 12  6  1  0
 13  9  1  0
 14  4  1  6
 14 11  1  0
 15  2  1  0
 13 16  1  1
 17  1  1  0
 18  8  2  0
 18 17  1  0
 11 20  1  6
 21  7  1  0
 21 14  1  0
 21 19  1  1
 22 11  1  0
 22 13  1  0
 23  5  2  3
 23  7  1  0
 23 19  1  0
 24  6  1  0
M  END
>  <ID>  (1) 
conformer_0

$$$$
