
     RDKit          3D

 25 25  0  0  0  0  0  0  0  0999 V2000
    4.7334  -16.7085    9.9618 C   0  0  0  0  0  0  0  0  0  0  0  0
    2.4733   -9.7369    9.3325 C   0  0  0  0  0  0  0  0  0  0  0  0
    7.0264  -10.2678   13.0390 C   0  0  0  0  0  0  0  0  0  0  0  0
    5.4317  -17.7218    9.5357 C   0  0  0  0  0  0  0  0  0  0  0  0
    0.9527   -8.4034    8.3191 C   0  0  0  0  0  0  0  0  0  0  0  0
    2.0155   -7.7086    9.3089 C   0  0  0  0  0  0  0  0  0  0  0  0
    6.6041   -7.7836   11.4274 O   0  0  0  0  0  0  0  0  0  0  0  0
    3.7009  -14.3097    9.5378 N   0  0  0  0  0  0  0  0  0  0  0  0
    4.0718   -8.5773   10.3444 C   0  0  0  0  0  0  0  0  0  0  0  0
    4.0996  -15.7886    8.9960 C   0  0  0  0  0  0  0  0  0  0  0  0
    3.1955   -7.3350   10.0774 C   0  0  0  0  0  0  0  0  0  0  0  0
    4.4215  -17.5400    7.3953 C   0  0  0  0  0  0  0  0  0  0  0  0
    1.5766   -6.0179    9.1639 O   0  0  0  0  0  0  0  0  0  0  0  0
    5.0320  -13.0168    8.6109 O   0  0  0  0  0  0  0  0  0  0  0  0
    5.2657   -9.7346   11.2812 N   0  0  0  0  0  0  0  0  0  0  0  0
    4.0118   -6.2358    9.9209 O   0  0  0  0  0  0  0  0  0  0  0  0
    2.5698  -10.7388    8.9021 O   0  0  0  0  0  0  0  0  0  0  0  0
    4.3512  -11.4353   10.4218 N   0  0  0  0  0  0  0  0  0  0  0  0
    0.4145   -8.0588    8.2486 O   0  0  0  0  0  0  0  0  0  0  0  0
    4.1222  -13.1184    9.3666 C   0  0  0  0  0  0  0  0  0  0  0  0
    6.1202   -9.0969   11.7236 C   0  0  0  0  0  0  0  0  0  0  0  0
    3.9269  -16.2734    7.7225 C   0  0  0  0  0  0  0  0  0  0  0  0
    6.5406   -8.8370   13.5866 C   0  0  0  0  0  0  0  0  0  0  0  0
    4.3555  -10.7847   10.2461 C   0  0  0  0  0  0  0  0  0  0  0  0
    5.3449  -18.1480    8.2150 C   0  0  0  0  0  0  0  0  0  0  0  0
  4  1  2  0
  6  5  1  0
  9  2  1  0
 10  1  1  0
 10  8  1  0
 11  6  1  0
 11  9  1  0
 13  6  1  0
 16 11  1  0
 17  2  2  0
 19  5  1  0
 20  8  1  0
 20 14  2  0
 20 18  1  0
 21  7  2  0
 21 15  1  0
 22 10  2  0
 22 12  1  0
 23  3  1  0
 23 21  1  0
 24  9  1  0
 24 15  1  0
 24 18  1  0
 25  4  1  0
 25 12  2  0
M  END
>  <ID>  (1) 
conformer_0

$$$$
