
     RDKit          3D

 23 25  0  0  0  0  0  0  0  0999 V2000
    2.0903   -8.3540    9.3005 C   0  0  0  0  0  0  0  0  0  0  0  0
    4.6013  -17.6364    7.7770 C   0  0  0  0  0  0  0  0  0  0  0  0
    0.8207   -8.2898    8.1886 C   0  0  0  0  0  0  0  0  0  0  0  0
    3.7236  -16.5419    8.0679 C   0  0  0  0  0  0  0  0  0  0  0  0
    3.0045   -7.4795    9.9713 C   0  0  0  0  0  0  0  0  0  0  0  0
    7.1654   -8.1225   11.3984 O   0  0  0  0  0  0  0  0  0  0  0  0
    6.5949   -9.0480   13.4085 C   0  0  0  0  0  0  0  0  0  0  0  0
    3.2195  -10.2793   10.2235 C   0  0  0  0  0  0  0  0  0  0  0  0
    3.7388  -14.1445    9.4772 N   0  0  0  0  0  0  0  0  0  0  0  0
    3.9787  -12.8571    9.8205 C   0  0  0  0  0  0  0  0  0  0  0  0
    4.2555  -15.5168    9.0728 C   0  0  0  0  0  0  0  0  0  0  0  0
    4.2938   -6.2773   10.3089 O   0  0  0  0  0  0  0  0  0  0  0  0
    2.3673   -9.8183    9.0733 O   0  0  0  0  0  0  0  0  0  0  0  0
    4.6165  -16.8104    9.7897 C   0  0  0  0  0  0  0  0  0  0  0  0
    1.9896   -6.2871    9.2963 O   0  0  0  0  0  0  0  0  0  0  0  0
    5.4331  -13.1014    8.8774 O   0  0  0  0  0  0  0  0  0  0  0  0
    4.3928   -9.9762   10.4847 N   0  0  0  0  0  0  0  0  0  0  0  0
    0.4918   -7.4508    7.9040 O   0  0  0  0  0  0  0  0  0  0  0  0
    2.7786  -11.9423    9.5117 O   0  0  0  0  0  0  0  0  0  0  0  0
    4.3629   -8.4066   10.6592 C   0  0  0  0  0  0  0  0  0  0  0  0
    5.4022  -17.5939    8.9370 C   0  0  0  0  0  0  0  0  0  0  0  0
    5.2452   -8.9936   11.7070 N   0  0  0  0  0  0  0  0  0  0  0  0
    6.2477   -8.7333   11.7445 C   0  0  0  0  0  0  0  0  0  0  0  0
  3  1  1  0
  4  2  1  0
  5  1  1  0
 10  9  1  0
 11  4  1  0
 11  9  1  0
 12  5  1  0
 13  1  1  0
 13  8  1  0
 14  4  1  0
 14 11  1  0
 15  5  1  0
 16 10  1  0
 17  8  1  0
 18  3  2  0
 19  8  1  0
 19 10  1  0
 20  5  1  0
 20 17  1  0
 21  2  1  0
 21 14  1  0
 22 20  1  0
 23  6  2  0
 23  7  1  0
 23 22  1  0
M  END
>  <ID>  (1) 
conformer_0

$$$$
