
     RDKit          3D

 26 28  0  0  0  0  0  0  0  0999 V2000
    5.4686  -18.0144    8.5621 C   0  0  0  0  0  0  0  0  0  0  0  0
    0.9320   -9.2986    7.4602 C   0  0  0  0  0  0  0  0  0  0  0  0
    4.5304  -17.5389    7.7947 C   0  0  0  0  0  0  0  0  0  0  0  0
    1.5129   -7.5985    8.8716 C   0  0  1  0  0  0  0  0  0  0  0  0
    3.6328  -10.5226    9.5998 C   0  0  0  0  0  0  0  0  0  0  0  0
    7.1366   -9.0228   13.3213 C   0  0  0  0  0  0  0  0  0  0  0  0
    2.7686   -7.3349   10.1853 C   0  0  2  0  0  0  0  0  0  0  0  0
    3.5862  -14.9058    9.5979 N   0  0  0  0  0  0  0  0  0  0  0  0
    1.5118   -6.0824    9.2660 O   0  0  0  0  0  0  0  0  0  0  0  0
    7.0866   -8.1160   11.0406 O   0  0  0  0  0  0  0  0  0  0  0  0
    3.9092  -16.3681    8.0256 C   0  0  0  0  0  0  0  0  0  0  0  0
    3.8808  -13.1375    9.3953 C   0  0  2  0  0  0  0  0  0  0  0  0
    4.1270  -15.6900    9.2909 C   0  0  0  0  0  0  0  0  0  0  0  0
    1.0502   -8.1093    7.8255 O   0  0  0  0  0  0  0  0  0  0  0  0
    4.8664  -12.6726    9.1285 O   0  0  0  0  0  0  0  0  0  0  0  0
    3.8808   -6.3844   10.0607 O   0  0  0  0  0  0  0  0  0  0  0  0
    4.0131  -10.1242   10.0428 N   0  0  0  0  0  0  0  0  0  0  0  0
    6.7557   -8.8352   12.0937 C   0  0  0  0  0  0  0  0  0  0  0  0
    4.7944  -16.4582   10.1643 C   0  0  0  0  0  0  0  0  0  0  0  0
    1.9628  -10.2523    8.5754 O   0  0  0  0  0  0  0  0  0  0  0  0
    5.5524   -9.1672   11.5042 N   0  0  0  0  0  0  0  0  0  0  0  0
    3.8130   -8.0844    9.4485 C   0  0  1  0  0  0  0  0  0  0  0  0
    5.2755   -8.5299   10.5208 C   0  0  0  0  0  0  0  0  0  0  0  0
    3.3594  -12.7915    9.6027 N   0  0  0  0  0  0  0  0  0  0  0  0
    5.6129  -17.5278    9.8986 C   0  0  0  0  0  0  0  0  0  0  0  0
    2.2552   -9.2270    9.2223 C   0  0  2  0  0  0  0  0  0  0  0  0
  3  1  2  0
  7  4  1  0
  4  9  1  1
 11  3  1  0
 12  5  1  0
 12  8  1  0
 13  8  1  0
 13 11  2  0
 14  2  1  0
 14  4  1  0
 15 12  1  0
  7 16  1  6
 17  5  2  3
 18  6  1  0
 18 10  2  0
 19 13  1  0
 20  2  1  0
 21 18  1  0
 22  7  1  0
 23 21  1  0
 22 23  1  1
 12 24  1  6
 25  1  1  0
 25 19  2  0
 26  4  1  0
 26  5  1  0
 26 20  1  1
 26 22  1  0
M  END
>  <ID>  (1) 
conformer_0

$$$$
