
     RDKit          3D

 21 21  0  0  0  0  0  0  0  0999 V2000
    5.6809  -18.1920    9.2220 C   0  0  0  0  0  0  0  0  0  0  0  0
    2.7563   -7.4152    9.8077 C   0  0  0  0  0  0  0  0  0  0  0  0
    5.3108  -16.9307    9.9644 C   0  0  0  0  0  0  0  0  0  0  0  0
    2.5855   -8.9211    9.6712 C   0  0  0  0  0  0  0  0  0  0  0  0
    3.6179  -10.4299    9.9234 C   0  0  0  0  0  0  0  0  0  0  0  0
    4.2526   -8.3383   10.5146 C   0  0  0  0  0  0  0  0  0  0  0  0
    6.2069   -7.7162   10.5559 O   0  0  0  0  0  0  0  0  0  0  0  0
    1.5269   -6.1758    9.2721 O   0  0  0  0  0  0  0  0  0  0  0  0
    3.7495  -14.8407    9.1616 N   0  0  0  0  0  0  0  0  0  0  0  0
    4.3689  -16.0224    9.0774 C   0  0  0  0  0  0  0  0  0  0  0  0
    3.8793  -13.1742    9.5966 C   0  0  0  0  0  0  0  0  0  0  0  0
    4.2253  -16.9064    7.9448 C   0  0  0  0  0  0  0  0  0  0  0  0
    6.9022   -8.6971   13.3140 C   0  0  0  0  0  0  0  0  0  0  0  0
    0.6745   -7.8401    7.7958 O   0  0  0  0  0  0  0  0  0  0  0  0
    3.3866  -12.9251   10.0972 O   0  0  0  0  0  0  0  0  0  0  0  0
    6.1096   -8.3949   11.7866 C   0  0  0  0  0  0  0  0  0  0  0  0
    2.7820  -10.5905    9.4316 O   0  0  0  0  0  0  0  0  0  0  0  0
    4.9445  -18.1163    8.0381 C   0  0  0  0  0  0  0  0  0  0  0  0
    3.5469   -6.3307    9.5631 O   0  0  0  0  0  0  0  0  0  0  0  0
    3.9498  -12.0518    9.0152 N   0  0  0  0  0  0  0  0  0  0  0  0
    1.1709   -8.3615    8.3038 C   0  0  0  0  0  0  0  0  0  0  0  0
  3  1  2  0
  4  2  1  0
  6  4  1  0
  7  6  1  0
  8  2  1  0
 10  3  1  0
 10  9  1  0
 11  5  1  0
 11  9  1  0
 12 10  2  0
 15 11  1  0
 16  7  1  0
 16 13  1  0
 17  4  1  0
 17  5  1  0
 18  1  1  0
 18 12  1  0
 19  2  1  0
 20 11  1  0
 21  2  1  0
 21 14  2  0
M  END
>  <ID>  (1) 
conformer_0

$$$$
