
     RDKit          3D

 24 24  0  0  0  0  0  0  0  0999 V2000
    4.9688  -16.5519   10.2442 C   0  0  0  0  0  0  0  0  0  0  0  0
    2.1662   -8.6936    9.0432 C   0  0  0  0  0  0  0  0  0  0  0  0
    5.5968  -17.6835    9.8019 C   0  0  0  0  0  0  0  0  0  0  0  0
    0.9777   -8.1095    8.3047 C   0  0  0  0  0  0  0  0  0  0  0  0
    7.2208   -9.0065   13.4539 C   0  0  0  0  0  0  0  0  0  0  0  0
    3.6908  -10.2768    9.6287 C   0  0  0  0  0  0  0  0  0  0  0  0
    4.4109  -17.5928    7.8449 C   0  0  0  0  0  0  0  0  0  0  0  0
    2.9538   -7.4422    9.7448 C   0  0  0  0  0  0  0  0  0  0  0  0
    1.4837   -6.1128    9.0338 O   0  0  0  0  0  0  0  0  0  0  0  0
    4.2901  -15.7905    9.2882 C   0  0  0  0  0  0  0  0  0  0  0  0
    4.0111  -12.9705    9.2244 C   0  0  0  0  0  0  0  0  0  0  0  0
    4.5938   -9.5197   10.1608 N   0  0  0  0  0  0  0  0  0  0  0  0
    6.9444   -8.2462   11.1234 O   0  0  0  0  0  0  0  0  0  0  0  0
    3.8897   -6.3083   10.1323 O   0  0  0  0  0  0  0  0  0  0  0  0
    4.4751   -8.3010   10.3398 C   0  0  0  0  0  0  0  0  0  0  0  0
    0.3356   -7.7343    7.8104 O   0  0  0  0  0  0  0  0  0  0  0  0
    5.4799   -8.8551   11.7508 N   0  0  0  0  0  0  0  0  0  0  0  0
    4.4368  -13.1461    9.1160 O   0  0  0  0  0  0  0  0  0  0  0  0
    3.7725  -14.3541    9.2782 N   0  0  0  0  0  0  0  0  0  0  0  0
    3.7637  -16.4759    8.1484 C   0  0  0  0  0  0  0  0  0  0  0  0
    2.7594  -10.5415    9.2651 O   0  0  0  0  0  0  0  0  0  0  0  0
    6.4940   -8.7382   11.8637 C   0  0  1  0  0  0  0  0  0  0  0  0
    4.2526  -11.4926   10.1555 N   0  0  0  0  0  0  0  0  0  0  0  0
    5.1337  -18.3240    8.6421 C   0  0  0  0  0  0  0  0  0  0  0  0
  3  1  2  0
  4  2  1  0
  8  2  1  0
  9  8  1  0
 10  1  1  0
 11 10  1  0
 12  6  1  0
 14  8  1  0
 15  8  1  0
 15 12  2  3
 16  4  1  0
 18 11  1  0
 19 11  1  0
 20  7  1  0
 20 10  2  0
 21  6  2  0
 22  5  1  1
 22 13  1  0
 22 15  1  0
 22 17  1  0
 23  6  1  0
 23 11  1  0
 24  3  1  0
 24  7  2  0
M  END
>  <ID>  (1) 
conformer_0

$$$$
