
     RDKit          3D

 21 21  0  0  0  0  0  0  0  0999 V2000
    5.1807  -16.5906    9.9120 C   0  0  0  0  0  0  0  0  0  0  0  0
    2.3455   -7.5874    9.4732 C   0  0  0  0  0  0  0  0  0  0  0  0
    5.3409  -17.6861    9.0656 C   0  0  0  0  0  0  0  0  0  0  0  0
    6.6945   -8.9453   13.3214 C   0  0  0  0  0  0  0  0  0  0  0  0
    4.1932   -9.7641   10.0640 C   0  0  0  0  0  0  0  0  0  0  0  0
    1.3240   -8.5998    8.3421 C   0  0  0  0  0  0  0  0  0  0  0  0
    3.2978   -7.8262   10.3039 C   0  0  0  0  0  0  0  0  0  0  0  0
    6.2419   -8.0163   11.1953 O   0  0  0  0  0  0  0  0  0  0  0  0
    4.5390  -17.5551    7.9723 C   0  0  0  0  0  0  0  0  0  0  0  0
    4.3256  -15.4469    9.1731 C   0  0  0  0  0  0  0  0  0  0  0  0
    1.8458   -6.2131    9.1852 O   0  0  0  0  0  0  0  0  0  0  0  0
    5.8414   -8.9202   11.7861 C   0  0  0  0  0  0  0  0  0  0  0  0
    2.5908  -11.2365    9.0121 O   0  0  0  0  0  0  0  0  0  0  0  0
    3.8517  -14.2149    9.6519 N   0  0  0  0  0  0  0  0  0  0  0  0
    3.9713   -6.2683   10.3922 O   0  0  0  0  0  0  0  0  0  0  0  0
    4.9046  -13.0277    8.8054 O   0  0  0  0  0  0  0  0  0  0  0  0
    2.5178   -9.9654    9.0152 C   0  0  0  0  0  0  0  0  0  0  0  0
    0.8336   -8.2207    7.9782 O   0  0  0  0  0  0  0  0  0  0  0  0
    4.9136   -9.2800   11.2805 N   0  0  0  0  0  0  0  0  0  0  0  0
    3.8715  -16.2844    7.9671 C   0  0  0  0  0  0  0  0  0  0  0  0
    3.8852  -12.3688    9.4357 C   0  0  0  0  0  0  0  0  0  0  0  0
  3  1  2  0
  6  2  1  0
  7  2  1  0
  9  3  1  0
 10  1  1  0
 11  2  1  0
 12  4  1  0
 12  8  2  0
 14 10  1  0
 15  7  1  0
 17  5  1  0
 17  6  1  0
 17 13  1  0
 18  6  2  0
 19  5  1  0
 19 12  1  0
 20  9  2  0
 20 10  1  0
 21 13  1  0
 21 14  1  0
 21 16  1  0
M  END
>  <ID>  (1) 
conformer_0

$$$$
