
     RDKit          3D

 21 21  0  0  0  0  0  0  0  0999 V2000
    1.6496   -8.0852    8.8879 C   0  0  0  0  0  0  0  0  0  0  0  0
    5.5009  -16.5673   10.0135 C   0  0  0  0  0  0  0  0  0  0  0  0
    1.2456   -9.6980    8.2579 C   0  0  0  0  0  0  0  0  0  0  0  0
    2.8815   -9.8822    9.8526 C   0  0  0  0  0  0  0  0  0  0  0  0
    5.5416  -17.9257    9.4628 C   0  0  0  0  0  0  0  0  0  0  0  0
    4.4135  -15.8444    8.9954 C   0  0  0  0  0  0  0  0  0  0  0  0
    3.0118   -7.4909    9.9554 C   0  0  0  0  0  0  0  0  0  0  0  0
    6.6485   -8.0978   10.4167 O   0  0  0  0  0  0  0  0  0  0  0  0
    7.0962   -8.9019   13.2871 C   0  0  0  0  0  0  0  0  0  0  0  0
    1.8189   -6.3257    9.1724 O   0  0  0  0  0  0  0  0  0  0  0  0
    4.3490  -10.8499   10.2041 C   0  0  0  0  0  0  0  0  0  0  0  0
    4.2632   -8.0009   10.3444 C   0  0  0  0  0  0  0  0  0  0  0  0
    2.6239  -10.6064    8.9979 O   0  0  0  0  0  0  0  0  0  0  0  0
    4.0474   -6.2574   10.3837 O   0  0  0  0  0  0  0  0  0  0  0  0
    4.7674  -17.9798    8.3149 C   0  0  0  0  0  0  0  0  0  0  0  0
    0.8964   -7.9681    7.9467 O   0  0  0  0  0  0  0  0  0  0  0  0
    5.3291   -9.4386   11.3496 N   0  0  0  0  0  0  0  0  0  0  0  0
    4.2566  -13.1100    9.2353 C   0  0  0  0  0  0  0  0  0  0  0  0
    3.7531  -13.4455    9.0301 N   0  0  0  0  0  0  0  0  0  0  0  0
    6.2898   -8.6775   11.4860 C   0  0  0  0  0  0  0  0  0  0  0  0
    3.9725  -16.8229    7.9915 C   0  0  0  0  0  0  0  0  0  0  0  0
  3  1  1  0
  5  2  2  0
  6  2  1  0
  7  1  1  0
 10  1  1  0
 11  4  1  0
 12  7  1  0
 13  3  1  0
 13  4  1  0
 14  7  1  0
 15  5  1  0
 16  1  1  0
 17 12  1  0
 18 11  1  0
 19  6  1  0
 19 18  1  0
 20  8  2  0
 20  9  1  0
 20 17  1  0
 21  6  1  0
 21 15  2  0
M  END
>  <ID>  (1) 
conformer_0

$$$$
