
     RDKit          3D

 22 23  0  0  0  0  0  0  0  0999 V2000
    0.8914   -9.4840    8.1242 C   0  0  0  0  0  0  0  0  0  0  0  0
    4.8921  -17.7538    8.1071 C   0  0  0  0  0  0  0  0  0  0  0  0
    5.5477  -17.9659    9.2801 C   0  0  0  0  0  0  0  0  0  0  0  0
    3.0933   -7.2812   10.1175 C   0  0  0  0  0  0  0  0  0  0  0  0
    1.7513   -7.8737    8.8956 C   0  0  0  0  0  0  0  0  0  0  0  0
    6.8353   -8.0011   11.3174 O   0  0  0  0  0  0  0  0  0  0  0  0
    1.6696   -6.1517    9.1721 O   0  0  0  0  0  0  0  0  0  0  0  0
    4.5897  -15.5093    9.0642 C   0  0  0  0  0  0  0  0  0  0  0  0
    4.1248  -10.6041   10.1274 C   0  0  0  0  0  0  0  0  0  0  0  0
    4.2536  -16.5712    7.9896 C   0  0  0  0  0  0  0  0  0  0  0  0
    4.1850   -6.2365   10.0899 O   0  0  0  0  0  0  0  0  0  0  0  0
    3.9058  -13.1290    9.0280 C   0  0  0  0  0  0  0  0  0  0  0  0
    2.7746   -8.7150   10.1017 C   0  0  0  0  0  0  0  0  0  0  0  0
    2.5980  -10.3828    9.4012 O   0  0  0  0  0  0  0  0  0  0  0  0
    6.7030   -8.8175   13.6998 C   0  0  0  0  0  0  0  0  0  0  0  0
    0.8934   -8.5960    8.2362 O   0  0  0  0  0  0  0  0  0  0  0  0
    4.7852   -8.6345   10.3956 C   0  0  0  0  0  0  0  0  0  0  0  0
    4.1606  -13.6479    9.0759 O   0  0  0  0  0  0  0  0  0  0  0  0
    5.3644   -8.9449   11.8072 N   0  0  0  0  0  0  0  0  0  0  0  0
    5.4501  -16.7182   10.0343 C   0  0  0  0  0  0  0  0  0  0  0  0
    4.2509  -10.9714   10.6459 N   0  0  0  0  0  0  0  0  0  0  0  0
    6.3740   -8.6068   12.0073 C   0  0  0  0  0  0  0  0  0  0  0  0
  3  2  2  0
  5  4  1  0
  7  5  1  0
 10  2  1  0
 10  8  1  0
 11  4  1  0
 13  4  1  0
 13  5  1  0
 14  9  1  0
 14 13  1  0
 16  1  1  0
 16  5  1  0
 17 13  1  0
 18  8  1  0
 18 12  1  0
 19 17  1  0
 20  3  1  0
 20  8  2  0
 21  9  1  0
 21 12  1  0
 22  6  2  0
 22 15  1  0
 22 19  1  0
M  END
>  <ID>  (1) 
conformer_0

$$$$
