
     RDKit          3D

 20 20  0  0  0  0  0  0  0  0999 V2000
    5.4308  -17.8865    9.2052 C   0  0  0  0  0  0  0  0  0  0  0  0
    3.2005   -7.2816    9.8934 C   0  0  0  0  0  0  0  0  0  0  0  0
    5.1473  -16.7805    9.9806 C   0  0  0  0  0  0  0  0  0  0  0  0
    0.8617   -8.8898    7.9727 C   0  0  0  0  0  0  0  0  0  0  0  0
    6.9193   -8.7959   13.5013 C   0  0  0  0  0  0  0  0  0  0  0  0
    2.2739   -8.0104    9.1284 C   0  0  0  0  0  0  0  0  0  0  0  0
    6.5389   -7.8285   11.1607 O   0  0  0  0  0  0  0  0  0  0  0  0
    4.1928   -8.5948   10.4728 C   0  0  0  0  0  0  0  0  0  0  0  0
    4.2001   -6.1342   10.0622 O   0  0  0  0  0  0  0  0  0  0  0  0
    4.7643  -17.8181    8.0213 C   0  0  0  0  0  0  0  0  0  0  0  0
    3.9605  -14.3455    9.3191 N   0  0  0  0  0  0  0  0  0  0  0  0
    4.3724  -15.6224    9.1281 C   0  0  0  0  0  0  0  0  0  0  0  0
    3.5393  -10.0745    9.8571 C   0  0  0  0  0  0  0  0  0  0  0  0
    5.3044   -9.6403   11.4964 N   0  0  0  0  0  0  0  0  0  0  0  0
    1.1768   -8.0127    7.9988 O   0  0  0  0  0  0  0  0  0  0  0  0
    3.9407  -12.8086    9.4312 C   0  0  0  0  0  0  0  0  0  0  0  0
    3.4210  -12.2551    9.4145 O   0  0  0  0  0  0  0  0  0  0  0  0
    4.0501  -16.5596    7.8949 C   0  0  0  0  0  0  0  0  0  0  0  0
    5.9396   -8.6517   11.7784 C   0  0  0  0  0  0  0  0  0  0  0  0
    2.4825  -10.1347    9.0301 O   0  0  0  0  0  0  0  0  0  0  0  0
  3  1  2  0
  6  2  1  0
  8  2  1  0
  9  2  1  0
 10  1  1  0
 12  3  1  0
 12 11  1  0
 13  8  1  0
 14  8  1  0
 15  4  1  0
 15  6  1  0
 16 11  1  0
 17 13  1  0
 17 16  1  0
 18 10  1  0
 18 12  2  0
 19  5  1  0
 19  7  2  0
 19 14  1  0
 20 13  2  0
M  END
>  <ID>  (1) 
conformer_0

$$$$
