
     RDKit          3D

 24 24  0  0  0  0  0  0  0  0999 V2000
    3.3925  -10.0243    9.7361 C   0  0  0  0  0  0  0  0  0  0  0  0
    5.0017  -18.2479    9.1305 C   0  0  0  0  0  0  0  0  0  0  0  0
    1.0951   -9.7054    8.3588 C   0  0  0  0  0  0  0  0  0  0  0  0
    5.7963  -17.1858    9.7378 C   0  0  0  0  0  0  0  0  0  0  0  0
    6.9946   -8.0008   11.4241 O   0  0  0  0  0  0  0  0  0  0  0  0
    4.3575  -15.5934    9.3046 C   0  0  0  0  0  0  0  0  0  0  0  0
    2.6088   -8.1439    9.7056 C   0  0  0  0  0  0  0  0  0  0  0  0
    3.3930   -7.3235    9.6368 C   0  0  0  0  0  0  0  0  0  0  0  0
    4.5319   -6.2634   10.4352 O   0  0  0  0  0  0  0  0  0  0  0  0
    4.0414  -12.8524    9.2248 C   0  0  0  0  0  0  0  0  0  0  0  0
    4.6609   -8.4940   10.5704 C   0  0  0  0  0  0  0  0  0  0  0  0
    0.8766   -7.6193    7.9022 O   0  0  0  0  0  0  0  0  0  0  0  0
    4.3768  -17.5367    7.9393 C   0  0  0  0  0  0  0  0  0  0  0  0
    3.5082  -14.0172    9.2917 N   0  0  0  0  0  0  0  0  0  0  0  0
    5.0900  -12.9070    8.9267 O   0  0  0  0  0  0  0  0  0  0  0  0
    2.9821  -10.6521    9.1595 O   0  0  0  0  0  0  0  0  0  0  0  0
    5.5894   -9.1349   11.6571 N   0  0  0  0  0  0  0  0  0  0  0  0
    7.5395   -9.4623   13.2268 C   0  0  0  0  0  0  0  0  0  0  0  0
    3.8630  -10.3880   10.4201 N   0  0  0  0  0  0  0  0  0  0  0  0
    3.4481  -16.4400    8.4332 C   0  0  0  0  0  0  0  0  0  0  0  0
    6.7455   -8.8320   11.8716 C   0  0  0  0  0  0  0  0  0  0  0  0
    2.8105   -6.2052    9.3896 O   0  0  0  0  0  0  0  0  0  0  0  0
    4.5346  -16.5658   10.3207 C   0  0  0  0  0  0  0  0  0  0  0  0
    1.1864   -7.9609    8.3472 C   0  0  0  0  0  0  0  0  0  0  0  0
  4  2  2  0
  7  1  1  0
  8  7  1  0
  9  8  1  0
 10  1  1  0
 11  8  1  0
 13  2  1  0
 14  6  1  0
 14 10  1  0
 15 10  2  0
 16  1  1  0
 17 11  1  0
 19  1  1  0
 20  6  1  0
 20 13  2  0
 21  5  2  0
 21 17  1  0
 21 18  1  0
 22  8  1  0
 23  4  1  0
 23  6  2  0
 24  3  1  0
 24  7  1  0
 24 12  2  0
M  END
>  <ID>  (1) 
conformer_0

$$$$
