
     RDKit          3D

 23 24  0  0  0  0  0  0  0  0999 V2000
    4.9317  -17.8663    8.4532 C   0  0  0  0  0  0  0  0  0  0  0  0
    3.3682  -10.1502   10.1247 C   0  0  0  0  0  0  0  0  0  0  0  0
    5.6626  -17.6429    9.6281 C   0  0  0  0  0  0  0  0  0  0  0  0
    2.1311   -8.3046    9.4651 C   0  0  0  0  0  0  0  0  0  0  0  0
    7.3961   -9.0584   13.3102 C   0  0  0  0  0  0  0  0  0  0  0  0
    4.4093  -15.5979    9.1846 C   0  0  0  0  0  0  0  0  0  0  0  0
    0.7551   -8.0996    8.4492 C   0  0  0  0  0  0  0  0  0  0  0  0
    3.1185   -7.3862    9.8549 C   0  0  0  0  0  0  0  0  0  0  0  0
    3.9525  -16.9063    8.1404 C   0  0  0  0  0  0  0  0  0  0  0  0
    3.9897  -12.8152    9.2260 C   0  0  0  0  0  0  0  0  0  0  0  0
    3.7557  -14.4215    9.2056 N   0  0  0  0  0  0  0  0  0  0  0  0
    1.5081   -6.1699    8.9896 O   0  0  0  0  0  0  0  0  0  0  0  0
    4.0520   -6.2682   10.2618 O   0  0  0  0  0  0  0  0  0  0  0  0
    4.4238   -8.6011   10.3778 C   0  0  0  0  0  0  0  0  0  0  0  0
    6.9491   -8.2419   10.6484 O   0  0  0  0  0  0  0  0  0  0  0  0
    4.4336  -10.5315   10.6748 N   0  0  0  0  0  0  0  0  0  0  0  0
    2.0566   -9.7362    9.1505 O   0  0  0  0  0  0  0  0  0  0  0  0
    5.4046  -12.8514    8.6395 O   0  0  0  0  0  0  0  0  0  0  0  0
    0.5462   -7.9092    7.6233 O   0  0  0  0  0  0  0  0  0  0  0  0
    5.4353  -16.4380   10.2229 C   0  0  0  0  0  0  0  0  0  0  0  0
    5.8675   -8.6814   11.6535 N   0  0  0  0  0  0  0  0  0  0  0  0
    6.5232   -9.0598   11.5241 C   0  0  0  0  0  0  0  0  0  0  0  0
    3.3294  -12.5355    8.1422 O   0  0  0  0  0  0  0  0  0  0  0  0
  3  1  2  0
  7  4  1  0
  8  4  1  0
  9  1  1  0
  9  6  1  0
 10  2  1  0
 11  6  1  0
 11 10  1  0
 12  7  1  0
 13  8  1  0
 14  2  1  0
 14  8  2  0
 16  2  1  0
 17  2  1  0
 17  4  1  0
 18 10  1  0
 19  7  1  0
 20  3  1  0
 20  6  2  0
 22  5  1  0
 22 14  1  0
 22 15  1  0
 22 21  1  0
 23 10  1  0
M  END
>  <ID>  (1) 
conformer_0

$$$$
