
     RDKit          3D

 21 21  0  0  0  0  0  0  0  0999 V2000
    1.6393   -7.6658    8.7937 C   0  0  0  0  0  0  0  0  0  0  0  0
    5.2932  -17.7002    9.2971 C   0  0  0  0  0  0  0  0  0  0  0  0
    4.9185  -16.6112   10.0996 C   0  0  0  0  0  0  0  0  0  0  0  0
    1.0963   -9.0596    7.9160 C   0  0  0  0  0  0  0  0  0  0  0  0
    6.9605   -8.9964   13.5157 C   0  0  0  0  0  0  0  0  0  0  0  0
    2.5741   -8.6736    9.6875 C   0  0  0  0  0  0  0  0  0  0  0  0
    6.8509   -7.9365   11.5176 O   0  0  0  0  0  0  0  0  0  0  0  0
    3.4909   -7.4207    9.9446 C   0  0  0  0  0  0  0  0  0  0  0  0
    4.1191  -15.4594    9.2507 C   0  0  0  0  0  0  0  0  0  0  0  0
    3.8715   -6.3932   10.4977 O   0  0  0  0  0  0  0  0  0  0  0  0
    4.5560  -17.6407    8.0838 C   0  0  0  0  0  0  0  0  0  0  0  0
    4.3211  -12.9502    9.3896 C   0  0  0  0  0  0  0  0  0  0  0  0
    5.1608  -12.5257    8.8242 O   0  0  0  0  0  0  0  0  0  0  0  0
    1.6275   -6.2810    9.2034 O   0  0  0  0  0  0  0  0  0  0  0  0
    2.9079  -10.4225    9.2037 O   0  0  0  0  0  0  0  0  0  0  0  0
    0.3932   -8.1634    7.8141 O   0  0  0  0  0  0  0  0  0  0  0  0
    3.8494  -13.9766    9.5164 N   0  0  0  0  0  0  0  0  0  0  0  0
    6.5338   -8.7474   12.0489 C   0  0  0  0  0  0  0  0  0  0  0  0
    3.8216  -16.4486    8.0498 C   0  0  0  0  0  0  0  0  0  0  0  0
    4.9042   -8.7287   10.8084 C   0  0  0  0  0  0  0  0  0  0  0  0
    3.5570  -10.1108   10.1887 C   0  0  0  0  0  0  0  0  0  0  0  0
  3  2  2  0
  4  1  1  0
  6  1  1  0
  8  6  1  0
  9  3  1  0
 10  8  1  0
 11  2  1  0
 13 12  2  0
 14  1  1  0
 16  4  1  0
 17  9  1  0
 17 12  1  0
 18  5  1  0
 18  7  2  0
 19  9  2  0
 19 11  1  0
 20 18  1  0
 21  6  1  0
 21 12  1  0
 21 15  1  0
 21 20  1  0
M  END
>  <ID>  (1) 
conformer_0

$$$$
