
     RDKit          3D

 21 22  0  0  0  0  0  0  0  0999 V2000
    5.2379  -16.4487   10.1714 C   0  0  0  0  0  3  0  0  0  0  0  0
    1.8975   -7.6649    9.0500 C   0  0  0  0  0  0  0  0  0  0  0  0
    4.7234  -17.5857    8.2635 C   0  0  0  0  0  0  0  0  0  0  0  0
    7.0468   -9.1715   13.3786 C   0  0  0  0  0  0  0  0  0  0  0  0
    0.8601   -8.7995    7.8186 C   0  0  0  0  0  0  0  0  0  0  0  0
    2.3150   -9.5095    9.0207 C   0  0  0  0  0  0  0  0  0  0  0  0
    6.8527   -8.0419   11.2768 O   0  0  0  0  0  0  0  0  0  0  0  0
    6.2843   -9.1050   11.7229 C   0  0  0  0  0  0  0  0  0  0  0  0
    4.0270  -16.3096    8.2207 C   0  0  0  0  0  0  0  0  0  0  0  0
    3.8450  -10.7744   10.1902 N   0  0  0  0  0  0  0  0  0  0  0  0
    3.5130   -6.6176   10.7628 O   0  0  0  0  0  0  0  0  0  0  0  0
    5.2466   -9.5397   11.4749 N   0  0  0  0  0  0  0  0  0  0  0  0
    0.7341   -7.7009    7.8061 O   0  0  0  0  0  0  0  0  0  0  0  0
    4.5179  -15.2545    9.2264 C   0  0  0  0  0  0  0  0  0  0  0  0
    4.4395  -14.0001    9.6521 N   0  0  0  0  0  0  0  0  0  0  0  0
    2.6241  -10.8641    8.8516 O   0  0  0  0  0  0  0  0  0  0  0  0
    1.8532   -6.1307    9.3349 O   0  0  0  0  0  0  0  0  0  0  0  0
    5.4547  -17.6860    9.4534 C   0  0  0  0  0  0  0  0  0  0  0  0
    3.0494   -7.5274    9.9645 C   0  0  0  0  0  0  0  0  0  0  0  0
    4.0179  -11.3758    9.7833 C   0  0  0  0  0  0  0  0  0  0  0  0
    3.9321   -8.9512   10.3966 C   0  0  0  0  0  0  0  0  0  0  0  0
  6  2  1  0
  8  4  1  0
  8  7  2  0
  9  3  2  0
 12  8  1  0
 13  2  1  0
 13  5  1  0
 14  1  1  0
 14  9  1  0
 15 14  1  0
 16  6  1  0
 17  2  1  0
 18  1  1  0
 18  3  1  0
 19  2  1  0
 19 11  1  0
 20 10  1  0
 20 14  1  0
 20 16  1  0
 21 10  1  0
 21 12  1  0
 21 19  2  0
M  RAD  1   1   2
M  END
>  <ID>  (1) 
conformer_0

$$$$
