
     RDKit          3D

 24 24  0  0  0  0  0  0  0  0999 V2000
    4.6985  -16.1707   10.1254 C   0  0  0  0  0  0  0  0  0  0  0  0
    1.8316   -9.1787    8.8123 C   0  0  0  0  0  0  0  0  0  0  0  0
    5.4051  -18.1065    8.9908 C   0  0  0  0  0  0  0  0  0  0  0  0
    2.3089   -7.4674    9.5098 C   0  0  0  0  0  0  0  0  0  0  0  0
    0.4698   -8.0935    8.0682 C   0  0  0  0  0  0  0  0  0  0  0  0
    7.0409   -8.1789   11.1058 O   0  0  0  0  0  0  0  0  0  0  0  0
    3.4808   -8.0473   10.2409 C   0  0  2  0  0  0  0  0  0  0  0  0
    4.1060  -16.4249    7.9168 C   0  0  0  0  0  0  0  0  0  0  0  0
    1.5281   -6.1275    9.2158 O   0  0  0  0  0  0  0  0  0  0  0  0
    4.2610  -15.5621    8.9717 C   0  0  0  0  0  0  0  0  0  0  0  0
    7.0818   -8.8724   13.6887 C   0  0  0  0  0  0  0  0  0  0  0  0
    3.3167  -10.2135    9.9947 C   0  0  0  0  0  0  0  0  0  0  0  0
    3.7914  -12.8564    9.1718 C   0  0  0  0  0  0  0  0  0  0  0  0
    3.8790   -6.3490    9.9749 O   0  0  0  0  0  0  0  0  0  0  0  0
    5.5622   -9.2893   11.8790 N   0  0  0  0  0  0  0  0  0  0  0  0
    0.9797   -7.7865    8.0075 O   0  0  0  0  0  0  0  0  0  0  0  0
    2.7126  -10.7803    9.1908 O   0  0  0  0  0  0  0  0  0  0  0  0
    5.3762  -17.3454   10.1409 C   0  0  0  0  0  0  0  0  0  0  0  0
    3.7665  -13.3060    8.9906 O   0  0  0  0  0  0  0  0  0  0  0  0
    3.7757  -14.1572    8.9086 N   0  0  0  0  0  0  0  0  0  0  0  0
    4.2626  -10.8175   10.2668 N   0  0  0  0  0  0  0  0  0  0  0  0
    6.6441   -8.8980   12.0683 C   0  0  0  0  0  0  0  0  0  0  0  0
    4.6257  -17.6573    7.9891 C   0  0  0  0  0  0  0  0  0  0  0  0
    4.8919   -8.5607   10.5987 C   0  0  0  0  0  0  0  0  0  0  0  0
  4  2  2  3
  5  2  1  0
  7  4  1  0
  9  4  1  0
 10  1  2  0
 10  8  1  0
 13 10  1  0
  7 14  1  1
 16  5  1  0
 17  2  1  0
 17 12  1  0
 18  1  1  0
 18  3  2  0
 19 13  1  0
 20 19  1  0
 21 12  1  0
 21 13  1  0
 22  6  2  0
 22 11  1  0
 22 15  1  0
 23  3  1  0
 23  8  2  0
 24  7  1  0
 24 15  1  0
M  END
>  <ID>  (1) 
conformer_0

$$$$
