
     RDKit          3D

 25 25  0  0  0  0  0  0  0  0999 V2000
    2.4727   -9.8227    9.2553 C   0  0  1  0  0  0  0  0  0  0  0  0
    5.6610  -17.4175    9.3761 C   0  0  0  0  0  0  0  0  0  0  0  0
    3.6192  -15.9600    8.5241 C   0  0  0  0  0  0  0  0  0  0  0  0
    0.9776   -8.5757    7.9458 C   0  0  0  0  0  0  0  0  0  0  0  0
    1.9482   -7.8058    8.8474 C   0  0  2  0  0  0  0  0  0  0  0  0
    6.7021   -8.0042   11.1537 O   0  0  0  0  0  0  0  0  0  0  0  0
    2.7928   -7.5232   10.0816 C   0  0  2  0  0  0  0  0  0  0  0  0
    6.7595   -9.1166   13.3821 C   0  0  0  0  0  0  0  0  0  0  0  0
    1.6500   -6.2027    9.1379 O   0  0  0  0  0  0  0  0  0  0  0  0
    5.2038  -16.2016    9.9553 C   0  0  0  0  0  0  0  0  0  0  0  0
    3.9063  -13.5326    9.7819 N   0  0  0  0  0  0  0  0  0  0  0  0
    4.5111  -15.1800    9.1970 C   0  0  0  0  0  0  0  0  0  0  0  0
    1.7460   -9.9670    9.1757 O   0  0  0  0  0  0  0  0  0  0  0  0
    4.0141   -6.2728   10.1722 O   0  0  0  0  0  0  0  0  0  0  0  0
    6.1675   -8.6545   11.6264 C   0  0  0  0  0  0  0  0  0  0  0  0
    4.3624  -10.5998   10.3998 N   0  0  0  0  0  0  0  0  0  0  0  0
    0.1422   -8.1695    8.2506 O   0  0  0  0  0  0  0  0  0  0  0  0
    5.4657  -13.1281    8.9787 O   0  0  0  0  0  0  0  0  0  0  0  0
    4.0650   -8.4684   10.3702 C   0  0  1  0  0  0  0  0  0  0  0  0
    4.8439   -8.2950   11.2009 N   0  0  0  0  0  0  0  0  0  0  0  0
    5.0025  -17.8369    8.2699 C   0  0  0  0  0  0  0  0  0  0  0  0
    3.9488  -17.1074    7.7870 C   0  0  0  0  0  0  0  0  0  0  0  0
    3.9989  -10.3197   10.2874 C   0  0  0  0  0  0  0  0  0  0  0  0
    2.9025  -11.7638    8.9409 O   0  0  0  0  0  0  0  0  0  0  0  0
    4.1565  -12.6312    9.4689 C   0  0  1  0  0  0  0  0  0  0  0  0
  5  4  1  0
  7  5  1  0
  5  9  1  1
 10  2  2  0
 12  3  2  0
 12 10  1  0
 12 11  1  0
  1 13  1  1
  7 14  1  6
 15  6  2  0
 15  8  1  0
 17  4  1  0
 19  7  1  0
 20 15  1  0
 19 20  1  1
 21  2  1  0
 22  3  1  0
 22 21  2  0
 23  1  1  0
 23 16  2  3
 23 19  1  0
 24  1  1  0
 25 11  1  0
 25 18  1  6
 25 24  1  0
M  END
>  <ID>  (1) 
conformer_0

$$$$
