
     RDKit          3D

 21 21  0  0  0  0  0  0  0  0999 V2000
    2.2632   -7.5637    9.3523 C   0  0  0  0  0  0  0  0  0  0  0  0
    4.1185  -16.4925    7.9128 C   0  0  0  0  0  0  0  0  0  0  0  0
    5.3172  -17.7856    9.3065 C   0  0  0  0  0  0  0  0  0  0  0  0
    0.9552   -8.4603    8.4014 C   0  0  0  0  0  0  0  0  0  0  0  0
    2.2743   -9.7262    9.5490 C   0  0  0  0  0  0  0  0  0  0  0  0
    3.8470  -14.0310    9.3422 N   0  0  0  0  0  0  0  0  0  0  0  0
    5.0991  -16.6297    9.9840 C   0  0  0  0  0  0  0  0  0  0  0  0
    4.2648  -15.4738    9.0805 C   0  0  0  0  0  0  0  0  0  0  0  0
    3.5657   -7.2975    9.9930 C   0  0  0  0  0  0  0  0  0  0  0  0
    7.6034   -8.8687   13.1597 C   0  0  0  0  0  0  0  0  0  0  0  0
    4.2604   -6.1557   10.1835 O   0  0  0  0  0  0  0  0  0  0  0  0
    1.7285   -6.0411    9.1719 O   0  0  0  0  0  0  0  0  0  0  0  0
    2.6684  -10.2729    9.2360 O   0  0  0  0  0  0  0  0  0  0  0  0
    4.3177   -8.5208   10.4585 C   0  0  0  0  0  0  0  0  0  0  0  0
    3.7348  -12.5577    9.6928 C   0  0  0  0  0  0  0  0  0  0  0  0
    1.0093   -7.7526    8.0470 O   0  0  0  0  0  0  0  0  0  0  0  0
    4.0234  -11.6598   10.3407 N   0  0  0  0  0  0  0  0  0  0  0  0
    4.6437  -17.7823    8.0141 C   0  0  0  0  0  0  0  0  0  0  0  0
    6.3150   -8.9226   11.6913 C   0  0  0  0  0  0  0  0  0  0  0  0
    5.6141   -9.1685   11.5588 N   0  0  0  0  0  0  0  0  0  0  0  0
    4.0227  -10.5739   10.6451 C   0  0  0  0  0  0  0  0  0  0  0  0
  4  1  1  0
  7  3  2  0
  8  2  2  0
  8  6  1  0
  8  7  1  0
  9  1  1  0
 11  9  1  0
 12  1  1  0
 13  5  1  0
 14  9  1  0
 15  6  1  0
 16  4  1  0
 17 15  1  0
 18  2  1  0
 18  3  1  0
 19 10  1  0
 20 14  1  0
 20 19  1  0
 21 13  1  0
 21 14  1  0
 21 17  1  0
M  END
>  <ID>  (1) 
conformer_0

$$$$
