
     RDKit          3D

 24 26  0  0  0  0  0  0  0  0999 V2000
    2.3140   -7.5578    9.2249 C   0  0  0  0  0  0  0  0  0  0  0  0
    5.3466  -17.5310    8.8044 C   0  0  0  0  0  0  0  0  0  0  0  0
    0.8672   -8.7512    8.0883 C   0  0  0  0  0  0  0  0  0  0  0  0
    3.1840   -7.2190   10.1510 C   0  0  0  0  0  0  0  0  0  0  0  0
    4.8395  -16.6829    9.7377 C   0  0  0  0  0  0  0  0  0  0  0  0
    3.9578  -15.6126    9.0349 C   0  0  0  0  0  0  0  0  0  0  0  0
    6.5303   -7.8330   10.7929 O   0  0  0  0  0  0  0  0  0  0  0  0
    3.5295  -14.4281    9.4853 N   0  0  0  0  0  0  0  0  0  0  0  0
    1.8765   -6.1920    9.2633 O   0  0  0  0  0  0  0  0  0  0  0  0
    2.1767   -9.8053    9.5135 O   0  0  0  0  0  0  0  0  0  0  0  0
    7.1664   -9.0633   13.3727 C   0  0  0  0  0  0  0  0  0  0  0  0
    3.6835  -16.5179    7.7203 C   0  0  0  0  0  0  0  0  0  0  0  0
    5.6641  -10.4283   11.2206 C   0  0  0  0  0  0  0  0  0  0  0  0
    4.2976   -6.0910   10.0982 O   0  0  0  0  0  0  0  0  0  0  0  0
    4.0008  -12.0434   10.4999 N   0  0  0  0  0  0  0  0  0  0  0  0
    3.7533  -10.1011   10.2119 C   0  0  0  0  0  0  0  0  0  0  0  0
    5.6310   -9.5470   11.8862 N   0  0  0  0  0  0  0  0  0  0  0  0
    3.7619  -12.8968    9.6719 C   0  0  0  0  0  0  0  0  0  0  0  0
    1.8633   -9.0463    9.3343 C   0  0  0  0  0  0  0  0  0  0  0  0
    4.4250   -9.7133   10.3735 N   0  0  0  0  0  0  0  0  0  0  0  0
    4.4960  -17.6969    7.6993 C   0  0  0  0  0  0  0  0  0  0  0  0
    3.4803  -11.9046    9.2994 O   0  0  0  0  0  0  0  0  0  0  0  0
    4.6426   -8.0104   10.4689 C   0  0  0  0  0  0  0  0  0  0  0  0
    6.4969   -9.1535   11.9763 C   0  0  0  0  0  0  0  0  0  0  0  0
  4  1  1  0
  5  2  2  0
  6  5  1  0
  8  6  1  0
  9  1  1  0
 12  6  2  0
 14  4  1  0
 16 10  1  0
 16 15  1  0
 17 13  1  0
 18  8  1  0
 18 15  1  0
 19  1  1  0
 19  3  1  0
 19 10  1  0
 20 13  1  0
 20 16  1  0
 21  2  1  0
 21 12  1  0
 22 15  1  0
 22 18  1  0
 23  4  1  0
 23 20  1  0
 24  7  2  0
 24 11  1  0
 24 17  1  0
M  END
>  <ID>  (1) 
conformer_0

$$$$
