
     RDKit          3D

 26 26  0  0  0  0  0  0  0  0999 V2000
    1.3534   -7.8053    8.7770 C   0  0  0  0  0  0  0  0  0  0  0  0
    5.4919  -17.4382    9.7701 C   0  0  0  0  0  0  0  0  0  0  0  0
    4.4105  -17.5066    7.8022 C   0  0  0  0  0  0  0  0  0  0  0  0
    0.9653   -9.3397    7.8137 C   0  0  0  0  0  0  0  0  0  0  0  0
    3.2635   -7.0335    9.8513 C   0  0  0  0  0  0  0  0  0  0  0  0
    6.6973   -8.0451   11.0094 O   0  0  0  0  0  0  0  0  0  0  0  0
    3.0365   -8.1750   10.1063 C   0  0  0  0  0  0  0  0  0  0  0  0
    4.9698  -16.2604   10.1036 C   0  0  0  0  0  0  0  0  0  0  0  0
    3.8138  -14.5533    9.1760 N   0  0  0  0  0  0  0  0  0  0  0  0
    4.2687   -6.2571   10.5161 O   0  0  0  0  0  0  0  0  0  0  0  0
    6.9244   -8.9003   13.5290 C   0  0  0  0  0  0  0  0  0  0  0  0
    4.3286  -15.4856    9.0363 C   0  0  0  0  0  0  0  0  0  0  0  0
    2.4495   -9.4894    9.3483 C   0  0  0  0  0  0  0  0  0  0  0  0
    0.7302   -7.8664    7.8720 O   0  0  0  0  0  0  0  0  0  0  0  0
    1.8684   -6.2415    9.3949 O   0  0  0  0  0  0  0  0  0  0  0  0
    2.6774  -12.3406   10.0320 O   0  0  0  0  0  0  0  0  0  0  0  0
    4.0707  -10.6956   10.4585 C   0  0  0  0  0  0  0  0  0  0  0  0
    5.2656   -9.6806   11.4795 N   0  0  0  0  0  0  0  0  0  0  0  0
    4.0743  -11.1656   10.3666 N   0  0  0  0  0  0  0  0  0  0  0  0
    3.9598  -16.2077    7.8896 C   0  0  0  0  0  0  0  0  0  0  0  0
    6.4898   -8.7970   12.1188 C   0  0  0  0  0  0  0  0  0  0  0  0
    2.5236  -10.2258    9.3369 O   0  0  0  0  0  0  0  0  0  0  0  0
    3.9622  -13.0216    9.6476 C   0  0  0  0  0  0  0  0  0  0  0  0
    4.4786  -12.7657    9.7808 N   0  0  0  0  0  0  0  0  0  0  0  0
    5.3097  -18.0173    8.5583 C   0  0  0  0  0  0  0  0  0  0  0  0
    4.8956   -8.7035   10.6059 C   0  0  0  0  0  0  0  0  0  0  0  0
  7  5  1  0
  8  2  2  0
 10  5  1  0
 12  8  1  0
 12  9  1  0
 13  1  1  0
 13  7  1  0
 14  1  1  0
 14  4  1  0
 15  5  1  0
 19 17  1  0
 20  3  1  0
 20 12  2  0
 21  6  2  0
 21 11  1  0
 21 18  1  0
 22 13  1  0
 22 17  1  0
 23  9  1  0
 23 16  2  0
 24 19  1  0
 24 23  1  0
 25  2  1  0
 25  3  2  0
 26  7  1  0
 26 18  1  0
M  END
>  <ID>  (1) 
conformer_0

$$$$
