
     RDKit          3D

 24 24  0  0  0  0  0  0  0  0999 V2000
    4.5455  -17.5936    7.4780 C   0  0  0  0  0  0  0  0  0  0  0  0
    2.4821   -7.4173    9.5229 C   0  0  0  0  0  0  0  0  0  0  0  0
    5.3124  -17.7990    9.6622 C   0  0  0  0  0  0  0  0  0  0  0  0
    0.6335   -8.1437    8.0488 C   0  0  0  0  0  0  0  0  0  0  0  0
    3.3637   -7.9067   10.1467 C   0  0  0  0  0  0  0  0  0  0  0  0
    7.4350   -8.8900   13.5188 C   0  0  0  0  0  0  0  0  0  0  0  0
    6.8606   -8.9034   12.2254 C   0  0  0  0  0  0  0  0  0  0  0  0
    7.0860   -8.3211   11.3099 O   0  0  0  0  0  0  0  0  0  0  0  0
    4.0139  -16.3570    7.6971 C   0  0  0  0  0  0  0  0  0  0  0  0
    4.1361  -15.8590    9.0452 C   0  0  0  0  0  0  0  0  0  0  0  0
    3.9037  -14.4956    9.4647 N   0  0  0  0  0  0  0  0  0  0  0  0
    3.9995  -13.0726    9.5031 C   0  0  0  0  0  0  0  0  0  0  0  0
    3.9689   -6.3229    9.9877 O   0  0  0  0  0  0  0  0  0  0  0  0
    0.5091   -7.2838    7.9910 O   0  0  0  0  0  0  0  0  0  0  0  0
    3.2619  -12.6209    9.1846 O   0  0  0  0  0  0  0  0  0  0  0  0
    2.3093   -9.9848    9.3482 O   0  0  0  0  0  0  0  0  0  0  0  0
    5.3408   -9.4140   11.5532 N   0  0  0  0  0  0  0  0  0  0  0  0
    4.6314  -16.8107   10.0307 C   0  0  0  0  0  0  0  0  0  0  0  0
    1.8154   -6.1086    9.2472 O   0  0  0  0  0  0  0  0  0  0  0  0
    4.8169   -9.0363   10.8529 C   0  0  0  0  0  0  0  0  0  0  0  0
    1.9385   -8.9718    8.7415 C   0  0  0  0  0  0  0  0  0  0  0  0
    4.1741  -10.5542   10.6768 N   0  0  0  0  0  0  0  0  0  0  0  0
    3.7926  -10.2785    9.8243 C   0  0  0  0  0  0  0  0  0  0  0  0
    5.3057  -18.3390    8.3090 C   0  0  0  0  0  0  0  0  0  0  0  0
  5  2  1  0
  7  6  1  0
  8  7  2  0
  9  1  2  0
 10  9  1  0
 11 10  1  0
 12 11  1  0
 13  5  1  0
 14  4  2  0
 15 12  1  0
 17  7  1  0
 18  3  1  0
 18 10  2  0
 19  2  1  0
 20 17  1  0
 21  2  1  0
 21  4  1  0
 21 16  1  0
 22 20  1  0
 23 15  1  0
 23 16  1  0
 23 22  1  0
 24  1  1  0
 24  3  2  0
M  END
>  <ID>  (1) 
conformer_0

$$$$
