
     RDKit          3D

 22 23  0  0  0  0  0  0  0  0999 V2000
    1.9206   -8.0008    9.1025 C   0  0  2  0  0  0  0  0  0  0  0  0
    5.6876  -17.8680    9.1127 C   0  0  0  0  0  0  0  0  0  0  0  0
    5.4789  -16.7405    9.8513 C   0  0  0  0  0  0  0  0  0  0  0  0
    1.2276   -9.1458    8.1667 C   0  0  0  0  0  0  0  0  0  0  0  0
    3.9320   -8.5931   10.0821 C   0  0  0  0  0  0  0  0  0  0  0  0
    6.6039   -9.1006   13.4584 C   0  0  0  0  0  0  0  0  0  0  0  0
    3.1929   -7.3035    9.7804 C   0  0  1  0  0  0  0  0  0  0  0  0
    4.7802  -17.9326    8.0500 C   0  0  0  0  0  0  0  0  0  0  0  0
    6.8758   -7.7052   11.8838 O   0  0  0  0  0  0  0  0  0  0  0  0
    6.1249   -8.5561   11.7206 C   0  0  0  0  0  0  0  0  0  0  0  0
    4.2456  -15.8757    9.1924 C   0  0  0  0  0  0  0  0  0  0  0  0
    1.6797   -6.1800    9.1040 O   0  0  0  0  0  0  0  0  0  0  0  0
    5.1806   -8.8934   11.0924 N   0  0  0  0  0  0  0  0  0  0  0  0
    2.6045  -10.4769    9.1307 O   0  0  0  0  0  0  0  0  0  0  0  0
    3.4801  -10.3196    9.8932 C   0  0  0  0  0  0  0  0  0  0  0  0
    4.1034   -6.2133   10.2330 O   0  0  0  0  0  0  0  0  0  0  0  0
    1.0083   -7.9457    7.9312 O   0  0  0  0  0  0  0  0  0  0  0  0
    3.8703  -14.5086    9.4091 N   0  0  0  0  0  0  0  0  0  0  0  0
    3.8587  -12.8467    9.5044 O   0  0  0  0  0  0  0  0  0  0  0  0
    3.8690  -16.8872    8.1020 C   0  0  0  0  0  0  0  0  0  0  0  0
    3.9457  -12.8665    9.6747 C   0  0  0  0  0  0  0  0  0  0  0  0
    4.4296  -11.7019   10.6820 N   0  0  0  0  0  0  0  0  0  0  0  0
  3  2  2  0
  4  1  1  0
  7  1  1  0
  7  5  1  0
  8  2  1  0
 10  6  1  0
 10  9  2  0
 11  3  1  0
  1 12  1  6
 13  5  2  3
 13 10  1  0
 15  5  1  0
 15 14  2  0
  7 16  1  6
 17  1  1  0
 17  4  1  0
 18 11  1  0
 20  8  1  0
 20 11  2  0
 21 18  1  0
 21 19  2  0
 22 15  1  0
 22 21  1  0
M  END
>  <ID>  (1) 
conformer_0

$$$$
