
     RDKit          3D

 21 20  0  0  0  0  0  0  0  0999 V2000
    5.2215  -17.7718    9.4440 C   0  0  0  0  0  0  0  0  0  0  0  0
    2.5701   -7.5190    9.5553 C   0  0  1  0  0  0  0  0  0  0  0  0
    4.7296  -17.6878    8.1483 C   0  0  0  0  0  0  0  0  0  0  0  0
    1.9471   -8.7943    9.1572 C   0  0  2  0  0  0  0  0  0  0  0  0
    3.5176  -10.2753    9.9729 C   0  0  0  0  0  0  0  0  0  0  0  0
    6.6649   -9.1797   13.4506 C   0  0  0  0  0  0  0  0  0  0  0  0
    4.1960  -16.4085    7.9061 C   0  0  0  0  0  0  0  0  0  0  0  0
    4.0662  -12.9262    9.9699 C   0  0  1  0  0  0  0  0  0  0  0  0
    6.8168   -8.2067   11.1380 O   0  0  0  0  0  0  0  0  0  0  0  0
    6.4740   -8.9809   11.9276 C   0  0  0  0  0  0  0  0  0  0  0  0
    4.4070  -15.4666    9.1311 C   0  0  0  0  0  0  0  0  0  0  0  0
    0.4425   -7.5199    8.0786 O   0  0  0  0  0  0  0  0  0  0  0  0
    4.4147   -6.3608   10.3702 O   0  0  0  0  0  0  0  0  0  0  0  0
    5.2287  -13.2206    9.1063 O   0  0  0  0  0  0  0  0  0  0  0  0
    2.3632  -10.2618    9.2318 O   0  0  0  0  0  0  0  0  0  0  0  0
    4.9507  -16.6082   10.1284 C   0  0  0  0  0  0  0  0  0  0  0  0
    4.9745   -9.4235   11.4341 N   0  0  0  0  0  0  0  0  0  0  0  0
    4.0178   -8.1807   10.0594 C   0  0  0  0  0  0  0  0  0  0  0  0
    4.0108  -10.6591   10.2725 N   0  0  0  0  0  0  0  0  0  0  0  0
    0.6765   -8.2860    7.9449 C   0  0  0  0  0  0  0  0  0  0  0  0
    2.5854   -6.2323    9.3948 O   0  0  0  0  0  0  0  0  0  0  0  0
  3  1  2  3
  4  2  1  0
  7  3  1  0
 10  6  1  0
 10  9  2  0
 11  7  1  0
  8 14  1  6
 15  4  1  0
 15  5  1  0
 16  1  1  0
 16  8  1  0
 17 10  1  0
 18  2  1  0
 18 13  1  0
 19  5  1  0
 19  8  1  0
 19 17  1  0
  4 20  1  6
 20 12  1  0
  2 21  1  6
M  END
>  <ID>  (1) 
conformer_0

$$$$
