
     RDKit          3D

 24 24  0  0  0  0  0  0  0  0999 V2000
    4.8691  -15.9085    9.8883 C   0  0  0  0  0  0  0  0  0  0  0  0
    3.4501   -7.9003    9.9990 C   0  0  0  0  0  0  0  0  0  0  0  0
    4.1783  -17.6298    8.0746 C   0  0  0  0  0  0  0  0  0  0  0  0
    0.8183   -8.5325    7.7783 C   0  0  0  0  0  0  0  0  0  0  0  0
    7.0919   -8.9043   13.4777 C   0  0  0  0  0  0  0  0  0  0  0  0
    4.6865   -8.9229   10.7262 C   0  0  0  0  0  0  0  0  0  0  0  0
    1.8983   -9.7778    8.7215 C   0  0  0  0  0  0  0  0  0  0  0  0
    7.2257   -8.2979   11.1973 O   0  0  0  0  0  0  0  0  0  0  0  0
    3.6462  -16.3919    8.1744 C   0  0  0  0  0  0  0  0  0  0  0  0
    6.7558   -8.8123   11.9152 C   0  0  0  0  0  0  0  0  0  0  0  0
    4.2158  -15.4350    8.9644 C   0  0  0  0  0  0  0  0  0  0  0  0
    3.9724   -6.3735   10.2798 O   0  0  0  0  0  0  0  0  0  0  0  0
    2.2581  -10.5539    9.0649 O   0  0  0  0  0  0  0  0  0  0  0  0
    0.8652   -7.6148    8.0100 O   0  0  0  0  0  0  0  0  0  0  0  0
    5.3319   -8.5778   11.5870 N   0  0  0  0  0  0  0  0  0  0  0  0
    3.7459  -13.5723    9.3191 N   0  0  0  0  0  0  0  0  0  0  0  0
    3.2992  -10.3361   10.0598 C   0  0  0  0  0  0  0  0  0  0  0  0
    4.0205  -10.1624   10.3408 N   0  0  0  0  0  0  0  0  0  0  0  0
    1.8355   -6.1878    9.2879 O   0  0  0  0  0  0  0  0  0  0  0  0
    5.2232  -17.9736    8.7718 C   0  0  0  0  0  0  0  0  0  0  0  0
    3.4232  -12.4344    8.7561 O   0  0  0  0  0  0  0  0  0  0  0  0
    3.9253  -12.9568    9.3990 C   0  0  0  0  0  0  0  0  0  0  0  0
    2.3115   -7.8560    9.1904 C   0  0  0  0  0  0  0  0  0  0  0  0
    5.4758  -17.2780    9.9694 C   0  0  0  0  0  0  0  0  0  0  0  0
  6  2  1  0
  7  4  1  0
  9  3  2  0
 10  5  1  0
 10  8  2  0
 11  1  2  0
 11  9  1  0
 12  2  1  0
 13  7  1  0
 14  4  2  0
 15  6  1  0
 15 10  1  0
 17 13  1  0
 18  6  1  0
 18 17  1  0
 20  3  1  0
 22 11  1  0
 22 16  1  0
 22 17  1  0
 22 21  1  0
 23  2  1  0
 23 19  1  0
 24  1  1  0
 24 20  2  0
M  END
>  <ID>  (1) 
conformer_0

$$$$
