
     RDKit          3D

 23 23  0  0  0  0  0  0  0  0999 V2000
    1.4530   -9.8525    8.1253 C   0  0  0  0  0  0  0  0  0  0  0  0
    4.9349  -16.7337   10.0222 C   0  0  0  0  0  0  0  0  0  0  0  0
    5.4799  -17.6626    9.1802 C   0  0  0  0  0  0  0  0  0  0  0  0
    7.3508   -8.9455   13.4707 C   0  0  0  0  0  0  0  0  0  0  0  0
    4.7986   -9.4238   10.4790 C   0  0  0  0  0  0  0  0  0  0  0  0
    4.2425  -15.6251    8.9722 C   0  0  0  0  0  0  0  0  0  0  0  0
    2.4791   -7.7904    9.3612 C   0  0  0  0  0  0  0  0  0  0  0  0
    3.3941   -7.7682    9.8775 C   0  0  0  0  0  0  0  0  0  0  0  0
    3.6620  -14.2356    9.2257 N   0  0  0  0  0  0  0  0  0  0  0  0
    6.7581   -9.2846   11.8532 C   0  0  0  0  0  0  0  0  0  0  0  0
    4.0895   -6.4048   10.0918 O   0  0  0  0  0  0  0  0  0  0  0  0
    1.9054   -9.9601    8.9418 O   0  0  0  0  0  0  0  0  0  0  0  0
    4.9790  -17.8001    8.0072 C   0  0  0  0  0  0  0  0  0  0  0  0
    1.6923   -6.2958    8.9795 O   0  0  0  0  0  0  0  0  0  0  0  0
    7.0962   -9.1538   11.3257 O   0  0  0  0  0  0  0  0  0  0  0  0
    3.1337  -10.1408    9.8901 C   0  0  0  0  0  0  0  0  0  0  0  0
    0.1842   -8.1969    7.9031 O   0  0  0  0  0  0  0  0  0  0  0  0
    5.1656  -13.1006    9.4781 O   0  0  0  0  0  0  0  0  0  0  0  0
    3.7615  -12.7005    9.5791 C   0  0  0  0  0  0  0  0  0  0  0  0
    5.3007   -9.5047   11.1235 N   0  0  0  0  0  0  0  0  0  0  0  0
    0.8788   -7.9596    8.3418 C   0  0  0  0  0  0  0  0  0  0  0  0
    4.2335  -16.5916    7.7418 C   0  0  0  0  0  0  0  0  0  0  0  0
    2.7456  -11.5936    9.7221 O   0  0  0  0  0  0  0  0  0  0  0  0
  3  2  2  0
  6  2  1  0
  8  7  1  0
  9  6  1  0
 10  4  1  0
 11  8  1  0
 12  1  1  0
 13  3  1  0
 14  7  1  0
 15 10  2  0
 16  5  1  0
 16 12  1  0
 19  9  1  0
 19 18  2  0
 20  5  1  0
 20 10  1  0
 21  1  1  0
 21  7  1  0
 21 17  1  0
 22  6  1  0
 22 13  2  0
 23 16  1  0
 23 19  1  0
M  END
>  <ID>  (1) 
conformer_0

$$$$
