
     RDKit          3D

 26 26  0  0  0  0  0  0  0  0999 V2000
    1.0426   -7.8138    9.0188 C   0  0  0  0  0  0  0  0  0  0  0  0
    4.9593  -16.0437    9.8718 C   0  0  0  0  0  0  0  0  0  0  0  0
    5.4719  -17.3594    9.8578 C   0  0  0  0  0  0  0  0  0  0  0  0
    2.6994   -7.1331    9.6190 C   0  0  0  0  0  0  0  0  0  0  0  0
    7.0826   -9.0141   13.4013 C   0  0  0  0  0  0  0  0  0  0  0  0
    0.6265   -9.1731    7.7942 C   0  0  0  0  0  0  0  0  0  0  0  0
    6.5859   -7.8982   11.0386 O   0  0  0  0  0  0  0  0  0  0  0  0
    4.6360  -17.4256    7.7233 C   0  0  0  0  0  0  0  0  0  0  0  0
    6.4261   -8.9424   12.1308 C   0  0  0  0  0  0  0  0  0  0  0  0
    3.6486  -13.8769    9.1090 N   0  0  0  0  0  0  0  0  0  0  0  0
    4.1062   -6.2881   10.3248 O   0  0  0  0  0  0  0  0  0  0  0  0
    4.4305  -15.1982    8.8190 C   0  0  0  0  0  0  0  0  0  0  0  0
    1.6992   -5.9595    9.2695 O   0  0  0  0  0  0  0  0  0  0  0  0
    2.1931   -9.3254    9.0147 O   0  0  0  0  0  0  0  0  0  0  0  0
    0.6812   -7.5881    7.9656 O   0  0  0  0  0  0  0  0  0  0  0  0
    4.3546  -11.0804   10.5054 N   0  0  0  0  0  0  0  0  0  0  0  0
    2.8870   -7.7149   10.5354 C   0  0  0  0  0  0  0  0  0  0  0  0
    4.8064  -12.9401    8.0833 O   0  0  0  0  0  0  0  0  0  0  0  0
    2.7689   -9.6074    9.7574 C   0  0  0  0  0  0  0  0  0  0  0  0
    4.2114  -16.0448    7.7959 C   0  0  0  0  0  0  0  0  0  0  0  0
    5.4923   -9.1359   11.7937 N   0  0  0  0  0  0  0  0  0  0  0  0
    3.6923  -12.3157    9.4597 C   0  0  0  0  0  0  0  0  0  0  0  0
    2.8343  -11.4735    8.8662 O   0  0  0  0  0  0  0  0  0  0  0  0
    4.5764  -10.1237   10.5956 C   0  0  0  0  0  0  0  0  0  0  0  0
    5.4028  -18.0553    8.6013 C   0  0  0  0  0  0  0  0  0  0  0  0
    4.8561   -8.4975   10.4721 C   0  0  0  0  0  0  0  0  0  0  0  0
  3  2  2  0
  4  1  1  0
  9  5  1  0
  9  7  2  0
 11  4  1  0
 12  2  1  0
 12 10  1  0
 13  4  1  0
 14  1  1  0
 15  1  1  0
 15  6  1  0
 17  4  1  0
 19 14  1  0
 20  8  1  0
 20 12  2  0
 21  9  1  0
 22 10  1  0
 22 16  1  0
 22 18  1  0
 23 22  1  0
 24 16  1  0
 24 19  1  0
 25  3  1  0
 25  8  2  0
 26 21  1  0
 26 24  1  0
M  END
>  <ID>  (1) 
conformer_0

$$$$
