
     RDKit          3D

 19 19  0  0  0  0  0  0  0  0999 V2000
    3.3195   -7.6500   10.0794 C   0  0  0  0  0  0  0  0  0  0  0  0
    5.1137  -16.5461    9.9205 C   0  0  0  0  0  0  0  0  0  0  0  0
    5.4292  -17.7216    9.1415 C   0  0  0  0  0  0  0  0  0  0  0  0
    1.0626   -8.8171    8.2423 C   0  0  0  0  0  0  0  0  0  0  0  0
    2.0207   -7.8402    9.2842 C   0  0  0  0  0  0  0  0  0  0  0  0
    4.1294  -15.5195    9.1003 C   0  0  0  0  0  0  0  0  0  0  0  0
    1.6894   -6.1754    9.2346 O   0  0  0  0  0  0  0  0  0  0  0  0
    4.5989   -8.7708   10.5707 C   0  0  0  0  0  0  0  0  0  0  0  0
    7.2770   -8.5948   13.5387 C   0  0  0  0  0  0  0  0  0  0  0  0
    4.5365  -17.7727    8.0549 C   0  0  0  0  0  0  0  0  0  0  0  0
    3.9700   -6.2903   10.3454 O   0  0  0  0  0  0  0  0  0  0  0  0
    3.3435   -9.9423   10.0668 C   0  0  0  0  0  0  0  0  0  0  0  0
    6.3255   -7.9234   10.8900 O   0  0  0  0  0  0  0  0  0  0  0  0
    2.3967  -10.0892    9.4474 O   0  0  0  0  0  0  0  0  0  0  0  0
    3.8057  -12.7892    9.5107 C   0  0  0  0  0  0  0  0  0  0  0  0
    3.6007  -14.3048    9.0984 N   0  0  0  0  0  0  0  0  0  0  0  0
    6.1339   -8.7309   11.8058 C   0  0  0  0  0  0  0  0  0  0  0  0
    3.6753  -16.7035    8.1207 C   0  0  0  0  0  0  0  0  0  0  0  0
    3.9435  -12.9249    9.4746 O   0  0  0  0  0  0  0  0  0  0  0  0
  3  2  2  0
  5  1  1  0
  5  4  1  0
  6  2  1  0
  7  5  1  0
  8  1  1  0
 10  3  1  0
 11  1  1  0
 12  8  1  0
 14 12  2  0
 15 12  1  0
 16  6  1  0
 17  8  1  0
 17  9  1  0
 17 13  2  0
 18  6  1  0
 18 10  2  0
 19 15  1  0
 19 16  1  0
M  END
>  <ID>  (1) 
conformer_0

$$$$
