
     RDKit          3D

 24 25  0  0  0  0  0  0  0  0999 V2000
    3.9586   -9.3929   10.7297 C   0  0  0  0  0  0  0  0  0  0  0  0
    5.2249  -16.6307   10.2242 C   0  0  0  0  0  0  0  0  0  0  0  0
    5.5978  -17.8470    9.5278 C   0  0  0  0  0  0  0  0  0  0  0  0
    2.4472   -8.3517    9.6028 C   0  0  0  0  0  0  0  0  0  0  0  0
    1.0744   -7.7219    8.3795 C   0  0  0  0  0  0  0  0  0  0  0  0
    4.4579  -15.6401    9.1516 C   0  0  0  0  0  0  0  0  0  0  0  0
    2.9846   -7.2414    9.8848 C   0  0  0  0  0  0  0  0  0  0  0  0
    3.9779  -13.2512    9.3551 C   0  0  0  0  0  0  0  0  0  0  0  0
    6.7403   -7.9441   10.7698 O   0  0  0  0  0  0  0  0  0  0  0  0
    4.9001  -17.9465    8.3689 C   0  0  0  0  0  0  0  0  0  0  0  0
    1.7806   -6.2605    9.1387 O   0  0  0  0  0  0  0  0  0  0  0  0
    7.0127   -8.7847   13.4585 C   0  0  0  0  0  0  0  0  0  0  0  0
    4.6255   -8.0811   10.4772 C   0  0  0  0  0  0  0  0  0  0  0  0
    2.7923  -11.0055    9.3906 O   0  0  0  0  0  0  0  0  0  0  0  0
    3.6656  -14.6222    8.7160 N   0  0  0  0  0  0  0  0  0  0  0  0
    4.2214   -6.2295   10.0057 O   0  0  0  0  0  0  0  0  0  0  0  0
    5.4826  -13.5889    8.9956 O   0  0  0  0  0  0  0  0  0  0  0  0
    5.7757   -8.9796   11.7410 N   0  0  0  0  0  0  0  0  0  0  0  0
    4.0999  -16.8481    8.1215 C   0  0  0  0  0  0  0  0  0  0  0  0
    6.5685   -8.5959   11.8716 C   0  0  0  0  0  0  0  0  0  0  0  0
    1.4988   -9.4185    8.7612 O   0  0  0  0  0  0  0  0  0  0  0  0
    2.8411  -10.8271    9.3895 C   0  0  0  0  0  0  0  0  0  0  0  0
    0.8846   -9.4407    7.7703 C   0  0  0  0  0  0  0  0  0  0  0  0
    3.7225  -12.3565    9.1652 N   0  0  0  0  0  0  0  0  0  0  0  0
  3  2  2  0
  5  4  1  0
  6  2  1  0
  7  4  1  0
 10  3  1  0
 11  7  1  0
 13  1  1  0
 13  7  1  0
 15  6  1  0
 15  8  1  0
 16  7  1  0
 17  8  1  0
 19  6  1  0
 19 10  2  0
 20  9  1  0
 20 12  1  0
 20 13  1  0
 20 18  1  0
 21  4  1  0
 22  1  1  0
 22 14  1  0
 23  5  1  0
 23 21  1  0
 24  8  1  0
 24 14  1  0
M  END
>  <ID>  (1) 
conformer_0

$$$$
