
     RDKit          3D

 25 28  0  0  0  0  0  0  0  0999 V2000
    5.3679  -17.6271    9.2016 C   0  0  0  0  0  0  0  0  0  0  0  0
    3.4602   -7.4420    9.8802 C   0  0  0  0  0  0  0  0  0  0  0  0
    4.7982  -17.7316    7.9543 C   0  0  0  0  0  0  0  0  0  0  0  0
    7.5586   -9.4247   13.2926 C   0  0  0  0  0  0  0  0  0  0  0  0
    0.6844   -9.2256    7.8398 C   0  0  0  0  0  0  0  0  0  0  0  0
    4.0765  -15.6138    9.0917 C   0  0  0  0  0  0  0  0  0  0  0  0
    4.7955   -8.8504   10.7879 C   0  0  0  0  0  0  0  0  0  0  0  0
    1.7851   -7.7103    8.9718 C   0  0  0  0  0  0  0  0  0  0  0  0
    3.7101  -14.3803    9.5729 N   0  0  0  0  0  0  0  0  0  0  0  0
    7.1534   -8.1178   11.4244 O   0  0  0  0  0  0  0  0  0  0  0  0
    1.7067   -6.0526    9.1836 O   0  0  0  0  0  0  0  0  0  0  0  0
    3.7734  -10.6974   10.1565 C   0  0  0  0  0  0  0  0  0  0  0  0
    0.5153   -7.6241    7.7739 O   0  0  0  0  0  0  0  0  0  0  0  0
    4.7301  -16.7537   10.0302 C   0  0  0  0  0  0  0  0  0  0  0  0
    3.9779   -9.1554   10.1148 N   0  0  0  0  0  0  0  0  0  0  0  0
    3.1385  -12.4108    8.8450 O   0  0  0  0  0  0  0  0  0  0  0  0
    3.7231  -12.9861    9.5173 C   0  0  0  0  0  0  0  0  0  0  0  0
    3.9994   -6.2383    9.9409 O   0  0  0  0  0  0  0  0  0  0  0  0
    5.4097   -9.0395   11.3329 N   0  0  0  0  0  0  0  0  0  0  0  0
    3.6406  -11.6074   10.1407 N   0  0  0  0  0  0  0  0  0  0  0  0
    1.8831   -9.2003    8.2286 O   0  0  0  0  0  0  0  0  0  0  0  0
    3.9027  -16.6506    7.8972 C   0  0  0  0  0  0  0  0  0  0  0  0
    6.5680   -8.7876   12.0957 C   0  0  0  0  0  0  0  0  0  0  0  0
    2.5847   -9.2959    9.6105 C   0  0  0  0  0  0  0  0  0  0  0  0
    6.0310   -8.8040   13.4366 C   0  0  0  0  0  0  0  0  0  0  0  0
  3  1  2  0
  8  2  1  0
  9  6  1  0
 11  8  1  0
 13  5  1  0
 13  8  1  0
 14  1  1  0
 14  6  1  0
 15  7  1  0
 15 12  1  0
 17  9  1  0
 17 16  2  0
 18  2  1  0
 19  7  1  0
 20 12  1  0
 20 17  1  0
 21  5  1  0
 22  3  1  0
 22  6  2  0
 23  4  1  0
 23 10  1  0
 23 19  1  0
 24  8  1  0
 24 12  1  0
 24 15  1  0
 24 21  1  0
 25  4  1  0
 25 23  1  0
M  END
>  <ID>  (1) 
conformer_0

$$$$
