
     RDKit          3D

 20 20  0  0  0  0  0  0  0  0999 V2000
    5.4674  -17.5464    9.4089 C   0  0  0  0  0  0  0  0  0  0  0  0
    3.3242   -8.0351   10.1811 C   0  0  0  0  0  0  0  0  0  0  0  0
    5.4378  -16.2056   10.0216 C   0  0  0  0  0  0  0  0  0  0  0  0
    1.3747   -8.9189    8.3628 C   0  0  0  0  0  0  0  0  0  0  0  0
    6.7797   -8.5135   13.6859 C   0  0  0  0  0  0  0  0  0  0  0  0
    4.4081  -15.1929    9.0291 C   0  0  0  0  0  0  0  0  0  0  0  0
    6.2119   -7.7835   11.2788 O   0  0  0  0  0  0  0  0  0  0  0  0
    2.1921   -7.7984    9.2104 C   0  0  0  0  0  0  0  0  0  0  0  0
    1.6847   -6.3105    9.0746 O   0  0  0  0  0  0  0  0  0  0  0  0
    3.6588   -9.7536    9.9611 C   0  0  0  0  0  0  0  0  0  0  0  0
    4.7585  -17.5267    8.2906 C   0  0  0  0  0  0  0  0  0  0  0  0
    3.6790  -13.6021    9.5953 O   0  0  0  0  0  0  0  0  0  0  0  0
    2.6712  -10.8455    9.2179 O   0  0  0  0  0  0  0  0  0  0  0  0
    4.7229   -9.2823   11.5761 N   0  0  0  0  0  0  0  0  0  0  0  0
    3.7986   -6.2626   10.1822 O   0  0  0  0  0  0  0  0  0  0  0  0
    3.7772  -12.8064    9.1445 C   0  0  0  0  0  0  0  0  0  0  0  0
    0.9010   -8.3072    7.8500 O   0  0  0  0  0  0  0  0  0  0  0  0
    5.6181   -8.6721   11.6822 C   0  0  0  0  0  0  0  0  0  0  0  0
    4.1712  -16.3934    7.9709 C   0  0  0  0  0  0  0  0  0  0  0  0
    4.3330  -16.3250    6.3154 C   0  0  0  0  0  0  0  0  0  0  0  0
  3  1  2  0
  6  3  1  0
  8  2  1  0
  8  4  1  0
  9  8  1  0
 10  2  1  0
 11  1  1  0
 12  6  1  0
 13 10  1  0
 14 10  1  0
 15  2  1  0
 16 12  1  0
 16 13  1  0
 17  4  1  0
 18  5  1  0
 18  7  2  0
 18 14  1  0
 19  6  2  0
 19 11  1  0
 20 19  1  0
M  END
>  <ID>  (1) 
conformer_0

$$$$
