
     RDKit          3D

 21 21  0  0  0  0  0  0  0  0999 V2000
    4.6437  -17.7469    8.2398 C   0  0  0  0  0  0  0  0  0  0  0  0
    3.0942   -7.4663   10.0101 C   0  0  0  0  0  0  0  0  0  0  0  0
    5.3087  -16.5401   10.0000 C   0  0  0  0  0  0  0  0  0  0  0  0
    2.0486   -7.8957    9.1562 C   0  0  0  0  0  0  0  0  0  0  0  0
    0.7872   -8.6471    8.0751 C   0  0  0  0  0  0  0  0  0  0  0  0
    4.5121   -8.7878   10.4989 C   0  0  0  0  0  0  0  0  0  0  0  0
    3.8575  -16.6010    8.3049 C   0  0  0  0  0  0  0  0  0  0  0  0
    7.3965   -8.1926   11.8666 O   0  0  0  0  0  0  0  0  0  0  0  0
    1.8396   -6.0682    9.3544 O   0  0  0  0  0  0  0  0  0  0  0  0
    0.7776   -7.6497    8.1020 O   0  0  0  0  0  0  0  0  0  0  0  0
    5.3843   -9.3268   11.2623 N   0  0  0  0  0  0  0  0  0  0  0  0
    4.3927  -15.5325    9.2652 C   0  0  0  0  0  0  0  0  0  0  0  0
    4.0800   -6.3037   10.2937 O   0  0  0  0  0  0  0  0  0  0  0  0
    3.1588   -9.7078    9.5665 C   0  0  0  0  0  0  0  0  0  0  0  0
    3.9723  -13.0135    8.7304 O   0  0  0  0  0  0  0  0  0  0  0  0
    3.8940  -12.6557    9.4710 C   0  0  0  0  0  0  0  0  0  0  0  0
    3.9985  -14.0933    9.7089 N   0  0  0  0  0  0  0  0  0  0  0  0
    5.5482  -17.7675    9.2926 C   0  0  0  0  0  0  0  0  0  0  0  0
    2.7798  -10.3704    8.9408 O   0  0  0  0  0  0  0  0  0  0  0  0
    6.5654   -8.7475   12.0003 C   0  0  0  0  0  0  0  0  0  0  0  0
    3.9266  -11.1707   10.3325 N   0  0  0  0  0  0  0  0  0  0  0  0
  4  2  1  0
  6  2  1  0
  7  1  2  0
  9  4  1  0
 10  4  1  0
 10  5  1  0
 11  6  1  0
 12  3  2  0
 12  7  1  0
 13  2  1  0
 14  6  1  0
 16 15  2  0
 17 12  1  0
 17 16  1  0
 18  1  1  0
 18  3  1  0
 19 14  1  0
 20  8  2  0
 20 11  1  0
 21 14  1  0
 21 16  1  0
M  END
>  <ID>  (1) 
conformer_0

$$$$
