
     RDKit          3D

 24 24  0  0  0  0  0  0  0  0999 V2000
    4.8130  -17.5794    7.9134 C   0  0  0  0  0  0  0  0  0  0  0  0
    3.3230   -7.4592   10.0004 C   0  0  0  0  0  0  0  0  0  0  0  0
    5.4297  -17.0836   10.1075 C   0  0  0  0  0  0  0  0  0  0  0  0
    6.7762   -8.8219   13.5332 C   0  0  0  0  0  0  0  0  0  0  0  0
    0.8796   -8.8245    7.9347 C   0  0  0  0  0  0  0  0  0  0  0  0
    4.1286  -15.4768    8.9433 C   0  0  0  0  0  0  0  0  0  0  0  0
    2.1072   -7.5420    9.3122 C   0  0  0  0  0  0  0  0  0  0  0  0
    6.6317   -7.7775   11.3117 O   0  0  0  0  0  0  0  0  0  0  0  0
    4.5755  -16.0433   10.2009 C   0  0  0  0  0  0  0  0  0  0  0  0
    4.5148   -8.4040   10.2554 C   0  0  0  0  0  0  0  0  0  0  0  0
    4.1246   -6.2326   10.4472 O   0  0  0  0  0  0  0  0  0  0  0  0
    2.4947   -9.4922    8.9444 C   0  0  0  0  0  0  0  0  0  0  0  0
    3.0011  -11.4010    9.1483 O   0  0  0  0  0  0  0  0  0  0  0  0
    0.7349   -7.6966    8.1828 O   0  0  0  0  0  0  0  0  0  0  0  0
    3.7444  -14.2186    9.1090 N   0  0  0  0  0  0  0  0  0  0  0  0
    4.0043  -12.9119    9.0949 C   0  0  0  0  0  0  0  0  0  0  0  0
    1.9593   -6.0960    9.3513 O   0  0  0  0  0  0  0  0  0  0  0  0
    4.6374  -12.7448    8.6067 O   0  0  0  0  0  0  0  0  0  0  0  0
    5.2958   -9.3191   11.3728 N   0  0  0  0  0  0  0  0  0  0  0  0
    3.9991  -16.3386    7.8451 C   0  0  0  0  0  0  0  0  0  0  0  0
    6.3291   -8.7968   11.8302 C   0  0  0  0  0  0  0  0  0  0  0  0
    2.3779   -9.5058    9.9275 O   0  0  0  0  0  0  0  0  0  0  0  0
    4.0509  -10.2339   10.0699 C   0  0  0  0  0  0  0  0  0  0  0  0
    5.3710  -17.8999    9.0348 C   0  0  0  0  0  0  0  0  0  0  0  0
  7  2  1  0
  9  3  1  0
  9  6  2  0
 10  2  1  0
 11  2  1  0
 14  5  1  0
 14  7  1  0
 15  6  1  0
 16 13  1  0
 16 15  1  0
 17  7  1  0
 18 16  2  0
 19 10  1  0
 20  1  2  0
 20  6  1  0
 21  4  1  0
 21  8  2  0
 21 19  1  0
 22 12  1  0
 23 10  1  0
 23 13  1  0
 23 22  1  0
 24  1  1  0
 24  3  2  0
M  END
>  <ID>  (1) 
conformer_0

$$$$
