
     RDKit          3D

 24 24  0  0  0  0  0  0  0  0999 V2000
    0.9864   -8.4394    8.2526 C   0  0  0  0  0  0  0  0  0  0  0  0
    4.2270  -17.4107    7.9058 C   0  0  0  0  0  0  0  0  0  0  0  0
    5.4687  -16.4634   10.0073 C   0  0  0  0  0  0  0  0  0  0  0  0
    3.3827   -7.6635   10.1409 C   0  0  0  0  0  0  0  0  0  0  0  0
    2.1638   -7.4726    9.4690 C   0  0  0  0  0  0  0  0  0  0  0  0
    4.6564   -8.4987   10.4208 C   0  0  0  0  0  0  0  0  0  0  0  0
    3.8319  -16.4000    8.5416 C   0  0  0  0  0  0  0  0  0  0  0  0
    6.8027   -9.1255   13.4104 C   0  0  0  0  0  0  0  0  0  0  0  0
    6.7886   -8.2976   11.3723 O   0  0  0  0  0  0  0  0  0  0  0  0
    1.6424   -6.0547    9.3048 O   0  0  0  0  0  0  0  0  0  0  0  0
    4.2223   -6.3238   10.4272 O   0  0  0  0  0  0  0  0  0  0  0  0
    2.4538   -9.6417    9.2881 C   0  0  0  0  0  0  0  0  0  0  0  0
    2.2109   -9.7543    9.5431 O   0  0  0  0  0  0  0  0  0  0  0  0
    4.0567  -14.0424    9.7520 N   0  0  0  0  0  0  0  0  0  0  0  0
    3.9129  -12.7880    9.3272 C   0  0  0  0  0  0  0  0  0  0  0  0
    4.4595  -15.5131    9.3684 C   0  0  0  0  0  0  0  0  0  0  0  0
    1.0373   -7.6754    7.8571 O   0  0  0  0  0  0  0  0  0  0  0  0
    5.9313  -17.6378    9.5163 C   0  0  0  0  0  0  0  0  0  0  0  0
    6.2969   -8.7971   11.7274 C   0  0  0  0  0  0  0  0  0  0  0  0
    5.2439  -12.6971    8.7561 O   0  0  0  0  0  0  0  0  0  0  0  0
    4.4673  -10.2765   10.9816 N   0  0  0  0  0  0  0  0  0  0  0  0
    2.6509  -11.5869    9.3220 O   0  0  0  0  0  0  0  0  0  0  0  0
    4.0062  -10.4174   10.2997 C   0  0  0  0  0  0  0  0  0  0  0  0
    5.3294  -18.1186    8.2931 C   0  0  0  0  0  0  0  0  0  0  0  0
  5  1  1  0
  5  4  1  0
  6  4  1  0
  7  2  2  0
 10  5  1  0
 11  4  1  0
 13 12  1  0
 15 14  1  0
 16  3  2  0
 16  7  1  0
 16 14  1  0
 17  1  1  0
 18  3  1  0
 19  6  1  0
 19  8  1  0
 19  9  2  0
 20 15  2  0
 21  6  1  0
 22 12  1  0
 22 15  1  0
 23 12  1  0
 23 21  1  0
 24  2  1  0
 24 18  2  0
M  END
>  <ID>  (1) 
conformer_0

$$$$
