
     RDKit          3D

 22 22  0  0  0  0  0  0  0  0999 V2000
    2.0097   -7.6861    9.1446 C   0  0  0  0  0  0  0  0  0  0  0  0
    5.4468  -17.5168    9.6692 C   0  0  0  0  0  0  0  0  0  0  0  0
    5.0490  -16.2256    9.9201 C   0  0  0  0  0  0  0  0  0  0  0  0
    1.0236   -8.8129    8.1994 C   0  0  0  0  0  0  0  0  0  0  0  0
    2.8099  -10.0820    9.8325 C   0  0  2  0  0  0  0  0  0  0  0  0
    6.5454   -7.8891   11.2733 O   0  0  0  0  0  0  0  0  0  0  0  0
    3.2539   -7.4607   10.0672 C   0  0  0  0  0  0  0  0  0  0  0  0
    4.2208  -17.4427    7.7757 C   0  0  0  0  0  0  0  0  0  0  0  0
    4.3177  -15.4800    9.1047 C   0  0  0  0  0  0  0  0  0  0  0  0
    1.7215   -6.1193    9.2642 O   0  0  0  0  0  0  0  0  0  0  0  0
    3.7796  -14.1353    9.4500 N   0  0  0  0  0  0  0  0  0  0  0  0
    6.9606   -8.7984   13.6977 C   0  0  0  0  0  0  0  0  0  0  0  0
    6.6963   -8.7421   11.9980 C   0  0  1  0  0  0  0  0  0  0  0  0
    3.8483  -12.5480    9.5025 C   0  0  0  0  0  0  0  0  0  0  0  0
    2.7286  -10.0391    9.0110 O   0  0  0  0  0  0  0  0  0  0  0  0
    4.7283  -12.4808    8.9392 O   0  0  0  0  0  0  0  0  0  0  0  0
    0.6292   -7.7533    7.9552 O   0  0  0  0  0  0  0  0  0  0  0  0
    5.3039   -8.9479   11.7385 N   0  0  0  0  0  0  0  0  0  0  0  0
    3.7561   -6.2721   10.5318 O   0  0  0  0  0  0  0  0  0  0  0  0
    5.2004  -17.9972    8.4604 C   0  0  0  0  0  0  0  0  0  0  0  0
    3.9300  -16.0670    7.9042 C   0  0  0  0  0  0  0  0  0  0  0  0
    4.1474   -8.6505   10.7006 C   0  0  1  0  0  0  0  0  0  0  0  0
  3  2  2  0
  4  1  1  0
  7  1  2  3
  9  3  1  0
 10  1  1  0
 11  9  1  0
 13  6  1  0
 13 12  1  1
 14  5  1  0
 14 11  1  0
  5 15  1  6
 16 14  2  0
 17  4  1  0
 18 13  1  0
 19  7  1  0
 20  2  1  0
 20  8  2  0
 21  8  1  0
 21  9  2  0
 22  5  1  0
 22  7  1  0
 22 18  1  1
M  END
>  <ID>  (1) 
conformer_0

$$$$
