
     RDKit          3D

 22 22  0  0  0  0  0  0  0  0999 V2000
    3.0522   -9.7683    9.7655 C   0  0  0  0  0  0  0  0  0  0  0  0
    5.4898  -16.2509    9.7608 C   0  0  0  0  0  0  0  0  0  0  0  0
    1.1744   -8.7432    7.9820 C   0  0  0  0  0  0  0  0  0  0  0  0
    4.6323  -17.6583    8.2365 C   0  0  0  0  0  0  0  0  0  0  0  0
    7.2245   -9.1699   13.4523 C   0  0  0  0  0  0  0  0  0  0  0  0
    6.5685   -8.1384   11.1286 O   0  0  0  0  0  0  0  0  0  0  0  0
    1.8959   -7.8413    9.1232 C   0  0  0  0  0  0  0  0  0  0  0  0
    3.1168   -7.3935   10.0245 C   0  0  0  0  0  0  0  0  0  0  0  0
    4.5611  -15.2977    9.1335 C   0  0  0  0  0  0  0  0  0  0  0  0
    3.7891  -14.1841    9.2724 N   0  0  0  0  0  0  0  0  0  0  0  0
    1.5915   -6.1774    9.1493 O   0  0  0  0  0  0  0  0  0  0  0  0
    4.0117   -6.2312   10.5518 O   0  0  0  0  0  0  0  0  0  0  0  0
    3.8141  -16.5283    8.3460 C   0  0  0  0  0  0  0  0  0  0  0  0
    4.2469   -8.5161   10.6187 C   0  0  0  0  0  0  0  0  0  0  0  0
    2.7833  -10.5184    8.9662 O   0  0  0  0  0  0  0  0  0  0  0  0
    5.2442   -9.2716   11.8711 N   0  0  0  0  0  0  0  0  0  0  0  0
    3.9910  -12.4182    9.5032 C   0  0  0  0  0  0  0  0  0  0  0  0
    5.2692  -13.0211    8.9834 O   0  0  0  0  0  0  0  0  0  0  0  0
    0.3818   -7.8470    7.6805 O   0  0  0  0  0  0  0  0  0  0  0  0
    5.6399  -17.5534    9.1574 C   0  0  0  0  0  0  0  0  0  0  0  0
    6.3235   -8.9615   11.9714 C   0  0  0  0  0  0  0  0  0  0  0  0
    3.9009  -11.6822    9.9730 N   0  0  0  0  0  0  0  0  0  0  0  0
  7  3  1  0
  8  7  1  0
  9  2  2  0
 10  9  1  0
 11  7  1  0
 12  8  1  0
 13  4  2  0
 13  9  1  0
 14  1  1  0
 14  8  1  0
 15  1  1  0
 16 14  1  0
 17 10  1  0
 18 17  2  0
 19  3  1  0
 20  2  1  0
 20  4  1  0
 21  5  1  0
 21  6  2  0
 21 16  1  0
 22 15  1  0
 22 17  1  0
M  END
>  <ID>  (1) 
conformer_0

$$$$
