
     RDKit          3D

 23 23  0  0  0  0  0  0  0  0999 V2000
    5.3906  -17.4604    9.3989 C   0  0  0  0  0  0  0  0  0  0  0  0
    3.4259   -7.1240    9.7957 C   0  0  0  0  0  0  0  0  0  0  0  0
    5.3691  -16.1651    9.9233 C   0  0  0  0  0  0  0  0  0  0  0  0
    0.7360   -9.1621    8.2318 C   0  0  0  0  0  0  0  0  0  0  0  0
    4.3141  -15.2724    9.0218 C   0  0  0  0  0  0  0  0  0  0  0  0
    1.6529   -7.8513    8.8365 C   0  0  0  0  0  0  0  0  0  0  0  0
    6.8981   -8.9102   13.3198 C   0  0  0  0  0  0  0  0  0  0  0  0
    6.7914   -8.5462   10.8389 O   0  0  0  0  0  0  0  0  0  0  0  0
    2.7740   -8.4527   10.0270 C   0  0  0  0  0  0  0  0  0  0  0  0
    3.8277  -12.9149    9.4070 C   0  0  0  0  0  0  0  0  0  0  0  0
    4.5425  -17.5692    8.3103 C   0  0  0  0  0  0  0  0  0  0  0  0
    1.2014   -7.7003    7.9401 O   0  0  0  0  0  0  0  0  0  0  0  0
    4.5469   -6.3026   10.2446 O   0  0  0  0  0  0  0  0  0  0  0  0
    5.0366   -9.8204   11.4165 N   0  0  0  0  0  0  0  0  0  0  0  0
    3.6566  -13.1281    8.2775 O   0  0  0  0  0  0  0  0  0  0  0  0
    4.3302  -13.4028    9.8246 N   0  0  0  0  0  0  0  0  0  0  0  0
    2.5160   -9.7483    9.3900 O   0  0  0  0  0  0  0  0  0  0  0  0
    3.6915  -10.7874   10.5894 N   0  0  0  0  0  0  0  0  0  0  0  0
    4.7106   -8.3490   10.6325 C   0  0  0  0  0  0  0  0  0  0  0  0
    3.7459  -16.3980    8.0646 C   0  0  0  0  0  0  0  0  0  0  0  0
    2.5354   -6.2179    9.3120 O   0  0  0  0  0  0  0  0  0  0  0  0
    6.4971   -9.0234   11.9254 C   0  0  0  0  0  0  0  0  0  0  0  0
    3.9089  -10.3885   10.5686 C   0  0  0  0  0  0  0  0  0  0  0  0
  3  1  2  0
  5  3  1  0
  9  2  1  0
  9  6  1  0
 10  5  1  0
 11  1  1  0
 12  4  1  0
 12  6  1  0
 13  2  1  0
 15 10  1  0
 16 10  1  0
 17  9  1  0
 18 10  1  0
 19  2  1  0
 19 14  1  0
 20  5  2  0
 20 11  1  0
 21  2  1  0
 22  7  1  0
 22  8  2  0
 23 14  1  0
 23 18  1  0
 23 22  1  0
M  END
>  <ID>  (1) 
conformer_0

$$$$
