
     RDKit          3D

 23 23  0  0  0  0  0  0  0  0999 V2000
    4.6092  -17.6661    7.8973 C   0  0  0  0  0  0  0  0  0  0  0  0
    2.4068   -7.6627    9.4422 C   0  0  0  0  0  0  0  0  0  0  0  0
    5.4078  -17.7797    9.0337 C   0  0  0  0  0  0  0  0  0  0  0  0
    0.8654   -7.9826    8.2188 C   0  0  0  0  0  0  0  0  0  0  0  0
    4.5714   -8.6915   10.7786 C   0  0  1  0  0  0  0  0  0  0  0  0
    6.8072   -7.9777   11.1604 O   0  0  0  0  0  0  0  0  0  0  0  0
    6.5954   -8.9072   12.0133 C   0  0  0  0  0  0  0  0  0  0  0  0
    7.3237   -9.0609   13.2710 C   0  0  0  0  0  0  0  0  0  0  0  0
    5.1287  -16.8001    9.9454 C   0  0  0  0  0  0  0  0  0  0  0  0
    1.6730   -6.2461    8.9729 O   0  0  0  0  0  0  0  0  0  0  0  0
    4.3002  -15.6876    9.2171 C   0  0  0  0  0  0  0  0  0  0  0  0
    4.0609   -6.3710   10.1123 O   0  0  0  0  0  0  0  0  0  0  0  0
    3.6620  -14.1523    9.7714 N   0  0  0  0  0  0  0  0  0  0  0  0
    4.0173  -13.2196    9.2396 C   0  0  0  0  0  0  0  0  0  0  0  0
    2.6584  -10.9610    8.8710 O   0  0  0  0  0  0  0  0  0  0  0  0
    4.0213  -10.1310   10.5561 N   0  0  0  0  0  0  0  0  0  0  0  0
    4.6481  -13.2048    8.8073 O   0  0  0  0  0  0  0  0  0  0  0  0
    0.3298   -7.8604    7.8088 O   0  0  0  0  0  0  0  0  0  0  0  0
    3.2862   -7.7592    9.9948 C   0  0  0  0  0  0  0  0  0  0  0  0
    3.9520  -16.4331    7.9412 C   0  0  0  0  0  0  0  0  0  0  0  0
    5.2927   -9.0769   11.7702 N   0  0  0  0  0  0  0  0  0  0  0  0
    1.7852   -9.3763    8.5634 C   0  0  0  0  0  0  0  0  0  0  0  0
    3.2386  -10.4291    9.7250 C   0  0  2  0  0  0  0  0  0  0  0  0
  3  1  2  0
  7  6  2  0
  8  7  1  0
  9  3  1  0
 10  2  1  0
 11  9  2  0
 13 11  1  0
 14 13  1  0
  5 16  1  1
 17 14  2  0
 18  4  2  0
 19  2  2  3
 19  5  1  0
 19 12  1  0
 20  1  1  0
 20 11  1  0
 21  5  1  0
 21  7  1  0
 22  4  1  0
 22 15  1  0
 23 14  1  0
 23 15  1  0
 23 16  1  6
M  END
>  <ID>  (1) 
conformer_0

$$$$
