
     RDKit          3D

 24 24  0  0  0  0  0  0  0  0999 V2000
    5.1343  -18.0979    8.3456 C   0  0  0  0  0  0  0  0  0  0  0  0
    4.1138  -17.5556    7.7542 C   0  0  0  0  0  0  0  0  0  0  0  0
    3.0354   -8.4784    9.6757 C   0  0  0  0  0  0  0  0  0  0  0  0
    3.3887   -7.2441   10.1271 C   0  0  0  0  0  0  0  0  0  0  0  0
    4.8680   -8.4970   10.7778 C   0  0  0  0  0  0  0  0  0  0  0  0
    6.3172   -7.8590   10.6987 O   0  0  0  0  0  0  0  0  0  0  0  0
    6.3389   -9.0396   12.2249 C   0  0  0  0  0  0  0  0  0  0  0  0
    3.7688  -16.1795    7.8801 C   0  0  0  0  0  0  0  0  0  0  0  0
    1.6668   -6.2942    9.1259 O   0  0  0  0  0  0  0  0  0  0  0  0
    7.1606   -8.8972   13.4902 C   0  0  0  0  0  0  0  0  0  0  0  0
    4.3445  -15.4684    8.9613 C   0  0  0  0  0  0  0  0  0  0  0  0
    4.1130   -6.1593   10.3663 O   0  0  0  0  0  0  0  0  0  0  0  0
    2.7081  -10.7184    9.1303 C   0  0  0  0  0  0  0  0  0  0  0  0
    4.1787   -9.7165   10.2081 N   0  0  0  0  0  0  0  0  0  0  0  0
    0.4402   -7.9200    7.7926 O   0  0  0  0  0  0  0  0  0  0  0  0
    3.7403  -13.0619    9.3484 C   0  0  0  0  0  0  0  0  0  0  0  0
    4.4382  -13.5624    8.8112 O   0  0  0  0  0  0  0  0  0  0  0  0
    2.6052  -11.3833    8.7706 O   0  0  0  0  0  0  0  0  0  0  0  0
    5.5119   -9.0016   12.0657 N   0  0  0  0  0  0  0  0  0  0  0  0
    5.4766  -17.5345    9.5552 C   0  0  0  0  0  0  0  0  0  0  0  0
    3.5873  -14.1491    9.5887 N   0  0  0  0  0  0  0  0  0  0  0  0
    1.6031   -7.8984    8.6613 C   0  0  0  0  0  0  0  0  0  0  0  0
    1.3202   -9.5223    7.9955 C   0  0  0  0  0  0  0  0  0  0  0  0
    5.1437  -16.2107    9.8022 C   0  0  0  0  0  0  0  0  0  0  0  0
  2  1  1  0
  4  3  1  0
  6  5  1  0
  8  2  1  0
 10  7  1  0
 11  8  1  0
 12  4  1  0
 14  3  1  0
 14  5  1  0
 14 13  1  0
 17 16  1  0
 18 13  1  0
 18 16  1  0
 19  5  1  0
 19  7  1  0
 20  1  1  0
 21 17  1  0
 22  3  1  0
 22  9  1  0
 22 15  1  0
 23 15  1  0
 23 22  1  0
 24 16  1  0
 24 20  1  0
M  END
>  <ID>  (1) 
conformer_0

$$$$
