
     RDKit          3D

 24 25  0  0  0  0  0  0  0  0999 V2000
    5.2714  -17.4780    9.6689 C   0  0  0  0  0  0  0  0  0  0  0  0
    0.6971   -8.9287    8.1812 C   0  0  0  0  0  0  0  0  0  0  0  0
    3.1405   -7.2875   10.0316 C   0  0  0  0  0  0  0  0  0  0  0  0
    3.9738  -17.4387    7.7576 C   0  0  0  0  0  0  0  0  0  0  0  0
    1.5988   -7.7511    8.9246 C   0  0  0  0  0  0  0  0  0  0  0  0
    7.2856   -9.1367   13.4294 C   0  0  0  0  0  0  0  0  0  0  0  0
    4.0882  -15.4222    9.1347 C   0  0  0  0  0  0  0  0  0  0  0  0
    5.0267  -10.1324   10.1753 C   0  0  0  0  0  0  0  0  0  0  0  0
    6.4674   -8.2238   11.3201 O   0  0  0  0  0  0  0  0  0  0  0  0
    3.7752  -14.0875    9.5417 N   0  0  0  0  0  0  0  0  0  0  0  0
    2.7034   -9.0698    9.6903 C   0  0  0  0  0  0  0  0  0  0  0  0
    4.3823   -6.2247   10.0056 O   0  0  0  0  0  0  0  0  0  0  0  0
    5.0989  -12.6439    8.8041 O   0  0  0  0  0  0  0  0  0  0  0  0
    4.7466  -16.2055   10.0266 C   0  0  0  0  0  0  0  0  0  0  0  0
    4.4320  -12.6823    9.6501 C   0  0  0  0  0  0  0  0  0  0  0  0
    2.6822   -9.8321    9.0568 O   0  0  0  0  0  0  0  0  0  0  0  0
    1.3288   -7.9542    7.6973 O   0  0  0  0  0  0  0  0  0  0  0  0
    2.1899   -6.2524    9.2487 O   0  0  0  0  0  0  0  0  0  0  0  0
    3.5523  -16.1216    8.0481 C   0  0  0  0  0  0  0  0  0  0  0  0
    6.5288   -8.9815   11.9872 C   0  0  0  0  0  0  0  0  0  0  0  0
    5.4138  -10.0778   11.3203 N   0  0  0  0  0  0  0  0  0  0  0  0
    4.5046  -10.8221   10.3314 N   0  0  0  0  0  0  0  0  0  0  0  0
    4.5704   -8.2741   10.3982 C   0  0  0  0  0  0  0  0  0  0  0  0
    5.0257  -17.9131    8.3856 C   0  0  0  0  0  0  0  0  0  0  0  0
  5  2  1  0
 10  7  1  0
 11  3  1  0
 11  5  1  0
 12  3  1  0
 14  1  2  0
 14  7  1  0
 15 10  1  0
 15 13  2  0
 16 11  1  0
 17  2  1  0
 17  5  1  0
 18  3  1  0
 19  4  1  0
 19  7  2  0
 20  6  1  0
 20  9  1  0
 21  8  1  0
 22  8  1  0
 22 15  1  0
 23  3  1  0
 23  8  1  0
 23  9  1  0
 24  1  1  0
 24  4  2  0
M  END
>  <ID>  (1) 
conformer_0

$$$$
