
     RDKit          3D

 19 19  0  0  0  0  0  0  0  0999 V2000
    5.5452  -17.5956    9.3083 C   0  0  0  0  0  0  0  0  0  0  0  0
    1.6452   -8.7013    8.4396 C   0  0  0  0  0  0  0  0  0  0  0  0
    4.9198  -16.4783    9.9726 C   0  0  0  0  0  0  0  0  0  0  0  0
    2.7986   -7.7956    9.5643 C   0  0  0  0  0  0  0  0  0  0  0  0
    3.1135  -10.0916    9.5289 C   0  0  0  0  0  0  0  0  0  0  0  0
    3.9518  -13.3279    9.5132 C   0  0  0  0  0  0  0  0  0  0  0  0
    6.7794   -8.1658   11.1630 O   0  0  0  0  0  0  0  0  0  0  0  0
    6.5021   -8.9265   11.8703 C   0  0  2  0  0  0  0  0  0  0  0  0
    3.8995  -15.7748    9.0395 C   0  0  0  0  0  0  0  0  0  0  0  0
    3.9240  -16.7738    7.7998 C   0  0  0  0  0  0  0  0  0  0  0  0
    4.0452   -6.4643   10.4986 O   0  0  0  0  0  0  0  0  0  0  0  0
    2.9749  -11.2719    9.4633 O   0  0  0  0  0  0  0  0  0  0  0  0
    0.9865   -7.8370    8.2301 O   0  0  0  0  0  0  0  0  0  0  0  0
    7.5262   -9.4698   13.3382 C   0  0  0  0  0  0  0  0  0  0  0  0
    4.0311   -8.5350   10.1532 C   0  0  0  0  0  0  0  0  0  0  0  0
    2.1257   -6.1542    9.4391 O   0  0  0  0  0  0  0  0  0  0  0  0
    3.6656  -13.9683    9.6001 N   0  0  0  0  0  0  0  0  0  0  0  0
    5.2488   -8.9741   11.5944 N   0  0  0  0  0  0  0  0  0  0  0  0
    4.8876  -17.7963    7.9743 C   0  0  0  0  0  0  0  0  0  0  0  0
  3  1  2  0
  4  2  1  0
  8  7  1  0
  9  3  1  0
 10  9  2  0
 11  4  1  0
 12  5  1  0
 12  6  1  0
 13  2  1  0
  8 14  1  1
 15  4  1  0
 15  5  2  3
 15  8  1  0
 16  4  1  0
 17  6  1  0
 17  9  1  0
 18  8  1  0
 19  1  1  0
 19 10  1  0
M  END
>  <ID>  (1) 
conformer_0

$$$$
