
     RDKit          3D

 24 24  0  0  0  0  0  0  0  0999 V2000
    1.7943   -7.8011    8.8596 C   0  0  0  0  0  0  0  0  0  0  0  0
    4.7027  -16.5977   10.2970 C   0  0  0  0  0  0  0  0  0  0  0  0
    4.9197  -18.1603    8.5688 C   0  0  0  0  0  0  0  0  0  0  0  0
    1.2062   -9.2126    7.9936 C   0  0  0  0  0  0  0  0  0  0  0  0
    4.3641   -7.8198   10.4523 C   0  0  0  0  0  0  0  0  0  0  0  0
    6.2031   -7.8907   10.6806 O   0  0  0  0  0  0  0  0  0  0  0  0
    4.3829  -17.2229    7.7427 C   0  0  0  0  0  0  0  0  0  0  0  0
    3.0235   -7.1125    9.8521 C   0  0  0  0  0  0  0  0  0  0  0  0
    4.4161  -15.4912    9.4074 C   0  0  0  0  0  0  0  0  0  0  0  0
    3.2353   -9.1187    9.7695 C   0  0  0  0  0  0  0  0  0  0  0  0
    4.0653  -14.2453    9.6973 N   0  0  0  0  0  0  0  0  0  0  0  0
    4.2505   -6.0430   10.4753 O   0  0  0  0  0  0  0  0  0  0  0  0
    7.0748   -8.9832   13.2632 C   0  0  0  0  0  0  0  0  0  0  0  0
    2.9164   -9.9449    9.2152 O   0  0  0  0  0  0  0  0  0  0  0  0
    4.1569  -10.5014   10.6151 C   0  0  0  0  0  0  0  0  0  0  0  0
    2.1002   -6.0739    9.3244 O   0  0  0  0  0  0  0  0  0  0  0  0
    5.0509  -12.6135    8.8893 O   0  0  0  0  0  0  0  0  0  0  0  0
    0.7199   -8.0888    8.2028 O   0  0  0  0  0  0  0  0  0  0  0  0
    4.2922  -11.5355   10.5239 N   0  0  0  0  0  0  0  0  0  0  0  0
    4.1316  -15.9278    8.0769 C   0  0  0  0  0  0  0  0  0  0  0  0
    5.8042  -13.3275   10.5121 S   0  0  0  0  0  0  0  0  0  0  0  0
    4.1892  -12.6630    9.7526 C   0  0  0  0  0  0  0  0  0  0  0  0
    5.8718   -8.7608   11.6133 C   0  0  0  0  0  0  0  0  0  0  0  0
    5.2267  -17.7138    9.8037 C   0  0  0  0  0  0  0  0  0  0  0  0
  6  5  1  0
  7  3  1  0
  8  1  1  0
  8  5  1  0
  9  2  2  0
 10  5  1  0
 11  9  1  0
 12  8  1  0
 14 10  1  0
 15 10  1  0
 16  8  1  0
 18  1  1  0
 18  4  1  0
 19 15  1  0
 20  7  2  0
 20  9  1  0
 22 11  1  0
 22 17  1  0
 22 19  1  0
 22 21  1  0
 23  6  1  0
 23 13  1  0
 24  2  1  0
 24  3  2  0
M  END
>  <ID>  (1) 
conformer_0

$$$$
