
     RDKit          3D

 21 21  0  0  0  0  0  0  0  0999 V2000
    4.6275  -17.6834    8.1065 C   0  0  0  0  0  0  0  0  0  0  0  0
    2.0070   -7.9251    9.0461 C   0  0  0  0  0  0  0  0  0  0  0  0
    5.2069  -16.5232    9.9991 C   0  0  0  0  0  0  0  0  0  0  0  0
    0.8827   -8.7200    8.0725 C   0  0  0  0  0  0  0  0  0  0  0  0
    6.8342   -9.0574   13.4766 C   0  0  0  0  0  0  0  0  0  0  0  0
    4.3231   -9.2962   10.6004 C   0  0  0  0  0  0  0  0  0  0  0  0
    3.3960   -7.7239   10.0149 C   0  0  0  0  0  0  0  0  0  0  0  0
    3.8722  -16.5489    8.2460 C   0  0  0  0  0  0  0  0  0  0  0  0
    7.1177   -8.0726   11.3162 O   0  0  0  0  0  0  0  0  0  0  0  0
    6.2968   -8.6053   11.8725 C   0  0  0  0  0  0  0  0  0  0  0  0
    3.9608  -13.8579    9.6131 N   0  0  0  0  0  0  0  0  0  0  0  0
    4.1541   -6.3615    9.9446 O   0  0  0  0  0  0  0  0  0  0  0  0
    2.0995  -10.0809    9.5600 O   0  0  0  0  0  0  0  0  0  0  0  0
    4.3367  -15.4712    9.1461 C   0  0  0  0  0  0  0  0  0  0  0  0
    5.3068   -8.9077   11.5749 N   0  0  0  0  0  0  0  0  0  0  0  0
    2.7729   -9.8130    9.7738 C   0  0  0  0  0  0  0  0  0  0  0  0
    1.8815   -6.5689    8.8140 O   0  0  0  0  0  0  0  0  0  0  0  0
    5.5199  -17.6779    9.2873 C   0  0  0  0  0  0  0  0  0  0  0  0
    3.8868  -12.1565    9.9591 C   0  0  0  0  0  0  0  0  0  0  0  0
    1.0112   -8.3078    7.5455 O   0  0  0  0  0  0  0  0  0  0  0  0
    3.3007  -11.9280    9.6420 O   0  0  0  0  0  0  0  0  0  0  0  0
  4  2  1  0
  7  2  1  0
  7  6  1  0
  8  1  2  0
 10  5  1  0
 10  9  2  0
 12  7  1  0
 14  3  2  0
 14  8  1  0
 14 11  1  0
 15  6  1  0
 15 10  1  0
 16  6  1  0
 16 13  2  0
 17  2  1  0
 18  1  1  0
 18  3  1  0
 19 11  1  0
 19 16  1  0
 20  4  1  0
 21 19  1  0
M  END
>  <ID>  (1) 
conformer_0

$$$$
