
     RDKit          3D

 21 21  0  0  0  0  0  0  0  0999 V2000
    5.3388  -17.5189    9.6241 C   0  0  0  0  0  0  0  0  0  0  0  0
    3.4469   -9.8280    9.9456 C   0  0  0  0  0  0  0  0  0  0  0  0
    4.8120  -16.3399   10.0504 C   0  0  0  0  0  0  0  0  0  0  0  0
    6.7329   -9.2359   13.0579 C   0  0  0  0  0  0  0  0  0  0  0  0
    2.4526   -7.7166    9.4208 C   0  0  0  0  0  0  0  0  0  0  0  0
    4.2574  -15.4337    9.1007 C   0  0  0  0  0  0  0  0  0  0  0  0
    3.5084   -7.7425   10.0751 C   0  0  0  0  0  0  0  0  0  0  0  0
    6.4919   -7.8507   11.0176 O   0  0  0  0  0  0  0  0  0  0  0  0
    5.6455   -9.0107   11.2178 C   0  0  0  0  0  0  0  0  0  0  0  0
    4.2122  -17.2672    7.6376 C   0  0  0  0  0  0  0  0  0  0  0  0
    4.2286   -6.1880   10.2387 O   0  0  0  0  0  0  0  0  0  0  0  0
    0.6996   -7.7154    8.1895 O   0  0  0  0  0  0  0  0  0  0  0  0
    4.4587  -10.5197   10.1729 N   0  0  0  0  0  0  0  0  0  0  0  0
    4.7637  -13.3960    9.1730 O   0  0  0  0  0  0  0  0  0  0  0  0
    1.9550   -6.0830    9.3256 O   0  0  0  0  0  0  0  0  0  0  0  0
    2.5420  -10.5145    9.2188 O   0  0  0  0  0  0  0  0  0  0  0  0
    4.2555  -13.1909    9.1958 C   0  0  0  0  0  0  0  0  0  0  0  0
    5.1768   -9.3388   11.3959 N   0  0  0  0  0  0  0  0  0  0  0  0
    1.3869   -8.5974    8.3491 C   0  0  0  0  0  0  0  0  0  0  0  0
    5.1129  -17.9144    8.3256 C   0  0  0  0  0  0  0  0  0  0  0  0
    3.9076  -15.9332    7.8845 C   0  0  0  0  0  0  0  0  0  0  0  0
  3  1  2  0
  6  3  1  0
  7  2  1  0
  7  5  1  0
  9  4  1  0
  9  8  1  0
 11  7  1  0
 13  2  1  0
 14  6  1  0
 15  5  1  0
 16  2  1  0
 17  2  1  0
 17 14  1  0
 18  9  1  0
 18 13  1  0
 19  5  1  0
 19 12  1  0
 20  1  1  0
 20 10  2  0
 21  6  2  0
 21 10  1  0
M  END
>  <ID>  (1) 
conformer_0

$$$$
