
     RDKit          3D

 23 23  0  0  0  0  0  0  0  0999 V2000
    4.9893  -16.5019   10.0074 C   0  0  0  0  0  0  0  0  0  0  0  0
    3.6073   -9.8774   10.2342 C   0  0  0  0  0  0  0  0  0  0  0  0
    5.5821  -17.6269    9.6440 C   0  0  0  0  0  0  0  0  0  0  0  0
    0.9950   -8.4932    8.2484 C   0  0  0  0  0  0  0  0  0  0  0  0
    7.1036   -9.3666   12.9881 C   0  0  0  0  0  0  0  0  0  0  0  0
    2.1000   -8.5712    9.4042 C   0  0  0  0  0  0  0  0  0  0  0  0
    6.6563   -8.1771   10.9729 O   0  0  0  0  0  0  0  0  0  0  0  0
    4.0113  -12.7229    9.4923 C   0  0  0  0  0  0  0  0  0  0  0  0
    5.2908  -18.1790    8.3899 C   0  0  0  0  0  0  0  0  0  0  0  0
    3.8416  -14.1936    9.4219 N   0  0  0  0  0  0  0  0  0  0  0  0
    1.6992   -6.2031    9.0761 O   0  0  0  0  0  0  0  0  0  0  0  0
    3.0928   -7.1577    9.8381 C   0  0  0  0  0  0  0  0  0  0  0  0
    4.2823  -15.7071    9.1081 C   0  0  0  0  0  0  0  0  0  0  0  0
    4.3673   -6.0182    9.9478 O   0  0  0  0  0  0  0  0  0  0  0  0
    4.8809  -12.4410    8.5115 O   0  0  0  0  0  0  0  0  0  0  0  0
    4.9693   -9.7421   11.5848 N   0  0  0  0  0  0  0  0  0  0  0  0
    4.1054   -7.8312   10.3487 C   0  0  0  0  0  0  0  0  0  0  0  0
    2.5236  -10.1755    9.3631 O   0  0  0  0  0  0  0  0  0  0  0  0
    0.4578   -7.7866    7.8921 O   0  0  0  0  0  0  0  0  0  0  0  0
    3.7638  -16.4256    7.9342 C   0  0  0  0  0  0  0  0  0  0  0  0
    5.8406   -8.9173   11.4861 C   0  0  0  0  0  0  0  0  0  0  0  0
    3.8084  -10.9738   10.1487 N   0  0  0  0  0  0  0  0  0  0  0  0
    4.3519  -17.5880    7.7218 C   0  0  0  0  0  0  0  0  0  0  0  0
  3  1  2  0
  6  4  1  0
  9  3  1  0
 10  8  1  0
 12  6  1  0
 12 11  1  0
 13  1  1  0
 13 10  1  0
 14 12  1  0
 15  8  2  0
 16  2  1  0
 17 12  1  0
 18  2  1  0
 18  6  1  0
 19  4  2  0
 20 13  2  0
 21  5  1  0
 21  7  2  0
 21 16  1  0
 22  2  1  0
 22  8  1  0
 23  9  2  0
 23 20  1  0
M  END
>  <ID>  (1) 
conformer_0

$$$$
