
     RDKit          3D

 24 25  0  0  0  0  0  0  0  0999 V2000
    5.1928  -18.2831    8.4505 C   0  0  0  0  0  0  0  0  0  0  0  0
    1.7843   -7.6806    9.0140 C   0  0  0  0  0  0  0  0  0  0  0  0
    5.5182  -17.7716    9.6807 C   0  0  0  0  0  0  0  0  0  0  0  0
    1.0802   -8.8484    8.3253 C   0  0  0  0  0  0  0  0  0  0  0  0
    7.2901   -8.8544   13.4212 C   0  0  0  0  0  0  0  0  0  0  0  0
    3.4945  -10.8258    9.4715 C   0  0  0  0  0  0  0  0  0  0  0  0
    6.4377   -7.9666   11.1090 O   0  0  0  0  0  0  0  0  0  0  0  0
    4.9535  -16.6818   10.2096 C   0  0  0  0  0  0  0  0  0  0  0  0
    4.0828  -13.4025    9.6829 C   0  0  0  0  0  0  0  0  0  0  0  0
    4.3058  -15.9402    9.1917 C   0  0  0  0  0  0  0  0  0  0  0  0
    3.5531   -7.4917   10.0289 C   0  0  0  0  0  0  0  0  0  0  0  0
    1.8352   -6.3316    9.1287 O   0  0  0  0  0  0  0  0  0  0  0  0
    2.2781  -10.4926    9.0066 O   0  0  0  0  0  0  0  0  0  0  0  0
    4.1033  -14.7198    9.5550 N   0  0  0  0  0  0  0  0  0  0  0  0
    2.7528   -8.9639    9.7433 C   0  0  0  0  0  0  0  0  0  0  0  0
    3.5945  -12.6177    9.0432 O   0  0  0  0  0  0  0  0  0  0  0  0
    4.0073   -6.2579   10.0167 O   0  0  0  0  0  0  0  0  0  0  0  0
    3.7807  -16.4046    7.9042 C   0  0  0  0  0  0  0  0  0  0  0  0
    0.6508   -7.8562    7.7308 O   0  0  0  0  0  0  0  0  0  0  0  0
    5.2835   -8.6641   11.6273 N   0  0  0  0  0  0  0  0  0  0  0  0
    4.7053   -8.7372   10.4401 C   0  0  0  0  0  0  0  0  0  0  0  0
    4.2424  -10.2039    9.7264 O   0  0  0  0  0  0  0  0  0  0  0  0
    6.4415   -8.4190   12.0691 C   0  0  0  0  0  0  0  0  0  0  0  0
    4.3450  -17.6666    7.7066 C   0  0  0  0  0  0  0  0  0  0  0  0
  3  1  2  0
  4  2  1  0
  8  3  1  0
 10  8  2  0
 12  2  1  0
 13  6  1  0
 14  9  1  0
 14 10  1  0
 15  2  1  0
 15 11  1  0
 15 13  1  0
 16  6  1  0
 16  9  1  0
 17 11  1  0
 18 10  1  0
 19  4  1  0
 21 11  1  0
 21 20  1  0
 22  6  1  0
 22 21  1  0
 23  5  1  0
 23  7  2  0
 23 20  1  0
 24  1  1  0
 24 18  2  0
M  END
>  <ID>  (1) 
conformer_0

$$$$
