
     RDKit          3D

 17 17  0  0  0  0  0  0  0  0999 V2000
    2.5230   -7.5493    9.6266 C   0  0  0  0  0  0  0  0  0  0  0  0
    4.8455  -17.7897    8.6104 C   0  0  0  0  0  0  0  0  0  0  0  0
    4.0952  -16.8404    7.8644 C   0  0  0  0  0  0  0  0  0  0  0  0
    1.2455   -8.7233    8.5583 C   0  0  0  0  0  0  0  0  0  0  0  0
    3.8192   -7.7038   10.1912 C   0  0  0  0  0  0  0  0  0  0  0  0
    7.1904   -8.2662   11.6152 O   0  0  0  0  0  0  0  0  0  0  0  0
    3.3600   -9.9628    9.5982 C   0  0  0  0  0  0  0  0  0  0  0  0
    4.2321  -15.5599    9.0655 C   0  0  0  0  0  0  0  0  0  0  0  0
    6.1740   -8.6192   11.8773 C   0  0  0  0  0  0  0  0  0  0  0  0
    4.0420  -12.5253    9.5922 C   0  0  0  0  0  0  0  0  0  0  0  0
    4.8113  -17.0106    9.8775 C   0  0  0  0  0  0  0  0  0  0  0  0
    1.6697   -6.2469    9.0725 O   0  0  0  0  0  0  0  0  0  0  0  0
    4.7697  -13.9078    8.5850 O   0  0  0  0  0  0  0  0  0  0  0  0
    2.5670  -10.3042    8.5763 O   0  0  0  0  0  0  0  0  0  0  0  0
    4.2364   -6.1801    9.9779 O   0  0  0  0  0  0  0  0  0  0  0  0
    7.0791   -9.2387   13.6241 C   0  0  0  0  0  0  0  0  0  0  0  0
    5.2396   -8.8451   11.4986 N   0  0  0  0  0  0  0  0  0  0  0  0
  3  2  2  0
  4  1  1  0
  5  1  1  0
  8  3  1  0
  9  5  1  0
  9  6  1  0
 10  7  1  0
 11  2  1  0
 11  8  1  0
 12  1  1  0
 13  8  1  0
 13 10  1  0
 14  4  1  0
 14  7  1  0
 15  5  1  0
 16  9  1  0
 17  9  1  0
M  END
>  <ID>  (1) 
conformer_0

$$$$
