
     RDKit          3D

 24 24  0  0  0  0  0  0  0  0999 V2000
    4.5177   -9.5572   10.4643 C   0  0  0  0  0  0  0  0  0  0  0  0
    5.4510  -18.1863    8.5684 C   0  0  0  0  0  0  0  0  0  0  0  0
    4.0573  -16.2697    8.3096 C   0  0  0  0  0  0  0  0  0  0  0  0
    1.3654   -7.8968    8.7607 C   0  0  0  0  0  0  0  0  0  0  0  0
    2.8610   -8.6212    9.6232 C   0  0  0  0  0  0  0  0  0  0  0  0
    6.0132   -7.8381   10.9869 O   0  0  0  0  0  0  0  0  0  0  0  0
    2.9591   -7.2910   10.0062 C   0  0  0  0  0  0  0  0  0  0  0  0
    5.1269  -16.4500   10.1552 C   0  0  0  0  0  0  0  0  0  0  0  0
    7.0278   -8.7574   13.6032 C   0  0  0  0  0  0  0  0  0  0  0  0
    2.5576  -11.5928    8.8810 O   0  0  0  0  0  0  0  0  0  0  0  0
    1.7267   -6.1941    9.1208 O   0  0  0  0  0  0  0  0  0  0  0  0
    3.9526  -13.6146    9.7563 N   0  0  0  0  0  0  0  0  0  0  0  0
    4.7857   -8.1942   10.5149 C   0  0  0  0  0  0  0  0  0  0  0  0
    3.8154  -13.7187    8.6639 C   0  0  0  0  0  0  0  0  0  0  0  0
    6.3326   -8.7000   12.2373 C   0  0  0  0  0  0  0  0  0  0  0  0
    4.4839  -15.6450    9.2405 C   0  0  0  0  0  0  0  0  0  0  0  0
    0.9369   -8.1557    7.9184 O   0  0  0  0  0  0  0  0  0  0  0  0
    5.7941  -17.6446    9.8436 C   0  0  0  0  0  0  0  0  0  0  0  0
    3.8083   -6.3267    9.9860 O   0  0  0  0  0  0  0  0  0  0  0  0
    3.6527  -13.1299    8.6986 N   0  0  0  0  0  0  0  0  0  0  0  0
    1.1774   -9.6602    8.0792 C   0  0  0  0  0  0  0  0  0  0  0  0
    4.4909  -17.4437    7.8466 C   0  0  0  0  0  0  0  0  0  0  0  0
    2.9954  -10.9944    9.2578 C   0  0  0  0  0  0  0  0  0  0  0  0
    2.6381   -9.9292    9.4553 O   0  0  0  0  0  0  0  0  0  0  0  0
  5  1  1  0
  5  4  1  0
  7  5  1  0
 11  4  1  0
 13  1  1  0
 13  6  1  0
 14 12  1  0
 15  6  1  0
 15  9  1  0
 16  3  1  0
 16  8  2  0
 16 14  1  0
 17  4  1  0
 18  2  2  0
 18  8  1  0
 19  7  1  0
 20 14  1  0
 21 17  1  0
 22  2  1  0
 22  3  2  0
 23 10  2  0
 23 14  1  0
 24  5  1  0
 24 23  1  0
M  END
>  <ID>  (1) 
conformer_0

$$$$
