
     RDKit          3D

 24 24  0  0  0  0  0  0  0  0999 V2000
    3.6443  -16.3857    8.3140 C   0  0  0  0  0  0  0  0  0  0  0  0
    0.8338   -8.1660    8.0962 C   0  0  0  0  0  0  0  0  0  0  0  0
    4.1245  -17.5520    8.0211 C   0  0  0  0  0  0  0  0  0  0  0  0
    2.3247   -7.4941    9.6037 C   0  0  0  0  0  0  0  0  0  0  0  0
    7.0637   -8.7688   12.9653 C   0  0  0  0  0  0  0  0  0  0  0  0
    3.4492   -7.4019   10.2333 C   0  0  0  0  0  0  0  0  0  0  0  0
    6.6474   -8.7760   11.4610 C   0  0  0  0  0  0  0  0  0  0  0  0
    4.8425  -16.2997   10.2228 C   0  0  0  0  0  0  0  0  0  0  0  0
    4.0273  -13.9697    9.3484 N   0  0  0  0  0  0  0  0  0  0  0  0
    4.6082  -10.1583   10.3219 N   0  0  0  0  0  0  0  0  0  0  0  0
    4.1832  -15.4112    9.2795 C   0  0  0  0  0  0  0  0  0  0  0  0
    4.2102   -6.1817   10.2040 O   0  0  0  0  0  0  0  0  0  0  0  0
    0.3365   -8.1092    7.9790 O   0  0  0  0  0  0  0  0  0  0  0  0
    2.1083   -9.2658    8.8895 C   0  0  0  0  0  0  0  0  0  0  0  0
    5.6497   -8.8469   11.0473 N   0  0  0  0  0  0  0  0  0  0  0  0
    2.0220   -6.2306    9.1853 O   0  0  0  0  0  0  0  0  0  0  0  0
    5.0997  -18.1466    8.7199 C   0  0  0  0  0  0  0  0  0  0  0  0
    4.6693   -9.0975   10.5725 C   0  0  0  0  0  0  0  0  0  0  0  0
    6.5419   -7.7618   10.7991 O   0  0  0  0  0  0  0  0  0  0  0  0
    3.1484   -9.9044    9.9035 C   0  0  0  0  0  0  0  0  0  0  0  0
    1.5719  -10.0203    8.2279 O   0  0  0  0  0  0  0  0  0  0  0  0
    4.1119  -12.0020    9.6524 C   0  0  0  0  0  0  0  0  0  0  0  0
    5.4909  -17.5356    9.9543 C   0  0  0  0  0  0  0  0  0  0  0  0
    3.9306  -11.7381    9.8803 N   0  0  0  0  0  0  0  0  0  0  0  0
  3  1  2  0
  6  4  1  0
  7  5  1  0
 11  1  1  0
 11  8  2  0
 11  9  1  0
 12  6  1  0
 13  2  2  0
 14  2  1  0
 14  4  1  0
 15  7  1  0
 16  4  1  0
 17  3  1  0
 18 10  1  0
 18 15  1  0
 19  7  1  0
 20 10  1  0
 20 14  1  0
 21 14  1  0
 22  9  1  0
 23  8  1  0
 23 17  2  0
 24 10  1  0
 24 22  1  0
M  END
>  <ID>  (1) 
conformer_0

$$$$
