
     RDKit          3D

 25 25  0  0  0  0  0  0  0  0999 V2000
    2.3180   -7.8675    9.3387 C   0  0  0  0  0  0  0  0  0  0  0  0
    4.6978  -17.3687    7.8957 C   0  0  0  0  0  0  0  0  0  0  0  0
    5.6479  -17.4347   10.0816 C   0  0  0  0  0  0  0  0  0  0  0  0
    0.5574   -8.2520    7.8949 C   0  0  0  0  0  0  0  0  0  0  0  0
    6.9177   -8.8871   13.4749 C   0  0  0  0  0  0  0  0  0  0  0  0
    3.4223   -7.4528   10.0936 C   0  0  0  0  0  0  0  0  0  0  0  0
    4.5562   -8.9463   10.3798 C   0  0  2  0  0  0  0  0  0  0  0  0
    6.5258   -8.2148   11.1408 O   0  0  0  0  0  0  0  0  0  0  0  0
    1.7832   -6.2684    9.1421 O   0  0  0  0  0  0  0  0  0  0  0  0
    4.4816  -15.3513    9.0991 C   0  0  0  0  0  0  0  0  0  0  0  0
    5.1182  -16.1321   10.1655 C   0  0  0  0  0  0  0  0  0  0  0  0
    4.0050   -6.2869   10.3810 O   0  0  0  0  0  0  0  0  0  0  0  0
    0.8039   -8.2268    7.7079 O   0  0  0  0  0  0  0  0  0  0  0  0
    2.1246   -9.3165    9.0307 C   0  0  0  0  0  0  0  0  0  0  0  0
    3.2074  -13.5127   10.2843 O   0  0  0  0  0  0  0  0  0  0  0  0
    3.8978  -13.0407    9.4483 C   0  0  2  0  0  0  0  0  0  0  0  0
    3.8626  -10.3419   10.0600 N   0  0  0  0  0  0  0  0  0  0  0  0
    4.5884  -13.6394    8.2174 O   0  0  0  0  0  0  0  0  0  0  0  0
    5.0797   -9.3830   11.4139 N   0  0  0  0  0  0  0  0  0  0  0  0
    4.0128  -16.2430    8.1642 C   0  0  0  0  0  0  0  0  0  0  0  0
    2.5279  -11.2631    9.2421 O   0  0  0  0  0  0  0  0  0  0  0  0
    3.9450  -13.7077    9.0595 N   0  0  0  0  0  0  0  0  0  0  0  0
    6.2241   -8.9450   11.9270 C   0  0  0  0  0  0  0  0  0  0  0  0
    3.4924  -10.5883   10.0787 C   0  0  1  0  0  0  0  0  0  0  0  0
    5.4368  -18.0808    8.8361 C   0  0  0  0  0  0  0  0  0  0  0  0
  6  1  2  3
  7  6  1  0
  9  1  1  0
 11  3  1  0
 11 10  2  0
 12  6  1  0
 13  4  1  0
 14  1  1  0
 14  4  1  0
 16 10  1  0
 16 15  1  1
  7 17  1  1
 19  7  1  0
 20  2  2  0
 20 10  1  0
 22 16  1  0
 22 18  1  0
 23  5  1  0
 23  8  2  0
 23 19  1  0
 24 16  1  0
 24 17  1  0
 24 21  1  6
 25  2  1  0
 25  3  2  0
M  END
>  <ID>  (1) 
conformer_0

$$$$
