
     RDKit          3D

 23 23  0  0  0  0  0  0  0  0999 V2000
    5.3428  -17.8948    8.9253 C   0  0  0  0  0  0  0  0  0  0  0  0
    2.3335   -7.7271    9.3586 C   0  0  0  0  0  0  0  0  0  0  0  0
    4.5243  -17.7001    7.8428 C   0  0  0  0  0  0  0  0  0  0  0  0
    0.7362   -8.0877    8.0449 C   0  0  0  0  0  0  0  0  0  0  0  0
    4.6558   -8.7771   10.6644 C   0  0  0  0  0  0  0  0  0  0  0  0
    3.8389  -16.4771    7.9612 C   0  0  0  0  0  0  0  0  0  0  0  0
    3.5059   -7.8990    9.8171 C   0  0  0  0  0  0  0  0  0  0  0  0
    3.9516  -14.2878    9.8184 N   0  0  0  0  0  0  0  0  0  0  0  0
    7.4365   -8.4214   11.2431 O   0  0  0  0  0  0  0  0  0  0  0  0
    4.3278   -6.4772   10.3723 O   0  0  0  0  0  0  0  0  0  0  0  0
    4.2998  -15.6764    9.2117 C   0  0  0  0  0  0  0  0  0  0  0  0
    7.3480   -8.9327   13.5877 C   0  0  0  0  0  0  0  0  0  0  0  0
    2.2852  -10.1076    9.4424 O   0  0  0  0  0  0  0  0  0  0  0  0
    5.5865   -9.0645   11.6114 N   0  0  0  0  0  0  0  0  0  0  0  0
    0.3828   -7.3938    8.0656 O   0  0  0  0  0  0  0  0  0  0  0  0
    6.6967   -8.7910   12.0491 C   0  0  0  0  0  0  0  0  0  0  0  0
    4.0642  -13.1701    9.7911 C   0  0  0  0  0  0  0  0  0  0  0  0
    5.1343  -16.8961    9.8490 C   0  0  0  0  0  0  0  0  0  0  0  0
    2.4812   -6.3578    9.3026 O   0  0  0  0  0  0  0  0  0  0  0  0
    4.2970  -11.3559   10.8368 N   0  0  0  0  0  0  0  0  0  0  0  0
    1.9242   -9.3096    8.5108 C   0  0  0  0  0  0  0  0  0  0  0  0
    3.4191  -10.1963    9.9619 C   0  0  0  0  0  0  0  0  0  0  0  0
    3.5159  -11.8455    9.5717 O   0  0  0  0  0  0  0  0  0  0  0  0
  3  1  2  0
  6  3  1  0
  7  2  1  0
  7  5  1  0
 10  7  1  0
 11  6  2  0
 11  8  1  0
 14  5  1  0
 15  4  1  0
 16  9  2  0
 16 12  1  0
 16 14  1  0
 17  8  1  0
 18  1  1  0
 18 11  1  0
 19  2  1  0
 21  2  1  0
 21  4  1  0
 21 13  1  0
 22 13  1  0
 22 20  1  0
 23 17  1  0
 23 20  1  0
M  END
>  <ID>  (1) 
conformer_0

$$$$
