
     RDKit          3D

 22 22  0  0  0  0  0  0  0  0999 V2000
    5.1208  -17.4286    9.4598 C   0  0  0  0  0  0  0  0  0  0  0  0
    1.1134   -8.7334    8.3745 C   0  0  0  0  0  0  0  0  0  0  0  0
    4.9045  -16.3381   10.1490 C   0  0  0  0  0  0  0  0  0  0  0  0
    2.2061   -7.6870    9.3406 C   0  0  0  0  0  0  0  0  0  0  0  0
    4.2593  -15.1262    9.1013 C   0  0  0  0  0  0  0  0  0  0  0  0
    3.5218   -8.0001   10.3230 C   0  0  0  0  0  0  0  0  0  0  0  0
    6.5610   -7.8916   11.0917 O   0  0  0  0  0  0  0  0  0  0  0  0
    4.5794   -9.6659   10.6393 C   0  0  2  0  0  0  0  0  0  0  0  0
    3.8465   -6.3779   10.4994 O   0  0  0  0  0  0  0  0  0  0  0  0
    2.5529   -9.7637    9.4385 C   0  0  2  0  0  0  0  0  0  0  0  0
    3.8733  -13.8520    9.4316 N   0  0  0  0  0  0  0  0  0  0  0  0
    4.6417  -17.4294    8.2235 C   0  0  0  0  0  0  0  0  0  0  0  0
    7.2237   -9.1125   13.2497 C   0  0  0  0  0  0  0  0  0  0  0  0
    2.6672  -10.8534    9.0755 O   0  0  0  0  0  0  0  0  0  0  0  0
    4.1101  -10.0848   10.2337 N   0  0  0  0  0  0  0  0  0  0  0  0
    5.2436  -12.6082    8.9258 O   0  0  0  0  0  0  0  0  0  0  0  0
    2.0271   -6.3729    9.1879 O   0  0  0  0  0  0  0  0  0  0  0  0
    5.3763   -9.1807   11.8495 N   0  0  0  0  0  0  0  0  0  0  0  0
    0.7358   -7.7712    8.0686 O   0  0  0  0  0  0  0  0  0  0  0  0
    4.0408  -12.4548    9.4659 C   0  0  0  0  0  0  0  0  0  0  0  0
    6.2709   -8.8835   11.7144 C   0  0  0  0  0  0  0  0  0  0  0  0
    4.0524  -16.2206    7.8584 C   0  0  0  0  0  0  0  0  0  0  0  0
  3  1  2  0
  4  2  1  0
  5  3  1  0
  6  4  2  3
  8  6  1  0
  9  6  1  0
 11  5  1  0
 12  1  1  0
 10 14  1  6
  8 15  1  1
 15 10  1  0
 17  4  1  0
 18  8  1  0
 19  2  1  0
 20 10  1  0
 20 11  1  0
 20 16  2  0
 21  7  2  0
 21 13  1  0
 21 18  1  0
 22  5  2  0
 22 12  1  0
M  END
>  <ID>  (1) 
conformer_0

$$$$
