
     RDKit          3D

 22 22  0  0  0  0  0  0  0  0999 V2000
    4.6955  -17.7458    8.1393 C   0  0  0  0  0  0  0  0  0  0  0  0
    2.4403  -10.0294    9.6091 C   0  0  0  0  0  0  0  0  0  0  0  0
    1.8574   -7.9704    8.9922 C   0  0  0  0  0  0  0  0  0  0  0  0
    5.4825  -17.5008    9.2615 C   0  0  0  0  0  0  0  0  0  0  0  0
    4.4178  -15.3465    8.8179 C   0  0  0  0  0  0  0  0  0  0  0  0
    6.1631   -7.6962   10.8934 O   0  0  0  0  0  0  0  0  0  0  0  0
    3.0482   -7.4982    9.8274 C   0  0  0  0  0  0  0  0  0  0  0  0
    6.9061   -8.7330   13.4210 C   0  0  0  0  0  0  0  0  0  0  0  0
    4.0446  -13.9092    9.0105 N   0  0  0  0  0  0  0  0  0  0  0  0
    4.1487   -7.8355   10.3815 C   0  0  0  0  0  0  0  0  0  0  0  0
    3.9785  -16.5661    7.7931 C   0  0  0  0  0  0  0  0  0  0  0  0
    3.9926  -12.6782    9.3064 C   0  0  0  0  0  0  0  0  0  0  0  0
    4.1674   -6.1136   10.0780 O   0  0  0  0  0  0  0  0  0  0  0  0
    2.2023  -10.0333    9.4560 O   0  0  0  0  0  0  0  0  0  0  0  0
    5.0598   -9.4139   11.5969 N   0  0  0  0  0  0  0  0  0  0  0  0
    0.7015   -7.8871    8.0452 O   0  0  0  0  0  0  0  0  0  0  0  0
    2.0438   -6.3430    9.1663 O   0  0  0  0  0  0  0  0  0  0  0  0
    6.0951   -8.7025   11.8930 C   0  0  0  0  0  0  0  0  0  0  0  0
    4.1145   -9.7067   10.4535 C   0  0  0  0  0  0  0  0  0  0  0  0
    5.4059  -16.1804    9.7619 C   0  0  0  0  0  0  0  0  0  0  0  0
    3.0904  -11.8074    9.2446 O   0  0  0  0  0  0  0  0  0  0  0  0
    0.8435   -9.1225    8.1591 C   0  0  0  0  0  0  0  0  0  0  0  0
  4  1  2  0
  7  3  1  0
  9  5  1  0
 10  7  1  0
 11  1  1  0
 11  5  1  0
 12  9  1  0
 13 10  1  0
 14  2  2  0
 16  3  1  0
 17  3  1  0
 18  6  2  0
 18  8  1  0
 18 15  1  0
 19  2  1  0
 19 10  1  0
 19 15  1  0
 20  4  1  0
 20  5  2  0
 21  2  1  0
 21 12  1  0
 22 16  1  0
M  END
>  <ID>  (1) 
conformer_0

$$$$
