
     RDKit          3D

 21 21  0  0  0  0  0  0  0  0999 V2000
    2.0295   -8.8427    9.1624 C   0  0  0  0  0  0  0  0  0  0  0  0
    5.1926  -17.6322    8.8758 C   0  0  0  0  0  0  0  0  0  0  0  0
    4.4503  -17.3840    7.6764 C   0  0  0  0  0  0  0  0  0  0  0  0
    0.7702   -8.1834    8.2922 C   0  0  0  0  0  0  0  0  0  0  0  0
    2.6761   -7.3591    9.3717 C   0  0  0  0  0  0  0  0  0  0  0  0
    6.5256   -7.9648   11.0913 O   0  0  0  0  0  0  0  0  0  0  0  0
    4.0066  -14.0742    9.9605 N   0  0  0  0  0  0  0  0  0  0  0  0
    3.9983  -10.0282   10.1641 C   0  0  0  0  0  0  0  0  0  0  0  0
    4.0330   -7.9138   10.0650 C   0  0  0  0  0  0  0  0  0  0  0  0
    4.9634  -16.7077    9.8279 C   0  0  0  0  0  0  0  0  0  0  0  0
    4.2150  -15.4186    9.2491 C   0  0  0  0  0  0  0  0  0  0  0  0
    4.1600   -6.2321   10.3145 O   0  0  0  0  0  0  0  0  0  0  0  0
    2.4927   -9.7530    9.4802 O   0  0  0  0  0  0  0  0  0  0  0  0
    7.1509   -8.9921   13.4196 C   0  0  0  0  0  0  0  0  0  0  0  0
    5.0309   -9.5175   10.9758 N   0  0  0  0  0  0  0  0  0  0  0  0
    5.1923  -12.4954    8.8166 O   0  0  0  0  0  0  0  0  0  0  0  0
    1.9955   -6.1639    9.3731 O   0  0  0  0  0  0  0  0  0  0  0  0
    4.0946  -12.6248    9.9942 C   0  0  0  0  0  0  0  0  0  0  0  0
    3.8302  -16.1110    7.8686 C   0  0  0  0  0  0  0  0  0  0  0  0
    2.9168  -11.8841    9.8012 O   0  0  0  0  0  0  0  0  0  0  0  0
    6.4387   -8.5962   11.9571 C   0  0  0  0  0  0  0  0  0  0  0  0
  3  2  2  0
  4  1  1  0
  5  1  1  0
  9  5  1  0
 10  2  1  0
 11  7  1  0
 11 10  1  0
 12  9  1  0
 13  1  1  0
 13  8  1  0
 15  8  1  0
 17  5  1  0
 18  7  1  0
 18 16  1  0
 19  3  1  0
 19 11  2  0
 20  8  1  0
 20 18  1  0
 21  6  2  0
 21 14  1  0
 21 15  1  0
M  END
>  <ID>  (1) 
conformer_0

$$$$
