
     RDKit          3D

 23 25  0  0  0  0  0  0  0  0999 V2000
    4.5933  -16.4354   10.0749 C   0  0  0  0  0  0  0  0  0  0  0  0
    1.8824   -7.7950    9.0435 C   0  0  0  0  0  0  0  0  0  0  0  0
    5.2174  -17.5689    9.6964 C   0  0  0  0  0  0  0  0  0  0  0  0
    0.7464   -8.8118    7.9739 C   0  0  0  0  0  0  0  0  0  0  0  0
    7.0277   -9.0335   13.4586 C   0  0  0  0  0  0  0  0  0  0  0  0
    6.6393   -7.8186   11.4738 O   0  0  0  0  0  0  0  0  0  0  0  0
    4.3362   -9.2820   10.5174 C   0  0  0  0  0  0  0  0  0  0  0  0
    4.1163  -15.4588    9.1044 C   0  0  0  0  0  0  0  0  0  0  0  0
    5.0093  -18.0260    8.3144 C   0  0  0  0  0  0  0  0  0  0  0  0
    6.4098   -8.7719   11.9493 C   0  0  0  0  0  0  0  0  0  0  0  0
    3.8781  -14.0141    9.5210 N   0  0  0  0  0  0  0  0  0  0  0  0
    3.0856   -6.3443    9.5654 O   0  0  0  0  0  0  0  0  0  0  0  0
    2.8455   -9.9074    9.4804 C   0  0  0  0  0  0  0  0  0  0  0  0
    0.7873   -7.3199    8.0929 O   0  0  0  0  0  0  0  0  0  0  0  0
    1.9048   -9.6627    8.7353 O   0  0  0  0  0  0  0  0  0  0  0  0
    4.1328  -12.5712    9.5758 C   0  0  0  0  0  0  0  0  0  0  0  0
    5.4211  -12.5997    9.0708 O   0  0  0  0  0  0  0  0  0  0  0  0
    4.3824  -10.2610   10.0167 N   0  0  0  0  0  0  0  0  0  0  0  0
    5.1463   -9.0063   11.5307 N   0  0  0  0  0  0  0  0  0  0  0  0
    4.1272  -17.3355    7.7589 C   0  0  0  0  0  0  0  0  0  0  0  0
    3.7846  -16.0727    7.9422 C   0  0  0  0  0  0  0  0  0  0  0  0
    2.8164  -11.6209    9.4420 O   0  0  0  0  0  0  0  0  0  0  0  0
    3.1412   -7.8753   10.0579 C   0  0  0  0  0  0  0  0  0  0  0  0
  3  1  2  0
  4  2  1  0
  8  1  1  0
  9  3  1  0
 10  5  1  0
 10  6  2  0
 11  8  1  0
 14  2  1  0
 14  4  1  0
 15  4  1  0
 15 13  1  0
 16 11  1  0
 17 16  2  0
 18  7  1  0
 18 13  1  0
 19  7  1  0
 19 10  1  0
 20  9  2  0
 21  8  2  0
 21 20  1  0
 22 13  1  0
 22 16  1  0
 23  2  1  0
 23  7  1  0
 23 12  1  0
M  END
>  <ID>  (1) 
conformer_0

$$$$
