
     RDKit          3D

 22 21  0  0  0  0  0  0  0  0999 V2000
    3.8311  -17.6334    7.4877 C   0  0  0  0  0  0  0  0  0  0  0  0
    3.3291   -9.9781    9.9420 C   0  0  1  0  0  0  0  0  0  0  0  0
    5.2052  -17.5417    9.4133 C   0  0  0  0  0  0  0  0  0  0  0  0
    6.9260   -8.8314   13.7146 C   0  0  0  0  0  0  0  0  0  0  0  0
    2.3190   -7.9920    9.1048 C   0  0  0  0  0  0  0  0  0  0  0  0
    6.6622   -7.9149   11.3006 O   0  0  0  0  0  0  0  0  0  0  0  0
    0.9052   -8.7580    8.0144 C   0  0  0  0  0  0  0  0  0  0  0  0
    4.0629  -15.5457    8.7850 C   0  0  0  0  0  0  0  0  0  0  0  0
    4.7642  -16.3531    9.7494 C   0  0  0  0  0  0  0  0  0  0  0  0
    3.3134   -7.4335    9.8745 C   0  0  2  0  0  0  0  0  0  0  0  0
    3.8746  -12.8450    9.2229 C   0  0  1  0  0  0  0  0  0  0  0  0
    3.9432  -13.3113    7.9887 O   0  0  0  0  0  0  0  0  0  0  0  0
    3.7260   -6.2424   10.0343 O   0  0  0  0  0  0  0  0  0  0  0  0
    2.5839  -10.2069    9.3740 O   0  0  0  0  0  0  0  0  0  0  0  0
    5.0905   -9.1162   11.6092 N   0  0  0  0  0  0  0  0  0  0  0  0
    4.5002   -8.3922   10.4567 C   0  0  1  0  0  0  0  0  0  0  0  0
    3.8755  -13.5063    9.7264 N   0  0  0  0  0  0  0  0  0  0  0  0
    1.4545   -8.0458    8.5674 O   0  0  0  0  0  0  0  0  0  0  0  0
    4.8970  -18.1013    8.2360 C   0  0  0  0  0  0  0  0  0  0  0  0
    3.6037  -16.3095    7.7596 C   0  0  0  0  0  0  0  0  0  0  0  0
    6.4186   -8.6638   12.1002 C   0  0  0  0  0  0  0  0  0  0  0  0
    4.4046  -10.5460   10.3133 N   0  0  0  0  0  0  0  0  0  0  0  0
  9  3  2  3
  9  8  1  0
 10  5  1  0
 11  2  1  0
 12 11  1  0
 10 13  1  6
 14  2  1  0
 16  2  1  0
 16 10  1  0
 16 15  1  1
 11 17  1  6
 18  5  1  0
 18  7  1  0
 19  1  1  0
 19  3  1  0
 20  1  1  0
 20 11  1  0
 21  4  1  0
 21  6  2  0
 21 15  1  0
  2 22  1  1
M  END
>  <ID>  (1) 
conformer_0

$$$$
