
     RDKit          3D

 22 22  0  0  0  0  0  0  0  0999 V2000
    0.7994   -8.1231    7.9398 C   0  0  0  0  0  0  0  0  0  0  0  0
    4.5987  -17.8165    8.0289 C   0  0  0  0  0  0  0  0  0  0  0  0
    5.3333  -17.8747    9.1644 C   0  0  0  0  0  0  0  0  0  0  0  0
    2.3626   -7.4817    9.3479 C   0  0  0  0  0  0  0  0  0  0  0  0
    5.8663   -8.9719   11.2639 C   0  0  2  0  0  0  0  0  0  0  0  0
    4.3262  -15.6383    9.1660 C   0  0  0  0  0  0  0  0  0  0  0  0
    7.1640   -8.9100   12.5501 C   0  0  0  0  0  0  0  0  0  0  0  0
    3.5184   -7.5992    9.9418 C   0  0  1  0  0  0  0  0  0  0  0  0
    3.8844  -14.2567    9.5390 N   0  0  0  0  0  0  0  0  0  0  0  0
    5.1858  -16.8137   10.0212 C   0  0  0  0  0  0  0  0  0  0  0  0
    2.0353   -6.0722    9.4614 O   0  0  0  0  0  0  0  0  0  0  0  0
    6.2763   -8.0706   10.8769 O   0  0  0  0  0  0  0  0  0  0  0  0
    4.0523   -6.2937   10.4627 O   0  0  0  0  0  0  0  0  0  0  0  0
    4.2261   -8.7150   10.6765 C   0  0  1  0  0  0  0  0  0  0  0  0
    5.7879   -9.1948   13.1445 O   0  0  0  0  0  0  0  0  0  0  0  0
    1.8621   -9.3614    9.4275 O   0  0  0  0  0  0  0  0  0  0  0  0
    4.0109  -13.0332    9.4521 C   0  0  0  0  0  0  0  0  0  0  0  0
    4.0068  -16.5882    7.9186 C   0  0  0  0  0  0  0  0  0  0  0  0
    0.4486   -6.7794    8.2995 O   0  0  0  0  0  0  0  0  0  0  0  0
    3.2288  -11.1050    9.6056 O   0  0  0  0  0  0  0  0  0  0  0  0
    1.7665   -9.4234    8.8853 C   0  0  0  0  0  0  0  0  0  0  0  0
    3.2764  -10.3922   10.0484 C   0  0  1  0  0  0  0  0  0  0  0  0
  3  2  2  0
  7  5  1  0
  8  4  1  0
  9  6  1  0
 10  3  1  0
 10  6  2  0
 11  4  1  0
  5 12  1  6
  8 13  1  1
 14  5  1  6
 14  8  1  0
 15  7  1  0
 17  9  1  0
 18  2  1  0
 18  6  1  0
 19  1  1  0
 20 17  1  0
 21  1  2  3
 21 16  1  0
 22 14  1  0
 22 16  1  6
 22 20  1  0
M  END
>  <ID>  (1) 
conformer_0

$$$$
