
     RDKit          3D

 23 25  0  0  0  0  0  0  0  0999 V2000
    2.3818   -7.2886    9.3786 C   0  0  0  0  0  0  0  0  0  0  0  0
    4.9435  -16.8290   10.1206 C   0  0  0  0  0  0  0  0  0  0  0  0
    5.3073  -17.7459    9.1920 C   0  0  0  0  0  0  0  0  0  0  0  0
    3.8794  -10.7846   10.0322 C   0  0  0  0  0  0  0  0  0  0  0  0
    6.6308   -7.9444   10.9553 O   0  0  0  0  0  0  0  0  0  0  0  0
    0.9956   -8.3425    8.1126 C   0  0  0  0  0  0  0  0  0  0  0  0
    3.7160   -7.6801   10.2063 C   0  0  0  0  0  0  0  0  0  0  0  0
    4.1713  -15.6457    9.3300 C   0  0  0  0  0  0  0  0  0  0  0  0
    4.7257  -17.5126    7.9068 C   0  0  0  0  0  0  0  0  0  0  0  0
    4.1225  -13.4256    9.0569 C   0  0  0  0  0  0  0  0  0  0  0  0
    4.3522   -6.2836   10.3318 O   0  0  0  0  0  0  0  0  0  0  0  0
    3.8303  -14.0730    9.6932 N   0  0  0  0  0  0  0  0  0  0  0  0
    3.4037  -11.9459    9.2334 O   0  0  0  0  0  0  0  0  0  0  0  0
    6.9235   -9.0722   13.2878 C   0  0  0  0  0  0  0  0  0  0  0  0
    4.6256   -9.1604   10.4820 C   0  0  0  0  0  0  0  0  0  0  0  0
    2.4994   -9.9690    9.2341 O   0  0  0  0  0  0  0  0  0  0  0  0
    4.1012  -16.2713    7.8771 C   0  0  0  0  0  0  0  0  0  0  0  0
    5.5214   -9.2762   11.7146 N   0  0  0  0  0  0  0  0  0  0  0  0
    1.1271   -7.4421    8.4337 O   0  0  0  0  0  0  0  0  0  0  0  0
    2.5099   -6.1814    9.1508 O   0  0  0  0  0  0  0  0  0  0  0  0
    6.3325   -8.8120   11.6972 C   0  0  0  0  0  0  0  0  0  0  0  0
    4.4255  -11.3669   10.8374 N   0  0  0  0  0  0  0  0  0  0  0  0
    2.5919   -8.9961    9.4484 C   0  0  0  0  0  0  0  0  0  0  0  0
  3  2  2  0
  7  1  1  0
  8  2  1  0
  9  3  1  0
 11  7  1  0
 12  8  1  0
 12 10  1  0
 13  4  1  0
 13 10  1  0
 15  4  1  0
 15  7  1  0
 16  4  1  0
 17  8  1  0
 17  9  2  0
 18 15  1  0
 19  1  1  0
 19  6  1  0
 20  1  1  0
 21  5  2  0
 21 14  1  0
 21 18  1  0
 22  4  1  0
 23  1  1  0
 23  7  1  0
 23 16  1  0
M  END
>  <ID>  (1) 
conformer_0

$$$$
