
     RDKit          3D

 21 21  0  0  0  0  0  0  0  0999 V2000
    1.3965   -8.7836    8.6294 C   0  0  0  0  0  0  0  0  0  0  0  0
    5.6454  -17.7824    8.9348 C   0  0  0  0  0  0  0  0  0  0  0  0
    5.2102  -16.8315    9.8780 C   0  0  0  0  0  0  0  0  0  0  0  0
    2.5609   -7.8161    9.5071 C   0  0  0  0  0  0  0  0  0  0  0  0
    2.7856  -10.3421    9.8184 C   0  0  0  0  0  0  0  0  0  0  0  0
    3.8350  -14.1865    9.6386 N   0  0  0  0  0  0  0  0  0  0  0  0
    7.1209   -8.9155   13.3643 C   0  0  0  0  0  0  0  0  0  0  0  0
    3.9096   -8.0286   10.1361 C   0  0  0  0  0  0  0  0  0  0  0  0
    4.3520  -15.6612    9.0404 C   0  0  0  0  0  0  0  0  0  0  0  0
    4.3659   -9.5125   10.4926 C   0  0  0  0  0  0  0  0  0  0  0  0
    6.8673   -8.2039   11.1759 O   0  0  0  0  0  0  0  0  0  0  0  0
    4.0996   -6.4513   10.3990 O   0  0  0  0  0  0  0  0  0  0  0  0
    4.9244  -17.7311    7.7425 C   0  0  0  0  0  0  0  0  0  0  0  0
    0.9739   -8.1457    7.8515 O   0  0  0  0  0  0  0  0  0  0  0  0
    2.0040   -6.3470    9.1126 O   0  0  0  0  0  0  0  0  0  0  0  0
    2.3975  -10.5420    9.8378 O   0  0  0  0  0  0  0  0  0  0  0  0
    3.8983  -12.8755    9.8278 C   0  0  0  0  0  0  0  0  0  0  0  0
    5.5119   -9.5947   11.6984 N   0  0  0  0  0  0  0  0  0  0  0  0
    4.0469  -11.8014   10.5949 N   0  0  0  0  0  0  0  0  0  0  0  0
    6.3167   -8.9592   11.7941 C   0  0  0  0  0  0  0  0  0  0  0  0
    4.0683  -16.5309    7.8180 C   0  0  0  0  0  0  0  0  0  0  0  0
  3  2  2  0
  4  1  1  0
  8  4  1  0
  9  3  1  0
  9  6  1  0
 10  5  1  0
 10  8  1  0
 12  8  1  0
 13  2  1  0
 14  1  1  0
 15  4  1  0
 16  5  1  0
 17  6  1  0
 18 10  1  0
 19  5  1  0
 19 17  1  0
 20  7  1  0
 20 11  2  0
 20 18  1  0
 21  9  2  0
 21 13  1  0
M  END
>  <ID>  (1) 
conformer_0

$$$$
