
     RDKit          3D

 20 20  0  0  0  0  0  0  0  0999 V2000
    5.1343  -16.3716   10.2433 C   0  0  0  0  0  0  0  0  0  0  0  0
    2.7346   -7.7161    9.6488 C   0  0  0  0  0  0  0  0  0  0  0  0
    5.4367  -17.6135    9.5618 C   0  0  0  0  0  0  0  0  0  0  0  0
    1.2263   -8.6305    8.3128 C   0  0  0  0  0  0  0  0  0  0  0  0
    2.5754   -9.7944    9.4323 C   0  0  0  0  0  0  0  0  0  0  0  0
    4.7532  -17.6836    8.3499 C   0  0  0  0  0  0  0  0  0  0  0  0
    3.8762   -8.5856   10.4497 C   0  0  0  0  0  0  0  0  0  0  0  0
    6.8554   -8.6822   13.6305 C   0  0  0  0  0  0  0  0  0  0  0  0
    4.1923  -15.4854    9.3506 C   0  0  0  0  0  0  0  0  0  0  0  0
    3.9230  -12.5441    9.3546 C   0  0  0  0  0  0  0  0  0  0  0  0
    2.0592   -6.3458    9.2639 O   0  0  0  0  0  0  0  0  0  0  0  0
    7.5110   -8.1142   11.7223 O   0  0  0  0  0  0  0  0  0  0  0  0
    3.8108  -13.8960    9.5164 N   0  0  0  0  0  0  0  0  0  0  0  0
    2.6224  -10.7783    9.0544 O   0  0  0  0  0  0  0  0  0  0  0  0
    5.3304   -8.5771   11.3888 N   0  0  0  0  0  0  0  0  0  0  0  0
    4.7655  -12.4102    8.6328 O   0  0  0  0  0  0  0  0  0  0  0  0
    0.5347   -8.0908    8.0386 O   0  0  0  0  0  0  0  0  0  0  0  0
    6.3276   -8.5474   11.8090 C   0  0  0  0  0  0  0  0  0  0  0  0
    3.9380  -16.5330    8.1522 C   0  0  0  0  0  0  0  0  0  0  0  0
    3.9465   -6.3197   10.3799 O   0  0  0  0  0  0  0  0  0  0  0  0
  3  1  2  0
  5  4  2  0
  6  3  1  0
  7  2  1  0
  7  5  1  0
  9  1  1  0
 11  2  1  0
 13  9  1  0
 13 10  1  0
 14  5  1  0
 14 10  1  0
 15  7  2  3
 16 10  2  0
 17  4  2  0
 18  8  1  0
 18 12  2  0
 18 15  1  0
 19  6  2  0
 19  9  1  0
 20  2  1  0
M  END
>  <ID>  (1) 
conformer_0

$$$$
