
     RDKit          3D

 23 23  0  0  0  0  0  0  0  0999 V2000
    4.9341  -16.4106   10.4710 C   0  0  0  0  0  0  0  0  0  0  0  0
    2.4534   -7.7561    9.2757 C   0  0  0  0  0  0  0  0  0  0  0  0
    0.6625   -8.0285    8.2297 C   0  0  0  0  0  0  0  0  0  0  0  0
    5.4675  -17.5356    9.8441 C   0  0  0  0  0  0  0  0  0  0  0  0
    4.5036  -15.3681    9.3452 C   0  0  0  0  0  0  0  0  0  0  0  0
    6.8425   -8.0820   10.8370 O   0  0  0  0  0  0  0  0  0  0  0  0
    4.5900   -8.4757   10.6254 C   0  0  0  0  0  0  0  0  0  0  0  0
    4.4806   -6.4491   10.4719 O   0  0  0  0  0  0  0  0  0  0  0  0
    3.7185  -14.2339    9.5943 N   0  0  0  0  0  0  0  0  0  0  0  0
    3.4037   -8.0106    9.9593 C   0  0  0  0  0  0  0  0  0  0  0  0
    6.9854   -8.8473   13.2610 C   0  0  0  0  0  0  0  0  0  0  0  0
    6.4561   -8.6201   11.9846 C   0  0  0  0  0  0  0  0  0  0  0  0
    5.2031  -17.4943    8.4908 C   0  0  0  0  0  0  0  0  0  0  0  0
    2.1924  -10.6844    9.0254 O   0  0  0  0  0  0  0  0  0  0  0  0
    5.1857  -13.1590    8.8461 O   0  0  0  0  0  0  0  0  0  0  0  0
    3.8819  -12.9470    9.3493 C   0  0  0  0  0  0  0  0  0  0  0  0
    5.1940   -8.6072   11.5820 N   0  0  0  0  0  0  0  0  0  0  0  0
    0.8530   -8.2327    7.6607 O   0  0  0  0  0  0  0  0  0  0  0  0
    2.6935   -6.4467    9.3659 O   0  0  0  0  0  0  0  0  0  0  0  0
    3.4233  -11.9233    9.5906 N   0  0  0  0  0  0  0  0  0  0  0  0
    4.4396  -16.2083    8.0324 C   0  0  0  0  0  0  0  0  0  0  0  0
    1.5134   -9.5361    8.6057 C   0  0  0  0  0  0  0  0  0  0  0  0
    3.1993  -10.2383   10.0620 C   0  0  0  0  0  0  0  0  0  0  0  0
  3  2  1  0
  4  1  2  0
  5  1  1  0
  9  5  1  0
 10  2  1  0
 10  7  1  0
 10  8  1  0
 12  6  2  0
 12 11  1  0
 13  4  1  0
 16  9  1  0
 16 15  2  0
 17  7  1  0
 17 12  1  0
 18  3  1  0
 19  2  1  0
 20 16  1  0
 21  5  1  0
 21 13  2  0
 22  3  1  0
 22 14  1  0
 23 14  1  0
 23 20  1  0
M  END
>  <ID>  (1) 
conformer_0

$$$$
