
     RDKit          3D

 25 25  0  0  0  0  0  0  0  0999 V2000
    2.4073   -9.7000    9.6340 C   0  0  0  0  0  0  0  0  0  0  0  0
    4.0345  -16.5784    7.9921 C   0  0  0  0  0  0  0  0  0  0  0  0
    4.7205  -17.7029    7.9088 C   0  0  0  0  0  0  0  0  0  0  0  0
    2.7000   -7.6246    9.5638 C   0  0  0  0  0  0  0  0  0  0  0  0
    3.4837   -8.2501   10.2577 C   0  0  0  0  0  0  0  0  0  0  0  0
    6.3929   -7.8989   11.4029 O   0  0  0  0  0  0  0  0  0  0  0  0
    6.5278   -8.9497   12.2374 C   0  0  0  0  0  0  0  0  0  0  0  0
    4.4796  -15.7626    9.0631 C   0  0  0  0  0  0  0  0  0  0  0  0
    1.4063   -6.2245    9.0131 O   0  0  0  0  0  0  0  0  0  0  0  0
    6.9359   -9.2490   13.4097 C   0  0  0  0  0  0  0  0  0  0  0  0
    5.0245  -16.3966   10.0805 C   0  0  0  0  0  0  0  0  0  0  0  0
    2.4411  -10.5282    9.2794 O   0  0  0  0  0  0  0  0  0  0  0  0
    3.7959  -14.1762    9.5870 N   0  0  0  0  0  0  0  0  0  0  0  0
    5.3264   -9.3937   10.5900 C   0  0  0  0  0  0  0  0  0  0  0  0
    1.0823   -8.4127    7.8799 O   0  0  0  0  0  0  0  0  0  0  0  0
    4.6935  -13.3876    8.7953 O   0  0  0  0  0  0  0  0  0  0  0  0
    4.0455  -13.4948    9.5892 C   0  0  0  0  0  0  0  0  0  0  0  0
    3.5632   -6.3941   10.0050 O   0  0  0  0  0  0  0  0  0  0  0  0
    5.6232   -9.8857   11.2039 N   0  0  0  0  0  0  0  0  0  0  0  0
    4.4461  -10.9234   10.3853 N   0  0  0  0  0  0  0  0  0  0  0  0
    3.9653  -10.7007    9.9593 C   0  0  0  0  0  0  0  0  0  0  0  0
    5.5654  -18.2398    8.6992 C   0  0  0  0  0  0  0  0  0  0  0  0
    5.7809  -17.6024   10.0003 C   0  0  0  0  0  0  0  0  0  0  0  0
    1.2000   -7.6400    8.7576 C   0  0  0  0  0  0  0  0  0  0  0  0
    0.8387   -9.1722    7.9117 C   0  0  0  0  0  0  0  0  0  0  0  0
  3  2  2  0
  5  1  1  0
  5  4  1  0
  7  6  2  0
  8  2  1  0
 10  7  1  0
 11  8  2  0
 12  1  1  0
 17  8  1  0
 17 13  1  0
 17 16  1  0
 18  4  1  0
 19  7  1  0
 19 14  1  0
 20 14  1  0
 21 12  1  0
 21 17  1  0
 21 20  1  0
 22  3  1  0
 23 11  1  0
 23 22  2  0
 24  4  1  0
 24  9  1  0
 24 15  1  0
 25 15  1  0
M  END
>  <ID>  (1) 
conformer_0

$$$$
