
     RDKit          3D

 24 26  0  0  0  0  0  0  0  0999 V2000
    5.1863  -18.2006    8.5932 C   0  0  0  0  0  0  0  0  0  0  0  0
    3.3204  -10.1424    9.5799 C   0  0  0  0  0  0  0  0  0  0  0  0
    1.0719   -8.9718    7.9118 C   0  0  0  0  0  0  0  0  0  0  0  0
    5.3477  -17.5619    9.8249 C   0  0  0  0  0  0  0  0  0  0  0  0
    1.6528   -7.9372    8.9125 C   0  0  0  0  0  0  0  0  0  0  0  0
    6.9750   -8.8408   13.4570 C   0  0  0  0  0  0  0  0  0  0  0  0
    2.7093   -7.4281    9.6848 C   0  0  0  0  0  0  0  0  0  0  0  0
    7.5462   -8.4343   11.0766 O   0  0  0  0  0  0  0  0  0  0  0  0
    4.0581  -15.7057    9.1183 C   0  0  0  0  0  0  0  0  0  0  0  0
    6.6450   -8.7051   11.7573 C   0  0  0  0  0  0  0  0  0  0  0  0
    4.2381  -17.6856    7.8173 C   0  0  0  0  0  0  0  0  0  0  0  0
    4.1909   -6.3394   10.2238 O   0  0  0  0  0  0  0  0  0  0  0  0
    3.8899  -13.0149    9.4395 C   0  0  0  0  0  0  0  0  0  0  0  0
    1.7648   -6.0404    9.3347 O   0  0  0  0  0  0  0  0  0  0  0  0
    5.4319   -8.9189   11.5534 N   0  0  0  0  0  0  0  0  0  0  0  0
    3.1975  -11.2985    9.3108 O   0  0  0  0  0  0  0  0  0  0  0  0
    3.7286  -14.3360    9.6289 N   0  0  0  0  0  0  0  0  0  0  0  0
    0.4529   -7.5532    7.9586 O   0  0  0  0  0  0  0  0  0  0  0  0
    3.8665  -13.3796    8.5905 O   0  0  0  0  0  0  0  0  0  0  0  0
    4.6263  -16.4976   10.1644 C   0  0  0  0  0  0  0  0  0  0  0  0
    3.6362   -7.9738   10.2701 C   0  0  0  0  0  0  0  0  0  0  0  0
    4.6873   -9.4388   10.3367 C   0  0  0  0  0  0  0  0  0  0  0  0
    2.2933   -9.6958    8.5687 O   0  0  0  0  0  0  0  0  0  0  0  0
    3.6563  -16.5106    7.9322 C   0  0  0  0  0  0  0  0  0  0  0  0
  4  1  2  0
  5  3  1  0
  7  5  1  0
 10  6  1  0
 10  8  2  0
 11  1  1  0
 14  7  1  0
 15 10  1  0
 16  2  1  0
 16 13  1  0
 17  9  1  0
 17 13  1  0
 18  3  1  0
 18  5  1  0
 19 13  1  0
 20  4  1  0
 20  9  2  0
 21  7  1  0
 21 12  1  0
 22  2  1  0
 22 15  1  0
 22 21  1  0
 23  2  1  0
 23  3  1  0
 24  9  1  0
 24 11  2  0
M  END
>  <ID>  (1) 
conformer_0

$$$$
