
     RDKit          3D

 24 25  0  0  0  0  0  0  0  0999 V2000
    2.0887   -7.8767    9.2264 C   0  0  0  0  0  0  0  0  0  0  0  0
    3.9832  -16.4525    7.7743 C   0  0  0  0  0  0  0  0  0  0  0  0
    5.5950  -17.3780    9.9687 C   0  0  0  0  0  0  0  0  0  0  0  0
    2.1950   -9.7240    8.9076 C   0  0  0  0  0  0  0  0  0  0  0  0
    0.6151   -8.5534    7.9807 C   0  0  0  0  0  0  0  0  0  0  0  0
    6.6965   -9.2261   13.5261 C   0  0  0  0  0  0  0  0  0  0  0  0
    6.7248   -7.9272   11.1180 O   0  0  0  0  0  0  0  0  0  0  0  0
    4.2474  -15.6753    8.9067 C   0  0  0  0  0  0  0  0  0  0  0  0
    4.8726  -16.2092   10.0019 C   0  0  0  0  0  0  0  0  0  0  0  0
    2.9801   -7.3655   10.0210 C   0  0  0  0  0  0  0  0  0  0  0  0
    4.2658   -6.3019   10.2224 O   0  0  0  0  0  0  0  0  0  0  0  0
    6.4013   -8.7672   12.1489 C   0  0  0  0  0  0  0  0  0  0  0  0
    2.5140  -10.7930    8.9608 O   0  0  0  0  0  0  0  0  0  0  0  0
    4.1948  -11.0266    9.9457 C   0  0  0  0  0  0  0  0  0  0  0  0
    4.3471  -12.8896    8.8915 O   0  0  0  0  0  0  0  0  0  0  0  0
    1.1496   -8.2975    8.0803 O   0  0  0  0  0  0  0  0  0  0  0  0
    4.1052  -13.3264    9.1276 C   0  0  0  0  0  0  0  0  0  0  0  0
    3.7908  -14.4358    9.2460 N   0  0  0  0  0  0  0  0  0  0  0  0
    2.0585   -6.2919    9.3807 O   0  0  0  0  0  0  0  0  0  0  0  0
    4.6969  -17.6447    7.7784 C   0  0  0  0  0  0  0  0  0  0  0  0
    4.9714   -9.0260   10.8015 O   0  0  0  0  0  0  0  0  0  0  0  0
    3.5216   -9.6271   10.2216 C   0  0  0  0  0  0  0  0  0  0  0  0
    4.5650   -7.9398   10.3532 C   0  0  0  0  0  0  0  0  0  0  0  0
    5.5635  -17.9869    8.6858 C   0  0  0  0  0  0  0  0  0  0  0  0
  4  1  1  0
  8  2  2  0
  9  3  2  0
  9  8  1  0
 10  1  1  0
 12  6  1  0
 12  7  1  0
 13  4  1  0
 16  1  1  0
 16  5  1  0
 17 14  1  0
 17 15  2  0
 18  8  1  0
 18 17  1  0
 19 10  1  0
 20  2  1  0
 22  4  1  0
 22 14  1  0
 22 21  1  0
 23  7  1  0
 23 10  1  0
 23 11  1  0
 23 21  1  0
 24  3  1  0
 24 20  2  0
M  END
>  <ID>  (1) 
conformer_0

$$$$
