
     RDKit          3D

 24 24  0  0  0  0  0  0  0  0999 V2000
    2.9461   -7.5520   10.0447 C   0  0  0  0  0  0  0  0  0  0  0  0
    5.6367  -17.5373    9.1688 C   0  0  0  0  0  0  0  0  0  0  0  0
    4.7087  -17.5989    8.1313 C   0  0  0  0  0  0  0  0  0  0  0  0
    0.9487   -8.9497    7.8987 C   0  0  0  0  0  0  0  0  0  0  0  0
    1.6166   -8.0869    8.9707 C   0  0  0  0  0  0  0  0  0  0  0  0
    6.5999   -7.5731   11.3434 O   0  0  0  0  0  0  0  0  0  0  0  0
    4.3772   -8.2716   10.3678 C   0  0  0  0  0  0  0  0  0  0  0  0
    3.9268  -16.4271    8.2144 C   0  0  0  0  0  0  0  0  0  0  0  0
    3.7379  -13.7033    9.7193 N   0  0  0  0  0  0  0  0  0  0  0  0
    4.2391   -6.1037   10.3799 O   0  0  0  0  0  0  0  0  0  0  0  0
    3.9757  -10.7009   10.7495 N   0  0  0  0  0  0  0  0  0  0  0  0
    4.3927  -15.2421    9.2280 C   0  0  0  0  0  0  0  0  0  0  0  0
    0.8538   -8.0551    7.6568 O   0  0  0  0  0  0  0  0  0  0  0  0
    5.2154  -13.0151    8.9739 O   0  0  0  0  0  0  0  0  0  0  0  0
    2.8533   -9.7179    9.7170 C   0  0  0  0  0  0  0  0  0  0  0  0
    2.3347  -10.4353    9.1340 O   0  0  0  0  0  0  0  0  0  0  0  0
    6.8438   -9.3863   12.6509 C   0  0  0  0  0  0  0  0  0  0  0  0
    5.2969   -8.8102   11.5282 N   0  0  0  0  0  0  0  0  0  0  0  0
    3.8915  -12.6977    9.8133 C   0  0  0  0  0  0  0  0  0  0  0  0
    2.0400   -6.2082    9.3947 O   0  0  0  0  0  0  0  0  0  0  0  0
    5.3737  -16.2577    9.8183 C   0  0  0  0  0  0  0  0  0  0  0  0
    2.6796   -7.6067    9.5514 N   0  0  0  0  0  0  0  0  0  0  0  0
    4.5014  -10.6096   10.6965 C   0  0  0  0  0  0  0  0  0  0  0  0
    6.1016   -8.7567   11.5795 C   0  0  0  0  0  0  0  0  0  0  0  0
  3  2  2  0
  5  4  1  0
  7  1  1  0
  8  3  1  0
 10  1  1  0
 12  8  2  0
 12  9  1  0
 13  4  1  0
 15 11  1  0
 16 15  1  0
 18  7  1  0
 19  9  1  0
 19 11  1  0
 19 14  2  0
 21  2  1  0
 21 12  1  0
 22  1  1  0
 22  5  1  0
 22 20  1  0
 23  7  1  0
 23 11  1  0
 24  6  2  0
 24 17  1  0
 24 18  1  0
M  END
>  <ID>  (1) 
conformer_0

$$$$
