
     RDKit          3D

 18 18  0  0  0  0  0  0  0  0999 V2000
    2.1398   -7.4850    9.3096 C   0  0  1  0  0  0  0  0  0  0  0  0
    4.3401  -17.6509    7.9614 C   0  0  0  0  0  0  0  0  0  0  0  0
    5.0798  -17.5940    9.1117 C   0  0  0  0  0  0  0  0  0  0  0  0
    6.7791   -9.1525   13.5066 C   0  0  0  0  0  0  0  0  0  0  0  0
    0.9281   -8.8022    8.1338 C   0  0  0  0  0  0  0  0  0  0  0  0
    4.0451  -15.4333    8.9661 C   0  0  0  0  0  0  0  0  0  0  0  0
    3.4118   -7.7867   10.2534 C   0  0  0  0  0  0  0  0  0  0  0  0
    6.7796   -8.0655   11.1118 O   0  0  0  0  0  0  0  0  0  0  0  0
    6.3907   -8.7004   11.8678 C   0  0  0  0  0  0  0  0  0  0  0  0
    3.9625  -13.8741    9.3929 N   0  0  0  0  0  0  0  0  0  0  0  0
    4.0142   -9.9817   10.0931 C   0  0  0  0  0  0  0  0  0  0  0  0
    2.3582   -6.2172    9.2284 O   0  0  0  0  0  0  0  0  0  0  0  0
    4.8127  -16.5773    9.9262 C   0  0  0  0  0  0  0  0  0  0  0  0
    0.4846   -7.7948    8.0026 O   0  0  0  0  0  0  0  0  0  0  0  0
    4.7557   -9.8615   10.4869 N   0  0  0  0  0  0  0  0  0  0  0  0
    4.2180  -12.5081    9.5833 C   0  0  0  0  0  0  0  0  0  0  0  0
    2.3952   -9.4654    9.0153 C   0  0  2  0  0  0  0  0  0  0  0  0
    3.5793  -16.5455    7.7815 C   0  0  0  0  0  0  0  0  0  0  0  0
  3  2  2  0
  1  7  1  1
  9  4  1  0
  9  8  2  0
 10  6  1  0
 12  1  1  0
 13  3  1  0
 13  6  2  0
 14  5  2  0
 15  9  1  0
 15 11  2  3
 16 10  1  0
 16 11  1  0
 17  1  1  0
 17  5  1  1
 17 11  1  0
 18  2  1  0
 18  6  1  0
M  END
>  <ID>  (1) 
conformer_0

$$$$
