
     RDKit          3D

 25 25  0  0  0  0  0  0  0  0999 V2000
    5.6480  -17.1957    9.8568 C   0  0  0  0  0  0  0  0  0  0  0  0
    1.0744   -9.1597    7.8189 C   0  0  0  0  0  0  0  0  0  0  0  0
    4.4945  -16.2567   10.1491 C   0  0  0  0  0  0  0  0  0  0  0  0
    3.3736  -11.3586    8.8557 C   0  0  0  0  0  0  0  0  0  0  0  0
    6.5598   -8.8706   13.4745 C   0  0  0  0  0  0  0  0  0  0  0  0
    3.1903   -7.2997   10.1631 C   0  0  0  0  0  0  0  0  0  0  0  0
    4.0476  -13.5209    8.3743 C   0  0  0  0  0  0  0  0  0  0  0  0
    4.8599   -8.9060   10.9610 C   0  0  0  0  0  0  0  0  0  0  0  0
    3.7453  -17.3227    7.7458 C   0  0  0  0  0  0  0  0  0  0  0  0
    6.8750   -8.0773   11.2412 O   0  0  0  0  0  0  0  0  0  0  0  0
    4.1382  -15.5740    9.0559 C   0  0  0  0  0  0  0  0  0  0  0  0
    3.5522  -13.8244    9.2143 O   0  0  0  0  0  0  0  0  0  0  0  0
    1.9513   -6.1988    9.2311 O   0  0  0  0  0  0  0  0  0  0  0  0
    2.6356  -11.0338    8.8428 O   0  0  0  0  0  0  0  0  0  0  0  0
    1.3854   -8.5592    8.1386 O   0  0  0  0  0  0  0  0  0  0  0  0
    4.0094   -6.3221   10.2193 O   0  0  0  0  0  0  0  0  0  0  0  0
    5.0618  -18.0080    7.8654 C   0  0  0  0  0  0  0  0  0  0  0  0
    3.0731   -9.9550   10.0929 C   0  0  0  0  0  0  0  0  0  0  0  0
    5.1005   -9.1365   11.4994 N   0  0  0  0  0  0  0  0  0  0  0  0
    4.0752  -10.4605   10.9093 N   0  0  0  0  0  0  0  0  0  0  0  0
    6.6610   -8.6764   12.1924 C   0  0  0  0  0  0  0  0  0  0  0  0
    4.9511  -18.1721    9.2170 C   0  0  0  0  0  0  0  0  0  0  0  0
    3.9856  -16.0338    7.9315 C   0  0  0  0  0  0  0  0  0  0  0  0
    2.9249   -8.5754    9.6278 C   0  0  0  0  0  0  0  0  0  0  0  0
    1.4861   -7.6458    8.9057 C   0  0  0  0  0  0  0  0  0  0  0  0
  3  1  2  0
  7  4  1  0
 11  3  1  0
 12  7  1  0
 12 11  1  0
 14  4  1  0
 15  2  1  0
 16  6  1  0
 17  9  2  0
 18 14  1  0
 19  8  1  0
 20  8  1  0
 20 18  1  0
 21  5  1  0
 21 10  2  0
 21 19  1  0
 22  1  1  0
 22 17  1  0
 23  9  1  0
 23 11  2  0
 24  6  1  0
 24 18  1  0
 25 13  1  0
 25 15  1  0
 25 24  1  0
M  END
>  <ID>  (1) 
conformer_0

$$$$
