
     RDKit          3D

 23 23  0  0  0  0  0  0  0  0999 V2000
    3.9520  -17.4537    8.1423 C   0  0  0  0  0  0  0  0  0  0  0  0
    3.5053   -7.3957    9.9544 C   0  0  0  0  0  0  0  0  0  0  0  0
    3.5720  -16.2857    8.6236 C   0  0  0  0  0  0  0  0  0  0  0  0
    1.1103   -8.7671    7.9996 C   0  0  0  0  0  0  0  0  0  0  0  0
    6.8290   -7.9838   11.5989 O   0  0  0  0  0  0  0  0  0  0  0  0
    2.2276   -7.6798    9.1596 C   0  0  0  0  0  0  0  0  0  0  0  0
    5.3950  -16.1530    9.9283 C   0  0  0  0  0  0  0  0  0  0  0  0
    4.8101   -9.2419   10.2748 C   0  0  0  0  0  0  0  0  0  0  0  0
    1.6806   -6.1937    9.0423 O   0  0  0  0  0  0  0  0  0  0  0  0
    4.4221  -15.4364    9.2819 C   0  0  0  0  0  0  0  0  0  0  0  0
    4.0602   -6.2043   10.0752 O   0  0  0  0  0  0  0  0  0  0  0  0
    2.6244  -10.1978    9.4542 O   0  0  0  0  0  0  0  0  0  0  0  0
    3.2393   -9.3384    9.7852 C   0  0  0  0  0  0  0  0  0  0  0  0
    6.7312   -8.8147   13.6406 C   0  0  0  0  0  0  0  0  0  0  0  0
    5.2903   -9.5166   11.3431 N   0  0  0  0  0  0  0  0  0  0  0  0
    4.1910  -12.2373    9.8865 C   0  0  0  0  0  0  0  0  0  0  0  0
    3.6421  -13.4678    9.3342 O   0  0  0  0  0  0  0  0  0  0  0  0
    1.2469   -8.2320    8.0486 O   0  0  0  0  0  0  0  0  0  0  0  0
    5.7190  -17.4925    9.7263 C   0  0  0  0  0  0  0  0  0  0  0  0
    4.7285  -12.7948    9.8721 N   0  0  0  0  0  0  0  0  0  0  0  0
    3.9493  -11.1489   10.7053 N   0  0  0  0  0  0  0  0  0  0  0  0
    6.2891   -8.6231   12.1387 C   0  0  0  0  0  0  0  0  0  0  0  0
    5.0021  -18.1603    8.7789 C   0  0  0  0  0  0  0  0  0  0  0  0
  3  1  2  0
  6  2  1  0
  9  6  1  0
 10  3  1  0
 10  7  2  0
 11  2  1  0
 13  2  1  0
 13  8  1  0
 13 12  2  0
 15  8  1  0
 16 10  1  0
 18  4  1  0
 18  6  1  0
 19  7  1  0
 20 16  1  0
 20 17  1  0
 21  8  1  0
 21 16  1  0
 22  5  2  0
 22 14  1  0
 22 15  1  0
 23  1  1  0
 23 19  2  0
M  END
>  <ID>  (1) 
conformer_0

$$$$
