
     RDKit          3D

 21 22  0  0  0  0  0  0  0  0999 V2000
    5.4132  -17.6908    9.0746 C   0  0  0  0  0  0  0  0  0  0  0  0
    2.2673   -7.7166    9.3375 C   0  0  0  0  0  0  0  0  0  0  0  0
    3.7504   -7.7400   10.2621 C   0  0  0  0  0  0  0  0  0  0  0  0
    4.5126  -17.5974    8.0208 C   0  0  0  0  0  0  0  0  0  0  0  0
    3.7231  -16.4700    8.1293 C   0  0  0  0  0  0  0  0  0  0  0  0
    0.9873   -8.6512    8.0294 C   0  0  0  0  0  0  0  0  0  0  0  0
    4.5127   -9.9568   10.6978 C   0  0  0  0  0  0  0  0  0  0  0  0
    4.3737  -15.4572    9.1635 C   0  0  0  0  0  0  0  0  0  0  0  0
    3.9529  -14.1086    9.4063 N   0  0  0  0  0  0  0  0  0  0  0  0
    6.7813   -9.0293   13.2132 C   0  0  0  0  0  0  0  0  0  0  0  0
    4.2353   -6.2922   10.4273 O   0  0  0  0  0  0  0  0  0  0  0  0
    3.0862   -9.2717    9.9935 C   0  0  0  0  0  0  0  0  0  0  0  0
    2.4967   -9.9535    9.4433 O   0  0  0  0  0  0  0  0  0  0  0  0
    1.0257   -7.8228    8.1184 O   0  0  0  0  0  0  0  0  0  0  0  0
    4.0388  -12.4653    9.8087 C   0  0  0  0  0  0  0  0  0  0  0  0
    5.2819  -12.8028    8.7679 O   0  0  0  0  0  0  0  0  0  0  0  0
    3.1501  -12.2583   10.2147 O   0  0  0  0  0  1  0  0  0  0  0  0
    6.3039   -8.0884   11.1594 O   0  0  0  0  0  0  0  0  0  0  0  0
    5.4067  -16.5622    9.9241 C   0  0  0  0  0  0  0  0  0  0  0  0
    2.4072   -6.2959    9.4315 O   0  0  0  0  0  0  0  0  0  0  0  0
    5.9814   -8.7753   11.7196 C   0  0  0  0  0  0  0  0  0  0  0  0
  3  2  1  0
  4  1  2  0
  5  4  1  0
  8  5  2  0
  9  8  1  0
 11  3  1  0
 12  2  1  0
 12  3  1  0
 12  7  1  0
 13 12  1  0
 14  2  1  0
 14  6  1  0
 15  7  1  0
 15  9  1  0
 16 15  1  0
 17 15  1  0
 19  1  1  0
 19  8  1  0
 20  2  1  0
 21  7  1  0
 21 10  1  0
 21 18  2  0
M  RAD  1  17   2
M  END
>  <ID>  (1) 
conformer_0

$$$$
