
     RDKit          3D

 22 22  0  0  0  0  0  0  0  0999 V2000
    5.6120  -17.3892    9.9599 C   0  0  0  0  0  0  0  0  0  0  0  0
    3.1666   -7.6111   10.1343 C   0  0  0  0  0  0  0  0  0  0  0  0
    4.4765  -17.5291    7.9195 C   0  0  0  0  0  0  0  0  0  0  0  0
    6.8887   -9.0874   13.3452 C   0  0  0  0  0  0  0  0  0  0  0  0
    0.9764   -8.3906    8.3342 C   0  0  0  0  0  0  0  0  0  0  0  0
    1.9380   -7.5972    9.3203 C   0  0  0  0  0  0  0  0  0  0  0  0
    4.0074  -13.8493    8.9172 N   0  0  0  0  0  0  0  0  0  0  0  0
    7.1117   -8.0486   10.9682 O   0  0  0  0  0  0  0  0  0  0  0  0
    4.2611   -9.0703   10.2667 C   0  0  0  0  0  0  0  0  0  0  0  0
    5.0405  -16.1545   10.0660 C   0  0  0  0  0  0  0  0  0  0  0  0
    4.3926  -15.5346    9.0312 C   0  0  0  0  0  0  0  0  0  0  0  0
    5.1507   -9.0244   11.3296 N   0  0  0  0  0  0  0  0  0  0  0  0
    1.5970   -6.1751    8.9916 O   0  0  0  0  0  0  0  0  0  0  0  0
    2.5646  -11.3325    9.3889 O   0  0  0  0  0  0  0  0  0  0  0  0
    3.9239   -6.4166   10.2049 O   0  0  0  0  0  0  0  0  0  0  0  0
    2.6528   -9.8326    9.4771 C   0  0  0  0  0  0  0  0  0  0  0  0
    6.2212   -8.7486   11.5095 C   0  0  0  0  0  0  0  0  0  0  0  0
    3.7658  -12.3627    9.2532 C   0  0  0  0  0  0  0  0  0  0  0  0
    0.4578   -7.7243    7.7531 O   0  0  0  0  0  0  0  0  0  0  0  0
    5.4215  -18.0645    8.7449 C   0  0  0  0  0  0  0  0  0  0  0  0
    3.9375  -16.3441    8.0523 C   0  0  0  0  0  0  0  0  0  0  0  0
    3.9029  -10.9133   10.5282 N   0  0  0  0  0  0  0  0  0  0  0  0
  6  2  1  0
  6  5  1  0
  9  2  1  0
 10  1  2  0
 11  7  1  0
 11 10  1  0
 12  9  1  0
 13  6  1  0
 15  2  1  0
 16  9  1  0
 16 14  1  0
 17  4  1  0
 17  8  2  0
 17 12  1  0
 18  7  1  0
 18 14  1  0
 19  5  1  0
 20  1  1  0
 20  3  2  0
 21  3  1  0
 21 11  2  0
 22  9  1  0
M  END
>  <ID>  (1) 
conformer_0

$$$$
