
     RDKit          3D

 25 25  0  0  0  0  0  0  0  0999 V2000
    1.0017   -9.3252    7.8545 C   0  0  0  0  0  0  0  0  0  0  0  0
    5.3168  -18.1121    9.0156 C   0  0  0  0  0  0  0  0  0  0  0  0
    4.7650  -16.1157   10.2437 C   0  0  0  0  0  0  0  0  0  0  0  0
    2.7958   -9.3060    9.3704 C   0  0  0  0  0  0  0  0  0  0  0  0
    1.3761   -7.6172    8.8484 C   0  0  0  0  0  0  0  0  0  0  0  0
    7.4803   -8.8709   13.5612 C   0  0  0  0  0  0  0  0  0  0  0  0
    4.3147  -15.4495    9.0410 C   0  0  0  0  0  0  0  0  0  0  0  0
    7.3803   -8.2986   11.4702 O   0  0  0  0  0  0  0  0  0  0  0  0
    2.4623   -7.0161   10.0095 C   0  0  1  0  0  0  0  0  0  0  0  0
    4.1660   -6.1840   10.3305 O   0  0  0  0  0  0  0  0  0  0  0  0
    3.3751   -7.5908   10.3890 C   0  0  2  0  0  0  0  0  0  0  0  0
    1.5352   -5.8178    9.2574 O   0  0  0  0  0  0  0  0  0  0  0  0
    4.1150  -16.3005    8.0231 C   0  0  0  0  0  0  0  0  0  0  0  0
    4.3045  -13.6757    9.3285 N   0  0  0  0  0  0  0  0  0  0  0  0
    4.8925   -8.9093   10.6566 C   0  0  0  0  0  0  0  0  0  0  0  0
    2.4732  -10.0740    8.9839 O   0  0  0  0  0  0  0  0  0  0  0  0
    5.7229   -9.1009   11.5412 N   0  0  0  0  0  0  0  0  0  0  0  0
    0.6012   -7.9512    8.0648 O   0  0  0  0  0  0  0  0  0  0  0  0
    4.1322  -12.7477    8.7987 C   0  0  1  0  0  0  0  0  0  0  0  0
    3.9707  -13.3388    7.9127 O   0  0  0  0  0  0  0  0  0  0  0  0
    5.4243  -17.4039   10.2109 C   0  0  0  0  0  0  0  0  0  0  0  0
    4.2496  -11.2493   10.2826 N   0  0  0  0  0  0  0  0  0  0  0  0
    6.7729   -8.6993   12.0527 C   0  0  0  0  0  0  0  0  0  0  0  0
    4.3525  -10.5373    9.6512 C   0  0  1  0  0  0  0  0  0  0  0  0
    4.5625  -17.7167    8.0373 C   0  0  0  0  0  0  0  0  0  0  0  0
  7  3  2  0
  9  5  1  0
 11  9  1  0
 11 10  1  6
  9 12  1  6
 13  7  1  0
 15 11  1  0
 16  4  1  0
 17 15  2  3
 18  1  1  0
 18  5  1  0
 19  7  1  0
 20 14  1  0
 20 19  1  0
 21  2  2  0
 21  3  1  0
 19 22  1  1
 23  6  1  0
 23  8  2  0
 23 17  1  0
 24  4  1  1
 24 15  1  0
 24 22  1  0
 25  2  1  0
 25 13  2  0
M  END
>  <ID>  (1) 
conformer_0

$$$$
