
     RDKit          3D

 22 22  0  0  0  0  0  0  0  0999 V2000
    5.5077  -17.7449    8.8407 C   0  0  0  0  0  0  0  0  0  0  0  0
    2.3103   -7.6598    9.4345 C   0  0  1  0  0  0  0  0  0  0  0  0
    0.7391   -8.3474    8.1775 C   0  0  2  0  0  0  0  0  0  0  0  0
    3.2517   -7.4024   10.0048 C   0  0  2  0  0  0  0  0  0  0  0  0
    6.5872   -7.7793   11.2238 O   0  0  0  0  0  0  0  0  0  0  0  0
    1.5870   -9.8428    8.9955 C   0  0  0  0  0  0  0  0  0  0  0  0
    6.3597   -9.0678   11.5467 C   0  0  1  0  0  0  0  0  0  0  0  0
    4.1802  -15.5442    9.1677 C   0  0  1  0  0  0  0  0  0  0  0  0
    4.1819   -6.1123    9.9567 O   0  0  0  0  0  0  0  0  0  0  0  0
    7.2049   -8.9903   13.1366 C   0  0  0  0  0  0  0  0  0  0  0  0
    1.5427   -6.1881    9.1341 O   0  0  0  0  0  0  0  0  0  0  0  0
    5.1150  -16.6552    9.9236 C   0  0  0  0  0  0  0  0  0  0  0  0
    5.9158  -13.0575    9.3934 O   0  0  0  0  0  0  0  0  0  0  0  0
    4.0779  -13.9162    9.8045 N   0  0  0  0  0  0  0  0  0  0  0  0
    2.3682  -10.1452    9.3314 O   0  0  0  0  0  0  0  0  0  0  0  0
    4.4175  -12.9762    9.7039 C   0  0  0  0  0  0  0  0  0  0  0  0
    4.8516  -10.7540   10.6276 N   0  0  0  0  0  0  0  0  0  0  0  0
    1.1246   -8.2196    7.8934 O   0  0  0  0  0  0  0  0  0  0  0  0
    4.4068  -16.7301    7.8639 C   0  0  0  0  0  0  0  0  0  0  0  0
    3.8169  -17.4891    8.0587 C   0  0  0  0  0  0  0  0  0  0  0  0
    4.5031   -8.3876   10.2404 C   0  0  0  0  0  0  0  0  0  0  0  0
    3.6752  -10.8570   10.1805 C   0  0  0  0  0  0  0  0  0  0  0  0
  3  2  1  0
  4  2  1  0
  6  3  1  0
  7  5  1  0
  4  9  1  6
  7 10  1  1
  2 11  1  6
 12  1  2  0
 12  8  1  0
  8 14  1  6
 15  6  1  0
 16 13  2  0
 16 14  1  0
  3 18  1  6
 19  1  1  0
 19  8  1  0
 20 19  2  3
 21  4  1  0
 21  7  1  0
 22 15  1  0
 22 16  1  0
 22 17  2  3
M  END
>  <ID>  (1) 
conformer_0

$$$$
