
     RDKit          3D

 23 24  0  0  0  0  0  0  0  0999 V2000
    2.0416   -8.2660    9.3417 C   0  0  0  0  0  0  0  0  0  0  0  0
    4.6670  -16.8405   10.1606 C   0  0  0  0  0  0  0  0  0  0  0  0
    5.3750  -17.8154    9.4137 C   0  0  0  0  0  0  0  0  0  0  0  0
    6.8527   -9.2487   13.1770 C   0  0  0  0  0  0  0  0  0  0  0  0
    0.9849   -8.6727    8.1031 C   0  0  0  0  0  0  0  0  0  0  0  0
    6.7294   -7.8760   11.3219 O   0  0  0  0  0  0  0  0  0  0  0  0
    4.3952   -8.4030   10.3828 C   0  0  0  0  0  0  0  0  0  0  0  0
    4.4292  -15.6253    9.1635 C   0  0  0  0  0  0  0  0  0  0  0  0
    3.3355  -10.4969    9.9237 C   0  0  0  0  0  0  0  0  0  0  0  0
    1.4777   -6.1650    9.1372 O   0  0  0  0  0  0  0  0  0  0  0  0
    5.1148  -17.7149    8.0830 C   0  0  0  0  0  0  0  0  0  0  0  0
    3.9717  -12.9893    9.7637 C   0  0  0  0  0  0  0  0  0  0  0  0
    4.0655   -6.2228   10.2370 O   0  0  0  0  0  0  0  0  0  0  0  0
    0.3318   -7.9539    7.7728 O   0  0  0  0  0  0  0  0  0  0  0  0
    3.1512  -11.8420    9.7958 O   0  0  0  0  0  0  0  0  0  0  0  0
    3.6477  -14.5548    9.4714 N   0  0  0  0  0  0  0  0  0  0  0  0
    4.9584  -13.5163    9.2873 O   0  0  0  0  0  0  0  0  0  0  0  0
    4.2622  -10.1515   10.3880 N   0  0  0  0  0  0  0  0  0  0  0  0
    2.9213   -7.3354    9.6967 C   0  0  0  0  0  0  0  0  0  0  0  0
    2.1355   -9.9436    8.8161 O   0  0  0  0  0  0  0  0  0  0  0  0
    4.9862   -8.5472   11.3262 N   0  0  0  0  0  0  0  0  0  0  0  0
    4.3562  -16.4492    7.8610 C   0  0  0  0  0  0  0  0  0  0  0  0
    6.2037   -8.9226   11.6436 C   0  0  0  0  0  0  0  0  0  0  0  0
  3  2  2  0
  5  1  1  0
  8  2  1  0
 11  3  1  0
 14  5  2  0
 15  9  1  0
 15 12  1  0
 16  8  1  0
 16 12  1  0
 17 12  2  0
 18  7  1  0
 18  9  2  0
 19  1  1  0
 19  7  1  0
 19 10  1  0
 19 13  1  0
 20  1  1  0
 20  9  1  0
 21  7  1  0
 22  8  1  0
 22 11  2  0
 23  4  1  0
 23  6  1  0
 23 21  1  0
M  END
>  <ID>  (1) 
conformer_0

$$$$
