
     RDKit          3D

 24 24  0  0  0  0  0  0  0  0999 V2000
    3.7335  -10.4775    9.5478 C   0  0  0  0  0  0  0  0  0  0  0  0
    5.4457  -17.8561    9.2850 C   0  0  0  0  0  0  0  0  0  0  0  0
    4.7503  -17.6431    8.1359 C   0  0  0  0  0  0  0  0  0  0  0  0
    1.3786   -9.4055    7.6106 C   0  0  0  0  0  0  0  0  0  0  0  0
    4.2448  -15.7268    9.4839 C   0  0  0  0  0  0  0  0  0  0  0  0
    7.3296   -8.8494   13.4583 C   0  0  0  0  0  0  0  0  0  0  0  0
    6.5580   -7.9282   10.9254 O   0  0  0  0  0  0  0  0  0  0  0  0
    2.8808   -7.4618   10.0589 C   0  0  2  0  0  0  0  0  0  0  0  0
    4.4333   -8.6697   10.5962 C   0  0  0  0  0  0  0  0  0  0  0  0
    1.6899   -6.1607    9.1178 O   0  0  0  0  0  0  0  0  0  0  0  0
    5.1252  -16.8784   10.3088 C   0  0  0  0  0  0  0  0  0  0  0  0
    6.6332   -8.6356   11.9320 C   0  0  0  0  0  0  0  0  0  0  0  0
    4.4965  -13.1232    9.3147 C   0  0  0  0  0  0  0  0  0  0  0  0
    5.6046  -12.9362    9.1530 O   0  0  0  0  0  0  0  0  0  0  0  0
    2.4700  -10.4908    9.2188 O   0  0  0  0  0  0  0  0  0  0  0  0
    3.8114   -6.2985   10.3689 O   0  0  0  0  0  0  0  0  0  0  0  0
    1.0984   -8.1853    7.7974 O   0  0  0  0  0  0  0  0  0  0  0  0
    5.4333   -9.0677   11.6664 N   0  0  0  0  0  0  0  0  0  0  0  0
    3.8172  -14.2202    9.6729 O   0  0  0  0  0  0  0  0  0  0  0  0
    4.8096  -10.5538   10.0667 N   0  0  0  0  0  0  0  0  0  0  0  0
    3.9898  -16.4946    8.0434 C   0  0  0  0  0  0  0  0  0  0  0  0
    2.8300   -8.7379    9.4596 C   0  0  1  0  0  0  0  0  0  0  0  0
    3.9479  -11.9568    9.2122 N   0  0  0  0  0  0  0  0  0  0  0  0
    1.2934   -7.7395    8.6998 C   0  0  1  0  0  0  0  0  0  0  0  0
  3  2  2  0
 11  2  1  0
 11  5  1  0
 12  6  1  0
 12  7  2  0
 14 13  2  0
 15  1  1  0
  8 16  1  6
 17  4  1  0
 18  9  1  0
 18 12  1  0
 19  5  1  0
 19 13  1  0
 20  1  2  3
 21  3  1  0
 21  5  2  0
 22  8  1  0
 22  9  1  1
 22 15  1  0
 23  1  1  0
 23 13  1  0
 24  8  1  0
 24 10  1  6
 24 17  1  0
M  END
>  <ID>  (1) 
conformer_0

$$$$
