
     RDKit          3D

 25 26  0  0  0  0  0  0  0  0999 V2000
    2.9543   -7.4357    9.4066 C   0  0  0  0  0  0  0  0  0  0  0  0
    5.5631  -17.8095    9.1397 C   0  0  0  0  0  0  0  0  0  0  0  0
    1.3564   -9.3639    7.6462 C   0  0  0  0  0  0  0  0  0  0  0  0
    5.2568  -16.7303   10.0106 C   0  0  0  0  0  0  0  0  0  0  0  0
    1.3449   -7.7824    8.6652 C   0  0  0  0  0  0  0  0  0  0  0  0
    6.7713   -7.8613   11.6870 O   0  0  0  0  0  0  0  0  0  0  0  0
    3.7910  -14.5102    9.6260 N   0  0  0  0  0  0  0  0  0  0  0  0
    3.7588   -7.9120   10.4663 C   0  0  0  0  0  0  0  0  0  0  0  0
    4.3451  -15.6778    9.1710 C   0  0  0  0  0  0  0  0  0  0  0  0
    1.8668   -6.2551    8.9072 O   0  0  0  0  0  0  0  0  0  0  0  0
    0.4772   -8.0683    7.8648 O   0  0  0  0  0  0  0  0  0  0  0  0
    4.1326   -6.3207   10.0927 O   0  0  0  0  0  0  0  0  0  0  0  0
    2.2125   -9.9139    9.5086 O   0  0  0  0  0  0  0  0  0  0  0  0
    2.5757   -9.2557    9.6714 C   0  0  0  0  0  0  0  0  0  0  0  0
    4.1911  -16.3680    7.8565 C   0  0  0  0  0  0  0  0  0  0  0  0
    3.8890  -13.3510    9.8316 C   0  0  0  0  0  0  0  0  0  0  0  0
    5.2950  -13.0377    9.0655 O   0  0  0  0  0  0  0  0  0  0  0  0
    5.5844   -9.2796   11.9332 N   0  0  0  0  0  0  0  0  0  0  0  0
    7.0983   -9.1169   13.5544 C   0  0  0  0  0  0  0  0  0  0  0  0
    4.6150  -10.0732   10.3593 N   0  0  0  0  0  0  0  0  0  0  0  0
    2.8557  -12.0600   10.0840 O   0  0  0  0  0  0  0  0  0  0  0  0
    6.3443   -8.6407   12.0360 C   0  0  0  0  0  0  0  0  0  0  0  0
    4.9139  -17.6459    7.9435 C   0  0  0  0  0  0  0  0  0  0  0  0
    3.7116  -10.7038   10.1592 C   0  0  0  0  0  0  0  0  0  0  0  0
    5.1779   -9.2106   10.4518 C   0  0  0  0  0  0  0  0  0  0  0  0
  4  2  2  0
  5  1  1  0
  8  1  1  0
  9  4  1  0
  9  7  1  0
 10  5  1  0
 11  3  1  0
 11  5  1  0
 12  8  1  0
 14  1  1  0
 14 13  2  0
 15  9  2  0
 16  7  1  0
 17 16  2  0
 21 16  1  0
 22  6  2  0
 22 18  1  0
 22 19  1  0
 23  2  1  0
 23 15  1  0
 24 14  1  0
 24 20  2  0
 24 21  1  0
 25  8  1  0
 25 18  1  0
 25 20  1  0
M  END
>  <ID>  (1) 
conformer_0

$$$$
