
     RDKit          3D

 25 26  0  0  0  0  0  0  0  0999 V2000
    2.5705   -9.4055    9.5645 C   0  0  0  0  0  0  0  0  0  0  0  0
    5.3266  -17.8129    9.1419 C   0  0  0  0  0  0  0  0  0  0  0  0
    4.8441  -17.6939    7.8795 C   0  0  0  0  0  0  0  0  0  0  0  0
    0.7381   -8.7663    8.0440 C   0  0  0  0  0  0  0  0  0  0  0  0
    3.8853   -8.0155   10.4025 C   0  0  0  0  0  0  0  0  0  0  0  0
    2.7591   -7.1706   10.0564 C   0  0  0  0  0  0  0  0  0  0  0  0
    4.3186  -15.6809    9.1480 C   0  0  0  0  0  0  0  0  0  0  0  0
    6.8114   -7.9299   11.5707 O   0  0  0  0  0  0  0  0  0  0  0  0
    7.0285   -9.2934   13.3554 C   0  0  0  0  0  0  0  0  0  0  0  0
    3.8449  -11.2449   10.0488 C   0  0  0  0  0  0  0  0  0  0  0  0
    4.1376  -16.4347    7.7284 C   0  0  0  0  0  0  0  0  0  0  0  0
    3.8411  -14.5645    9.6093 N   0  0  0  0  0  0  0  0  0  0  0  0
    4.2526   -6.2795   10.2338 O   0  0  0  0  0  0  0  0  0  0  0  0
    0.3365   -7.4715    7.9545 O   0  0  0  0  0  0  0  0  0  0  0  0
    5.2746  -13.1309    8.5883 O   0  0  0  0  0  0  0  0  0  0  0  0
    1.8657   -6.0817    9.2493 O   0  0  0  0  0  0  0  0  0  0  0  0
    2.0612   -9.7408    9.2305 O   0  0  0  0  0  0  0  0  0  0  0  0
    4.0919  -13.2650    9.5139 C   0  0  0  0  0  0  0  0  0  0  0  0
    5.1537   -9.3694   10.6061 C   0  0  0  0  0  0  0  0  0  0  0  0
    4.2051  -12.0165   10.5949 N   0  0  0  0  0  0  0  0  0  0  0  0
    3.9699   -9.5672   10.4424 N   0  0  0  0  0  0  0  0  0  0  0  0
    4.9350  -16.8985   10.0763 C   0  0  0  0  0  0  0  0  0  0  0  0
    3.0287  -11.6006    9.2411 O   0  0  0  0  0  0  0  0  0  0  0  0
    6.5194   -8.6640   12.0422 C   0  0  0  0  0  0  0  0  0  0  0  0
    1.5553   -7.7120    9.0065 C   0  0  0  0  0  0  0  0  0  0  0  0
  3  2  2  0
  6  5  1  0
 11  3  1  0
 11  7  2  0
 12  7  1  0
 13  6  1  0
 14  4  1  0
 16  6  1  0
 17  1  2  0
 18 12  1  0
 18 15  2  0
 19 10  1  0
 20 10  1  0
 20 18  1  0
 21  1  1  0
 21  5  1  0
 21 19  1  0
 22  2  1  0
 22  7  1  0
 23 10  2  0
 24  8  2  0
 24  9  1  0
 24 19  1  0
 25  4  1  0
 25  6  1  0
 25 14  1  0
M  END
>  <ID>  (1) 
conformer_0

$$$$
