
     RDKit          3D

 20 21  0  0  0  0  0  0  0  0999 V2000
    3.2630   -7.4082   10.0884 C   0  0  0  0  0  0  0  0  0  0  0  0
    4.9118  -16.5673   10.1029 C   0  0  0  0  0  0  0  0  0  0  0  0
    5.4401  -17.6737    9.4111 C   0  0  0  0  0  0  0  0  0  0  0  0
    1.1857   -8.7086    8.0753 C   0  0  0  0  0  0  0  0  0  0  0  0
    4.1183  -15.9187    9.0297 C   0  0  0  0  0  0  0  0  0  0  0  0
    4.2254   -8.9886   10.3093 C   0  0  0  0  0  0  0  0  0  0  0  0
    2.1796   -7.9648    9.3072 C   0  0  0  0  0  0  0  0  0  0  0  0
    6.7672   -8.8767   13.6779 C   0  0  0  0  0  0  0  0  0  0  0  0
    6.8497   -7.7064   11.0526 O   0  0  0  0  0  0  0  0  0  0  0  0
    3.0379  -10.2688    9.6011 C   0  0  0  0  0  0  0  0  0  0  0  0
    2.6548  -10.8992    8.9255 O   0  0  0  0  0  0  0  0  0  0  0  0
    3.3906  -13.6589    9.6318 O   0  0  0  0  0  0  0  0  0  0  0  0
    3.8385  -12.9001    9.5133 C   0  0  0  0  0  0  0  0  0  0  0  0
    3.6199   -6.2324   10.0591 O   0  0  0  0  0  0  0  0  0  0  0  0
    3.6796  -16.5871    7.7913 C   0  0  0  0  0  0  0  0  0  0  0  0
    5.4997   -8.9042   11.4979 N   0  0  0  0  0  0  0  0  0  0  0  0
    0.9141   -8.0993    8.3318 O   0  0  0  0  0  0  0  0  0  0  0  0
    4.3658  -10.7566   10.4755 N   0  0  0  0  0  0  0  0  0  0  0  0
    4.6229  -17.7966    7.9308 C   0  0  0  0  0  0  0  0  0  0  0  0
    6.1956   -8.4402   11.5342 C   0  0  0  0  0  0  0  0  0  0  0  0
  3  2  2  0
  5  2  1  0
  6  1  1  0
  7  1  1  0
 10  6  1  0
 11 10  1  0
 12  5  1  0
 13 12  1  0
 14  1  1  0
 15  5  1  0
 16  6  1  0
 17  4  1  0
 17  7  1  0
 18  6  1  0
 18 10  1  0
 18 13  1  0
 19  3  1  0
 19 15  2  0
 20  8  1  0
 20  9  2  0
 20 16  1  0
M  END
>  <ID>  (1) 
conformer_0

$$$$
