
     RDKit          3D

 23 23  0  0  0  0  0  0  0  0999 V2000
    2.5860   -7.4977    9.7898 C   0  0  0  0  0  0  0  0  0  0  0  0
    3.8982  -17.5912    7.9020 C   0  0  0  0  0  0  0  0  0  0  0  0
    5.6328  -17.5285    9.4437 C   0  0  0  0  0  0  0  0  0  0  0  0
    1.0441   -8.2151    8.4627 C   0  0  0  0  0  0  0  0  0  0  0  0
    6.9528   -9.1141   12.8355 C   0  0  0  0  0  0  0  0  0  0  0  0
    3.7579   -9.7496   10.1834 C   0  0  2  0  0  0  0  0  0  0  0  0
    6.6330   -7.6703   10.9427 O   0  0  0  0  0  0  0  0  0  0  0  0
    3.7005  -14.3920    9.6455 N   0  0  0  0  0  0  0  0  0  0  0  0
    3.4874  -16.4746    8.3046 C   0  0  0  0  0  0  0  0  0  0  0  0
    3.7180   -7.7605   10.2804 C   0  0  0  0  0  0  0  0  0  0  0  0
    4.2516   -6.2032   10.1713 O   0  0  0  0  0  0  0  0  0  0  0  0
    2.3891  -10.3509    9.1060 O   0  0  0  0  0  0  0  0  0  0  0  0
    4.1833  -15.6323    9.2048 C   0  0  0  0  0  0  0  0  0  0  0  0
    5.9123   -8.5355   11.4509 C   0  0  0  0  0  0  0  0  0  0  0  0
    1.9880   -6.1571    9.3016 O   0  0  0  0  0  0  0  0  0  0  0  0
    3.8904  -12.4281    9.6397 C   0  0  2  0  0  0  0  0  0  0  0  0
    1.6616   -7.9210    7.9988 O   0  0  0  0  0  0  0  0  0  0  0  0
    4.9376   -8.9773   11.2657 N   0  0  0  0  0  0  0  0  0  0  0  0
    5.1488  -16.3596    9.8376 C   0  0  0  0  0  0  0  0  0  0  0  0
    3.5892  -12.3198    8.9391 O   0  0  0  0  0  0  0  0  0  0  0  0
    2.0234   -9.6028    8.9726 C   0  0  0  0  0  0  0  0  0  0  0  0
    4.2148  -11.6490   10.3485 N   0  0  0  0  0  0  0  0  0  0  0  0
    5.0713  -18.0952    8.3047 C   0  0  0  0  0  0  0  0  0  0  0  0
  9  2  2  0
 10  1  2  3
 10  6  1  0
 11 10  1  0
 12  6  1  0
 13  8  1  0
 13  9  1  0
 14  5  1  0
 14  7  2  0
 15  1  1  0
 16  8  1  0
 17  4  1  0
  6 18  1  1
 18 14  1  0
 19  3  1  0
 19 13  2  0
 20 16  1  0
 21  4  1  0
 21 12  1  0
 21 16  1  0
 16 22  1  6
 23  2  1  0
 23  3  2  0
M  END
>  <ID>  (1) 
conformer_0

$$$$
