
     RDKit          3D

 25 27  0  0  0  0  0  0  0  0999 V2000
    4.7165   -9.9073   10.4649 C   0  0  0  0  0  0  0  0  0  0  0  0
    4.4912  -17.6169    7.8271 C   0  0  0  0  0  0  0  0  0  0  0  0
    5.4730  -17.6249    9.8977 C   0  0  0  0  0  0  0  0  0  0  0  0
    1.0295   -9.7010    8.4076 C   0  0  0  0  0  0  0  0  0  0  0  0
    6.9375   -8.6745   13.6513 C   0  0  0  0  0  0  0  0  0  0  0  0
    3.9892  -16.4509    8.0238 C   0  0  0  0  0  0  0  0  0  0  0  0
    1.0873   -7.8630    8.4183 C   0  0  0  0  0  0  0  0  0  0  0  0
    6.6240   -7.5862   11.4259 O   0  0  0  0  0  0  0  0  0  0  0  0
    1.7814   -6.1241    9.2580 O   0  0  0  0  0  0  0  0  0  0  0  0
    2.2639   -9.8703    9.1343 O   0  0  0  0  0  0  0  0  0  0  0  0
    4.4158  -15.5133    9.0769 C   0  0  0  0  0  0  0  0  0  0  0  0
    2.4553   -7.6203    9.6045 C   0  0  0  0  0  0  0  0  0  0  0  0
    3.9719   -6.2523   10.4428 O   0  0  0  0  0  0  0  0  0  0  0  0
    4.0322   -7.9933   10.5047 C   0  0  0  0  0  0  0  0  0  0  0  0
    0.3506   -7.5727    8.3474 O   0  0  0  0  0  0  0  0  0  0  0  0
    5.0804  -13.5871    8.8046 O   0  0  0  0  0  0  0  0  0  0  0  0
    5.0830   -8.6438   11.4875 N   0  0  0  0  0  0  0  0  0  0  0  0
    4.8760  -16.3959   10.0652 C   0  0  0  0  0  0  0  0  0  0  0  0
    3.7121  -14.0316    8.7908 N   0  0  0  0  0  0  0  0  0  0  0  0
    6.1975   -8.2792   12.0905 C   0  0  0  0  0  0  0  0  0  0  0  0
    3.1263   -9.4131    9.6675 C   0  0  0  0  0  0  0  0  0  0  0  0
    4.5282  -11.9261   10.4151 N   0  0  0  0  0  0  0  0  0  0  0  0
    3.1717  -11.8437    9.1990 O   0  0  0  0  0  0  0  0  0  0  0  0
    4.1657  -12.4171    9.7349 C   0  0  0  0  0  0  0  0  0  0  0  0
    5.2699  -18.3216    8.6623 C   0  0  0  0  0  0  0  0  0  0  0  0
  6  2  2  0
  7  4  1  0
 10  4  1  0
 11  6  1  0
 12  7  1  0
 12  9  1  0
 14 12  1  0
 14 13  1  0
 15  7  1  0
 17 14  1  0
 18  3  1  0
 18 11  2  0
 19 11  1  0
 19 16  1  0
 20  5  1  0
 20  8  2  0
 20 17  1  0
 21  1  1  0
 21 10  1  0
 21 12  1  0
 21 14  1  0
 22  1  1  0
 24 16  1  0
 24 22  1  0
 24 23  2  0
 25  2  1  0
 25  3  2  0
M  END
>  <ID>  (1) 
conformer_0

$$$$
