
     RDKit          3D

 26 26  0  0  0  0  0  0  0  0999 V2000
    5.4691  -17.6027    9.5597 C   0  0  0  0  0  0  0  0  0  0  0  0
    4.9878  -16.4909   10.1125 C   0  0  0  0  0  0  0  0  0  0  0  0
    1.3037   -7.7727    8.7211 C   0  0  0  0  0  0  0  0  0  0  0  0
    3.1190   -7.4206    9.5055 C   0  0  0  0  0  0  0  0  0  0  0  0
    0.6177   -9.3717    8.1635 C   0  0  0  0  0  0  0  0  0  0  0  0
    7.0052   -8.1630   11.4331 O   0  0  0  0  0  0  0  0  0  0  0  0
    6.8636   -9.0693   12.0881 C   0  0  0  0  0  0  0  0  0  0  0  0
    4.1217  -17.2939    7.7158 C   0  0  0  0  0  0  0  0  0  0  0  0
    3.9316  -14.1139    9.5653 N   0  0  0  0  0  0  0  0  0  0  0  0
    2.8354   -9.6529    9.8269 C   0  0  0  0  0  0  0  0  0  0  0  0
    4.3478  -15.4643    9.2321 C   0  0  0  0  0  0  0  0  0  0  0  0
    4.8262  -10.3004   10.4133 N   0  0  0  0  0  0  0  0  0  0  0  0
    1.5401   -6.1265    9.0356 O   0  0  0  0  0  0  0  0  0  0  0  0
    2.2570   -9.7025    9.6007 O   0  0  0  0  0  0  0  0  0  0  0  0
    4.2468   -6.3636    9.9084 O   0  0  0  0  0  0  0  0  0  0  0  0
    0.8535   -8.1304    7.9375 O   0  0  0  0  0  0  0  0  0  0  0  0
    7.0927   -9.2832   13.5238 C   0  0  0  0  0  0  0  0  0  0  0  0
    4.8873   -8.7018   10.6615 C   0  0  0  0  0  0  0  0  0  0  0  0
    5.6949   -9.4136   11.7408 N   0  0  0  0  0  0  0  0  0  0  0  0
    4.7264  -10.5201   10.3468 C   0  0  0  0  0  0  0  0  0  0  0  0
    3.8436  -16.0275    8.0784 C   0  0  0  0  0  0  0  0  0  0  0  0
    5.3497  -12.8675    9.0926 O   0  0  0  0  0  0  0  0  0  0  0  0
    3.0669   -7.5799   10.3367 C   0  0  0  0  0  0  0  0  0  0  0  0
    5.0938  -18.0117    8.3211 C   0  0  0  0  0  0  0  0  0  0  0  0
    4.2697  -12.1296   10.3097 N   0  0  0  0  0  0  0  0  0  0  0  0
    4.3644  -12.6782    9.6762 C   0  0  0  0  0  0  0  0  0  0  0  0
  2  1  2  0
  4  3  1  0
  7  6  1  0
 11  2  1  0
 11  9  1  0
 13  3  1  0
 14 10  2  0
 15  4  1  0
 16  3  1  0
 16  5  1  0
 17  7  1  0
 18 12  1  0
 19  7  1  0
 19 18  1  0
 20 10  1  0
 20 12  1  0
 21  8  1  0
 21 11  2  0
 23  4  1  0
 23 10  1  0
 24  1  1  0
 24  8  2  0
 25 20  1  0
 26  9  1  0
 26 22  2  0
 26 25  1  0
M  END
>  <ID>  (1) 
conformer_0

$$$$
