
     RDKit          3D

 22 22  0  0  0  0  0  0  0  0999 V2000
    3.8305  -10.5522   10.0544 C   0  0  0  0  0  0  0  0  0  0  0  0
    5.5170  -17.9409    8.9196 C   0  0  0  0  0  0  0  0  0  0  0  0
    2.2095   -7.9980    9.1246 C   0  0  0  0  0  0  0  0  0  0  0  0
    4.7408  -17.9446    7.8121 C   0  0  0  0  0  0  0  0  0  0  0  0
    4.0705  -13.3541    9.4994 C   0  0  0  0  0  0  0  0  0  0  0  0
    7.0168   -9.1197   13.2691 C   0  0  0  0  0  0  0  0  0  0  0  0
    1.3240   -9.1665    8.4174 C   0  0  2  0  0  0  0  0  0  0  0  0
    4.1002  -15.9546    9.1378 C   0  0  0  0  0  0  0  0  0  0  0  0
    4.3443   -6.2412   10.1322 O   0  0  0  0  0  0  0  0  0  0  0  0
    6.2009   -7.9900   11.4255 O   0  0  0  0  0  0  0  0  0  0  0  0
    3.5244   -7.6235    9.8257 C   0  0  0  0  0  0  0  0  0  0  0  0
    2.6566   -9.7541    9.5123 O   0  0  0  0  0  0  0  0  0  0  0  0
    5.0880  -13.1644    8.4311 O   0  0  0  0  0  0  0  0  0  0  0  0
    3.8798  -16.7421    7.8666 C   0  0  0  0  0  0  0  0  0  0  0  0
    2.2441   -6.3429    9.1015 O   0  0  0  0  0  0  0  0  0  0  0  0
    5.0693   -9.7157   11.5014 N   0  0  0  0  0  0  0  0  0  0  0  0
    4.3028   -8.5748   10.2365 C   0  0  0  0  0  0  0  0  0  0  0  0
    1.3344   -8.2495    7.7332 O   0  0  0  0  0  0  0  0  0  0  0  0
    5.9453   -8.7824   11.7790 C   0  0  0  0  0  0  0  0  0  0  0  0
    3.6732  -14.3905    9.7035 N   0  0  0  0  0  0  0  0  0  0  0  0
    4.9493  -17.1123    9.9410 C   0  0  0  0  0  0  0  0  0  0  0  0
    3.2911  -11.4869    9.7073 O   0  0  0  0  0  0  0  0  0  0  0  0
  4  2  2  0
  7  3  1  0
 11  3  2  3
 11  9  1  0
 12  1  1  0
 12  7  1  0
 13  5  2  0
 14  4  1  0
 14  8  2  0
 15  3  1  0
 17 11  1  0
 17 16  1  0
  7 18  1  6
 19  6  1  0
 19 10  2  0
 19 16  1  0
 20  5  1  0
 20  8  1  0
 21  2  1  0
 21  8  1  0
 22  1  1  0
 22  5  1  0
M  END
>  <ID>  (1) 
conformer_0

$$$$
