
     RDKit          3D

 25 25  0  0  0  0  0  0  0  0999 V2000
    5.0475  -16.1618    9.9385 C   0  0  0  0  0  0  0  0  0  0  0  0
    1.1782   -8.5903    8.3488 C   0  0  0  0  0  0  0  0  0  0  0  0
    5.6813  -17.3711    9.7917 C   0  0  0  0  0  0  0  0  0  0  0  0
    5.8980   -8.8571   11.6332 C   0  0  0  0  0  0  0  0  0  0  0  0
    3.3627   -7.1019   10.0565 C   0  0  0  0  0  0  0  0  0  0  0  0
    6.3148   -7.7252   10.9708 O   0  0  0  0  0  0  0  0  0  0  0  0
    2.6353   -9.6330    9.6008 C   0  0  0  0  0  0  0  0  0  0  0  0
    4.1655  -15.6204    9.0183 C   0  0  0  0  0  0  0  0  0  0  0  0
    4.3066  -17.6315    7.8990 C   0  0  0  0  0  0  0  0  0  0  0  0
    5.6279  -13.0851    9.2359 O   0  0  0  0  0  0  0  0  0  0  0  0
    3.6163  -14.4471    9.0681 N   0  0  0  0  0  0  0  0  0  0  0  0
    4.0791   -6.0586    9.9995 O   0  0  0  0  0  0  0  0  0  0  0  0
    4.5000  -10.7728   10.1007 C   0  0  0  0  0  0  0  0  0  0  0  0
    2.4959  -10.8764    9.3622 O   0  0  0  0  0  0  0  0  0  0  0  0
    6.5335   -8.7636   13.4308 C   0  0  0  0  0  0  0  0  0  0  0  0
    1.7330   -6.1429    9.1099 O   0  0  0  0  0  0  0  0  0  0  0  0
    5.0458   -9.0693   11.7626 N   0  0  0  0  0  0  0  0  0  0  0  0
    4.0065  -10.2594   10.4701 N   0  0  0  0  0  0  0  0  0  0  0  0
    1.6100   -8.8486    8.1051 O   0  0  0  0  0  0  0  0  0  0  0  0
    4.3355  -12.9786    9.3989 C   0  0  0  0  0  0  0  0  0  0  0  0
    3.6379  -16.5316    8.1442 C   0  0  0  0  0  0  0  0  0  0  0  0
    2.2071   -7.5795    9.3852 C   0  0  0  0  0  0  0  0  0  0  0  0
    3.9652  -12.0303    9.6217 N   0  0  0  0  0  0  0  0  0  0  0  0
    4.3093   -8.3990   10.4358 C   0  0  0  0  0  0  0  0  0  0  0  0
    5.3478  -18.0288    8.5328 C   0  0  0  0  0  0  0  0  0  0  0  0
  3  1  2  0
  6  4  1  0
  8  1  1  0
 11  8  1  0
 12  5  1  0
 14  7  1  0
 15  4  1  0
 17  4  1  0
 18  7  1  0
 18 13  1  0
 19  2  1  0
 20 10  2  0
 20 11  1  0
 21  8  2  0
 21  9  1  0
 22  2  1  0
 22  5  1  0
 22 16  1  0
 23 13  1  0
 23 20  1  0
 24  5  1  0
 24 17  1  0
 24 18  1  0
 25  3  1  0
 25  9  2  0
M  END
>  <ID>  (1) 
conformer_0

$$$$
