
     RDKit          3D

 21 21  0  0  0  0  0  0  0  0999 V2000
    1.2552   -8.8740    8.1221 C   0  0  0  0  0  0  0  0  0  0  0  0
    5.4744  -17.1574    9.9960 C   0  0  0  0  0  0  0  0  0  0  0  0
    3.8915  -16.0518    8.1174 C   0  0  0  0  0  0  0  0  0  0  0  0
    3.3817   -7.5213   10.3146 C   0  0  0  0  0  0  0  0  0  0  0  0
    2.2132   -7.7254    9.4336 C   0  0  0  0  0  0  0  0  0  0  0  0
    6.3344   -7.9783   10.7017 O   0  0  0  0  0  0  0  0  0  0  0  0
    5.0125  -15.8307   10.0989 C   0  0  0  0  0  0  0  0  0  0  0  0
    6.4707   -8.7218   13.4007 C   0  0  0  0  0  0  0  0  0  0  0  0
    4.2640  -15.2599    9.1057 C   0  0  0  0  0  0  0  0  0  0  0  0
    4.1028   -6.2933   10.2890 O   0  0  0  0  0  0  0  0  0  0  0  0
    2.8641  -10.5323    9.0525 O   0  0  0  0  0  0  0  0  0  0  0  0
    4.1557   -9.1878   10.5791 C   0  0  0  0  0  0  0  0  0  0  0  0
    3.7840  -13.4546    9.0740 N   0  0  0  0  0  0  0  0  0  0  0  0
    5.2502   -9.4849   11.4558 N   0  0  0  0  0  0  0  0  0  0  0  0
    2.0839   -6.4270    9.0414 O   0  0  0  0  0  0  0  0  0  0  0  0
    2.8619   -9.7931    9.5611 C   0  0  0  0  0  0  0  0  0  0  0  0
    1.4496   -8.3894    7.8696 O   0  0  0  0  0  0  0  0  0  0  0  0
    3.8751  -12.6219    9.2090 C   0  0  0  0  0  0  0  0  0  0  0  0
    5.2676  -17.8389    8.7817 C   0  0  0  0  0  0  0  0  0  0  0  0
    4.2859  -17.3721    7.9783 C   0  0  0  0  0  0  0  0  0  0  0  0
    5.7952   -8.7257   11.6762 C   0  0  0  0  0  0  0  0  0  0  0  0
  5  4  1  0
  7  2  2  0
  9  3  2  0
  9  7  1  0
 10  4  1  0
 12  4  1  0
 13  9  1  0
 14 12  1  0
 15  5  1  0
 16 11  1  0
 16 12  1  0
 17  1  1  0
 17  5  1  0
 18 11  1  0
 18 13  1  0
 19  2  1  0
 20  3  1  0
 20 19  2  0
 21  6  2  0
 21  8  1  0
 21 14  1  0
M  END
>  <ID>  (1) 
conformer_0

$$$$
