
     RDKit          3D

 25 25  0  0  0  0  0  0  0  0999 V2000
    5.2888  -17.4813    9.9773 C   0  0  0  0  0  0  0  0  0  0  0  0
    1.4811   -7.5327    8.7617 C   0  0  0  0  0  0  0  0  0  0  0  0
    5.2309  -18.2031    8.8233 C   0  0  0  0  0  0  0  0  0  0  0  0
    1.0718   -9.0510    8.4191 C   0  0  0  0  0  0  0  0  0  0  0  0
    6.7806   -8.8601   13.5950 C   0  0  0  0  0  0  0  0  0  0  0  0
    3.8880  -13.1737    9.0865 C   0  0  0  0  0  0  0  0  0  0  0  0
    2.9201   -7.2930    9.8993 C   0  0  0  0  0  0  0  0  0  0  0  0
    4.1759  -15.6682    9.0832 C   0  0  0  0  0  0  0  0  0  0  0  0
    6.6691   -8.5819   12.1806 C   0  0  0  0  0  0  0  0  0  0  0  0
    4.0077  -16.3806    7.8147 C   0  0  0  0  0  0  0  0  0  0  0  0
    6.9412   -8.1914   11.0203 O   0  0  0  0  0  0  0  0  0  0  0  0
    1.7786   -5.9361    9.2579 O   0  0  0  0  0  0  0  0  0  0  0  0
    0.9017   -7.4479    7.8232 O   0  0  0  0  0  1  0  0  0  0  0  0
    2.4737   -9.6655    9.1029 O   0  0  0  0  0  0  0  0  0  0  0  0
    5.0047   -8.8783   11.4516 N   0  0  0  0  0  0  0  0  0  0  0  0
    3.9715  -14.2366    9.4355 N   0  0  0  0  0  0  0  0  0  0  0  0
    3.9505   -6.3066   10.1576 O   0  0  0  0  0  0  0  0  0  0  0  0
    3.1610  -10.5266    9.5698 C   0  0  0  0  0  0  0  0  0  0  0  0
    4.7457  -13.2622    8.1654 O   0  0  0  0  0  0  0  0  0  0  0  0
    4.2962  -16.5246   10.2158 C   0  0  0  0  0  0  0  0  0  0  0  0
    4.0807  -10.9483   10.0512 N   0  0  0  0  0  0  0  0  0  0  0  0
    3.1166   -8.5285    9.9018 C   0  0  0  0  0  0  0  0  0  0  0  0
    4.9427   -8.8201   10.5255 C   0  0  0  0  0  0  0  0  0  0  0  0
    2.7108  -11.6241    9.6146 O   0  0  0  0  0  0  0  0  0  0  0  0
    4.5667  -17.6538    7.8390 C   0  0  0  0  0  0  0  0  0  0  0  0
  3  1  2  0
  4  2  1  0
  7  2  1  0
  9  5  1  0
 10  8  1  0
 11  9  2  0
 12  2  1  0
 13  2  1  0
 15  9  1  0
 16  6  1  0
 16  8  1  0
 17  7  1  0
 18  6  1  0
 18 14  1  0
 19  6  2  0
 20  1  1  0
 20  8  2  0
 21 18  1  0
 22  7  1  0
 22 14  1  0
 23 15  1  0
 23 22  1  0
 24 18  1  0
 25  3  1  0
 25 10  2  0
M  RAD  1  13   2
M  END
>  <ID>  (1) 
conformer_0

$$$$
