
     RDKit          3D

 19 19  0  0  0  0  0  0  0  0999 V2000
    1.1458   -8.2390    8.5312 C   0  0  0  0  0  0  0  0  0  0  0  0
    5.0650  -16.5476   10.3647 C   0  0  0  0  0  0  0  0  0  0  0  0
    5.2729  -17.7404    8.4255 C   0  0  0  0  0  0  0  0  0  0  0  0
    3.2751   -7.5461    9.7124 C   0  0  0  0  0  0  0  0  0  0  0  0
    2.5265   -9.3038    9.3983 C   0  0  0  0  0  0  0  0  0  0  0  0
    4.3323  -15.6440    9.2263 C   0  0  0  0  0  0  0  0  0  0  0  0
    3.6226  -14.4668    9.0639 N   0  0  0  0  0  0  0  0  0  0  0  0
    4.2859   -6.2891   10.0444 O   0  0  0  0  0  0  0  0  0  0  0  0
    3.7606  -12.9066    9.3208 C   0  0  0  0  0  0  0  0  0  0  0  0
    4.3239   -9.0494   10.2611 C   0  0  0  0  0  0  0  0  0  0  0  0
    4.3809  -16.7131    8.0207 C   0  0  0  0  0  0  0  0  0  0  0  0
    7.0160   -8.2715   10.9182 O   0  0  0  0  0  0  0  0  0  0  0  0
    2.6313  -10.4885    9.3502 O   0  0  0  0  0  0  0  0  0  0  0  0
    6.6377   -8.9072   13.0977 C   0  0  0  0  0  0  0  0  0  0  0  0
    1.8952   -6.3439    9.2447 O   0  0  0  0  0  0  0  0  0  0  0  0
    4.2966  -12.4741    8.7841 O   0  0  0  0  0  0  0  0  0  0  0  0
    5.6977   -8.7757   11.3624 C   0  0  0  0  0  0  0  0  0  0  0  0
    0.7901   -7.9081    8.2551 O   0  0  0  0  0  0  0  0  0  0  0  0
    5.6715  -17.6998    9.7749 C   0  0  0  0  0  0  0  0  0  0  0  0
  5  1  1  0
  5  4  1  0
  6  2  2  0
  7  6  1  0
  8  4  1  0
  9  5  1  0
  9  7  1  0
 10  4  1  0
 11  3  2  0
 11  6  1  0
 13  5  1  0
 15  4  1  0
 16  9  2  0
 17 10  1  0
 17 12  1  0
 17 14  1  0
 18  1  1  0
 19  2  1  0
 19  3  1  0
M  END
>  <ID>  (1) 
conformer_0

$$$$
