
     RDKit          3D

 23 23  0  0  0  0  0  0  0  0999 V2000
    3.8854   -8.0090   10.1578 C   0  0  0  0  0  0  0  0  0  0  0  0
    5.1270  -16.6229   10.0612 C   0  0  0  0  0  0  0  0  0  0  0  0
    5.7583  -17.7275    9.6214 C   0  0  0  0  0  0  0  0  0  0  0  0
    7.6058   -8.7015   13.2940 C   0  0  0  0  0  0  0  0  0  0  0  0
    2.6207   -7.2944    9.5584 C   0  0  0  0  0  0  0  0  0  0  0  0
    4.4025  -17.6836    7.8109 C   0  0  0  0  0  0  0  0  0  0  0  0
    6.2991   -7.9005   10.9373 O   0  0  0  0  0  0  0  0  0  0  0  0
    6.0353   -8.7810   11.4775 C   0  0  0  0  0  0  0  0  0  0  0  0
    3.4914  -10.2481   10.0930 C   0  0  0  0  0  0  0  0  0  0  0  0
    4.0015  -12.9762    9.6467 C   0  0  0  0  0  0  0  0  0  0  0  0
    1.9455   -6.0589    9.4255 O   0  0  0  0  0  0  0  0  0  0  0  0
    4.3523  -15.7969    9.1776 C   0  0  0  0  0  0  0  0  0  0  0  0
    0.7009   -7.7609    8.1529 O   0  0  0  0  0  0  0  0  0  0  0  0
    2.4282  -10.0869    9.5699 O   0  0  0  0  0  0  0  0  0  0  0  0
    5.0204  -13.1932    8.9414 O   0  0  0  0  0  0  0  0  0  0  0  0
    4.1436   -6.2661   10.4427 O   0  0  0  0  0  0  0  0  0  0  0  0
    3.9200  -14.5424    9.6108 N   0  0  0  0  0  0  0  0  0  0  0  0
    3.8084  -16.5775    8.0716 C   0  0  0  0  0  0  0  0  0  0  0  0
    2.1265   -8.6828    9.4437 C   0  0  0  0  0  0  0  0  0  0  0  0
    3.1164  -12.1430    9.4151 O   0  0  0  0  0  0  0  0  0  0  0  0
    0.7467   -8.2375    8.0122 C   0  0  0  0  0  0  0  0  0  0  0  0
    6.3732   -9.3852   12.5148 C   0  0  0  0  0  0  0  0  0  0  0  0
    5.3231  -18.3465    8.4192 C   0  0  0  0  0  0  0  0  0  0  0  0
  3  2  2  0
  5  1  1  0
  8  7  2  0
  9  8  1  0
 11  5  1  0
 12  2  1  0
 14  9  1  0
 15 10  1  0
 16  1  1  0
 17 10  1  0
 17 12  1  0
 18  6  1  0
 18 12  2  0
 19  5  1  0
 19 14  1  0
 20  9  1  0
 20 10  1  0
 21 13  1  0
 21 19  1  0
 22  4  1  0
 22  8  1  0
 23  3  1  0
 23  6  2  0
M  END
>  <ID>  (1) 
conformer_0

$$$$
