
     RDKit          3D

 22 22  0  0  0  0  0  0  0  0999 V2000
    2.1603   -7.9791    9.0866 C   0  0  0  0  0  0  0  0  0  0  0  0
    5.3134  -17.8069    9.1818 C   0  0  0  0  0  0  0  0  0  0  0  0
    4.8219  -16.8195    9.9628 C   0  0  0  0  0  0  0  0  0  0  0  0
    1.1230   -8.5438    8.3407 C   0  0  0  0  0  0  0  0  0  0  0  0
    3.0504   -9.9646    9.5818 C   0  0  0  0  0  0  0  0  0  0  0  0
    6.7118   -8.8548   13.7092 C   0  0  0  0  0  0  0  0  0  0  0  0
    3.4661   -7.5781    9.8456 C   0  0  0  0  0  0  0  0  0  0  0  0
    3.8841  -16.5474    7.7992 C   0  0  0  0  0  0  0  0  0  0  0  0
    3.6177  -14.4382    9.5307 N   0  0  0  0  0  0  0  0  0  0  0  0
    7.5230   -8.4700   11.7445 O   0  0  0  0  0  0  0  0  0  0  0  0
    1.7878   -6.2021    9.3972 O   0  0  0  0  0  0  0  0  0  0  0  0
    3.8645  -12.7630    9.5699 C   0  0  0  0  0  0  0  0  0  0  0  0
    4.0763  -15.7161    9.0720 C   0  0  0  0  0  0  0  0  0  0  0  0
    2.7227  -10.9169    9.4797 O   0  0  0  0  0  0  0  0  0  0  0  0
    4.0713   -6.3373   10.5186 O   0  0  0  0  0  0  0  0  0  0  0  0
    4.6934   -8.6375   10.4747 C   0  0  0  0  0  0  0  0  0  0  0  0
    4.7693  -12.9800    8.9645 O   0  0  0  0  0  0  0  0  0  0  0  0
    2.7907   -8.8664    7.2367 O   0  0  0  0  0  0  0  0  0  0  0  0
    4.5169   -9.9668   10.5099 N   0  0  0  0  0  0  0  0  0  0  0  0
    4.7085  -17.8462    7.8691 C   0  0  0  0  0  0  0  0  0  0  0  0
    6.3787   -8.7945   11.9984 C   0  0  0  0  0  0  0  0  0  0  0  0
    5.4866   -9.1334   11.7644 N   0  0  0  0  0  0  0  0  0  0  0  0
  3  2  2  0
  4  1  1  0
  7  1  1  0
 11  1  1  0
 12  9  1  0
 13  3  1  0
 13  8  2  0
 13  9  1  0
 14  5  1  0
 14 12  1  0
 15  7  1  0
 16  7  1  0
 17 12  2  0
 18  4  1  0
 19  5  1  0
 19 16  1  0
 20  2  1  0
 20  8  1  0
 21  6  1  0
 21 10  2  0
 22 16  1  0
 22 21  1  0
M  END
>  <ID>  (1) 
conformer_0

$$$$
