
     RDKit          3D

 21 21  0  0  0  0  0  0  0  0999 V2000
    2.2830   -7.6517    9.3110 C   0  0  0  0  0  0  0  0  0  0  0  0
    3.7823  -16.8041    7.9477 C   0  0  0  0  0  0  0  0  0  0  0  0
    4.6599  -17.8293    8.3256 C   0  0  0  0  0  0  0  0  0  0  0  0
    4.1812   -9.2313   10.2787 C   0  0  2  0  0  0  0  0  0  0  0  0
    1.1559   -8.7733    8.4314 C   0  0  0  0  0  0  0  0  0  0  0  0
    4.0641  -15.6671    9.0955 C   0  0  0  0  0  0  0  0  0  0  0  0
    7.3105   -8.9361   13.3765 C   0  0  0  0  0  0  0  0  0  0  0  0
    3.3533   -7.5230   10.0863 C   0  0  0  0  0  0  0  0  0  0  0  0
    6.4691   -8.0431   11.2824 O   0  0  0  0  0  0  0  0  0  0  0  0
    3.7093  -14.2867    8.9644 N   0  0  0  0  0  0  0  0  0  0  0  0
    6.4295   -8.7846   11.9896 C   0  0  0  0  0  0  0  0  0  0  0  0
    5.0401  -16.3609   10.1677 C   0  0  0  0  0  0  0  0  0  0  0  0
    4.1912   -6.2139   10.3903 O   0  0  0  0  0  0  0  0  0  0  0  0
    1.4834   -8.3953    7.8094 O   0  0  0  0  0  0  0  0  0  0  0  0
    2.7653  -10.1187    9.2771 C   0  0  0  0  0  0  0  0  0  0  0  0
    2.9888  -11.6001    8.7211 O   0  0  0  0  0  0  0  0  0  0  0  0
    2.2160   -6.1246    9.3127 O   0  0  0  0  0  0  0  0  0  0  0  0
    2.7323   -9.4988   10.2941 O   0  0  0  0  0  0  0  0  0  0  0  0
    3.7927  -12.0625    9.2556 C   0  0  0  0  0  0  0  0  0  0  0  0
    5.3950  -17.5398    9.5456 C   0  0  0  0  0  0  0  0  0  0  0  0
    5.2415   -9.5208   11.1657 N   0  0  0  0  0  0  0  0  0  0  0  0
  3  2  2  0
  5  1  1  0
  6  2  1  0
  8  1  2  3
  8  4  1  0
 10  6  1  0
 11  7  1  0
 11  9  2  0
 12  6  1  0
 13  8  1  0
 14  5  1  0
 16 15  1  0
 17  1  1  0
 18  4  1  0
 18 15  1  0
 19 10  1  0
 19 16  1  0
 20  3  1  0
 20 12  2  0
  4 21  1  1
 21 11  1  0
M  END
>  <ID>  (1) 
conformer_0

$$$$
