
     RDKit          3D

 23 23  0  0  0  0  0  0  0  0999 V2000
    2.7238   -9.1245    9.5489 C   0  0  0  0  0  0  0  0  0  0  0  0
    5.1940  -18.2387    8.4043 C   0  0  0  0  0  0  0  0  0  0  0  0
    5.4670  -17.7331    9.6470 C   0  0  0  0  0  0  0  0  0  0  0  0
    0.9444   -8.5983    8.0764 C   0  0  0  0  0  0  0  0  0  0  0  0
    1.9235   -7.5661    9.1547 C   0  0  1  0  0  0  0  0  0  0  0  0
    4.9284  -16.6293   10.1107 C   0  0  0  0  0  0  0  0  0  0  0  0
    3.2788   -7.2727   10.2265 C   0  0  1  0  0  0  0  0  0  0  0  0
    7.0336   -8.9001   13.3850 C   0  0  0  0  0  0  0  0  0  0  0  0
    4.0980  -14.1692    9.8458 N   0  0  0  0  0  0  0  0  0  0  0  0
    4.4031   -8.5387   10.6237 C   0  0  0  0  0  0  0  0  0  0  0  0
    1.7009   -6.1612    9.2134 O   0  0  0  0  0  0  0  0  0  0  0  0
    4.1500   -6.2101   10.2832 O   0  0  0  0  0  0  0  0  0  0  0  0
    4.3271  -15.6238    9.2491 C   0  0  0  0  0  0  0  0  0  0  0  0
    3.9612  -12.8758    9.5462 C   0  0  0  0  0  0  0  0  0  0  0  0
    7.1923   -7.9635   11.3591 O   0  0  0  0  0  0  0  0  0  0  0  0
    3.4120  -12.4055    9.0639 O   0  0  0  0  0  0  0  0  0  0  0  0
    5.6500   -8.6427   11.3210 N   0  0  0  0  0  0  0  0  0  0  0  0
    0.4818   -7.6344    7.7533 O   0  0  0  0  0  0  0  0  0  0  0  0
    2.6576  -10.0106    9.2203 O   0  0  0  0  0  0  0  0  0  0  0  0
    4.4054  -17.4306    7.6929 C   0  0  0  0  0  0  0  0  0  0  0  0
    3.9501  -16.2071    7.9998 C   0  0  0  0  0  0  0  0  0  0  0  0
    6.4291   -8.6051   11.7069 C   0  0  0  0  0  0  0  0  0  0  0  0
    4.2206  -10.4087   10.4432 C   0  0  0  0  0  3  0  0  0  0  0  0
  3  2  2  0
  5  1  1  0
  5  4  1  0
  6  3  1  0
  7  5  1  0
 10  7  1  0
  5 11  1  1
  7 12  1  6
 13  6  2  0
 13  9  1  0
 14  9  1  0
 16 14  2  0
 17 10  1  0
 18  4  1  0
 19  1  2  0
 20  2  1  0
 21 13  1  0
 21 20  2  0
 22  8  1  0
 22 15  2  0
 22 17  1  0
 23 10  2  3
 23 14  1  0
M  RAD  1  23   2
M  END
>  <ID>  (1) 
conformer_0

$$$$
