
     RDKit          3D

 21 21  0  0  0  0  0  0  0  0999 V2000
    0.9667   -8.4155    8.3221 C   0  0  0  0  0  0  0  0  0  0  0  0
    4.7517  -17.5434    7.9137 C   0  0  0  0  0  0  0  0  0  0  0  0
    4.2459   -9.8794   10.3123 C   0  0  0  0  0  0  0  0  0  0  0  0
    5.4290  -17.7717    9.1129 C   0  0  0  0  0  0  0  0  0  0  0  0
    2.0898   -7.6667    9.2076 C   0  0  0  0  0  0  0  0  0  0  0  0
    6.8314   -8.7852   13.3320 C   0  0  0  0  0  0  0  0  0  0  0  0
    6.4098   -7.7628   10.7591 O   0  0  0  0  0  0  0  0  0  0  0  0
    4.6060  -15.4985    9.2606 C   0  0  0  0  0  0  0  0  0  0  0  0
    2.6785   -9.5585    9.3993 C   0  0  0  0  0  0  0  0  0  0  0  0
    5.2761  -16.7192   10.0994 C   0  0  0  0  0  0  0  0  0  0  0  0
    4.1198  -14.1295    9.7724 N   0  0  0  0  0  0  0  0  0  0  0  0
    1.7935   -6.2298    9.2313 O   0  0  0  0  0  0  0  0  0  0  0  0
    3.6693   -7.8797    9.9222 C   0  0  0  0  0  0  0  0  0  0  0  0
    5.1864   -9.1937   11.4612 N   0  0  0  0  0  0  0  0  0  0  0  0
    2.2115  -10.1979    9.3757 O   0  0  0  0  0  0  0  0  0  0  0  0
    4.0486   -6.2702   10.2556 O   0  0  0  0  0  0  0  0  0  0  0  0
    0.2650   -7.7121    7.8477 O   0  0  0  0  0  0  0  0  0  0  0  0
    5.9646   -8.6814   11.6225 C   0  0  0  0  0  0  0  0  0  0  0  0
    4.1302  -16.2478    7.9311 C   0  0  0  0  0  0  0  0  0  0  0  0
    3.9485  -11.9287   10.0638 C   0  0  0  0  0  0  0  0  0  0  0  0
    3.3549  -12.2024    9.7037 O   0  0  0  0  0  0  0  0  0  0  0  0
  4  2  2  0
  5  1  1  0
  9  3  1  0
  9  5  1  0
 10  4  1  0
 10  8  2  0
 11  8  1  0
 12  5  1  0
 13  5  1  0
 14  3  2  3
 15  9  2  0
 16 13  1  0
 17  1  1  0
 18  6  1  0
 18  7  2  0
 18 14  1  0
 19  2  1  0
 19  8  1  0
 20  3  1  0
 21 11  1  0
 21 20  1  0
M  END
>  <ID>  (1) 
conformer_0

$$$$
