
     RDKit          3D

 14 17  0  0  0  0  0  0  0  0999 V2000
   21.9201   14.9511  -10.2939 O   0  0  0  0  0  0  0  0  0  0  0  0
   21.2201   14.0511  -11.0939 C   0  0  0  0  0  0  0  0  0  0  0  0
   21.5201   12.6511  -10.7939 C   0  0  0  0  0  0  0  0  0  0  0  0
   21.2201   14.3511  -12.4939 N   0  0  0  0  0  0  0  0  0  0  0  0
   21.7201   11.9511  -12.0939 C   0  0  0  0  0  0  0  0  0  0  0  0
   22.7201   12.3511  -12.9939 C   0  0  0  0  0  0  0  0  0  0  0  0
   20.5201   11.9511   -9.9939 C   0  0  0  0  0  0  0  0  0  0  0  0
   21.0201   10.6511  -11.9939 C   0  0  0  0  0  0  0  0  0  0  0  0
   20.0201   10.6511  -10.8939 C   0  0  0  0  0  0  0  0  0  0  0  0
   21.1201    9.5511  -12.9939 C   0  0  0  0  0  0  0  0  0  0  0  0
   23.4201   13.4511  -12.9939 O   0  0  0  0  0  0  0  0  0  0  0  0
   23.0201   11.1511  -13.7939 C   0  0  0  0  0  0  0  0  0  0  0  0
   22.0201   10.1511  -14.0939 C   0  0  0  0  0  0  0  0  0  0  0  0
   22.2201   13.7511  -13.0939 C   0  0  0  0  0  0  0  0  0  0  0  0
  2  1  1  0
  3  2  1  0
  4  2  1  0
  5  3  1  0
  6  5  1  0
  7  3  1  0
  8  5  1  0
  9  7  1  0
  9  8  1  0
 10  8  1  0
 11  6  1  0
 12  6  1  0
 13 10  1  0
 13 12  1  0
 14  4  1  0
 14  6  1  0
 14 11  1  0
M  END
>  <ID>  (1) 
conformer_0

$$$$
