
     RDKit          3D

 16 19  0  0  0  0  0  0  0  0999 V2000
   21.7783   14.8182   -8.6734 O   0  0  0  0  0  0  0  0  0  0  0  0
   21.2783   14.0182   -9.5734 C   0  0  0  0  0  0  0  0  0  0  0  0
   21.3783   14.0182  -10.9734 C   0  0  0  0  0  0  0  0  0  0  0  0
   20.3783   13.0182   -9.0734 N   0  0  0  0  0  0  0  0  0  0  0  0
   20.1783   12.0182  -10.0734 C   0  0  0  0  0  0  0  0  0  0  0  0
   21.0783   11.6182  -11.1734 C   0  0  0  0  0  0  0  0  0  0  0  0
   21.9783   12.7182  -11.5734 C   0  0  0  0  0  0  0  0  0  0  0  0
   22.3783   11.9182  -10.3734 C   0  0  0  0  0  0  0  0  0  0  0  0
   22.6783   12.7182  -12.8734 C   0  0  0  0  0  0  0  0  0  0  0  0
   20.9783   10.4182  -11.8734 C   0  0  0  0  0  0  0  0  0  0  0  0
   21.9783   10.3182  -12.9734 C   0  0  0  0  0  0  0  0  0  0  0  0
   22.8783   11.4182  -13.3734 C   0  0  0  0  0  0  0  0  0  0  0  0
   19.8783    9.5182  -11.6734 C   0  0  0  0  0  0  0  0  0  0  0  0
   22.2783    9.5182  -11.7734 C   0  0  0  0  0  0  0  0  0  0  0  0
   21.7783    9.3182  -14.0734 C   0  0  0  0  0  0  0  0  0  0  0  0
   23.8783   11.3182  -14.2734 O   0  0  0  0  0  0  0  0  0  0  0  0
  2  1  2  0
  3  2  1  0
  4  2  1  0
  5  4  1  0
  6  5  1  0
  7  3  1  0
  7  6  1  0
  8  6  1  0
  8  7  1  0
  9  7  1  0
 10  6  1  0
 11 10  1  0
 12  9  1  0
 12 11  1  0
 13 10  1  0
 14 10  1  0
 14 11  1  0
 15 11  1  0
 16 12  1  0
M  END
>  <ID>  (1) 
conformer_0

$$$$
