
     RDKit          3D

 12 13  0  0  0  0  0  0  0  0999 V2000
   21.7783   14.8182   -8.6734 O   0  0  0  0  0  0  0  0  0  0  0  0
   21.2783   14.0182   -9.5734 C   0  0  0  0  0  0  0  0  0  0  0  0
   21.3783   14.0182  -10.9734 C   0  0  0  0  0  0  0  0  0  0  0  0
   20.3783   13.0182   -9.0734 N   0  0  0  0  0  0  0  0  0  0  0  0
   20.1783   12.0182  -10.0734 C   0  0  0  0  0  0  0  0  0  0  0  0
   21.0783   11.6182  -11.1734 C   0  0  0  0  0  0  0  0  0  0  0  0
   21.8783   12.7182  -11.5734 C   0  0  0  0  0  0  0  0  0  0  0  0
   22.5783   11.9182  -10.5734 C   0  0  0  0  0  0  0  0  0  0  0  0
   21.0783   10.2182  -11.4734 C   0  0  0  0  0  0  0  0  0  0  0  0
   19.4783   10.8182   -9.6734 C   0  0  0  0  0  0  0  0  0  0  0  0
   22.2783    9.5182  -11.7734 C   0  0  0  0  0  0  0  0  0  0  0  0
   22.3783    8.1182  -11.7734 C   0  0  0  0  0  0  0  0  0  0  0  0
  2  1  2  0
  3  2  1  0
  4  2  1  0
  5  4  1  0
  6  5  1  0
  7  3  1  0
  7  6  1  0
  8  6  1  0
  8  7  1  0
  9  6  1  0
 10  5  1  0
 11  9  2  3
 12 11  1  0
M  END
>  <ID>  (1) 
conformer_0

$$$$
