
     RDKit          3D

 25 32  0  0  0  0  0  0  0  0999 V2000
   21.7783   14.8182   -8.6734 O   0  0  0  0  0  0  0  0  0  0  0  0
   21.2783   14.0182   -9.5734 C   0  0  0  0  0  0  0  0  0  0  0  0
   21.3783   14.0182  -10.9734 C   0  0  0  0  0  0  0  0  0  0  0  0
   20.3783   13.0182   -9.0734 N   0  0  0  0  0  0  0  0  0  0  0  0
   20.1783   12.0182  -10.0734 C   0  0  0  0  0  0  0  0  0  0  0  0
   21.0783   11.6182  -11.1734 C   0  0  0  0  0  0  0  0  0  0  0  0
   21.9783   12.7182  -11.5734 C   0  0  0  0  0  0  0  0  0  0  0  0
   22.3783   11.9182  -10.3734 C   0  0  0  0  0  0  0  0  0  0  0  0
   22.6783   12.7182  -12.8734 C   0  0  0  0  0  0  0  0  0  0  0  0
   20.9783   10.4182  -11.8734 C   0  0  0  0  0  0  0  0  0  0  0  0
   19.8783    9.5182  -11.7734 C   0  0  0  0  0  0  0  0  0  0  0  0
   21.9783   10.2182  -12.9734 C   0  0  0  0  0  0  0  0  0  0  0  0
   21.7783    8.9182  -13.6734 C   0  0  0  0  0  0  0  0  0  0  0  0
   22.7783   11.3182  -13.4734 C   0  0  0  0  0  0  0  0  0  0  0  0
   23.2783   10.5182  -12.3734 C   0  0  0  0  0  0  0  0  0  0  0  0
   23.9783    9.2182  -12.3734 C   0  0  0  0  0  0  0  0  0  0  0  0
   22.8783    8.7182  -14.6734 C   0  0  0  0  0  0  0  0  0  0  0  0
   24.1783    8.7182  -13.9734 C   0  0  0  0  0  0  0  0  0  0  0  0
   23.7783    9.7182  -14.9734 C   0  0  0  0  0  0  0  0  0  0  0  0
   23.4783   11.1182  -14.8734 C   0  0  0  0  0  0  0  0  0  0  0  0
   24.8783    7.5182  -14.4734 C   0  0  0  0  0  0  0  0  0  0  0  0
   25.8783    7.6182  -15.4734 C   0  0  0  0  0  0  0  0  0  0  0  0
   26.8783    6.8182  -15.5734 O   0  0  0  0  0  0  0  0  0  0  0  0
   25.7783    8.7182  -16.4734 C   0  0  0  0  0  0  0  0  0  0  0  0
   24.6783    9.6182  -16.2734 C   0  0  0  0  0  0  0  0  0  0  0  0
  2  1  2  0
  3  2  1  0
  4  2  1  0
  5  4  1  0
  6  5  1  0
  7  3  1  0
  7  6  1  0
  8  6  1  0
  8  7  1  0
  9  7  1  0
 10  6  1  0
 11 10  1  0
 12 10  1  0
 13 12  1  0
 14  9  1  0
 14 12  1  0
 15 12  1  0
 15 14  1  0
 16 15  1  0
 17 13  1  0
 18 16  1  0
 18 17  1  0
 19 17  1  0
 19 18  1  0
 20 14  1  0
 20 19  1  0
 21 18  1  0
 22 21  1  0
 23 22  2  0
 24 22  1  0
 25 19  1  0
 25 24  1  0
M  END
>  <ID>  (1) 
conformer_0

$$$$
