
     RDKit          3D

 10 11  0  0  0  0  0  0  0  0999 V2000
   21.8487   13.6617  -12.5464 C   0  0  0  0  0  0  0  0  0  0  0  0
   21.0487   14.0617  -11.3464 C   0  0  0  0  0  0  0  0  0  0  0  0
   19.8487   13.1617  -11.3464 C   0  0  0  0  0  0  0  0  0  0  0  0
   20.0487   11.8617  -12.0464 C   0  0  0  0  0  0  0  0  0  0  0  0
   21.3487   11.3617  -11.7464 C   0  0  0  0  0  0  0  0  0  0  0  0
   21.9487   11.9617  -10.6464 C   0  0  0  0  0  0  0  0  0  0  0  0
   22.2487   12.2617  -11.9464 N   0  0  0  0  0  0  0  0  0  0  0  0
   22.8487   12.2617   -9.7464 O   0  0  0  0  0  0  0  0  0  0  0  0
   22.0487   14.7617  -10.5464 O   0  0  0  0  0  0  0  0  0  0  0  0
   18.8487   11.0617  -11.6464 O   0  0  0  0  0  0  0  0  0  0  0  0
  2  1  1  0
  3  2  1  0
  4  3  1  0
  5  4  1  0
  6  5  1  0
  7  1  1  0
  7  5  1  0
  7  6  1  0
  8  6  1  0
  9  2  1  0
 10  4  1  0
M  END
>  <ID>  (1) 
conformer_0

$$$$
