
     RDKit          3D

 17 17  0  0  0  0  0  0  0  0999 V2000
   21.9201   14.9511  -10.2939 O   0  0  0  0  0  0  0  0  0  0  0  0
   21.2201   14.0511  -11.0939 C   0  0  0  0  0  0  0  0  0  0  0  0
   21.6201   12.6511  -10.8939 C   0  0  0  0  0  0  0  0  0  0  0  0
   21.2201   14.4511  -12.4939 N   0  0  0  0  0  0  0  0  0  0  0  0
   22.1201   12.1511  -12.1939 C   0  0  0  0  0  0  0  0  0  0  0  0
   22.1201   13.3511  -13.0939 C   0  0  0  0  0  0  0  0  0  0  0  0
   22.3201   12.2511   -9.6939 C   0  0  0  0  0  0  0  0  0  0  0  0
   22.8201   11.0511  -12.5939 C   0  0  0  0  0  0  0  0  0  0  0  0
   23.0201    9.8511  -11.8939 C   0  0  0  0  0  0  0  0  0  0  0  0
   24.0201    8.8511  -12.3939 C   0  0  0  0  0  0  0  0  0  0  0  0
   24.7201    9.0511  -13.6939 C   0  0  0  0  0  0  0  0  0  0  0  0
   24.5201    7.9511  -14.6939 C   0  0  0  0  0  0  0  0  0  0  0  0
   25.5201    8.0511  -15.7939 C   0  0  0  0  0  0  0  0  0  0  0  0
   25.3201    7.0511  -16.8939 C   0  0  0  0  0  0  0  0  0  0  0  0
   21.5201   12.0511   -8.4939 C   0  0  0  0  0  0  0  0  0  0  0  0
   21.9201   13.0511   -7.4939 O   0  0  0  0  0  0  0  0  0  0  0  0
   20.7201   10.8511   -8.3939 C   0  0  0  0  0  0  0  0  0  0  0  0
  2  1  1  0
  3  2  1  0
  4  2  1  0
  5  3  1  0
  6  4  1  0
  6  5  1  0
  7  3  1  0
  8  5  1  0
  9  8  2  3
 10  9  1  0
 11 10  1  0
 12 11  1  0
 13 12  1  0
 14 13  1  0
 15  7  1  0
 16 15  1  0
 17 15  1  0
M  END
>  <ID>  (1) 
conformer_0

$$$$
