
     RDKit          3D

 14 14  0  0  0  0  0  0  0  0999 V2000
   21.9201   14.9511  -10.2939 O   0  0  0  0  0  0  0  0  0  0  0  0
   21.2201   14.0511  -11.0939 C   0  0  0  0  0  0  0  0  0  0  0  0
   21.6201   12.6511  -10.8939 C   0  0  0  0  0  0  0  0  0  0  0  0
   21.2201   14.4511  -12.4939 N   0  0  0  0  0  0  0  0  0  0  0  0
   22.1201   12.1511  -12.1939 C   0  0  0  0  0  0  0  0  0  0  0  0
   21.9201   13.3511  -13.1939 C   0  0  0  0  0  0  0  0  0  0  0  0
   22.4201   12.4511   -9.6939 C   0  0  0  0  0  0  0  0  0  0  0  0
   22.8201   11.0511  -12.4939 C   0  0  0  0  0  0  0  0  0  0  0  0
   23.0201    9.7511  -12.8939 C   0  0  0  0  0  0  0  0  0  0  0  0
   24.2201    9.0511  -12.7939 C   0  0  0  0  0  0  0  0  0  0  0  0
   24.9201    8.8511  -14.0939 C   0  0  0  0  0  0  0  0  0  0  0  0
   24.1201    9.2511  -15.2939 C   0  0  0  0  0  0  0  0  0  0  0  0
   22.7201    8.9511  -15.3939 C   0  0  0  0  0  0  0  0  0  0  0  0
   24.5201   10.3511  -16.1939 C   0  0  0  0  0  0  0  0  0  0  0  0
  2  1  1  0
  3  2  1  0
  4  2  1  0
  5  3  1  0
  6  4  1  0
  6  5  1  0
  7  3  1  0
  8  5  2  0
  9  8  2  0
 10  9  1  0
 11 10  1  0
 12 11  1  0
 13 12  1  0
 14 12  1  0
M  END
>  <ID>  (1) 
conformer_0

$$$$
