
     RDKit          3D

 22 25  0  0  0  0  0  0  0  0999 V2000
   21.9201   14.9511  -10.2939 O   0  0  0  0  0  0  0  0  0  0  0  0
   21.2201   14.0511  -11.0939 C   0  0  0  0  0  0  0  0  0  0  0  0
   21.5201   12.6511  -10.7939 C   0  0  0  0  0  0  0  0  0  0  0  0
   21.2201   14.3511  -12.4939 N   0  0  0  0  0  0  0  0  0  0  0  0
   21.7201   11.9511  -12.0939 C   0  0  0  0  0  0  0  0  0  0  0  0
   22.7201   12.3511  -12.9939 C   0  0  0  0  0  0  0  0  0  0  0  0
   20.5201   11.9511   -9.9939 C   0  0  0  0  0  0  0  0  0  0  0  0
   21.4201   10.5511  -11.8939 C   0  0  0  0  0  0  0  0  0  0  0  0
   20.3201    9.9511  -11.2939 C   0  0  0  0  0  0  0  0  0  0  0  0
   22.6201    9.7511  -12.1939 C   0  0  0  0  0  0  0  0  0  0  0  0
   19.7201   10.7511  -10.1939 C   0  0  0  0  0  0  0  0  0  0  0  0
   23.1201   11.3511  -13.9939 C   0  0  0  0  0  0  0  0  0  0  0  0
   23.4201   10.0511  -13.4939 C   0  0  0  0  0  0  0  0  0  0  0  0
   24.6201    9.3511  -13.5939 O   0  0  0  0  0  0  0  0  0  0  0  0
   25.4201    8.8511  -14.4939 C   0  0  0  0  0  0  0  0  0  0  0  0
   26.4201    8.3511  -14.8939 O   0  0  0  0  0  0  0  0  0  0  0  0
   25.3201    7.6511  -15.2939 C   0  0  0  0  0  0  0  0  0  0  0  0
   24.9201    7.4511  -16.5939 C   0  0  0  0  0  0  0  0  0  0  0  0
   24.7201    6.0511  -17.0939 C   0  0  0  0  0  0  0  0  0  0  0  0
   25.2201    5.9511  -18.3939 O   0  0  0  0  0  0  0  0  0  0  0  0
   26.0201    6.9511  -18.8939 C   0  0  0  0  0  0  0  0  0  0  0  0
   22.1201   13.8511  -13.4939 C   0  0  0  0  0  0  0  0  0  0  0  0
  2  1  1  0
  3  2  1  0
  4  2  1  0
  5  3  1  0
  6  5  1  0
  7  3  1  0
  8  5  1  0
  9  8  1  0
 10  8  1  0
 11  7  1  0
 11  9  1  0
 12  6  1  0
 13 10  1  0
 13 12  1  0
 14 13  1  0
 15 14  1  0
 16 15  1  0
 17 15  1  0
 17 16  1  0
 18 17  1  0
 19 18  1  0
 20 19  1  0
 21 20  1  0
 22  4  1  0
 22  6  1  0
M  END
>  <ID>  (1) 
conformer_0

$$$$
