
     RDKit          3D

 15 15  0  0  0  0  0  0  0  0999 V2000
   21.9201   14.9511  -10.2939 O   0  0  0  0  0  0  0  0  0  0  0  0
   21.2201   14.0511  -11.0939 C   0  0  0  0  0  0  0  0  0  0  0  0
   21.6201   12.6511  -10.8939 C   0  0  0  0  0  0  0  0  0  0  0  0
   21.2201   14.4511  -12.4939 N   0  0  0  0  0  0  0  0  0  0  0  0
   22.1201   12.1511  -12.1939 C   0  0  0  0  0  0  0  0  0  0  0  0
   21.9201   13.3511  -13.1939 C   0  0  0  0  0  0  0  0  0  0  0  0
   22.4201   12.4511   -9.6939 C   0  0  0  0  0  0  0  0  0  0  0  0
   22.8201   11.0511  -12.4939 C   0  0  0  0  0  0  0  0  0  0  0  0
   23.0201    9.6511  -11.9939 C   0  0  0  0  0  0  0  0  0  0  0  0
   23.8201    8.8511  -12.7939 C   0  0  0  0  0  0  0  0  0  0  0  0
   23.5201    7.5511  -13.3939 C   0  0  0  0  0  0  0  0  0  0  0  0
   24.2201    7.0511  -14.5939 C   0  0  0  0  0  0  0  0  0  0  0  0
   24.4201    8.0511  -15.6939 C   0  0  0  0  0  0  0  0  0  0  0  0
   23.7201    9.3511  -15.4939 C   0  0  0  0  0  0  0  0  0  0  0  0
   24.3201   10.4511  -16.2939 C   0  0  0  0  0  0  0  0  0  0  0  0
  2  1  1  0
  3  2  1  0
  4  2  1  0
  5  3  1  0
  6  4  1  0
  6  5  1  0
  7  3  1  0
  8  5  1  0
  9  8  2  3
 10  9  1  0
 11 10  1  0
 12 11  1  0
 13 12  1  0
 14 13  1  0
 15 14  1  0
M  END
>  <ID>  (1) 
conformer_0

$$$$
