
     RDKit          3D

 13 15  0  0  0  0  0  0  0  0999 V2000
   21.9201   14.9511  -10.2939 O   0  0  0  0  0  0  0  0  0  0  0  0
   21.2201   14.0511  -11.0939 C   0  0  0  0  0  0  0  0  0  0  0  0
   21.5201   12.6511  -10.6939 C   0  0  0  0  0  0  0  0  0  0  0  0
   21.2201   14.3511  -12.4939 N   0  0  0  0  0  0  0  0  0  0  0  0
   20.4201   11.8511  -10.0939 C   0  0  0  0  0  0  0  0  0  0  0  0
   21.9201   12.0511  -11.9939 C   0  0  0  0  0  0  0  0  0  0  0  0
   22.1201   13.3511  -12.9939 C   0  0  0  0  0  0  0  0  0  0  0  0
   23.3201   13.7511  -13.0939 O   0  0  0  0  0  0  0  0  0  0  0  0
   22.6201   12.6511   -9.6939 C   0  0  0  0  0  0  0  0  0  0  0  0
   20.7201   11.4511   -8.6939 C   0  0  0  0  0  0  0  0  0  0  0  0
   21.0201   12.3511   -7.6939 C   0  0  0  0  0  0  0  0  0  0  0  0
   22.2201   13.0511   -7.2939 O   0  0  0  0  0  0  0  0  0  0  0  0
   22.1201   13.2511   -8.4939 C   0  0  0  0  0  0  0  0  0  0  0  0
  2  1  1  0
  3  2  1  0
  4  2  1  0
  5  3  1  0
  6  3  1  0
  7  4  1  0
  7  6  1  0
  8  7  1  0
  9  3  1  0
 10  5  1  0
 11 10  1  0
 12 11  1  0
 13  9  1  0
 13 11  1  0
 13 12  1  0
M  END
>  <ID>  (1) 
conformer_0

$$$$
