
     RDKit          3D

 22 24  0  0  0  0  0  0  0  0999 V2000
   21.7783   14.8182   -8.6734 O   0  0  0  0  0  0  0  0  0  0  0  0
   21.2783   14.0182   -9.5734 C   0  0  0  0  0  0  0  0  0  0  0  0
   21.3783   14.0182  -10.9734 C   0  0  0  0  0  0  0  0  0  0  0  0
   20.3783   13.0182   -9.0734 N   0  0  0  0  0  0  0  0  0  0  0  0
   20.1783   12.0182  -10.0734 C   0  0  0  0  0  0  0  0  0  0  0  0
   21.0783   11.6182  -11.1734 C   0  0  0  0  0  0  0  0  0  0  0  0
   21.9783   12.7182  -11.5734 C   0  0  0  0  0  0  0  0  0  0  0  0
   22.4783   11.7182  -10.5734 C   0  0  0  0  0  0  0  0  0  0  0  0
   20.8783   10.4182  -11.8734 C   0  0  0  0  0  0  0  0  0  0  0  0
   19.3783   10.8182   -9.7734 C   0  0  0  0  0  0  0  0  0  0  0  0
   22.0783   10.0182  -12.5734 C   0  0  0  0  0  0  0  0  0  0  0  0
   22.9783   11.0182  -13.0734 C   0  0  0  0  0  0  0  0  0  0  0  0
   22.6783   12.4182  -12.9734 C   0  0  0  0  0  0  0  0  0  0  0  0
   22.0783    8.8182  -13.4734 C   0  0  0  0  0  0  0  0  0  0  0  0
   22.6783    9.1182  -14.7734 C   0  0  0  0  0  0  0  0  0  0  0  0
   23.5783    8.2182  -15.4734 C   0  0  0  0  0  0  0  0  0  0  0  0
   22.4783   10.4182  -15.3734 C   0  0  0  0  0  0  0  0  0  0  0  0
   24.7783    8.3182  -16.0734 O   0  0  0  0  0  0  0  0  0  0  0  0
   25.9783    7.8182  -15.7734 C   0  0  0  0  0  0  0  0  0  0  0  0
   26.6783    6.8182  -15.6734 O   0  0  0  0  0  0  0  0  0  0  0  0
   21.4783   10.4182  -16.2734 O   0  0  0  0  0  0  0  0  0  0  0  0
   23.5783   11.3182  -15.7734 C   0  0  0  0  0  0  0  0  0  0  0  0
  2  1  2  0
  3  2  1  0
  4  2  1  0
  5  4  1  0
  6  5  1  0
  7  3  1  0
  7  6  1  0
  8  6  1  0
  8  7  1  0
  9  6  1  0
 10  5  1  0
 11  9  1  0
 12 11  1  0
 13  7  1  0
 13 12  1  0
 14 11  1  0
 15 14  1  0
 16 15  1  0
 17 15  1  0
 18 16  1  0
 19 18  1  0
 20 19  2  0
 21 17  1  0
 22 17  1  0
M  END
>  <ID>  (1) 
conformer_0

$$$$
