
     RDKit          3D

 16 18  0  0  0  0  0  0  0  0999 V2000
   22.2898   14.6949   -9.7732 O   0  0  0  0  0  0  0  0  0  0  0  0
   21.3898   14.0949  -10.6732 C   0  0  0  0  0  0  0  0  0  0  0  0
   21.6898   12.6949  -10.8732 C   0  0  0  0  0  0  0  0  0  0  0  0
   21.1898   14.6949  -11.8732 N   0  0  0  0  0  0  0  0  0  0  0  0
   21.5898   12.1949  -12.2732 C   0  0  0  0  0  0  0  0  0  0  0  0
   22.1898   12.9949  -13.3732 C   0  0  0  0  0  0  0  0  0  0  0  0
   21.9898   11.7949   -9.7732 C   0  0  0  0  0  0  0  0  0  0  0  0
   21.1898   10.8949  -12.5732 C   0  0  0  0  0  0  0  0  0  0  0  0
   20.3898   10.4949  -11.3732 C   0  0  0  0  0  0  0  0  0  0  0  0
   20.9898   10.5949  -10.0732 C   0  0  0  0  0  0  0  0  0  0  0  0
   22.3898   10.6949  -10.4732 N   0  0  0  0  0  0  0  0  0  0  0  0
   23.4898   13.5949  -13.3732 O   0  0  0  0  0  0  0  0  0  0  0  0
   21.7898   12.3949  -14.5732 C   0  0  0  0  0  0  0  0  0  0  0  0
   21.4898   10.9949  -14.9732 C   0  0  0  0  0  0  0  0  0  0  0  0
   20.9898   10.1949  -13.7732 C   0  0  0  0  0  0  0  0  0  0  0  0
   22.0898   13.1949  -15.7732 C   0  0  0  0  0  0  0  0  0  0  0  0
  2  1  1  0
  3  2  1  0
  4  2  1  0
  5  3  1  0
  6  5  1  0
  7  3  1  0
  8  5  1  0
  9  8  1  0
 10  7  1  0
 10  9  1  0
 11  7  1  0
 11 10  1  0
 12  6  1  0
 13  6  1  0
 14 13  1  0
 15  8  1  0
 15 14  1  0
 16 13  1  0
M  END
>  <ID>  (1) 
conformer_0

$$$$
