
     RDKit          3D

 17 20  0  0  0  0  0  0  0  0999 V2000
   21.9201   14.9511  -10.2939 O   0  0  0  0  0  0  0  0  0  0  0  0
   21.2201   14.0511  -11.0939 C   0  0  0  0  0  0  0  0  0  0  0  0
   21.2201   12.6511  -10.5939 C   0  0  0  0  0  0  0  0  0  0  0  0
   21.4201   14.3511  -12.4939 N   0  0  0  0  0  0  0  0  0  0  0  0
   20.0201   12.1511   -9.8939 C   0  0  0  0  0  0  0  0  0  0  0  0
   21.4201   11.9511  -11.8939 C   0  0  0  0  0  0  0  0  0  0  0  0
   22.7201   12.2511  -12.4939 C   0  0  0  0  0  0  0  0  0  0  0  0
   20.6201   10.7511  -11.8939 C   0  0  0  0  0  0  0  0  0  0  0  0
   20.5201    9.9511  -10.7939 C   0  0  0  0  0  0  0  0  0  0  0  0
   23.5201   13.3511  -12.9939 O   0  0  0  0  0  0  0  0  0  0  0  0
   19.8201   10.7511   -9.5939 C   0  0  0  0  0  0  0  0  0  0  0  0
   20.8201    9.7511  -12.9939 C   0  0  0  0  0  0  0  0  0  0  0  0
   22.9201   11.1511  -13.4939 C   0  0  0  0  0  0  0  0  0  0  0  0
   21.8201   10.2511  -13.9939 C   0  0  0  0  0  0  0  0  0  0  0  0
   22.4201    9.2511  -14.8939 C   0  0  0  0  0  0  0  0  0  0  0  0
   21.4201   12.9511  -12.9939 C   0  0  0  0  0  0  0  0  0  0  0  0
   24.0201   11.2511  -14.4939 O   0  0  0  0  0  0  0  0  0  0  0  0
  2  1  2  0
  3  2  1  0
  4  2  1  0
  5  3  1  0
  6  3  1  0
  7  6  1  0
  8  6  1  0
  9  8  1  0
 10  7  1  0
 11  5  1  0
 11  9  1  0
 12  8  1  0
 13  7  1  0
 14 12  1  0
 14 13  1  0
 15 14  1  0
 16  4  1  0
 16  6  1  0
 16  7  1  0
 17 13  1  0
M  END
>  <ID>  (1) 
conformer_0

$$$$
