
     RDKit          3D

 20 22  0  0  0  0  0  0  0  0999 V2000
   21.9201   14.9511  -10.2939 O   0  0  0  0  0  0  0  0  0  0  0  0
   21.2201   14.0511  -11.0939 C   0  0  0  0  0  0  0  0  0  0  0  0
   21.6201   12.6511  -10.8939 C   0  0  0  0  0  0  0  0  0  0  0  0
   21.2201   14.4511  -12.4939 N   0  0  0  0  0  0  0  0  0  0  0  0
   22.1201   12.1511  -12.1939 C   0  0  0  0  0  0  0  0  0  0  0  0
   22.1201   13.3511  -13.0939 C   0  0  0  0  0  0  0  0  0  0  0  0
   22.3201   12.2511   -9.6939 C   0  0  0  0  0  0  0  0  0  0  0  0
   22.8201   11.0511  -12.5939 C   0  0  0  0  0  0  0  0  0  0  0  0
   23.3201   10.9511  -13.9939 C   0  0  0  0  0  0  0  0  0  0  0  0
   23.0201    9.9511  -11.6939 C   0  0  0  0  0  0  0  0  0  0  0  0
   22.1201    9.9511  -10.4939 C   0  0  0  0  0  0  0  0  0  0  0  0
   23.6201    8.6511  -12.0939 C   0  0  0  0  0  0  0  0  0  0  0  0
   20.7201   10.3511  -10.3939 C   0  0  0  0  0  0  0  0  0  0  0  0
   24.2201    8.7511  -13.3939 C   0  0  0  0  0  0  0  0  0  0  0  0
   24.2201    9.8511  -14.1939 C   0  0  0  0  0  0  0  0  0  0  0  0
   25.2201   10.1511  -14.9939 O   0  0  0  0  0  0  0  0  0  0  0  0
   20.4201   10.9511   -9.0939 C   0  0  0  0  0  0  0  0  0  0  0  0
   21.7201   11.5511   -8.5939 C   0  0  0  0  0  0  0  0  0  0  0  0
   21.5201   12.3511   -7.5939 O   0  0  0  0  0  0  0  0  0  0  0  0
   22.2201    8.9511   -9.3939 C   0  0  0  0  0  0  0  0  0  0  0  0
  2  1  1  0
  3  2  1  0
  4  2  1  0
  5  3  1  0
  6  4  1  0
  6  5  1  0
  7  3  1  0
  8  5  2  0
  9  8  1  0
 10  8  1  0
 11 10  1  0
 12 10  1  0
 13 11  1  0
 14 12  1  0
 15  9  1  0
 15 14  1  0
 16 15  1  0
 17 13  1  0
 18  7  1  0
 18 17  1  0
 19 18  1  0
 20 11  1  0
M  END
>  <ID>  (1) 
conformer_0

$$$$
