
     RDKit          3D

 22 26  0  0  0  0  0  0  0  0999 V2000
   21.7783   14.8182   -8.6734 O   0  0  0  0  0  0  0  0  0  0  0  0
   21.2783   14.0182   -9.5734 C   0  0  0  0  0  0  0  0  0  0  0  0
   21.3783   14.0182  -10.9734 C   0  0  0  0  0  0  0  0  0  0  0  0
   20.3783   13.0182   -9.0734 N   0  0  0  0  0  0  0  0  0  0  0  0
   20.1783   12.0182  -10.0734 C   0  0  0  0  0  0  0  0  0  0  0  0
   21.0783   11.6182  -11.1734 C   0  0  0  0  0  0  0  0  0  0  0  0
   21.9783   12.7182  -11.5734 C   0  0  0  0  0  0  0  0  0  0  0  0
   22.3783   11.9182  -10.3734 C   0  0  0  0  0  0  0  0  0  0  0  0
   22.6783   12.7182  -12.8734 C   0  0  0  0  0  0  0  0  0  0  0  0
   20.9783   10.4182  -11.8734 C   0  0  0  0  0  0  0  0  0  0  0  0
   19.8783    9.5182  -11.7734 C   0  0  0  0  0  0  0  0  0  0  0  0
   21.9783   10.2182  -12.9734 C   0  0  0  0  0  0  0  0  0  0  0  0
   21.7783    8.9182  -13.6734 C   0  0  0  0  0  0  0  0  0  0  0  0
   22.9783   11.2182  -13.2734 C   0  0  0  0  0  0  0  0  0  0  0  0
   22.8783    8.7182  -14.6734 C   0  0  0  0  0  0  0  0  0  0  0  0
   24.1783    8.6182  -13.9734 C   0  0  0  0  0  0  0  0  0  0  0  0
   24.1783    8.8182  -12.5734 C   0  0  0  0  0  0  0  0  0  0  0  0
   25.2783    9.0182  -14.8734 C   0  0  0  0  0  0  0  0  0  0  0  0
   26.3783    8.4182  -14.7734 O   0  0  0  0  0  0  0  0  0  0  0  0
   24.9783    9.8182  -16.0734 C   0  0  0  0  0  0  0  0  0  0  0  0
   23.7783    7.2182  -14.2734 C   0  0  0  0  0  0  0  0  0  0  0  0
   20.8783    9.2182  -11.0734 C   0  0  0  0  0  0  0  0  0  0  0  0
  2  1  2  0
  3  2  1  0
  4  2  1  0
  5  4  1  0
  6  5  1  0
  7  3  1  0
  7  6  1  0
  8  6  1  0
  8  7  1  0
  9  7  1  0
 10  6  1  0
 11 10  1  0
 12 10  1  0
 13 12  1  0
 14  9  1  0
 14 12  1  0
 15 13  1  0
 16 15  1  0
 17 16  1  0
 18 16  1  0
 19 18  2  0
 20 18  1  0
 21 15  1  0
 21 16  1  0
 22 10  1  0
 22 11  1  0
M  END
>  <ID>  (1) 
conformer_0

$$$$
