
     RDKit          3D

 21 26  0  0  0  0  0  0  0  0999 V2000
   22.2898   14.6949   -9.7732 O   0  0  0  0  0  0  0  0  0  0  0  0
   21.3898   14.0949  -10.6732 C   0  0  0  0  0  0  0  0  0  0  0  0
   21.6898   12.6949  -10.8732 C   0  0  0  0  0  0  0  0  0  0  0  0
   21.1898   14.6949  -11.8732 N   0  0  0  0  0  0  0  0  0  0  0  0
   21.5898   12.1949  -12.2732 C   0  0  0  0  0  0  0  0  0  0  0  0
   22.1898   12.9949  -13.3732 C   0  0  0  0  0  0  0  0  0  0  0  0
   21.9898   11.7949   -9.7732 C   0  0  0  0  0  0  0  0  0  0  0  0
   21.1898   10.8949  -12.5732 C   0  0  0  0  0  0  0  0  0  0  0  0
   20.7898   10.1949  -11.3732 C   0  0  0  0  0  0  0  0  0  0  0  0
   21.4898   10.3949  -10.0732 C   0  0  0  0  0  0  0  0  0  0  0  0
   19.9898   10.7949  -10.3732 C   0  0  0  0  0  0  0  0  0  0  0  0
   21.3898   10.1949  -13.8732 C   0  0  0  0  0  0  0  0  0  0  0  0
   23.4898   13.4949  -13.1732 O   0  0  0  0  0  0  0  0  0  0  0  0
   22.0898   12.4949  -14.7732 C   0  0  0  0  0  0  0  0  0  0  0  0
   21.3898   11.1949  -14.9732 C   0  0  0  0  0  0  0  0  0  0  0  0
   21.1898   13.6949  -12.7732 C   0  0  0  0  0  0  0  0  0  0  0  0
   21.4898   10.6949  -16.1732 O   0  0  0  0  0  0  0  0  0  0  0  0
   22.0898    9.1949   -9.5732 C   0  0  0  0  0  0  0  0  0  0  0  0
   22.9898    8.5949  -10.5732 C   0  0  0  0  0  0  0  0  0  0  0  0
   22.4898    8.5949  -11.9732 C   0  0  0  0  0  0  0  0  0  0  0  0
   21.0898    8.7949  -11.7732 C   0  0  0  0  0  0  0  0  0  0  0  0
  2  1  1  0
  3  2  1  0
  4  2  1  0
  5  3  1  0
  6  5  1  0
  7  3  1  0
  8  5  1  0
  9  8  1  0
 10  7  1  0
 10  9  1  0
 11  9  1  0
 11 10  1  0
 12  8  1  0
 13  6  1  0
 14  6  1  0
 15 12  1  0
 15 14  1  0
 16  4  1  0
 16  5  1  0
 16  6  1  0
 17 15  1  0
 18 10  1  0
 19 18  1  0
 20 19  1  0
 21  9  1  0
 21 20  1  0
M  END
>  <ID>  (1) 
conformer_0

$$$$
