
     RDKit          3D

 18 21  0  0  0  0  0  0  0  0999 V2000
   22.2898   14.6949   -9.7732 O   0  0  0  0  0  0  0  0  0  0  0  0
   21.4898   13.9949  -10.4732 C   0  0  0  0  0  0  0  0  0  0  0  0
   21.5898   12.6949  -11.0732 C   0  0  0  0  0  0  0  0  0  0  0  0
   20.3898   11.9949  -10.8732 C   0  0  0  0  0  0  0  0  0  0  0  0
   22.2898   12.3949  -12.2732 C   0  0  0  0  0  0  0  0  0  0  0  0
   23.2898   13.2949  -12.6732 O   0  0  0  0  0  0  0  0  0  0  0  0
   22.6898   10.9949  -12.5732 C   0  0  0  0  0  0  0  0  0  0  0  0
   21.7898   10.0949  -11.8732 C   0  0  0  0  0  0  0  0  0  0  0  0
   20.5898   10.4949  -11.1732 C   0  0  0  0  0  0  0  0  0  0  0  0
   22.3898    8.7949  -11.5732 C   0  0  0  0  0  0  0  0  0  0  0  0
   23.3898   10.5949  -13.7732 C   0  0  0  0  0  0  0  0  0  0  0  0
   23.4898    8.3949  -12.4732 C   0  0  0  0  0  0  0  0  0  0  0  0
   24.0898    9.1949  -13.4732 C   0  0  0  0  0  0  0  0  0  0  0  0
   25.2898    8.9949  -13.9732 O   0  0  0  0  0  0  0  0  0  0  0  0
   20.0898   14.1949  -10.4732 N   0  0  0  0  0  0  0  0  0  0  0  0
   19.8898   12.1949   -9.6732 N   0  0  0  0  0  0  0  0  0  0  0  0
   19.2898    9.9949  -11.6732 C   0  0  0  0  0  0  0  0  0  0  0  0
   19.4898   12.8949  -10.7732 C   0  0  0  0  0  0  0  0  0  0  0  0
  2  1  2  0
  3  2  1  0
  4  3  1  0
  5  3  1  0
  6  5  1  0
  7  5  1  0
  8  7  1  0
  9  4  1  0
  9  8  1  0
 10  8  1  0
 11  7  1  0
 12 10  1  0
 13 11  1  0
 13 12  1  0
 14 13  1  0
 15  2  1  0
 16  4  1  0
 17  9  1  0
 18  4  1  0
 18 15  1  0
 18 16  1  0
M  END
>  <ID>  (1) 
conformer_0

$$$$
