
     RDKit          3D

 16 19  0  0  0  0  0  0  0  0999 V2000
   21.9201   14.9511  -10.2939 O   0  0  0  0  0  0  0  0  0  0  0  0
   21.2201   14.0511  -11.0939 C   0  0  0  0  0  0  0  0  0  0  0  0
   21.6201   12.6511  -10.8939 C   0  0  0  0  0  0  0  0  0  0  0  0
   21.2201   14.4511  -12.4939 N   0  0  0  0  0  0  0  0  0  0  0  0
   22.3201   12.1511  -12.0939 C   0  0  0  0  0  0  0  0  0  0  0  0
   20.7201   11.7511  -10.1939 C   0  0  0  0  0  0  0  0  0  0  0  0
   21.2201   10.4511   -9.6939 C   0  0  0  0  0  0  0  0  0  0  0  0
   22.3201   10.0511  -10.5939 C   0  0  0  0  0  0  0  0  0  0  0  0
   22.6201   10.6511  -11.8939 C   0  0  0  0  0  0  0  0  0  0  0  0
   22.8201    8.6511  -10.5939 C   0  0  0  0  0  0  0  0  0  0  0  0
   23.4201    9.8511  -12.7939 C   0  0  0  0  0  0  0  0  0  0  0  0
   22.4201    7.8511  -11.7939 C   0  0  0  0  0  0  0  0  0  0  0  0
   23.5201    8.7511  -11.7939 N   0  0  0  0  0  0  0  0  0  0  0  0
   22.1201   14.0511  -13.4939 C   0  0  0  0  0  0  0  0  0  0  0  0
   22.9201   12.8511  -13.0939 N   0  0  0  0  0  0  0  0  0  0  0  0
   21.6201   13.8511  -14.6939 O   0  0  0  0  0  0  0  0  0  0  0  0
  2  1  1  0
  3  2  1  0
  4  2  1  0
  5  3  1  0
  6  3  1  0
  7  6  1  0
  8  7  1  0
  9  5  2  0
  9  8  1  0
 10  8  1  0
 11  9  1  0
 12 10  1  0
 13 10  1  0
 13 11  1  0
 13 12  1  0
 14  4  1  0
 15  5  1  0
 15 14  1  0
 16 14  1  0
M  END
>  <ID>  (1) 
conformer_0

$$$$
