
     RDKit          3D

 20 25  0  0  0  0  0  0  0  0999 V2000
   21.9201   14.9511  -10.2939 O   0  0  0  0  0  0  0  0  0  0  0  0
   21.2201   14.0511  -11.0939 C   0  0  0  0  0  0  0  0  0  0  0  0
   21.6201   12.6511  -10.8939 C   0  0  0  0  0  0  0  0  0  0  0  0
   21.2201   14.4511  -12.4939 N   0  0  0  0  0  0  0  0  0  0  0  0
   22.1201   12.1511  -12.1939 C   0  0  0  0  0  0  0  0  0  0  0  0
   21.9201   13.3511  -13.1939 C   0  0  0  0  0  0  0  0  0  0  0  0
   22.4201   12.4511   -9.6939 C   0  0  0  0  0  0  0  0  0  0  0  0
   22.8201   11.0511  -12.5939 C   0  0  0  0  0  0  0  0  0  0  0  0
   23.2201   10.8511  -13.8939 C   0  0  0  0  0  0  0  0  0  0  0  0
   22.7201    9.8511  -11.7939 C   0  0  0  0  0  0  0  0  0  0  0  0
   23.8201    8.9511  -12.1939 C   0  0  0  0  0  0  0  0  0  0  0  0
   22.3201   10.1511  -10.3939 C   0  0  0  0  0  0  0  0  0  0  0  0
   23.5201    9.6511  -14.5939 C   0  0  0  0  0  0  0  0  0  0  0  0
   22.5201    8.6511  -12.4939 C   0  0  0  0  0  0  0  0  0  0  0  0
   21.0201   10.3511   -9.8939 C   0  0  0  0  0  0  0  0  0  0  0  0
   20.5201   11.2511   -8.8939 C   0  0  0  0  0  0  0  0  0  0  0  0
   21.4201   12.3511   -8.4939 C   0  0  0  0  0  0  0  0  0  0  0  0
   24.3201    9.5511  -13.4939 N   0  0  0  0  0  0  0  0  0  0  0  0
   23.7201    9.2511  -15.6939 O   0  0  0  0  0  0  0  0  0  0  0  0
   22.0201   13.4511   -8.7939 O   0  0  0  0  0  0  0  0  0  0  0  0
  2  1  1  0
  3  2  1  0
  4  2  1  0
  5  3  1  0
  6  4  1  0
  6  5  1  0
  7  3  1  0
  8  5  1  0
  9  8  1  0
 10  8  1  0
 11 10  1  0
 12 10  1  0
 13  9  1  0
 14 10  1  0
 14 11  1  0
 15 12  1  0
 16 15  2  0
 17  7  1  0
 17 16  1  0
 18  9  1  0
 18 11  1  0
 18 13  1  0
 19 13  2  0
 20  7  1  0
 20 17  1  0
M  END
>  <ID>  (1) 
conformer_0

$$$$
