
     RDKit          3D

 18 19  0  0  0  0  0  0  0  0999 V2000
   21.9201   14.9511  -10.2939 O   0  0  0  0  0  0  0  0  0  0  0  0
   21.2201   14.0511  -11.0939 C   0  0  0  0  0  0  0  0  0  0  0  0
   21.6201   12.6511  -10.8939 C   0  0  0  0  0  0  0  0  0  0  0  0
   21.2201   14.4511  -12.4939 N   0  0  0  0  0  0  0  0  0  0  0  0
   22.1201   12.1511  -12.1939 C   0  0  0  0  0  0  0  0  0  0  0  0
   21.9201   13.3511  -13.1939 C   0  0  0  0  0  0  0  0  0  0  0  0
   22.4201   12.4511   -9.6939 C   0  0  0  0  0  0  0  0  0  0  0  0
   22.8201   11.0511  -12.4939 C   0  0  0  0  0  0  0  0  0  0  0  0
   23.0201    9.7511  -12.8939 C   0  0  0  0  0  0  0  0  0  0  0  0
   23.6201    8.8511  -11.8939 C   0  0  0  0  0  0  0  0  0  0  0  0
   23.1201    8.8511  -10.5939 C   0  0  0  0  0  0  0  0  0  0  0  0
   23.3201    9.4511  -14.2939 C   0  0  0  0  0  0  0  0  0  0  0  0
   24.2201    8.3511  -14.4939 C   0  0  0  0  0  0  0  0  0  0  0  0
   24.5201    7.8511  -15.7939 C   0  0  0  0  0  0  0  0  0  0  0  0
   24.2201    6.5511  -16.3939 C   0  0  0  0  0  0  0  0  0  0  0  0
   25.7201    8.3511  -16.4939 C   0  0  0  0  0  0  0  0  0  0  0  0
   25.0201    6.1511  -17.4939 C   0  0  0  0  0  0  0  0  0  0  0  0
   26.1201    7.4511  -17.5939 C   0  0  0  0  0  0  0  0  0  0  0  0
  2  1  1  0
  3  2  1  0
  4  2  1  0
  5  3  1  0
  6  4  1  0
  6  5  1  0
  7  3  1  0
  8  5  2  0
  9  8  2  0
 10  9  1  0
 11 10  1  0
 12  9  1  0
 13 12  1  0
 14 13  1  0
 15 14  2  0
 16 14  1  0
 17 15  1  0
 18 16  1  0
 18 17  2  0
M  END
>  <ID>  (1) 
conformer_0

$$$$
