
     RDKit          3D

 16 20  0  0  0  0  0  0  0  0999 V2000
   21.9201   14.9511  -10.2939 O   0  0  0  0  0  0  0  0  0  0  0  0
   21.2201   14.0511  -11.0939 C   0  0  0  0  0  0  0  0  0  0  0  0
   21.5201   12.6511  -10.9939 C   0  0  0  0  0  0  0  0  0  0  0  0
   21.3201   14.5511  -12.4939 N   0  0  0  0  0  0  0  0  0  0  0  0
   20.4201   11.8511  -10.3939 C   0  0  0  0  0  0  0  0  0  0  0  0
   22.3201   12.2511  -12.1939 C   0  0  0  0  0  0  0  0  0  0  0  0
   22.1201   13.5511  -13.1939 C   0  0  0  0  0  0  0  0  0  0  0  0
   23.3201   13.2511  -12.4939 O   0  0  0  0  0  0  0  0  0  0  0  0
   20.6201   10.8511   -9.2939 C   0  0  0  0  0  0  0  0  0  0  0  0
   21.7201    9.9511   -9.4939 C   0  0  0  0  0  0  0  0  0  0  0  0
   22.3201   10.1511  -10.7939 C   0  0  0  0  0  0  0  0  0  0  0  0
   21.8201   11.0511  -12.8939 C   0  0  0  0  0  0  0  0  0  0  0  0
   21.3201   10.0511  -11.8939 C   0  0  0  0  0  0  0  0  0  0  0  0
   19.7201   10.8511  -10.4939 O   0  0  0  0  0  0  0  0  0  0  0  0
   20.5201   10.8511  -12.6939 O   0  0  0  0  0  0  0  0  0  0  0  0
   23.5201    9.5511  -11.1939 O   0  0  0  0  0  0  0  0  0  0  0  0
  2  1  1  0
  3  2  1  0
  4  2  1  0
  5  3  1  0
  6  3  1  0
  7  4  1  0
  7  6  1  0
  8  6  1  0
  8  7  1  0
  9  5  1  0
 10  9  1  0
 11 10  1  0
 12  6  1  0
 13 11  1  0
 13 12  1  0
 14  5  1  0
 14  9  1  0
 15 12  1  0
 15 13  1  0
 16 11  1  0
M  END
>  <ID>  (1) 
conformer_0

$$$$
