
     RDKit          3D

 13 13  0  0  0  0  0  0  0  0999 V2000
   21.9201   14.9511  -10.2939 O   0  0  0  0  0  0  0  0  0  0  0  0
   21.2201   14.0511  -11.0939 C   0  0  0  0  0  0  0  0  0  0  0  0
   21.6201   12.6511  -10.8939 C   0  0  0  0  0  0  0  0  0  0  0  0
   21.2201   14.4511  -12.4939 N   0  0  0  0  0  0  0  0  0  0  0  0
   22.1201   12.1511  -12.1939 C   0  0  0  0  0  0  0  0  0  0  0  0
   21.8201   13.3511  -13.1939 C   0  0  0  0  0  0  0  0  0  0  0  0
   22.4201   12.2511   -9.6939 C   0  0  0  0  0  0  0  0  0  0  0  0
   22.2201   10.8511  -12.7939 C   0  0  0  0  0  0  0  0  0  0  0  0
   23.0201    9.7511  -12.3939 C   0  0  0  0  0  0  0  0  0  0  0  0
   24.2201    9.2511  -13.0939 C   0  0  0  0  0  0  0  0  0  0  0  0
   24.2201    8.0511  -13.8939 C   0  0  0  0  0  0  0  0  0  0  0  0
   24.2201    8.0511  -15.3939 C   0  0  0  0  0  0  0  0  0  0  0  0
   24.3201    6.8511  -16.1939 C   0  0  0  0  0  0  0  0  0  0  0  0
  2  1  1  0
  3  2  1  0
  4  2  1  0
  5  3  1  0
  6  4  2  0
  6  5  1  0
  7  3  1  0
  8  5  1  0
  9  8  1  0
 10  9  1  0
 11 10  1  0
 12 11  2  3
 13 12  1  0
M  END
>  <ID>  (1) 
conformer_0

$$$$
