
     RDKit          3D

 18 22  0  0  0  0  0  0  0  0999 V2000
   21.9201   14.9511  -10.2939 O   0  0  0  0  0  0  0  0  0  0  0  0
   21.2201   14.0511  -11.0939 C   0  0  0  0  0  0  0  0  0  0  0  0
   21.6201   12.6511  -10.8939 C   0  0  0  0  0  0  0  0  0  0  0  0
   21.2201   14.4511  -12.4939 N   0  0  0  0  0  0  0  0  0  0  0  0
   22.1201   12.1511  -12.1939 C   0  0  0  0  0  0  0  0  0  0  0  0
   21.9201   13.3511  -13.1939 C   0  0  0  0  0  0  0  0  0  0  0  0
   22.4201   12.4511   -9.6939 C   0  0  0  0  0  0  0  0  0  0  0  0
   22.8201   11.0511  -12.5939 C   0  0  0  0  0  0  0  0  0  0  0  0
   23.2201   10.8511  -13.8939 C   0  0  0  0  0  0  0  0  0  0  0  0
   22.7201    9.8511  -11.7939 C   0  0  0  0  0  0  0  0  0  0  0  0
   23.8201    8.9511  -12.1939 C   0  0  0  0  0  0  0  0  0  0  0  0
   22.2201    9.9511  -10.3939 C   0  0  0  0  0  0  0  0  0  0  0  0
   23.4201    9.5511  -14.5939 C   0  0  0  0  0  0  0  0  0  0  0  0
   22.5201    8.6511  -12.5939 C   0  0  0  0  0  0  0  0  0  0  0  0
   21.0201   10.4511   -9.6939 C   0  0  0  0  0  0  0  0  0  0  0  0
   24.2201    9.5511  -13.4939 N   0  0  0  0  0  0  0  0  0  0  0  0
   23.4201    9.1511  -15.6939 O   0  0  0  0  0  0  0  0  0  0  0  0
   20.5201   11.6511  -10.2939 C   0  0  0  0  0  0  0  0  0  0  0  0
  2  1  1  0
  3  2  1  0
  4  2  1  0
  5  3  1  0
  6  4  1  0
  6  5  1  0
  7  3  1  0
  8  5  1  0
  9  8  1  0
 10  8  1  0
 11 10  1  0
 12 10  1  0
 13  9  1  0
 14 10  1  0
 14 11  1  0
 15 12  1  0
 16  9  1  0
 16 11  1  0
 16 13  1  0
 17 13  2  0
 18  3  1  0
 18 15  1  0
M  END
>  <ID>  (1) 
conformer_0

$$$$
