
     RDKit          3D

 12 13  0  0  0  0  0  0  0  0999 V2000
   -0.8426   77.9416    8.1507 C   0  0  0  0  0  0  0  0  0  0  0  0
   -1.2246   76.2149    6.1308 C   0  0  0  0  0  0  0  0  0  0  0  0
   -4.7429   76.3670    4.0766 C   0  0  0  0  0  0  0  0  0  0  0  0
   -0.0304   76.6737    6.2589 C   0  0  0  0  0  0  0  0  0  0  0  0
   -5.1923   75.6487    3.6215 N   0  0  0  0  0  0  0  0  0  0  0  0
   -4.2397   75.9859    5.1838 N   0  0  0  0  0  0  0  0  0  0  0  0
    0.1500   77.5575    7.3832 C   0  0  0  0  0  0  0  0  0  0  0  0
   -3.7928   77.0500    6.0520 C   0  0  0  0  0  0  0  0  0  0  0  0
   -5.1259   74.3197    3.9230 C   0  0  0  0  0  0  0  0  0  0  0  0
   -2.0547   77.6861    7.7009 C   0  0  0  0  0  0  0  0  0  0  0  0
   -2.3841   76.8319    6.5704 C   0  0  0  0  0  0  0  0  0  0  0  0
   -4.2150   74.6017    5.0865 C   0  0  0  0  0  0  0  0  0  0  0  0
  4  2  2  0
  5  3  2  0
  6  3  1  0
  7  1  2  0
  7  4  1  0
  8  6  1  0
  9  5  1  0
 10  1  1  0
 11  2  1  0
 11  8  1  0
 11 10  2  0
 12  6  1  0
 12  9  2  0
M  END
>  <ID>  (1) 
conformer_0

$$$$
