
     RDKit          3D

 11 11  0  0  0  0  0  0  0  0999 V2000
   -0.4557   75.9475    6.4394 C   0  0  0  0  0  0  0  0  0  0  0  0
    0.1087   77.3107    6.4358 C   0  0  0  0  0  0  0  0  0  0  0  0
   -4.7609   75.5718    4.1402 C   0  0  0  0  0  0  0  0  0  0  0  0
   -1.8366   76.1888    6.3549 C   0  0  0  0  0  0  0  0  0  0  0  0
   -4.2982   76.2358    5.0954 N   0  0  0  0  0  0  0  0  0  0  0  0
   -5.0070   75.7439    3.5271 N   0  0  0  0  0  0  0  0  0  0  0  0
   -4.1221   77.0920    6.0360 C   0  0  0  0  0  0  0  0  0  0  0  0
   -0.3669   77.6217    7.8863 C   0  0  0  0  0  0  0  0  0  0  0  0
   -2.4981   77.1546    6.9667 C   0  0  0  0  0  0  0  0  0  0  0  0
   -4.4923   74.1949    4.6144 C   0  0  0  0  0  0  0  0  0  0  0  0
   -1.6316   78.1719    7.6256 C   0  0  0  0  0  0  0  0  0  0  0  0
  2  1  2  0
  4  1  1  0
  5  3  1  0
  6  3  2  3
  7  5  1  0
  8  2  1  0
  9  4  2  0
  9  7  1  0
 10  3  1  0
 11  8  2  0
 11  9  1  0
M  END
>  <ID>  (1) 
conformer_0

$$$$
