
     RDKit          3D

 12 13  0  0  0  0  0  0  0  0999 V2000
   -0.0492   77.8458    7.2948 C   0  0  0  0  0  0  0  0  0  0  0  0
   -0.1391   76.6038    6.2953 C   0  0  0  0  0  0  0  0  0  0  0  0
   -3.8151   75.1995    4.8811 C   0  0  0  0  0  0  0  0  0  0  0  0
   -4.1777   76.2249    5.1525 N   0  0  0  0  0  0  0  0  0  0  0  0
   -0.9008   77.7340    8.1913 C   0  0  0  0  0  0  0  0  0  0  0  0
   -1.2821   76.0862    6.1070 C   0  0  0  0  0  0  0  0  0  0  0  0
   -4.0820   77.2993    6.0096 C   0  0  0  0  0  0  0  0  0  0  0  0
   -5.3285   76.3390    4.1000 C   0  0  0  0  0  0  0  0  0  0  0  0
   -5.2954   75.3556    3.6073 N   0  0  0  0  0  0  0  0  0  0  0  0
   -2.3979   76.7390    6.4334 C   0  0  0  0  0  0  0  0  0  0  0  0
   -2.1371   77.8795    7.4107 C   0  0  0  0  0  0  0  0  0  0  0  0
   -5.0431   74.4816    4.1585 C   0  0  0  0  0  0  0  0  0  0  0  0
  2  1  2  0
  4  3  1  0
  5  1  1  0
  6  2  1  0
  7  4  1  0
  8  4  1  0
  9  8  2  0
 10  6  2  0
 10  7  1  0
 11  5  2  0
 11 10  1  0
 12  3  2  0
 12  9  1  0
M  END
>  <ID>  (1) 
conformer_0

$$$$
