
     RDKit          3D

 13 14  0  0  0  0  0  0  0  0999 V2000
   -0.5350   75.8985    6.7593 C   0  0  0  0  0  0  0  0  0  0  0  0
    0.2084   77.1110    7.5418 C   0  0  0  0  0  0  0  0  0  0  0  0
   -3.9086   75.0338    5.3441 C   0  0  0  0  0  0  0  0  0  0  0  0
   -1.5351   76.3513    6.2638 C   0  0  0  0  0  0  0  0  0  0  0  0
   -4.2937   76.3416    5.2557 N   0  0  0  0  0  0  0  0  0  0  0  0
   -5.1452   75.6515    3.6134 N   0  0  0  0  0  0  0  0  0  0  0  0
   -3.9512   77.3442    6.0798 C   0  0  0  0  0  0  0  0  0  0  0  0
   -0.5156   77.8917    8.1284 C   0  0  0  0  0  0  0  0  0  0  0  0
   -1.8262   77.8594    7.8987 C   0  0  0  0  0  0  0  0  0  0  0  0
   -4.7761   76.3157    4.0804 C   0  0  0  0  0  0  0  0  0  0  0  0
   -3.7176   74.3426    4.8039 C   0  0  0  0  0  0  0  0  0  0  0  0
   -4.7682   74.2741    3.9982 C   0  0  0  0  0  0  0  0  0  0  0  0
   -2.4978   77.1431    6.7539 C   0  0  0  0  0  0  0  0  0  0  0  0
  2  1  2  0
  4  1  1  0
  5  3  1  0
  7  5  1  0
  8  2  1  0
  9  8  2  0
 10  5  1  0
 10  6  2  0
 11  3  1  0
 12  6  1  0
 12 11  2  0
 13  4  2  0
 13  7  1  0
 13  9  1  0
M  END
>  <ID>  (1) 
conformer_0

$$$$
