
     RDKit          3D

 12 13  0  0  0  0  0  0  0  0999 V2000
   -0.8970   76.4180    5.8338 C   0  0  0  0  0  0  0  0  0  0  0  0
   -2.2219   76.6316    6.2173 C   0  0  0  0  0  0  0  0  0  0  0  0
   -5.1885   75.9011    3.8769 C   0  0  0  0  0  0  0  0  0  0  0  0
   -0.0997   77.5239    7.8533 C   0  0  0  0  0  0  0  0  0  0  0  0
   -4.2978   76.0349    5.1263 N   0  0  0  0  0  0  0  0  0  0  0  0
   -5.1580   75.7121    3.5577 N   0  0  0  0  0  0  0  0  0  0  0  0
   -4.1214   76.9854    6.0558 C   0  0  0  0  0  0  0  0  0  0  0  0
   -1.2606   77.7244    8.1899 C   0  0  0  0  0  0  0  0  0  0  0  0
   -2.3667   77.3091    7.5198 C   0  0  0  0  0  0  0  0  0  0  0  0
   -4.0191   74.8395    5.2696 C   0  0  0  0  0  0  0  0  0  0  0  0
   -5.1482   74.0219    4.1777 C   0  0  0  0  0  0  0  0  0  0  0  0
   -0.0221   77.1663    6.3382 C   0  0  0  0  0  0  0  0  0  0  0  0
  2  1  2  0
  5  3  1  0
  6  3  1  0
  7  2  1  0
  7  5  1  0
  8  4  1  0
  9  2  1  0
  9  8  2  0
 10  5  1  0
 11  6  1  0
 11 10  1  0
 12  1  1  0
 12  4  2  0
M  END
>  <ID>  (1) 
conformer_0

$$$$
