
     RDKit          3D

 12 13  0  0  0  0  0  0  0  0999 V2000
    0.2626   77.5667    6.3291 C   0  0  0  0  0  0  0  0  0  0  0  0
    0.2498   77.3587    7.7934 C   0  0  0  0  0  0  0  0  0  0  0  0
   -5.0122   76.2773    4.3394 C   0  0  0  0  0  0  0  0  0  0  0  0
   -0.9305   77.8298    8.2025 C   0  0  0  0  0  0  0  0  0  0  0  0
   -3.8069   77.1950    6.2467 C   0  0  0  0  0  0  0  0  0  0  0  0
   -4.2102   76.0046    5.4373 N   0  0  0  0  0  0  0  0  0  0  0  0
   -5.1288   75.0124    4.1796 N   0  0  0  0  0  0  0  0  0  0  0  0
   -0.4214   76.4951    5.9108 C   0  0  0  0  0  0  0  0  0  0  0  0
   -4.0293   74.5771    5.2345 C   0  0  0  0  0  0  0  0  0  0  0  0
   -2.0117   76.9186    6.3572 C   0  0  0  0  0  0  0  0  0  0  0  0
   -2.0846   77.2580    7.5311 C   0  0  0  0  0  0  0  0  0  0  0  0
   -5.0853   74.3705    3.9578 C   0  0  0  0  0  0  0  0  0  0  0  0
  2  1  2  0
  4  2  1  0
  6  3  1  0
  6  5  1  0
  7  3  1  0
  8  1  1  0
  9  6  1  0
  9  7  1  0
 10  5  1  0
 10  8  2  0
 11  4  2  0
 11 10  1  0
 12  7  1  0
M  END
>  <ID>  (1) 
conformer_0

$$$$
