
     RDKit          3D

 12 13  0  0  0  0  0  0  0  0999 V2000
   -0.9841   76.1292    6.0333 C   0  0  0  0  0  0  0  0  0  0  0  0
   -0.7841   77.9402    8.1144 C   0  0  0  0  0  0  0  0  0  0  0  0
   -5.2514   74.8052    3.6953 C   0  0  0  0  0  0  0  0  0  0  0  0
   -2.2250   76.6185    6.4952 C   0  0  0  0  0  0  0  0  0  0  0  0
   -4.2549   76.0109    5.1527 N   0  0  0  0  0  0  0  0  0  0  0  0
   -1.9875   77.5253    7.5886 C   0  0  0  0  0  0  0  0  0  0  0  0
   -3.7111   76.9005    6.1619 C   0  0  0  0  0  0  0  0  0  0  0  0
   -5.0375   76.2277    3.6825 N   0  0  0  0  0  0  0  0  0  0  0  0
   -4.0009   74.4787    4.9903 C   0  0  0  0  0  0  0  0  0  0  0  0
    0.2809   77.4667    7.3829 C   0  0  0  0  0  0  0  0  0  0  0  0
    0.1786   76.6299    6.2449 C   0  0  0  0  0  0  0  0  0  0  0  0
   -4.8595   76.4423    4.4505 C   0  0  0  0  0  0  0  0  0  0  0  0
  4  1  2  0
  6  2  2  0
  6  4  1  0
  7  4  1  0
  7  5  1  0
  8  3  1  0
  9  3  1  0
  9  5  1  0
 10  2  1  0
 11  1  1  0
 11 10  2  0
 12  5  1  0
 12  8  1  0
M  END
>  <ID>  (1) 
conformer_0

$$$$
