
     RDKit          3D

 12 13  0  0  0  0  0  0  0  0999 V2000
   -0.0064   77.5252    6.8670 C   0  0  0  0  0  0  0  0  0  0  0  0
   -0.5327   76.2736    6.0974 C   0  0  0  0  0  0  0  0  0  0  0  0
   -4.7110   76.3868    4.0824 C   0  0  0  0  0  0  0  0  0  0  0  0
   -4.1754   76.1801    5.2243 N   0  0  0  0  0  0  0  0  0  0  0  0
   -0.3462   77.4172    8.1771 C   0  0  0  0  0  0  0  0  0  0  0  0
   -1.6336   77.8773    8.0223 C   0  0  0  0  0  0  0  0  0  0  0  0
   -5.0522   75.6402    3.5430 N   0  0  0  0  0  0  0  0  0  0  0  0
   -3.8517   77.0132    6.1733 C   0  0  0  0  0  0  0  0  0  0  0  0
   -4.0777   74.8783    5.2651 C   0  0  0  0  0  0  0  0  0  0  0  0
   -1.8247   76.5624    5.9731 C   0  0  0  0  0  0  0  0  0  0  0  0
   -2.4918   77.0761    7.0613 C   0  0  0  0  0  0  0  0  0  0  0  0
   -5.0235   74.4989    4.1330 C   0  0  0  0  0  0  0  0  0  0  0  0
  2  1  2  0
  4  3  1  0
  5  1  1  0
  6  5  2  0
  7  3  1  0
  8  4  1  0
  9  4  1  0
 10  2  1  0
 11  6  1  0
 11  8  1  0
 11 10  2  0
 12  7  1  0
 12  9  1  0
M  END
>  <ID>  (1) 
conformer_0

$$$$
