
     RDKit          3D

 12 13  0  0  0  0  0  0  0  0999 V2000
   -0.1896   77.4893    7.8109 C   0  0  0  0  0  0  0  0  0  0  0  0
   -0.4331   76.3974    5.8708 C   0  0  0  0  0  0  0  0  0  0  0  0
   -5.2439   76.1285    4.1027 C   0  0  0  0  0  0  0  0  0  0  0  0
   -1.3867   77.8983    8.0991 C   0  0  0  0  0  0  0  0  0  0  0  0
   -4.2978   76.1270    5.3059 N   0  0  0  0  0  0  0  0  0  0  0  0
   -5.2371   75.9646    3.8555 N   0  0  0  0  0  0  0  0  0  0  0  0
    0.0978   77.5750    6.2591 C   0  0  0  0  0  0  0  0  0  0  0  0
   -3.9302   76.9791    6.1487 C   0  0  0  0  0  0  0  0  0  0  0  0
   -4.0433   74.9273    5.0997 C   0  0  0  0  0  0  0  0  0  0  0  0
   -2.0093   76.7368    6.1812 C   0  0  0  0  0  0  0  0  0  0  0  0
   -2.4289   77.2746    7.3746 C   0  0  0  0  0  0  0  0  0  0  0  0
   -4.9609   74.2229    3.9716 C   0  0  0  0  0  0  0  0  0  0  0  0
  4  1  2  0
  5  3  1  0
  6  3  2  0
  7  1  1  0
  7  2  2  0
  8  5  1  0
  9  5  1  0
 10  2  1  0
 10  8  1  0
 11  4  1  0
 11 10  2  0
 12  6  1  0
 12  9  2  0
M  END
>  <ID>  (1) 
conformer_0

$$$$
