
     RDKit          3D

 12 13  0  0  0  0  0  0  0  0999 V2000
   -2.5268   77.1262    6.7837 C   0  0  0  0  0  0  0  0  0  0  0  0
    0.0486   77.1565    6.9067 C   0  0  0  0  0  0  0  0  0  0  0  0
   -1.7168   78.0534    7.6766 C   0  0  0  0  0  0  0  0  0  0  0  0
   -4.8962   76.5828    4.2578 C   0  0  0  0  0  0  0  0  0  0  0  0
   -4.3059   76.0162    5.1434 N   0  0  0  0  0  0  0  0  0  0  0  0
   -1.8975   76.2375    6.0186 C   0  0  0  0  0  0  0  0  0  0  0  0
   -5.0708   75.7247    3.8681 N   0  0  0  0  0  0  0  0  0  0  0  0
   -3.8710   76.8164    6.1415 C   0  0  0  0  0  0  0  0  0  0  0  0
   -0.5439   76.0464    6.2023 C   0  0  0  0  0  0  0  0  0  0  0  0
   -3.7847   74.7158    4.7143 C   0  0  0  0  0  0  0  0  0  0  0  0
   -5.2613   74.8050    3.4305 C   0  0  0  0  0  0  0  0  0  0  0  0
   -0.5406   77.5071    8.0661 C   0  0  0  0  0  0  0  0  0  0  0  0
  3  1  1  0
  5  4  1  0
  6  1  2  0
  7  4  1  0
  8  1  1  0
  8  5  1  0
  9  2  2  0
  9  6  1  0
 10  5  1  0
 10  7  1  0
 11  7  1  0
 12  2  1  0
 12  3  2  0
M  END
>  <ID>  (1) 
conformer_0

$$$$
