
     RDKit          3D

 12 12  0  0  0  0  0  0  0  0999 V2000
   -0.8542   76.2936    5.9378 C   0  0  0  0  0  0  0  0  0  0  0  0
   -2.1975   76.6545    6.0675 C   0  0  0  0  0  0  0  0  0  0  0  0
   -4.8613   76.1830    4.2138 C   0  0  0  0  0  0  0  0  0  0  0  0
   -0.0453   76.8911    6.7741 C   0  0  0  0  0  0  0  0  0  0  0  0
   -2.4845   77.2554    7.1679 C   0  0  0  0  0  0  0  0  0  0  0  0
   -4.1749   75.8583    5.1510 N   0  0  0  0  0  0  0  0  0  0  0  0
   -3.9942   77.2400    5.8182 C   0  0  0  0  0  0  0  0  0  0  0  0
   -4.8618   74.1247    4.2544 C   0  0  0  0  0  0  0  0  0  0  0  0
   -4.9941   75.7504    4.0219 N   0  0  0  0  0  0  0  0  0  0  0  0
   -1.6193   77.8866    8.0026 C   0  0  0  0  0  0  0  0  0  0  0  0
   -0.3404   77.4804    8.0727 C   0  0  0  0  0  0  0  0  0  0  0  0
   -3.6422   74.9112    4.9986 C   0  0  0  0  0  0  0  0  0  0  0  0
  2  1  2  0
  4  1  1  0
  5  2  1  0
  6  3  1  0
  7  2  1  0
  9  3  2  3
  9  8  1  0
 10  5  2  0
 11  4  2  0
 11 10  1  0
 12  7  1  0
 12  8  1  0
M  END
>  <ID>  (1) 
conformer_0

$$$$
