
     RDKit          3D

 12 13  0  0  0  0  0  0  0  0999 V2000
   -1.2049   76.2374    6.1865 C   0  0  0  0  0  0  0  0  0  0  0  0
    0.1733   77.9063    7.2418 C   0  0  0  0  0  0  0  0  0  0  0  0
   -4.5050   76.3043    4.3056 C   0  0  0  0  0  0  0  0  0  0  0  0
   -0.0060   76.7045    6.3691 C   0  0  0  0  0  0  0  0  0  0  0  0
   -4.1961   75.9684    5.2967 N   0  0  0  0  0  0  0  0  0  0  0  0
   -3.8756   76.9929    6.1763 C   0  0  0  0  0  0  0  0  0  0  0  0
   -4.2028   74.5556    5.3493 C   0  0  0  0  0  0  0  0  0  0  0  0
   -0.7171   78.0417    8.1400 C   0  0  0  0  0  0  0  0  0  0  0  0
   -4.9200   75.9654    3.5708 N   0  0  0  0  0  0  0  0  0  0  0  0
   -2.0014   77.9414    7.6089 C   0  0  0  0  0  0  0  0  0  0  0  0
   -2.3607   76.8373    6.6911 C   0  0  0  0  0  0  0  0  0  0  0  0
   -5.0035   74.5086    4.1059 C   0  0  0  0  0  0  0  0  0  0  0  0
  4  1  2  0
  4  2  1  0
  5  3  1  0
  6  5  1  0
  7  5  1  0
  8  2  2  0
  9  3  1  0
 10  8  1  0
 11  1  1  0
 11  6  1  0
 11 10  2  0
 12  7  2  0
 12  9  1  0
M  END
>  <ID>  (1) 
conformer_0

$$$$
