
     RDKit          3D

 13 15  0  0  0  0  0  0  0  0999 V2000
   -4.8956   76.8477    4.5499 C   0  0  0  0  0  0  0  0  0  0  0  0
   -0.0461   77.3353    6.3393 C   0  0  0  0  0  0  0  0  0  0  0  0
   -2.2131   77.0989    6.1547 C   0  0  0  0  0  0  0  0  0  0  0  0
   -0.0801   77.1903    7.8985 C   0  0  0  0  0  0  0  0  0  0  0  0
   -3.9435   76.1672    5.4105 N   0  0  0  0  0  0  0  0  0  0  0  0
   -5.0016   75.0836    3.8015 C   0  0  0  0  0  0  0  0  0  0  0  0
   -4.9335   75.5932    3.7451 N   0  0  0  0  0  0  0  0  0  0  0  0
   -1.2117   77.8317    8.1979 C   0  0  0  0  0  0  0  0  0  0  0  0
   -3.7512   77.4389    6.2935 C   0  0  0  0  0  0  0  0  0  0  0  0
   -2.4407   77.2549    7.5320 C   0  0  0  0  0  0  0  0  0  0  0  0
   -3.4346   75.3833    5.1298 C   0  0  0  0  0  0  0  0  0  0  0  0
   -4.2040   73.7900    4.6396 C   0  0  0  0  0  0  0  0  0  0  0  0
   -0.8774   76.2882    6.0136 C   0  0  0  0  0  0  0  0  0  0  0  0
  4  2  2  0
  5  1  1  0
  7  1  1  0
  7  6  2  0
  8  4  1  0
  9  3  1  0
  9  5  1  0
 10  3  1  0
 10  8  2  0
 10  9  1  0
 11  5  1  0
 12  6  1  0
 12 11  2  0
 13  2  1  0
 13  3  2  0
M  END
>  <ID>  (1) 
conformer_0

$$$$
