
     RDKit          3D

 12 13  0  0  0  0  0  0  0  0999 V2000
   -1.6442   76.9029    5.7950 C   0  0  0  0  0  0  0  0  0  0  0  0
    0.1017   77.6505    7.1005 C   0  0  0  0  0  0  0  0  0  0  0  0
   -4.1175   74.7361    5.0780 C   0  0  0  0  0  0  0  0  0  0  0  0
   -0.4824   77.2415    8.1351 C   0  0  0  0  0  0  0  0  0  0  0  0
   -4.1443   76.2439    5.1877 N   0  0  0  0  0  0  0  0  0  0  0  0
   -4.9205   76.6330    4.3428 C   0  0  0  0  0  0  0  0  0  0  0  0
   -0.4819   76.3755    6.1453 C   0  0  0  0  0  0  0  0  0  0  0  0
   -3.5668   77.5187    5.6508 C   0  0  0  0  0  0  0  0  0  0  0  0
   -5.1884   75.4012    4.1756 N   0  0  0  0  0  0  0  0  0  0  0  0
   -1.5993   78.0500    7.8743 C   0  0  0  0  0  0  0  0  0  0  0  0
   -2.4636   77.3400    6.6561 C   0  0  0  0  0  0  0  0  0  0  0  0
   -5.0835   74.5725    3.9516 C   0  0  0  0  0  0  0  0  0  0  0  0
  4  2  2  0
  5  3  1  0
  6  5  1  0
  7  1  2  0
  7  2  1  0
  8  5  1  0
  9  6  1  0
 10  4  1  0
 11  1  1  0
 11  8  1  0
 11 10  2  0
 12  3  2  0
 12  9  1  0
M  END
>  <ID>  (1) 
conformer_0

$$$$
