
     RDKit          3D

 12 13  0  0  0  0  0  0  0  0999 V2000
   -0.4836   76.1586    6.0235 C   0  0  0  0  0  0  0  0  0  0  0  0
   -0.1168   77.5874    7.9729 C   0  0  0  0  0  0  0  0  0  0  0  0
   -4.8906   76.2619    4.1528 C   0  0  0  0  0  0  0  0  0  0  0  0
   -1.3455   77.9720    7.9600 C   0  0  0  0  0  0  0  0  0  0  0  0
   -3.9276   77.3724    6.1075 C   0  0  0  0  0  0  0  0  0  0  0  0
   -4.2573   76.0732    5.1730 N   0  0  0  0  0  0  0  0  0  0  0  0
    0.3146   76.7197    7.0278 C   0  0  0  0  0  0  0  0  0  0  0  0
   -4.9868   75.4315    3.7272 N   0  0  0  0  0  0  0  0  0  0  0  0
   -4.1185   74.5970    5.3239 C   0  0  0  0  0  0  0  0  0  0  0  0
   -1.7961   76.4337    6.0719 C   0  0  0  0  0  0  0  0  0  0  0  0
   -2.2033   77.3501    6.9555 C   0  0  0  0  0  0  0  0  0  0  0  0
   -4.7848   74.2859    3.9071 C   0  0  0  0  0  0  0  0  0  0  0  0
  4  2  2  0
  6  3  1  0
  6  5  1  0
  7  1  2  0
  7  2  1  0
  8  3  2  0
  9  6  1  0
 10  1  1  0
 11  4  1  0
 11  5  1  0
 11 10  2  0
 12  8  1  0
 12  9  2  0
M  END
>  <ID>  (1) 
conformer_0

$$$$
