
     RDKit          3D

 10 10  0  0  0  0  0  0  0  0999 V2000
   -2.2650   77.1865    6.8525 C   0  0  0  0  0  0  0  0  0  0  0  0
   -1.1909   76.5128    5.9410 C   0  0  0  0  0  0  0  0  0  0  0  0
   -4.7227   75.7428    4.3876 C   0  0  0  0  0  0  0  0  0  0  0  0
   -1.3777   77.7875    8.0037 C   0  0  0  0  0  0  0  0  0  0  0  0
   -4.1556   76.2157    5.3337 N   0  0  0  0  0  0  0  0  0  0  0  0
   -3.7115   77.4984    5.8726 C   0  0  0  0  0  0  0  0  0  0  0  0
   -5.1185   75.8507    3.6485 N   0  0  0  0  0  0  0  0  0  0  0  0
   -0.1120   77.5901    7.8058 C   0  0  0  0  0  0  0  0  0  0  0  0
   -4.6767   74.4650    4.7659 C   0  0  0  0  0  0  0  0  0  0  0  0
    0.0573   76.8290    6.4291 C   0  0  0  0  0  0  0  0  0  0  0  0
  2  1  2  0
  4  1  1  0
  5  3  1  0
  6  1  1  0
  6  5  1  0
  7  3  2  3
  8  4  1  0
  9  3  1  0
 10  2  1  0
 10  8  2  0
M  END
>  <ID>  (1) 
conformer_0

$$$$
