
     RDKit          3D

 12 13  0  0  0  0  0  0  0  0999 V2000
    0.2872   77.3853    6.5345 C   0  0  0  0  0  0  0  0  0  0  0  0
   -2.3100   77.1502    7.1816 C   0  0  0  0  0  0  0  0  0  0  0  0
   -4.8025   76.3819    4.0919 C   0  0  0  0  0  0  0  0  0  0  0  0
   -1.3642   77.7618    8.0765 C   0  0  0  0  0  0  0  0  0  0  0  0
   -4.4008   76.1143    5.0814 N   0  0  0  0  0  0  0  0  0  0  0  0
   -3.7932   77.0795    6.0943 C   0  0  0  0  0  0  0  0  0  0  0  0
   -1.8486   76.6521    6.1014 C   0  0  0  0  0  0  0  0  0  0  0  0
   -5.2906   74.6185    3.8320 C   0  0  0  0  0  0  0  0  0  0  0  0
   -0.3947   76.3812    5.9318 C   0  0  0  0  0  0  0  0  0  0  0  0
   -5.2747   75.9607    3.8703 N   0  0  0  0  0  0  0  0  0  0  0  0
   -4.3372   74.8896    5.0150 C   0  0  0  0  0  0  0  0  0  0  0  0
   -0.1241   77.5376    7.9341 C   0  0  0  0  0  0  0  0  0  0  0  0
  4  2  1  0
  5  3  1  0
  6  2  1  0
  6  5  1  0
  7  2  2  0
  9  1  2  0
  9  7  1  0
 10  3  2  0
 10  8  1  0
 11  5  1  0
 11  8  2  0
 12  1  1  0
 12  4  2  0
M  END
>  <ID>  (1) 
conformer_0

$$$$
