
     RDKit          3D

 12 13  0  0  0  0  0  0  0  0999 V2000
   -1.4796   76.2834    6.2094 C   0  0  0  0  0  0  0  0  0  0  0  0
   -0.1906   76.4167    6.2865 C   0  0  0  0  0  0  0  0  0  0  0  0
   -4.1068   74.8651    5.3033 C   0  0  0  0  0  0  0  0  0  0  0  0
   -2.4694   77.2290    6.6217 C   0  0  0  0  0  0  0  0  0  0  0  0
    0.2139   77.2864    7.2174 C   0  0  0  0  0  0  0  0  0  0  0  0
   -4.2796   76.2636    5.3237 N   0  0  0  0  0  0  0  0  0  0  0  0
   -3.7972   77.5090    6.0978 C   0  0  0  0  0  0  0  0  0  0  0  0
   -4.6906   76.4517    4.2308 C   0  0  0  0  0  0  0  0  0  0  0  0
   -4.9813   75.5788    3.6787 N   0  0  0  0  0  0  0  0  0  0  0  0
   -1.8197   77.8700    7.7780 C   0  0  0  0  0  0  0  0  0  0  0  0
   -0.5364   77.8866    8.0480 C   0  0  0  0  0  0  0  0  0  0  0  0
   -4.9256   74.5204    4.1619 C   0  0  0  0  0  0  0  0  0  0  0  0
  2  1  2  0
  4  1  1  0
  5  2  1  0
  6  3  1  0
  7  4  1  0
  7  6  1  0
  8  6  1  0
  9  8  2  0
 10  4  2  0
 11  5  2  0
 11 10  1  0
 12  3  2  0
 12  9  1  0
M  END
>  <ID>  (1) 
conformer_0

$$$$
