
     RDKit          3D

 12 13  0  0  0  0  0  0  0  0999 V2000
   -0.9177   78.0411    8.2627 C   0  0  0  0  0  0  0  0  0  0  0  0
   -2.1597   76.8325    6.5292 C   0  0  0  0  0  0  0  0  0  0  0  0
   -4.9133   76.4123    3.9090 C   0  0  0  0  0  0  0  0  0  0  0  0
   -0.8952   76.2824    6.2009 C   0  0  0  0  0  0  0  0  0  0  0  0
   -4.3878   76.2437    5.2009 N   0  0  0  0  0  0  0  0  0  0  0  0
   -3.8676   77.1899    6.2780 C   0  0  0  0  0  0  0  0  0  0  0  0
   -4.9819   75.4131    3.3650 N   0  0  0  0  0  0  0  0  0  0  0  0
    0.0976   77.4023    7.9386 C   0  0  0  0  0  0  0  0  0  0  0  0
    0.1844   76.7292    6.5903 C   0  0  0  0  0  0  0  0  0  0  0  0
   -4.2420   74.7839    5.1316 C   0  0  0  0  0  0  0  0  0  0  0  0
   -5.2729   74.5212    3.8625 C   0  0  0  0  0  0  0  0  0  0  0  0
   -2.0873   77.7451    7.5243 C   0  0  0  0  0  0  0  0  0  0  0  0
  4  2  1  0
  5  3  1  0
  6  2  1  0
  6  5  1  0
  7  3  2  0
  8  1  2  0
  9  4  2  0
  9  8  1  0
 10  5  1  0
 11  7  1  0
 11 10  2  0
 12  1  1  0
 12  2  2  0
M  END
>  <ID>  (1) 
conformer_0

$$$$
