
     RDKit          3D

 12 14  0  0  0  0  0  0  0  0999 V2000
   -0.7598   76.0397    6.1792 C   0  0  0  0  0  0  0  0  0  0  0  0
   -2.2307   76.9669    7.2090 C   0  0  0  0  0  0  0  0  0  0  0  0
   -4.4067   76.4282    4.7191 C   0  0  0  0  0  0  0  0  0  0  0  0
   -4.0667   75.9771    5.4148 N   0  0  0  0  0  0  0  0  0  0  0  0
   -1.9404   77.1668    6.0781 C   0  0  0  0  0  0  0  0  0  0  0  0
   -4.8616   74.9587    3.8326 C   0  0  0  0  0  0  0  0  0  0  0  0
   -3.6660   77.2816    6.3587 C   0  0  0  0  0  0  0  0  0  0  0  0
    0.2116   77.5622    6.5033 C   0  0  0  0  0  0  0  0  0  0  0  0
   -4.7978   75.6778    3.6405 N   0  0  0  0  0  0  0  0  0  0  0  0
   -0.0841   76.9818    8.0005 C   0  0  0  0  0  0  0  0  0  0  0  0
   -4.3847   74.4478    5.0847 C   0  0  0  0  0  0  0  0  0  0  0  0
   -0.9220   78.1492    7.8119 C   0  0  0  0  0  0  0  0  0  0  0  0
  4  3  1  0
  5  1  2  0
  5  2  1  0
  7  2  1  0
  7  4  1  0
  8  1  1  0
  9  3  1  0
  9  6  1  0
 10  8  1  0
 11  4  1  0
 11  6  2  0
 12  2  2  0
 12  8  1  0
 12 10  1  0
M  END
>  <ID>  (1) 
conformer_0

$$$$
