
     RDKit          3D

 12 13  0  0  0  0  0  0  0  0999 V2000
   -1.0869   77.9916    8.1043 C   0  0  0  0  0  0  0  0  0  0  0  0
   -2.2195   77.8059    7.2102 C   0  0  0  0  0  0  0  0  0  0  0  0
   -4.5940   76.2063    4.2492 C   0  0  0  0  0  0  0  0  0  0  0  0
    0.2841   76.9024    6.7591 C   0  0  0  0  0  0  0  0  0  0  0  0
   -4.1058   76.2517    5.2120 N   0  0  0  0  0  0  0  0  0  0  0  0
   -3.8705   77.3408    6.0860 C   0  0  0  0  0  0  0  0  0  0  0  0
   -5.1137   75.4911    3.7084 N   0  0  0  0  0  0  0  0  0  0  0  0
   -5.2027   74.3162    4.3161 C   0  0  0  0  0  0  0  0  0  0  0  0
   -2.1435   76.7436    6.5123 C   0  0  0  0  0  0  0  0  0  0  0  0
   -0.7255   76.3946    6.0689 C   0  0  0  0  0  0  0  0  0  0  0  0
   -4.0021   74.5675    5.2857 C   0  0  0  0  0  0  0  0  0  0  0  0
    0.1358   78.0823    7.4524 C   0  0  0  0  0  0  0  0  0  0  0  0
  2  1  2  0
  5  3  1  0
  6  5  1  0
  7  3  1  0
  8  7  1  0
  9  2  1  0
  9  6  1  0
 10  4  1  0
 10  9  2  0
 11  5  1  0
 11  8  1  0
 12  1  1  0
 12  4  2  0
M  END
>  <ID>  (1) 
conformer_0

$$$$
