
     RDKit          3D

 11 11  0  0  0  0  0  0  0  0999 V2000
   -1.4739   77.9587    7.9868 C   0  0  0  0  0  0  0  0  0  0  0  0
   -1.9468   76.2597    6.0662 C   0  0  0  0  0  0  0  0  0  0  0  0
   -4.1189   74.4324    4.7427 C   0  0  0  0  0  0  0  0  0  0  0  0
   -0.1103   77.9003    7.9959 C   0  0  0  0  0  0  0  0  0  0  0  0
   -4.9174   75.3519    4.1510 N   0  0  0  0  0  0  0  0  0  0  0  0
   -4.3112   76.2319    5.4372 N   0  0  0  0  0  0  0  0  0  0  0  0
   -2.2658   77.3671    7.1045 C   0  0  0  0  0  0  0  0  0  0  0  0
   -4.0429   77.1781    6.3171 C   0  0  0  0  0  0  0  0  0  0  0  0
   -4.7988   75.8165    4.3229 C   0  0  0  0  0  0  0  0  0  0  0  0
   -0.4179   76.4280    6.1350 C   0  0  0  0  0  0  0  0  0  0  0  0
    0.2057   76.8899    7.0334 C   0  0  0  0  0  0  0  0  0  0  0  0
  4  1  2  0
  5  3  1  0
  7  1  1  0
  7  2  2  0
  8  6  1  0
  8  7  1  0
  9  5  1  0
  9  6  2  3
 10  2  1  0
 11  4  1  0
 11 10  2  0
M  END
>  <ID>  (1) 
conformer_0

$$$$
