
     RDKit          3D

 12 13  0  0  0  0  0  0  0  0999 V2000
   -0.4206   76.8376    6.3022 C   0  0  0  0  0  0  0  0  0  0  0  0
   -4.6209   76.1879    4.1406 C   0  0  0  0  0  0  0  0  0  0  0  0
   -2.4657   76.8664    6.3318 C   0  0  0  0  0  0  0  0  0  0  0  0
   -0.2906   77.1345    8.0621 C   0  0  0  0  0  0  0  0  0  0  0  0
   -4.3501   75.8787    5.2014 N   0  0  0  0  0  0  0  0  0  0  0  0
   -4.0655   76.9868    6.0655 C   0  0  0  0  0  0  0  0  0  0  0  0
   -4.9438   75.9405    3.4185 N   0  0  0  0  0  0  0  0  0  0  0  0
   -3.8980   74.5204    5.2799 C   0  0  0  0  0  0  0  0  0  0  0  0
   -1.2795   75.9380    6.3542 C   0  0  0  0  0  0  0  0  0  0  0  0
   -2.3321   77.6605    7.6467 C   0  0  0  0  0  0  0  0  0  0  0  0
   -4.9850   74.2331    4.2565 C   0  0  0  0  0  0  0  0  0  0  0  0
   -0.9199   78.2887    7.7882 C   0  0  0  0  0  0  0  0  0  0  0  0
  4  1  2  0
  5  2  1  0
  6  3  1  0
  6  5  1  0
  7  2  1  0
  8  5  1  0
  9  1  1  0
  9  3  2  0
 10  3  1  0
 11  7  1  0
 11  8  1  0
 12  4  1  0
 12 10  2  0
M  END
>  <ID>  (1) 
conformer_0

$$$$
