
     RDKit          3D

 13 14  0  0  0  0  0  0  0  0999 V2000
   -1.5944   76.5165    6.0589 C   0  0  0  0  0  0  0  0  0  0  0  0
   -0.2985   76.5413    6.3486 C   0  0  0  0  0  0  0  0  0  0  0  0
   -4.3049   76.3120    4.2109 C   0  0  0  0  0  0  0  0  0  0  0  0
    0.1986   77.6029    7.2842 C   0  0  0  0  0  0  0  0  0  0  0  0
   -4.2804   75.8906    5.3961 N   0  0  0  0  0  0  0  0  0  0  0  0
   -1.7836   77.6090    8.1313 C   0  0  0  0  0  0  0  0  0  0  0  0
   -3.5654   76.7957    6.0191 C   0  0  0  0  0  0  0  0  0  0  0  0
   -4.8993   75.7285    3.2621 N   0  0  0  0  0  0  0  0  0  0  0  0
   -5.4411   74.9871    3.9264 C   0  0  0  0  0  0  0  0  0  0  0  0
   -2.4886   76.9766    6.9979 C   0  0  0  0  0  0  0  0  0  0  0  0
   -5.2455   73.8232    4.5342 N   0  0  0  0  0  0  0  0  0  0  0  0
   -4.4833   74.4067    5.0736 C   0  0  0  0  0  0  0  0  0  0  0  0
   -0.3923   77.6500    8.3009 C   0  0  0  0  0  0  0  0  0  0  0  0
  2  1  2  0
  4  2  1  0
  5  3  1  0
  7  5  1  0
  8  3  1  0
  9  8  2  0
 10  1  1  0
 10  6  2  0
 10  7  1  0
 11  9  1  0
 12  5  1  0
 12 11  1  0
 13  4  2  0
 13  6  1  0
M  END
>  <ID>  (1) 
conformer_0

$$$$
