
     RDKit          3D

 12 13  0  0  0  0  0  0  0  0999 V2000
   -0.4469   77.7916    7.9320 C   0  0  0  0  0  0  0  0  0  0  0  0
   -2.6080   77.2145    6.8589 C   0  0  0  0  0  0  0  0  0  0  0  0
   -5.0240   76.6501    4.5222 C   0  0  0  0  0  0  0  0  0  0  0  0
    0.0776   77.0073    7.0180 C   0  0  0  0  0  0  0  0  0  0  0  0
   -4.2603   76.1227    5.1871 N   0  0  0  0  0  0  0  0  0  0  0  0
   -5.3293   75.8587    3.6942 N   0  0  0  0  0  0  0  0  0  0  0  0
   -1.7535   77.8129    7.9348 C   0  0  0  0  0  0  0  0  0  0  0  0
   -3.8316   77.0435    6.1904 C   0  0  0  0  0  0  0  0  0  0  0  0
   -5.0833   74.6047    3.8937 C   0  0  0  0  0  0  0  0  0  0  0  0
   -1.9209   76.3387    6.0632 C   0  0  0  0  0  0  0  0  0  0  0  0
   -0.4857   76.2393    6.0615 C   0  0  0  0  0  0  0  0  0  0  0  0
   -3.9204   74.7449    4.9701 C   0  0  0  0  0  0  0  0  0  0  0  0
  4  1  2  0
  5  3  1  0
  6  3  2  0
  7  1  1  0
  7  2  2  0
  8  2  1  0
  8  5  1  0
  9  6  1  0
 10  2  1  0
 11  4  1  0
 11 10  2  0
 12  5  1  0
 12  9  2  0
M  END
>  <ID>  (1) 
conformer_0

$$$$
