
     RDKit          3D

 12 13  0  0  0  0  0  0  0  0999 V2000
    0.3611   76.8696    6.9719 C   0  0  0  0  0  0  0  0  0  0  0  0
   -1.8059   76.3707    6.1598 C   0  0  0  0  0  0  0  0  0  0  0  0
   -5.0175   76.2569    4.0095 C   0  0  0  0  0  0  0  0  0  0  0  0
   -0.1844   77.6421    7.9833 C   0  0  0  0  0  0  0  0  0  0  0  0
   -4.6002   75.9996    5.1860 N   0  0  0  0  0  0  0  0  0  0  0  0
   -3.9859   77.0209    6.1217 C   0  0  0  0  0  0  0  0  0  0  0  0
   -0.4478   76.1864    6.0955 C   0  0  0  0  0  0  0  0  0  0  0  0
   -5.1979   75.9394    3.5564 N   0  0  0  0  0  0  0  0  0  0  0  0
   -4.1805   74.6376    5.1838 C   0  0  0  0  0  0  0  0  0  0  0  0
   -1.4533   77.8471    7.9918 C   0  0  0  0  0  0  0  0  0  0  0  0
   -2.3236   77.1794    7.0093 C   0  0  0  0  0  0  0  0  0  0  0  0
   -5.4056   74.3716    4.0541 C   0  0  0  0  0  0  0  0  0  0  0  0
  4  1  2  0
  5  3  1  0
  6  5  1  0
  7  1  1  0
  7  2  2  0
  8  3  1  0
  9  5  1  0
 10  4  1  0
 11  2  1  0
 11  6  1  0
 11 10  2  0
 12  8  1  0
 12  9  1  0
M  END
>  <ID>  (1) 
conformer_0

$$$$
