
     RDKit          3D

 12 13  0  0  0  0  0  0  0  0999 V2000
   -1.0123   76.3283    6.1736 C   0  0  0  0  0  0  0  0  0  0  0  0
    0.3297   77.7355    7.5111 C   0  0  0  0  0  0  0  0  0  0  0  0
   -4.9203   76.1208    4.0040 C   0  0  0  0  0  0  0  0  0  0  0  0
    0.1202   76.8524    6.3118 C   0  0  0  0  0  0  0  0  0  0  0  0
   -3.8550   77.0774    6.0914 C   0  0  0  0  0  0  0  0  0  0  0  0
   -4.3506   76.1132    5.1464 N   0  0  0  0  0  0  0  0  0  0  0  0
   -0.6084   77.9761    8.2816 C   0  0  0  0  0  0  0  0  0  0  0  0
   -4.2996   74.5653    5.0490 C   0  0  0  0  0  0  0  0  0  0  0  0
   -4.8992   75.7915    3.3020 N   0  0  0  0  0  0  0  0  0  0  0  0
   -1.8462   77.6347    7.8758 C   0  0  0  0  0  0  0  0  0  0  0  0
   -2.2478   76.8096    6.7526 C   0  0  0  0  0  0  0  0  0  0  0  0
   -5.2510   74.4449    3.8304 C   0  0  0  0  0  0  0  0  0  0  0  0
  4  1  2  0
  4  2  1  0
  6  3  1  0
  6  5  1  0
  7  2  2  0
  8  6  1  0
  9  3  1  0
 10  7  1  0
 11  1  1  0
 11  5  1  0
 11 10  2  0
 12  8  1  0
 12  9  1  0
M  END
>  <ID>  (1) 
conformer_0

$$$$
