
     RDKit          3D

 10 11  0  0  0  0  0  0  0  0999 V2000
   -4.8389   76.3579    3.9648 C   0  0  0  0  0  0  0  0  0  0  0  0
   -0.1381   77.6026    7.5677 C   0  0  0  0  0  0  0  0  0  0  0  0
   -1.4849   76.2167    6.1700 C   0  0  0  0  0  0  0  0  0  0  0  0
   -0.1611   76.4745    6.5065 C   0  0  0  0  0  0  0  0  0  0  0  0
   -4.3502   76.0971    5.2174 N   0  0  0  0  0  0  0  0  0  0  0  0
   -4.0197   76.8231    6.1676 C   0  0  0  0  0  0  0  0  0  0  0  0
   -5.1718   74.9002    3.8801 C   0  0  0  0  0  0  0  0  0  0  0  0
   -1.3450   77.9649    7.8312 C   0  0  0  0  0  0  0  0  0  0  0  0
   -2.3096   77.1609    6.8263 C   0  0  0  0  0  0  0  0  0  0  0  0
   -4.3057   74.5056    5.0975 C   0  0  0  0  0  0  0  0  0  0  0  0
  4  2  2  0
  4  3  1  0
  5  1  1  0
  6  5  1  0
  7  1  2  0
  8  2  1  0
  9  3  2  0
  9  6  1  0
  9  8  1  0
 10  5  1  0
 10  7  1  0
M  END
>  <ID>  (1) 
conformer_0

$$$$
