
     RDKit          3D

 13 14  0  0  0  0  0  0  0  0999 V2000
   -4.7557   77.0095    4.6016 C   0  0  0  0  0  0  0  0  0  0  0  0
   -0.7473   77.5657    8.2804 C   0  0  0  0  0  0  0  0  0  0  0  0
   -0.0566   77.9821    7.3308 C   0  0  0  0  0  0  0  0  0  0  0  0
   -0.0314   76.9775    6.0567 C   0  0  0  0  0  0  0  0  0  0  0  0
   -3.9191   76.3429    5.3597 N   0  0  0  0  0  0  0  0  0  0  0  0
   -3.5975   75.3411    5.3123 C   0  0  0  0  0  0  0  0  0  0  0  0
   -5.4324   76.1049    3.7496 N   0  0  0  0  0  0  0  0  0  0  0  0
   -1.0123   76.1476    5.9935 C   0  0  0  0  0  0  0  0  0  0  0  0
   -4.0052   77.6438    6.2517 C   0  0  0  0  0  0  0  0  0  0  0  0
   -2.1247   77.7814    7.7154 C   0  0  0  0  0  0  0  0  0  0  0  0
   -5.0794   75.2260    3.6912 C   0  0  0  0  0  0  0  0  0  0  0  0
   -4.6438   74.0136    4.7228 C   0  0  0  0  0  0  0  0  0  0  0  0
   -2.2586   76.6982    6.5309 C   0  0  0  0  0  0  0  0  0  0  0  0
  3  2  2  0
  4  3  1  0
  5  1  1  0
  6  5  1  0
  7  1  1  0
  8  4  2  0
  9  5  1  0
 10  2  1  0
 11  7  2  0
 12  6  2  0
 12 11  1  0
 13  8  1  0
 13  9  1  0
 13 10  2  0
M  END
>  <ID>  (1) 
conformer_0

$$$$
