
     RDKit          3D

 12 14  0  0  0  0  0  0  0  0999 V2000
    0.2484   77.5495    6.8792 C   0  0  0  0  0  0  0  0  0  0  0  0
   -0.2584   76.6920    5.9375 C   0  0  0  0  0  0  0  0  0  0  0  0
   -5.0345   75.8494    3.9317 C   0  0  0  0  0  0  0  0  0  0  0  0
   -1.5679   76.4303    5.8981 C   0  0  0  0  0  0  0  0  0  0  0  0
   -4.2688   76.1468    5.1299 N   0  0  0  0  0  0  0  0  0  0  0  0
   -0.5176   78.0160    7.9689 C   0  0  0  0  0  0  0  0  0  0  0  0
   -3.8272   77.1436    5.8526 C   0  0  0  0  0  0  0  0  0  0  0  0
   -4.2431   74.7053    5.2620 C   0  0  0  0  0  0  0  0  0  0  0  0
   -5.2611   75.5211    3.5417 N   0  0  0  0  0  0  0  0  0  0  0  0
   -1.8489   77.8150    7.8438 C   0  0  0  0  0  0  0  0  0  0  0  0
   -2.4063   77.1078    6.6995 C   0  0  0  0  0  0  0  0  0  0  0  0
   -5.2065   74.0729    4.2629 C   0  0  0  0  0  0  0  0  0  0  0  0
  2  1  2  0
  4  2  1  0
  5  3  1  0
  6  1  1  0
  7  5  1  0
  8  3  2  0
  8  5  1  0
  9  3  1  0
 10  6  2  0
 11  4  2  0
 11  7  1  0
 11 10  1  0
 12  8  1  0
 12  9  1  0
M  END
>  <ID>  (1) 
conformer_0

$$$$
