
     RDKit          3D

 13 15  0  0  0  0  0  0  0  0999 V2000
   -0.9113   77.9129    8.2584 C   0  0  0  0  0  0  0  0  0  0  0  0
   -0.9396   76.3633    6.0799 C   0  0  0  0  0  0  0  0  0  0  0  0
   -5.1039   75.5379    3.7270 C   0  0  0  0  0  0  0  0  0  0  0  0
   -2.0237   77.7975    7.4896 C   0  0  0  0  0  0  0  0  0  0  0  0
   -4.3558   76.2301    4.8023 N   0  0  0  0  0  0  0  0  0  0  0  0
   -2.1280   76.8966    6.3853 C   0  0  0  0  0  0  0  0  0  0  0  0
   -5.3279   76.1371    3.5981 N   0  0  0  0  0  0  0  0  0  0  0  0
   -4.6879   73.9499    4.4818 C   0  0  0  0  0  0  0  0  0  0  0  0
   -3.7673   77.1733    5.6248 C   0  0  0  0  0  0  0  0  0  0  0  0
   -3.5191   77.8642    6.6002 C   0  0  0  0  0  0  0  0  0  0  0  0
    0.1825   76.6293    6.7775 C   0  0  0  0  0  0  0  0  0  0  0  0
    0.2091   77.5663    7.8595 C   0  0  0  0  0  0  0  0  0  0  0  0
   -3.8141   75.1793    5.0979 C   0  0  0  0  0  0  0  0  0  0  0  0
  4  1  2  0
  5  3  1  0
  6  2  2  0
  6  4  1  0
  7  3  2  3
  8  3  1  0
  9  5  1  0
 10  4  1  0
 10  6  1  0
 10  9  1  0
 11  2  1  0
 12  1  1  0
 12 11  2  0
 13  5  1  0
 13  8  1  0
M  END
>  <ID>  (1) 
conformer_0

$$$$
