
     RDKit          3D

 12 13  0  0  0  0  0  0  0  0999 V2000
   -2.3245   77.2282    6.8844 C   0  0  0  0  0  0  0  0  0  0  0  0
   -4.0752   75.3168    5.0949 C   0  0  0  0  0  0  0  0  0  0  0  0
   -1.6337   77.6569    8.0259 C   0  0  0  0  0  0  0  0  0  0  0  0
   -1.3840   76.6916    5.9349 C   0  0  0  0  0  0  0  0  0  0  0  0
   -4.2492   76.4619    5.1373 N   0  0  0  0  0  0  0  0  0  0  0  0
   -4.5751   74.1544    4.6101 C   0  0  0  0  0  0  0  0  0  0  0  0
   -5.0540   74.7761    3.7388 N   0  0  0  0  0  0  0  0  0  0  0  0
   -3.8562   77.3260    6.0895 C   0  0  0  0  0  0  0  0  0  0  0  0
   -0.1526   76.8999    5.8380 C   0  0  0  0  0  0  0  0  0  0  0  0
   -0.2699   77.6616    8.2474 C   0  0  0  0  0  0  0  0  0  0  0  0
   -5.0238   76.1113    3.7075 C   0  0  0  0  0  0  0  0  0  0  0  0
    0.3956   77.4459    6.9338 C   0  0  0  0  0  0  0  0  0  0  0  0
  3  1  2  0
  4  1  1  0
  5  2  1  0
  6  2  2  0
  7  6  1  0
  8  1  1  0
  8  5  1  0
  9  4  2  0
 10  3  1  0
 11  5  1  0
 11  7  2  0
 12  9  1  0
 12 10  2  0
M  END
>  <ID>  (1) 
conformer_0

$$$$
