
     RDKit          3D

 11 11  0  0  0  0  0  0  0  0999 V2000
   -1.0632   77.8567    8.1017 C   0  0  0  0  0  0  0  0  0  0  0  0
   -2.3322   76.7839    6.3260 C   0  0  0  0  0  0  0  0  0  0  0  0
   -4.4358   76.0012    4.3581 C   0  0  0  0  0  0  0  0  0  0  0  0
   -4.2060   76.3266    5.2720 N   0  0  0  0  0  0  0  0  0  0  0  0
   -1.2988   76.1690    5.8904 C   0  0  0  0  0  0  0  0  0  0  0  0
   -5.0338   76.1028    3.6286 N   0  0  0  0  0  0  0  0  0  0  0  0
   -2.2986   77.5931    7.5020 C   0  0  0  0  0  0  0  0  0  0  0  0
   -4.1644   76.9556    6.4244 C   0  0  0  0  0  0  0  0  0  0  0  0
   -4.5596   74.6263    3.9661 C   0  0  0  0  0  0  0  0  0  0  0  0
   -0.1128   77.0362    7.7843 C   0  0  0  0  0  0  0  0  0  0  0  0
   -0.1395   76.3437    6.4150 C   0  0  0  0  0  0  0  0  0  0  0  0
  4  3  1  0
  5  2  2  0
  6  3  2  3
  7  1  2  0
  7  2  1  0
  8  2  1  0
  8  4  1  0
  9  3  1  0
 10  1  1  0
 11  5  1  0
 11 10  2  0
M  END
>  <ID>  (1) 
conformer_0

$$$$
