
     RDKit          3D

 12 13  0  0  0  0  0  0  0  0999 V2000
    0.0927   77.3054    7.2504 C   0  0  0  0  0  0  0  0  0  0  0  0
   -0.6642   77.4986    8.2435 C   0  0  0  0  0  0  0  0  0  0  0  0
   -4.9990   76.0823    3.7767 C   0  0  0  0  0  0  0  0  0  0  0  0
   -1.8493   77.9220    7.8016 C   0  0  0  0  0  0  0  0  0  0  0  0
   -4.1858   76.3239    5.0715 N   0  0  0  0  0  0  0  0  0  0  0  0
   -3.9002   77.4665    5.8906 C   0  0  0  0  0  0  0  0  0  0  0  0
   -1.5222   76.7327    5.8996 C   0  0  0  0  0  0  0  0  0  0  0  0
   -0.2036   76.5879    5.9768 C   0  0  0  0  0  0  0  0  0  0  0  0
   -3.9566   75.0424    5.2019 C   0  0  0  0  0  0  0  0  0  0  0  0
   -4.5880   75.6206    3.4755 N   0  0  0  0  0  0  0  0  0  0  0  0
   -4.7390   74.2075    4.1938 C   0  0  0  0  0  0  0  0  0  0  0  0
   -2.5337   77.0662    6.8277 C   0  0  0  0  0  0  0  0  0  0  0  0
  2  1  2  0
  4  2  1  0
  5  3  1  0
  6  5  1  0
  8  1  1  0
  8  7  2  0
  9  5  1  0
 10  3  1  0
 11  9  1  0
 11 10  1  0
 12  4  2  0
 12  6  1  0
 12  7  1  0
M  END
>  <ID>  (1) 
conformer_0

$$$$
