
     RDKit          3D

 13 14  0  0  0  0  0  0  0  0999 V2000
   -0.2829   77.4225    8.5022 C   0  0  0  0  0  0  0  0  0  0  0  0
   -1.4560   76.0514    6.4193 C   0  0  0  0  0  0  0  0  0  0  0  0
   -3.8786   74.4487    4.8106 C   0  0  0  0  0  0  0  0  0  0  0  0
    0.4714   77.0421    7.1598 C   0  0  0  0  0  0  0  0  0  0  0  0
   -0.3973   76.8001    5.8883 C   0  0  0  0  0  0  0  0  0  0  0  0
   -5.2280   76.0312    3.5636 N   0  0  0  0  0  0  0  0  0  0  0  0
   -4.3017   76.0052    5.0093 N   0  0  0  0  0  0  0  0  0  0  0  0
   -3.7086   77.2699    5.9873 C   0  0  0  0  0  0  0  0  0  0  0  0
   -4.6809   76.5495    4.4252 C   0  0  0  0  0  0  0  0  0  0  0  0
   -2.4574   77.1977    6.2007 C   0  0  0  0  0  0  0  0  0  0  0  0
   -4.9993   74.4536    3.7785 C   0  0  0  0  0  0  0  0  0  0  0  0
   -1.0445   78.0431    7.7169 C   0  0  0  0  0  0  0  0  0  0  0  0
   -2.3028   77.3415    7.9340 C   0  0  0  0  0  0  0  0  0  0  0  0
  4  1  2  0
  5  2  2  0
  5  4  1  0
  7  3  1  0
  8  7  1  0
  9  6  1  0
  9  7  1  0
 10  2  1  0
 10  8  1  0
 11  3  1  0
 11  6  1  0
 12  1  1  0
 13 10  2  0
 13 12  1  0
M  END
>  <ID>  (1) 
conformer_0

$$$$
