
     RDKit          3D

 12 13  0  0  0  0  0  0  0  0999 V2000
   -2.0626   76.6664    6.0606 C   0  0  0  0  0  0  0  0  0  0  0  0
   -2.3037   77.6462    6.9511 C   0  0  0  0  0  0  0  0  0  0  0  0
   -5.0597   76.0691    3.9882 C   0  0  0  0  0  0  0  0  0  0  0  0
   -1.3538   78.0092    7.9938 C   0  0  0  0  0  0  0  0  0  0  0  0
   -4.2302   75.9503    5.0488 N   0  0  0  0  0  0  0  0  0  0  0  0
   -3.7650   77.3889    5.7739 C   0  0  0  0  0  0  0  0  0  0  0  0
   -0.1535   77.7154    7.8705 C   0  0  0  0  0  0  0  0  0  0  0  0
   -5.2139   75.5879    3.6310 N   0  0  0  0  0  0  0  0  0  0  0  0
   -3.7734   74.8491    5.1563 C   0  0  0  0  0  0  0  0  0  0  0  0
   -5.0975   74.0667    4.2474 C   0  0  0  0  0  0  0  0  0  0  0  0
   -0.7619   76.2087    6.0778 C   0  0  0  0  0  0  0  0  0  0  0  0
    0.1263   76.9170    6.8576 C   0  0  0  0  0  0  0  0  0  0  0  0
  2  1  2  0
  4  2  1  0
  5  3  1  0
  6  1  1  0
  6  5  1  0
  7  4  2  0
  8  3  2  0
  9  5  1  0
 10  8  1  0
 10  9  2  0
 11  1  1  0
 12  7  1  0
 12 11  2  0
M  END
>  <ID>  (1) 
conformer_0

$$$$
