
     RDKit          3D

 12 13  0  0  0  0  0  0  0  0999 V2000
   -0.1158   77.2968    8.0607 C   0  0  0  0  0  0  0  0  0  0  0  0
    0.1801   77.1795    6.6290 C   0  0  0  0  0  0  0  0  0  0  0  0
   -4.0738   74.5896    5.0880 C   0  0  0  0  0  0  0  0  0  0  0  0
   -2.0018   76.8959    6.2378 C   0  0  0  0  0  0  0  0  0  0  0  0
   -4.0422   76.0898    5.2475 N   0  0  0  0  0  0  0  0  0  0  0  0
   -3.6335   77.2464    5.9152 C   0  0  0  0  0  0  0  0  0  0  0  0
   -4.8874   76.4729    4.1797 C   0  0  0  0  0  0  0  0  0  0  0  0
   -1.0054   78.1110    8.1003 C   0  0  0  0  0  0  0  0  0  0  0  0
   -2.2275   77.6055    7.3314 C   0  0  0  0  0  0  0  0  0  0  0  0
   -5.3737   75.2311    3.9749 N   0  0  0  0  0  0  0  0  0  0  0  0
   -5.1864   74.7887    3.9042 C   0  0  0  0  0  0  0  0  0  0  0  0
   -0.6108   76.2654    5.9363 C   0  0  0  0  0  0  0  0  0  0  0  0
  2  1  2  0
  5  3  1  0
  6  4  1  0
  6  5  1  0
  7  5  1  0
  8  1  1  0
  9  4  1  0
  9  8  2  0
 10  7  2  0
 11  3  2  0
 11 10  1  0
 12  2  1  0
 12  4  2  0
M  END
>  <ID>  (1) 
conformer_0

$$$$
