
     RDKit          3D

 12 13  0  0  0  0  0  0  0  0999 V2000
   -0.4024   76.1513    6.1824 C   0  0  0  0  0  0  0  0  0  0  0  0
   -1.5374   76.8001    5.9423 C   0  0  0  0  0  0  0  0  0  0  0  0
   -5.2540   74.5072    3.8941 C   0  0  0  0  0  0  0  0  0  0  0  0
    0.1981   77.0481    7.1421 C   0  0  0  0  0  0  0  0  0  0  0  0
   -4.2058   76.2172    5.2327 N   0  0  0  0  0  0  0  0  0  0  0  0
   -4.9266   75.7997    3.6243 N   0  0  0  0  0  0  0  0  0  0  0  0
   -3.8522   77.2030    6.1943 C   0  0  0  0  0  0  0  0  0  0  0  0
   -2.3858   77.0445    7.0553 C   0  0  0  0  0  0  0  0  0  0  0  0
   -3.9044   74.7158    5.1461 C   0  0  0  0  0  0  0  0  0  0  0  0
   -0.3399   77.4500    8.3207 C   0  0  0  0  0  0  0  0  0  0  0  0
   -1.5454   77.9548    7.9714 C   0  0  0  0  0  0  0  0  0  0  0  0
   -4.8560   76.2891    4.2265 C   0  0  0  0  0  0  0  0  0  0  0  0
  2  1  2  0
  4  1  1  0
  6  3  1  0
  7  5  1  0
  8  2  1  0
  8  7  1  0
  9  3  2  0
  9  5  1  0
 10  4  2  0
 11  8  2  0
 11 10  1  0
 12  5  1  0
 12  6  2  0
M  END
>  <ID>  (1) 
conformer_0

$$$$
