
     RDKit          3D

 12 13  0  0  0  0  0  0  0  0999 V2000
   -2.2538   76.5663    6.5319 C   0  0  0  0  0  0  0  0  0  0  0  0
   -4.7948   76.2916    4.1410 C   0  0  0  0  0  0  0  0  0  0  0  0
   -1.0953   76.3908    6.0052 C   0  0  0  0  0  0  0  0  0  0  0  0
   -2.3074   77.4447    7.7560 C   0  0  0  0  0  0  0  0  0  0  0  0
   -4.1698   76.3392    5.0990 N   0  0  0  0  0  0  0  0  0  0  0  0
   -5.1812   76.0337    3.4312 N   0  0  0  0  0  0  0  0  0  0  0  0
   -1.0509   77.7911    8.3202 C   0  0  0  0  0  0  0  0  0  0  0  0
   -4.6810   74.4541    4.2238 C   0  0  0  0  0  0  0  0  0  0  0  0
   -3.9074   77.3093    5.9782 C   0  0  0  0  0  0  0  0  0  0  0  0
    0.0294   76.9403    6.4044 C   0  0  0  0  0  0  0  0  0  0  0  0
   -3.4518   74.9865    5.1285 C   0  0  0  0  0  0  0  0  0  0  0  0
   -0.0147   77.5495    7.7775 C   0  0  0  0  0  0  0  0  0  0  0  0
  3  1  2  0
  4  1  1  0
  5  2  1  0
  6  2  2  3
  7  4  2  0
  8  2  1  0
  9  1  1  0
  9  5  1  0
 10  3  1  0
 11  5  1  0
 11  8  1  0
 12  7  1  0
 12 10  2  0
M  END
>  <ID>  (1) 
conformer_0

$$$$
