
     RDKit          3D

 12 13  0  0  0  0  0  0  0  0999 V2000
    0.2312   77.6341    7.5426 C   0  0  0  0  0  0  0  0  0  0  0  0
   -4.8977   76.3721    3.9957 C   0  0  0  0  0  0  0  0  0  0  0  0
   -1.1692   76.3739    6.0568 C   0  0  0  0  0  0  0  0  0  0  0  0
    0.0117   76.7323    6.3339 C   0  0  0  0  0  0  0  0  0  0  0  0
   -3.7116   77.2357    5.7198 C   0  0  0  0  0  0  0  0  0  0  0  0
   -4.3587   76.1537    4.9247 N   0  0  0  0  0  0  0  0  0  0  0  0
   -0.7808   77.9777    8.2193 C   0  0  0  0  0  0  0  0  0  0  0  0
   -5.1862   74.4844    4.0063 C   0  0  0  0  0  0  0  0  0  0  0  0
   -5.2665   75.7063    3.3440 N   0  0  0  0  0  0  0  0  0  0  0  0
   -2.3260   76.9234    6.5191 C   0  0  0  0  0  0  0  0  0  0  0  0
   -1.9843   77.6783    7.7301 C   0  0  0  0  0  0  0  0  0  0  0  0
   -4.1198   74.6353    5.0669 C   0  0  0  0  0  0  0  0  0  0  0  0
  4  1  2  0
  4  3  1  0
  6  2  1  0
  6  5  1  0
  7  1  1  0
  9  2  1  0
  9  8  1  0
 10  3  2  0
 10  5  1  0
 11  7  2  0
 11 10  1  0
 12  6  1  0
 12  8  1  0
M  END
>  <ID>  (1) 
conformer_0

$$$$
