
     RDKit          3D

 12 13  0  0  0  0  0  0  0  0999 V2000
   -2.4284   76.9326    6.3805 C   0  0  0  0  0  0  0  0  0  0  0  0
   -0.9447   77.7875    8.1634 C   0  0  0  0  0  0  0  0  0  0  0  0
   -5.3593   74.4921    3.8923 C   0  0  0  0  0  0  0  0  0  0  0  0
   -1.2527   76.4557    5.8462 C   0  0  0  0  0  0  0  0  0  0  0  0
   -4.2874   75.9677    5.2591 N   0  0  0  0  0  0  0  0  0  0  0  0
   -3.9637   76.9403    6.0569 C   0  0  0  0  0  0  0  0  0  0  0  0
   -2.2351   77.5940    7.6754 C   0  0  0  0  0  0  0  0  0  0  0  0
   -4.9081   76.3417    4.1651 C   0  0  0  0  0  0  0  0  0  0  0  0
   -5.1932   75.8675    3.6742 N   0  0  0  0  0  0  0  0  0  0  0  0
   -0.0071   77.1718    7.6555 C   0  0  0  0  0  0  0  0  0  0  0  0
   -0.1121   76.7570    6.2317 C   0  0  0  0  0  0  0  0  0  0  0  0
   -4.1330   74.5371    4.9852 C   0  0  0  0  0  0  0  0  0  0  0  0
  4  1  2  0
  6  1  1  0
  6  5  1  0
  7  1  1  0
  7  2  2  0
  8  5  1  0
  9  3  1  0
  9  8  2  0
 10  2  1  0
 11  4  1  0
 11 10  2  0
 12  3  2  0
 12  5  1  0
M  END
>  <ID>  (1) 
conformer_0

$$$$
