
     RDKit          3D

 12 13  0  0  0  0  0  0  0  0999 V2000
    0.0753   77.6118    7.4617 C   0  0  0  0  0  0  0  0  0  0  0  0
   -0.9730   77.8738    8.1200 C   0  0  0  0  0  0  0  0  0  0  0  0
   -4.5763   76.4932    4.3447 C   0  0  0  0  0  0  0  0  0  0  0  0
   -2.1746   77.5819    7.5796 C   0  0  0  0  0  0  0  0  0  0  0  0
   -4.3286   75.9303    5.3510 N   0  0  0  0  0  0  0  0  0  0  0  0
   -0.9766   76.4114    5.8317 C   0  0  0  0  0  0  0  0  0  0  0  0
   -3.9849   76.9203    6.2896 C   0  0  0  0  0  0  0  0  0  0  0  0
   -0.0142   77.0182    6.1446 C   0  0  0  0  0  0  0  0  0  0  0  0
   -4.2633   74.4539    5.1772 C   0  0  0  0  0  0  0  0  0  0  0  0
   -4.8936   75.7686    3.6861 N   0  0  0  0  0  0  0  0  0  0  0  0
   -2.3448   76.8354    6.3275 C   0  0  0  0  0  0  0  0  0  0  0  0
   -5.1284   74.7330    3.7740 C   0  0  0  0  0  0  0  0  0  0  0  0
  2  1  2  0
  4  2  1  0
  5  3  1  0
  7  5  1  0
  8  1  1  0
  8  6  2  0
  9  5  1  0
 10  3  2  0
 11  4  2  0
 11  6  1  0
 11  7  1  0
 12  9  2  0
 12 10  1  0
M  END
>  <ID>  (1) 
conformer_0

$$$$
