
     RDKit          3D

 13 14  0  0  0  0  0  0  0  0999 V2000
   -0.8710   76.4822    5.6936 C   0  0  0  0  0  0  0  0  0  0  0  0
    0.1391   77.1516    5.9967 C   0  0  0  0  0  0  0  0  0  0  0  0
   -4.7834   76.5461    4.2747 C   0  0  0  0  0  0  0  0  0  0  0  0
   -2.1382   76.8690    6.3728 C   0  0  0  0  0  0  0  0  0  0  0  0
   -4.0819   75.9796    5.2139 N   0  0  0  0  0  0  0  0  0  0  0  0
   -4.8491   76.0136    3.6978 N   0  0  0  0  0  0  0  0  0  0  0  0
   -3.8309   77.0974    5.9144 C   0  0  0  0  0  0  0  0  0  0  0  0
   -2.0815   77.4521    7.6318 C   0  0  0  0  0  0  0  0  0  0  0  0
   -0.8311   77.7299    8.2103 C   0  0  0  0  0  0  0  0  0  0  0  0
   -5.1220   74.5000    3.9509 C   0  0  0  0  0  0  0  0  0  0  0  0
   -4.7159   73.7562    5.1161 N   0  0  0  0  0  0  0  0  0  0  0  0
    0.2233   77.5774    7.3801 C   0  0  0  0  0  0  0  0  0  0  0  0
   -4.2168   74.5595    5.2230 C   0  0  0  0  0  0  0  0  0  0  0  0
  2  1  2  0
  4  1  1  0
  5  3  1  0
  6  3  1  0
  7  4  1  0
  7  5  1  0
  8  4  2  0
  9  8  1  0
 10  6  2  0
 11 10  1  0
 12  2  1  0
 12  9  2  0
 13  5  1  0
 13 11  1  0
M  END
>  <ID>  (1) 
conformer_0

$$$$
