
     RDKit          3D

 12 14  0  0  0  0  0  0  0  0999 V2000
    0.3455   77.0020    6.7802 C   0  0  0  0  0  0  0  0  0  0  0  0
    0.0346   77.8034    7.9179 C   0  0  0  0  0  0  0  0  0  0  0  0
   -4.2787   74.5285    5.1978 C   0  0  0  0  0  0  0  0  0  0  0  0
   -1.2247   77.9828    8.1408 C   0  0  0  0  0  0  0  0  0  0  0  0
   -4.2853   75.9848    5.2855 N   0  0  0  0  0  0  0  0  0  0  0  0
   -0.6366   76.1191    6.2437 C   0  0  0  0  0  0  0  0  0  0  0  0
   -3.5096   76.8108    5.9732 C   0  0  0  0  0  0  0  0  0  0  0  0
   -5.2653   75.8698    3.8710 N   0  0  0  0  0  0  0  0  0  0  0  0
   -4.7263   76.4769    4.5335 C   0  0  0  0  0  0  0  0  0  0  0  0
   -1.9063   76.4353    6.3100 C   0  0  0  0  0  0  0  0  0  0  0  0
   -2.2341   77.3710    7.3094 C   0  0  0  0  0  0  0  0  0  0  0  0
   -5.1902   74.5450    3.8333 C   0  0  0  0  0  0  0  0  0  0  0  0
  2  1  2  0
  4  2  1  0
  5  3  1  0
  6  1  1  0
  7  5  1  0
  9  5  1  0
  9  8  2  0
 10  6  2  0
 10  7  1  0
 11  4  2  0
 11  7  1  0
 11 10  1  0
 12  3  2  0
 12  8  1  0
M  END
>  <ID>  (1) 
conformer_0

$$$$
