
     RDKit          3D

 12 14  0  0  0  0  0  0  0  0999 V2000
   -0.1595   77.1497    7.7700 C   0  0  0  0  0  0  0  0  0  0  0  0
   -0.0076   77.1993    6.2493 C   0  0  0  0  0  0  0  0  0  0  0  0
   -4.8145   76.4732    4.2230 C   0  0  0  0  0  0  0  0  0  0  0  0
   -0.7837   76.2301    5.7669 C   0  0  0  0  0  0  0  0  0  0  0  0
   -4.1640   76.1043    5.1921 N   0  0  0  0  0  0  0  0  0  0  0  0
   -5.1245   75.8194    3.5514 N   0  0  0  0  0  0  0  0  0  0  0  0
   -1.2851   77.7755    8.0443 C   0  0  0  0  0  0  0  0  0  0  0  0
   -3.7742   76.8902    6.3015 C   0  0  0  0  0  0  0  0  0  0  0  0
   -5.0693   74.5941    3.6524 C   0  0  0  0  0  0  0  0  0  0  0  0
   -2.4204   77.1940    7.3158 C   0  0  0  0  0  0  0  0  0  0  0  0
   -2.1491   76.6060    5.9900 C   0  0  0  0  0  0  0  0  0  0  0  0
   -4.3762   74.6386    5.2250 C   0  0  0  0  0  0  0  0  0  0  0  0
  2  1  2  0
  4  2  1  0
  5  3  1  0
  6  3  2  0
  7  1  1  0
  8  5  1  0
  9  6  1  0
 10  7  2  0
 10  8  1  0
 11  4  2  0
 11  8  1  0
 11 10  1  0
 12  5  1  0
 12  9  2  0
M  END
>  <ID>  (1) 
conformer_0

$$$$
