
     RDKit          3D

 13 14  0  0  0  0  0  0  0  0999 V2000
   -2.3323   77.3655    7.2500 C   0  0  0  0  0  0  0  0  0  0  0  0
   -0.0964   77.7966    8.0117 C   0  0  0  0  0  0  0  0  0  0  0  0
   -4.9600   76.3029    4.0530 C   0  0  0  0  0  0  0  0  0  0  0  0
   -1.3328   77.9624    8.1525 C   0  0  0  0  0  0  0  0  0  0  0  0
   -4.0005   76.9409    6.0940 C   0  0  0  0  0  0  0  0  0  0  0  0
   -4.4033   76.1311    5.1363 N   0  0  0  0  0  0  0  0  0  0  0  0
   -1.8447   76.5492    6.2937 C   0  0  0  0  0  0  0  0  0  0  0  0
   -5.3457   75.9360    3.5486 N   0  0  0  0  0  0  0  0  0  0  0  0
   -5.0280   73.6900    4.4775 N   0  0  0  0  0  0  0  0  0  0  0  0
   -4.1564   74.6252    5.0071 C   0  0  0  0  0  0  0  0  0  0  0  0
    0.3402   77.1407    6.7900 C   0  0  0  0  0  0  0  0  0  0  0  0
   -0.4784   76.4576    6.0343 C   0  0  0  0  0  0  0  0  0  0  0  0
   -5.3899   74.4258    3.7652 C   0  0  0  0  0  0  0  0  0  0  0  0
  4  1  1  0
  4  2  2  0
  5  1  1  0
  6  3  1  0
  6  5  1  0
  7  1  2  0
  8  3  1  0
 10  6  1  0
 10  9  1  0
 11  2  1  0
 12  7  1  0
 12 11  2  0
 13  8  2  0
 13  9  1  0
M  END
>  <ID>  (1) 
conformer_0

$$$$
