
     RDKit          3D

 13 14  0  0  0  0  0  0  0  0999 V2000
   -2.3104   76.7887    6.6403 C   0  0  0  0  0  0  0  0  0  0  0  0
   -4.3611   74.6519    4.9650 C   0  0  0  0  0  0  0  0  0  0  0  0
   -1.8519   77.5157    7.8230 C   0  0  0  0  0  0  0  0  0  0  0  0
   -0.6403   77.7934    8.2318 C   0  0  0  0  0  0  0  0  0  0  0  0
   -1.1730   76.4572    5.8364 C   0  0  0  0  0  0  0  0  0  0  0  0
   -3.9849   76.7717    6.2483 C   0  0  0  0  0  0  0  0  0  0  0  0
   -4.4080   75.9792    5.2509 N   0  0  0  0  0  0  0  0  0  0  0  0
   -4.9007   76.3507    4.1689 C   0  0  0  0  0  0  0  0  0  0  0  0
   -0.0689   76.9224    5.9005 C   0  0  0  0  0  0  0  0  0  0  0  0
   -5.3063   75.8402    3.3680 N   0  0  0  0  0  0  0  0  0  0  0  0
   -5.3315   73.9116    4.4328 N   0  0  0  0  0  0  0  0  0  0  0  0
    0.2751   77.6135    7.1967 C   0  0  0  0  0  0  0  0  0  0  0  0
   -5.5063   74.7134    3.8555 C   0  0  0  0  0  0  0  0  0  0  0  0
  3  1  2  0
  4  3  1  0
  5  1  1  0
  6  1  1  0
  7  2  1  0
  7  6  1  0
  8  7  1  0
  9  5  2  0
 10  8  1  0
 11  2  1  0
 12  4  2  0
 12  9  1  0
 13 10  1  0
 13 11  1  0
M  END
>  <ID>  (1) 
conformer_0

$$$$
