
     RDKit          3D

 12 13  0  0  0  0  0  0  0  0999 V2000
   -0.9397   76.3359    6.1056 C   0  0  0  0  0  0  0  0  0  0  0  0
   -2.2188   77.0151    6.3158 C   0  0  0  0  0  0  0  0  0  0  0  0
   -4.6433   76.3535    4.1764 C   0  0  0  0  0  0  0  0  0  0  0  0
   -0.0012   77.1417    6.3203 C   0  0  0  0  0  0  0  0  0  0  0  0
   -4.2367   76.0730    5.2685 N   0  0  0  0  0  0  0  0  0  0  0  0
   -3.9210   77.1863    6.0751 C   0  0  0  0  0  0  0  0  0  0  0  0
   -2.2836   77.4400    7.6077 C   0  0  0  0  0  0  0  0  0  0  0  0
   -3.8794   74.4171    5.0868 C   0  0  0  0  0  0  0  0  0  0  0  0
   -4.9146   75.7278    3.7427 N   0  0  0  0  0  0  0  0  0  0  0  0
   -1.0540   77.8832    8.2503 C   0  0  0  0  0  0  0  0  0  0  0  0
    0.0076   77.4211    7.8315 C   0  0  0  0  0  0  0  0  0  0  0  0
   -4.9671   74.6278    3.8975 C   0  0  0  0  0  0  0  0  0  0  0  0
  2  1  2  0
  4  1  1  0
  5  3  1  0
  6  2  1  0
  6  5  1  0
  7  2  1  0
  8  5  1  0
  9  3  2  0
 10  7  2  0
 11  4  2  0
 11 10  1  0
 12  8  2  0
 12  9  1  0
M  END
>  <ID>  (1) 
conformer_0

$$$$
