
     RDKit          3D

 11 11  0  0  0  0  0  0  0  0999 V2000
   -1.3164   76.0792    5.9382 C   0  0  0  0  0  0  0  0  0  0  0  0
   -0.0946   76.4627    6.1545 C   0  0  0  0  0  0  0  0  0  0  0  0
   -4.8721   75.4403    3.8603 C   0  0  0  0  0  0  0  0  0  0  0  0
    0.0791   77.1460    7.4226 C   0  0  0  0  0  0  0  0  0  0  0  0
   -2.4423   76.7110    6.4344 C   0  0  0  0  0  0  0  0  0  0  0  0
   -4.2790   76.1364    5.0912 N   0  0  0  0  0  0  0  0  0  0  0  0
   -4.9836   76.3066    3.7789 N   0  0  0  0  0  0  0  0  0  0  0  0
   -3.9321   77.1094    6.1594 C   0  0  0  0  0  0  0  0  0  0  0  0
   -2.1153   77.5166    7.5352 C   0  0  0  0  0  0  0  0  0  0  0  0
   -4.3243   74.4968    4.8212 C   0  0  0  0  0  0  0  0  0  0  0  0
   -0.8846   77.7113    8.0906 C   0  0  0  0  0  0  0  0  0  0  0  0
  2  1  2  0
  4  2  1  0
  5  1  1  0
  6  3  1  0
  7  3  2  3
  8  5  1  0
  8  6  1  0
  9  5  2  0
 10  3  1  0
 11  4  2  0
 11  9  1  0
M  END
>  <ID>  (1) 
conformer_0

$$$$
