
     RDKit          3D

 12 13  0  0  0  0  0  0  0  0999 V2000
   -0.4619   77.6058    8.0370 C   0  0  0  0  0  0  0  0  0  0  0  0
    0.1024   77.2069    6.7910 C   0  0  0  0  0  0  0  0  0  0  0  0
   -5.0670   76.3676    4.2411 C   0  0  0  0  0  0  0  0  0  0  0  0
   -2.5130   77.2237    6.9100 C   0  0  0  0  0  0  0  0  0  0  0  0
   -4.2872   76.0848    5.0835 N   0  0  0  0  0  0  0  0  0  0  0  0
   -1.7828   77.7800    7.9237 C   0  0  0  0  0  0  0  0  0  0  0  0
   -4.0381   76.9116    6.2104 C   0  0  0  0  0  0  0  0  0  0  0  0
   -5.0610   75.7026    3.5913 N   0  0  0  0  0  0  0  0  0  0  0  0
   -4.9869   74.3973    3.9810 C   0  0  0  0  0  0  0  0  0  0  0  0
   -1.9082   76.4413    5.9415 C   0  0  0  0  0  0  0  0  0  0  0  0
   -0.4497   76.4809    5.8336 C   0  0  0  0  0  0  0  0  0  0  0  0
   -3.9711   74.7935    5.1015 C   0  0  0  0  0  0  0  0  0  0  0  0
  2  1  2  0
  5  3  1  0
  6  1  1  0
  6  4  2  0
  7  4  1  0
  7  5  1  0
  8  3  2  0
  9  8  1  0
 10  4  1  0
 11  2  1  0
 11 10  2  0
 12  5  1  0
 12  9  2  0
M  END
>  <ID>  (1) 
conformer_0

$$$$
