
     RDKit          3D

 12 13  0  0  0  0  0  0  0  0999 V2000
   -0.1198   77.6697    7.7352 C   0  0  0  0  0  0  0  0  0  0  0  0
   -2.0907   76.5443    6.0989 C   0  0  0  0  0  0  0  0  0  0  0  0
   -5.1240   75.9667    3.9117 C   0  0  0  0  0  0  0  0  0  0  0  0
    0.1746   77.1028    6.4348 C   0  0  0  0  0  0  0  0  0  0  0  0
   -4.2419   76.0409    5.1940 N   0  0  0  0  0  0  0  0  0  0  0  0
   -3.7566   77.2038    6.0001 C   0  0  0  0  0  0  0  0  0  0  0  0
   -0.7086   76.3284    5.8433 C   0  0  0  0  0  0  0  0  0  0  0  0
   -5.1166   75.9198    3.7558 N   0  0  0  0  0  0  0  0  0  0  0  0
   -4.0537   74.9004    5.1693 C   0  0  0  0  0  0  0  0  0  0  0  0
   -1.3031   77.8568    8.0476 C   0  0  0  0  0  0  0  0  0  0  0  0
   -2.3312   77.4235    7.1456 C   0  0  0  0  0  0  0  0  0  0  0  0
   -5.1215   74.0863    4.1563 C   0  0  0  0  0  0  0  0  0  0  0  0
  4  1  2  0
  5  3  1  0
  6  2  1  0
  6  5  1  0
  7  2  2  0
  7  4  1  0
  8  3  2  3
  9  5  1  0
 10  1  1  0
 11  2  1  0
 11 10  2  0
 12  3  1  0
 12  9  2  0
M  END
>  <ID>  (1) 
conformer_0

$$$$
