
     RDKit          3D

 12 13  0  0  0  0  0  0  0  0999 V2000
   -1.0219   76.5185    5.8084 C   0  0  0  0  0  0  0  0  0  0  0  0
   -0.8719   77.6685    8.2304 C   0  0  0  0  0  0  0  0  0  0  0  0
   -4.9764   76.4102    4.1662 C   0  0  0  0  0  0  0  0  0  0  0  0
   -2.2909   77.0246    6.3349 C   0  0  0  0  0  0  0  0  0  0  0  0
   -4.2466   76.3527    5.1984 N   0  0  0  0  0  0  0  0  0  0  0  0
   -3.9422   77.3483    6.1113 C   0  0  0  0  0  0  0  0  0  0  0  0
   -2.0895   77.4674    7.6219 C   0  0  0  0  0  0  0  0  0  0  0  0
   -3.8945   74.8268    4.9681 C   0  0  0  0  0  0  0  0  0  0  0  0
   -4.8369   75.5865    3.6425 N   0  0  0  0  0  0  0  0  0  0  0  0
    0.1675   77.0983    7.7084 C   0  0  0  0  0  0  0  0  0  0  0  0
    0.0762   76.7665    6.2097 C   0  0  0  0  0  0  0  0  0  0  0  0
   -5.0530   74.5135    3.9726 C   0  0  0  0  0  0  0  0  0  0  0  0
  4  1  2  0
  5  3  1  0
  6  4  1  0
  6  5  1  0
  7  2  2  0
  7  4  1  0
  8  5  1  0
  9  3  2  0
 10  2  1  0
 11  1  1  0
 11 10  2  0
 12  8  2  0
 12  9  1  0
M  END
>  <ID>  (1) 
conformer_0

$$$$
