
     RDKit          3D

 12 13  0  0  0  0  0  0  0  0999 V2000
   -4.7436   76.2781    4.1251 C   0  0  0  0  0  0  0  0  0  0  0  0
   -0.2937   77.5490    7.7512 C   0  0  0  0  0  0  0  0  0  0  0  0
   -0.1466   77.4463    6.2143 C   0  0  0  0  0  0  0  0  0  0  0  0
   -4.2960   76.1458    5.2541 N   0  0  0  0  0  0  0  0  0  0  0  0
   -2.5011   77.3698    6.9055 C   0  0  0  0  0  0  0  0  0  0  0  0
   -4.3024   77.1582    6.3874 C   0  0  0  0  0  0  0  0  0  0  0  0
   -3.9107   74.5722    5.0487 C   0  0  0  0  0  0  0  0  0  0  0  0
   -4.7574   75.5792    3.3991 N   0  0  0  0  0  0  0  0  0  0  0  0
   -1.6296   78.1363    7.8117 C   0  0  0  0  0  0  0  0  0  0  0  0
   -1.9278   76.2315    6.5152 C   0  0  0  0  0  0  0  0  0  0  0  0
   -0.3694   76.0171    6.2697 C   0  0  0  0  0  0  0  0  0  0  0  0
   -4.8828   74.4516    3.9517 C   0  0  0  0  0  0  0  0  0  0  0  0
  3  2  2  0
  4  1  1  0
  6  4  1  0
  6  5  1  0
  7  4  1  0
  8  1  1  0
  9  2  1  0
  9  5  2  0
 10  5  1  0
 11  3  1  0
 11 10  2  0
 12  7  1  0
 12  8  1  0
M  END
>  <ID>  (1) 
conformer_0

$$$$
