
     RDKit          3D

 13 14  0  0  0  0  0  0  0  0999 V2000
    0.2597   77.4316    6.6031 C   0  0  0  0  0  0  0  0  0  0  0  0
   -0.1322   77.6532    8.0611 C   0  0  0  0  0  0  0  0  0  0  0  0
   -4.2953   76.6844    4.6820 C   0  0  0  0  0  0  0  0  0  0  0  0
   -1.6535   76.2166    6.2770 C   0  0  0  0  0  0  0  0  0  0  0  0
   -4.3372   75.8760    5.3763 N   0  0  0  0  0  0  0  0  0  0  0  0
   -4.9236   74.1436    4.4843 C   0  0  0  0  0  0  0  0  0  0  0  0
   -0.2384   76.1538    6.2767 C   0  0  0  0  0  0  0  0  0  0  0  0
   -3.9289   76.6535    6.4713 C   0  0  0  0  0  0  0  0  0  0  0  0
   -4.6752   76.6375    3.6343 N   0  0  0  0  0  0  0  0  0  0  0  0
   -5.4713   75.6814    3.6109 C   0  0  0  0  0  0  0  0  0  0  0  0
   -1.4091   77.9983    7.9647 C   0  0  0  0  0  0  0  0  0  0  0  0
   -2.2899   77.0894    7.1680 C   0  0  0  0  0  0  0  0  0  0  0  0
   -3.7524   74.6240    5.4451 C   0  0  0  0  0  0  0  0  0  0  0  0
  2  1  2  0
  5  3  1  0
  7  1  1  0
  7  4  2  0
  8  5  1  0
  9  3  1  0
 10  6  1  0
 10  9  1  0
 11  2  1  0
 12  4  1  0
 12  8  1  0
 12 11  2  0
 13  5  1  0
 13  6  1  0
M  END
>  <ID>  (1) 
conformer_0

$$$$
