
     RDKit          3D

 11 11  0  0  0  0  0  0  0  0999 V2000
   -1.8433   76.3687    6.0968 C   0  0  0  0  0  0  0  0  0  0  0  0
   -1.7080   77.8237    7.9168 C   0  0  0  0  0  0  0  0  0  0  0  0
   -4.0787   74.8500    4.6001 C   0  0  0  0  0  0  0  0  0  0  0  0
   -2.5564   77.1288    6.9700 C   0  0  0  0  0  0  0  0  0  0  0  0
   -4.2936   76.1994    5.1296 N   0  0  0  0  0  0  0  0  0  0  0  0
   -4.1450   77.3335    5.9219 C   0  0  0  0  0  0  0  0  0  0  0  0
   -0.4800   77.3267    8.1340 C   0  0  0  0  0  0  0  0  0  0  0  0
   -4.2383   75.1210    4.0980 N   0  0  0  0  0  0  0  0  0  0  0  0
   -5.1822   75.7023    3.9557 C   0  0  0  0  0  0  0  0  0  0  0  0
    0.1278   77.0287    6.9297 C   0  0  0  0  0  0  0  0  0  0  0  0
   -0.4457   76.2200    5.9587 C   0  0  0  0  0  0  0  0  0  0  0  0
  4  1  2  0
  4  2  1  0
  5  3  1  0
  6  4  1  0
  6  5  1  0
  7  2  2  0
  8  3  1  0
  9  8  2  3
 10  7  1  0
 11  1  1  0
 11 10  2  0
M  END
>  <ID>  (1) 
conformer_0

$$$$
