
     RDKit          3D

 12 13  0  0  0  0  0  0  0  0999 V2000
   -0.7971   77.8176    8.1800 C   0  0  0  0  0  0  0  0  0  0  0  0
   -1.3992   76.3765    6.0259 C   0  0  0  0  0  0  0  0  0  0  0  0
   -4.6862   76.3529    4.1041 C   0  0  0  0  0  0  0  0  0  0  0  0
   -2.4282   77.1244    6.4888 C   0  0  0  0  0  0  0  0  0  0  0  0
   -4.2685   76.1063    5.0886 N   0  0  0  0  0  0  0  0  0  0  0  0
   -3.8283   77.3802    5.8559 C   0  0  0  0  0  0  0  0  0  0  0  0
    0.0798   77.0646    7.7258 C   0  0  0  0  0  0  0  0  0  0  0  0
   -0.1962   76.3583    6.4265 C   0  0  0  0  0  0  0  0  0  0  0  0
   -3.9390   74.6212    4.8708 C   0  0  0  0  0  0  0  0  0  0  0  0
   -4.8315   75.7178    3.4673 N   0  0  0  0  0  0  0  0  0  0  0  0
   -2.0190   77.8563    7.7006 C   0  0  0  0  0  0  0  0  0  0  0  0
   -5.0928   74.5037    3.7806 C   0  0  0  0  0  0  0  0  0  0  0  0
  4  2  1  0
  5  3  1  0
  6  4  1  0
  6  5  1  0
  7  1  2  0
  8  2  2  0
  8  7  1  0
  9  5  1  0
 10  3  2  0
 11  1  1  0
 11  4  2  0
 12  9  2  0
 12 10  1  0
M  END
>  <ID>  (1) 
conformer_0

$$$$
