
     RDKit          3D

 12 13  0  0  0  0  0  0  0  0999 V2000
    0.0795   77.4243    6.4207 C   0  0  0  0  0  0  0  0  0  0  0  0
   -0.3394   77.5768    7.8430 C   0  0  0  0  0  0  0  0  0  0  0  0
   -4.5238   76.2202    4.0109 C   0  0  0  0  0  0  0  0  0  0  0  0
   -1.5978   77.8150    7.9376 C   0  0  0  0  0  0  0  0  0  0  0  0
   -4.1982   76.0509    5.0971 N   0  0  0  0  0  0  0  0  0  0  0  0
   -4.0337   77.1036    6.1349 C   0  0  0  0  0  0  0  0  0  0  0  0
   -4.9994   75.7404    3.4599 N   0  0  0  0  0  0  0  0  0  0  0  0
   -0.5249   76.3783    5.8032 C   0  0  0  0  0  0  0  0  0  0  0  0
   -5.1353   74.2879    4.1758 C   0  0  0  0  0  0  0  0  0  0  0  0
   -1.9954   76.5738    5.9242 C   0  0  0  0  0  0  0  0  0  0  0  0
   -2.5428   77.2041    7.0036 C   0  0  0  0  0  0  0  0  0  0  0  0
   -4.1208   74.6225    5.2577 C   0  0  0  0  0  0  0  0  0  0  0  0
  2  1  2  0
  4  2  1  0
  5  3  1  0
  6  5  1  0
  7  3  1  0
  8  1  1  0
  9  7  1  0
 10  8  2  0
 11  4  2  0
 11  6  1  0
 11 10  1  0
 12  5  1  0
 12  9  1  0
M  END
>  <ID>  (1) 
conformer_0

$$$$
