
     RDKit          3D

 13 14  0  0  0  0  0  0  0  0999 V2000
   -0.4078   77.1906    8.1373 C   0  0  0  0  0  0  0  0  0  0  0  0
   -1.6496   78.1768    7.9256 C   0  0  0  0  0  0  0  0  0  0  0  0
   -4.8531   74.0854    4.5159 C   0  0  0  0  0  0  0  0  0  0  0  0
   -4.0251   76.2892    5.2908 N   0  0  0  0  0  0  0  0  0  0  0  0
   -1.6218   76.4313    6.2413 C   0  0  0  0  0  0  0  0  0  0  0  0
   -2.3953   77.4471    6.7199 C   0  0  0  0  0  0  0  0  0  0  0  0
   -3.9242   77.0910    6.1867 C   0  0  0  0  0  0  0  0  0  0  0  0
   -5.1133   76.1576    4.0646 C   0  0  0  0  0  0  0  0  0  0  0  0
   -4.8254   75.3288    3.7817 N   0  0  0  0  0  0  0  0  0  0  0  0
   -5.2959   74.3697    4.0822 N   0  0  0  0  0  0  0  0  0  0  0  0
   -0.1923   76.2918    6.3135 C   0  0  0  0  0  0  0  0  0  0  0  0
   -3.6614   75.3363    4.8315 C   0  0  0  0  0  0  0  0  0  0  0  0
    0.0276   77.9622    7.1333 C   0  0  0  0  0  0  0  0  0  0  0  0
  2  1  2  0
  6  2  1  0
  6  5  2  0
  7  4  1  0
  7  6  1  0
  8  4  1  0
  9  8  2  0
 10  3  1  0
 10  9  1  0
 11  5  1  0
 12  3  2  0
 12  4  1  0
 13  1  1  0
 13 11  2  0
M  END
>  <ID>  (1) 
conformer_0

$$$$
