
     RDKit          3D

 13 15  0  0  0  0  0  0  0  0999 V2000
   -0.0577   77.6310    6.3403 C   0  0  0  0  0  0  0  0  0  0  0  0
    0.0217   76.1251    7.1620 C   0  0  0  0  0  0  0  0  0  0  0  0
   -4.8127   76.3678    4.1279 C   0  0  0  0  0  0  0  0  0  0  0  0
   -1.1041   75.7315    6.1061 C   0  0  0  0  0  0  0  0  0  0  0  0
   -4.1663   76.0839    5.1122 N   0  0  0  0  0  0  0  0  0  0  0  0
   -3.7725   77.0840    6.1223 C   0  0  0  0  0  0  0  0  0  0  0  0
   -5.1481   75.5785    3.7704 N   0  0  0  0  0  0  0  0  0  0  0  0
   -0.1020   77.6642    8.0112 C   0  0  0  0  0  0  0  0  0  0  0  0
   -4.2247   74.4834    4.8158 C   0  0  0  0  0  0  0  0  0  0  0  0
   -1.6841   78.2790    7.6115 C   0  0  0  0  0  0  0  0  0  0  0  0
   -2.0662   76.4552    7.4397 C   0  0  0  0  0  0  0  0  0  0  0  0
   -5.2619   74.5911    3.4535 C   0  0  0  0  0  0  0  0  0  0  0  0
   -2.4392   77.2041    6.2930 C   0  0  0  0  0  0  0  0  0  0  0  0
  2  1  1  0
  4  2  2  0
  5  3  1  0
  6  5  1  0
  7  3  1  0
  8  1  1  0
  8  2  1  0
  9  5  1  0
 10  8  2  0
 11  4  1  0
 12  7  1  0
 12  9  2  0
 13  6  1  0
 13 10  1  0
 13 11  2  0
M  END
>  <ID>  (1) 
conformer_0

$$$$
