
     RDKit          3D

 12 14  0  0  0  0  0  0  0  0999 V2000
    0.1123   77.5582    6.7916 C   0  0  0  0  0  0  0  0  0  0  0  0
   -0.6577   77.7326    7.8500 C   0  0  0  0  0  0  0  0  0  0  0  0
   -5.0895   76.0256    3.8194 C   0  0  0  0  0  0  0  0  0  0  0  0
   -4.1374   76.1075    5.2402 N   0  0  0  0  0  0  0  0  0  0  0  0
   -0.2068   76.2448    6.2579 C   0  0  0  0  0  0  0  0  0  0  0  0
   -1.9618   78.0365    7.4767 C   0  0  0  0  0  0  0  0  0  0  0  0
   -3.8827   77.2624    6.2873 C   0  0  0  0  0  0  0  0  0  0  0  0
   -4.9309   75.5634    3.6832 N   0  0  0  0  0  0  0  0  0  0  0  0
   -4.1393   75.2244    5.3009 C   0  0  0  0  0  0  0  0  0  0  0  0
   -2.5472   77.0140    6.6179 C   0  0  0  0  0  0  0  0  0  0  0  0
   -1.5390   76.2625    5.8874 C   0  0  0  0  0  0  0  0  0  0  0  0
   -4.7277   74.0273    4.2919 C   0  0  0  0  0  0  0  0  0  0  0  0
  2  1  2  0
  4  3  1  0
  5  1  1  0
  6  2  1  0
  7  4  1  0
  8  3  1  0
  9  4  1  0
  9  8  1  0
 10  6  2  0
 10  7  1  0
 11  5  2  0
 11 10  1  0
 12  8  1  0
 12  9  2  0
M  END
>  <ID>  (1) 
conformer_0

$$$$
