
     RDKit          3D

 12 13  0  0  0  0  0  0  0  0999 V2000
   -1.0257   76.1984    6.0410 C   0  0  0  0  0  0  0  0  0  0  0  0
   -0.0085   76.3753    7.0884 C   0  0  0  0  0  0  0  0  0  0  0  0
   -4.5258   76.5774    4.6342 C   0  0  0  0  0  0  0  0  0  0  0  0
    0.1385   77.6580    7.6071 C   0  0  0  0  0  0  0  0  0  0  0  0
   -4.1942   76.2114    5.3930 N   0  0  0  0  0  0  0  0  0  0  0  0
   -1.0051   77.8219    8.2097 C   0  0  0  0  0  0  0  0  0  0  0  0
   -3.7915   77.6082    6.1106 C   0  0  0  0  0  0  0  0  0  0  0  0
   -4.9621   76.1141    3.6990 N   0  0  0  0  0  0  0  0  0  0  0  0
   -4.0697   74.6671    5.0819 C   0  0  0  0  0  0  0  0  0  0  0  0
   -2.0226   77.9192    7.1320 C   0  0  0  0  0  0  0  0  0  0  0  0
   -2.2446   76.8105    6.3170 C   0  0  0  0  0  0  0  0  0  0  0  0
   -5.0837   74.7827    3.8314 C   0  0  0  0  0  0  0  0  0  0  0  0
  2  1  2  0
  4  2  1  0
  5  3  1  0
  6  4  2  0
  7  5  1  0
  8  3  1  0
  9  5  1  0
 10  6  1  0
 11  1  1  0
 11  7  1  0
 11 10  2  0
 12  8  1  0
 12  9  1  0
M  END
>  <ID>  (1) 
conformer_0

$$$$
