
     RDKit          3D

 12 14  0  0  0  0  0  0  0  0999 V2000
   -2.4092   76.8275    6.5954 C   0  0  0  0  0  0  0  0  0  0  0  0
   -0.8180   76.0744    5.8933 C   0  0  0  0  0  0  0  0  0  0  0  0
   -4.6860   76.2244    4.2113 C   0  0  0  0  0  0  0  0  0  0  0  0
   -0.0157   77.7457    8.1706 C   0  0  0  0  0  0  0  0  0  0  0  0
   -4.4004   76.2444    5.0339 N   0  0  0  0  0  0  0  0  0  0  0  0
   -3.7091   77.3380    5.7023 C   0  0  0  0  0  0  0  0  0  0  0  0
    0.5003   76.7285    6.7774 C   0  0  0  0  0  0  0  0  0  0  0  0
   -5.2936   76.1477    3.7593 N   0  0  0  0  0  0  0  0  0  0  0  0
   -4.0938   74.6251    5.2019 C   0  0  0  0  0  0  0  0  0  0  0  0
   -1.0749   76.9945    7.1541 C   0  0  0  0  0  0  0  0  0  0  0  0
   -1.7069   77.9337    8.0748 C   0  0  0  0  0  0  0  0  0  0  0  0
   -5.0532   74.3057    4.0553 C   0  0  0  0  0  0  0  0  0  0  0  0
  2  1  1  0
  5  3  1  0
  6  1  1  0
  6  5  1  0
  7  2  2  0
  7  4  1  0
  8  3  1  0
 10  1  1  0
 10  2  1  0
 10  7  1  0
 11  4  2  0
 11 10  1  0
 12  8  1  0
 12  9  1  0
M  END
>  <ID>  (1) 
conformer_0

$$$$
