
     RDKit          3D

 11 11  0  0  0  0  0  0  0  0999 V2000
   -0.5500   77.8361    8.1768 C   0  0  0  0  0  0  0  0  0  0  0  0
    0.2851   77.4003    7.3148 C   0  0  0  0  0  0  0  0  0  0  0  0
   -4.9718   75.4487    4.0324 C   0  0  0  0  0  0  0  0  0  0  0  0
   -1.8375   77.7314    7.8940 C   0  0  0  0  0  0  0  0  0  0  0  0
   -2.4052   77.0579    6.7293 C   0  0  0  0  0  0  0  0  0  0  0  0
   -4.0218   76.7817    5.9224 C   0  0  0  0  0  0  0  0  0  0  0  0
   -4.6114   75.8757    5.1094 N   0  0  0  0  0  0  0  0  0  0  0  0
   -5.0304   75.5676    3.5320 N   0  0  0  0  0  0  0  0  0  0  0  0
   -1.4729   76.4157    6.0272 C   0  0  0  0  0  0  0  0  0  0  0  0
   -4.7566   74.1972    4.6559 C   0  0  0  0  0  0  0  0  0  0  0  0
   -0.1570   76.5948    6.2031 C   0  0  0  0  0  0  0  0  0  0  0  0
  2  1  2  0
  4  1  1  0
  5  4  2  0
  6  5  1  0
  7  3  1  0
  7  6  1  0
  8  3  2  3
  9  5  1  0
 10  3  1  0
 11  2  1  0
 11  9  2  0
M  END
>  <ID>  (1) 
conformer_0

$$$$
