
     RDKit          3D

 12 13  0  0  0  0  0  0  0  0999 V2000
   -2.1924   77.2067    6.6692 C   0  0  0  0  0  0  0  0  0  0  0  0
   -4.9817   74.9721    4.0042 C   0  0  0  0  0  0  0  0  0  0  0  0
   -0.2074   77.4460    8.0024 C   0  0  0  0  0  0  0  0  0  0  0  0
   -1.5080   77.7356    7.9169 C   0  0  0  0  0  0  0  0  0  0  0  0
   -4.2468   76.1299    5.1939 N   0  0  0  0  0  0  0  0  0  0  0  0
   -4.2792   74.4059    5.2383 C   0  0  0  0  0  0  0  0  0  0  0  0
    0.1427   76.8342    6.6777 C   0  0  0  0  0  0  0  0  0  0  0  0
   -3.8562   77.5082    6.1057 C   0  0  0  0  0  0  0  0  0  0  0  0
   -5.0491   75.5875    3.4974 N   0  0  0  0  0  0  0  0  0  0  0  0
   -0.9772   76.6669    5.9200 C   0  0  0  0  0  0  0  0  0  0  0  0
   -4.4590   73.7288    4.6802 N   0  0  0  0  0  0  0  0  0  0  0  0
   -4.6650   76.5452    4.3869 C   0  0  0  0  0  0  0  0  0  0  0  0
  4  1  2  0
  4  3  1  0
  6  2  2  0
  6  5  1  0
  7  3  2  0
  8  1  1  0
  8  5  1  0
  9  2  1  0
 10  1  1  0
 10  7  1  0
 11  6  1  0
 12  5  1  0
 12  9  2  0
M  END
>  <ID>  (1) 
conformer_0

$$$$
