
     RDKit          3D

 12 14  0  0  0  0  0  0  0  0999 V2000
    0.0344   77.4610    6.2098 C   0  0  0  0  0  0  0  0  0  0  0  0
   -0.3156   76.8573    7.8126 C   0  0  0  0  0  0  0  0  0  0  0  0
   -4.8198   74.0563    4.4689 C   0  0  0  0  0  0  0  0  0  0  0  0
   -4.1077   76.2629    5.0274 N   0  0  0  0  0  0  0  0  0  0  0  0
   -0.5237   76.0785    5.9159 C   0  0  0  0  0  0  0  0  0  0  0  0
   -3.9714   77.4930    5.9173 C   0  0  0  0  0  0  0  0  0  0  0  0
   -4.6900   75.2712    3.7964 N   0  0  0  0  0  0  0  0  0  0  0  0
   -5.0878   76.2864    3.7802 C   0  0  0  0  0  0  0  0  0  0  0  0
   -2.1014   77.1180    5.9009 C   0  0  0  0  0  0  0  0  0  0  0  0
   -1.3241   77.9539    7.8080 C   0  0  0  0  0  0  0  0  0  0  0  0
   -2.4570   77.1001    7.2423 C   0  0  0  0  0  0  0  0  0  0  0  0
   -4.0800   75.3901    5.1771 C   0  0  0  0  0  0  0  0  0  0  0  0
  2  1  2  0
  5  1  1  0
  6  4  1  0
  7  3  1  0
  8  4  1  0
  8  7  1  0
  9  5  2  0
  9  6  1  0
 10  2  1  0
 11  9  1  0
 11 10  2  0
 12  3  1  0
 12  4  1  0
 12  7  1  0
M  END
>  <ID>  (1) 
conformer_0

$$$$
