
     RDKit          3D

 12 13  0  0  0  0  0  0  0  0999 V2000
   -4.5192   76.2588    4.4401 C   0  0  0  0  0  0  0  0  0  0  0  0
   -0.5217   76.1610    6.0710 C   0  0  0  0  0  0  0  0  0  0  0  0
    0.3522   76.7615    6.8591 C   0  0  0  0  0  0  0  0  0  0  0  0
   -0.0518   77.6340    7.8640 C   0  0  0  0  0  0  0  0  0  0  0  0
   -4.2796   76.0408    5.2232 N   0  0  0  0  0  0  0  0  0  0  0  0
   -3.9325   77.0547    6.3401 C   0  0  0  0  0  0  0  0  0  0  0  0
   -1.3256   77.9707    7.9678 C   0  0  0  0  0  0  0  0  0  0  0  0
   -4.2800   74.4084    5.0245 C   0  0  0  0  0  0  0  0  0  0  0  0
   -4.9670   75.9527    3.4938 N   0  0  0  0  0  0  0  0  0  0  0  0
   -2.2746   77.2662    7.0889 C   0  0  0  0  0  0  0  0  0  0  0  0
   -1.9211   76.4011    6.1425 C   0  0  0  0  0  0  0  0  0  0  0  0
   -5.3024   74.7645    3.9101 C   0  0  0  0  0  0  0  0  0  0  0  0
  3  2  2  0
  4  3  1  0
  5  1  1  0
  6  5  1  0
  7  4  2  0
  8  5  1  0
  9  1  1  0
 10  6  1  0
 10  7  1  0
 11  2  1  0
 11 10  2  0
 12  8  1  0
 12  9  1  0
M  END
>  <ID>  (1) 
conformer_0

$$$$
