
     RDKit          3D

 12 13  0  0  0  0  0  0  0  0999 V2000
   -3.4653   75.1805    4.9195 C   0  0  0  0  0  0  0  0  0  0  0  0
   -1.3223   76.3878    6.0182 C   0  0  0  0  0  0  0  0  0  0  0  0
   -2.3903   76.8801    6.5841 C   0  0  0  0  0  0  0  0  0  0  0  0
   -2.0713   77.7070    7.6412 C   0  0  0  0  0  0  0  0  0  0  0  0
   -4.2054   76.1772    5.2608 N   0  0  0  0  0  0  0  0  0  0  0  0
   -0.0442   76.4828    6.3183 C   0  0  0  0  0  0  0  0  0  0  0  0
   -3.9793   77.2134    6.2923 C   0  0  0  0  0  0  0  0  0  0  0  0
   -4.8730   74.5790    3.8660 C   0  0  0  0  0  0  0  0  0  0  0  0
   -4.9824   76.3264    3.7846 N   0  0  0  0  0  0  0  0  0  0  0  0
   -0.8748   77.7535    8.2887 C   0  0  0  0  0  0  0  0  0  0  0  0
    0.1190   77.0183    7.7682 C   0  0  0  0  0  0  0  0  0  0  0  0
   -4.9485   76.2867    4.2222 C   0  0  0  0  0  0  0  0  0  0  0  0
  3  2  2  0
  4  3  1  0
  5  1  1  0
  6  2  1  0
  7  3  1  0
  7  5  1  0
  8  1  1  0
 10  4  2  0
 11  6  2  0
 11 10  1  0
 12  5  1  0
 12  8  1  0
 12  9  2  3
M  END
>  <ID>  (1) 
conformer_0

$$$$
