
     RDKit          3D

 14 16  0  0  0  0  0  0  0  0999 V2000
   -0.7700   77.5665    8.2868 C   0  0  0  0  0  0  0  0  0  0  0  0
    0.0625   77.5388    7.1758 C   0  0  0  0  0  0  0  0  0  0  0  0
   -5.2116   74.9837    3.6760 C   0  0  0  0  0  0  0  0  0  0  0  0
   -2.0242   77.8907    7.6741 C   0  0  0  0  0  3  0  0  0  0  0  0
   -4.2180   75.9019    5.2047 N   0  0  0  0  0  0  0  0  0  0  0  0
   -4.6382   73.8874    4.7491 C   0  0  0  0  0  0  0  0  0  0  0  0
   -3.8085   78.1092    6.3383 C   0  0  0  0  0  0  0  0  0  0  0  0
   -1.4660   76.2524    6.1046 C   0  0  0  0  0  0  0  0  0  0  0  0
   -5.3142   76.2028    3.6750 N   0  0  0  0  0  0  0  0  0  0  0  0
   -2.4742   77.1325    6.6461 C   0  0  0  0  0  0  0  0  0  0  0  0
   -3.9193   76.7418    6.2297 C   0  0  0  0  0  0  0  0  0  0  0  0
   -4.8034   76.7385    4.6639 C   0  0  0  0  0  0  0  0  0  0  0  0
   -0.1432   76.7231    6.0197 C   0  0  0  0  0  0  0  0  0  0  0  0
   -3.4943   74.9233    5.1624 C   0  0  0  0  0  0  0  0  0  0  0  0
  2  1  2  0
  4  1  1  0
  6  3  1  0
  9  3  1  0
 10  4  1  0
 10  7  1  0
 10  8  1  0
 11  5  1  0
 11  7  1  0
 11 10  1  0
 12  5  1  0
 12  9  1  0
 13  2  1  0
 13  8  2  0
 14  5  1  0
 14  6  1  0
M  RAD  1   4   2
M  END
>  <ID>  (1) 
conformer_0

$$$$
