
     RDKit          3D

 12 13  0  0  0  0  0  0  0  0999 V2000
   -0.1167   77.7484    7.8552 C   0  0  0  0  0  0  0  0  0  0  0  0
   -0.0291   77.2416    6.4504 C   0  0  0  0  0  0  0  0  0  0  0  0
   -4.8303   76.1811    3.9163 C   0  0  0  0  0  0  0  0  0  0  0  0
   -2.4142   77.4703    7.5292 C   0  0  0  0  0  0  0  0  0  0  0  0
   -4.0700   76.0995    5.2350 N   0  0  0  0  0  0  0  0  0  0  0  0
   -3.9447   77.1071    6.1992 C   0  0  0  0  0  0  0  0  0  0  0  0
   -1.2568   77.9851    8.1795 C   0  0  0  0  0  0  0  0  0  0  0  0
   -4.7980   74.3001    4.3084 C   0  0  0  0  0  0  0  0  0  0  0  0
   -4.7547   75.8382    3.5321 N   0  0  0  0  0  0  0  0  0  0  0  0
   -0.7794   76.2902    6.1177 C   0  0  0  0  0  0  0  0  0  0  0  0
   -2.1408   76.7549    6.3333 C   0  0  0  0  0  0  0  0  0  0  0  0
   -3.5834   74.9429    5.2009 C   0  0  0  0  0  0  0  0  0  0  0  0
  2  1  2  0
  5  3  1  0
  6  5  1  0
  7  1  1  0
  7  4  2  0
  9  3  1  0
  9  8  1  0
 10  2  1  0
 11  4  1  0
 11  6  1  0
 11 10  2  0
 12  5  1  0
 12  8  1  0
M  END
>  <ID>  (1) 
conformer_0

$$$$
