
     RDKit          3D

 12 13  0  0  0  0  0  0  0  0999 V2000
   -0.0693   77.4260    6.0819 C   0  0  0  0  0  0  0  0  0  0  0  0
   -2.2693   76.9031    6.4429 C   0  0  0  0  0  0  0  0  0  0  0  0
   -4.6208   76.3010    4.1791 C   0  0  0  0  0  0  0  0  0  0  0  0
   -1.0536   77.6625    8.2830 C   0  0  0  0  0  0  0  0  0  0  0  0
   -4.3448   76.0502    5.2847 N   0  0  0  0  0  0  0  0  0  0  0  0
   -4.9067   75.9207    3.4608 N   0  0  0  0  0  0  0  0  0  0  0  0
   -3.9438   76.9921    6.4260 C   0  0  0  0  0  0  0  0  0  0  0  0
   -5.0980   74.4782    4.0621 C   0  0  0  0  0  0  0  0  0  0  0  0
    0.1063   77.6531    7.7183 C   0  0  0  0  0  0  0  0  0  0  0  0
   -0.7031   76.4655    5.9316 C   0  0  0  0  0  0  0  0  0  0  0  0
   -4.2148   74.6434    5.2858 C   0  0  0  0  0  0  0  0  0  0  0  0
   -2.1858   77.7826    7.4665 C   0  0  0  0  0  0  0  0  0  0  0  0
  5  3  1  0
  6  3  1  0
  7  2  1  0
  7  5  1  0
  8  6  1  0
  9  1  2  0
  9  4  1  0
 10  1  1  0
 10  2  2  0
 11  5  1  0
 11  8  1  0
 12  2  1  0
 12  4  2  0
M  END
>  <ID>  (1) 
conformer_0

$$$$
