
     RDKit          3D

 12 13  0  0  0  0  0  0  0  0999 V2000
   -1.0641   78.1633    7.9426 C   0  0  0  0  0  0  0  0  0  0  0  0
   -1.1992   76.0352    6.2043 C   0  0  0  0  0  0  0  0  0  0  0  0
   -4.8488   76.4597    4.0821 C   0  0  0  0  0  0  0  0  0  0  0  0
   -2.3097   77.6871    7.4064 C   0  0  0  0  0  0  0  0  0  0  0  0
   -4.2590   76.1406    5.0951 N   0  0  0  0  0  0  0  0  0  0  0  0
   -3.8546   76.8620    6.0218 C   0  0  0  0  0  0  0  0  0  0  0  0
   -2.3625   76.8290    6.3142 C   0  0  0  0  0  0  0  0  0  0  0  0
   -5.3562   75.8564    3.6460 N   0  0  0  0  0  0  0  0  0  0  0  0
   -4.1371   74.5628    4.8055 C   0  0  0  0  0  0  0  0  0  0  0  0
   -0.0832   77.3727    7.8733 C   0  0  0  0  0  0  0  0  0  0  0  0
   -0.1016   76.6899    6.5606 C   0  0  0  0  0  0  0  0  0  0  0  0
   -5.2392   74.5151    3.6710 C   0  0  0  0  0  0  0  0  0  0  0  0
  4  1  2  0
  5  3  1  0
  6  5  1  0
  7  2  2  0
  7  4  1  0
  7  6  1  0
  8  3  2  0
  9  5  1  0
 10  1  1  0
 11  2  1  0
 11 10  2  0
 12  8  1  0
 12  9  2  0
M  END
>  <ID>  (1) 
conformer_0

$$$$
