
     RDKit          3D

 12 13  0  0  0  0  0  0  0  0999 V2000
   -0.7108   77.8085    8.0264 C   0  0  0  0  0  0  0  0  0  0  0  0
   -1.4403   76.1239    5.9538 C   0  0  0  0  0  0  0  0  0  0  0  0
   -4.7206   76.3187    4.2105 C   0  0  0  0  0  0  0  0  0  0  0  0
   -2.3693   76.9802    6.4319 C   0  0  0  0  0  0  0  0  0  0  0  0
   -4.2394   76.0110    5.2005 N   0  0  0  0  0  0  0  0  0  0  0  0
   -3.8730   77.2981    5.9572 C   0  0  0  0  0  0  0  0  0  0  0  0
   -1.9128   77.8874    7.5013 C   0  0  0  0  0  0  0  0  0  0  0  0
   -4.9635   75.9400    3.7467 N   0  0  0  0  0  0  0  0  0  0  0  0
   -4.1514   74.4626    5.2269 C   0  0  0  0  0  0  0  0  0  0  0  0
    0.1676   76.9232    7.4656 C   0  0  0  0  0  0  0  0  0  0  0  0
   -0.2353   76.0811    6.3531 C   0  0  0  0  0  0  0  0  0  0  0  0
   -5.1321   74.4673    3.8508 C   0  0  0  0  0  0  0  0  0  0  0  0
  4  2  2  0
  5  3  1  0
  6  4  1  0
  6  5  1  0
  7  1  2  0
  7  4  1  0
  8  3  2  0
  9  5  1  0
 10  1  1  0
 11  2  1  0
 11 10  2  0
 12  8  1  0
 12  9  2  0
M  END
>  <ID>  (1) 
conformer_0

$$$$
