
     RDKit          3D

 11 11  0  0  0  0  0  0  0  0999 V2000
   -4.7645   75.5647    4.1661 C   0  0  0  0  0  0  0  0  0  0  0  0
   -0.6275   77.8491    8.2359 C   0  0  0  0  0  0  0  0  0  0  0  0
   -2.3800   76.9665    6.8778 C   0  0  0  0  0  0  0  0  0  0  0  0
    0.2865   77.6608    7.2047 C   0  0  0  0  0  0  0  0  0  0  0  0
   -4.1996   76.1377    5.3517 N   0  0  0  0  0  0  0  0  0  0  0  0
   -4.9996   75.6381    3.4561 N   0  0  0  0  0  0  0  0  0  0  0  0
   -1.8542   77.7045    7.9611 C   0  0  0  0  0  0  0  0  0  0  0  0
   -4.0617   77.1094    6.1890 C   0  0  0  0  0  0  0  0  0  0  0  0
   -4.4412   74.5723    4.7445 C   0  0  0  0  0  0  0  0  0  0  0  0
   -1.3145   76.3741    6.1109 C   0  0  0  0  0  0  0  0  0  0  0  0
   -0.0545   76.8182    6.0786 C   0  0  0  0  0  0  0  0  0  0  0  0
  4  2  2  0
  5  1  1  0
  6  1  2  3
  7  2  1  0
  7  3  2  0
  8  3  1  0
  8  5  1  0
  9  1  1  0
 10  3  1  0
 11  4  1  0
 11 10  2  0
M  END
>  <ID>  (1) 
conformer_0

$$$$
