
     RDKit          3D

 12 13  0  0  0  0  0  0  0  0999 V2000
    0.2950   77.3798    7.0359 C   0  0  0  0  0  0  0  0  0  0  0  0
   -1.4617   76.2180    6.0789 C   0  0  0  0  0  0  0  0  0  0  0  0
   -4.2867   74.4101    5.1595 C   0  0  0  0  0  0  0  0  0  0  0  0
   -0.1817   76.3928    6.1549 C   0  0  0  0  0  0  0  0  0  0  0  0
   -4.4406   75.9470    5.2120 N   0  0  0  0  0  0  0  0  0  0  0  0
   -3.9913   77.0548    6.0284 C   0  0  0  0  0  0  0  0  0  0  0  0
   -5.1738   74.6825    3.8799 C   0  0  0  0  0  0  0  0  0  0  0  0
   -1.9772   77.8935    7.5515 C   0  0  0  0  0  0  0  0  0  0  0  0
   -5.2847   75.0421    3.7614 N   0  0  0  0  0  0  0  0  0  0  0  0
   -0.6723   78.0890    7.8654 C   0  0  0  0  0  0  0  0  0  0  0  0
   -4.9421   76.3484    4.1545 C   0  0  0  0  0  0  0  0  0  0  0  0
   -2.4625   77.0169    6.5398 C   0  0  0  0  0  0  0  0  0  0  0  0
  4  1  2  0
  4  2  1  0
  5  3  1  0
  6  5  1  0
  7  3  2  0
  9  7  1  0
 10  1  1  0
 10  8  2  0
 11  5  1  0
 11  9  2  0
 12  2  2  0
 12  6  1  0
 12  8  1  0
M  END
>  <ID>  (1) 
conformer_0

$$$$
