
     RDKit          3D

 12 13  0  0  0  0  0  0  0  0999 V2000
   -1.3791   76.5108    5.8789 C   0  0  0  0  0  0  0  0  0  0  0  0
   -2.4178   77.0439    6.6064 C   0  0  0  0  0  0  0  0  0  0  0  0
   -5.1506   74.2881    4.1127 C   0  0  0  0  0  0  0  0  0  0  0  0
    0.1367   77.3536    7.4848 C   0  0  0  0  0  0  0  0  0  0  0  0
   -0.1208   76.6780    6.2012 C   0  0  0  0  0  0  0  0  0  0  0  0
   -4.2211   75.9485    5.0356 N   0  0  0  0  0  0  0  0  0  0  0  0
   -3.8110   77.0639    5.8108 C   0  0  0  0  0  0  0  0  0  0  0  0
   -4.2720   74.5285    5.2869 C   0  0  0  0  0  0  0  0  0  0  0  0
   -5.0981   75.8505    3.4747 N   0  0  0  0  0  0  0  0  0  0  0  0
   -2.0003   77.7557    7.8182 C   0  0  0  0  0  0  0  0  0  0  0  0
   -0.7500   77.8194    8.2021 C   0  0  0  0  0  0  0  0  0  0  0  0
   -4.8326   76.1169    4.0373 C   0  0  0  0  0  0  0  0  0  0  0  0
  2  1  2  0
  5  1  1  0
  5  4  2  0
  7  2  1  0
  7  6  1  0
  8  3  2  0
  8  6  1  0
  9  3  1  0
 10  2  1  0
 11  4  1  0
 11 10  2  0
 12  6  1  0
 12  9  1  0
M  END
>  <ID>  (1) 
conformer_0

$$$$
