
     RDKit          3D

 12 13  0  0  0  0  0  0  0  0999 V2000
   -2.4447   76.8456    7.3327 C   0  0  0  0  0  0  0  0  0  0  0  0
   -1.5292   77.9817    7.8300 C   0  0  0  0  0  0  0  0  0  0  0  0
   -5.0923   76.1627    3.9567 C   0  0  0  0  0  0  0  0  0  0  0  0
   -0.3209   77.4954    7.8971 C   0  0  0  0  0  0  0  0  0  0  0  0
   -4.3616   76.0604    5.0243 N   0  0  0  0  0  0  0  0  0  0  0  0
   -5.3065   75.2964    3.6611 N   0  0  0  0  0  0  0  0  0  0  0  0
   -3.9792   77.0980    5.6927 C   0  0  0  0  0  0  0  0  0  0  0  0
   -2.1902   76.5705    6.0151 C   0  0  0  0  0  0  0  0  0  0  0  0
   -4.8897   74.0044    4.1438 C   0  0  0  0  0  0  0  0  0  0  0  0
   -0.7321   76.3121    5.9824 C   0  0  0  0  0  0  0  0  0  0  0  0
   -0.1208   77.7588    6.2994 C   0  0  0  0  0  0  0  0  0  0  0  0
   -4.0079   74.8358    5.0805 C   0  0  0  0  0  0  0  0  0  0  0  0
  2  1  2  0
  4  2  1  0
  5  3  1  0
  6  3  2  0
  7  5  1  0
  8  1  1  0
  8  7  1  0
  9  6  1  0
 10  8  2  0
 11  4  2  0
 11 10  1  0
 12  5  1  0
 12  9  2  0
M  END
>  <ID>  (1) 
conformer_0

$$$$
