
     RDKit          3D

 12 13  0  0  0  0  0  0  0  0999 V2000
   -0.5759   77.8010    8.0237 C   0  0  0  0  0  0  0  0  0  0  0  0
    0.0596   77.0503    7.0854 C   0  0  0  0  0  0  0  0  0  0  0  0
   -3.5543   74.8011    5.2296 C   0  0  0  0  0  0  0  0  0  0  0  0
   -4.0613   76.2112    5.2296 N   0  0  0  0  0  0  0  0  0  0  0  0
   -1.7951   78.2066    7.5624 C   0  0  0  0  0  0  0  0  0  0  0  0
   -2.6083   77.2792    6.7813 C   0  0  0  0  0  0  0  0  0  0  0  0
   -4.7468   75.4340    3.6620 N   0  0  0  0  0  0  0  0  0  0  0  0
   -4.5762   74.7309    4.0122 C   0  0  0  0  0  0  0  0  0  0  0  0
   -3.8729   77.4269    5.9647 C   0  0  0  0  0  0  0  0  0  0  0  0
   -1.8841   76.2287    6.2155 C   0  0  0  0  0  0  0  0  0  0  0  0
   -0.6455   75.9067    6.5451 C   0  0  0  0  0  0  0  0  0  0  0  0
   -4.9326   76.6338    4.2662 C   0  0  0  0  0  0  0  0  0  0  0  0
  2  1  2  0
  4  3  1  0
  5  1  1  0
  6  5  2  0
  8  3  2  0
  8  7  1  0
  9  4  1  0
  9  6  1  0
 10  6  1  0
 11  2  1  0
 11 10  2  0
 12  4  1  0
 12  7  2  0
M  END
>  <ID>  (1) 
conformer_0

$$$$
