
     RDKit          3D

 12 13  0  0  0  0  0  0  0  0999 V2000
   -1.5400   76.5219    6.0571 C   0  0  0  0  0  0  0  0  0  0  0  0
   -4.5542   76.3323    4.1648 C   0  0  0  0  0  0  0  0  0  0  0  0
   -1.8509   77.8823    8.0042 C   0  0  0  0  0  0  0  0  0  0  0  0
   -0.4465   77.5931    8.2575 C   0  0  0  0  0  0  0  0  0  0  0  0
   -4.1646   76.1480    5.1913 N   0  0  0  0  0  0  0  0  0  0  0  0
   -5.0260   75.8524    3.5544 N   0  0  0  0  0  0  0  0  0  0  0  0
   -2.4938   77.0936    6.8833 C   0  0  0  0  0  0  0  0  0  0  0  0
   -4.0925   74.5779    5.3125 C   0  0  0  0  0  0  0  0  0  0  0  0
   -3.7553   77.1471    6.0465 C   0  0  0  0  0  0  0  0  0  0  0  0
    0.0360   77.8547    7.1240 C   0  0  0  0  0  0  0  0  0  0  0  0
   -4.9982   74.3389    4.0898 C   0  0  0  0  0  0  0  0  0  0  0  0
   -0.2453   76.5992    6.2141 C   0  0  0  0  0  0  0  0  0  0  0  0
  4  3  2  0
  5  2  1  0
  6  2  1  0
  7  1  2  0
  7  3  1  0
  8  5  1  0
  9  5  1  0
  9  7  1  0
 10  4  1  0
 11  6  1  0
 11  8  2  0
 12  1  1  0
 12 10  2  0
M  END
>  <ID>  (1) 
conformer_0

$$$$
