
     RDKit          3D

 13 14  0  0  0  0  0  0  0  0999 V2000
   -1.0696   77.7535    8.2488 C   0  0  0  0  0  0  0  0  0  0  0  0
   -2.0606   76.8345    6.2534 C   0  0  0  0  0  0  0  0  0  0  0  0
   -4.6629   76.4329    4.0629 C   0  0  0  0  0  0  0  0  0  0  0  0
   -0.7952   76.4367    5.8406 C   0  0  0  0  0  0  0  0  0  0  0  0
   -4.1538   76.3419    5.1091 N   0  0  0  0  0  0  0  0  0  0  0  0
   -5.0322   76.3178    3.7823 N   0  0  0  0  0  0  0  0  0  0  0  0
    0.0795   77.2178    7.9389 C   0  0  0  0  0  0  0  0  0  0  0  0
   -4.8344   74.2761    4.1959 C   0  0  0  0  0  0  0  0  0  0  0  0
   -3.9244   77.1391    6.2053 C   0  0  2  0  0  0  0  0  0  0  0  0
    0.2273   76.7408    6.5596 C   0  0  0  0  0  0  0  0  0  0  0  0
   -3.3790   78.1010    7.1683 C   0  0  0  0  0  0  0  0  0  0  0  0
   -3.7681   74.7939    5.1052 C   0  0  0  0  0  0  0  0  0  0  0  0
   -2.1178   77.4972    7.4506 C   0  0  0  0  0  0  0  0  0  0  0  0
  4  2  1  0
  5  3  1  0
  6  3  2  3
  7  1  2  0
  9  2  1  0
  9  5  1  6
 10  4  2  0
 10  7  1  0
 11  9  1  0
 12  5  1  0
 12  8  1  0
 13  1  1  0
 13  2  2  0
 13 11  1  0
M  END
>  <ID>  (1) 
conformer_0

$$$$
