
     RDKit          3D

 12 13  0  0  0  0  0  0  0  0999 V2000
    0.5241   77.6168    6.8228 C   0  0  0  0  0  0  0  0  0  0  0  0
   -0.1497   77.9373    8.0277 C   0  0  0  0  0  0  0  0  0  0  0  0
   -5.1595   76.0975    3.9637 C   0  0  0  0  0  0  0  0  0  0  0  0
   -2.2050   77.2464    7.0066 C   0  0  0  0  0  0  0  0  0  0  0  0
   -4.2186   76.2395    5.0201 N   0  0  0  0  0  0  0  0  0  0  0  0
   -3.6026   77.2295    5.7732 C   0  0  0  0  0  0  0  0  0  0  0  0
   -1.3934   77.8261    8.0957 C   0  0  0  0  0  0  0  0  0  0  0  0
   -4.0219   74.8126    5.1723 C   0  0  0  0  0  0  0  0  0  0  0  0
   -5.3825   74.7729    3.9686 N   0  0  0  0  0  0  0  0  0  0  0  0
   -1.4553   76.5579    6.0352 C   0  0  0  0  0  0  0  0  0  0  0  0
   -0.1196   76.7558    5.9828 C   0  0  0  0  0  0  0  0  0  0  0  0
   -5.1128   74.2249    4.0609 C   0  0  0  0  0  0  0  0  0  0  0  0
  2  1  2  0
  5  3  1  0
  6  4  1  0
  6  5  1  0
  7  2  1  0
  7  4  2  0
  8  5  1  0
  9  3  2  0
 10  4  1  0
 11  1  1  0
 11 10  2  0
 12  8  2  0
 12  9  1  0
M  END
>  <ID>  (1) 
conformer_0

$$$$
