
     RDKit          3D

 12 13  0  0  0  0  0  0  0  0999 V2000
   -0.0948   76.9948    6.0841 C   0  0  0  0  0  0  0  0  0  0  0  0
   -1.2710   76.4696    5.9986 C   0  0  0  0  0  0  0  0  0  0  0  0
   -5.0796   75.8243    3.6986 C   0  0  0  0  0  0  0  0  0  0  0  0
    0.0504   77.7453    7.3013 C   0  0  0  0  0  0  0  0  0  0  0  0
   -4.4359   76.2067    4.9827 N   0  0  0  0  0  0  0  0  0  0  0  0
   -0.7981   77.8283    8.2367 C   0  0  0  0  0  0  0  0  0  0  0  0
   -3.9062   77.1894    5.8836 C   0  0  0  0  0  0  0  0  0  0  0  0
   -4.8188   75.5054    3.3458 N   0  0  0  0  0  0  0  0  0  0  0  0
   -5.0432   74.1769    4.5743 C   0  0  0  0  0  0  0  0  0  0  0  0
   -2.4705   76.9784    6.6156 C   0  0  0  0  0  0  0  0  0  0  0  0
   -2.0717   77.6848    7.8119 C   0  0  0  0  0  0  0  0  0  0  0  0
   -3.8494   75.2123    5.0220 C   0  0  0  0  0  0  0  0  0  0  0  0
  2  1  2  0
  4  1  1  0
  5  3  1  0
  6  4  2  0
  7  5  1  0
  8  3  2  3
  9  3  1  0
 10  2  1  0
 10  7  1  0
 11  6  1  0
 11 10  2  0
 12  5  1  0
 12  9  1  0
M  END
>  <ID>  (1) 
conformer_0

$$$$
