
     RDKit          3D

 11 11  0  0  0  0  0  0  0  0999 V2000
   -2.0427   76.8097    6.3855 C   0  0  0  0  0  0  0  0  0  0  0  0
   -0.8523   76.0416    6.1585 C   0  0  0  0  0  0  0  0  0  0  0  0
   -4.7551   76.2153    4.0762 C   0  0  0  0  0  0  0  0  0  0  0  0
    0.1967   76.8111    6.2832 C   0  0  0  0  0  0  0  0  0  0  0  0
   -4.2417   76.4633    5.3813 N   0  0  0  0  0  0  0  0  0  0  0  0
   -3.8893   77.2139    6.2450 C   0  0  0  0  0  0  0  0  0  0  0  0
   -5.4014   76.0120    3.7187 N   0  0  0  0  0  0  0  0  0  0  0  0
   -1.9822   77.5486    7.4956 C   0  0  0  0  0  0  0  0  0  0  0  0
   -4.3922   74.6988    4.6058 C   0  0  0  0  0  0  0  0  0  0  0  0
    0.2373   77.2886    7.7655 C   0  0  0  0  0  0  0  0  0  0  0  0
   -0.8352   77.8358    8.2034 C   0  0  0  0  0  0  0  0  0  0  0  0
  2  1  2  0
  4  2  1  0
  5  3  1  0
  6  1  1  0
  6  5  1  0
  7  3  2  3
  8  1  1  0
  9  3  1  0
 10  4  2  0
 11  8  2  0
 11 10  1  0
M  END
>  <ID>  (1) 
conformer_0

$$$$
