
     RDKit          3D

 13 15  0  0  0  0  0  0  0  0999 V2000
   -2.3585   77.1740    6.7522 C   0  0  0  0  0  0  0  0  0  0  0  0
   -1.7245   77.7700    7.9397 C   0  0  0  0  0  0  0  0  0  0  0  0
   -4.3947   74.8513    4.5193 C   0  0  0  0  0  0  0  0  0  0  0  0
   -0.5047   77.6126    8.2509 C   0  0  0  0  0  0  0  0  0  0  0  0
   -0.1918   76.3738    6.1680 C   0  0  0  0  0  0  0  0  0  0  0  0
   -3.5796   77.3460    5.9323 C   0  0  0  0  0  0  0  0  0  0  0  0
   -4.3033   76.3718    5.2733 N   0  0  0  0  0  0  0  0  0  0  0  0
   -4.6948   76.6658    4.5519 C   0  0  0  0  0  0  0  0  0  0  0  0
   -5.2811   76.1934    4.0218 N   0  0  0  0  0  0  0  0  0  0  0  0
   -1.4740   76.5564    5.9417 C   0  0  0  0  0  0  0  0  0  0  0  0
   -5.2457   73.8834    4.2232 N   0  0  0  0  0  0  0  0  0  0  0  0
   -5.7461   75.2667    3.7289 C   0  0  0  0  0  0  0  0  0  0  0  0
    0.3298   76.8499    7.4270 C   0  0  0  0  0  0  0  0  0  0  0  0
  2  1  2  0
  4  2  1  0
  6  1  1  0
  7  6  1  0
  8  3  1  0
  8  7  1  0
  9  8  2  0
 10  1  1  0
 10  5  2  0
 11  3  1  0
 12  3  2  0
 12  9  1  0
 12 11  1  0
 13  4  2  0
 13  5  1  0
M  END
>  <ID>  (1) 
conformer_0

$$$$
