
     RDKit          3D

 12 12  0  0  0  0  0  0  0  0999 V2000
   -1.9784   76.4254    6.0403 C   0  0  0  0  0  0  0  0  0  0  0  0
   -0.5643   76.2719    6.0540 C   0  0  0  0  0  0  0  0  0  0  0  0
   -3.6507   74.5782    4.9128 C   0  0  0  0  0  0  0  0  0  0  0  0
    0.0533   77.2087    6.7342 C   0  0  0  0  0  0  0  0  0  0  0  0
   -4.3905   75.8103    4.9512 N   0  0  0  0  0  0  0  0  0  0  0  0
   -2.6317   77.1792    6.8817 C   0  0  0  0  0  0  0  0  0  0  0  0
   -3.9561   77.0569    5.8748 C   0  0  0  0  0  0  0  0  0  0  0  0
   -5.0164   76.0627    4.0111 C   0  0  0  0  0  0  0  0  0  0  0  0
   -5.1806   75.7024    3.7961 N   0  0  0  0  0  0  0  0  0  0  0  0
   -1.9471   77.9285    7.8027 C   0  0  0  0  0  0  0  0  0  0  0  0
   -0.4721   77.9537    7.7149 C   0  0  0  0  0  0  0  0  0  0  0  0
   -4.7788   74.0578    4.0895 C   0  0  0  0  0  0  0  0  0  0  0  0
  2  1  2  0
  4  2  1  0
  6  1  1  0
  7  3  1  0
  7  6  1  0
  8  5  1  0
  9  8  2  3
 10  6  2  0
 11  4  2  0
 11 10  1  0
 12  3  1  0
 12  9  1  0
M  END
>  <ID>  (1) 
conformer_0

$$$$
