
     RDKit          3D

 11 12  0  0  0  0  0  0  0  0999 V2000
   -1.2699   76.5375    6.0433 C   0  0  0  0  0  0  0  0  0  0  0  0
    0.3421   77.4799    7.4753 C   0  0  0  0  0  0  0  0  0  0  0  0
   -4.7902   75.5771    4.1076 C   0  0  0  0  0  0  0  0  0  0  0  0
    0.0673   76.7552    6.2779 C   0  0  0  0  0  0  0  0  0  0  0  0
   -4.0168   76.2972    5.0616 N   0  0  0  0  0  0  0  0  0  0  0  0
   -5.0756   75.6361    3.3237 N   0  0  0  0  0  0  0  0  0  0  0  0
   -3.7314   77.3678    5.9253 C   0  0  0  0  0  0  0  0  0  0  0  0
   -0.5233   77.8111    8.2224 C   0  0  0  0  0  0  0  0  0  0  0  0
   -4.5333   74.6131    5.0270 C   0  0  0  0  0  0  0  0  0  0  0  0
   -1.7791   77.8013    7.9316 C   0  0  0  0  0  0  0  0  0  0  0  0
   -2.3180   77.1955    6.7398 C   0  0  0  0  0  0  0  0  0  0  0  0
  4  1  2  0
  4  2  1  0
  5  3  1  0
  6  3  2  3
  7  5  1  0
  8  2  2  0
  9  3  1  0
  9  5  1  0
 10  8  1  0
 11  1  1  0
 11  7  1  0
 11 10  2  0
M  END
>  <ID>  (1) 
conformer_0

$$$$
