
     RDKit          3D

 10 10  0  0  0  0  0  0  0  0999 V2000
   -2.2638   77.4451    7.4724 C   0  0  0  0  0  0  0  0  0  0  0  0
   -1.0418   77.7276    8.1797 C   0  0  0  0  0  0  0  0  0  0  0  0
   -4.6733   75.9513    4.2573 C   0  0  0  0  0  0  0  0  0  0  0  0
   -0.0550   77.2961    7.3884 C   0  0  0  0  0  0  0  0  0  0  0  0
   -4.2303   76.3129    5.0619 N   0  0  0  0  0  0  0  0  0  0  0  0
   -0.5452   76.6120    6.0680 C   0  0  0  0  0  0  0  0  0  0  0  0
   -4.8827   75.7086    3.5185 N   0  0  0  0  0  0  0  0  0  0  0  0
   -3.8930   77.2242    5.9589 C   0  0  0  0  0  0  0  0  0  0  0  0
   -4.3028   74.5509    4.5141 C   0  0  0  0  0  0  0  0  0  0  0  0
   -1.9722   76.6814    6.1498 C   0  0  0  0  0  0  0  0  0  0  0  0
  2  1  2  0
  4  2  1  0
  5  3  1  0
  6  4  2  0
  7  3  2  3
  8  5  1  0
  9  3  1  0
 10  1  1  0
 10  6  1  0
 10  8  1  0
M  END
>  <ID>  (1) 
conformer_0

$$$$
