
     RDKit          3D

 13 13  0  0  0  0  0  0  0  0999 V2000
   -1.8853   77.8189    7.6159 C   0  0  0  0  0  0  0  0  0  0  0  0
   -2.4018   77.0439    6.3871 C   0  0  0  0  0  0  0  0  0  0  0  0
   -4.9173   75.9729    3.8069 C   0  0  0  0  0  0  0  0  0  0  0  0
   -4.4680   76.4083    5.1434 N   0  0  0  0  0  0  0  0  0  0  0  0
    0.2924   77.3146    7.4993 C   0  0  0  0  0  0  0  0  0  0  0  0
   -1.2286   76.5357    5.7887 C   0  0  0  0  0  0  0  0  0  0  0  0
   -4.2829   77.5007    5.9563 C   0  0  0  0  0  0  0  0  0  0  0  0
   -4.6990   74.1875    4.7613 C   0  0  0  0  0  0  0  0  0  0  0  0
   -4.8493   75.7462    3.2788 N   0  0  0  0  0  0  0  0  0  0  0  0
   -0.7815   77.6816    8.2060 C   0  0  0  0  0  0  0  0  0  0  0  0
   -5.2670   74.1261    4.5972 N   0  0  0  0  0  0  0  0  0  0  0  0
   -3.8069   75.5039    5.2854 C   0  0  0  0  0  0  0  0  0  0  0  0
    0.0455   76.8501    6.0832 C   0  0  0  0  0  0  0  0  0  0  0  0
  2  1  2  0
  4  3  1  0
  6  2  1  0
  7  2  1  0
  7  4  1  0
  9  3  2  3
 10  1  1  0
 10  5  2  0
 11  8  1  0
 12  4  1  0
 12  8  2  3
 13  5  1  0
 13  6  2  0
M  END
>  <ID>  (1) 
conformer_0

$$$$
