
     RDKit          3D

 12 13  0  0  0  0  0  0  0  0999 V2000
   -4.6330   76.1938    4.1320 C   0  0  0  0  0  0  0  0  0  0  0  0
    0.0173   76.8440    6.3736 C   0  0  0  0  0  0  0  0  0  0  0  0
   -0.9751   77.9187    8.1966 C   0  0  0  0  0  0  0  0  0  0  0  0
    0.0276   77.4011    7.7773 C   0  0  0  0  0  0  0  0  0  0  0  0
   -4.3026   76.0197    5.3580 N   0  0  0  0  0  0  0  0  0  0  0  0
   -1.0376   76.2160    6.0409 C   0  0  0  0  0  0  0  0  0  0  0  0
   -4.0575   76.9385    6.2569 C   0  0  0  0  0  0  0  0  0  0  0  0
   -4.6286   76.0606    3.3271 N   0  0  0  0  0  0  0  0  0  0  0  0
   -4.1716   74.6985    5.2141 C   0  0  0  0  0  0  0  0  0  0  0  0
   -2.2473   77.6460    7.5962 C   0  0  0  0  0  0  0  0  0  0  0  0
   -2.2831   76.8319    6.4701 C   0  0  0  0  0  0  0  0  0  0  0  0
   -5.1415   74.6563    3.7671 C   0  0  0  0  0  0  0  0  0  0  0  0
  4  2  2  0
  4  3  1  0
  5  1  1  0
  6  2  1  0
  7  5  1  0
  8  1  1  0
  9  5  1  0
 10  3  2  0
 11  6  2  0
 11  7  1  0
 11 10  1  0
 12  8  1  0
 12  9  1  0
M  END
>  <ID>  (1) 
conformer_0

$$$$
