
     RDKit          3D

 12 13  0  0  0  0  0  0  0  0999 V2000
   -0.1573   77.6492    7.6585 C   0  0  0  0  0  0  0  0  0  0  0  0
    0.1684   76.9782    6.3815 C   0  0  0  0  0  0  0  0  0  0  0  0
   -4.7849   76.4329    3.9012 C   0  0  0  0  0  0  0  0  0  0  0  0
   -4.2458   76.2928    5.4117 N   0  0  0  0  0  0  0  0  0  0  0  0
   -2.4083   77.2747    7.1642 C   0  0  0  0  0  0  0  0  0  0  0  0
   -4.9010   75.3767    3.5705 N   0  0  0  0  0  0  0  0  0  0  0  0
   -0.6913   76.0067    6.0555 C   0  0  0  0  0  0  0  0  0  0  0  0
   -4.3631   77.4820    6.3374 C   0  0  0  0  0  0  0  0  0  0  0  0
   -4.2934   75.2000    5.5408 C   0  0  0  0  0  0  0  0  0  0  0  0
   -1.3580   77.9894    7.8823 C   0  0  0  0  0  0  0  0  0  0  0  0
   -4.6848   74.4483    4.1050 C   0  0  0  0  0  0  0  0  0  0  0  0
   -2.0344   76.3738    6.1606 C   0  0  0  0  0  0  0  0  0  0  0  0
  2  1  2  0
  4  3  1  0
  6  3  2  0
  7  2  1  0
  8  4  1  0
  8  5  1  0
  9  4  1  0
 10  1  1  0
 10  5  2  0
 11  6  1  0
 11  9  2  0
 12  5  1  0
 12  7  2  0
M  END
>  <ID>  (1) 
conformer_0

$$$$
