
     RDKit          3D

 12 13  0  0  0  0  0  0  0  0999 V2000
   -2.4177   76.7934    6.9656 C   0  0  0  0  0  0  0  0  0  0  0  0
   -1.5647   76.7516    5.8982 C   0  0  0  0  0  0  0  0  0  0  0  0
   -4.4716   76.3683    4.4400 C   0  0  0  0  0  0  0  0  0  0  0  0
   -1.6517   77.9037    7.8982 C   0  0  0  0  0  0  0  0  0  0  0  0
   -4.1045   76.1065    5.4654 N   0  0  0  0  0  0  0  0  0  0  0  0
   -4.9276   76.0737    3.6431 N   0  0  0  0  0  0  0  0  0  0  0  0
   -3.9303   77.1005    6.4686 C   0  0  0  0  0  0  0  0  0  0  0  0
   -0.2704   76.3601    6.2209 C   0  0  0  0  0  0  0  0  0  0  0  0
   -4.9060   74.6529    3.7518 C   0  0  0  0  0  0  0  0  0  0  0  0
    0.0951   77.6954    7.0692 C   0  0  0  0  0  0  0  0  0  0  0  0
   -4.2049   74.4382    5.1749 C   0  0  0  0  0  0  0  0  0  0  0  0
   -0.3268   77.2530    8.2720 C   0  0  0  0  0  0  0  0  0  0  0  0
  2  1  2  0
  4  1  1  0
  5  3  1  0
  6  3  1  0
  7  1  1  0
  7  5  1  0
  8  2  1  0
  9  6  1  0
 10  8  2  0
 11  5  1  0
 11  9  2  0
 12  4  2  0
 12 10  1  0
M  END
>  <ID>  (1) 
conformer_0

$$$$
