
     RDKit          3D

 12 13  0  0  0  0  0  0  0  0999 V2000
   -0.0712   76.5411    6.3061 C   0  0  0  0  0  0  0  0  0  0  0  0
   -2.1830   77.7554    7.5088 C   0  0  0  0  0  0  0  0  0  0  0  0
   -4.8695   76.4283    3.9564 C   0  0  0  0  0  0  0  0  0  0  0  0
   -4.0306   76.3543    5.3899 N   0  0  0  0  0  0  0  0  0  0  0  0
   -0.0178   77.0691    7.6212 C   0  0  0  0  0  0  0  0  0  0  0  0
   -0.9149   77.9999    8.0405 C   0  0  0  0  0  0  0  0  0  0  0  0
   -4.5743   75.6256    3.6503 N   0  0  0  0  0  0  0  0  0  0  0  0
   -3.8777   77.7048    6.3269 C   0  0  0  0  0  0  0  0  0  0  0  0
   -4.8306   74.4666    4.1662 C   0  0  0  0  0  0  0  0  0  0  0  0
   -1.2677   75.9711    6.1802 C   0  0  0  0  0  0  0  0  0  0  0  0
   -2.3849   76.9846    6.4127 C   0  0  0  0  0  0  0  0  0  0  0  0
   -3.6397   75.4588    5.1152 C   0  0  0  0  0  0  0  0  0  0  0  0
  4  3  1  0
  5  1  2  0
  6  2  2  0
  6  5  1  0
  7  3  1  0
  8  4  1  0
  9  7  1  0
 10  1  1  0
 11  2  1  0
 11  8  1  0
 11 10  2  0
 12  4  1  0
 12  7  1  0
M  END
>  <ID>  (1) 
conformer_0

$$$$
