
     RDKit          3D

 12 14  0  0  0  0  0  0  0  0999 V2000
   -0.2599   76.9861    7.8454 C   0  0  0  0  0  0  0  0  0  0  0  0
   -2.4811   77.3069    7.4441 C   0  0  0  0  0  0  0  0  0  0  0  0
   -4.7132   76.2017    3.9151 C   0  0  0  0  0  0  0  0  0  0  0  0
   -4.2214   76.0211    5.2406 N   0  0  0  0  0  0  0  0  0  0  0  0
   -1.2400   78.0691    7.8671 C   0  0  0  0  0  0  0  0  0  0  0  0
   -4.0375   76.9768    6.3265 C   0  0  0  0  0  0  0  0  0  0  0  0
   -5.2110   74.5081    3.6610 C   0  0  0  0  0  0  0  0  0  0  0  0
   -0.1109   76.9681    6.1987 C   0  0  0  0  0  0  0  0  0  0  0  0
   -4.9440   75.8010    3.3209 N   0  0  0  0  0  0  0  0  0  0  0  0
   -2.2617   76.8035    6.1157 C   0  0  0  0  0  0  0  0  0  0  0  0
   -4.3040   74.5925    4.9107 C   0  0  0  0  0  0  0  0  0  0  0  0
   -0.9816   75.9476    6.1155 C   0  0  0  0  0  0  0  0  0  0  0  0
  4  3  1  0
  5  1  2  0
  5  2  1  0
  6  4  1  0
  8  1  1  0
  9  3  1  0
  9  7  1  0
 10  2  2  0
 10  6  1  0
 11  3  1  0
 11  4  1  0
 11  7  1  0
 12  8  2  0
 12 10  1  0
M  END
>  <ID>  (1) 
conformer_0

$$$$
