
     RDKit          3D

 13 14  0  0  0  0  0  0  0  0999 V2000
   -0.6832   77.8365    8.0303 C   0  0  0  0  0  0  0  0  0  0  0  0
   -1.4252   76.1391    5.9798 C   0  0  0  0  0  0  0  0  0  0  0  0
   -3.9010   74.7787    5.0151 C   0  0  0  0  0  0  0  0  0  0  0  0
   -2.4710   76.9499    6.5734 C   0  0  0  0  0  0  0  0  0  0  0  0
   -4.0762   76.3462    5.1426 N   0  0  0  0  0  0  0  0  0  0  0  0
   -5.1456   76.0731    3.5490 N   0  0  0  0  0  0  0  0  0  0  0  0
   -0.2335   76.4082    6.0559 C   0  0  0  0  0  0  0  0  0  0  0  0
   -3.7568   77.5817    6.1216 C   0  0  0  0  0  0  0  0  0  0  0  0
   -4.4389   73.9973    4.5792 C   0  0  0  0  0  0  0  0  0  0  0  0
   -1.9726   77.7810    7.6498 C   0  0  0  0  0  0  0  0  0  0  0  0
   -4.7091   76.6756    4.4512 C   0  0  0  0  0  0  0  0  0  0  0  0
   -5.2693   74.7115    3.8802 C   0  0  0  0  0  0  0  0  0  0  0  0
    0.1133   77.3203    7.1239 C   0  0  0  0  0  0  0  0  0  0  0  0
  4  2  2  0
  5  3  1  0
  7  2  1  0
  8  4  1  0
  8  5  1  0
  9  3  2  0
 10  1  2  0
 10  4  1  0
 11  5  1  0
 11  6  1  0
 12  6  1  0
 12  9  1  0
 13  1  1  0
 13  7  2  0
M  END
>  <ID>  (1) 
conformer_0

$$$$
