
     RDKit          3D

 10 10  0  0  0  0  0  0  0  0999 V2000
   -0.0210   77.0477    6.3495 C   0  0  0  0  0  0  0  0  0  0  0  0
   -0.3374   77.9138    7.5153 C   0  0  0  0  0  0  0  0  0  0  0  0
   -4.2658   74.4403    4.7077 C   0  0  0  0  0  0  0  0  0  0  0  0
   -1.1478   76.3182    6.0062 C   0  0  0  0  0  0  0  0  0  0  0  0
   -4.1645   75.9665    5.3397 N   0  0  0  0  0  0  0  0  0  0  0  0
   -3.9772   76.7739    6.4135 C   0  0  0  0  0  0  0  0  0  0  0  0
   -5.0220   75.6840    3.7200 N   0  0  0  0  0  0  0  0  0  0  0  0
   -1.6963   77.8820    7.7674 C   0  0  0  0  0  0  0  0  0  0  0  0
   -2.3591   76.8698    6.7822 C   0  0  0  0  0  0  0  0  0  0  0  0
   -4.6281   75.9671    4.1945 C   0  0  0  0  0  0  0  0  0  0  0  0
  2  1  2  0
  4  1  1  0
  6  5  1  0
  8  2  1  0
  9  4  1  0
  9  6  1  0
  9  8  2  0
 10  3  1  0
 10  5  1  0
 10  7  2  3
M  END
>  <ID>  (1) 
conformer_0

$$$$
