
     RDKit          3D

 11 12  0  0  0  0  0  0  0  0999 V2000
   -1.4122   76.9650    5.9271 C   0  0  0  0  0  0  0  0  0  0  0  0
    0.1354   77.6852    6.9577 C   0  0  0  0  0  0  0  0  0  0  0  0
   -4.8326   75.7536    4.0242 C   0  0  0  0  0  0  0  0  0  0  0  0
   -1.3519   78.0036    7.9420 C   0  0  0  0  0  0  0  0  0  0  0  0
   -3.7153   77.1603    6.0787 C   0  0  0  0  0  0  0  0  0  0  0  0
   -4.2370   76.2675    5.1646 N   0  0  0  0  0  0  0  0  0  0  0  0
   -5.1071   76.1442    3.5808 N   0  0  0  0  0  0  0  0  0  0  0  0
   -2.3939   77.0740    6.9327 C   0  0  0  0  0  0  0  0  0  0  0  0
   -4.6066   74.6306    4.3626 C   0  0  0  0  0  0  0  0  0  0  0  0
   -0.7299   75.9387    6.9354 C   0  0  0  0  0  0  0  0  0  0  0  0
   -0.0828   77.1362    8.2483 C   0  0  0  0  0  0  0  0  0  0  0  0
  4  2  1  0
  6  3  1  0
  6  5  1  0
  7  3  2  3
  8  1  2  0
  8  4  1  0
  8  5  1  0
  9  3  1  0
 10  1  1  0
 11  2  1  0
 11  4  2  0
 11 10  1  0
M  END
>  <ID>  (1) 
conformer_0

$$$$
