
     RDKit          3D

 12 13  0  0  0  0  0  0  0  0999 V2000
   -0.0526   76.3423    6.3608 C   0  0  0  0  0  0  0  0  0  0  0  0
    0.2706   77.2089    7.4187 C   0  0  0  0  0  0  0  0  0  0  0  0
   -4.7897   76.4924    3.9464 C   0  0  0  0  0  0  0  0  0  0  0  0
   -4.1584   76.1876    5.1093 N   0  0  0  0  0  0  0  0  0  0  0  0
   -1.3247   76.0964    6.0485 C   0  0  0  0  0  0  0  0  0  0  0  0
   -0.6410   77.9048    8.1098 C   0  0  0  0  0  0  0  0  0  0  0  0
   -4.1325   74.8791    5.3384 C   0  0  0  0  0  0  0  0  0  0  0  0
   -3.7048   77.1422    6.1372 C   0  0  0  0  0  0  0  0  0  0  0  0
   -5.0365   75.3074    3.5473 N   0  0  0  0  0  0  0  0  0  0  0  0
   -1.9544   77.7401    7.7308 C   0  0  0  0  0  0  0  0  0  0  0  0
   -2.3301   76.8138    6.6489 C   0  0  0  0  0  0  0  0  0  0  0  0
   -4.9236   74.5460    4.0845 C   0  0  0  0  0  0  0  0  0  0  0  0
  2  1  2  0
  4  3  1  0
  5  1  1  0
  6  2  1  0
  7  4  1  0
  8  4  1  0
  9  3  2  0
 10  6  2  0
 11  5  2  0
 11  8  1  0
 11 10  1  0
 12  7  2  0
 12  9  1  0
M  END
>  <ID>  (1) 
conformer_0

$$$$
