
     RDKit          3D

 12 13  0  0  0  0  0  0  0  0999 V2000
    0.2191   76.9497    6.8476 C   0  0  0  0  0  0  0  0  0  0  0  0
   -0.0979   77.7780    7.9026 C   0  0  0  0  0  0  0  0  0  0  0  0
   -4.7124   76.1771    3.8269 C   0  0  0  0  0  0  0  0  0  0  0  0
   -4.0667   76.2815    5.4905 N   0  0  0  0  0  0  0  0  0  0  0  0
   -1.2974   78.3248    7.8763 C   0  0  0  0  0  0  0  0  0  0  0  0
   -2.3339   77.5611    7.2118 C   0  0  0  0  0  0  0  0  0  0  0  0
   -4.9587   75.9015    3.4177 N   0  0  0  0  0  0  0  0  0  0  0  0
   -4.1612   75.2258    5.4750 C   0  0  0  0  0  0  0  0  0  0  0  0
   -3.6813   77.1049    6.2602 C   0  0  0  0  0  0  0  0  0  0  0  0
   -0.6397   75.9414    6.5219 C   0  0  0  0  0  0  0  0  0  0  0  0
   -1.8541   76.3526    6.4728 C   0  0  0  0  0  0  0  0  0  0  0  0
   -4.7492   74.4874    4.1259 C   0  0  0  0  0  0  0  0  0  0  0  0
  2  1  2  0
  4  3  1  0
  5  2  1  0
  6  5  2  0
  7  3  2  0
  8  4  1  0
  9  4  1  0
  9  6  1  0
 10  1  1  0
 11  6  1  0
 11 10  2  0
 12  7  1  0
 12  8  2  0
M  END
>  <ID>  (1) 
conformer_0

$$$$
