
     RDKit          3D

 13 15  0  0  0  0  0  0  0  0999 V2000
   -2.2554   77.1902    6.5149 C   0  0  0  0  0  0  0  0  0  0  0  0
   -1.8079   77.8452    7.8772 C   0  0  0  0  0  0  0  0  0  0  0  0
   -5.0219   76.2054    4.0349 C   0  0  0  0  0  0  0  0  0  0  0  0
    0.0510   77.1895    8.0193 C   0  0  0  0  0  0  0  0  0  0  0  0
   -4.3684   77.4198    5.9225 C   0  0  0  0  0  0  0  0  0  0  0  0
   -4.4228   75.9261    4.8720 N   0  0  0  0  0  0  0  0  0  0  0  0
   -5.3842   76.1168    3.4661 N   0  0  0  0  0  0  0  0  0  0  0  0
   -0.3573   76.1191    6.7961 C   0  0  0  0  0  0  0  0  0  0  0  0
   -5.3543   74.4010    3.7943 C   0  0  0  0  0  0  0  0  0  0  0  0
   -1.5307   76.0441    6.4547 C   0  0  0  0  0  0  0  0  0  0  0  0
   -4.3350   74.3676    5.0128 C   0  0  0  0  0  0  0  0  0  0  0  0
   -3.0373   76.0552    5.5342 C   0  0  0  0  0  0  0  0  0  0  0  0
   -0.4962   78.2977    7.6745 C   0  0  0  0  0  0  0  0  0  0  0  0
  2  1  2  0
  6  3  1  0
  7  3  1  0
  8  4  1  0
  9  7  1  0
 10  1  1  0
 10  8  2  0
 11  6  1  0
 11  9  2  0
 12  1  1  0
 12  5  1  0
 12  6  1  0
 12 10  1  0
 13  2  1  0
 13  4  2  0
M  END
>  <ID>  (1) 
conformer_0

$$$$
