
     RDKit          3D

 12 12  0  0  0  0  0  0  0  0999 V2000
    0.1523   77.2402    7.6658 C   0  0  0  0  0  0  0  0  0  0  0  0
   -2.1426   76.7310    6.2983 C   0  0  0  0  0  0  0  0  0  0  0  0
   -4.4692   76.3522    4.5483 C   0  0  0  0  0  0  0  0  0  0  0  0
    0.0581   76.3560    6.5151 C   0  0  0  0  0  0  0  0  0  0  0  0
   -4.1780   76.1936    5.2913 N   0  0  0  0  0  0  0  0  0  0  0  0
   -5.1101   76.4519    3.9552 N   0  0  0  0  0  0  0  0  0  0  0  0
   -3.7623   77.3474    6.2396 C   0  0  0  0  0  0  0  0  0  0  0  0
   -1.1219   75.7411    6.4459 C   0  0  0  0  0  0  0  0  0  0  0  0
   -3.9983   74.4405    4.8625 C   0  0  0  0  0  0  0  0  0  0  0  0
   -2.1135   77.5342    7.3989 C   0  0  0  0  0  0  0  0  0  0  0  0
   -5.2870   74.8308    3.5812 C   0  0  0  0  0  0  0  0  0  0  0  0
   -0.8953   77.9336    8.0962 C   0  0  0  0  0  0  0  0  0  0  0  0
  4  1  2  0
  5  3  1  0
  6  3  1  0
  7  2  1  0
  7  5  1  0
  8  2  2  0
  8  4  1  0
 10  2  1  0
 11  6  1  0
 11  9  1  0
 12  1  1  0
 12 10  2  0
M  END
>  <ID>  (1) 
conformer_0

$$$$
