
     RDKit          3D

 10 10  0  0  0  0  0  0  0  0999 V2000
   -1.6260   76.2348    6.2198 C   0  0  0  0  0  0  0  0  0  0  0  0
   -0.3133   76.1826    6.6795 C   0  0  0  0  0  0  0  0  0  0  0  0
   -4.5542   75.9895    4.4041 C   0  0  0  0  0  0  0  0  0  0  0  0
   -0.0731   77.3477    7.6818 C   0  0  0  0  0  0  0  0  0  0  0  0
   -2.3548   77.2918    6.8958 C   0  0  0  0  0  0  0  0  0  0  0  0
   -3.6534   77.5065    5.9017 C   0  0  0  0  0  0  0  0  0  0  0  0
   -4.0153   76.2484    5.1132 N   0  0  0  0  0  0  0  0  0  0  0  0
   -4.3528   74.6786    4.3575 C   0  0  0  0  0  0  0  0  0  0  0  0
   -4.7880   75.6834    3.6653 N   0  0  0  0  0  0  0  0  0  0  0  0
   -1.2910   77.9478    7.8983 C   0  0  0  0  0  0  0  0  0  0  0  0
  2  1  2  0
  4  2  1  0
  5  1  1  0
  6  5  1  0
  7  3  1  0
  7  6  1  0
  8  3  1  0
  9  3  2  3
 10  4  2  0
 10  5  1  0
M  END
>  <ID>  (1) 
conformer_0

$$$$
