
     RDKit          3D

 18 19  0  0  0  0  0  0  0  0999 V2000
  -24.7209   17.3925  -30.8170 C   0  0  0  0  0  0  0  0  0  0  0  0
  -21.2542   17.8449  -28.2547 C   0  0  0  0  0  0  0  0  0  0  0  0
  -16.9852   16.5569  -25.8805 C   0  0  0  0  0  0  0  0  0  0  0  0
  -23.4687   17.7036  -31.0062 C   0  0  0  0  0  0  0  0  0  0  0  0
  -20.3143   16.8482  -28.7595 C   0  0  0  0  0  0  0  0  0  0  0  0
  -17.1971   17.6570  -23.9909 C   0  0  0  0  0  0  0  0  0  0  0  0
  -21.1090   16.7211  -29.9610 N   0  0  0  0  0  0  0  0  0  0  0  0
  -18.1226   17.2437  -25.7933 N   0  0  0  0  0  0  0  0  0  0  0  0
  -19.6271   15.7975  -29.4616 O   0  0  0  0  0  0  0  0  0  0  0  0
  -20.9572   18.7378  -26.4866 O   0  0  0  0  0  0  0  0  0  0  0  0
  -17.7380   15.7931  -27.2916 C   0  0  0  0  0  0  0  0  0  0  0  0
  -18.8524   16.8662  -27.2071 C   0  0  0  0  0  0  0  0  0  0  0  0
  -20.7276   16.0723  -31.3302 C   0  0  0  0  0  0  0  0  0  0  0  0
  -22.4361   17.9841  -29.1054 C   0  0  0  0  0  0  0  0  0  0  0  0
  -21.0059   18.5155  -27.1519 C   0  0  0  0  0  0  0  0  0  0  0  0
  -22.1318   17.1058  -30.1145 C   0  0  0  0  0  0  0  0  0  0  0  0
  -25.4639   17.9995  -31.7132 C   0  0  0  0  0  0  0  0  0  0  0  0
  -18.5914   18.0328  -25.3745 C   0  0  0  0  0  0  0  0  0  0  0  0
  4  1  1  0
  5  2  1  0
  7  5  1  0
  8  3  1  0
  9  5  1  0
 11  3  1  0
 12  5  1  0
 12  8  1  0
 12 11  1  0
 13  7  1  0
 14  2  1  0
 15  2  2  0
 15 10  2  0
 16  4  1  0
 16  7  1  0
 16 14  2  0
 17  1  1  0
 18  6  1  0
 18  8  1  0
M  END
>  <ID>  (1) 
conformer_0

$$$$
