
     RDKit          3D

 20 20  0  0  0  0  0  0  0  0999 V2000
  -18.0767   16.9767  -26.9759 C   0  0  0  0  0  0  0  0  0  0  0  0
  -21.0053   17.8299  -27.7921 C   0  0  0  0  0  0  0  0  0  0  0  0
  -17.3660   16.8038  -26.1247 C   0  0  0  0  0  0  0  0  0  0  0  0
  -23.1273   18.1836  -31.0344 C   0  0  0  0  0  0  0  0  0  0  0  0
  -20.5240   17.0145  -28.4619 C   0  0  0  0  0  0  0  0  0  0  0  0
  -20.9673   16.7370  -29.8069 N   0  0  0  0  0  0  0  0  0  0  0  0
  -22.1196   18.9974  -26.3577 O   0  0  0  0  0  0  0  0  0  0  0  0
  -20.9516   16.3249  -31.1903 C   0  0  0  0  0  0  0  0  0  0  0  0
  -17.3064   17.5731  -24.1656 C   0  0  0  0  0  0  0  0  0  0  0  0
  -19.1490   15.6615  -28.8823 O   0  0  0  0  0  0  0  0  0  0  0  0
  -18.8982   15.6314  -28.3175 C   0  0  0  0  0  0  0  0  0  0  0  0
  -18.1466   17.4604  -25.2355 N   0  0  0  0  0  0  0  0  0  0  0  0
  -24.9044   17.8690  -31.4157 C   0  0  0  0  0  0  0  0  0  0  0  0
  -20.0791   18.2026  -25.7376 O   0  0  0  0  0  0  0  0  0  0  0  0
  -19.1738   17.7672  -25.3396 C   0  0  0  0  0  0  0  0  0  0  0  0
  -22.1307   17.6292  -29.8061 C   0  0  0  0  0  0  0  0  0  0  0  0
  -25.0268   18.4684  -31.9435 C   0  0  0  0  0  0  0  0  0  0  0  0
  -22.4295   18.1850  -28.8909 C   0  0  0  0  0  0  0  0  0  0  0  0
  -21.1356   18.3908  -26.6886 C   0  0  0  0  0  0  0  0  0  0  0  0
  -18.3424   15.3638  -27.1815 C   0  0  0  0  0  0  0  0  0  0  0  0
  3  1  1  0
  5  2  2  0
  6  5  1  0
  8  6  1  0
 11 10  1  0
 12  3  1  0
 12  9  1  0
 13  4  1  0
 15 12  1  0
 15 14  1  0
 16  4  1  0
 16  6  1  0
 17 13  1  0
 18  2  1  0
 18 16  2  0
 19  2  1  0
 19  7  2  0
 19 14  1  0
 20  1  1  0
 20 11  1  0
M  END
>  <ID>  (1) 
conformer_0

$$$$
