
     RDKit          3D

 19 19  0  0  0  0  0  0  0  0999 V2000
  -24.0470   18.1713  -31.0170 C   0  0  0  0  0  0  0  0  0  0  0  0
  -20.9091   17.7918  -27.9275 C   0  0  0  0  0  0  0  0  0  0  0  0
  -17.0178   17.3583  -24.4961 C   0  0  0  0  0  0  0  0  0  0  0  0
  -22.1062   17.1840  -29.7869 C   0  0  0  0  0  0  0  0  0  0  0  0
  -20.7769   16.5097  -29.5962 N   0  0  0  0  0  0  0  0  0  0  0  0
  -18.6338   16.6920  -27.0803 C   0  0  0  0  0  0  0  0  0  0  0  0
  -20.3891   18.8823  -25.9188 O   0  0  0  0  0  0  0  0  0  0  0  0
  -25.1205   17.3452  -29.5821 O   0  0  0  0  0  0  0  0  0  0  0  0
  -25.7355   17.4987  -32.2642 O   0  0  0  0  0  0  0  0  0  0  0  0
  -18.0089   17.5954  -25.3226 N   0  0  0  0  0  0  0  0  0  0  0  0
  -25.0745   17.5911  -31.1333 C   0  0  0  0  0  0  0  0  0  0  0  0
  -18.4931   17.6756  -25.4326 C   0  0  0  0  0  0  0  0  0  0  0  0
  -18.9743   15.9416  -29.0282 O   0  0  0  0  0  0  0  0  0  0  0  0
  -20.9277   18.4662  -26.7872 C   0  0  0  0  0  0  0  0  0  0  0  0
  -20.0862   15.6177  -30.4219 C   0  0  0  0  0  0  0  0  0  0  0  0
  -20.2976   16.8554  -28.6853 C   0  0  0  0  0  0  0  0  0  0  0  0
  -22.2721   17.9327  -28.7343 C   0  0  0  0  0  0  0  0  0  0  0  0
  -22.9850   17.2116  -30.6981 C   0  0  0  0  0  0  0  0  0  0  0  0
  -18.4281   16.3149  -27.4170 C   0  0  0  0  0  0  0  0  0  0  0  0
  5  4  1  0
 10  3  2  3
 11  1  1  0
 11  8  2  0
 11  9  1  0
 12  6  1  0
 12 10  1  0
 14  2  1  0
 14  7  2  0
 15  5  1  0
 16  2  2  0
 16  5  1  0
 16 13  1  0
 17  2  1  0
 17  4  2  0
 18  1  1  0
 18  4  1  0
 19  6  2  3
 19 13  1  0
M  END
>  <ID>  (1) 
conformer_0

$$$$
