
     RDKit          3D

 18 18  0  0  0  0  0  0  0  0999 V2000
  -22.4412   18.0061  -28.7217 C   0  0  0  0  0  0  0  0  0  0  0  0
  -17.3122   17.2293  -25.3318 C   0  0  0  0  0  0  0  0  0  0  0  0
  -23.6755   17.6662  -30.8761 C   0  0  0  0  0  0  0  0  0  0  0  0
  -21.2870   16.6237  -30.1704 N   0  0  0  0  0  0  0  0  0  0  0  0
  -20.4678   16.6811  -29.0371 C   0  0  0  0  0  0  0  0  0  0  0  0
  -19.2174   15.7192  -29.1118 O   0  0  0  0  0  0  0  0  0  0  0  0
  -18.8083   16.4559  -27.1944 C   0  0  0  0  0  0  0  0  0  0  0  0
  -20.8939   16.1235  -31.5127 C   0  0  0  0  0  0  0  0  0  0  0  0
  -25.6812   17.3720  -31.9630 O   0  0  0  0  0  0  0  0  0  0  0  0
  -24.7303   17.4801  -31.1920 C   0  0  0  0  0  0  0  0  0  0  0  0
  -18.8636   17.3098  -26.3075 C   0  0  0  0  0  0  0  0  0  0  0  0
  -20.4978   18.3500  -25.8900 O   0  0  0  0  0  0  0  0  0  0  0  0
  -21.4953   18.8422  -26.8380 C   0  0  0  0  0  0  0  0  0  0  0  0
  -17.2008   17.6526  -25.2723 N   0  0  0  0  0  0  0  0  0  0  0  0
  -21.1106   17.7684  -28.0352 C   0  0  0  0  0  0  0  0  0  0  0  0
  -22.1374   19.3123  -26.5248 N   0  0  0  0  0  0  0  0  0  0  0  0
  -22.4080   17.2975  -29.8282 C   0  0  0  0  0  0  0  0  0  0  0  0
  -18.9468   17.5688  -25.9181 N   0  0  0  0  0  0  0  0  0  0  0  0
  5  4  1  0
  6  5  1  0
  7  6  1  0
  8  4  1  0
 10  3  1  0
 10  9  1  0
 11  7  1  0
 13 12  2  0
 14  2  1  0
 15  1  1  0
 15  5  2  0
 15 13  1  0
 16 13  1  0
 17  1  2  0
 17  3  1  0
 17  4  1  0
 18  2  1  0
 18 11  1  0
M  END
>  <ID>  (1) 
conformer_0

$$$$
