
     RDKit          3D

 14 14  0  0  0  0  0  0  0  0999 V2000
  -22.9546   17.5850  -30.9304 C   0  0  0  0  0  0  0  0  0  0  0  0
  -21.1111   17.8794  -28.0491 C   0  0  0  0  0  0  0  0  0  0  0  0
  -18.8477   17.1744  -26.2032 C   0  0  0  0  0  0  0  0  0  0  0  0
  -20.3442   16.8668  -28.7835 C   0  0  0  0  0  0  0  0  0  0  0  0
  -18.6055   16.4260  -27.1268 C   0  0  0  0  0  0  0  0  0  0  0  0
  -20.4482   18.0844  -25.8769 O   0  0  0  0  0  0  0  0  0  0  0  0
  -23.4369   18.9687  -27.2114 O   0  0  0  0  0  0  0  0  0  0  0  0
  -20.5574   16.4735  -29.8427 N   0  0  0  0  0  0  0  0  0  0  0  0
  -21.6220   18.6501  -26.9851 C   0  0  2  0  0  0  0  0  0  0  0  0
  -19.8967   15.6705  -30.7533 C   0  0  0  0  0  0  0  0  0  0  0  0
  -17.6779   17.5305  -24.4000 C   0  0  0  0  0  0  0  0  0  0  0  0
  -24.0520   18.1933  -31.2044 C   0  0  0  0  0  0  0  0  0  0  0  0
  -21.9117   17.3529  -30.0387 C   0  0  0  0  0  0  0  0  0  0  0  0
  -22.1247   18.0570  -28.9925 C   0  0  0  0  0  0  0  0  0  0  0  0
  4  2  2  0
  5  3  2  3
  6  3  1  0
  8  4  1  0
  9  2  1  0
  9  6  1  0
  9  7  1  1
 10  8  1  0
 11  3  1  0
 12  1  2  3
 13  1  1  0
 13  8  1  0
 14  2  1  0
 14 13  2  0
M  END
>  <ID>  (1) 
conformer_0

$$$$
