
     RDKit          3D

 19 19  0  0  0  0  0  0  0  0999 V2000
  -24.4481   18.2147  -30.8439 C   0  0  0  0  0  0  0  0  0  0  0  0
  -17.1730   17.3656  -24.5445 C   0  0  0  0  0  0  0  0  0  0  0  0
  -20.9948   17.9481  -28.2007 C   0  0  0  0  0  0  0  0  0  0  0  0
  -22.4139   17.6529  -29.8093 C   0  0  0  0  0  0  0  0  0  0  0  0
  -21.2622   18.9731  -26.0456 O   0  0  0  0  0  0  0  0  0  0  0  0
  -18.1485   15.8366  -26.8964 C   0  0  0  0  0  0  0  0  0  0  0  0
  -21.1386   16.6516  -29.9825 N   0  0  0  0  0  0  0  0  0  0  0  0
  -18.3585   17.9121  -25.3352 C   0  0  0  0  0  0  0  0  0  0  0  0
  -18.9296   15.4761  -28.8079 O   0  0  0  0  0  0  0  0  0  0  0  0
  -19.0656   15.2712  -29.5706 C   0  0  0  0  0  0  0  0  0  0  0  0
  -25.7269   17.8547  -32.5629 O   0  0  0  0  0  0  0  0  0  0  0  0
  -23.5452   17.8293  -31.1094 C   0  0  0  0  0  0  0  0  0  0  0  0
  -18.5159   17.6829  -25.7342 N   0  0  0  0  0  0  0  0  0  0  0  0
  -20.5618   18.3433  -26.8334 C   0  0  0  0  0  0  0  0  0  0  0  0
  -18.4182   16.4143  -26.8099 C   0  0  0  0  0  0  0  0  0  0  0  0
  -20.6048   17.0120  -28.8513 C   0  0  0  0  0  0  0  0  0  0  0  0
  -25.1728   17.7379  -31.8655 C   0  0  0  0  0  0  0  0  0  0  0  0
  -21.0313   16.2205  -31.2089 C   0  0  0  0  0  0  0  0  0  0  0  0
  -22.3179   18.3716  -28.7581 C   0  0  0  0  0  0  0  0  0  0  0  0
  7  4  1  0
  8  2  1  0
  9  6  1  0
 10  9  1  0
 12  1  1  0
 12  4  1  0
 13  8  2  3
 14  3  1  0
 14  5  2  0
 15  6  1  0
 15 13  1  0
 16  3  2  0
 16  7  1  0
 17  1  1  0
 17 11  1  0
 18  7  1  0
 18 10  1  0
 19  3  1  0
 19  4  2  0
M  END
>  <ID>  (1) 
conformer_0

$$$$
