
     RDKit          3D

 18 18  0  0  0  0  0  0  0  0999 V2000
  -22.2125   18.0830  -28.7209 C   0  0  0  0  0  0  0  0  0  0  0  0
  -23.3714   17.6255  -30.7056 C   0  0  0  0  0  0  0  0  0  0  0  0
  -17.2575   16.9871  -25.0557 C   0  0  0  0  0  0  0  0  0  0  0  0
  -22.1911   17.3615  -29.8030 C   0  0  0  0  0  0  0  0  0  0  0  0
  -20.8689   16.5435  -29.9822 N   0  0  0  0  0  0  0  0  0  0  0  0
  -18.1765   16.1925  -26.9512 C   0  0  0  0  0  0  0  0  0  0  0  0
  -20.6463   18.4617  -25.4084 O   0  0  0  0  0  0  0  0  0  0  0  0
  -18.9686   17.9892  -25.5936 C   0  0  0  0  0  0  0  0  0  0  0  0
  -25.7829   17.1200  -32.2437 O   0  0  0  0  0  0  0  0  0  0  0  0
  -20.0836   15.8256  -30.9863 C   0  0  0  0  0  0  0  0  0  0  0  0
  -19.4805   15.4204  -28.7972 O   0  0  0  0  0  0  0  0  0  0  0  0
  -25.0204   17.6555  -31.1628 C   0  0  0  0  0  0  0  0  0  0  0  0
  -21.3148   18.7903  -26.8050 C   0  0  0  0  0  0  0  0  0  0  0  0
  -18.6971   17.5771  -25.8131 N   0  0  0  0  0  0  0  0  0  0  0  0
  -20.5606   16.8205  -28.7302 C   0  0  0  0  0  0  0  0  0  0  0  0
  -20.8803   17.8584  -27.7800 C   0  0  0  0  0  0  0  0  0  0  0  0
  -18.7824   16.6010  -27.1463 C   0  0  0  0  0  0  0  0  0  0  0  0
  -24.3074   18.4573  -31.7910 C   0  0  0  0  0  0  0  0  0  0  0  0
  4  1  2  0
  4  2  1  0
  5  4  1  0
  8  7  1  0
 10  5  1  0
 12  9  1  0
 13  7  1  0
 14  3  1  0
 14  8  1  0
 15  5  1  0
 15 11  2  0
 16  1  1  0
 16 13  1  0
 16 15  1  0
 17  6  1  0
 17 14  1  0
 18  2  1  0
 18 12  1  0
M  END
>  <ID>  (1) 
conformer_0

$$$$
