
     RDKit          3D

 19 21  0  0  0  0  0  0  0  0999 V2000
  -24.0697   18.4476  -31.6279 C   0  0  0  0  0  0  0  0  0  0  0  0
  -21.1535   17.7479  -28.0684 C   0  0  0  0  0  0  0  0  0  0  0  0
  -17.5693   17.8003  -24.4837 C   0  0  0  0  0  0  0  0  0  0  0  0
  -20.3319   16.8312  -28.6748 C   0  0  0  0  0  0  0  0  0  0  0  0
  -21.0436   18.6591  -25.9701 O   0  0  0  0  0  0  0  0  0  0  0  0
  -20.8848   16.5115  -29.6956 N   0  0  0  0  0  0  0  0  0  0  0  0
  -17.8839   16.8482  -26.0298 C   0  0  0  0  0  0  0  0  0  0  0  0
  -18.5937   16.1163  -27.0705 C   0  0  0  0  0  0  0  0  0  0  0  0
  -25.0277   17.7352  -31.3709 C   0  0  0  0  0  0  0  0  0  0  0  0
  -25.7697   17.3444  -32.4008 O   0  0  0  0  0  0  0  0  0  0  0  0
  -20.3525   17.7643  -26.4517 C   0  0  0  0  0  0  0  0  0  0  0  0
  -19.1346   15.8208  -29.0109 O   0  0  0  0  0  0  0  0  0  0  0  0
  -25.4838   18.0394  -29.8510 O   0  0  0  0  0  0  0  0  0  0  0  0
  -18.4693   17.4370  -25.6906 N   0  0  0  0  0  0  0  0  0  0  0  0
  -19.4575   15.4675  -30.1693 C   0  0  0  0  0  0  0  0  0  0  0  0
  -16.6528   17.8347  -24.5406 O   0  0  0  0  0  0  0  0  0  0  0  0
  -22.2976   18.0262  -28.9573 C   0  0  0  0  0  0  0  0  0  0  0  0
  -22.0585   17.2643  -30.1105 C   0  0  0  0  0  0  0  0  0  0  0  0
  -23.2147   17.8635  -30.6412 C   0  0  0  0  0  0  0  0  0  0  0  0
  4  2  2  0
  6  4  1  0
  8  7  1  0
  9  1  1  0
 10  9  1  0
 11  2  1  0
 11  5  2  0
 11  8  1  0
 12  4  1  0
 13  9  2  0
 14  3  1  0
 14  7  1  0
 15  6  1  0
 15 12  1  0
 16  3  2  0
 17  2  1  0
 18  6  1  0
 18 17  2  0
 19  1  1  0
 19 17  1  0
 19 18  1  0
M  END
>  <ID>  (1) 
conformer_0

$$$$
