
     RDKit          3D

 17 17  0  0  0  0  0  0  0  0999 V2000
  -16.8719   17.1184  -24.9928 C   0  0  0  0  0  0  0  0  0  0  0  0
  -23.6262   17.9354  -30.8018 C   0  0  0  0  0  0  0  0  0  0  0  0
  -20.4803   16.9706  -28.3705 C   0  0  0  0  0  0  0  0  0  0  0  0
  -21.7612   17.8894  -28.5600 C   0  0  2  0  0  0  0  0  0  0  0  0
  -20.5737   15.4321  -31.1227 C   0  0  0  0  0  0  0  0  0  0  0  0
  -21.0418   16.3559  -29.9197 N   0  0  0  0  0  0  0  0  0  0  0  0
  -17.9253   16.0263  -26.9734 C   0  0  0  0  0  0  0  0  0  0  0  0
  -25.7509   17.5716  -31.6334 O   0  0  0  0  0  0  0  0  0  0  0  0
  -20.8561   18.8531  -25.9759 O   0  0  0  0  0  0  0  0  0  0  0  0
  -19.3697   15.5194  -29.0836 O   0  0  0  0  0  0  0  0  0  0  0  0
  -18.4730   16.7582  -26.8705 C   0  0  0  0  0  0  0  0  0  0  0  0
  -24.7083   18.3314  -30.7266 C   0  0  0  0  0  0  0  0  0  0  0  0
  -21.9435   17.0232  -29.7826 C   0  0  2  0  0  0  0  0  0  0  0  0
  -18.3854   17.5668  -25.9230 N   0  0  0  0  0  0  0  0  0  0  0  0
  -20.3082   18.4480  -26.7367 C   0  0  0  0  0  0  0  0  0  0  0  0
  -22.8849   18.8502  -28.1950 C   0  0  0  0  0  0  0  0  0  0  0  0
  -18.2460   18.1492  -25.2597 C   0  0  0  0  0  0  0  0  0  0  0  0
  4  3  1  0
  6  3  1  0
  6  5  1  0
 10  3  2  0
 11  7  2  3
 12  2  1  0
 12  8  1  0
 13  2  1  6
 13  4  1  0
 13  6  1  0
 14 11  1  0
 15  4  1  0
 15  9  2  0
  4 16  1  1
 17  1  1  0
 17 14  1  0
 17 15  1  0
M  END
>  <ID>  (1) 
conformer_0

$$$$
