
     RDKit          3D

 14 13  0  0  0  0  0  0  0  0999 V2000
  -24.6622   18.1853  -31.6869 C   0  0  0  0  0  0  0  0  0  0  0  0
  -18.0384   16.3884  -26.6188 C   0  0  0  0  0  0  0  0  0  0  0  0
  -20.2867   18.1371  -26.1491 C   0  0  0  0  0  0  0  0  0  0  0  0
  -21.8814   17.8969  -28.7463 C   0  0  0  0  0  0  0  0  0  0  0  0
  -21.0917   17.0413  -29.1070 C   0  0  0  0  0  0  0  0  0  0  0  0
  -17.6759   17.5026  -24.9070 C   0  0  0  0  0  0  0  0  0  0  0  0
  -19.0023   15.4271  -28.9014 O   0  0  0  0  0  0  0  0  0  0  0  0
  -22.6432   18.7579  -27.1642 O   0  0  0  0  0  0  0  0  0  0  0  0
  -20.8175   16.6361  -29.6114 N   0  0  0  0  0  0  0  0  0  0  0  0
  -18.8883   16.4936  -27.1954 C   0  0  2  0  0  0  0  0  0  0  0  0
  -25.1428   17.9580  -31.0529 C   0  0  0  0  0  0  0  0  0  0  0  0
  -26.1874   17.2677  -32.1715 O   0  0  0  0  0  0  0  0  0  0  0  0
  -20.6762   16.1801  -30.9528 C   0  0  0  0  0  0  0  0  0  0  0  0
  -23.2599   17.6673  -30.9580 C   0  0  0  0  0  0  0  0  0  0  0  0
  5  4  1  0
  6  2  1  0
  8  4  1  0
  9  5  2  3
 10  2  1  0
 10  3  1  1
 10  5  1  0
 10  7  1  0
 11  1  1  0
 12 11  1  0
 13  9  1  0
 14  1  1  0
 14  4  2  3
M  END
>  <ID>  (1) 
conformer_0

$$$$
