
     RDKit          3D

 19 19  0  0  0  0  0  0  0  0999 V2000
  -21.0489   17.4733  -27.9954 C   0  0  0  0  0  0  0  0  0  0  0  0
  -19.3144   17.8095  -25.7821 C   0  0  0  0  0  0  0  0  0  0  0  0
  -20.6219   16.6567  -29.1642 C   0  0  0  0  0  0  0  0  0  0  0  0
  -21.1443   16.7127  -30.2240 N   0  0  0  0  0  0  0  0  0  0  0  0
  -23.7624   17.8333  -30.8740 C   0  0  0  0  0  0  0  0  0  0  0  0
  -18.7724   16.3197  -27.1653 C   0  0  0  0  0  0  0  0  0  0  0  0
  -17.1768   17.6193  -24.0527 C   0  0  0  0  0  0  0  0  0  0  0  0
  -24.5447   17.7848  -31.3883 C   0  0  0  0  0  0  0  0  0  0  0  0
  -21.0959   19.0224  -26.3671 O   0  0  0  0  0  0  0  0  0  0  0  0
  -25.6142   17.5327  -32.2345 O   0  0  0  0  0  0  0  0  0  0  0  0
  -23.3499   18.5421  -27.4702 O   0  0  0  0  0  0  0  0  0  0  0  0
  -18.5499   17.4520  -25.7081 N   0  0  0  0  0  0  0  0  0  0  0  0
  -21.4685   18.4533  -26.9837 C   0  0  0  0  0  0  0  0  0  0  0  0
  -21.0598   16.5106  -31.3071 C   0  0  0  0  0  0  0  0  0  0  0  0
  -19.4122   15.8257  -29.1716 O   0  0  0  0  0  0  0  0  0  0  0  0
  -22.2525   17.7610  -28.7280 C   0  0  0  0  0  0  0  0  0  0  0  0
  -22.5697   17.4296  -29.7395 C   0  0  0  0  0  0  0  0  0  0  0  0
  -19.0880   16.4257  -27.7573 C   0  0  0  0  0  0  0  0  0  0  0  0
  -17.4093   16.8463  -25.7329 C   0  0  0  0  0  0  0  0  0  0  0  0
  3  1  2  0
  4  3  1  0
  8  5  3  0
 10  8  1  0
 12  2  1  0
 12  6  1  0
 13  1  1  0
 13  9  2  0
 14  4  1  0
 15  3  1  0
 16  1  1  0
 16 11  1  0
 17  4  1  0
 17  5  1  0
 17 16  2  0
 18  6  2  3
 18 15  1  0
 19  7  1  0
 19 12  1  0
M  END
>  <ID>  (1) 
conformer_0

$$$$
