
     RDKit          3D

 19 19  0  0  0  0  0  0  0  0999 V2000
  -21.2935   17.8671  -27.9879 C   0  0  0  0  0  0  0  0  0  0  0  0
  -17.1510   17.4920  -24.4272 C   0  0  0  0  0  0  0  0  0  0  0  0
  -23.9893   18.3128  -30.5590 C   0  0  0  0  0  0  0  0  0  0  0  0
  -21.9356   17.2513  -30.0397 C   0  0  0  0  0  0  0  0  0  0  0  0
  -18.0598   16.3287  -26.9915 C   0  0  0  0  0  0  0  0  0  0  0  0
  -24.6560   17.8654  -30.9178 C   0  0  0  0  0  0  0  0  0  0  0  0
  -25.6558   17.4030  -31.8494 O   0  0  0  0  0  0  0  0  0  0  0  0
  -18.1110   16.8843  -26.5251 C   0  0  0  0  0  0  0  0  0  0  0  0
  -20.4263   18.2535  -25.3940 O   0  0  0  0  0  0  0  0  0  0  0  0
  -20.9868   16.6650  -30.0516 N   0  0  0  0  0  0  0  0  0  0  0  0
  -18.6425   17.7190  -25.6382 N   0  0  0  0  0  0  0  0  0  0  0  0
  -19.3069   15.8506  -29.2166 O   0  0  0  0  0  0  0  0  0  0  0  0
  -20.7440   16.0116  -31.3164 C   0  0  0  0  0  0  0  0  0  0  0  0
  -22.2930   17.9666  -28.7450 C   0  0  0  0  0  0  0  0  0  0  0  0
  -20.7139   18.0448  -26.5699 C   0  0  0  0  0  0  0  0  0  0  0  0
  -20.3944   16.8857  -28.6729 C   0  0  0  0  0  0  0  0  0  0  0  0
  -18.8223   15.5523  -29.5454 C   0  0  0  0  0  0  0  0  0  0  0  0
  -18.9815   17.8779  -24.9567 C   0  0  0  0  0  0  0  0  0  0  0  0
  -22.9672   17.2918  -31.0616 C   0  0  0  0  0  0  0  0  0  0  0  0
  6  3  1  0
  7  6  1  0
  8  5  3  0
 10  4  1  0
 11  8  1  0
 13 10  1  0
 14  1  1  0
 14  4  2  0
 15  1  1  0
 15  9  1  0
 16  1  2  0
 16 10  1  0
 16 12  1  0
 17 12  1  0
 18  2  1  0
 18  9  1  0
 18 11  1  0
 19  3  1  0
 19  4  1  0
M  END
>  <ID>  (1) 
conformer_0

$$$$
