
     RDKit          3D

 22 23  0  0  0  0  0  0  0  0999 V2000
  -16.8096   16.9688  -25.1553 C   0  0  0  0  0  0  0  0  0  0  0  0
  -24.6154   18.6661  -30.8642 C   0  0  0  0  0  0  0  0  0  0  0  0
  -22.2683   18.2078  -28.7349 C   0  0  0  0  0  3  0  0  0  0  0  0
  -18.6515   16.3282  -27.0798 C   0  0  0  0  0  0  0  0  0  0  0  0
  -21.1340   16.6874  -29.9571 N   0  0  0  0  0  0  0  0  0  0  0  0
  -20.6433   17.1582  -28.5380 C   0  0  0  0  0  0  0  0  0  0  0  0
  -20.7611   18.8488  -26.0014 O   0  0  0  0  0  0  0  0  0  0  0  0
  -18.4054   16.9830  -26.4081 C   0  0  0  0  0  0  0  0  0  0  0  0
  -25.6510   17.2468  -32.0863 O   0  0  0  0  0  0  0  0  0  0  0  0
  -16.8336   17.4501  -23.6586 O   0  0  0  0  0  0  0  0  0  0  0  0
  -19.2504   15.5383  -29.2445 O   0  0  0  0  0  0  0  0  0  0  0  0
  -21.7602   16.2868  -31.1565 C   0  0  0  0  0  0  0  0  0  0  0  0
  -24.7525   17.8687  -31.4130 C   0  0  0  0  0  0  0  0  0  0  0  0
  -18.8170   17.5993  -25.6429 N   0  0  0  0  0  0  0  0  0  0  0  0
  -23.4679   18.6585  -28.5131 C   0  0  0  0  0  0  0  0  0  0  0  0
  -23.3739   18.0405  -30.9720 C   0  0  0  0  0  0  0  0  0  0  0  0
  -18.2970   17.7289  -24.4980 C   0  0  0  0  0  0  0  0  0  0  0  0
  -23.4222   18.9274  -27.9589 N   0  0  0  0  0  0  0  0  0  0  0  0
  -19.4902   16.1708  -29.5994 C   0  0  0  0  0  0  0  0  0  0  0  0
  -22.2437   17.5660  -29.8668 C   0  0  1  0  0  0  0  0  0  0  0  0
  -20.7841   17.7099  -28.0111 C   0  0  0  0  0  0  0  0  0  0  0  0
  -20.4304   17.9606  -26.4596 C   0  0  0  0  0  0  0  0  0  0  0  0
  6  5  1  0
  8  4  2  3
 10  1  1  0
 12  5  1  0
 13  2  1  0
 13  9  1  0
 14  8  1  0
 15  3  1  0
 16  2  1  0
 17  1  1  0
 17 14  1  0
 18 15  1  0
 19  6  1  0
 19 11  1  0
 20  3  1  0
 20  5  1  0
 20 12  1  0
 20 16  1  6
 21  3  1  0
 21  6  2  0
 22  7  2  0
 22 14  1  0
 22 21  1  0
M  RAD  1   3   2
M  END
>  <ID>  (1) 
conformer_0

$$$$
