
     RDKit          3D

 18 19  0  0  0  0  0  0  0  0999 V2000
  -22.1530   18.0388  -28.8104 C   0  0  0  0  0  0  0  0  0  0  0  0
  -23.6924   17.9613  -31.2290 C   0  0  0  0  0  0  0  0  0  0  0  0
  -17.5802   17.8432  -24.0337 C   0  0  0  0  0  0  0  0  0  0  0  0
  -20.5473   16.7571  -28.8411 C   0  0  0  0  0  0  0  0  0  0  0  0
  -19.4993   18.0476  -25.6501 C   0  0  0  0  0  0  0  0  0  0  0  0
  -21.3573   16.4616  -30.1844 N   0  0  0  0  0  0  0  0  0  0  0  0
  -18.5637   16.4079  -27.1047 C   0  0  0  0  0  0  0  0  0  0  0  0
  -19.2873   15.6435  -29.2752 O   0  0  0  0  0  0  0  0  0  0  0  0
  -18.4935   17.6075  -25.4394 N   0  0  0  0  0  0  0  0  0  0  0  0
  -24.4069   17.4407  -31.1749 C   0  0  0  0  0  0  0  0  0  0  0  0
  -25.4390   17.0627  -31.8563 O   0  0  0  0  0  0  0  0  0  0  0  0
  -21.3265   15.9795  -31.2145 C   0  0  0  0  0  0  0  0  0  0  0  0
  -21.2971   18.7583  -26.6942 C   0  0  0  0  0  0  0  0  0  0  0  0
  -17.7097   17.0192  -25.7817 C   0  0  0  0  0  0  0  0  0  0  0  0
  -21.0764   17.6982  -28.0580 C   0  0  0  0  0  3  0  0  0  0  0  0
  -22.2558   17.4032  -29.8697 C   0  0  0  0  0  0  0  0  0  0  0  0
  -23.3488   18.5855  -29.8858 C   0  0  0  0  0  0  0  0  0  0  0  0
  -19.1496   16.1275  -28.0082 C   0  0  0  0  0  0  0  0  0  0  0  0
  6  4  1  0
  8  4  1  0
  9  3  1  0
  9  5  1  0
 10  2  1  0
 11 10  1  0
 12  6  1  0
 14  7  1  0
 14  9  1  0
 15  1  1  0
 15  4  1  0
 15 13  1  0
 16  1  2  0
 16  6  1  0
 17  2  1  0
 17 16  1  0
 18  4  1  0
 18  7  1  0
 18  8  1  0
M  RAD  1  15   2
M  END
>  <ID>  (1) 
conformer_0

$$$$
