
     RDKit          3D

 19 21  0  0  0  0  0  0  0  0999 V2000
  -20.8110   17.6673  -27.9543 C   0  0  0  0  0  0  0  0  0  0  0  0
  -23.4797   18.0132  -30.9211 C   0  0  0  0  0  0  0  0  0  0  0  0
  -17.3337   17.5505  -24.3483 C   0  0  0  0  0  0  0  0  0  0  0  0
  -18.6831   15.4128  -27.6761 C   0  0  0  0  0  0  0  0  0  0  0  0
  -20.9929   16.4656  -29.8761 N   0  0  0  0  0  0  0  0  0  0  0  0
  -20.4316   16.7604  -28.7639 C   0  0  0  0  0  0  0  0  0  0  0  0
  -24.9283   17.6826  -31.3935 C   0  0  0  0  0  0  0  0  0  0  0  0
  -25.7231   16.9666  -31.7381 O   0  0  0  0  0  0  0  0  0  0  0  0
  -18.3659   18.0844  -24.2240 O   0  0  0  0  0  0  0  0  0  0  0  0
  -19.6762   18.0389  -25.7487 C   0  0  0  0  0  0  0  0  0  0  0  0
  -21.0307   18.8550  -25.9224 O   0  0  0  0  0  0  0  0  0  0  0  0
  -21.2097   15.8493  -31.2013 C   0  0  0  0  0  0  0  0  0  0  0  0
  -18.9015   17.5862  -26.0514 N   0  0  0  0  0  0  0  0  0  0  0  0
  -18.0295   17.0296  -26.3058 C   0  0  0  0  0  0  0  0  0  0  0  0
  -21.6166   18.8084  -27.1091 C   0  0  0  0  0  0  0  0  0  0  0  0
  -19.0806   15.7535  -28.7450 C   0  0  0  0  0  0  0  0  0  0  0  0
  -22.2315   17.4201  -29.9356 C   0  0  0  0  0  0  0  0  0  0  0  0
  -17.3619   16.3722  -26.5825 C   0  0  0  0  0  0  0  0  0  0  0  0
  -22.0290   18.0102  -28.8240 C   0  0  0  0  0  0  0  0  0  0  0  0
  6  1  2  0
  6  5  1  0
  7  2  1  0
  8  7  1  0
  9  3  1  0
 10  9  1  0
 11 10  1  0
 12  5  1  0
 13 10  2  0
 14 13  1  0
 15  1  1  0
 15 11  1  0
 16  4  1  0
 16  6  1  0
 17  2  1  0
 17  5  1  0
 18  4  1  0
 18 14  1  0
 19  1  1  0
 19 15  1  0
 19 17  2  0
M  END
>  <ID>  (1) 
conformer_0

$$$$
