
     RDKit          3D

 15 15  0  0  0  0  0  0  0  0999 V2000
  -24.4397   18.3098  -31.3095 C   0  0  0  0  0  0  0  0  0  0  0  0
  -22.3189   17.9895  -29.1048 C   0  0  0  0  0  0  0  0  0  0  0  0
  -18.3722   16.9154  -26.2533 C   0  0  0  0  0  0  0  0  0  0  0  0
  -20.3260   16.8650  -28.9633 C   0  0  0  0  0  0  0  0  0  0  0  0
  -18.6041   16.2250  -27.1439 C   0  0  0  0  0  0  0  0  0  0  0  0
  -20.8766   16.6475  -29.9622 N   0  0  0  0  0  0  0  0  0  0  0  0
  -18.2555   17.4755  -25.4596 N   0  0  0  0  0  0  0  0  0  0  0  0
  -20.5594   18.6238  -26.1117 O   0  0  0  0  0  0  0  0  0  0  0  0
  -20.4414   15.6999  -31.1616 C   0  0  0  0  0  0  0  0  0  0  0  0
  -19.2771   15.6327  -29.3983 O   0  0  0  0  0  0  0  0  0  0  0  0
  -23.6089   17.9528  -30.8627 C   0  0  0  0  0  0  0  0  0  0  0  0
  -17.9634   17.8227  -24.3544 C   0  0  0  0  0  3  0  0  0  0  0  0
  -20.7516   18.1767  -26.9421 C   0  0  0  0  0  0  0  0  0  0  0  0
  -22.0919   17.3875  -30.1796 C   0  0  0  0  0  0  0  0  0  0  0  0
  -20.9981   17.9004  -28.2013 C   0  0  2  0  0  0  0  0  0  0  0  0
  5  3  2  3
  6  4  1  0
  7  3  1  0
  9  6  1  0
 10  4  2  0
 11  1  3  0
 12  7  2  3
 13  3  1  0
 13  8  2  0
 14  2  2  0
 14  6  1  0
 14 11  1  0
 15  2  1  0
 15  4  1  0
 15 13  1  1
M  RAD  1  12   2
M  END
>  <ID>  (1) 
conformer_0

$$$$
