
     RDKit          3D

 17 17  0  0  0  0  0  0  0  0999 V2000
  -16.9706   17.6592  -24.7501 C   0  0  0  0  0  0  0  0  0  0  0  0
  -22.3388   17.9523  -28.9866 C   0  0  0  0  0  0  0  0  0  0  0  0
  -23.7072   17.7124  -30.8417 C   0  0  0  0  0  0  0  0  0  0  0  0
  -20.4198   16.7669  -28.8518 C   0  0  0  0  0  0  0  0  0  0  0  0
  -21.0844   16.4381  -29.9085 N   0  0  0  0  0  0  0  0  0  0  0  0
  -18.3494   16.1042  -26.9238 C   0  0  0  0  0  0  0  0  0  0  0  0
  -21.2591   19.1323  -26.5047 O   0  0  0  0  0  0  0  0  0  0  0  0
  -18.5538   17.7957  -25.2137 C   0  0  0  0  0  0  0  0  0  0  0  0
  -24.9952   17.6030  -31.2990 C   0  0  0  0  0  0  0  0  0  0  0  0
  -19.1313   15.9281  -29.0533 O   0  0  0  0  0  0  0  0  0  0  0  0
  -25.9181   17.1836  -32.4744 O   0  0  0  0  0  0  0  0  0  0  0  0
  -18.7685   17.8553  -25.8027 N   0  0  0  0  0  0  0  0  0  0  0  0
  -20.2672   15.5599  -31.0018 C   0  0  0  0  0  0  0  0  0  0  0  0
  -20.7686   18.3623  -26.9349 C   0  0  0  0  0  0  0  0  0  0  0  0
  -22.2338   17.2326  -29.9556 C   0  0  0  0  0  0  0  0  0  0  0  0
  -18.8337   16.8709  -27.0196 C   0  0  0  0  0  0  0  0  0  0  0  0
  -21.0281   17.6787  -28.0266 C   0  0  0  0  0  0  0  0  0  0  0  0
  5  4  1  0
  8  1  1  0
  9  3  2  0
 10  4  2  0
 11  9  1  0
 12  8  1  0
 13  5  1  0
 14  7  2  0
 15  2  1  0
 15  3  2  0
 15  5  1  0
 16  6  1  0
 16 12  1  0
 16 14  1  0
 17  2  2  0
 17  4  1  0
 17 14  1  0
M  END
>  <ID>  (1) 
conformer_0

$$$$
