
     RDKit          3D

 11 10  0  0  0  0  0  0  0  0999 V2000
  -23.5929   17.8909  -30.8976 C   0  0  0  0  0  0  0  0  0  0  0  0
  -21.6618   17.9212  -28.4437 C   0  0  0  0  0  0  0  0  0  0  0  0
  -17.4225   17.3899  -24.8556 C   0  0  0  0  0  0  0  0  0  0  0  0
  -21.2188   17.2222  -29.4396 C   0  0  0  0  0  0  0  0  0  0  0  0
  -20.1006   18.2289  -25.7262 O   0  0  0  0  0  0  0  0  0  0  0  0
  -18.6642   15.9683  -26.9431 C   0  0  0  0  0  0  0  0  0  0  0  0
  -24.9702   17.9101  -31.4465 C   0  0  0  0  0  0  0  0  0  0  0  0
  -25.7534   17.2678  -31.8338 O   0  0  0  0  0  0  0  0  0  0  0  0
  -18.6516   17.0361  -26.3515 C   0  0  0  0  0  0  0  0  0  0  0  0
  -20.9417   18.3922  -26.8194 C   0  0  0  0  0  0  0  0  0  0  0  0
  -20.6156   16.8724  -29.5291 N   0  0  0  0  0  0  0  0  0  0  0  0
  4  1  2  0
  4  2  1  0
  7  1  2  0
  8  7  1  0
  9  3  1  0
  9  5  1  0
  9  6  2  3
 10  2  1  0
 10  5  1  0
 11  4  1  0
M  END
>  <ID>  (1) 
conformer_0

$$$$
