
     RDKit          3D

 21 25  0  0  0  0  0  0  0  0999 V2000
  -24.4169   18.2397  -31.4120 C   0  0  0  0  0  0  0  0  0  0  0  0
  -19.6032   17.9603  -24.5594 C   0  0  0  0  0  0  0  0  0  0  0  0
  -22.2810   17.8297  -28.8314 C   0  0  0  0  0  0  0  0  0  0  0  0
  -22.0997   17.5844  -29.8788 C   0  0  0  0  0  0  0  0  0  0  0  0
  -19.3739   16.4216  -27.2658 C   0  0  0  0  0  0  0  0  0  0  0  0
  -18.9546   15.5627  -29.1982 O   0  0  0  0  0  0  0  0  0  0  0  0
  -20.7571   16.6003  -29.5875 N   0  0  0  0  0  0  0  0  0  0  0  0
  -25.8191   17.2909  -32.2949 O   0  0  0  0  0  0  0  0  0  0  0  0
  -17.3979   17.2908  -24.7321 C   0  0  0  0  0  0  0  0  0  0  0  0
  -24.8486   17.6819  -31.3095 C   0  0  0  0  0  0  0  0  0  0  0  0
  -18.2331   17.5407  -26.1569 C   0  0  0  0  0  0  0  0  0  0  0  0
  -20.3178   18.2542  -25.8214 N   0  0  0  0  0  0  0  0  0  0  0  0
  -22.3395   17.5706  -31.4857 C   0  0  0  0  0  0  0  0  0  0  0  0
  -18.8472   17.7052  -25.4578 N   0  0  0  0  0  0  0  0  0  0  0  0
  -20.7678   18.3081  -26.6735 C   0  0  0  0  0  0  0  0  0  0  0  0
  -20.6027   16.9018  -28.7284 C   0  0  0  0  0  0  0  0  0  0  0  0
  -19.0423   16.1437  -27.6573 C   0  0  0  0  0  0  0  0  0  0  0  0
  -23.5401   18.6249  -29.9793 C   0  0  0  0  0  0  0  0  0  0  0  0
  -20.0304   15.6985  -30.5404 C   0  0  0  0  0  0  0  0  0  0  0  0
  -17.3596   15.9697  -26.4923 C   0  0  0  0  0  0  0  0  0  0  0  0
  -21.0743   17.7803  -27.7105 C   0  0  0  0  0  0  0  0  0  0  0  0
  4  3  1  0
  7  4  1  0
 10  1  1  0
 10  8  1  0
 11  5  1  0
 11  9  1  0
 12  2  1  0
 13  4  1  0
 14  2  1  0
 14 11  1  0
 14 12  1  0
 15 12  1  0
 16  3  1  0
 16  5  1  0
 16  7  1  0
 17  5  2  0
 17  6  1  0
 18  1  1  0
 18  4  1  0
 19  6  1  0
 19  7  1  0
 20 11  1  0
 21  3  1  0
 21 15  1  0
 21 16  1  0
M  END
>  <ID>  (1) 
conformer_0

$$$$
