
     RDKit          3D

 15 14  0  0  0  0  0  0  0  0999 V2000
  -23.8477   17.9166  -30.9010 C   0  0  0  0  0  0  0  0  0  0  0  0
  -17.3266   17.8318  -23.9823 C   0  0  0  0  0  0  0  0  0  0  0  0
  -21.3913   17.8146  -28.4083 C   0  0  0  0  0  0  0  0  0  0  0  0
  -20.4453   16.6921  -28.9971 C   0  0  0  0  0  0  0  0  0  0  0  0
  -18.8008   16.1768  -27.0669 C   0  0  0  0  0  0  0  0  0  0  0  0
  -20.7740   16.4300  -29.8990 N   0  0  0  0  0  0  0  0  0  0  0  0
  -18.3372   17.4783  -25.6235 C   0  0  0  0  0  0  0  0  0  0  0  0
  -20.3996   18.5109  -25.9033 O   0  0  0  0  0  0  0  0  0  0  0  0
  -26.0210   17.4941  -32.2759 O   0  0  0  0  0  0  0  0  0  0  0  0
  -25.3794   17.8520  -31.2325 C   0  0  0  0  0  0  0  0  0  0  0  0
  -18.2978   17.7360  -25.3906 N   0  0  0  0  0  0  0  0  0  0  0  0
  -20.2124   15.7686  -31.0952 C   0  0  0  0  0  0  0  0  0  0  0  0
  -22.2714   17.6258  -29.7772 C   0  0  0  0  0  0  0  0  0  0  0  0
  -18.5483   15.8401  -28.1403 C   0  0  0  0  0  0  0  0  0  0  0  0
  -20.4027   18.1900  -26.6197 C   0  0  0  0  0  0  0  0  0  0  0  0
  4  3  2  3
  6  4  1  0
  7  5  1  0
 10  1  1  0
 10  9  1  0
 11  2  1  0
 11  7  1  0
 12  6  1  0
 13  1  1  0
 13  3  1  0
 14  4  1  0
 14  5  1  0
 15  3  1  0
 15  8  2  0
M  END
>  <ID>  (1) 
conformer_0

$$$$
