
     RDKit          3D

 19 20  0  0  0  0  0  0  0  0999 V2000
  -24.2955   17.8736  -30.7113 C   0  0  0  0  0  0  0  0  0  0  0  0
  -19.6113   17.5080  -25.9982 C   0  0  0  0  0  0  0  0  0  0  0  0
  -22.2008   17.9521  -28.9624 C   0  0  0  0  0  0  0  0  0  0  0  0
  -20.3477   16.9651  -28.2232 C   0  0  0  0  0  0  0  0  0  0  0  0
  -20.6738   16.3842  -29.7955 N   0  0  0  0  0  0  0  0  0  0  0  0
  -18.5212   16.2942  -27.2821 C   0  0  0  0  0  0  0  0  0  0  0  0
  -20.9879   18.4869  -25.9465 O   0  0  0  0  0  0  0  0  0  0  0  0
  -17.4444   17.6609  -24.3396 C   0  0  0  0  0  0  0  0  0  0  0  0
  -25.8713   17.1724  -32.1467 O   0  0  0  0  0  0  0  0  0  0  0  0
  -20.4061   15.6424  -30.9909 C   0  0  0  0  0  0  0  0  0  0  0  0
  -23.2896   17.7810  -30.5109 C   0  0  0  0  0  0  0  0  0  0  0  0
  -25.4080   17.6106  -31.2060 C   0  0  0  0  0  0  0  0  0  0  0  0
  -22.4707   18.9123  -27.6954 C   0  0  0  0  0  0  0  0  0  0  0  0
  -18.7035   17.4961  -25.7365 N   0  0  0  0  0  0  0  0  0  0  0  0
  -23.1447   18.9684  -27.6034 N   0  0  0  0  0  0  0  0  0  0  0  0
  -17.3811   17.0396  -26.0024 C   0  0  0  0  0  0  0  0  0  0  0  0
  -18.7447   15.9871  -28.3354 C   0  0  0  0  0  0  0  0  0  0  0  0
  -21.5978   17.0861  -29.8899 C   0  0  0  0  0  3  0  0  0  0  0  0
  -21.0154   17.5774  -27.9474 C   0  0  0  0  0  0  0  0  0  0  0  0
  5  4  1  0
  7  2  1  0
 10  5  1  0
 11  1  2  0
 11  3  1  0
 12  1  2  0
 12  9  1  0
 13  3  1  0
 14  2  1  0
 14  8  1  0
 15 13  1  0
 16  6  1  0
 16  8  1  0
 16 14  1  0
 17  4  1  0
 17  6  1  0
 18  3  1  0
 18  5  1  0
 19  3  1  0
 19  4  2  0
M  RAD  1  18   2
M  END
>  <ID>  (1) 
conformer_0

$$$$
