
     RDKit          3D

 20 23  0  0  0  0  0  0  0  0999 V2000
  -17.3207   17.1411  -25.5484 C   0  0  0  0  0  0  0  0  0  0  0  0
  -23.4815   17.5226  -30.9568 C   0  0  0  0  0  0  0  0  0  0  0  0
  -21.5361   17.8527  -28.4972 C   0  0  0  0  0  0  0  0  0  0  0  0
  -20.3516   16.8793  -28.7821 C   0  0  0  0  0  0  0  0  0  0  0  0
  -17.2944   17.7221  -24.2766 C   0  0  0  0  0  0  0  0  0  0  0  0
  -18.6774   15.8554  -27.0489 C   0  0  0  0  0  0  0  0  0  0  0  0
  -20.9813   16.7737  -29.9801 N   0  0  0  0  0  0  0  0  0  0  0  0
  -19.5912   17.9303  -26.0196 C   0  0  0  0  0  0  0  0  0  0  0  0
  -19.1649   15.8347  -28.8466 O   0  0  0  0  0  0  0  0  0  0  0  0
  -25.1676   17.4334  -31.6001 C   0  0  0  0  0  0  0  0  0  0  0  0
  -23.4072   18.6764  -27.2076 O   0  0  0  0  0  0  0  0  0  0  0  0
  -25.8812   16.9944  -32.4075 O   0  0  0  0  0  0  0  0  0  0  0  0
  -20.8138   16.1833  -31.0653 C   0  0  0  0  0  0  0  0  0  0  0  0
  -22.1936   17.4533  -30.0030 C   0  0  0  0  0  0  0  0  0  0  0  0
  -20.9043   18.4681  -26.0970 N   0  0  0  0  0  0  0  0  0  0  0  0
  -20.4481   18.1876  -25.6383 O   0  0  0  0  0  0  0  0  0  0  0  0
  -21.7505   18.3431  -27.1163 C   0  0  0  0  0  0  0  0  0  0  0  0
  -24.4390   18.4591  -31.7081 C   0  0  0  0  0  0  0  0  0  0  0  0
  -18.4766   18.1931  -24.9888 N   0  0  0  0  0  0  0  0  0  0  0  0
  -18.5781   16.7703  -26.9033 C   0  0  0  0  0  0  0  0  0  0  0  0
  4  3  1  0
  5  1  1  0
  7  4  1  0
  9  4  1  0
  9  6  1  0
 12 10  1  0
 13  7  1  0
 14  2  1  0
 14  3  1  0
 14  7  1  0
 16  8  1  0
 16 15  1  0
 17  3  1  0
 17 11  1  0
 17 15  2  0
 18  2  1  0
 18 10  1  0
 19  1  1  0
 19  5  1  0
 19  8  1  0
 20  1  1  0
 20  6  1  0
 20  8  1  0
M  END
>  <ID>  (1) 
conformer_0

$$$$
