
     RDKit          3D

 19 22  0  0  0  0  0  0  0  0999 V2000
  -22.1705   18.1685  -28.6291 C   0  0  1  0  0  0  0  0  0  0  0  0
  -17.6579   17.6543  -24.3508 C   0  0  0  0  0  0  0  0  0  0  0  0
  -23.7388   18.1597  -29.9722 C   0  0  1  0  0  0  0  0  0  0  0  0
  -20.4205   17.0227  -28.6625 C   0  0  0  0  0  0  0  0  0  0  0  0
  -20.9734   18.5128  -25.8132 O   0  0  0  0  0  0  0  0  0  0  0  0
  -24.8976   17.8963  -31.3649 C   0  0  2  0  0  0  0  0  0  0  0  0
  -18.3242   16.2651  -27.2796 C   0  0  0  0  0  0  0  0  0  0  0  0
  -25.7371   17.1935  -32.2644 O   0  0  0  0  0  0  0  0  0  0  0  0
  -19.2296   15.9399  -29.5009 O   0  0  0  0  0  0  0  0  0  0  0  0
  -18.8864   16.7197  -27.4635 C   0  0  0  0  0  0  0  0  0  0  0  0
  -21.3474   16.8804  -29.9668 N   0  0  0  0  0  0  0  0  0  0  0  0
  -18.3380   17.3847  -25.6443 N   0  0  0  0  0  0  0  0  0  0  0  0
  -19.4195   17.8622  -25.5214 C   0  0  0  0  0  0  0  0  0  0  0  0
  -22.1616   17.5919  -29.9300 C   0  0  2  0  0  0  0  0  0  0  0  0
  -21.7526   18.4950  -26.7652 C   0  0  2  0  0  0  0  0  0  0  0  0
  -21.3671   16.3124  -31.0687 C   0  0  0  0  0  0  0  0  0  0  0  0
  -20.8724   17.8773  -27.9935 C   0  0  2  0  0  0  0  0  0  0  0  0
  -17.0850   16.8005  -25.8967 C   0  0  1  0  0  0  0  0  0  0  0  0
  -23.3464   18.0240  -31.7283 C   0  0  0  0  0  0  0  0  0  0  0  0
  6  3  1  0
  6  8  1  1
  9  4  2  0
 10  7  2  3
 11  4  1  0
 12  2  1  0
 13  5  1  0
 13 12  1  0
  1 14  1  1
 14  3  1  0
 14 11  1  1
 15  1  1  0
 15  5  1  6
 16 11  1  0
 17  1  1  0
 17  4  1  1
 17 15  1  0
 18  2  1  1
 18  7  1  0
 18 12  1  0
  3 19  1  6
 19  6  1  0
M  END
>  <ID>  (1) 
conformer_0

$$$$
