
     RDKit          3D

 15 15  0  0  0  0  0  0  0  0999 V2000
  -23.7329   18.1099  -31.0615 C   0  0  0  0  0  0  0  0  0  0  0  0
  -21.9721   17.9017  -28.6392 C   0  0  2  0  0  0  0  0  0  0  0  0
  -18.8548   16.9732  -26.3550 C   0  0  0  0  0  0  0  0  0  0  0  0
  -22.4273   17.4133  -30.0994 C   0  0  2  0  0  0  0  0  0  0  0  0
  -20.2942   18.3244  -25.9059 O   0  0  0  0  0  0  0  0  0  0  0  0
  -20.9532   16.4863  -29.8680 N   0  0  0  0  0  0  0  0  0  0  0  0
  -18.5899   16.3844  -26.9961 C   0  0  0  0  0  0  0  0  0  0  0  0
  -19.8289   15.5951  -30.5952 C   0  0  0  0  0  0  0  0  0  0  0  0
  -19.2644   15.6634  -28.9829 O   0  0  0  0  0  0  0  0  0  0  0  0
  -17.5482   17.4843  -24.6545 C   0  0  0  0  0  3  0  0  0  0  0  0
  -25.5939   17.3686  -31.9929 O   0  0  0  0  0  0  0  0  0  0  0  0
  -21.2543   18.3220  -26.8780 C   0  0  0  0  0  0  0  0  0  0  0  0
  -18.1237   17.4314  -25.2295 N   0  0  0  0  0  0  0  0  0  0  0  0
  -23.1681   19.0226  -27.4020 O   0  0  0  0  0  0  0  0  0  0  0  0
  -20.7685   16.7902  -28.9531 C   0  0  0  0  0  0  0  0  0  0  0  0
  4  1  1  6
  4  2  1  0
  5  3  1  0
  6  4  1  0
  7  3  2  3
  8  6  1  0
  9  8  1  0
 11  1  1  0
 12  2  1  0
 12  5  1  0
 13  3  1  0
 13 10  2  3
  2 14  1  6
 15  2  1  0
 15  6  1  0
M  RAD  1  10   2
M  END
>  <ID>  (1) 
conformer_0

$$$$
