
     RDKit          3D

 19 20  0  0  0  0  0  0  0  0999 V2000
  -17.8355   16.3629  -26.5885 C   0  0  0  0  0  0  0  0  0  0  0  0
  -22.3045   17.9672  -28.7428 C   0  0  0  0  0  0  0  0  0  0  0  0
  -17.1676   17.5271  -24.6266 C   0  0  0  0  0  0  0  0  0  0  0  0
  -23.8914   18.0653  -31.0042 C   0  0  0  0  0  0  0  0  0  0  0  0
  -20.4704   16.9071  -28.7427 C   0  0  0  0  0  0  0  0  0  0  0  0
  -21.0036   16.6335  -29.8682 N   0  0  0  0  0  0  0  0  0  0  0  0
  -18.6556   17.6499  -25.7066 C   0  0  0  0  0  0  0  0  0  0  0  0
  -25.8884   17.7074  -32.3095 O   0  0  0  0  0  0  0  0  0  0  0  0
  -24.7425   18.0042  -31.5241 C   0  0  0  0  0  0  0  0  0  0  0  0
  -18.9557   15.4408  -29.6730 O   0  0  0  0  0  0  0  0  0  0  0  0
  -20.5631   16.0387  -31.0546 C   0  0  0  0  0  0  0  0  0  0  0  0
  -20.5310   18.7694  -25.6333 O   0  0  0  0  0  0  0  0  0  0  0  0
  -18.4004   18.1430  -24.1700 O   0  0  0  0  0  0  0  0  0  0  0  0
  -18.9279   17.7633  -25.7651 N   0  0  0  0  0  0  0  0  0  0  0  0
  -20.8270   18.3398  -26.4358 C   0  0  0  0  0  0  0  0  0  0  0  0
  -19.0366   16.1474  -28.0976 C   0  0  0  0  0  0  0  0  0  0  0  0
  -22.2515   17.5278  -29.7528 C   0  0  0  0  0  0  0  0  0  0  0  0
  -18.8188   15.6490  -27.4776 C   0  0  0  0  0  0  0  0  0  0  0  0
  -20.9623   17.8011  -27.9661 C   0  0  0  0  0  0  0  0  0  0  0  0
  6  5  1  0
  7  1  1  0
  7  3  1  0
  9  4  3  0
  9  8  1  0
 11  6  1  0
 13  3  1  0
 13  7  1  0
 14  7  1  0
 15 12  2  0
 16  5  1  0
 16 10  1  0
 17  2  2  0
 17  4  1  0
 17  6  1  0
 18  1  1  0
 18 16  1  0
 19  2  1  0
 19  5  1  0
 19 15  2  0
M  END
>  <ID>  (1) 
conformer_0

$$$$
