
     RDKit          3D

 19 20  0  0  0  0  0  0  0  0999 V2000
  -20.8079   17.8682  -28.0044 C   0  0  0  0  0  0  0  0  0  0  0  0
  -23.7617   18.4087  -29.9766 C   0  0  0  0  0  0  0  0  0  0  0  0
  -19.0307   17.9738  -25.9654 C   0  0  0  0  0  0  0  0  0  0  0  0
  -20.4823   16.8420  -29.0318 C   0  0  0  0  0  0  0  0  0  0  0  0
  -21.1859   16.6944  -29.9126 N   0  0  0  0  0  0  0  0  0  0  0  0
  -18.7136   16.5755  -27.2060 C   0  0  0  0  0  0  0  0  0  0  0  0
  -24.8575   17.5882  -31.1851 C   0  0  0  0  0  0  0  0  0  0  0  0
  -19.1904   15.8390  -29.1709 O   0  0  0  0  0  0  0  0  0  0  0  0
  -18.1053   17.4602  -25.5209 N   0  0  0  0  0  0  0  0  0  0  0  0
  -25.8989   17.3626  -32.0035 O   0  0  0  0  0  0  0  0  0  0  0  0
  -17.3157   17.5157  -24.0440 C   0  0  0  0  0  0  0  0  0  0  0  0
  -20.6086   18.9272  -26.3916 O   0  0  0  0  0  0  0  0  0  0  0  0
  -20.6941   15.9756  -31.0599 C   0  0  0  0  0  0  0  0  0  0  0  0
  -21.7788   18.8626  -27.4131 C   0  0  0  0  0  0  0  0  0  0  0  0
  -18.8908   16.4872  -27.7381 C   0  0  0  0  0  0  0  0  0  0  0  0
  -22.4109   17.5160  -29.6949 C   0  0  0  0  0  0  0  0  0  0  0  0
  -22.1575   18.1480  -28.8025 C   0  0  0  0  0  0  0  0  0  0  0  0
  -17.0829   16.9082  -25.6480 C   0  0  0  0  0  0  0  0  0  0  0  0
  -23.7722   17.6350  -31.4100 C   0  0  0  0  0  0  0  0  0  0  0  0
  4  1  2  0
  5  4  1  0
  6  3  1  0
  8  4  1  0
  9  3  1  0
 10  7  1  0
 11  9  1  0
 13  5  1  0
 14  1  1  0
 14 12  1  0
 15  6  1  0
 15  8  1  0
 16  2  1  0
 16  5  1  0
 17  1  1  0
 17 14  1  0
 17 16  2  0
 18  9  1  0
 19  2  1  0
 19  7  1  0
M  END
>  <ID>  (1) 
conformer_0

$$$$
