
     RDKit          3D

 19 20  0  0  0  0  0  0  0  0999 V2000
  -24.2523   18.2260  -30.6776 C   0  0  0  0  0  0  0  0  0  0  0  0
  -21.4081   17.9993  -28.4128 C   0  0  0  0  0  0  0  0  0  0  0  0
  -17.4862   17.8352  -24.0161 C   0  0  0  0  0  0  0  0  0  0  0  0
  -20.3499   16.7379  -28.8655 C   0  0  0  0  0  0  0  0  0  0  0  0
  -18.1124   16.3848  -27.1813 C   0  0  0  0  0  0  0  0  0  0  0  0
  -19.0115   15.2943  -29.1132 O   0  0  0  0  0  0  0  0  0  0  0  0
  -25.7009   17.3162  -32.4342 O   0  0  0  0  0  0  0  0  0  0  0  0
  -17.4492   16.9442  -25.7169 C   0  0  0  0  0  0  0  0  0  0  0  0
  -18.4420   17.5558  -25.5467 N   0  0  0  0  0  0  0  0  0  0  0  0
  -21.3845   16.7510  -29.9383 N   0  0  0  0  0  0  0  0  0  0  0  0
  -20.8403   18.9963  -26.0539 O   0  0  0  0  0  0  0  0  0  0  0  0
  -24.7589   17.8800  -31.3843 C   0  0  0  0  0  0  0  0  0  0  0  0
  -18.7743   16.0213  -27.9338 C   0  0  0  0  0  0  0  0  0  0  0  0
  -21.9708   16.4116  -31.1868 C   0  0  0  0  0  0  0  0  0  0  0  0
  -22.0284   17.4444  -29.7498 C   0  0  0  0  0  0  0  0  0  0  0  0
  -19.4556   17.9363  -25.7893 C   0  0  0  0  0  0  0  0  0  0  0  0
  -23.3502   18.3024  -27.2638 O   0  0  0  0  0  0  0  0  0  0  0  0
  -21.5682   18.5647  -27.1645 C   0  0  0  0  0  0  0  0  0  0  0  0
  -23.0921   17.7285  -31.6336 C   0  0  0  0  0  0  0  0  0  0  0  0
  4  2  1  0
  8  5  1  0
  9  3  1  0
  9  8  1  0
 10  4  1  0
 12  1  1  0
 12  7  1  0
 13  4  1  0
 13  5  1  0
 13  6  1  0
 14 10  1  0
 15  2  1  0
 15 10  1  0
 16  9  1  0
 16 11  1  0
 18  2  1  0
 18 11  1  0
 18 17  1  0
 19  1  1  0
 19 14  1  0
M  END
>  <ID>  (1) 
conformer_0

$$$$
