
     RDKit          3D

 16 16  0  0  0  0  0  0  0  0999 V2000
  -23.2519   17.3978  -30.7563 C   0  0  0  0  0  0  0  0  0  0  0  0
  -17.8136   17.5826  -24.5341 C   0  0  0  0  0  0  0  0  0  0  0  0
  -21.7319   18.0041  -28.5183 C   0  0  0  0  0  0  0  0  0  0  0  0
  -18.8636   16.5988  -26.9366 C   0  0  0  0  0  0  0  0  0  0  0  0
  -22.3022   17.3732  -29.8326 C   0  0  0  0  0  0  0  0  0  0  0  0
  -20.2693   18.2232  -25.8648 O   0  0  0  0  0  0  0  0  0  0  0  0
  -19.5281   15.4996  -28.9470 O   0  0  0  0  0  0  0  0  0  0  0  0
  -20.9162   16.6100  -29.4008 N   0  0  0  0  0  0  0  0  0  0  0  0
  -25.6524   17.0529  -31.9270 O   0  0  0  0  0  0  0  0  0  0  0  0
  -24.1031   18.3159  -31.4487 C   0  0  0  0  0  0  0  0  0  0  0  0
  -22.0519   19.1872  -27.5993 C   0  0  0  0  0  0  0  0  0  0  0  0
  -19.5074   17.4136  -26.4850 C   0  0  0  0  0  0  0  0  0  0  0  0
  -20.2544   15.9276  -30.5042 C   0  0  0  0  0  0  0  0  0  0  0  0
  -20.7177   16.9034  -28.4174 C   0  0  0  0  0  0  0  0  0  0  0  0
  -17.3681   16.5652  -26.1457 C   0  0  0  0  0  0  0  0  0  0  0  0
  -24.9979   17.5413  -31.3237 C   0  0  0  0  0  0  0  0  0  0  0  0
  5  1  1  0
  5  3  1  0
  8  5  1  0
 10  1  1  0
 11  3  1  0
 12  4  1  0
 12  6  2  0
 13  7  1  0
 13  8  1  0
 14  3  2  0
 14  8  1  0
 14 12  1  0
 15  2  1  0
 15  4  1  0
 16  9  1  0
 16 10  1  0
M  END
>  <ID>  (1) 
conformer_0

$$$$
