
     RDKit          3D

 15 15  0  0  0  0  0  0  0  0999 V2000
  -21.8886   17.8187  -28.4389 C   0  0  1  0  0  0  0  0  0  0  0  0
  -23.8252   17.9799  -30.7479 C   0  0  0  0  0  0  0  0  0  0  0  0
  -17.5105   17.7358  -24.3823 C   0  0  0  0  0  0  0  0  0  0  0  0
  -20.4198   16.9192  -28.5883 C   0  0  0  0  0  0  0  0  0  0  0  0
  -17.8733   16.1224  -26.9242 C   0  0  0  0  0  0  0  0  0  0  0  0
  -21.0297   18.8275  -25.9587 O   0  0  0  0  0  0  0  0  0  0  0  0
  -19.1111   18.0519  -26.3412 C   0  0  0  0  0  0  0  0  0  0  0  0
  -21.0890   16.7226  -29.7640 N   0  0  0  0  0  0  0  0  0  0  0  0
  -24.6708   17.3580  -31.1498 C   0  0  0  0  0  0  0  0  0  0  0  0
  -17.8559   17.4807  -25.4832 N   0  0  0  0  0  0  0  0  0  0  0  0
  -19.6975   15.7293  -29.6558 O   0  0  0  0  0  0  0  0  0  0  0  0
  -21.4184   18.5761  -26.9481 C   0  0  0  0  0  0  0  0  0  0  0  0
  -21.0929   16.4198  -31.1439 C   0  0  0  0  0  0  0  0  0  0  0  0
  -17.2445   16.7053  -26.0622 C   0  0  0  0  0  0  0  0  0  0  0  0
  -22.1858   17.2594  -29.7698 C   0  0  1  0  0  0  0  0  0  0  0  0
  4  1  1  0
  7  6  1  0
  8  4  1  0
  9  2  2  3
 10  3  1  0
 10  7  1  0
 11  4  2  0
  1 12  1  6
 12  6  1  0
 13  8  1  0
 14  5  1  0
 14 10  1  0
 15  1  1  0
 15  2  1  0
 15  8  1  6
M  END
>  <ID>  (1) 
conformer_0

$$$$
