
     RDKit          3D

 12 11  0  0  0  0  0  0  0  0999 V2000
  -24.4487   18.4888  -31.3180 C   0  0  0  0  0  0  0  0  0  0  0  0
  -18.5245   15.9170  -27.3587 C   0  0  0  0  0  0  0  0  0  0  0  0
  -21.9125   17.7824  -28.6496 C   0  0  0  0  0  0  0  0  0  0  0  0
  -17.3996   17.4573  -24.8296 C   0  0  0  0  0  3  0  0  0  0  0  0
  -21.6320   17.1535  -29.7270 C   0  0  0  0  0  0  0  0  0  0  0  0
  -20.2859   18.3277  -25.6979 O   0  0  0  0  0  0  0  0  0  0  0  0
  -20.7627   16.4648  -29.7956 N   0  0  0  0  0  0  0  0  0  0  0  0
  -18.9707   17.3620  -26.0892 C   0  0  1  0  0  0  0  0  0  0  0  0
  -18.0968   17.4401  -25.5328 N   0  0  0  0  0  0  0  0  0  0  0  0
  -21.8340   18.6059  -27.1818 C   0  0  0  0  0  0  0  0  0  0  0  0
  -19.4733   15.7244  -29.7571 C   0  0  0  0  0  3  0  0  0  0  0  0
  -23.4568   17.9258  -31.0745 C   0  0  0  0  0  0  0  0  0  0  0  0
  5  3  2  0
  7  5  1  0
  8  2  1  1
  8  6  1  0
  9  4  2  3
  9  8  1  0
 10  3  2  0
 10  6  1  0
 11  7  2  3
 12  1  3  0
 12  5  1  0
M  RAD  2   4   2  11   2
M  END
>  <ID>  (1) 
conformer_0

$$$$
