
     RDKit          3D

 21 23  0  0  0  0  0  0  0  0999 V2000
  -23.0202   17.3077  -31.1895 C   0  0  2  0  0  0  0  0  0  0  0  0
  -22.4337   17.9626  -29.2649 C   0  0  0  0  0  0  0  0  0  0  0  0
  -17.6038   18.0814  -23.5930 C   0  0  0  0  0  0  0  0  0  0  0  0
  -20.5347   16.9277  -28.8170 C   0  0  0  0  0  0  0  0  0  0  0  0
  -20.7971   16.4720  -29.8965 N   0  0  0  0  0  0  0  0  0  0  0  0
  -18.3736   16.4260  -26.6982 C   0  0  0  0  0  0  0  0  0  0  0  0
  -20.1419   18.1966  -25.8762 O   0  0  0  0  0  0  0  0  0  0  0  0
  -20.1602   15.7377  -31.0754 C   0  0  0  0  0  0  0  0  0  0  0  0
  -18.8995   15.5336  -28.9730 O   0  0  0  0  0  0  0  0  0  0  0  0
  -19.2905   17.9437  -26.1199 C   0  0  1  0  0  0  0  0  0  0  0  0
  -24.3581   17.7947  -30.3371 C   0  0  0  0  0  0  0  0  0  0  0  0
  -21.6854   18.6870  -27.3638 C   0  0  0  0  0  0  0  0  0  0  0  0
  -25.9847   17.7829  -31.9808 O   0  0  0  0  0  0  0  0  0  0  0  0
  -17.8788   17.7397  -24.9065 N   0  0  0  0  0  0  0  0  0  0  0  0
  -18.7964   15.8307  -27.7322 C   0  0  0  0  0  0  0  0  0  0  0  0
  -22.8942   19.2109  -27.4176 N   0  0  0  0  0  0  0  0  0  0  0  0
  -25.3410   17.7946  -31.0086 C   0  0  2  0  0  0  0  0  0  0  0  0
  -22.1448   17.1328  -30.1738 C   0  0  0  0  0  0  0  0  0  0  0  0
  -17.3449   17.1281  -25.2603 C   0  0  0  0  0  0  0  0  0  0  0  0
  -21.3017   17.9644  -28.2797 C   0  0  0  0  0  0  0  0  0  0  0  0
  -24.0037   18.3653  -31.9253 C   0  0  0  0  0  0  0  0  0  0  0  0
  5  4  1  0
  8  5  1  0
 10  6  1  0
 10  7  1  1
  1 11  1  1
 12  7  1  0
 14  3  1  0
 14 10  1  0
 15  6  2  0
 15  9  2  0
 16 12  2  3
 17 11  1  0
 17 13  1  6
 18  1  1  0
 18  2  2  0
 18  5  1  0
 19  6  1  0
 19 14  1  0
 20  2  1  0
 20  4  2  0
 20 12  1  0
 21  1  1  0
 21 17  1  0
M  END
>  <ID>  (1) 
conformer_0

$$$$
