
     RDKit          3D

 19 19  0  0  0  0  0  0  0  0999 V2000
  -23.9886   18.5212  -31.1834 C   0  0  0  0  0  0  0  0  0  0  0  0
  -16.8472   17.4359  -24.4225 C   0  0  0  0  0  0  0  0  0  0  0  0
  -22.2149   17.3631  -29.9895 C   0  0  2  0  0  0  0  0  0  0  0  0
  -18.8291   15.5218  -26.9911 C   0  0  0  0  0  0  0  0  0  0  0  0
  -21.6483   17.9152  -28.6384 C   0  0  2  0  0  0  0  0  0  0  0  0
  -17.9064   17.0173  -25.7206 C   0  0  0  0  0  0  0  0  0  0  0  0
  -20.6478   16.4069  -29.6896 N   0  0  0  0  0  0  0  0  0  0  0  0
  -23.1761   17.7153  -31.2038 C   0  0  0  0  0  0  0  0  0  0  0  0
  -18.9930   15.6038  -28.7539 C   0  0  0  0  0  0  0  0  0  0  0  0
  -23.4060   18.9443  -27.8677 O   0  0  0  0  0  0  0  0  0  0  0  0
  -25.4953   17.6539  -32.4452 O   0  0  0  0  0  0  0  0  0  0  0  0
  -21.6536   19.2584  -26.6175 O   0  0  0  0  0  0  0  0  0  0  0  0
  -18.1468   17.4804  -25.3974 N   0  0  0  0  0  0  0  0  0  0  0  0
  -19.6880   17.6820  -26.1538 C   0  0  0  0  0  0  0  0  0  0  0  0
  -20.6840   16.7940  -28.8134 C   0  0  0  0  0  0  0  0  0  0  0  0
  -20.3318   18.4760  -25.9505 N   0  0  0  0  0  0  0  0  0  0  0  0
  -19.6789   17.2942  -27.0716 C   0  0  0  0  0  0  0  0  0  0  0  0
  -20.1826   15.8654  -31.0533 C   0  0  0  0  0  0  0  0  0  0  0  0
  -21.9907   18.6731  -27.4259 C   0  0  2  0  0  0  0  0  0  0  0  0
  5  3  1  0
  7  3  1  0
  8  1  1  0
  3  8  1  6
  9  4  1  0
 11  1  1  0
 13  2  1  0
 13  6  1  0
 14 13  1  0
  5 15  1  1
 15  7  1  0
 16 12  1  0
 16 14  2  3
 17  4  1  0
 17 14  1  0
 18  7  1  0
 19  5  1  0
 19 10  1  6
 19 12  1  0
M  END
>  <ID>  (1) 
conformer_0

$$$$
