
     RDKit          3D

 18 19  0  0  0  0  0  0  0  0999 V2000
  -23.2301   17.7329  -30.7427 C   0  0  0  0  0  0  0  0  0  0  0  0
  -21.3432   17.8772  -28.2750 C   0  0  0  0  0  0  0  0  0  0  0  0
  -17.3286   17.5070  -25.1798 C   0  0  0  0  0  0  0  0  0  0  0  0
  -20.5308   17.0813  -28.6120 C   0  0  0  0  0  0  0  0  0  0  0  0
  -21.2073   18.4443  -26.6603 C   0  0  0  0  0  0  0  0  0  0  0  0
  -17.7439   16.4776  -26.8751 C   0  0  0  0  0  0  0  0  0  0  0  0
  -20.5498   16.3194  -29.6324 N   0  0  0  0  0  0  0  0  0  0  0  0
  -23.1510   19.1986  -27.0895 O   0  0  0  0  0  0  0  0  0  0  0  0
  -19.0491   17.8531  -25.8477 N   0  0  0  0  0  0  0  0  0  0  0  0
  -25.7051   16.6134  -32.0664 O   0  0  0  0  0  0  0  0  0  0  0  0
  -19.4795   15.5868  -30.3154 C   0  0  0  0  0  0  0  0  0  0  0  0
  -25.4591   17.4907  -31.3169 C   0  0  0  0  0  0  0  0  0  0  0  0
  -18.5142   16.6099  -27.2384 C   0  0  0  0  0  0  0  0  0  0  0  0
  -24.4611   18.0943  -31.3381 C   0  0  0  0  0  0  0  0  0  0  0  0
  -19.2349   15.6188  -28.9953 O   0  0  0  0  0  0  0  0  0  0  0  0
  -21.8036   16.8779  -30.2596 C   0  0  0  0  0  0  0  0  0  0  0  0
  -19.3467   18.0428  -25.2971 C   0  0  0  0  0  0  0  0  0  0  0  0
  -22.3069   17.8625  -29.4135 C   0  0  0  0  0  0  0  0  0  0  0  0
  4  2  2  0
  5  2  1  0
  7  4  1  0
  8  5  1  0
  9  3  1  0
 11  7  1  0
 12 10  1  0
 13  6  1  0
 13  9  1  0
 14  1  1  0
 14 12  1  0
 15 11  1  0
 16  1  1  0
 16  7  1  0
 17  5  1  0
 17  9  1  0
 18  1  1  0
 18  2  1  0
 18 16  2  0
M  END
>  <ID>  (1) 
conformer_0

$$$$
