
     RDKit          3D

 19 20  0  0  0  0  0  0  0  0999 V2000
  -21.0518   17.6746  -28.0274 C   0  0  1  0  0  0  0  0  0  0  0  0
  -23.8472   18.3319  -31.1795 C   0  0  0  0  0  0  0  0  0  0  0  0
  -20.8365   16.5935  -29.4247 C   0  0  1  0  0  0  0  0  0  0  0  0
  -19.6839   17.9312  -26.2379 C   0  0  1  0  0  0  0  0  0  0  0  0
  -17.9985   17.6969  -24.3068 C   0  0  0  0  0  0  0  0  0  0  0  0
  -18.1328   17.4530  -25.6558 N   0  0  0  0  0  0  0  0  0  0  0  0
  -18.3985   15.7184  -27.1658 C   0  0  0  0  0  0  0  0  0  0  0  0
  -20.3276   19.0305  -26.3243 O   0  0  0  0  0  0  0  0  0  0  0  0
  -22.1470   17.8150  -29.0335 C   0  0  1  0  0  0  0  0  0  0  0  0
  -25.7147   17.4438  -31.9383 O   0  0  0  0  0  0  0  0  0  0  0  0
  -20.6048   16.2281  -29.9985 N   0  0  0  0  0  0  0  0  0  0  0  0
  -19.0539   15.7437  -29.3157 O   0  0  0  0  0  0  0  0  0  0  0  0
  -24.8031   18.1515  -28.8422 O   0  0  0  0  0  0  0  0  0  0  0  0
  -22.4763   18.9708  -27.4852 C   0  0  0  0  0  0  0  0  0  0  0  0
  -20.1783   15.6867  -31.2733 C   0  0  0  0  0  0  0  0  0  0  0  0
  -24.9530   17.9305  -31.1131 C   0  0  0  0  0  0  0  0  0  0  0  0
  -23.1226   17.5881  -30.7862 C   0  0  0  0  0  0  0  0  0  0  0  0
  -16.9075   17.1492  -25.5347 C   0  0  0  0  0  0  0  0  0  0  0  0
  -18.4360   16.5629  -27.3219 C   0  0  0  0  0  0  0  0  0  0  0  0
  3  1  1  0
  1  4  1  6
  6  4  1  0
  6  5  1  0
  4  8  1  1
  9  1  1  0
  9  3  1  0
  3 11  1  6
 12 11  1  0
  9 14  1  1
 15 11  1  0
 16  2  1  0
 16 10  1  0
 16 13  2  0
 17  2  1  0
 17  9  1  0
 18  5  1  0
 18  6  1  0
 19  4  1  0
 19  7  2  3
M  END
>  <ID>  (1) 
conformer_0

$$$$
