
     RDKit          3D

 16 16  0  0  0  0  0  0  0  0999 V2000
  -22.5311   18.0776  -29.0551 C   0  0  2  0  0  0  0  0  0  0  0  0
  -19.4155   17.9753  -26.1176 C   0  0  0  0  0  0  0  0  0  0  0  0
  -21.1145   17.0342  -29.4745 C   0  0  2  0  0  0  0  0  0  0  0  0
  -24.7988   17.6716  -31.2587 C   0  0  0  0  0  0  0  0  0  0  0  0
  -18.3301   15.9991  -27.4045 C   0  0  0  0  0  0  0  0  0  0  0  0
  -20.6502   16.5263  -29.7197 N   0  0  0  0  0  0  0  0  0  0  0  0
  -17.1210   17.4533  -24.6042 C   0  0  0  0  0  0  0  0  0  0  0  0
  -24.2687   18.1069  -30.7431 C   0  0  0  0  0  0  0  0  0  0  0  0
  -20.3682   15.8109  -30.8148 C   0  0  0  0  0  0  0  0  0  0  0  0
  -17.9728   17.3087  -25.7319 N   0  0  0  0  0  0  0  0  0  0  0  0
  -21.0905   17.9416  -28.1641 C   0  0  2  0  0  0  0  0  0  0  0  0
  -21.5162   18.3659  -27.5476 C   0  0  0  0  0  0  0  0  0  0  0  0
  -17.3911   16.7335  -26.1201 C   0  0  0  0  0  0  0  0  0  0  0  0
  -21.3222   18.6734  -26.1590 O   0  0  0  0  0  0  0  0  0  0  0  0
  -24.7115   17.2290  -31.3309 N   0  0  0  0  0  0  0  0  0  0  0  0
  -18.8842   16.2102  -28.1959 C   0  0  0  0  0  0  0  0  0  0  0  0
  3  1  1  0
  3  6  1  1
  1  8  1  6
  8  4  1  0
  9  6  1  0
 10  2  1  0
 10  7  1  0
 11  1  1  0
 11  3  1  0
 11 12  1  1
 13  5  1  0
 13 10  1  0
 14  2  1  0
 14 12  1  0
 15  4  2  3
 16  5  2  3
M  END
>  <ID>  (1) 
conformer_0

$$$$
