
     RDKit          3D

 18 19  0  0  0  0  0  0  0  0999 V2000
  -23.0344   17.6746  -31.4482 C   0  0  0  0  0  0  0  0  0  0  0  0
  -18.6067   16.9287  -27.1343 C   0  0  0  0  0  0  0  0  0  0  0  0
  -21.5213   17.8000  -28.4700 C   0  0  0  0  0  0  0  0  0  0  0  0
  -21.0191   16.5772  -29.9818 N   0  0  0  0  0  0  0  0  0  0  0  0
  -20.2462   16.8119  -28.7290 C   0  0  0  0  0  0  0  0  0  0  0  0
  -19.0583   15.5496  -28.9480 O   0  0  0  0  0  0  0  0  0  0  0  0
  -17.2041   17.4745  -24.6546 C   0  0  0  0  0  0  0  0  0  0  0  0
  -18.2465   16.5477  -26.7637 C   0  0  0  0  0  0  0  0  0  0  0  0
  -25.5016   17.2258  -32.1231 O   0  0  0  0  0  0  0  0  0  0  0  0
  -21.3068   18.4420  -26.9811 C   0  0  0  0  0  0  0  0  0  0  0  0
  -20.3126   18.3286  -26.0194 N   0  0  0  0  0  0  0  0  0  0  0  0
  -22.9868   18.7761  -26.9751 O   0  0  0  0  0  0  0  0  0  0  0  0
  -24.7445   17.8026  -31.6545 C   0  0  0  0  0  0  0  0  0  0  0  0
  -20.9257   15.7574  -30.8746 C   0  0  0  0  0  0  0  0  0  0  0  0
  -18.3469   17.6514  -25.3691 N   0  0  0  0  0  0  0  0  0  0  0  0
  -22.0632   17.4361  -29.9444 C   0  0  0  0  0  0  0  0  0  0  0  0
  -23.9280   18.0391  -30.6736 C   0  0  0  0  0  0  0  0  0  0  0  0
  -19.1626   17.8105  -25.4046 C   0  0  0  0  0  0  0  0  0  0  0  0
  5  3  1  0
  5  4  1  0
  6  5  2  0
  8  2  1  0
 10  3  1  0
 11 10  1  0
 12 10  1  0
 13  1  1  0
 13  9  1  0
 14  4  1  0
 15  7  1  0
 15  8  1  0
 16  1  1  0
 16  3  2  0
 16  4  1  0
 17  1  1  0
 17 13  1  0
 18 11  1  0
 18 15  1  0
M  END
>  <ID>  (1) 
conformer_0

$$$$
