
     RDKit          3D

 15 15  0  0  0  0  0  0  0  0999 V2000
  -24.8737   18.5310  -31.7826 C   0  0  0  0  0  0  0  0  0  0  0  0
  -21.2663   17.8891  -28.3898 C   0  0  0  0  0  0  0  0  0  0  0  0
  -17.0537   17.0108  -25.1298 C   0  0  0  0  0  0  0  0  0  0  0  0
  -18.4189   16.1492  -26.8487 C   0  0  0  0  0  0  0  0  0  0  0  0
  -20.2014   16.8163  -28.7800 C   0  0  0  0  0  0  0  0  0  0  0  0
  -21.0367   18.5904  -25.7036 O   0  0  0  0  0  0  0  0  0  0  0  0
  -20.6852   16.4796  -29.6514 N   0  0  0  0  0  0  0  0  0  0  0  0
  -18.7272   17.4225  -25.5011 C   0  0  0  0  0  0  0  0  0  0  0  0
  -23.3592   17.9624  -31.0123 C   0  0  0  0  0  0  0  0  0  0  0  0
  -20.9287   18.4025  -26.7297 C   0  0  0  0  0  0  0  0  0  0  0  0
  -18.4065   15.7122  -27.9042 C   0  0  0  0  0  0  0  0  0  0  0  0
  -17.5216   17.3119  -25.0894 N   0  0  0  0  0  0  0  0  0  0  0  0
  -25.3689   18.0429  -30.9803 C   0  0  0  0  0  0  0  0  0  0  0  0
  -21.9967   17.3332  -29.9515 C   0  0  2  0  0  0  0  0  0  0  0  0
  -19.0183   15.6420  -29.1811 O   0  0  0  0  0  0  0  0  0  0  0  0
  5  2  1  0
  7  5  2  0
  8  4  1  0
  9  1  1  0
 10  2  2  0
 10  6  2  0
 11  4  1  0
 12  3  2  3
 12  8  1  0
 13  1  1  0
 14  2  1  0
 14  7  1  0
 14  9  1  6
 15  5  1  0
 15 11  1  0
M  END
>  <ID>  (1) 
conformer_0

$$$$
