
     RDKit          3D

 20 20  0  0  0  0  0  0  0  0999 V2000
  -24.0139   18.4803  -31.0675 C   0  0  0  0  0  0  0  0  0  0  0  0
  -22.0723   17.8908  -28.8686 C   0  0  0  0  0  0  0  0  0  0  0  0
  -17.9831   17.0866  -25.9182 C   0  0  0  0  0  0  0  0  0  0  0  0
  -20.2892   16.7879  -28.6507 C   0  0  0  0  0  0  0  0  0  0  0  0
  -18.1766   15.8559  -27.1848 C   0  0  0  0  0  0  0  0  0  0  0  0
  -25.0143   18.1282  -30.6461 C   0  0  0  0  0  0  0  0  0  0  0  0
  -25.6309   17.4740  -32.0102 O   0  0  0  0  0  0  0  0  0  0  0  0
  -20.8373   16.4937  -29.8004 N   0  0  0  0  0  0  0  0  0  0  0  0
  -20.0387   18.3043  -25.6637 O   0  0  0  0  0  0  0  0  0  0  0  0
  -16.9743   17.3158  -24.5484 C   0  0  0  0  0  0  0  0  0  0  0  0
  -20.6951   15.8224  -31.0733 C   0  0  0  0  0  0  0  0  0  0  0  0
  -18.0644   17.2739  -25.5237 N   0  0  0  0  0  0  0  0  0  0  0  0
  -19.9822   17.9839  -26.3262 C   0  0  0  0  0  0  0  0  0  0  0  0
  -19.4477   15.7643  -28.7854 O   0  0  0  0  0  0  0  0  0  0  0  0
  -21.8732   17.2664  -29.8818 C   0  0  0  0  0  0  0  0  0  0  0  0
  -22.6809   18.7639  -28.0653 C   0  0  0  0  0  0  0  0  0  0  0  0
  -25.4154   18.2965  -29.5810 O   0  0  0  0  0  0  0  0  0  0  0  0
  -18.7502   15.8314  -27.9859 C   0  0  0  0  0  0  0  0  0  0  0  0
  -20.8022   17.6696  -27.9518 C   0  0  0  0  0  0  0  0  0  0  0  0
  -23.1180   17.5533  -30.4715 C   0  0  0  0  0  0  0  0  0  0  0  0
  5  3  1  0
  6  1  1  0
  7  6  1  0
  8  4  1  0
 11  8  1  0
 12  3  1  0
 12 10  1  0
 13  9  2  0
 14  4  1  0
 15  2  2  0
 15  8  1  0
 16  2  1  0
 17  6  2  0
 18  5  1  0
 18 14  1  0
 19  2  1  0
 19  4  2  0
 19 13  1  0
 20  1  1  0
 20 15  1  0
M  END
>  <ID>  (1) 
conformer_0

$$$$
