
     RDKit          3D

 14 15  0  0  0  0  0  0  0  0999 V2000
  -23.3915   18.0590  -30.9234 C   0  0  0  0  0  0  0  0  0  0  0  0
  -21.5977   17.7606  -28.4617 C   0  0  0  0  0  0  0  0  0  0  0  0
  -17.3839   17.6270  -24.5158 C   0  0  0  0  0  0  0  0  0  0  0  0
  -20.3304   16.6935  -28.8280 C   0  0  0  0  0  0  0  0  0  0  0  0
  -18.4242   15.8574  -27.1151 C   0  0  0  0  0  0  0  0  0  0  0  0
  -20.7953   16.4858  -29.9492 N   0  0  0  0  0  0  0  0  0  0  0  0
  -20.6930   18.0459  -26.3209 C   0  0  0  0  0  0  0  0  0  0  0  0
  -19.9206   15.5852  -31.0434 C   0  0  0  0  0  0  0  0  0  0  0  0
  -18.5323   17.5278  -25.5817 N   0  0  0  0  0  0  0  0  0  0  0  0
  -25.7243   17.7106  -31.9013 O   0  0  0  0  0  0  0  0  0  0  0  0
  -24.7067   18.2730  -30.6602 C   0  0  0  0  0  0  0  0  0  0  0  0
  -18.2393   17.0443  -26.1485 C   0  0  0  0  0  0  0  0  0  0  0  0
  -19.2367   15.7998  -29.3244 O   0  0  0  0  0  0  0  0  0  0  0  0
  -21.9752   17.3286  -30.0249 C   0  0  0  0  0  0  0  0  0  0  0  0
  4  2  1  0
  6  4  1  0
  7  2  1  0
  8  6  1  0
  9  3  1  0
 11  1  1  0
 11 10  1  0
 12  5  1  0
 12  7  1  0
 12  9  1  0
 13  4  1  0
 13  8  1  0
 14  1  1  0
 14  2  2  0
 14  6  1  0
M  END
>  <ID>  (1) 
conformer_0

$$$$
