
     RDKit          3D

 17 17  0  0  0  0  0  0  0  0999 V2000
  -23.4914   18.0942  -30.4167 C   0  0  0  0  0  0  0  0  0  0  0  0
  -21.5826   17.7869  -28.4068 C   0  0  0  0  0  0  0  0  0  0  0  0
  -20.1349   18.2354  -26.3169 C   0  0  0  0  0  0  0  0  0  0  0  0
  -20.3162   16.7222  -28.6924 C   0  0  2  0  0  0  0  0  0  0  0  0
  -20.6785   18.6823  -25.8603 O   0  0  0  0  0  0  0  0  0  0  0  0
  -20.9702   16.5203  -29.8059 N   0  0  0  0  0  0  0  0  0  0  0  0
  -18.7253   16.3561  -26.9617 C   0  0  2  0  0  0  0  0  0  0  0  0
  -18.1234   17.7321  -25.4205 N   0  0  0  0  0  0  0  0  0  0  0  0
  -19.1078   15.5153  -29.0445 O   0  0  0  0  0  0  0  0  0  0  0  0
  -17.7662   17.8107  -24.1636 C   0  0  0  0  0  0  0  0  0  0  0  0
  -25.6542   17.5941  -32.3412 O   0  0  0  0  0  0  0  0  0  0  0  0
  -25.1043   17.8635  -30.7774 C   0  0  0  0  0  0  0  0  0  0  0  0
  -20.9245   15.8473  -31.0994 C   0  0  0  0  0  0  0  0  0  0  0  0
  -23.6660   18.1208  -31.4637 C   0  0  0  0  0  0  0  0  0  0  0  0
  -17.7020   17.4655  -25.8288 C   0  0  0  0  0  0  0  0  0  0  0  0
  -22.0576   17.3183  -29.9211 C   0  0  0  0  0  0  0  0  0  0  0  0
  -18.4861   16.2493  -27.7416 C   0  0  0  0  0  0  0  0  0  0  0  0
  4  2  1  0
  5  3  1  0
  6  4  1  0
  7  3  1  6
  4  9  1  1
 10  8  2  3
 12 11  1  0
 13  6  1  0
 14  1  1  0
 14 12  1  0
 15  7  1  0
 15  8  1  0
 16  1  1  0
 16  2  2  0
 16  6  1  0
 17  7  1  0
 17  9  1  0
M  END
>  <ID>  (1) 
conformer_0

$$$$
