
     RDKit          3D

 17 17  0  0  0  0  0  0  0  0999 V2000
  -24.8906   17.7785  -31.0054 C   0  0  0  0  0  0  0  0  0  0  0  0
  -22.0533   17.9958  -28.6891 C   0  0  0  0  0  0  0  0  0  0  0  0
  -18.8413   17.9162  -24.5417 C   0  0  0  0  0  0  0  0  0  0  0  0
  -20.3420   16.5681  -28.9032 C   0  0  0  0  0  0  0  0  0  0  0  0
  -21.0896   16.5739  -30.0793 N   0  0  0  0  0  0  0  0  0  0  0  0
  -18.8488   16.3073  -27.0074 C   0  0  0  0  0  0  0  0  0  0  0  0
  -19.1170   15.5163  -29.1098 O   0  0  0  0  0  0  0  0  0  0  0  0
  -18.7044   17.7200  -25.5754 N   0  0  0  0  0  0  0  0  0  0  0  0
  -20.7698   15.5434  -31.2892 C   0  0  0  0  0  0  0  0  0  0  0  0
  -16.9275   17.4314  -24.6391 C   0  0  0  0  0  0  0  0  0  0  0  0
  -24.5373   18.5347  -32.0908 C   0  0  0  0  0  0  0  0  0  0  0  0
  -17.8744   18.1062  -24.0909 O   0  0  0  0  0  0  0  0  0  0  0  0
  -22.0303   17.5064  -29.8133 C   0  0  0  0  0  0  0  0  0  0  0  0
  -18.3683   16.8762  -26.6452 C   0  0  0  0  0  0  0  0  0  0  0  0
  -20.5482   18.2409  -26.4386 C   0  0  0  0  0  0  0  0  0  0  0  0
  -20.8557   17.5927  -27.9076 C   0  0  0  0  0  0  0  0  0  0  0  0
  -23.5149   18.4246  -30.2140 C   0  0  0  0  0  0  0  0  0  0  0  0
  5  4  1  0
  7  4  1  0
  7  6  1  0
  8  3  1  0
  9  5  1  0
 11  1  1  0
 12  3  1  0
 12 10  1  0
 13  2  2  0
 13  5  1  0
 14  6  1  0
 14  8  1  0
 16  2  1  0
 16  4  2  0
 16 15  1  0
 17  1  1  0
 17 13  1  0
M  END
>  <ID>  (1) 
conformer_0

$$$$
