
     RDKit          3D

 17 17  0  0  0  0  0  0  0  0999 V2000
  -24.1424   18.5270  -31.3454 C   0  0  0  0  0  0  0  0  0  0  0  0
  -18.4348   17.4692  -25.4004 C   0  0  0  0  0  0  0  0  0  0  0  0
  -22.1572   17.7429  -29.7968 C   0  0  0  0  0  0  0  0  0  0  0  0
  -21.3810   18.0474  -28.3318 C   0  0  0  0  0  0  0  0  0  0  0  0
  -18.6596   16.3073  -27.0860 C   0  0  0  0  0  0  0  0  0  0  0  0
  -20.8972   16.7178  -29.9314 N   0  0  0  0  0  0  0  0  0  0  0  0
  -20.2798   18.0635  -25.7117 O   0  0  0  0  0  0  0  0  0  0  0  0
  -16.8121   17.1067  -24.9596 C   0  0  0  0  0  0  0  0  0  0  0  0
  -20.4747   15.7614  -31.0437 C   0  0  0  0  0  0  0  0  0  0  0  0
  -19.1701   15.3650  -28.9991 O   0  0  0  0  0  0  0  0  0  0  0  0
  -25.3503   18.3475  -30.9472 C   0  0  0  0  0  0  0  0  0  0  0  0
  -25.9883   17.4766  -31.9017 O   0  0  0  0  0  0  0  0  0  0  0  0
  -20.8400   18.2970  -26.5067 C   0  0  0  0  0  0  0  0  0  0  0  0
  -23.3574   18.1285  -30.6741 C   0  0  0  0  0  0  0  0  0  0  0  0
  -20.5378   17.0635  -28.8049 C   0  0  0  0  0  0  0  0  0  0  0  0
  -18.6342   16.2912  -27.3242 C   0  0  0  0  0  0  0  0  0  0  0  0
  -18.5570   17.9638  -24.6380 O   0  0  0  0  0  1  0  0  0  0  0  0
  4  3  1  0
  5  2  1  0
  6  3  1  0
  7  2  1  0
  8  2  1  0
  9  6  1  0
 11  1  1  0
 12 11  1  0
 13  4  1  0
 13  7  1  0
 14  1  2  0
 14  3  2  0
 15  4  2  0
 15  6  1  0
 16  5  1  0
 16 10  1  0
 17  2  1  0
M  RAD  1  17   2
M  END
>  <ID>  (1) 
conformer_0

$$$$
