
     RDKit          3D

 19 20  0  0  0  0  0  0  0  0999 V2000
  -21.2239   17.7196  -28.2072 C   0  0  0  0  0  0  0  0  0  0  0  0
  -23.3738   17.4326  -30.7334 C   0  0  0  0  0  0  0  0  0  0  0  0
  -17.2425   17.5998  -24.1990 C   0  0  0  0  0  0  0  0  0  0  0  0
  -20.4204   16.8085  -28.8254 C   0  0  0  0  0  0  0  0  0  0  0  0
  -20.5167   16.3966  -29.9325 N   0  0  0  0  0  0  0  0  0  0  0  0
  -20.5964   18.5089  -26.1038 O   0  0  0  0  0  0  0  0  0  0  0  0
  -17.7362   16.9296  -25.7421 C   0  0  0  0  0  0  0  0  0  0  0  0
  -18.3758   16.0389  -26.9938 C   0  0  0  0  0  0  0  0  0  0  0  0
  -23.4873   18.9436  -27.2211 O   0  0  0  0  0  0  0  0  0  0  0  0
  -19.9767   15.8371  -31.1082 C   0  0  0  0  0  0  0  0  0  0  0  0
  -21.8615   18.6295  -27.1080 C   0  0  0  0  0  0  0  0  0  0  0  0
  -25.1327   18.1880  -29.2896 O   0  0  0  0  0  0  0  0  0  0  0  0
  -25.0075   18.1641  -30.5746 C   0  0  0  0  0  0  0  0  0  0  0  0
  -18.6016   17.3198  -25.7785 N   0  0  0  0  0  0  0  0  0  0  0  0
  -22.0682   17.1254  -30.1376 C   0  0  0  0  0  0  0  0  0  0  0  0
  -19.6541   17.4080  -26.2374 C   0  0  0  0  0  0  0  0  0  0  0  0
  -22.2644   17.8870  -29.0809 C   0  0  0  0  0  0  0  0  0  0  0  0
  -24.5574   17.8815  -31.2131 C   0  0  0  0  0  0  0  0  0  0  0  0
  -18.7802   16.2377  -28.5430 C   0  0  0  0  0  0  0  0  0  0  0  0
  4  1  2  0
  5  4  1  0
  7  3  1  0
  8  7  1  0
 10  5  1  0
 11  1  1  0
 11  6  1  0
 11  9  1  0
 13 12  1  0
 14  7  2  0
 15  2  1  0
 15  5  1  0
 16  6  1  0
 16 14  1  0
 17  1  1  0
 17 15  2  0
 18  2  1  0
 18 13  1  0
 19  4  1  0
 19  8  1  0
M  END
>  <ID>  (1) 
conformer_0

$$$$
