
     RDKit          3D

 17 17  0  0  0  0  0  0  0  0999 V2000
  -21.4862   17.8003  -28.5474 C   0  0  0  0  0  0  0  0  0  0  0  0
  -17.2004   17.3226  -24.7795 C   0  0  0  0  0  0  0  0  0  0  0  0
  -23.3005   18.1776  -31.1325 C   0  0  0  0  0  0  0  0  0  0  0  0
  -20.3155   16.7620  -28.5928 C   0  0  2  0  0  0  0  0  0  0  0  0
  -18.4101   15.6724  -27.3697 C   0  0  0  0  0  0  0  0  0  0  0  0
  -24.2704   17.6058  -30.8176 C   0  0  2  0  0  0  0  0  0  0  0  0
  -21.3919   18.6845  -26.7880 C   0  0  0  0  0  0  0  0  0  0  0  0
  -25.5013   16.9850  -31.9507 O   0  0  0  0  0  0  0  0  0  0  0  0
  -21.1720   16.4776  -29.9877 N   0  0  0  0  0  0  0  0  0  0  0  0
  -18.5955   17.4604  -25.7612 C   0  0  0  0  0  0  0  0  0  0  0  0
  -20.1067   18.3446  -25.8671 O   0  0  0  0  0  0  0  0  0  0  0  0
  -17.6365   17.5452  -23.8855 O   0  0  0  0  0  0  0  0  0  0  0  0
  -19.6128   15.7216  -29.4564 O   0  0  0  0  0  0  0  0  0  0  0  0
  -23.6305   18.6724  -28.9568 N   0  0  0  0  0  0  0  0  0  0  0  0
  -21.1467   16.0267  -31.0804 C   0  0  0  0  0  0  0  0  0  0  0  0
  -21.8681   17.2205  -29.8466 C   0  0  1  0  0  0  0  0  0  0  0  0
  -18.9229   16.3199  -27.5783 C   0  0  0  0  0  0  0  0  0  0  0  0
  4  1  1  0
  6  3  1  0
  7  1  2  3
  8  6  1  0
  9  4  1  0
 10  2  1  0
 11  7  1  0
 11 10  1  0
 12  2  1  0
  4 13  1  6
  6 14  1  1
 15  9  1  0
 16  1  1  0
 16  3  1  6
 16  9  1  0
 17  4  1  0
 17  5  2  3
M  END
>  <ID>  (1) 
conformer_0

$$$$
