
     RDKit          3D

 16 17  0  0  0  0  0  0  0  0999 V2000
  -24.7549   18.0697  -31.6286 C   0  0  0  0  0  0  0  0  0  0  0  0
  -21.9327   17.8012  -28.4907 C   0  0  0  0  0  0  0  0  0  0  0  0
  -20.5023   16.9228  -28.7146 C   0  0  1  0  0  0  0  0  0  0  0  0
  -18.5982   17.6928  -25.3739 C   0  0  0  0  0  0  0  0  0  0  0  0
  -19.0667   15.7971  -28.8434 O   0  0  0  0  0  0  0  0  0  0  0  0
  -17.8283   16.8806  -26.9888 C   0  0  0  0  0  0  0  0  0  0  0  0
  -21.2245   16.5304  -29.9848 N   0  0  0  0  0  0  0  0  0  0  0  0
  -20.7767   15.5847  -31.1610 C   0  0  0  0  0  0  0  0  0  0  0  0
  -18.1502   17.6587  -25.1975 N   0  0  0  0  0  0  0  0  0  0  0  0
  -20.4550   18.2954  -26.0477 O   0  0  0  0  0  0  0  0  0  0  0  0
  -17.2038   17.5301  -24.2349 C   0  0  0  0  0  3  0  0  0  0  0  0
  -24.6916   18.2530  -30.0438 C   0  0  0  0  0  0  0  0  0  0  0  0
  -20.9429   18.2266  -26.7470 C   0  0  0  0  0  0  0  0  0  0  0  0
  -22.1399   17.3287  -29.9279 C   0  0  0  0  0  0  0  0  0  0  0  0
  -23.5973   18.0876  -30.9438 C   0  0  0  0  0  0  0  0  0  0  0  0
  -18.3590   16.5744  -27.3229 C   0  0  0  0  0  0  0  0  0  0  0  0
  3  2  1  0
  3  5  1  1
  6  4  1  0
  7  3  1  0
  8  7  1  0
  9  4  1  0
 11  9  2  3
 12  1  1  0
 13  2  2  0
 13 10  2  0
 14  2  1  0
 14  7  1  0
 15  1  1  0
 15 12  1  0
 15 14  1  0
 16  5  1  0
 16  6  1  0
M  RAD  1  11   2
M  END
>  <ID>  (1) 
conformer_0

$$$$
