
     RDKit          3D

 13 13  0  0  0  0  0  0  0  0999 V2000
  -23.4003   18.2424  -30.9301 C   0  0  0  0  0  0  0  0  0  0  0  0
  -17.4707   17.5364  -24.6352 C   0  0  0  0  0  0  0  0  0  0  0  0
  -21.4295   18.0706  -28.5970 C   0  0  0  0  0  0  0  0  0  0  0  0
  -20.3765   16.7559  -28.7632 C   0  0  0  0  0  0  0  0  0  0  0  0
  -21.1255   16.5052  -30.1524 N   0  0  0  0  0  0  0  0  0  0  0  0
  -19.0445   15.8034  -27.4826 C   0  0  0  0  0  0  0  0  0  0  0  0
  -19.0784   17.6420  -26.0582 N   0  0  0  0  0  0  0  0  0  0  0  0
  -18.2863   17.0860  -26.1286 C   0  0  0  0  0  0  0  0  0  0  0  0
  -20.8235   15.4754  -31.2526 C   0  0  0  0  0  0  0  0  0  0  0  0
  -24.6669   18.5802  -31.2047 C   0  0  0  0  0  0  0  0  0  0  0  0
  -20.9062   19.0516  -25.8622 O   0  0  0  0  0  0  0  0  0  0  0  0
  -20.4273   18.1280  -26.4309 C   0  0  0  0  0  0  0  0  0  0  0  0
  -21.9685   17.4577  -29.9636 C   0  0  0  0  0  0  0  0  0  0  0  0
  4  3  1  0
  5  4  1  0
  6  4  1  0
  8  2  1  0
  8  6  1  0
  8  7  1  0
  9  5  1  0
 10  1  1  0
 12  7  1  0
 12 11  2  0
 13  1  1  0
 13  3  2  0
 13  5  1  0
M  END
>  <ID>  (1) 
conformer_0

$$$$
