
     RDKit          3D

 16 16  0  0  0  0  0  0  0  0999 V2000
  -23.7624   18.0834  -31.2711 C   0  0  0  0  0  0  0  0  0  0  0  0
  -21.6167   18.0335  -28.5598 C   0  0  0  0  0  0  0  0  0  0  0  0
  -17.7928   16.6425  -26.3541 C   0  0  0  0  0  0  0  0  0  0  0  0
  -21.7682   17.1232  -29.8563 C   0  0  0  0  0  0  0  0  0  0  0  0
  -20.5196   16.3750  -29.4375 N   0  0  0  0  0  0  0  0  0  0  0  0
  -18.2069   15.8449  -27.0172 C   0  0  0  0  0  0  0  0  0  0  0  0
  -25.1493   17.7966  -31.5532 C   0  0  0  0  0  0  0  0  0  0  0  0
  -19.3570   15.5563  -29.5937 C   0  0  0  0  0  0  0  0  0  0  0  0
  -25.9586   17.2585  -31.8449 O   0  0  0  0  0  0  0  0  0  0  0  0
  -17.2576   17.6260  -24.2831 C   0  0  0  0  0  0  0  0  0  0  0  0
  -21.1163   19.4352  -26.5826 O   0  0  0  0  0  0  0  0  0  0  0  0
  -19.1760   17.9434  -25.6156 C   0  0  0  0  0  0  0  0  0  0  0  0
  -22.9683   17.7716  -30.5540 C   0  0  0  0  0  0  0  0  0  0  0  0
  -18.2489   17.5096  -25.5180 N   0  0  0  0  0  0  0  0  0  0  0  0
  -21.5004   18.8078  -27.0232 C   0  0  0  0  0  0  0  0  0  0  0  0
  -20.4927   17.1525  -28.2360 C   0  0  0  0  0  0  0  0  0  0  0  0
  4  2  1  0
  5  4  1  0
  6  3  1  0
  7  1  1  0
  8  5  1  0
  8  6  1  0
  9  7  1  0
 13  1  2  0
 13  4  2  0
 14  3  1  0
 14 10  1  0
 14 12  1  0
 15  2  1  0
 15 11  2  0
 16  2  2  0
 16  5  1  0
M  END
>  <ID>  (1) 
conformer_0

$$$$
