
     RDKit          3D

 20 20  0  0  0  0  0  0  0  0999 V2000
  -24.1520   18.4094  -31.4641 C   0  0  0  0  0  0  0  0  0  0  0  0
  -17.4487   16.9203  -25.5879 C   0  0  0  0  0  0  0  0  0  0  0  0
  -21.5347   17.9326  -28.6287 C   0  0  2  0  0  0  0  0  0  0  0  0
  -20.4782   16.8340  -28.9073 C   0  0  2  0  0  0  0  0  0  0  0  0
  -18.1319   15.4506  -27.1554 C   0  0  0  0  0  0  0  0  0  0  0  0
  -21.1553   16.4912  -30.0700 N   0  0  0  0  0  0  0  0  0  0  0  0
  -20.0920   18.6727  -25.7260 O   0  0  0  0  0  0  0  0  0  0  0  0
  -17.4489   17.7689  -24.1360 C   0  0  0  0  0  0  0  0  0  0  0  0
  -19.3636   15.6616  -28.9386 O   0  0  0  0  0  0  0  0  0  0  0  0
  -25.3567   17.9963  -31.8202 C   0  0  0  0  0  0  0  0  0  0  0  0
  -25.9346   17.4413  -32.3417 O   0  0  0  0  0  0  0  0  0  0  0  0
  -21.1314   15.5778  -31.0710 C   0  0  0  0  0  0  0  0  0  0  0  0
  -16.5277   16.9106  -23.9979 O   0  0  0  0  0  0  0  0  0  0  0  0
  -19.5017   17.9410  -26.1171 C   0  0  0  0  0  0  0  0  0  0  0  0
  -18.0335   17.3747  -25.4227 N   0  0  0  0  0  0  0  0  0  0  0  0
  -22.1826   18.7734  -27.6105 C   0  0  0  0  0  0  0  0  0  0  0  0
  -18.6936   15.9814  -27.6387 C   0  0  0  0  0  0  0  0  0  0  0  0
  -23.3919   18.0224  -30.5949 C   0  0  0  0  0  0  0  0  0  0  0  0
  -22.1825   17.4992  -29.9950 C   0  0  0  0  0  0  0  0  0  0  0  0
  -19.4477   17.1883  -27.1226 C   0  0  0  0  0  0  0  0  0  0  0  0
  4  3  1  0
  6  4  1  0
  4  9  1  1
 10  1  1  0
 11 10  1  0
 12  6  1  0
 13  8  1  0
 14  7  2  0
 15  2  1  0
 15  8  1  0
 15 14  1  0
  3 16  1  1
 17  5  2  3
 17  9  1  0
 18  1  2  0
 19  3  1  0
 19  6  1  0
 19 18  2  0
 20 14  1  0
 20 17  1  0
M  END
>  <ID>  (1) 
conformer_0

$$$$
