
     RDKit          3D

 15 15  0  0  0  0  0  0  0  0999 V2000
  -21.2932   17.8125  -28.0679 C   0  0  0  0  0  0  0  0  0  0  0  0
  -23.3164   18.2435  -30.7324 C   0  0  0  0  0  0  0  0  0  0  0  0
  -19.8334   18.1041  -26.4715 C   0  0  0  0  0  0  0  0  0  0  0  0
  -24.6585   18.0065  -30.6660 C   0  0  0  0  0  0  0  0  0  0  0  0
  -17.9710   15.8108  -26.8645 C   0  0  0  0  0  0  0  0  0  0  0  0
  -21.0787   16.9579  -29.1128 C   0  0  2  0  0  0  0  0  0  0  0  0
  -18.6757   17.6619  -25.8673 N   0  0  0  0  0  0  0  0  0  0  0  0
  -19.6023   15.5771  -28.9655 O   0  0  0  0  0  0  0  0  0  0  0  0
  -25.2593   17.2532  -31.7305 O   0  0  0  0  0  0  0  0  0  0  0  0
  -21.1588   16.6644  -29.9942 N   0  0  0  0  0  0  0  0  0  0  0  0
  -17.7248   17.7246  -24.6125 C   0  0  0  0  0  0  0  0  0  0  0  0
  -25.3430   18.3702  -29.7263 O   0  0  0  0  0  0  0  0  0  0  0  0
  -20.2536   15.8944  -30.9238 C   0  0  0  0  0  0  0  0  0  0  0  0
  -22.3683   18.0226  -28.8646 C   0  0  1  0  0  0  0  0  0  0  0  0
  -18.0837   16.8808  -26.1910 C   0  0  0  0  0  0  0  0  0  0  0  0
  3  1  2  3
  4  2  1  0
  6  1  1  0
  7  3  1  0
  6  8  1  1
  9  4  1  0
 10  6  1  0
 11  7  1  0
 12  4  2  0
 13 10  1  0
 14  1  1  0
 14  2  1  6
 14  6  1  0
 15  5  2  3
 15  7  1  0
M  END
>  <ID>  (1) 
conformer_0

$$$$
