
     RDKit          3D

 17 18  0  0  0  0  0  0  0  0999 V2000
  -24.2927   18.0065  -30.4127 C   0  0  0  0  0  0  0  0  0  0  0  0
  -21.8143   18.0581  -28.3578 C   0  0  0  0  0  0  0  0  0  0  0  0
  -17.2145   17.6187  -24.6104 C   0  0  0  0  0  0  0  0  0  0  0  0
  -18.1721   15.5490  -27.1253 C   0  0  0  0  0  0  0  0  0  0  0  0
  -20.3750   15.6688  -30.9585 C   0  0  0  0  0  0  0  0  0  0  0  0
  -20.5613   17.1016  -28.7073 C   0  0  0  0  0  0  0  0  0  0  0  0
  -21.0609   16.6309  -29.9530 N   0  0  0  0  0  0  0  0  0  0  0  0
  -20.4974   18.7453  -25.4801 O   0  0  0  0  0  0  0  0  0  0  0  0
  -19.9691   18.2096  -26.2102 C   0  0  0  0  0  0  0  0  0  0  0  0
  -18.4275   17.5622  -25.6633 N   0  0  0  0  0  0  0  0  0  0  0  0
  -19.5779   15.7583  -29.0014 O   0  0  0  0  0  0  0  0  0  0  0  0
  -23.7054   18.7916  -28.4789 C   0  0  0  0  0  0  0  0  0  0  0  0
  -22.2508   17.4417  -29.9086 C   0  0  0  0  0  0  0  0  0  0  0  0
  -19.9293   18.0943  -27.4346 C   0  0  0  0  0  0  0  0  0  0  0  0
  -24.9097   18.1936  -31.2285 C   0  0  0  0  0  0  0  0  0  0  0  0
  -23.6276   17.8970  -31.5340 C   0  0  0  0  0  0  0  0  0  0  0  0
  -18.1270   17.0764  -26.1045 C   0  0  0  0  0  0  0  0  0  0  0  0
  6  2  1  0
  7  5  1  0
  7  6  1  0
  9  8  2  0
 10  3  1  0
 10  9  1  0
 11  6  1  0
 12  1  1  0
 12  2  1  0
 13  2  2  0
 13  7  1  0
 14  6  1  0
 14  9  1  0
 15  1  1  0
 16  1  1  0
 16 15  1  0
 17  4  1  0
 17 10  1  0
M  END
>  <ID>  (1) 
conformer_0

$$$$
