
     RDKit          3D

 21 21  0  0  0  0  0  0  0  0999 V2000
  -24.2673   18.4477  -30.9627 C   0  0  0  0  0  0  0  0  0  0  0  0
  -22.2841   18.1284  -28.9022 C   0  0  0  0  0  0  0  0  0  0  0  0
  -17.3736   17.6911  -24.1057 C   0  0  0  0  0  0  0  0  0  0  0  0
  -20.2945   16.9788  -28.4835 C   0  0  0  0  0  0  0  0  0  0  0  0
  -20.8860   16.7168  -29.8076 N   0  0  0  0  0  0  0  0  0  0  0  0
  -18.5229   16.3968  -27.2019 C   0  0  0  0  0  0  0  0  0  0  0  0
  -20.9245   18.8072  -25.8882 O   0  0  0  0  0  0  0  0  0  0  0  0
  -25.1768   18.0640  -31.3075 C   0  0  0  0  0  0  0  0  0  0  0  0
  -18.9485   15.4571  -29.3431 O   0  0  0  0  0  0  0  0  0  0  0  0
  -18.0425   17.3971  -25.3786 N   0  0  0  0  0  0  0  0  0  0  0  0
  -20.7724   15.9976  -31.0807 C   0  0  0  0  0  0  0  0  0  0  0  0
  -25.5726   17.4376  -32.3435 O   0  0  0  0  0  0  0  0  0  0  0  0
  -18.4224   15.4066  -28.2173 C   0  0  0  0  0  0  0  0  0  0  0  0
  -19.4382   17.7852  -25.7429 C   0  0  0  0  0  0  0  0  0  0  0  0
  -24.0785   18.7527  -28.8719 C   0  0  0  0  0  0  0  0  0  0  0  0
  -23.6029   19.0029  -27.9163 N   0  0  0  0  0  0  0  0  0  0  0  0
  -21.8874   18.6828  -26.9323 C   0  0  0  0  0  0  0  0  0  0  0  0
  -21.8739   17.4472  -29.8695 C   0  0  0  0  0  0  0  0  0  0  0  0
  -23.0411   17.9794  -30.6557 C   0  0  0  0  0  0  0  0  0  0  0  0
  -17.3960   16.8138  -25.9692 C   0  0  0  0  0  0  0  0  0  0  0  0
  -21.0097   17.8403  -27.9343 C   0  0  0  0  0  0  0  0  0  0  0  0
  5  4  1  0
  8  1  1  0
 10  3  1  0
 11  5  1  0
 12  8  1  0
 13  6  1  0
 13  9  2  0
 14  7  1  0
 14 10  1  0
 15  2  1  0
 16 15  1  0
 17  7  1  0
 18  2  1  0
 18  5  1  0
 19  1  2  0
 19 18  2  0
 20  6  1  0
 20 10  1  0
 21  2  1  0
 21  4  1  0
 21 17  1  0
M  END
>  <ID>  (1) 
conformer_0

$$$$
