
     RDKit          3D

 15 15  0  0  0  0  0  0  0  0999 V2000
  -23.6850   18.1033  -30.8766 C   0  0  0  0  0  0  0  0  0  0  0  0
  -17.2599   17.7285  -24.4535 C   0  0  0  0  0  0  0  0  0  0  0  0
  -21.5056   17.6647  -28.2903 C   0  0  0  0  0  0  0  0  0  0  0  0
  -20.3628   16.5678  -28.6875 C   0  0  0  0  0  0  0  0  0  0  0  0
  -20.8947   16.4574  -30.0445 N   0  0  0  0  0  0  0  0  0  0  0  0
  -18.6292   15.9940  -27.0285 C   0  0  0  0  0  0  0  0  0  0  0  0
  -24.9878   18.0578  -31.2439 C   0  0  0  0  0  0  0  0  0  0  0  0
  -18.4196   17.2482  -26.1444 C   0  0  0  0  0  0  0  0  0  0  0  0
  -25.7847   17.6119  -32.0379 O   0  0  0  0  0  0  0  0  0  0  0  0
  -20.3605   15.9065  -31.3264 C   0  0  0  0  0  0  0  0  0  0  0  0
  -21.0463   18.4393  -26.5146 C   0  0  0  0  0  0  0  0  0  0  0  0
  -20.2531   18.5449  -25.5433 O   0  0  0  0  0  0  0  0  0  0  0  0
  -18.4016   17.6959  -25.6517 N   0  0  0  0  0  0  0  0  0  0  0  0
  -19.4347   15.6367  -28.8407 O   0  0  0  0  0  0  0  0  0  0  0  0
  -22.0517   17.2797  -29.8382 C   0  0  0  0  0  0  0  0  0  0  0  0
  4  3  1  0
  5  4  1  0
  7  1  1  0
  8  6  1  0
  9  7  1  0
 10  5  1  0
 11  3  1  0
 12 11  2  0
 13  2  1  0
 13  8  1  0
 14  4  1  0
 14  6  1  0
 15  1  1  0
 15  3  1  0
 15  5  1  0
M  END
>  <ID>  (1) 
conformer_0

$$$$
