
     RDKit          3D

 21 21  0  0  0  0  0  0  0  0999 V2000
  -21.4534   18.0373  -28.0617 C   0  0  0  0  0  0  0  0  0  0  0  0
  -24.2194   18.1378  -31.1522 C   0  0  0  0  0  0  0  0  0  0  0  0
  -16.9874   17.6585  -24.2398 C   0  0  0  0  0  0  0  0  0  0  0  0
  -18.9235   16.2631  -27.1070 C   0  0  1  0  0  0  0  0  0  0  0  0
  -21.8851   17.0694  -30.0997 C   0  0  0  0  0  0  0  0  0  0  0  0
  -20.6983   16.4443  -29.8551 N   0  0  0  0  0  0  0  0  0  0  0  0
  -20.5481   15.7218  -31.2521 C   0  0  0  0  0  0  0  0  0  0  0  0
  -25.3138   17.7953  -31.1500 C   0  0  0  0  0  0  0  0  0  0  0  0
  -19.7095   17.5483  -26.0379 C   0  0  0  0  0  0  0  0  0  0  0  0
  -20.1368   18.4207  -26.0923 N   0  0  0  0  0  0  0  0  0  0  0  0
  -21.8335   18.9185  -27.0497 C   0  0  0  0  0  0  0  0  0  0  0  0
  -25.8443   17.4919  -32.3290 O   0  0  0  0  0  0  0  0  0  0  0  0
  -17.6971   17.6726  -25.0858 N   0  0  0  0  0  0  0  0  0  0  0  0
  -24.0686   18.7275  -29.1329 C   0  0  0  0  0  0  0  0  0  0  0  0
  -23.9999   18.7586  -29.0477 N   0  0  0  0  0  0  0  0  0  0  0  0
  -22.3645   17.8385  -29.0978 C   0  0  0  0  0  0  0  0  0  0  0  0
  -20.4736   17.0507  -28.5730 C   0  0  0  0  0  0  0  0  0  0  0  0
  -19.0852   15.6063  -29.2652 C   0  0  0  0  0  0  0  0  0  0  0  0
  -23.4594   17.1020  -30.7164 C   0  0  0  0  0  0  0  0  0  0  0  0
  -17.1652   16.4992  -26.4607 C   0  0  0  0  0  0  0  0  0  0  0  0
  -17.6880   17.1157  -25.7732 C   0  0  0  0  0  0  0  0  0  0  0  0
  6  5  1  0
  7  6  1  0
  8  2  1  0
  9  4  1  0
 10  9  1  0
 11  1  1  0
 11 10  1  0
 12  8  1  0
 13  3  2  3
 15 14  1  0
 16  1  1  0
 16  5  2  0
 16 14  1  0
 17  1  2  0
 17  6  1  0
  4 18  1  6
 19  2  1  0
 19  5  1  0
 20  4  1  0
 21 13  1  0
 21 20  1  0
M  END
>  <ID>  (1) 
conformer_0

$$$$
