
     RDKit          3D

 20 22  0  0  0  0  0  0  0  0999 V2000
  -24.2236   18.0854  -30.7835 C   0  0  0  0  0  0  0  0  0  0  0  0
  -22.3857   18.1088  -29.2575 C   0  0  0  0  0  0  0  0  0  0  0  0
  -17.4677   17.6145  -24.2243 C   0  0  0  0  0  0  0  0  0  0  0  0
  -19.1213   16.4368  -27.1047 C   0  0  0  0  0  0  0  0  0  0  0  0
  -20.3321   16.9880  -28.7314 C   0  0  0  0  0  0  0  0  0  0  0  0
  -20.8831   16.5840  -29.8190 N   0  0  0  0  0  0  0  0  0  0  0  0
  -19.1979   17.8034  -26.1843 C   0  0  0  0  0  0  0  0  0  0  0  0
  -20.8727   18.6747  -25.8280 O   0  0  0  0  0  0  0  0  0  0  0  0
  -25.3242   17.9167  -31.2233 C   0  0  0  0  0  0  0  0  0  0  0  0
  -25.9337   17.5897  -32.2084 O   0  0  0  0  0  0  0  0  0  0  0  0
  -19.3779   15.6732  -29.1086 O   0  0  0  0  0  0  0  0  0  0  0  0
  -21.9334   17.1853  -30.0694 C   0  0  0  0  0  0  0  0  0  0  0  0
  -20.5184   15.6617  -31.0255 C   0  0  0  0  0  0  0  0  0  0  0  0
  -22.9831   17.6130  -31.0844 C   0  0  0  0  0  0  0  0  0  0  0  0
  -18.4965   18.0645  -25.2107 N   0  0  0  0  0  0  0  0  0  0  0  0
  -21.0374   18.6880  -26.9526 C   0  0  0  0  0  0  0  0  0  0  0  0
  -18.5864   15.5336  -28.7988 C   0  0  0  0  0  0  0  0  0  0  0  0
  -21.1939   18.0201  -28.2376 C   0  0  0  0  0  0  0  0  0  0  0  0
  -17.6844   16.3629  -26.4237 C   0  0  0  0  0  0  0  0  0  0  0  0
  -17.1241   16.8550  -25.7434 C   0  0  0  0  0  0  0  0  0  0  0  0
  6  5  1  0
  7  4  1  0
  9  1  1  0
 10  9  1  0
 11  5  1  0
 12  2  2  0
 12  6  1  0
 13  6  1  0
 14  1  1  0
 14 12  1  0
 15  3  1  0
 15  7  1  0
 16  8  2  0
 17  4  1  0
 17 11  1  0
 18  2  1  0
 18  5  2  0
 18 16  1  0
 19  4  1  0
 20  3  1  0
 20 15  1  0
 20 19  1  0
M  END
>  <ID>  (1) 
conformer_0

$$$$
