
     RDKit          3D

 17 17  0  0  0  0  0  0  0  0999 V2000
  -18.3644   17.3853  -25.8031 C   0  0  0  0  0  0  0  0  0  0  0  0
  -23.8487   18.2761  -31.7292 C   0  0  0  0  0  0  0  0  0  0  0  0
  -21.2631   18.0692  -28.1049 C   0  0  0  0  0  0  0  0  0  0  0  0
  -22.2030   17.1964  -29.9209 C   0  0  2  0  0  0  0  0  0  0  0  0
  -18.9736   16.3368  -27.1703 C   0  0  0  0  0  0  0  0  0  0  0  0
  -20.3476   18.5793  -26.0041 O   0  0  0  0  0  0  0  0  0  0  0  0
  -21.0710   16.4241  -29.9314 N   0  0  0  0  0  0  0  0  0  0  0  0
  -17.4492   17.7141  -24.3523 C   0  0  0  0  0  0  0  0  0  0  0  0
  -19.7124   15.7804  -30.4572 C   0  0  0  0  0  0  0  0  0  0  0  0
  -25.1285   17.8986  -31.3991 C   0  0  0  0  0  0  0  0  0  0  0  0
  -25.7893   17.2138  -32.0898 O   0  0  0  0  0  0  0  0  0  0  0  0
  -16.9902   17.6166  -23.1718 O   0  0  0  0  0  0  0  0  0  0  0  0
  -20.6955   18.4529  -26.7628 C   0  0  0  0  0  0  0  0  0  0  0  0
  -20.6062   16.8509  -28.5135 C   0  0  2  0  0  0  0  0  0  0  0  0
  -23.2933   17.7606  -30.6175 C   0  0  0  0  0  0  0  0  0  0  0  0
  -22.3792   18.0006  -29.0512 C   0  0  0  0  0  0  0  0  0  0  0  0
  -22.0610   16.1054  -31.1327 C   0  0  0  0  0  0  0  0  0  0  0  0
  5  1  2  3
  7  4  1  0
  8  1  1  0
 10  2  1  0
 11 10  1  0
 12  8  1  0
 13  3  2  0
 13  6  2  0
 14  3  1  0
 14  5  1  0
 14  7  1  6
 15  2  1  0
  4 15  1  6
 16  3  1  0
 16  4  1  0
 17  4  1  0
 17  9  1  0
M  END
>  <ID>  (1) 
conformer_0

$$$$
