
     RDKit          3D

 21 25  0  0  0  0  0  0  0  0999 V2000
  -24.1811   18.2969  -31.5651 C   0  0  0  0  0  0  0  0  0  0  0  0
  -22.1650   18.1088  -28.9266 C   0  0  0  0  0  0  0  0  0  0  0  0
  -19.5923   17.5920  -25.4225 C   0  0  0  0  0  0  0  0  0  0  0  0
  -19.2150   16.9878  -27.1433 C   0  0  0  0  0  0  0  0  0  0  0  0
  -20.7724   16.6683  -30.0875 N   0  0  0  0  0  0  0  0  0  0  0  0
  -20.2841   16.8767  -28.8053 C   0  0  0  0  0  0  0  0  0  0  0  0
  -20.4478   18.1069  -25.9689 N   0  0  0  0  0  0  0  0  0  0  0  0
  -25.1444   17.9936  -31.1239 C   0  0  0  0  0  0  0  0  0  0  0  0
  -20.5233   16.0290  -31.0832 C   0  0  0  0  0  0  0  0  0  0  0  0
  -19.3827   15.5456  -28.6507 O   0  0  0  0  0  0  0  0  0  0  0  0
  -25.8224   17.0687  -32.0367 O   0  0  0  0  0  0  0  0  0  0  0  0
  -17.1206   16.7473  -25.7872 C   0  0  0  0  0  0  0  0  0  0  0  0
  -19.1520   16.3421  -27.3728 C   0  0  0  0  0  0  0  0  0  0  0  0
  -17.7704   17.4229  -24.9220 N   0  0  0  0  0  0  0  0  0  0  0  0
  -23.1562   19.0567  -27.5504 O   0  0  0  0  0  0  0  0  0  0  0  0
  -21.5317   18.6887  -27.3734 C   0  0  0  0  0  0  0  0  0  0  0  0
  -23.0499   17.8959  -30.7283 C   0  0  0  0  0  0  0  0  0  0  0  0
  -21.9708   17.6301  -30.0319 C   0  0  0  0  0  0  0  0  0  0  0  0
  -20.7645   17.7771  -28.0815 C   0  0  0  0  0  3  0  0  0  0  0  0
  -17.9843   17.7665  -24.1221 C   0  0  0  0  0  0  0  0  0  0  0  0
  -17.7573   15.7816  -26.9509 C   0  0  0  0  0  0  0  0  0  0  0  0
  4  3  1  0
  6  5  1  0
  7  3  1  0
  8  1  1  0
  9  5  1  0
 10  6  1  0
 11  8  1  0
 13  4  1  0
 13  6  1  0
 13 10  1  0
 14  3  1  0
 14 12  1  0
 16  2  1  0
 16  7  1  0
 16 15  1  0
 17  1  1  0
 18  2  2  0
 18  5  1  0
 18 17  1  0
 19  2  1  0
 19  6  1  0
 19 16  1  0
 20 14  1  0
 21 12  1  0
 21 13  1  0
M  RAD  1  19   2
M  END
>  <ID>  (1) 
conformer_0

$$$$
