
     RDKit          3D

 16 16  0  0  0  0  0  0  0  0999 V2000
  -17.2241   16.9776  -25.5198 C   0  0  0  0  0  0  0  0  0  0  0  0
  -23.8423   18.0609  -30.8920 C   0  0  0  0  0  0  0  0  0  0  0  0
  -21.6958   17.8046  -28.4956 C   0  0  0  0  0  0  0  0  0  0  0  0
  -20.5736   16.8730  -28.4635 C   0  0  0  0  0  0  0  0  0  0  0  0
  -18.6110   16.1584  -27.1610 C   0  0  0  0  0  0  0  0  0  0  0  0
  -25.0552   17.8066  -31.4552 C   0  0  0  0  0  0  0  0  0  0  0  0
  -17.3436   17.6767  -23.9379 C   0  0  0  0  0  0  0  0  0  0  0  0
  -25.9441   17.3139  -32.4079 O   0  0  0  0  0  0  0  0  0  0  0  0
  -20.8938   16.4632  -29.6016 N   0  0  0  0  0  0  0  0  0  0  0  0
  -18.3998   17.6555  -25.5984 N   0  0  0  0  0  0  0  0  0  0  0  0
  -19.1123   17.9724  -25.4516 C   0  0  0  0  0  0  0  0  0  0  0  0
  -19.3758   15.4655  -29.0476 O   0  0  0  0  0  0  0  0  0  0  0  0
  -19.9523   15.8624  -30.4893 C   0  0  0  0  0  0  0  0  0  0  0  0
  -22.0552   17.2832  -29.8230 C   0  0  0  0  0  0  0  0  0  0  0  0
  -21.5108   18.6367  -27.0919 C   0  0  0  0  0  0  0  0  0  0  0  0
  -18.9414   16.7039  -27.2473 C   0  0  0  0  0  0  0  0  0  0  0  0
  4  3  2  0
  6  2  1  0
  7  1  1  0
  8  6  1  0
  9  4  1  0
 10  1  1  0
 11 10  1  0
 13  9  1  0
 13 12  1  0
 14  2  1  0
 14  3  1  0
 14  9  1  0
 15  3  1  0
 16  4  1  0
 16  5  2  3
 16 11  1  0
M  END
>  <ID>  (1) 
conformer_0

$$$$
