
     RDKit          3D

 20 22  0  0  0  0  0  0  0  0999 V2000
  -24.0969   18.1456  -30.8233 C   0  0  0  0  0  0  0  0  0  0  0  0
  -21.2577   18.0583  -27.9793 C   0  0  0  0  0  0  0  0  0  0  0  0
  -18.3752   17.9548  -24.7629 C   0  0  0  0  0  0  0  0  0  0  0  0
  -22.4575   17.7620  -29.8569 C   0  0  0  0  0  0  0  0  0  0  0  0
  -20.2087   18.4219  -25.9730 O   0  0  0  0  0  0  0  0  0  0  0  0
  -20.0483   15.6882  -30.5597 C   0  0  0  0  0  0  0  0  0  0  0  0
  -18.2226   16.4077  -26.8408 C   0  0  0  0  0  0  0  0  0  0  0  0
  -21.2905   16.6749  -30.1218 N   0  0  0  0  0  0  0  0  0  0  0  0
  -25.6745   17.7793  -32.2256 O   0  0  0  0  0  0  0  0  0  0  0  0
  -24.8207   18.3740  -30.5691 C   0  0  0  0  0  0  0  0  0  0  0  0
  -16.9566   17.1190  -25.1000 C   0  0  0  0  0  0  0  0  0  0  0  0
  -19.8295   15.8537  -28.8689 O   0  0  0  0  0  0  0  0  0  0  0  0
  -17.9852   17.6414  -25.1588 N   0  0  0  0  0  0  0  0  0  0  0  0
  -20.8237   17.0901  -28.7267 C   0  0  0  0  0  0  0  0  0  0  0  0
  -20.5814   18.1587  -26.6810 C   0  0  0  0  0  0  0  0  0  0  0  0
  -22.8254   17.5855  -31.4677 C   0  0  0  0  0  0  0  0  0  0  0  0
  -18.8303   16.5777  -26.9436 C   0  0  0  0  0  0  0  0  0  0  0  0
  -22.8907   18.9864  -28.0792 C   0  0  0  0  0  0  0  0  0  0  0  0
  -22.3542   18.2549  -29.0736 C   0  0  0  0  0  3  0  0  0  0  0  0
  -21.7173   16.3646  -31.5449 C   0  0  0  0  0  0  0  0  0  0  0  0
  4  1  1  0
  5  3  1  0
  8  4  1  0
 10  1  1  0
 10  9  1  0
 12  6  1  0
 13  3  1  0
 13  7  1  0
 13 11  1  0
 14  2  2  0
 14  8  1  0
 14 12  1  0
 15  2  1  0
 15  5  1  0
 16  1  1  0
 16  4  1  0
 17  7  1  0
 19  2  1  0
 19  4  1  0
 19 18  1  0
 20  8  1  0
 20 16  1  0
M  RAD  1  19   2
M  END
>  <ID>  (1) 
conformer_0

$$$$
