
     RDKit          3D

 18 18  0  0  0  0  0  0  0  0999 V2000
  -24.2459   18.1795  -31.2581 C   0  0  0  0  0  0  0  0  0  0  0  0
  -22.1480   18.1629  -28.8601 C   0  0  0  0  0  0  0  0  0  0  0  0
  -19.0363   17.8701  -24.9648 C   0  0  0  0  0  0  0  0  0  0  0  0
  -20.2961   16.9506  -28.6441 C   0  0  0  0  0  0  0  0  0  0  0  0
  -18.3638   16.1246  -26.9308 C   0  0  0  0  0  0  0  0  0  0  0  0
  -20.7406   16.6995  -29.8095 N   0  0  0  0  0  0  0  0  0  0  0  0
  -18.9365   15.3933  -29.1382 O   0  0  0  0  0  0  0  0  0  0  0  0
  -25.2005   17.7821  -31.5749 C   0  0  0  0  0  0  0  0  0  0  0  0
  -18.6543   17.6332  -25.4101 N   0  0  0  0  0  0  0  0  0  0  0  0
  -25.9285   17.3985  -32.3747 O   0  0  0  0  0  0  0  0  0  0  0  0
  -17.2732   17.2026  -24.9174 C   0  0  0  0  0  0  0  0  0  0  0  0
  -20.9701   18.8471  -25.7162 O   0  0  0  0  0  0  0  0  0  0  0  0
  -21.2713   18.6576  -26.5772 C   0  0  0  0  0  0  0  0  0  0  0  0
  -20.7367   16.1652  -31.0704 C   0  0  0  0  0  0  0  0  0  0  0  0
  -22.0287   17.3939  -29.9477 C   0  0  0  0  0  0  0  0  0  0  0  0
  -20.9580   17.9017  -27.8756 C   0  0  0  0  0  0  0  0  0  0  0  0
  -18.6341   16.4515  -27.1553 C   0  0  0  0  0  0  0  0  0  0  0  0
  -23.1531   17.3841  -30.8015 C   0  0  0  0  0  0  0  0  0  0  0  0
  6  4  1  0
  8  1  1  0
  9  3  1  0
 10  8  1  0
 11  9  1  0
 12  3  1  0
 13 12  1  0
 14  6  1  0
 15  2  2  0
 15  6  1  0
 16  2  1  0
 16  4  2  0
 16 13  1  0
 17  5  1  0
 17  7  2  0
 17  9  1  0
 18  1  1  0
 18 15  1  0
M  END
>  <ID>  (1) 
conformer_0

$$$$
