
     RDKit          3D

 18 18  0  0  0  0  0  0  0  0999 V2000
  -24.2810   18.4325  -31.3823 C   0  0  0  0  0  0  0  0  0  0  0  0
  -22.3964   17.9816  -29.2190 C   0  0  0  0  0  0  0  0  0  0  0  0
  -16.9926   17.4277  -24.9598 C   0  0  0  0  0  0  0  0  0  0  0  0
  -20.2928   16.8850  -28.4245 C   0  0  0  0  0  3  0  0  0  0  0  0
  -18.0603   16.4989  -26.8523 C   0  0  0  0  0  0  0  0  0  0  0  0
  -19.0315   17.5295  -25.2483 C   0  0  0  0  0  0  0  0  0  0  0  0
  -20.5758   16.7520  -29.5906 N   0  0  0  0  0  0  0  0  0  0  0  0
  -25.8652   16.9732  -31.9218 O   0  0  0  0  0  0  0  0  0  0  0  0
  -25.1507   17.6046  -31.6001 C   0  0  0  0  0  0  0  0  0  0  0  0
  -19.3043   15.8898  -28.5692 O   0  0  0  0  0  0  0  0  0  0  0  0
  -19.4657   18.2723  -25.5140 O   0  0  0  0  0  0  0  0  0  0  0  0
  -23.1962   17.8492  -30.7631 C   0  0  0  0  0  0  0  0  0  0  0  0
  -19.6476   16.1133  -30.7407 C   0  0  0  0  0  0  0  0  0  0  0  0
  -21.7204   17.2186  -29.9581 C   0  0  0  0  0  0  0  0  0  0  0  0
  -21.1243   17.8841  -26.5025 C   0  0  0  0  0  0  0  0  0  0  0  0
  -22.9160   18.8205  -27.0506 O   0  0  0  0  0  0  0  0  0  0  0  0
  -21.3594   18.0085  -28.0437 C   0  0  1  0  0  0  0  0  0  0  0  0
  -18.4156   16.4036  -27.0874 C   0  0  0  0  0  0  0  0  0  0  0  0
  6  3  1  0
  7  4  1  0
  9  1  1  0
  9  8  1  0
 10  4  1  0
 11  6  1  0
 12  1  1  0
 12  2  1  0
 13  7  1  0
 14  2  2  0
 14  7  1  0
 15 11  1  0
 17  2  1  0
 17  4  1  0
 17 15  1  0
 17 16  1  6
 18  5  2  3
 18 10  1  0
M  RAD  1   4   2
M  END
>  <ID>  (1) 
conformer_0

$$$$
