
     RDKit          3D

 16 16  0  0  0  0  0  0  0  0999 V2000
  -24.1021   18.3033  -31.5509 C   0  0  0  0  0  0  0  0  0  0  0  0
  -22.2921   17.9672  -28.9423 C   0  0  0  0  0  0  0  0  0  0  0  0
  -17.1495   17.3863  -24.5902 C   0  0  0  0  0  0  0  0  0  0  0  0
  -20.7978   16.4959  -29.7683 N   0  0  0  0  0  0  0  0  0  0  0  0
  -22.3555   17.2503  -30.1149 C   0  0  0  0  0  0  0  0  0  0  0  0
  -18.9390   16.2163  -27.0250 C   0  0  0  0  0  0  0  0  0  0  0  0
  -18.3825   17.5462  -25.4364 C   0  0  0  0  0  0  0  0  0  0  0  0
  -20.0480   18.5467  -25.8744 O   0  0  0  0  0  0  0  0  0  0  0  0
  -25.7236   17.0737  -31.5205 O   0  0  0  0  0  0  0  0  0  0  0  0
  -20.2590   15.6189  -30.6247 C   0  0  0  0  0  0  0  0  0  0  0  0
  -20.9057   18.4760  -26.9869 C   0  0  0  0  0  0  0  0  0  0  0  0
  -25.2032   17.6062  -31.4783 C   0  0  0  0  0  0  0  0  0  0  0  0
  -23.3991   17.7078  -30.7812 C   0  0  0  0  0  0  0  0  0  0  0  0
  -18.9797   16.4933  -27.2771 C   0  0  0  0  0  0  0  0  0  0  0  0
  -21.0319   17.8947  -28.1575 C   0  0  0  0  0  0  0  0  0  0  0  0
  -20.4129   16.9375  -28.9339 C   0  0  0  0  0  0  0  0  0  0  0  0
  5  2  2  0
  5  4  1  0
  7  3  1  0
  7  6  1  0
  8  7  1  0
 10  4  1  0
 11  8  1  0
 12  1  1  0
 12  9  1  0
 13  1  1  0
 13  5  1  0
 14  6  1  0
 15  2  1  0
 15 11  1  0
 16  4  1  0
 16 15  2  0
M  END
>  <ID>  (1) 
conformer_0

$$$$
