
     RDKit          3D

 21 23  0  0  0  0  0  0  0  0999 V2000
  -24.1079   18.2783  -31.1103 C   0  0  0  0  0  0  0  0  0  0  0  0
  -22.3326   18.0130  -28.8865 C   0  0  0  0  0  0  0  0  0  0  0  0
  -17.4642   17.5338  -24.2124 C   0  0  0  0  0  0  0  0  0  0  0  0
  -19.3608   16.6043  -26.7032 C   0  0  0  0  0  0  0  0  0  0  0  0
  -22.1596   17.3819  -29.9198 C   0  0  0  0  0  0  0  0  0  0  0  0
  -21.4618   18.7246  -25.7984 O   0  0  0  0  0  0  0  0  0  0  0  0
  -20.8350   16.5955  -29.6617 N   0  0  0  0  0  0  0  0  0  0  0  0
  -19.3227   17.7429  -25.8826 C   0  0  0  0  0  0  0  0  0  0  0  0
  -25.7273   17.6931  -32.4011 O   0  0  0  0  0  0  0  0  0  0  0  0
  -25.4287   18.0991  -31.1536 C   0  0  0  0  0  0  0  0  0  0  0  0
  -20.3223   15.6985  -30.9718 C   0  0  0  0  0  0  0  0  0  0  0  0
  -19.0212   15.7960  -28.7992 O   0  0  0  0  0  0  0  0  0  0  0  0
  -21.4137   18.6299  -26.6774 C   0  0  0  0  0  0  0  0  0  0  0  0
  -17.5581   17.8095  -25.2117 N   0  0  0  0  0  0  0  0  0  0  0  0
  -20.5059   16.8755  -28.6428 C   0  0  0  0  0  0  0  0  0  0  0  0
  -23.1255   17.5792  -30.8877 C   0  0  0  0  0  0  0  0  0  0  0  0
  -18.9631   16.0198  -28.0738 C   0  0  0  0  0  0  0  0  0  0  0  0
  -21.1974   17.7260  -27.7939 C   0  0  0  0  0  0  0  0  0  0  0  0
  -19.6232   18.5606  -25.5869 O   0  0  0  0  0  0  0  0  0  0  0  0
  -17.9233   15.8499  -26.8285 C   0  0  0  0  0  0  0  0  0  0  0  0
  -17.2616   16.9426  -25.9030 C   0  0  0  0  0  0  0  0  0  0  0  0
  5  2  2  0
  7  5  1  0
  8  4  1  0
 10  1  1  0
 10  9  1  0
 11  7  1  0
 13  6  2  0
 14  3  1  0
 14  8  1  0
 15  7  1  0
 16  1  1  0
 16  5  1  0
 17  4  1  0
 17 12  1  0
 17 15  1  0
 18  2  1  0
 18 13  1  0
 18 15  2  0
 19  8  2  0
 20  4  1  0
 20 17  1  0
 21 14  1  0
 21 20  1  0
M  END
>  <ID>  (1) 
conformer_0

$$$$
