
     RDKit          3D

 18 19  0  0  0  0  0  0  0  0999 V2000
  -23.6369   17.4667  -30.8153 C   0  0  0  0  0  0  0  0  0  0  0  0
  -22.3499   17.9835  -29.0896 C   0  0  0  0  0  0  0  0  0  0  0  0
  -17.6672   16.9180  -26.2286 C   0  0  1  0  0  0  0  0  0  0  0  0
  -18.6730   16.3301  -26.7735 C   0  0  0  0  0  0  0  0  0  0  0  0
  -22.2616   17.2991  -30.0253 C   0  0  0  0  0  0  0  0  0  0  0  0
  -20.8378   16.6228  -29.8247 N   0  0  0  0  0  0  0  0  0  0  0  0
  -18.8800   15.5252  -29.0820 O   0  0  0  0  0  0  0  0  0  0  0  0
  -19.9616   15.8855  -30.7278 C   0  0  0  0  0  0  0  0  0  0  0  0
  -19.9467   17.6392  -25.5751 C   0  0  0  0  0  0  0  0  0  0  0  0
  -21.7785   18.7807  -27.1267 C   0  0  1  0  0  0  0  0  0  0  0  0
  -23.1835   19.2258  -27.6173 O   0  0  0  0  0  0  0  0  0  0  0  0
  -20.5091   16.9328  -28.6840 C   0  0  0  0  0  0  0  0  0  0  0  0
  -19.1409   17.7004  -25.4528 N   0  0  0  0  0  0  0  0  0  0  0  0
  -17.2441   17.4951  -25.0235 N   0  0  0  0  0  0  0  0  0  0  0  0
  -24.1935   18.1661  -31.4732 C   0  0  0  0  0  0  0  0  0  0  0  0
  -20.6991   18.5527  -25.9986 O   0  0  0  0  0  0  0  0  0  0  0  0
  -17.9218   17.4848  -24.3670 C   0  0  0  0  0  0  0  0  0  0  0  0
  -21.2020   17.8416  -28.0142 C   0  0  0  0  0  0  0  0  0  0  0  0
  3  4  1  1
  5  1  1  0
  5  2  2  0
  6  5  1  0
  8  6  1  0
  8  7  1  0
 10 11  1  1
 12  6  1  0
 13  3  1  0
 13  9  1  0
 14  3  1  0
 15  1  2  3
 16  9  1  0
 16 10  1  0
 17 13  1  0
 17 14  1  0
 18  2  1  0
 18 10  1  0
 18 12  2  0
M  END
>  <ID>  (1) 
conformer_0

$$$$
