
     RDKit          3D

 17 18  0  0  0  0  0  0  0  0999 V2000
  -17.1937   17.3026  -24.6295 C   0  0  0  0  0  0  0  0  0  0  0  0
  -21.4214   17.9276  -28.5124 C   0  0  0  0  0  0  0  0  0  0  0  0
  -23.0744   17.8730  -30.5768 C   0  0  1  0  0  0  0  0  0  0  0  0
  -20.1052   16.9321  -28.3752 C   0  0  0  0  0  0  0  0  0  0  0  0
  -20.8767   18.4666  -26.3427 C   0  0  0  0  0  0  0  0  0  0  0  0
  -18.1265   16.2558  -26.9060 C   0  0  0  0  0  0  0  0  0  0  0  0
  -20.6771   16.4620  -29.6002 N   0  0  0  0  0  0  0  0  0  0  0  0
  -24.7526   17.7708  -31.4296 C   0  0  0  0  0  0  0  0  0  0  0  0
  -25.5210   16.6703  -31.9418 O   0  0  0  0  0  0  0  0  0  0  0  0
  -20.7473   15.8914  -30.7580 C   0  0  0  0  0  0  0  0  0  0  0  0
  -18.7703   17.6460  -25.5421 C   0  0  0  0  0  0  0  0  0  0  0  0
  -18.8042   17.7597  -25.5315 N   0  0  0  0  0  0  0  0  0  0  0  0
  -18.4076   16.0732  -27.6436 C   0  0  0  0  0  0  0  0  0  0  0  0
  -22.9106   18.5656  -29.0031 C   0  0  0  0  0  0  0  0  0  0  0  0
  -20.0325   18.5018  -25.3044 O   0  0  0  0  0  0  0  0  0  0  0  0
  -21.5939   17.1485  -29.8052 C   0  0  0  0  0  0  0  0  0  0  0  0
  -24.7386   18.2671  -31.5938 C   0  0  0  0  0  0  0  0  0  0  0  0
  4  2  1  0
  7  4  1  0
  8  3  1  0
  9  8  1  0
 10  7  1  0
 11  1  1  0
 11  6  1  0
 12 11  2  3
 13  4  1  0
 13  6  2  3
 14  2  1  0
  3 14  1  1
 15  5  1  0
 15 12  1  0
 16  2  2  0
 16  3  1  0
 16  7  1  0
 17  8  2  3
M  END
>  <ID>  (1) 
conformer_0

$$$$
