
     RDKit          3D

 21 22  0  0  0  0  0  0  0  0999 V2000
  -22.1988   17.9726  -28.9096 C   0  0  0  0  0  0  0  0  0  0  0  0
  -23.3588   17.8847  -30.0710 C   0  0  0  0  0  0  0  0  0  0  0  0
  -17.7580   15.8794  -27.1278 C   0  0  0  0  0  0  0  0  0  0  0  0
  -17.5535   17.7953  -24.3049 C   0  0  0  0  0  0  0  0  0  0  0  0
  -20.6996   16.3631  -29.8819 N   0  0  0  0  0  0  0  0  0  0  0  0
  -20.6062   16.6608  -29.0200 C   0  0  1  0  0  0  0  0  0  0  0  0
  -25.6539   18.1113  -29.7884 O   0  0  0  0  0  0  0  0  0  0  0  0
  -20.6493   18.9437  -26.2014 O   0  0  0  0  0  0  0  0  0  0  0  0
  -25.3636   17.9445  -31.2800 C   0  0  0  0  0  0  0  0  0  0  0  0
  -18.7655   14.9614  -29.1503 O   0  0  0  0  0  0  0  0  0  0  0  0
  -25.9862   17.2818  -32.3108 O   0  0  0  0  0  0  0  0  0  0  0  0
  -19.4510   17.7025  -26.2431 C   0  0  2  0  0  0  0  0  0  0  0  0
  -20.2747   15.7428  -31.2075 C   0  0  0  0  0  3  0  0  0  0  0  0
  -21.7903   19.1165  -27.1220 C   0  0  0  0  0  0  0  0  0  0  0  0
  -18.2529   17.4319  -25.5320 N   0  0  0  0  0  0  0  0  0  0  0  0
  -18.9197   15.9056  -28.5892 C   0  0  2  0  0  0  0  0  0  0  0  0
  -20.9098   17.6345  -28.0649 C   0  0  0  0  0  0  0  0  0  0  0  0
  -22.4238   17.3607  -29.9989 C   0  0  0  0  0  0  0  0  0  0  0  0
  -17.5799   16.8692  -25.8935 C   0  0  0  0  0  0  0  0  0  0  0  0
  -19.2488   16.6165  -27.4627 C   0  0  1  0  0  0  0  0  0  0  0  0
  -24.2721   17.9254  -31.3314 C   0  0  0  0  0  0  0  0  0  0  0  0
  6  5  1  6
  9  7  2  0
 11  9  1  0
 12  8  1  6
 13  5  2  3
 14  8  1  0
 15  4  1  0
 15 12  1  0
 16  6  1  0
 16 10  1  1
 17  1  2  3
 17  6  1  0
 17 14  1  0
 18  1  1  0
 18  2  2  3
 19  3  1  0
 19 15  1  0
 20  3  1  1
 20 12  1  0
 20 16  1  0
 21  2  1  0
 21  9  1  0
M  RAD  1  13   2
M  END
>  <ID>  (1) 
conformer_0

$$$$
