
     RDKit          3D

 20 23  0  0  0  0  0  0  0  0999 V2000
  -24.2879   17.8569  -30.7804 C   0  0  0  0  0  0  0  0  0  0  0  0
  -22.2079   17.9975  -28.8809 C   0  0  0  0  0  0  0  0  0  0  0  0
  -18.2926   15.8908  -26.9165 C   0  0  0  0  0  0  0  0  0  0  0  0
  -17.6233   17.8959  -24.1507 C   0  0  0  0  0  0  0  0  0  0  0  0
  -20.7401   16.4526  -29.7595 N   0  0  0  0  0  0  0  0  0  0  0  0
  -22.1244   17.4092  -29.9486 C   0  0  0  0  0  0  0  0  0  0  0  0
  -18.2636   17.7529  -25.1402 N   0  0  0  0  0  0  0  0  0  0  0  0
  -19.8568   17.8981  -25.9730 C   0  0  0  0  0  0  0  0  0  0  0  0
  -25.5802   17.2140  -32.2910 O   0  0  0  0  0  0  0  0  0  0  0  0
  -22.1884   18.7963  -27.1576 C   0  0  0  0  0  0  0  0  0  0  0  0
  -20.3958   15.7510  -30.9491 C   0  0  0  0  0  0  0  0  0  0  0  0
  -20.3428   18.1945  -25.6711 O   0  0  0  0  0  0  0  0  0  0  0  0
  -24.9971   17.5701  -31.1693 C   0  0  0  0  0  0  0  0  0  0  0  0
  -23.4082   18.7808  -27.3358 O   0  0  0  0  0  0  0  0  0  0  0  0
  -18.9152   15.8063  -28.4405 C   0  0  0  0  0  0  0  0  0  0  0  0
  -23.1293   17.7900  -30.8719 C   0  0  0  0  0  0  0  0  0  0  0  0
  -21.0713   17.7824  -28.0350 C   0  0  0  0  0  0  0  0  0  0  0  0
  -20.3894   16.8344  -28.7339 C   0  0  0  0  0  3  0  0  0  0  0  0
  -19.5334   17.2607  -27.0377 C   0  0  0  0  0  0  0  0  0  0  0  0
  -17.6604   16.9809  -25.7739 C   0  0  0  0  0  0  0  0  0  0  0  0
  6  2  2  0
  6  5  1  0
  7  4  1  0
  8  7  1  0
 10  2  1  0
 11  5  1  0
 12  8  2  0
 13  1  1  0
 13  9  1  0
 14 10  1  0
 15  3  1  0
 16  1  1  0
 16  6  1  0
 17  2  1  0
 17 10  1  0
 18  5  1  0
 18 15  1  0
 18 17  1  0
 19  3  1  0
 19  8  1  0
 19 17  1  0
 20  3  1  0
 20  7  1  0
M  RAD  1  18   2
M  END
>  <ID>  (1) 
conformer_0

$$$$
