
     RDKit          3D

 18 19  0  0  0  0  0  0  0  0999 V2000
  -24.2156   18.2378  -31.1317 C   0  0  0  0  0  0  0  0  0  0  0  0
  -17.4245   17.1039  -25.4145 C   0  0  2  0  0  0  0  0  0  0  0  0
  -21.6658   17.8543  -28.6547 C   0  0  2  0  0  0  0  0  0  0  0  0
  -20.3407   16.7062  -28.6388 C   0  0  0  0  0  0  0  0  0  0  0  0
  -18.4274   16.3371  -26.8565 C   0  0  0  0  0  0  0  0  0  0  0  0
  -20.7425   16.3675  -29.9109 N   0  0  0  0  0  0  0  0  0  0  0  0
  -17.1562   17.7121  -23.6887 C   0  0  0  0  0  0  0  0  0  0  0  0
  -25.1533   18.1772  -31.4289 C   0  0  0  0  0  0  0  0  0  0  0  0
  -25.8422   17.3279  -32.1443 O   0  0  0  0  0  0  0  0  0  0  0  0
  -20.6539   18.2112  -25.9431 O   0  0  0  0  0  0  0  0  0  0  0  0
  -21.8573   18.5793  -27.2514 C   0  0  2  0  0  0  0  0  0  0  0  0
  -18.3477   17.9533  -25.3090 N   0  0  0  0  0  0  0  0  0  0  0  0
  -19.9498   15.5028  -30.8429 C   0  0  0  0  0  0  0  0  0  0  0  0
  -19.4777   15.8839  -28.5356 O   0  0  0  0  0  0  0  0  0  0  0  0
  -21.7483   17.2262  -29.9977 C   0  0  1  0  0  0  0  0  0  0  0  0
  -23.3436   19.2568  -28.0437 N   0  0  0  0  0  0  0  0  0  0  0  0
  -23.0086   17.6946  -30.9701 C   0  0  0  0  0  0  0  0  0  0  0  0
  -19.2579   17.2900  -26.3125 C   0  0  0  0  0  0  0  0  0  0  0  0
  3  4  1  1
  5  2  1  0
  6  4  1  0
  2  7  1  1
  8  1  2  3
  9  8  1  0
 11  3  1  0
 11 10  1  0
 12  2  1  0
 13  6  1  0
 14  4  2  0
 15  3  1  0
 15  6  1  0
 11 16  1  1
 17  1  1  0
 15 17  1  1
 18  5  1  0
 18 10  1  0
 18 12  2  0
M  END
>  <ID>  (1) 
conformer_0

$$$$
