
     RDKit          3D

 18 17  0  0  0  0  0  0  0  0999 V2000
  -23.6661   18.2082  -31.3455 C   0  0  0  0  0  0  0  0  0  0  0  0
  -18.7788   17.7499  -25.0134 C   0  0  2  0  0  0  0  0  0  0  0  0
  -21.7308   18.2120  -28.6628 C   0  0  1  0  0  0  0  0  0  0  0  0
  -19.1408   15.7869  -28.7329 C   0  0  0  0  0  0  0  0  0  0  0  0
  -21.8501   17.4944  -29.9293 C   0  0  1  0  0  0  0  0  0  0  0  0
  -18.2813   15.9770  -26.8371 C   0  0  0  0  0  0  0  0  0  0  0  0
  -23.0215   18.7219  -26.7889 O   0  0  0  0  0  0  0  0  0  0  0  0
  -21.1441   16.7890  -30.1829 N   0  0  0  0  0  0  0  0  0  0  0  0
  -21.5478   18.9441  -26.9016 C   0  0  1  0  0  0  0  0  0  0  0  0
  -20.6192   18.5155  -25.8491 O   0  0  0  0  0  0  0  0  0  0  0  0
  -17.1200   17.3486  -24.4288 C   0  0  0  0  0  0  0  0  0  0  0  0
  -16.6002   17.2577  -24.1017 O   0  0  0  0  0  0  0  0  0  0  0  0
  -24.7876   17.8381  -32.0824 C   0  0  0  0  0  0  0  0  0  0  0  0
  -19.3778   15.7557  -28.8977 O   0  0  0  0  0  0  0  0  0  0  0  0
  -18.5601   16.9833  -26.5081 C   0  0  0  0  0  0  0  0  0  0  0  0
  -23.0809   17.4368  -31.1889 C   0  0  0  0  0  0  0  0  0  0  0  0
  -20.6179   17.5303  -28.3361 C   0  0  0  0  0  0  0  0  0  0  0  0
  -20.3367   15.7487  -31.2180 C   0  0  0  0  0  3  0  0  0  0  0  0
  5  3  1  0
  6  4  1  0
  8  5  1  0
  9  3  1  0
  9  7  1  1
 10  2  1  0
 10  9  1  0
  2 11  1  6
 12 11  1  0
 13  1  1  0
 14  4  2  0
 15  2  1  0
 15  6  1  0
 16  1  1  0
  5 16  1  1
  3 17  1  6
 18  8  2  3
M  RAD  1  18   2
M  END
>  <ID>  (1) 
conformer_0

$$$$
