
     RDKit          3D

 19 19  0  0  0  0  0  0  0  0999 V2000
  -21.3001   17.7283  -28.1381 C   0  0  0  0  0  0  0  0  0  0  0  0
  -24.9025   18.3207  -31.0802 C   0  0  0  0  0  0  0  0  0  0  0  0
  -17.8116   17.2795  -25.5862 C   0  0  0  0  0  0  0  0  0  0  0  0
  -17.7022   17.7545  -24.0853 C   0  0  0  0  0  0  0  0  0  0  0  0
  -18.3524   15.9979  -27.0973 C   0  0  0  0  0  0  0  0  0  0  0  0
  -22.4978   17.3564  -30.1180 C   0  0  0  0  0  0  0  0  0  0  0  0
  -20.8449   16.4418  -29.9598 N   0  0  0  0  0  0  0  0  0  0  0  0
  -20.4254   18.9532  -26.2645 O   0  0  0  0  0  0  0  0  0  0  0  0
  -19.0651   15.2929  -29.3487 O   0  0  0  0  0  0  0  0  0  0  0  0
  -20.3479   15.8948  -31.1150 C   0  0  0  0  0  0  0  0  0  0  0  0
  -22.4132   17.9561  -28.8246 C   0  0  0  0  0  0  0  0  0  0  0  0
  -25.8388   17.2770  -32.1585 O   0  0  0  0  0  0  0  0  0  0  0  0
  -23.5424   17.7034  -31.0424 C   0  0  0  0  0  0  0  0  0  0  0  0
  -19.9786   18.1557  -26.6546 C   0  0  0  0  0  0  0  0  0  0  0  0
  -18.7171   16.5383  -27.7918 C   0  0  0  0  0  0  0  0  0  0  0  0
  -18.3301   17.5930  -25.6532 N   0  0  0  0  0  0  0  0  0  0  0  0
  -19.1048   18.1493  -25.7513 N   0  0  0  0  0  0  0  0  0  0  0  0
  -20.6047   16.7015  -29.0817 C   0  0  0  0  0  0  0  0  0  0  0  0
  -24.9093   18.2057  -30.6141 C   0  0  0  0  0  0  0  0  0  0  0  0
  4  3  1  0
  5  3  1  0
  7  6  1  0
 10  7  1  0
 11  1  1  0
 11  6  2  0
 12  2  1  0
 13  2  1  0
 13  6  1  0
 14  1  1  0
 14  8  2  0
 15  5  1  0
 15  9  1  0
 16  3  1  0
 17 14  1  0
 17 16  1  0
 18  1  2  0
 18  7  1  0
 19  2  1  0
M  END
>  <ID>  (1) 
conformer_0

$$$$
