
     RDKit          3D

 21 21  0  0  0  0  0  0  0  0999 V2000
  -24.4430   17.8256  -30.6797 C   0  0  0  0  0  0  0  0  0  0  0  0
  -17.6564   17.8745  -23.8974 C   0  0  0  0  0  0  0  0  0  0  0  0
  -21.2347   17.8995  -28.3154 C   0  0  0  0  0  0  0  0  0  0  0  0
  -22.1927   17.2621  -29.7671 C   0  0  0  0  0  0  0  0  0  0  0  0
  -18.2956   16.3132  -27.2440 C   0  0  0  0  0  0  0  0  0  0  0  0
  -18.8745   15.5335  -29.2224 O   0  0  0  0  0  0  0  0  0  0  0  0
  -18.6625   16.8516  -27.4935 C   0  0  0  0  0  0  0  0  0  0  0  0
  -18.9068   17.7890  -25.7358 N   0  0  0  0  0  0  0  0  0  0  0  0
  -25.3930   18.8979  -31.2114 C   0  0  0  0  0  0  0  0  0  0  0  0
  -20.9405   16.3500  -29.6514 N   0  0  0  0  0  0  0  0  0  0  0  0
  -19.5408   17.8188  -25.2626 C   0  0  0  0  0  0  0  0  0  0  0  0
  -23.0183   19.1637  -27.2548 O   0  0  0  0  0  0  0  0  0  0  0  0
  -20.7185   18.9326  -25.9911 O   0  0  0  0  0  0  0  0  0  0  0  0
  -25.6697   17.3630  -32.5101 O   0  0  0  0  0  0  0  0  0  0  0  0
  -21.4867   18.5771  -26.9186 C   0  0  0  0  0  0  0  0  0  0  0  0
  -23.0966   17.7023  -31.0858 C   0  0  0  0  0  0  0  0  0  0  0  0
  -20.3994   16.7057  -28.8919 C   0  0  0  0  0  0  0  0  0  0  0  0
  -20.6070   15.4392  -30.6629 C   0  0  0  0  0  0  0  0  0  0  0  0
  -17.2625   17.2081  -25.7654 C   0  0  0  0  0  0  0  0  0  0  0  0
  -24.6831   17.7485  -31.4567 C   0  0  0  0  0  0  0  0  0  0  0  0
  -21.0301   15.7478  -31.6407 C   0  0  0  0  0  0  0  0  0  0  0  0
  4  3  1  0
  7  5  1  0
 10  4  1  0
 11  8  1  0
 13 11  1  0
 15  3  1  0
 15 12  1  0
 15 13  1  0
 16  1  1  0
 16  4  1  0
 17  3  1  0
 17  6  2  0
 17 10  1  0
 18 10  1  0
 19  2  1  0
 19  5  1  0
 19  8  1  0
 20  1  1  0
 20  9  1  0
 20 14  1  0
 21 18  1  0
M  END
>  <ID>  (1) 
conformer_0

$$$$
