
     RDKit          3D

 21 23  0  0  0  0  0  0  0  0999 V2000
  -23.5771   18.1736  -31.5280 C   0  0  0  0  0  0  0  0  0  0  0  0
  -22.5627   18.0842  -28.9602 C   0  0  0  0  0  0  0  0  0  0  0  0
  -17.8897   17.2468  -25.7740 C   0  0  0  0  0  0  0  0  0  0  0  0
  -18.6601   17.4082  -27.3368 C   0  0  0  0  0  0  0  0  0  0  0  0
  -22.2930   17.4770  -30.0701 C   0  0  0  0  0  0  0  0  0  0  0  0
  -17.2492   17.6554  -24.0664 C   0  0  0  0  0  0  0  0  0  0  0  0
  -18.6580   15.1873  -28.9779 O   0  0  0  0  0  0  0  0  0  0  0  0
  -20.7907   16.7217  -29.6415 N   0  0  0  0  0  0  0  0  0  0  0  0
  -25.7691   17.3272  -32.5109 O   0  0  0  0  0  0  0  0  0  0  0  0
  -20.2668   18.0907  -25.5773 O   0  0  0  0  0  0  0  0  0  0  0  0
  -25.6104   18.7185  -30.2791 O   0  0  0  0  0  0  0  0  0  0  0  0
  -25.0855   17.9046  -31.3825 C   0  0  0  0  0  0  0  0  0  0  0  0
  -20.3298   15.9741  -30.7839 C   0  0  0  0  0  0  0  0  0  0  0  0
  -19.6706   17.8368  -26.1632 C   0  0  0  0  0  0  0  0  0  0  0  0
  -19.0615   16.0322  -28.2545 C   0  0  0  0  0  0  0  0  0  0  0  0
  -20.6558   17.1931  -28.6605 C   0  0  0  0  0  0  0  0  0  0  0  0
  -18.5246   17.7453  -25.5032 N   0  0  0  0  0  0  0  0  0  0  0  0
  -23.9128   17.4527  -30.4673 C   0  0  0  0  0  0  0  0  0  0  0  0
  -22.0363   18.8135  -27.2205 C   0  0  0  0  0  0  0  0  0  0  0  0
  -21.3140   18.0754  -28.0208 C   0  0  0  0  0  0  0  0  0  0  0  0
  -18.7575   15.5422  -26.8466 C   0  0  0  0  0  0  0  0  0  0  0  0
  4  3  1  0
  5  2  2  0
  6  3  1  0
  8  5  1  0
 12  1  1  0
 12  9  1  0
 12 11  1  0
 13  8  1  0
 14  4  1  0
 14 10  2  0
 15  4  1  0
 15  7  1  0
 16  8  1  0
 16 15  1  0
 17  3  1  0
 17 14  1  0
 18  1  1  0
 18  5  1  0
 18 12  1  0
 20  2  1  0
 20 16  2  0
 20 19  1  0
 21 15  1  0
M  END
>  <ID>  (1) 
conformer_0

$$$$
