
     RDKit          3D

 19 20  0  0  0  0  0  0  0  0999 V2000
  -24.5894   18.4524  -31.9054 C   0  0  0  0  0  0  0  0  0  0  0  0
  -21.1829   17.9315  -27.9292 C   0  0  0  0  0  0  0  0  0  0  0  0
  -17.5941   17.5937  -23.9056 C   0  0  0  0  0  0  0  0  0  0  0  0
  -20.3461   16.9170  -28.6329 C   0  0  0  0  0  0  0  0  0  0  0  0
  -17.9486   16.2860  -26.8705 C   0  0  0  0  0  0  0  0  0  0  0  0
  -19.2614   17.7603  -25.7151 C   0  0  0  0  0  0  0  0  0  0  0  0
  -21.2185   18.5079  -25.7009 O   0  0  0  0  0  0  0  0  0  0  0  0
  -19.2314   15.5340  -29.2505 O   0  0  0  0  0  0  0  0  0  0  0  0
  -25.1377   17.8497  -30.9675 C   0  0  0  0  0  0  0  0  0  0  0  0
  -25.8598   17.0798  -31.7309 O   0  0  0  0  0  0  0  0  0  0  0  0
  -21.3939   18.6370  -26.7657 C   0  0  0  0  0  0  0  0  0  0  0  0
  -20.1059   15.5632  -31.1118 C   0  0  0  0  0  0  0  0  0  0  0  0
  -20.8401   16.7262  -29.5894 N   0  0  0  0  0  0  0  0  0  0  0  0
  -18.5771   17.6970  -25.5336 N   0  0  0  0  0  0  0  0  0  0  0  0
  -23.1723   17.9760  -31.2193 C   0  0  0  0  0  0  0  0  0  0  0  0
  -21.8836   17.3023  -29.9470 C   0  0  0  0  0  0  0  0  0  0  0  0
  -18.8427   16.5125  -27.8109 C   0  0  0  0  0  0  0  0  0  0  0  0
  -17.0326   17.0115  -25.6088 C   0  0  0  0  0  0  0  0  0  0  0  0
  -22.3754   17.9321  -28.9476 C   0  0  0  0  0  0  0  0  0  0  0  0
  4  2  2  0
  9  1  1  0
 10  9  1  0
 11  2  1  0
 11  7  2  0
 13  4  1  0
 13 12  1  0
 14  3  1  0
 14  6  1  0
 15  1  1  0
 16 13  1  0
 16 15  1  0
 17  4  1  0
 17  5  1  0
 17  8  1  0
 18  3  1  0
 18  5  1  0
 18 14  1  0
 19  2  1  0
 19 16  2  0
M  END
>  <ID>  (1) 
conformer_0

$$$$
