
     RDKit          3D

 15 15  0  0  0  0  0  0  0  0999 V2000
  -24.5157   18.5013  -31.1213 C   0  0  0  0  0  0  0  0  0  0  0  0
  -21.5076   17.8746  -28.4891 C   0  0  0  0  0  0  0  0  0  0  0  0
  -17.3432   17.6871  -24.3529 C   0  0  0  0  0  0  0  0  0  0  0  0
  -18.2460   16.2573  -27.1238 C   0  0  0  0  0  0  0  0  0  0  0  0
  -20.2543   16.8091  -28.7881 C   0  0  0  0  0  0  0  0  0  0  0  0
  -20.8307   16.3898  -29.8080 N   0  0  0  0  0  0  0  0  0  0  0  0
  -20.2431   18.5220  -26.6701 C   0  0  0  0  0  0  0  0  0  0  0  0
  -25.2724   17.5944  -30.9693 C   0  0  0  0  0  0  0  0  0  0  0  0
  -18.5386   17.8579  -25.6549 N   0  0  0  0  0  0  0  0  0  0  0  0
  -18.2099   17.3472  -25.9771 C   0  0  0  0  0  0  0  0  0  0  0  0
  -25.8510   17.0426  -31.8968 O   0  0  0  0  0  0  0  0  0  0  0  0
  -21.1695   15.9222  -31.1928 C   0  0  0  0  0  0  0  0  0  0  0  0
  -22.1065   17.2510  -29.8377 C   0  0  0  0  0  0  0  0  0  0  0  0
  -18.6487   15.7292  -28.3246 C   0  0  0  0  0  0  0  0  0  0  0  0
  -23.3888   17.4857  -30.5519 C   0  0  0  0  0  0  0  0  0  0  0  0
  5  2  2  0
  6  5  1  0
  8  1  1  0
  9  3  1  0
  9  7  1  0
 10  4  1  0
 10  9  1  0
 11  8  1  0
 12  6  1  0
 13  2  1  0
 13  6  1  0
 14  4  1  0
 14  5  1  0
 15  1  1  0
 15 13  1  0
M  END
>  <ID>  (1) 
conformer_0

$$$$
