
     RDKit          3D

 18 19  0  0  0  0  0  0  0  0999 V2000
  -24.5851   18.5062  -31.3473 C   0  0  0  0  0  0  0  0  0  0  0  0
  -21.1382   17.6717  -27.9435 C   0  0  0  0  0  0  0  0  0  0  0  0
  -16.9188   17.5206  -25.0749 C   0  0  0  0  0  0  0  0  0  0  0  0
  -22.2869   17.6082  -30.0013 C   0  0  0  0  0  0  0  0  0  0  0  0
  -20.9328   16.6415  -29.9117 N   0  0  0  0  0  0  0  0  0  0  0  0
  -21.1686   18.4785  -25.7833 O   0  0  0  0  0  0  0  0  0  0  0  0
  -18.7373   17.7824  -24.7936 C   0  0  0  0  0  0  0  0  0  0  0  0
  -25.6670   17.4349  -32.5504 O   0  0  0  0  0  0  0  0  0  0  0  0
  -18.5341   17.4766  -25.5904 N   0  0  0  0  0  0  0  0  0  0  0  0
  -19.8427   15.7657  -30.5425 C   0  0  0  0  0  0  0  0  0  0  0  0
  -18.9413   16.0114  -28.5955 O   0  0  0  0  0  0  0  0  0  0  0  0
  -23.6998   18.1985  -30.6023 C   0  0  0  0  0  0  0  0  0  0  0  0
  -20.7122   17.7928  -26.4101 C   0  0  0  0  0  0  0  0  0  0  0  0
  -20.5264   16.8314  -28.9438 C   0  0  0  0  0  0  0  0  0  0  0  0
  -22.3139   18.0280  -28.6998 C   0  0  0  0  0  0  0  0  0  0  0  0
  -18.5268   16.6698  -26.8270 C   0  0  0  0  0  0  0  0  0  0  0  0
  -17.0418   16.5484  -26.1552 C   0  0  0  0  0  0  0  0  0  0  0  0
  -24.9796   17.8891  -31.4256 C   0  0  0  0  0  0  0  0  0  0  0  0
  5  4  1  0
  9  3  1  0
  9  7  1  0
 10  5  1  0
 12  1  1  0
 12  4  1  0
 13  2  1  0
 13  6  2  0
 14  2  2  0
 14  5  1  0
 14 11  1  0
 15  2  1  0
 15  4  2  0
 16  9  1  0
 16 11  1  0
 17  3  1  0
 17 16  1  0
 18  1  1  0
 18  8  1  0
M  END
>  <ID>  (1) 
conformer_0

$$$$
