
     RDKit          3D

 17 18  0  0  0  0  0  0  0  0999 V2000
  -19.3055   17.5214  -26.1329 C   0  0  1  0  0  0  0  0  0  0  0  0
  -22.4414   17.8395  -29.5120 C   0  0  0  0  0  0  0  0  0  0  0  0
  -20.4501   17.1392  -28.4002 C   0  0  0  0  0  0  0  0  0  0  0  0
  -23.5496   17.7284  -30.9421 C   0  0  0  0  0  0  0  0  0  0  0  0
  -25.2057   17.7541  -31.3917 C   0  0  0  0  0  0  0  0  0  0  0  0
  -20.7170   16.6053  -29.7726 N   0  0  0  0  0  0  0  0  0  0  0  0
  -18.6917   16.3567  -26.9716 C   0  0  0  0  0  0  0  0  0  0  0  0
  -26.0244   17.4199  -32.5420 O   0  0  0  0  0  0  0  0  0  0  0  0
  -17.6286   17.0816  -25.9534 C   0  0  2  0  0  0  0  0  0  0  0  0
  -20.4713   18.3345  -26.3142 O   0  0  0  0  0  0  0  0  0  0  0  0
  -20.0370   15.9689  -30.9241 C   0  0  0  0  0  0  0  0  0  0  0  0
  -23.2189   18.7666  -27.4321 O   0  0  0  0  0  0  0  0  0  0  0  0
  -21.8571   18.8317  -27.2378 C   0  0  2  0  0  0  0  0  0  0  0  0
  -21.6663   17.1089  -30.0502 C   0  0  0  0  0  0  0  0  0  0  0  0
  -19.3764   15.5815  -28.6174 O   0  0  0  0  0  0  0  0  0  0  0  0
  -17.2609   17.5365  -24.3047 C   0  0  0  0  0  0  0  0  0  0  0  0
  -21.4391   18.0621  -28.2802 C   0  0  2  0  0  0  0  0  0  0  0  0
  4  2  1  0
  5  4  2  3
  6  3  1  0
  7  1  1  0
  8  5  1  0
  9  1  1  0
  9  7  1  0
  1 10  1  6
 11  6  1  0
 13 10  1  0
 13 12  1  1
 14  2  2  0
 14  6  1  0
 15  3  2  0
  9 16  1  1
 17  2  1  1
 17  3  1  0
 17 13  1  0
M  END
>  <ID>  (1) 
conformer_0

$$$$
