
     RDKit          3D

 21 21  0  0  0  0  0  0  0  0999 V2000
  -22.9810   17.7131  -31.1971 C   0  0  0  0  0  0  0  0  0  0  0  0
  -21.1111   17.8599  -27.9870 C   0  0  0  0  0  0  0  0  0  0  0  0
  -17.3975   17.8061  -23.8969 C   0  0  0  0  0  0  0  0  0  0  0  0
  -20.3083   16.7216  -28.4967 C   0  0  0  0  0  0  0  0  0  0  0  0
  -19.1103   16.1325  -27.0896 C   0  0  0  0  0  0  0  0  0  0  0  0
  -20.6839   16.4341  -29.9066 N   0  0  0  0  0  0  0  0  0  0  0  0
  -25.6741   17.4859  -32.1597 O   0  0  0  0  0  0  0  0  0  0  0  0
  -25.0297   17.6685  -30.9742 C   0  0  0  0  0  0  0  0  0  0  0  0
  -21.3750   18.5724  -25.9313 O   0  0  0  0  0  0  0  0  0  0  0  0
  -17.3656   17.1892  -25.4003 C   0  0  0  0  0  0  0  0  0  0  0  0
  -19.0580   15.5483  -30.3150 C   0  0  0  0  0  0  0  0  0  0  0  0
  -19.1347   17.3098  -26.0539 C   0  0  0  0  0  0  0  0  0  0  0  0
  -25.5836   17.7127  -29.6908 O   0  0  0  0  0  0  0  0  0  0  0  0
  -23.1427   18.6569  -27.3256 O   0  0  0  0  0  0  0  0  0  0  0  0
  -23.8998   18.1929  -30.8313 C   0  0  0  0  0  0  0  0  0  0  0  0
  -18.3884   17.4736  -25.4682 N   0  0  0  0  0  0  0  0  0  0  0  0
  -22.1822   17.9434  -28.9906 C   0  0  0  0  0  0  0  0  0  0  0  0
  -21.7223   17.1376  -29.8812 C   0  0  0  0  0  0  0  0  0  0  0  0
  -21.3189   18.6235  -26.7091 C   0  0  0  0  0  0  0  0  0  0  0  0
  -20.9818   16.3852  -31.4856 C   0  0  0  0  0  0  0  0  0  0  0  0
  -19.5746   18.3497  -25.3911 O   0  0  0  0  0  0  0  0  0  0  0  0
  4  2  2  0
  5  4  1  0
  6  4  1  0
  8  7  1  0
 10  3  1  0
 12  5  1  0
 13  8  2  0
 15  1  1  0
 15  8  1  0
 16 10  1  0
 16 12  1  0
 17  2  1  0
 18  1  1  0
 18  6  1  0
 18 17  2  0
 19  2  1  0
 19  9  1  0
 19 14  1  0
 20  6  1  0
 20 11  1  0
 21 12  2  0
M  END
>  <ID>  (1) 
conformer_0

$$$$
