
     RDKit          3D

 19 19  0  0  0  0  0  0  0  0999 V2000
  -23.6661   17.7401  -31.6809 C   0  0  0  0  0  0  0  0  0  0  0  0
  -21.1395   17.7320  -27.9573 C   0  0  0  0  0  0  0  0  0  0  0  0
  -16.9875   16.8766  -25.9848 C   0  0  0  0  0  0  0  0  0  0  0  0
  -21.2519   18.7223  -25.8731 O   0  0  0  0  0  0  0  0  0  0  0  0
  -20.3827   16.7540  -28.7526 C   0  0  0  0  0  0  0  0  0  0  0  0
  -21.3943   16.7984  -30.0841 N   0  0  0  0  0  0  0  0  0  0  0  0
  -18.4183   16.2698  -27.3863 C   0  0  0  0  0  0  0  0  0  0  0  0
  -19.1614   15.7791  -29.1198 O   0  0  0  0  0  0  0  0  0  0  0  0
  -18.2087   17.6280  -24.4798 C   0  0  0  0  0  0  0  0  0  0  0  0
  -19.0755   16.2293  -27.0345 C   0  0  0  0  0  0  0  0  0  0  0  0
  -18.5026   17.4040  -25.5755 N   0  0  0  0  0  0  0  0  0  0  0  0
  -25.3088   17.7973  -32.0694 C   0  0  0  0  0  0  0  0  0  0  0  0
  -22.2770   18.0907  -28.6702 C   0  0  0  0  0  0  0  0  0  0  0  0
  -21.1528   16.0743  -31.0198 C   0  0  0  0  0  0  0  0  0  0  0  0
  -19.7364   17.7329  -25.5475 C   0  0  0  0  0  0  0  0  0  0  0  0
  -22.1395   17.5397  -29.8720 C   0  0  0  0  0  0  0  0  0  0  0  0
  -24.2833   17.1742  -31.1994 C   0  0  0  0  0  0  0  0  0  0  0  0
  -21.6255   18.6287  -26.7579 C   0  0  0  0  0  0  0  0  0  0  0  0
  -23.7917   18.2029  -30.3995 C   0  0  0  0  0  0  0  0  0  0  0  0
  5  2  2  0
  6  5  1  0
  8  5  1  0
  8  7  1  0
 10  7  1  0
 11  3  1  0
 11  9  1  0
 13  2  1  0
 14  6  1  0
 15  4  1  0
 15 11  1  0
 16  6  1  0
 16 13  2  0
 17  1  1  0
 17 12  1  0
 18  2  1  0
 18  4  1  0
 19  1  1  0
 19 16  1  0
M  END
>  <ID>  (1) 
conformer_0

$$$$
