
     RDKit          3D

 18 18  0  0  0  0  0  0  0  0999 V2000
  -21.3979   17.7733  -28.0297 C   0  0  0  0  0  3  0  0  0  0  0  0
  -24.5549   18.2288  -30.4473 C   0  0  0  0  0  0  0  0  0  0  0  0
  -18.2608   16.6527  -27.1380 C   0  0  0  0  0  0  0  0  0  0  0  0
  -17.2624   17.5353  -24.1433 C   0  0  0  0  0  0  0  0  0  0  0  0
  -21.1118   16.8092  -30.0726 N   0  0  0  0  0  0  0  0  0  0  0  0
  -20.7892   18.0772  -25.8797 O   0  0  0  0  0  0  0  0  0  0  0  0
  -20.5721   16.6715  -28.9083 C   0  0  1  0  0  0  0  0  0  0  0  0
  -19.1765   15.4698  -29.2979 O   0  0  0  0  0  0  0  0  0  0  0  0
  -18.1565   17.1361  -25.9728 C   0  0  0  0  0  0  0  0  0  0  0  0
  -25.7195   17.4349  -32.0694 O   0  0  0  0  0  0  0  0  0  0  0  0
  -20.5564   15.7950  -31.1134 C   0  0  0  0  0  0  0  0  0  0  0  0
  -25.2863   18.1963  -30.6965 C   0  0  0  0  0  0  0  0  0  0  0  0
  -17.9440   17.5845  -25.2420 N   0  0  0  0  0  0  0  0  0  0  0  0
  -20.6730   18.1160  -26.7202 C   0  0  0  0  0  0  0  0  0  0  0  0
  -22.5963   18.0051  -28.8837 C   0  0  0  0  0  0  0  0  0  0  0  0
  -23.3982   17.9502  -31.2340 C   0  0  0  0  0  0  0  0  0  0  0  0
  -22.2656   17.5819  -30.0357 C   0  0  0  0  0  0  0  0  0  0  0  0
  -19.6825   16.1860  -27.0306 C   0  0  0  0  0  0  0  0  0  0  0  0
  7  1  1  0
  7  5  1  0
  7  8  1  6
  9  3  1  0
 11  5  1  0
 12  2  1  0
 12 10  1  0
 13  4  2  3
 13  9  1  0
 14  1  1  0
 14  6  2  0
 15  1  1  0
 16  2  1  0
 17  5  1  0
 17 15  2  0
 17 16  1  0
 18  3  1  0
 18  7  1  0
M  RAD  1   1   2
M  END
>  <ID>  (1) 
conformer_0

$$$$
