
     RDKit          3D

 18 18  0  0  0  0  0  0  0  0999 V2000
  -18.4862   17.8822  -24.6122 C   0  0  0  0  0  0  0  0  0  0  0  0
  -20.3975   16.5990  -28.5788 C   0  0  0  0  0  0  0  0  0  0  0  0
  -21.4724   17.8188  -28.1614 C   0  0  1  0  0  0  0  0  0  0  0  0
  -23.5230   18.2639  -31.4897 C   0  0  0  0  0  0  0  0  0  0  0  0
  -21.2932   16.6048  -30.0448 N   0  0  0  0  0  0  0  0  0  0  0  0
  -24.9132   18.2007  -31.3320 C   0  0  0  0  0  0  0  0  0  0  0  0
  -20.8513   18.9129  -25.9040 O   0  0  0  0  0  0  0  0  0  0  0  0
  -19.3486   15.5784  -28.8919 O   0  0  0  0  0  0  0  0  0  0  0  0
  -18.8257   16.9945  -26.6068 C   0  0  0  0  0  0  0  0  0  0  0  0
  -25.5671   17.3892  -31.8424 O   0  0  0  0  0  0  0  0  0  0  0  0
  -20.0651   15.4822  -31.0049 C   0  0  0  0  0  0  0  0  0  0  0  0
  -18.2951   16.3716  -26.8926 C   0  0  0  0  0  0  0  0  0  0  0  0
  -18.2944   17.5478  -25.4304 N   0  0  0  0  0  0  0  0  0  0  0  0
  -20.8584   18.4484  -26.7999 C   0  0  0  0  0  0  0  0  0  0  0  0
  -21.9020   17.3554  -29.6050 C   0  0  1  0  0  0  0  0  0  0  0  0
  -22.9818   17.3466  -30.8464 C   0  0  1  0  0  0  0  0  0  0  0  0
  -23.2826   18.7740  -29.6056 C   0  0  0  0  0  0  0  0  0  0  0  0
  -16.9161   17.1845  -24.8410 C   0  0  0  0  0  0  0  0  0  0  0  0
  3  2  1  0
  5  2  1  0
  6  4  1  0
  8  2  2  0
 10  6  1  0
 11  5  1  0
 12  9  2  3
 13  1  1  0
 13  9  1  0
  3 14  1  6
 14  7  2  0
 14  9  1  0
 15  3  1  0
 15  5  1  1
 16  4  1  0
 16 15  1  0
 16 17  1  1
 18 13  1  0
M  END
>  <ID>  (1) 
conformer_0

$$$$
