
     RDKit          3D

 17 17  0  0  0  0  0  0  0  0999 V2000
  -24.9221   18.3123  -31.2181 C   0  0  0  0  0  0  0  0  0  0  0  0
  -22.4125   18.0077  -28.6802 C   0  0  0  0  0  0  0  0  0  0  0  0
  -16.9823   17.0285  -25.1964 C   0  0  0  0  0  0  0  0  0  0  0  0
  -20.5465   17.2329  -28.4494 C   0  0  0  0  0  0  0  0  0  0  0  0
  -21.0389   16.6859  -29.8601 N   0  0  0  0  0  0  0  0  0  0  0  0
  -20.3542   18.3585  -26.5198 C   0  0  0  0  0  0  0  0  0  0  0  0
  -21.4583   19.2798  -26.4235 O   0  0  0  0  0  0  0  0  0  0  0  0
  -18.5233   17.5083  -25.7674 N   0  0  0  0  0  0  0  0  0  0  0  0
  -20.7513   15.8865  -30.8066 C   0  0  0  0  0  0  0  0  0  0  0  0
  -17.5946   15.9080  -26.7329 C   0  0  0  0  0  0  0  0  0  0  0  0
  -19.3439   15.7934  -28.6220 O   0  0  0  0  0  0  0  0  0  0  0  0
  -18.2668   16.3523  -27.2895 C   0  0  0  0  0  0  0  0  0  0  0  0
  -25.1652   17.7610  -31.2457 C   0  0  0  0  0  0  0  0  0  0  0  0
  -22.2536   17.5350  -29.8453 C   0  0  0  0  0  0  0  0  0  0  0  0
  -23.5606   18.0823  -30.5569 C   0  0  0  0  0  0  0  0  0  0  0  0
  -21.1570   17.6530  -27.9238 C   0  0  0  0  0  0  0  0  0  0  0  0
  -18.8539   17.9419  -25.1548 C   0  0  0  0  0  0  0  0  0  0  0  0
  5  4  1  0
  7  6  1  0
  8  3  1  0
  9  5  1  0
 11  4  1  0
 12  8  1  0
 12 10  2  3
 12 11  1  0
 13  1  1  0
 14  2  2  0
 14  5  1  0
 15  1  1  0
 15 14  1  0
 16  2  1  0
 16  4  2  0
 16  6  1  0
 17  8  1  0
M  END
>  <ID>  (1) 
conformer_0

$$$$
