
     RDKit          3D

 15 14  0  0  0  0  0  0  0  0999 V2000
  -18.5886   16.7859  -26.3656 C   0  0  0  0  0  0  0  0  0  0  0  0
  -20.5840   17.0405  -28.5490 C   0  0  0  0  0  0  0  0  0  0  0  0
  -18.4017   16.3951  -26.8088 C   0  0  0  0  0  0  0  0  0  0  0  0
  -19.9566   18.0855  -26.2117 O   0  0  0  0  0  0  0  0  0  0  0  0
  -21.7732   17.9616  -28.7814 C   0  0  1  0  0  0  0  0  0  0  0  0
  -24.5380   17.9216  -30.9997 C   0  0  0  0  0  0  0  0  0  0  0  0
  -23.2823   18.0530  -31.0279 C   0  0  0  0  0  0  0  0  0  0  0  0
  -17.5536   17.7251  -24.9113 C   0  0  0  0  0  0  0  0  0  0  0  0
  -19.8268   15.9658  -28.7293 O   0  0  0  0  0  0  0  0  0  0  0  0
  -25.5536   17.2381  -31.7562 O   0  0  0  0  0  0  0  0  0  0  0  0
  -23.1359   18.6978  -27.8633 O   0  0  0  0  0  0  0  0  0  0  0  0
  -21.2028   16.5768  -29.9775 N   0  0  0  0  0  0  0  0  0  0  0  0
  -20.4493   15.8091  -31.0408 C   0  0  0  0  0  0  0  0  0  0  0  0
  -20.1880   18.4033  -26.5461 C   0  0  0  0  0  0  0  0  0  0  0  0
  -21.8694   17.2774  -29.7864 C   0  0  0  0  0  0  0  0  0  0  0  0
  3  1  2  3
  4  1  1  0
  5  2  1  0
  7  5  1  0
  7  6  1  0
  8  1  1  0
  9  2  2  0
 10  6  1  0
  5 11  1  1
 12  2  1  0
 13 12  1  0
 14  4  1  0
 15 12  1  0
 15 14  1  0
M  END
>  <ID>  (1) 
conformer_0

$$$$
