
     RDKit          3D

 18 18  0  0  0  0  0  0  0  0999 V2000
  -21.1606   17.9416  -27.9775 C   0  0  0  0  0  0  0  0  0  0  0  0
  -24.3608   18.4067  -30.5415 C   0  0  0  0  0  0  0  0  0  0  0  0
  -17.5227   17.5360  -24.2431 C   0  0  0  0  0  0  0  0  0  0  0  0
  -20.4917   17.0470  -28.6171 C   0  0  0  0  0  0  0  0  0  0  0  0
  -18.1520   16.0717  -26.8690 C   0  0  0  0  0  0  0  0  0  0  0  0
  -20.9346   16.6042  -29.7623 N   0  0  0  0  0  0  0  0  0  0  0  0
  -20.8182   19.0088  -26.0513 O   0  0  0  0  0  0  0  0  0  0  0  0
  -25.7932   17.6139  -32.3459 O   0  0  0  0  0  0  0  0  0  0  0  0
  -25.0629   17.7412  -31.2656 C   0  0  0  0  0  0  0  0  0  0  0  0
  -18.2125   17.2803  -25.6731 C   0  0  0  0  0  0  0  0  0  0  0  0
  -19.2645   15.6530  -28.6507 O   0  0  0  0  0  0  0  0  0  0  0  0
  -20.3347   15.8303  -30.7324 C   0  0  0  0  0  0  0  0  0  0  0  0
  -18.4754   17.6475  -25.5570 N   0  0  0  0  0  0  0  0  0  0  0  0
  -20.2574   18.3985  -26.6990 C   0  0  0  0  0  0  0  0  0  0  0  0
  -22.1901   17.4764  -29.8852 C   0  0  0  0  0  0  0  0  0  0  0  0
  -18.7911   16.1818  -27.8122 C   0  0  0  0  0  0  0  0  0  0  0  0
  -22.4868   18.1070  -28.6384 C   0  0  0  0  0  0  0  0  0  0  0  0
  -23.1558   17.6718  -30.8979 C   0  0  0  0  0  0  0  0  0  0  0  0
  4  1  2  0
  6  4  1  0
  9  2  1  0
  9  8  1  0
 10  3  1  0
 10  5  1  0
 11  4  1  0
 12  6  1  0
 13 10  2  3
 14  1  1  0
 14  7  1  0
 15  6  1  0
 16  5  1  0
 16 11  1  0
 17  1  1  0
 17 15  2  0
 18  2  1  0
 18 15  1  0
M  END
>  <ID>  (1) 
conformer_0

$$$$
