
     RDKit          3D

 15 15  0  0  0  0  0  0  0  0999 V2000
  -23.8162   18.2908  -31.2596 C   0  0  0  0  0  0  0  0  0  0  0  0
  -20.8592   17.7883  -28.0507 C   0  0  0  0  0  0  0  0  0  0  0  0
  -17.6368   17.5935  -24.6763 C   0  0  0  0  0  0  0  0  0  0  0  0
  -21.3330   17.2251  -29.5974 C   0  0  1  0  0  0  0  0  0  0  0  0
  -18.7626   16.1437  -27.0562 C   0  0  0  0  0  0  0  0  0  0  0  0
  -20.7957   16.6110  -29.8928 N   0  0  0  0  0  0  0  0  0  0  0  0
  -18.4327   16.9072  -26.5406 C   0  0  0  0  0  0  0  0  0  0  0  0
  -25.2658   18.0171  -31.2437 C   0  0  0  0  0  0  0  0  0  0  0  0
  -25.6834   17.2393  -32.1071 O   0  0  0  0  0  0  0  0  0  0  0  0
  -18.6445   17.7446  -25.7644 N   0  0  0  0  0  0  0  0  0  0  0  0
  -25.8355   18.6822  -30.4593 O   0  0  0  0  0  0  0  0  0  0  0  0
  -20.1104   15.6602  -30.6039 C   0  0  0  0  0  3  0  0  0  0  0  0
  -20.4541   18.2561  -26.6033 C   0  0  0  0  0  0  0  0  0  0  0  0
  -22.1331   18.0329  -28.7071 C   0  0  0  0  0  0  0  0  0  0  0  0
  -23.1951   17.8356  -30.4356 C   0  0  0  0  0  0  0  0  0  0  0  0
  4  2  1  0
  4  6  1  1
  7  5  2  3
  8  1  1  0
  9  8  1  0
 10  3  1  0
 10  7  1  0
 11  8  2  0
 12  6  2  3
 13  2  1  0
 13 10  1  0
 14  2  2  0
 14  4  1  0
 15  1  1  0
 15 14  1  0
M  RAD  1  12   2
M  END
>  <ID>  (1) 
conformer_0

$$$$
