
     RDKit          3D

 15 15  0  0  0  0  0  0  0  0999 V2000
  -23.3267   18.2763  -30.6156 C   0  0  0  0  0  0  0  0  0  0  0  0
  -21.7818   18.1841  -28.6476 C   0  0  0  0  0  0  0  0  0  0  0  0
  -18.7829   17.4934  -25.7371 C   0  0  0  0  0  0  0  0  0  0  0  0
  -18.7316   16.3778  -26.9831 C   0  0  0  0  0  0  0  0  0  0  0  0
  -20.4401   17.2328  -28.3151 C   0  0  0  0  0  0  0  0  0  0  0  0
  -24.9135   17.9910  -31.0447 C   0  0  0  0  0  0  0  0  0  0  0  0
  -20.1925   15.7747  -31.2543 C   0  0  0  0  0  0  0  0  0  0  0  0
  -20.7914   16.6117  -29.7964 N   0  0  0  0  0  0  0  0  0  0  0  0
  -21.1635   18.8912  -26.3865 C   0  0  0  0  0  0  0  0  0  0  0  0
  -25.6606   17.2175  -31.7658 O   0  0  0  0  0  0  0  0  0  0  0  0
  -20.4829   18.4493  -25.0908 O   0  0  0  0  0  0  0  0  0  0  0  0
  -17.3876   17.2265  -24.5498 C   0  0  0  0  0  0  0  0  0  0  0  0
  -19.1981   15.4841  -29.3204 O   0  0  0  0  0  0  0  0  0  0  0  0
  -21.6485   17.2785  -29.9086 C   0  0  0  0  0  0  0  0  0  0  0  0
  -18.9167   15.7799  -28.4258 C   0  0  0  0  0  0  0  0  0  0  0  0
  4  3  1  0
  5  2  1  0
  6  1  1  0
  8  5  1  0
  8  7  1  0
 10  6  1  0
 11  3  1  0
 11  9  1  0
 12  3  1  0
 14  1  1  0
 14  2  2  0
 14  8  1  0
 15  4  1  0
 15  5  1  0
 15 13  1  0
M  END
>  <ID>  (1) 
conformer_0

$$$$
