
     RDKit          3D

 18 19  0  0  0  0  0  0  0  0999 V2000
  -22.3077   18.0382  -28.9338 C   0  0  0  0  0  0  0  0  0  0  0  0
  -24.0121   18.1301  -31.2198 C   0  0  0  0  0  0  0  0  0  0  0  0
  -16.8449   17.4906  -24.9464 C   0  0  0  0  0  0  0  0  0  0  0  0
  -20.4411   16.7385  -28.7572 C   0  0  0  0  0  0  0  0  0  0  0  0
  -21.0263   16.5129  -29.9912 N   0  0  0  0  0  0  0  0  0  0  0  0
  -18.6968   15.7289  -27.1618 C   0  0  0  0  0  0  0  0  0  0  0  0
  -25.0660   18.2360  -31.1387 C   0  0  0  0  0  0  0  0  0  0  0  0
  -18.2501   17.5247  -25.6764 N   0  0  0  0  0  0  0  0  0  0  0  0
  -21.0092   18.6500  -26.0549 O   0  0  0  0  0  0  0  0  0  0  0  0
  -18.2432   16.4652  -26.7535 C   0  0  0  0  0  0  0  0  0  0  0  0
  -19.4718   15.2659  -29.3067 O   0  0  0  0  0  0  0  0  0  0  0  0
  -20.5576   15.6732  -31.2151 C   0  0  0  0  0  0  0  0  0  0  0  0
  -26.0042   17.6008  -31.7357 O   0  0  0  0  0  0  0  0  0  0  0  0
  -21.0578   17.7993  -28.0371 C   0  0  2  0  0  0  0  0  0  0  0  0
  -20.6903   18.1438  -26.6258 C   0  0  0  0  0  0  0  0  0  0  0  0
  -22.0370   17.1374  -30.0409 C   0  0  0  0  0  0  0  0  0  0  0  0
  -18.7926   17.7927  -24.9693 C   0  0  0  0  0  0  0  0  0  0  0  0
  -23.3617   17.4834  -30.3125 C   0  0  1  0  0  0  0  0  0  0  0  0
  5  4  1  0
  7  2  1  0
  8  3  1  0
 10  6  2  3
 10  8  1  0
 11  4  2  0
 12  5  1  0
 13  7  1  0
 14  1  1  0
 14  4  1  0
 15  9  2  0
 14 15  1  1
 16  1  2  0
 16  5  1  0
 17  8  1  0
 17 15  1  0
 18  1  1  0
 18  2  1  6
 18 16  1  0
M  END
>  <ID>  (1) 
conformer_0

$$$$
