
     RDKit          3D

 17 17  0  0  0  0  0  0  0  0999 V2000
  -17.4628   17.6801  -24.5338 C   0  0  0  0  0  0  0  0  0  0  0  0
  -23.2778   17.6847  -30.5028 C   0  0  0  0  0  0  0  0  0  0  0  0
  -18.6185   16.3422  -27.0217 C   0  0  0  0  0  0  0  0  0  0  0  0
  -21.9293   17.8639  -28.5222 C   0  0  0  0  0  0  0  0  0  0  0  0
  -20.7377   17.3611  -28.2689 C   0  0  0  0  0  0  0  0  0  0  0  0
  -21.3411   18.3249  -26.3039 O   0  0  0  0  0  0  0  0  0  0  0  0
  -25.1729   18.0527  -31.4068 C   0  0  0  0  0  0  0  0  0  0  0  0
  -25.7979   17.3021  -31.9497 O   0  0  0  0  0  0  0  0  0  0  0  0
  -20.6465   16.5128  -29.5628 N   0  0  0  0  0  0  0  0  0  0  0  0
  -18.1057   17.1643  -25.8435 C   0  0  0  0  0  0  0  0  0  0  0  0
  -18.9326   15.4251  -29.2935 O   0  0  0  0  0  0  0  0  0  0  0  0
  -18.8560   16.1966  -28.4238 C   0  0  0  0  0  0  0  0  0  0  0  0
  -20.6389   15.8029  -30.8563 C   0  0  0  0  0  0  0  0  0  0  0  0
  -22.0938   17.3895  -29.7977 C   0  0  0  0  0  0  0  0  0  0  0  0
  -24.6000   18.5902  -31.1752 C   0  0  0  0  0  0  0  0  0  0  0  0
  -20.1579   17.9543  -26.1972 C   0  0  0  0  0  0  0  0  0  0  0  0
  -19.5466   18.2879  -25.7962 O   0  0  0  0  0  0  0  0  0  0  0  0
  5  4  2  0
  8  7  1  0
  9  5  1  0
 10  1  1  0
 10  3  1  0
 12  3  1  0
 12  5  1  0
 12 11  2  0
 13  9  1  0
 14  2  1  0
 14  4  1  0
 14  9  1  0
 15  2  1  0
 15  7  1  0
 16  6  2  0
 17 10  1  0
 17 16  1  0
M  END
>  <ID>  (1) 
conformer_0

$$$$
