
     RDKit          3D

 17 17  0  0  0  0  0  0  0  0999 V2000
  -22.1955   17.9856  -29.0794 C   0  0  0  0  0  0  0  0  0  0  0  0
  -23.6485   18.0159  -30.7350 C   0  0  0  0  0  0  0  0  0  0  0  0
  -17.3747   17.4111  -24.7897 C   0  0  0  0  0  0  0  0  0  0  0  0
  -20.4033   16.7966  -28.6149 C   0  0  0  0  0  0  0  0  0  0  0  0
  -20.6996   16.4777  -29.6148 N   0  0  0  0  0  0  0  0  0  0  0  0
  -21.1518   19.3474  -26.3245 O   0  0  0  0  0  0  0  0  0  0  0  0
  -18.3286   15.8464  -26.9226 C   0  0  0  0  0  0  0  0  0  0  0  0
  -25.4541   17.4226  -32.4508 O   0  0  0  0  0  0  0  0  0  0  0  0
  -18.4608   17.5753  -25.4379 N   0  0  0  0  0  0  0  0  0  0  0  0
  -19.1793   17.9048  -25.0844 C   0  0  0  0  0  0  0  0  0  0  0  0
  -24.6454   17.9047  -31.4025 C   0  0  0  0  0  0  0  0  0  0  0  0
  -18.8996   16.3709  -27.0430 C   0  0  0  0  0  0  0  0  0  0  0  0
  -20.2652   15.7516  -30.9558 C   0  0  0  0  0  0  0  0  0  0  0  0
  -21.9373   18.8410  -27.2582 C   0  0  0  0  0  0  0  0  0  0  0  0
  -19.0030   15.3429  -28.8982 O   0  0  0  0  0  0  0  0  0  0  0  0
  -21.8642   17.2510  -30.0024 C   0  0  0  0  0  0  0  0  0  0  0  0
  -21.1478   17.9031  -28.0340 C   0  0  0  0  0  0  0  0  0  0  0  0
  5  4  1  0
  9  3  1  0
 10  9  1  0
 11  2  1  0
 11  8  1  0
 12  7  2  3
 12  9  1  0
 13  5  1  0
 14  6  1  0
 15  4  1  0
 15 12  1  0
 16  1  2  0
 16  2  1  0
 16  5  1  0
 17  1  1  0
 17  4  2  0
 17 14  1  0
M  END
>  <ID>  (1) 
conformer_0

$$$$
