
     RDKit          3D

 18 18  0  0  0  0  0  0  0  0999 V2000
  -24.4112   18.6353  -30.9617 C   0  0  0  0  0  0  0  0  0  0  0  0
  -19.6675   17.8790  -25.5746 C   0  0  0  0  0  0  0  0  0  0  0  0
  -21.5144   17.9796  -28.7812 C   0  0  2  0  0  0  0  0  0  0  0  0
  -20.2881   17.0359  -28.7438 C   0  0  2  0  0  0  0  0  0  0  0  0
  -18.7839   16.0733  -26.9143 C   0  0  0  0  0  0  0  0  0  0  0  0
  -20.4403   16.5216  -29.7646 N   0  0  0  0  0  0  0  0  0  0  0  0
  -25.6633   17.2250  -31.8036 O   0  0  0  0  0  0  0  0  0  0  0  0
  -17.1782   17.4188  -24.5976 C   0  0  0  0  0  0  0  0  0  0  0  0
  -21.5998   18.7150  -26.5676 N   0  0  0  0  0  0  0  0  0  0  0  0
  -24.8133   17.7498  -30.9699 C   0  0  0  0  0  0  0  0  0  0  0  0
  -21.4495   18.5322  -27.2361 C   0  0  2  0  0  0  0  0  0  0  0  0
  -23.2170   17.8845  -30.7082 C   0  0  0  0  0  0  0  0  0  0  0  0
  -18.1327   17.0408  -26.1441 C   0  0  2  0  0  0  0  0  0  0  0  0
  -23.3868   19.2187  -27.8391 O   0  0  0  0  0  0  0  0  0  0  0  0
  -18.9287   15.8447  -28.5687 C   0  0  0  0  0  0  0  0  0  0  0  0
  -21.7744   17.2735  -30.0009 C   0  0  2  0  0  0  0  0  0  0  0  0
  -18.8842   17.7153  -25.7428 N   0  0  0  0  0  0  0  0  0  0  0  0
  -20.4672   15.9061  -31.1134 C   0  0  0  0  0  0  0  0  0  0  0  0
  4  3  1  0
  6  4  1  0
 10  1  1  0
 10  7  1  0
  3 11  1  1
 11  9  1  1
 12  1  1  0
 13  5  1  0
 13  8  1  1
 14 11  1  0
  4 15  1  1
 15  5  1  0
 16  3  1  0
 16  6  1  0
 16 12  1  6
 17  2  2  3
 17 13  1  0
 18  6  1  0
M  END
>  <ID>  (1) 
conformer_0

$$$$
