
     RDKit          3D

 17 18  0  0  0  0  0  0  0  0999 V2000
  -24.3885   18.2513  -31.4798 C   0  0  0  0  0  0  0  0  0  0  0  0
  -17.4690   17.6900  -24.4777 C   0  0  0  0  0  0  0  0  0  0  0  0
  -21.5139   17.8221  -28.4264 C   0  0  0  0  0  0  0  0  0  0  0  0
  -20.3916   16.7229  -28.8416 C   0  0  0  0  0  0  0  0  0  0  0  0
  -18.1760   16.4102  -26.8388 C   0  0  0  0  0  0  0  0  0  0  0  0
  -19.5415   15.5900  -29.5666 O   0  0  0  0  0  0  0  0  0  0  0  0
  -18.5943   17.4681  -25.7819 C   0  0  0  0  0  0  0  0  0  0  0  0
  -25.8591   17.0260  -32.0757 O   0  0  0  0  0  0  0  0  0  0  0  0
  -21.1131   18.3294  -26.8107 C   0  0  0  0  0  0  0  0  0  0  0  0
  -25.0868   17.6574  -31.7206 C   0  0  0  0  0  0  0  0  0  0  0  0
  -18.6115   16.2374  -28.1695 C   0  0  0  0  0  0  0  0  0  0  0  0
  -23.1880   17.7767  -30.6390 C   0  0  0  0  0  0  0  0  0  0  0  0
  -20.2478   18.2208  -25.4042 O   0  0  0  0  0  0  0  0  0  0  0  0
  -22.1073   17.2744  -29.9083 C   0  0  0  0  0  0  0  0  0  0  0  0
  -22.7435   18.7205  -26.7227 O   0  0  0  0  0  0  0  0  0  0  0  0
  -20.5475   15.9923  -31.2523 C   0  0  0  0  0  0  0  0  0  0  0  0
  -19.2686   17.8385  -25.9559 N   0  0  0  0  0  0  0  0  0  0  0  0
  4  3  1  0
  6  4  1  0
  7  2  1  0
  7  5  1  0
  9  3  1  0
 10  1  1  0
 10  8  1  0
 11  4  1  0
 11  5  1  0
 11  6  1  0
 12  1  2  0
 13  9  1  0
 14  3  1  0
 14 12  2  0
 15  9  1  0
 16 14  1  0
 17  7  2  0
 17 13  1  0
M  END
>  <ID>  (1) 
conformer_0

$$$$
