
     RDKit          3D

 22 24  0  0  0  0  0  0  0  0999 V2000
  -23.0386   17.1081  -31.1805 C   0  0  0  0  0  0  0  0  0  0  0  0
  -21.1702   17.8333  -28.0443 C   0  0  0  0  0  3  0  0  0  0  0  0
  -18.1214   16.2515  -26.8943 C   0  0  0  0  0  0  0  0  0  0  0  0
  -16.9862   18.2382  -24.0031 C   0  0  0  0  0  0  0  0  0  0  0  0
  -20.5972   16.4914  -29.8185 N   0  0  0  0  0  0  0  0  0  0  0  0
  -21.8315   17.2943  -30.0563 C   0  0  0  0  0  0  0  0  0  0  0  0
  -17.7613   17.7873  -25.0035 N   0  0  0  0  0  0  0  0  0  0  0  0
  -20.0845   18.2963  -26.0331 O   0  0  0  0  0  0  0  0  0  0  0  0
  -17.6447   17.2216  -25.3924 C   0  0  0  0  0  0  0  0  0  0  0  0
  -20.7579   15.6905  -31.2499 C   0  0  0  0  0  0  0  0  0  0  0  0
  -25.0940   17.3148  -30.5679 C   0  0  0  0  0  0  0  0  0  0  0  0
  -23.5175   18.3163  -30.5991 C   0  0  2  0  0  0  0  0  0  0  0  0
  -25.8659   16.8049  -31.5069 O   0  0  0  0  0  0  0  0  0  0  0  0
  -23.2964   18.9590  -27.4924 N   0  0  0  0  0  0  0  0  0  0  0  0
  -19.5427   17.7109  -26.0357 C   0  0  0  0  0  0  0  0  0  0  0  0
  -22.3170   18.0456  -28.9258 C   0  0  0  0  0  0  0  0  0  0  0  0
  -20.2910   16.9903  -28.6485 C   0  0  2  0  0  0  0  0  0  0  0  0
  -22.4315   18.6298  -27.4276 C   0  0  0  0  0  0  0  0  0  0  0  0
  -25.0817   18.4859  -29.1082 O   0  0  0  0  0  0  0  0  0  0  0  0
  -19.4643   16.3864  -27.4742 C   0  0  1  0  0  0  0  0  0  0  0  0
  -18.9914   15.8572  -29.4265 C   0  0  0  0  0  0  0  0  0  0  0  0
  -24.6912   18.1633  -31.7747 C   0  0  0  0  0  0  0  0  0  0  0  0
  6  1  1  0
  6  5  1  0
  7  4  1  0
  9  3  1  0
  9  7  2  3
 10  5  1  0
 12  1  1  6
 12 11  1  0
 13 11  1  0
 15  8  2  0
 16  2  1  0
 16  6  2  0
 17  2  1  0
 17  5  1  0
 18  2  1  0
 18 14  1  0
 18 16  1  0
 19 11  1  0
 20  3  1  6
 20 15  1  0
 20 17  1  0
 17 21  1  6
 22 11  1  0
 22 12  1  0
M  RAD  1   2   2
M  END
>  <ID>  (1) 
conformer_0

$$$$
