
     RDKit          3D

 16 16  0  0  0  0  0  0  0  0999 V2000
  -23.6027   17.9598  -30.8131 C   0  0  0  0  0  0  0  0  0  0  0  0
  -21.5328   17.9938  -28.5203 C   0  0  2  0  0  0  0  0  0  0  0  0
  -17.5119   17.4425  -24.6635 C   0  0  0  0  0  0  0  0  0  0  0  0
  -20.3320   16.7702  -28.7100 C   0  0  0  0  0  0  0  0  0  0  0  0
  -21.1502   16.5659  -29.9056 N   0  0  0  0  0  0  0  0  0  0  0  0
  -19.4371   15.4815  -29.1550 O   0  0  0  0  0  0  0  0  0  0  0  0
  -20.1886   18.5907  -26.1294 O   0  0  0  0  0  0  0  0  0  0  0  0
  -18.8839   16.3734  -26.9897 C   0  0  0  0  0  0  0  0  0  0  0  0
  -18.7136   17.3671  -26.0459 C   0  0  0  0  0  0  0  0  0  0  0  0
  -25.5997   17.3077  -32.1816 O   0  0  0  0  0  0  0  0  0  0  0  0
  -23.0768   19.0064  -27.1742 O   0  0  0  0  0  0  0  0  0  0  0  0
  -24.7166   17.4867  -30.9825 C   0  0  0  0  0  0  0  0  0  0  0  0
  -20.9993   18.2785  -26.9009 C   0  0  1  0  0  0  0  0  0  0  0  0
  -18.2439   17.6374  -25.4260 N   0  0  0  0  0  0  0  0  0  0  0  0
  -21.1048   15.9051  -30.9450 C   0  0  0  0  0  0  0  0  0  0  0  0
  -22.1682   17.4237  -29.8612 C   0  0  2  0  0  0  0  0  0  0  0  0
  2  4  1  6
  5  4  1  0
  6  4  2  0
  9  7  1  0
  9  8  1  0
 12  1  1  0
 12 10  1  0
 13  2  1  0
 13  7  1  0
 13 11  1  6
 14  3  2  3
 14  9  1  0
 15  5  1  0
 16  1  1  6
 16  2  1  0
 16  5  1  0
M  END
>  <ID>  (1) 
conformer_0

$$$$
