
     RDKit          3D

 19 19  0  0  0  0  0  0  0  0999 V2000
  -24.3922   18.1243  -31.2585 C   0  0  0  0  0  0  0  0  0  0  0  0
  -21.1747   17.7230  -28.0834 C   0  0  0  0  0  0  0  0  0  0  0  0
  -17.7439   17.1844  -25.5187 C   0  0  1  0  0  0  0  0  0  0  0  0
  -18.2779   16.4805  -26.7051 C   0  0  0  0  0  0  0  0  0  0  0  0
  -20.1852   16.7254  -28.7207 C   0  0  2  0  0  0  0  0  0  0  0  0
  -19.8313   17.6870  -25.6872 C   0  0  0  0  0  0  0  0  0  0  0  0
  -20.5277   16.4992  -29.8373 N   0  0  0  0  0  0  0  0  0  0  0  0
  -25.5371   17.9858  -31.7576 C   0  0  0  0  0  0  0  0  0  0  0  0
  -18.8660   15.5583  -28.5336 O   0  0  0  0  0  0  0  0  0  0  0  0
  -26.0281   17.3797  -32.7175 O   0  0  0  0  0  0  0  0  0  0  0  0
  -19.8502   15.7354  -30.9616 C   0  0  0  0  0  0  0  0  0  0  0  0
  -21.9447   17.3053  -30.0888 C   0  0  0  0  0  0  0  0  0  0  0  0
  -23.4396   17.6841  -30.9175 C   0  0  0  0  0  0  0  0  0  0  0  0
  -21.5602   18.5219  -26.8557 C   0  0  0  0  0  0  0  0  0  0  0  0
  -19.7879   17.9811  -25.7679 N   0  0  0  0  0  0  0  0  0  0  0  0
  -18.5921   16.3017  -27.7791 C   0  0  0  0  0  0  0  0  0  0  0  0
  -17.7118   17.6538  -24.7522 N   0  0  0  0  0  0  0  0  0  0  0  0
  -22.3458   17.8545  -29.1276 C   0  0  0  0  0  0  0  0  0  0  0  0
  -17.1102   17.6472  -23.8958 C   0  0  0  0  0  0  0  0  0  0  0  0
  3  4  1  1
  5  2  1  0
  6  3  1  0
  7  5  1  0
  8  1  1  0
  5  9  1  1
 10  8  1  0
 11  7  1  0
 12  7  1  0
 13  1  2  0
 13 12  2  0
 14  2  1  0
 15  6  1  0
 16  4  1  0
 16  9  1  0
 17  3  1  0
 18  2  2  0
 18 12  1  0
 19 17  2  3
M  END
>  <ID>  (1) 
conformer_0

$$$$
