
     RDKit          3D

 15 15  0  0  0  0  0  0  0  0999 V2000
  -17.5004   17.8214  -24.3299 C   0  0  0  0  0  0  0  0  0  0  0  0
  -21.3967   17.9245  -28.4056 C   0  0  0  0  0  0  0  0  0  0  0  0
  -20.3716   16.6643  -28.8882 C   0  0  0  0  0  0  0  0  0  0  0  0
  -18.4534   15.8608  -26.9722 C   0  0  0  0  0  0  0  0  0  0  0  0
  -24.0630   18.4470  -30.9136 C   0  0  0  0  0  0  0  0  0  0  0  0
  -21.1284   16.6702  -29.9580 N   0  0  0  0  0  0  0  0  0  0  0  0
  -25.7456   17.4449  -32.2557 O   0  0  0  0  0  0  0  0  0  0  0  0
  -24.5255   18.1962  -30.5378 C   0  0  0  0  0  0  0  0  0  0  0  0
  -19.4589   17.7472  -26.5765 C   0  0  0  0  0  0  0  0  0  0  0  0
  -18.2229   17.5516  -25.6283 N   0  0  0  0  0  0  0  0  0  0  0  0
  -19.3431   15.6057  -28.8165 O   0  0  0  0  0  0  0  0  0  0  0  0
  -17.5241   16.7604  -25.8651 C   0  0  0  0  0  0  0  0  0  0  0  0
  -20.4464   18.4777  -26.0899 O   0  0  0  0  0  0  0  0  0  0  0  0
  -22.0502   17.4928  -29.7243 C   0  0  0  0  0  0  0  0  0  0  0  0
  -19.4251   15.6540  -30.1994 C   0  0  0  0  0  0  0  0  0  0  0  0
  3  2  1  0
  6  3  1  0
  8  5  1  0
  8  7  1  0
 10  1  1  0
 10  9  1  0
 11  3  1  0
 12  4  1  0
 12 10  1  0
 13  9  1  0
 14  2  1  0
 14  5  1  0
 14  6  2  0
 15  3  1  0
 15  4  1  0
M  END
>  <ID>  (1) 
conformer_0

$$$$
