
     RDKit          3D

 14 14  0  0  0  0  0  0  0  0999 V2000
  -24.8829   18.3568  -31.2736 C   0  0  0  0  0  0  0  0  0  0  0  0
  -22.2063   18.0734  -28.7673 C   0  0  2  0  0  0  0  0  0  0  0  0
  -17.6431   17.5729  -24.5605 C   0  0  0  0  0  0  0  0  0  0  0  0
  -18.8499   16.1841  -27.1613 C   0  0  0  0  0  0  0  0  0  0  0  0
  -20.3751   18.2562  -25.6140 O   0  0  0  0  0  0  0  0  0  0  0  0
  -20.8097   16.7236  -29.7256 N   0  0  0  0  0  0  0  0  0  0  0  0
  -21.1519   17.1732  -29.3489 C   0  0  0  0  0  0  0  0  0  0  0  0
  -17.5674   16.9171  -26.0217 C   0  0  0  0  0  0  0  0  0  0  0  0
  -25.6399   17.2142  -32.5808 O   0  0  0  0  0  0  0  0  0  0  0  0
  -23.3835   18.0324  -31.0387 C   0  0  0  0  0  0  0  0  0  0  0  0
  -20.0087   15.7537  -30.3708 C   0  0  0  0  0  3  0  0  0  0  0  0
  -18.0703   17.4614  -25.6660 N   0  0  0  0  0  0  0  0  0  0  0  0
  -19.8336   17.7437  -26.2990 C   0  0  0  0  0  0  0  0  0  0  0  0
  -21.0007   17.8579  -27.8620 C   0  0  0  0  0  0  0  0  0  0  0  0
  7  2  1  0
  7  6  1  0
  8  4  1  0
  9  1  1  0
 10  1  1  0
  2 10  1  6
 11  6  2  3
 12  3  1  0
 12  8  1  0
 13  5  2  0
 13 12  1  0
 14  2  1  0
 14  7  2  0
 14 13  1  0
M  RAD  1  11   2
M  END
>  <ID>  (1) 
conformer_0

$$$$
