
     RDKit          3D

 15 15  0  0  0  0  0  0  0  0999 V2000
  -23.8078   17.8718  -30.7437 C   0  0  0  0  0  0  0  0  0  0  0  0
  -21.7458   18.0610  -28.6739 C   0  0  0  0  0  0  0  0  0  0  0  0
  -17.2953   17.5566  -24.5787 C   0  0  0  0  0  0  0  0  0  0  0  0
  -20.4222   16.9215  -28.7406 C   0  0  0  0  0  0  0  0  0  0  0  0
  -18.5432   16.4191  -27.1479 C   0  0  0  0  0  0  0  0  0  0  0  0
  -20.8602   16.4546  -29.7363 N   0  0  0  0  0  0  0  0  0  0  0  0
  -25.3696   18.2455  -31.0987 C   0  0  0  0  0  0  0  0  0  0  0  0
  -17.9610   17.0617  -26.1456 C   0  0  0  0  0  0  0  0  0  0  0  0
  -19.2658   15.4387  -28.9092 O   0  0  0  0  0  0  0  0  0  0  0  0
  -25.9316   18.0262  -32.3602 O   0  0  0  0  0  0  0  0  0  0  0  0
  -20.2073   15.4665  -30.8313 C   0  0  0  0  0  0  0  0  0  0  0  0
  -18.3203   17.7559  -25.5886 N   0  0  0  0  0  0  0  0  0  0  0  0
  -20.4301   18.6652  -26.2232 O   0  0  0  0  0  0  0  0  0  0  0  0
  -20.1678   18.1621  -26.6227 C   0  0  0  0  0  0  0  0  0  0  0  0
  -22.1392   17.1312  -29.9905 C   0  0  0  0  0  0  0  0  0  0  0  0
  4  2  1  0
  6  4  1  0
  7  1  2  0
  8  5  1  0
  9  4  2  0
 10  7  1  0
 11  6  1  0
 12  3  1  0
 12  8  1  0
 14  2  1  0
 14  5  1  0
 14 13  2  0
 15  1  2  0
 15  2  1  0
 15  6  1  0
M  END
>  <ID>  (1) 
conformer_0

$$$$
