
     RDKit          3D

 14 13  0  0  0  0  0  0  0  0999 V2000
  -17.2035   17.4130  -24.2749 C   0  0  0  0  0  0  0  0  0  0  0  0
  -21.6393   17.9242  -28.5764 C   0  0  0  0  0  0  0  0  0  0  0  0
  -23.6616   18.0161  -30.5975 C   0  0  0  0  0  0  0  0  0  0  0  0
  -18.3590   16.6676  -27.1661 C   0  0  0  0  0  0  0  0  0  0  0  0
  -21.2906   17.1983  -29.4682 C   0  0  0  0  0  0  0  0  0  0  0  0
  -20.7217   16.5856  -29.7600 N   0  0  0  0  0  0  0  0  0  0  0  0
  -25.1641   18.1479  -31.1183 C   0  0  0  0  0  0  0  0  0  0  0  0
  -20.0850   18.1106  -26.0781 O   0  0  0  0  0  0  0  0  0  0  0  0
  -25.7075   17.4837  -31.9945 O   0  0  0  0  0  0  0  0  0  0  0  0
  -18.3397   17.3634  -25.6589 C   0  0  0  0  0  0  0  0  0  0  0  0
  -20.7164   18.2769  -26.8710 C   0  0  0  0  0  0  0  0  0  0  0  0
  -18.7633   16.2755  -28.0905 C   0  0  0  0  0  0  0  0  0  0  0  0
  -18.9979   15.4104  -28.8781 O   0  0  0  0  0  0  0  0  0  0  0  0
  -20.5156   15.7192  -30.8168 C   0  0  0  0  0  0  0  0  0  0  0  0
  5  2  1  0
  5  3  2  0
  6  5  1  0
  7  3  2  0
  9  7  1  0
 10  1  1  0
 10  4  2  0
 10  8  1  0
 11  2  1  0
 11  8  1  0
 12  4  2  0
 13 12  1  0
 14  6  1  0
M  END
>  <ID>  (1) 
conformer_0

$$$$
