
     RDKit          3D

 17 17  0  0  0  0  0  0  0  0999 V2000
  -23.6425   17.9403  -30.8079 C   0  0  0  0  0  0  0  0  0  0  0  0
  -17.4045   17.9588  -23.9502 C   0  0  0  0  0  0  0  0  0  0  0  0
  -20.4168   17.0126  -28.7469 C   0  0  0  0  0  0  0  0  0  0  0  0
  -21.7428   17.9879  -28.7192 C   0  0  0  0  0  0  0  0  0  0  0  0
  -20.7339   16.5036  -30.0524 N   0  0  0  0  0  0  0  0  0  0  0  0
  -18.6173   16.3137  -27.0016 C   0  0  0  0  0  0  0  0  0  0  0  0
  -25.0889   18.0198  -31.2398 C   0  0  0  0  0  0  0  0  0  0  0  0
  -20.2030   18.4541  -25.8002 O   0  0  0  0  0  0  0  0  0  0  0  0
  -20.3272   15.8686  -31.1227 C   0  0  0  0  0  0  0  0  0  0  0  0
  -19.2967   18.0651  -25.5317 C   0  0  0  0  0  0  0  0  0  0  0  0
  -18.1611   17.7816  -25.1600 N   0  0  0  0  0  0  0  0  0  0  0  0
  -21.1836   18.6418  -26.9195 C   0  0  0  0  0  0  0  0  0  0  0  0
  -18.9363   15.4623  -28.6972 O   0  0  0  0  0  0  0  0  0  0  0  0
  -25.8954   17.0057  -32.0433 O   0  0  0  0  0  0  0  0  0  0  0  0
  -19.0208   15.9683  -28.1253 C   0  0  0  0  0  0  0  0  0  0  0  0
  -22.0294   17.4710  -29.9576 C   0  0  0  0  0  0  0  0  0  0  0  0
  -17.6827   17.0179  -25.7272 C   0  0  0  0  0  0  0  0  0  0  0  0
  4  3  1  0
  5  3  1  0
  7  1  2  0
  9  5  1  0
 10  8  1  0
 11  2  1  0
 11 10  1  0
 12  8  1  0
 14  7  1  0
 15  3  1  0
 15  6  2  0
 15 13  1  0
 16  1  2  0
 16  4  1  0
 16  5  1  0
 17  6  2  0
 17 11  1  0
M  END
>  <ID>  (1) 
conformer_0

$$$$
