
     RDKit          3D

 18 20  0  0  0  0  0  0  0  0999 V2000
  -24.3672   17.9789  -31.0089 C   0  0  0  0  0  0  0  0  0  0  0  0
  -22.3920   18.0443  -29.2650 C   0  0  0  0  0  3  0  0  0  0  0  0
  -17.0053   17.6182  -24.3828 C   0  0  0  0  0  0  0  0  0  0  0  0
  -18.2304   16.6822  -26.9055 C   0  0  0  0  0  0  0  0  0  0  0  0
  -20.4665   17.0789  -28.4982 C   0  0  0  0  0  0  0  0  0  0  0  0
  -20.8273   16.4770  -29.7381 N   0  0  0  0  0  0  0  0  0  0  0  0
  -18.2280   17.8275  -25.1100 N   0  0  0  0  0  0  0  0  0  0  0  0
  -25.1520   17.5401  -31.5923 C   0  0  0  0  0  0  0  0  0  0  0  0
  -25.7977   17.1128  -32.3507 O   0  0  0  0  0  0  0  0  0  0  0  0
  -18.8787   15.9877  -28.3415 C   0  0  0  0  0  0  0  0  0  0  0  0
  -19.0145   15.3165  -28.9950 O   0  0  0  0  0  0  0  0  0  0  0  0
  -21.4842   18.5839  -26.9505 C   0  0  0  0  0  0  0  0  0  0  0  0
  -21.0678   15.8791  -31.0614 C   0  0  0  0  0  0  0  0  0  0  0  0
  -19.2743   18.1099  -24.3784 C   0  0  0  0  0  0  0  0  0  0  0  0
  -22.0261   17.1281  -30.0445 C   0  0  0  0  0  0  0  0  0  0  0  0
  -23.2421   18.0652  -30.4610 C   0  0  0  0  0  0  0  0  0  0  0  0
  -18.1362   17.2486  -26.2520 C   0  0  0  0  0  0  0  0  0  0  0  0
  -21.1478   17.9996  -28.1928 C   0  0  0  0  0  0  0  0  0  0  0  0
  6  5  1  0
  7  3  1  0
  8  1  3  0
  9  8  1  0
 10  4  1  0
 10  5  1  0
 11 10  2  0
 13  6  1  0
 14  7  1  0
 15  2  1  0
 15  6  1  0
 15 13  1  0
 16  1  1  0
 16  2  1  0
 16 15  1  0
 17  4  3  0
 17  7  1  0
 18  2  1  0
 18  5  2  0
 18 12  1  0
M  RAD  1   2   2
M  END
>  <ID>  (1) 
conformer_0

$$$$
