
     RDKit          3D

 17 16  0  0  0  0  0  0  0  0999 V2000
  -19.0543   17.7515  -25.4262 C   0  0  0  0  0  0  0  0  0  0  0  0
  -24.3818   18.1877  -30.9499 C   0  0  0  0  0  0  0  0  0  0  0  0
  -22.0562   18.0033  -28.8314 C   0  0  0  0  0  0  0  0  0  0  0  0
  -20.6338   17.4862  -28.0237 C   0  0  0  0  0  0  0  0  0  0  0  0
  -18.5636   16.7106  -27.2219 C   0  0  0  0  0  0  0  0  0  0  0  0
  -20.3585   18.3384  -26.1707 O   0  0  0  0  0  0  0  0  0  0  0  0
  -20.9562   16.6532  -29.8259 N   0  0  0  0  0  0  0  0  0  0  0  0
  -25.2422   17.8657  -31.2230 C   0  0  0  0  0  0  0  0  0  0  0  0
  -25.8728   17.0907  -31.9832 O   0  0  0  0  0  0  0  0  0  0  0  0
  -17.5429   17.5690  -23.9180 C   0  0  0  0  0  0  0  0  0  0  0  0
  -19.2659   15.6139  -28.7747 O   0  0  0  0  0  0  0  0  0  0  0  0
  -20.4603   15.9009  -30.9482 C   0  0  0  0  0  0  0  0  0  0  0  0
  -21.7982   17.1804  -29.7717 C   0  0  0  0  0  0  0  0  0  0  0  0
  -22.0986   19.5590  -27.4124 C   0  0  0  0  0  0  0  0  0  0  0  0
  -17.2483   17.0793  -25.7171 C   0  0  2  0  0  0  0  0  0  0  0  0
  -23.2478   17.3068  -30.7132 C   0  0  0  0  0  0  0  0  0  0  0  0
  -18.9144   16.6211  -27.3849 C   0  0  0  0  0  0  0  0  0  0  0  0
  4  3  2  0
  6  1  1  0
  8  2  1  0
  9  8  1  0
 12  7  1  0
 13  3  1  0
 13  7  2  3
 14  3  1  0
 15  1  1  0
 15  5  1  0
 15 10  1  1
 16  2  1  0
 16 13  1  0
 17  4  2  0
 17  5  1  0
 17 11  1  0
M  END
>  <ID>  (1) 
conformer_0

$$$$
