
     RDKit          3D

 19 21  0  0  0  0  0  0  0  0999 V2000
  -22.1181   18.0929  -28.7274 C   0  0  0  0  0  0  0  0  0  0  0  0
  -18.0760   15.6045  -27.0039 C   0  0  0  0  0  0  0  0  0  0  0  0
  -17.0939   16.8137  -25.9918 C   0  0  0  0  0  0  0  0  0  0  0  0
  -23.8441   18.0512  -31.1989 C   0  0  0  0  0  0  0  0  0  0  0  0
  -22.2053   17.5583  -29.9452 C   0  0  0  0  0  0  0  0  0  0  0  0
  -21.0827   18.7511  -25.8514 O   0  0  0  0  0  0  0  0  0  0  0  0
  -24.9871   17.9112  -31.2070 C   0  0  0  0  0  0  0  0  0  0  0  0
  -17.9830   17.5433  -25.3520 N   0  0  0  0  0  0  0  0  0  0  0  0
  -20.9862   16.6428  -29.9834 N   0  0  0  0  0  0  0  0  0  0  0  0
  -19.1759   17.7312  -25.7229 C   0  0  0  0  0  0  0  0  0  0  0  0
  -20.1763   15.8237  -31.1618 C   0  0  0  0  0  0  0  0  0  0  0  0
  -19.2338   15.5441  -28.9976 O   0  0  0  0  0  0  0  0  0  0  0  0
  -26.0271   17.3241  -32.1806 O   0  0  0  0  0  0  0  0  0  0  0  0
  -21.3087   18.5879  -26.7436 C   0  0  0  0  0  0  0  0  0  0  0  0
  -20.9430   17.7725  -27.9586 C   0  0  0  0  0  0  0  0  0  0  0  0
  -19.0450   15.9327  -28.0684 C   0  0  0  0  0  0  0  0  0  0  0  0
  -20.5075   16.7487  -29.0119 C   0  0  0  0  0  0  0  0  0  0  0  0
  -19.2909   16.8645  -27.0183 C   0  0  0  0  0  0  0  0  0  0  0  0
  -17.1529   17.7343  -24.3001 C   0  0  0  0  0  0  0  0  0  0  0  0
  3  2  1  0
  5  1  2  0
  5  4  1  0
  7  4  1  0
  8  3  1  0
  9  5  1  0
 10  8  1  0
 11  9  1  0
 13  7  1  0
 14  6  2  0
 15  1  1  0
 15 14  1  0
 16  2  1  0
 16 12  1  0
 17  9  1  0
 17 12  1  0
 17 15  2  0
 18  2  1  0
 18 10  1  0
 18 16  1  0
 19  8  1  0
M  END
>  <ID>  (1) 
conformer_0

$$$$
