
     RDKit          3D

 35 41  0  0  0  0  0  0  0  0999 V2000
   -1.1150   15.8038  -28.4422 C   0  0  0  0  0  0  0  0  0  0  0  0
   -0.6206   16.8561  -28.0391 C   0  0  0  0  0  0  0  0  0  0  0  0
   -1.1286   17.5099  -27.0020 C   0  0  0  0  0  0  0  0  0  0  0  0
    0.5552   17.4756  -28.7050 C   0  0  0  0  0  0  0  0  0  0  0  0
   -0.5677   14.9781  -29.4890 C   0  0  0  0  0  0  0  0  0  0  0  0
   -1.0353   13.6286  -29.7157 C   0  0  0  0  0  0  0  0  0  0  0  0
   -2.3193   15.2166  -27.9167 C   0  0  0  0  0  0  0  0  0  0  0  0
   -1.7896   16.9232  -25.8860 C   0  0  0  0  0  0  0  0  0  0  0  0
   -0.8558   18.9024  -26.6911 C   0  0  0  0  0  0  0  0  0  0  0  0
   -0.1348   19.5627  -27.7888 C   0  0  0  0  0  0  0  0  0  0  0  0
   -1.2396   19.5545  -25.5427 C   0  0  0  0  0  0  0  0  0  0  0  0
   -2.1671   13.1502  -28.9409 C   0  0  0  0  0  0  0  0  0  0  0  0
   -2.8055   13.9858  -28.1265 C   0  0  0  0  0  0  0  0  0  0  0  0
    0.6237   18.8386  -28.7179 C   0  0  0  0  0  0  0  0  0  0  0  0
   -2.3523   11.7761  -28.9239 C   0  0  0  0  0  0  0  0  0  0  0  0
   -2.1257   10.9137  -30.0043 C   0  0  0  0  0  0  0  0  0  0  0  0
   -1.8036   18.9903  -24.5420 C   0  0  0  0  0  0  0  0  0  0  0  0
    1.2423   16.8387  -29.7411 C   0  0  0  0  0  0  0  0  0  0  0  0
    1.0254   15.2814  -29.6765 C   0  0  0  0  0  0  0  0  0  0  0  0
   -2.7691   11.1489  -27.7497 C   0  0  0  0  0  0  0  0  0  0  0  0
    1.4889   19.5057  -29.5066 C   0  0  0  0  0  0  0  0  0  0  0  0
   -2.1020   19.5617  -23.3113 O   0  0  0  0  0  0  0  0  0  0  0  0
    2.1923   17.2452  -30.4104 C   0  0  0  0  0  0  0  0  0  0  0  0
   -1.4896   19.0074  -22.2981 C   0  0  0  0  0  0  0  0  0  0  0  0
   -2.3548    9.5432  -29.8698 C   0  0  0  0  0  0  0  0  0  0  0  0
   -3.0628   11.9405  -26.5672 O   0  0  0  0  0  0  0  0  0  0  0  0
   -0.5161   18.3408  -22.4393 O   0  0  0  0  0  0  0  0  0  0  0  0
   -2.8659    9.0143  -28.6999 C   0  0  0  0  0  0  0  0  0  0  0  0
    0.0447   17.8893  -21.2739 C   0  0  0  0  0  0  0  0  0  0  0  0
   -1.1994   17.4394  -20.5054 C   0  0  0  0  0  0  0  0  0  0  0  0
   -2.2584   18.4562  -21.0303 C   0  0  0  0  0  0  0  0  0  0  0  0
   -3.0934    9.7660  -27.5703 C   0  0  0  0  0  0  0  0  0  0  0  0
   -2.1741   17.5814  -24.7593 C   0  0  0  0  0  0  0  0  0  0  0  0
   -3.6074    9.1987  -26.1688 O   0  0  0  0  0  0  0  0  0  0  0  0
    2.3778   18.6980  -30.2811 C   0  0  0  0  0  0  0  0  0  0  0  0
  1  2  2  0
  2  3  1  0
  2  4  1  0
  1  5  1  0
  5  6  2  0
  1  7  1  0
  3  8  1  0
  3  9  2  0
  9 10  1  0
  9 11  1  0
  6 12  1  0
  7 13  1  0
 12 13  2  0
  4 14  1  0
 10 14  1  0
 12 15  1  0
 15 16  1  0
 11 17  2  0
  4 18  2  0
  5 19  1  0
 18 19  1  0
 15 20  2  0
 14 21  2  0
 17 22  1  0
 18 23  1  0
 22 24  1  0
 16 25  2  0
 20 26  1  0
 24 27  1  0
 25 28  1  0
 27 29  1  0
 29 30  1  0
 24 31  1  0
 30 31  1  0
 20 32  1  0
 28 32  2  0
  8 33  2  0
 17 33  1  0
 32 34  1  0
 21 35  1  0
 23 35  2  0
M  END
>  <ID>  (1) 
conformer_0

$$$$
