
     RDKit          3D

 33 37  0  0  0  0  0  0  0  0999 V2000
   -1.1150   15.8038  -28.4422 C   0  0  0  0  0  0  0  0  0  0  0  0
   -0.6206   16.8561  -28.0391 C   0  0  0  0  0  0  0  0  0  0  0  0
   -0.2825   14.9146  -29.2129 C   0  0  0  0  0  0  0  0  0  0  0  0
    0.8714   15.2423  -29.6328 C   0  0  0  0  0  0  0  0  0  0  0  0
    0.6457   17.3686  -28.4541 C   0  0  0  0  0  0  0  0  0  0  0  0
   -1.0369   13.4030  -29.3565 C   0  0  0  0  0  0  0  0  0  0  0  0
    1.6477   14.4362  -30.4041 F   0  0  0  0  0  0  0  0  0  0  0  0
   -1.5397   12.8784  -28.3424 C   0  0  0  0  0  0  0  0  0  0  0  0
   -1.4191   17.7569  -27.0894 C   0  0  0  0  0  0  0  0  0  0  0  0
   -2.0895   11.7304  -28.3879 C   0  0  0  0  0  0  0  0  0  0  0  0
    1.4593   16.5219  -29.2813 C   0  0  0  0  0  0  0  0  0  0  0  0
   -1.8500   10.9213  -29.5264 C   0  0  0  0  0  0  0  0  0  0  0  0
   -1.1833   19.0619  -26.9137 C   0  0  0  0  0  0  0  0  0  0  0  0
   -1.0026   19.3243  -25.6778 C   0  0  0  0  0  0  0  0  0  0  0  0
   -2.7607   11.0138  -27.2142 C   0  0  0  0  0  0  0  0  0  0  0  0
   -2.9970   11.6847  -26.1099 O   0  0  0  0  0  0  0  0  0  0  0  0
   -2.1209   17.1042  -26.2820 C   0  0  0  0  0  0  0  0  0  0  0  0
   -1.1798   11.5476  -30.4702 C   0  0  0  0  0  0  0  0  0  0  0  0
   -2.7108    9.6878  -27.1426 C   0  0  0  0  0  0  0  0  0  0  0  0
   -3.6579   10.7256  -25.3439 C   0  0  0  0  0  0  0  0  0  0  0  0
    2.7573   16.9468  -29.7045 C   0  0  0  0  0  0  0  0  0  0  0  0
   -2.5236   17.5686  -25.0486 C   0  0  0  0  0  0  0  0  0  0  0  0
   -3.3604   16.9746  -24.2240 O   0  0  0  0  0  0  0  0  0  0  0  0
   -0.7810   12.8803  -30.2897 C   0  0  0  0  0  0  0  0  0  0  0  0
    2.7790   18.0056  -30.6665 C   0  0  0  0  0  0  0  0  0  0  0  0
   -3.4959    9.4518  -25.9254 N   0  0  0  0  0  0  0  0  0  0  0  0
   -1.8176   18.7208  -24.7317 C   0  0  0  0  0  0  0  0  0  0  0  0
   -1.8835   18.9963  -23.3304 C   0  0  0  0  0  0  0  0  0  0  0  0
   -1.2161   18.4080  -22.4835 C   0  0  0  0  0  0  0  0  0  0  0  0
   -2.3655    9.5737  -29.7428 C   0  0  0  0  0  0  0  0  0  0  0  0
   -0.4176   17.1531  -22.6761 C   0  0  0  0  0  0  0  0  0  0  0  0
   -1.2892   18.6159  -20.9215 C   0  0  0  0  0  0  0  0  0  0  0  0
   -2.7518    8.8704  -28.4009 C   0  0  0  0  0  0  0  0  0  0  0  0
  1  2  2  0
  1  3  1  0
  3  4  2  0
  2  5  1  0
  3  6  1  0
  4  7  1  0
  6  8  1  0
  2  9  1  0
  8 10  2  0
  4 11  1  0
  5 11  2  0
 10 12  1  0
  9 13  1  0
 13 14  1  0
 10 15  1  0
 15 16  1  0
  9 17  2  0
 12 18  2  0
 15 19  2  0
 16 20  1  0
 11 21  1  0
 17 22  1  0
 22 23  1  0
  6 24  2  0
 18 24  1  0
 21 25  1  0
 19 26  1  0
 20 26  2  0
 14 27  1  0
 22 27  2  0
 27 28  1  0
 28 29  2  3
 12 30  1  0
 29 31  1  0
 29 32  1  0
 19 33  1  0
 30 33  1  0
M  END
>  <ID>  (1) 
conformer_0

$$$$
