
     RDKit          3D

 34 41  0  0  0  0  0  0  0  0999 V2000
   -1.1150   15.8038  -28.4422 C   0  0  0  0  0  0  0  0  0  0  0  0
   -0.6206   16.8561  -28.0391 C   0  0  0  0  0  0  0  0  0  0  0  0
   -0.2825   14.9146  -29.2129 C   0  0  0  0  0  0  0  0  0  0  0  0
    0.7385   17.2136  -28.5840 C   0  0  0  0  0  0  0  0  0  0  0  0
   -1.2056   17.8590  -27.1232 C   0  0  0  0  0  0  0  0  0  0  0  0
   -2.3819   15.2600  -27.9743 C   0  0  0  0  0  0  0  0  0  0  0  0
   -2.7611   15.4805  -26.7335 O   0  0  0  0  0  0  0  0  0  0  0  0
    1.3696   18.4657  -28.3994 C   0  0  0  0  0  0  0  0  0  0  0  0
    1.3854   16.3079  -29.3542 C   0  0  0  0  0  0  0  0  0  0  0  0
   -2.8825   16.7146  -26.0752 C   0  0  0  0  0  0  0  0  0  0  0  0
   -0.8710   13.5069  -29.4880 C   0  0  0  0  0  0  0  0  0  0  0  0
   -3.5145   16.7788  -24.9324 O   0  0  0  0  0  0  0  0  0  0  0  0
   -1.6871   17.6066  -26.0960 C   0  0  0  0  0  0  0  0  0  0  0  0
    2.6797   16.7331  -30.0331 C   0  0  0  0  0  0  0  0  0  0  0  0
   -0.8823   17.0042  -25.0157 C   0  0  0  0  0  0  0  0  0  0  0  0
   -1.7823   12.8534  -28.7096 C   0  0  0  0  0  0  0  0  0  0  0  0
   -3.2591   17.9628  -24.2370 C   0  0  0  0  0  0  0  0  0  0  0  0
   -2.2165   17.9360  -23.3153 C   0  0  0  0  0  0  0  0  0  0  0  0
   -2.7802   13.8454  -28.0293 C   0  0  0  0  0  0  0  0  0  0  0  0
   -0.8481   17.8635  -23.7729 C   0  0  0  0  0  0  0  0  0  0  0  0
    0.7130   15.0151  -29.5203 C   0  0  0  0  0  0  0  0  0  0  0  0
    3.1709   17.9049  -29.8759 C   0  0  0  0  0  0  0  0  0  0  0  0
   -2.0951   11.6006  -28.8667 C   0  0  0  0  0  0  0  0  0  0  0  0
   -2.4385   10.7780  -27.7409 C   0  0  0  0  0  0  0  0  0  0  0  0
   -2.7306    9.4447  -27.8055 C   0  0  0  0  0  0  0  0  0  0  0  0
   -2.1317   18.9575  -25.4746 C   0  0  0  0  0  0  0  0  0  0  0  0
   -2.5455   11.4674  -26.3372 C   0  0  0  0  0  0  0  0  0  0  0  0
   -2.5079    8.9701  -29.1916 C   0  0  0  0  0  0  0  0  0  0  0  0
   -2.1601    9.6027  -30.2377 C   0  0  0  0  0  0  0  0  0  0  0  0
   -3.3148    8.6077  -26.6182 C   0  0  0  0  0  0  0  0  0  0  0  0
   -1.8212   10.9884  -30.0595 C   0  0  0  0  0  0  0  0  0  0  0  0
    0.7977   19.4421  -27.4501 C   0  0  0  0  0  0  0  0  0  0  0  0
   -0.7438   19.2922  -27.4902 C   0  0  0  0  0  0  0  0  0  0  0  0
    2.5439   18.7803  -29.0425 C   0  0  0  0  0  0  0  0  0  0  0  0
  1  2  2  0
  1  3  1  0
  2  4  1  0
  2  5  1  0
  1  6  1  0
  6  7  1  0
  4  8  1  0
  4  9  2  0
  7 10  1  0
  3 11  1  0
 10 12  1  0
  5 13  1  0
 10 13  1  0
  9 14  1  0
 13 15  1  0
 11 16  2  0
 12 17  1  0
 17 18  1  0
  6 19  1  0
 16 19  1  0
 15 20  1  0
 18 20  1  0
  3 21  2  0
  9 21  1  0
 14 22  2  0
 16 23  1  0
 23 24  2  0
 24 25  1  0
 13 26  1  0
 17 26  1  0
 24 27  1  0
 25 28  2  0
 28 29  1  0
 25 30  1  0
 23 31  1  0
 29 31  2  0
  8 32  1  0
  5 33  2  0
 32 33  1  0
  8 34  2  0
 22 34  1  0
M  END
>  <ID>  (1) 
conformer_0

$$$$
