
     RDKit          3D

 34 38  0  0  0  0  0  0  0  0999 V2000
   -1.1150   15.8038  -28.4422 C   0  0  0  0  0  0  0  0  0  0  0  0
   -0.6206   16.8561  -28.0391 C   0  0  0  0  0  0  0  0  0  0  0  0
   -2.1749   15.1396  -27.9679 C   0  0  0  0  0  0  0  0  0  0  0  0
   -2.5945   13.8882  -28.5396 C   0  0  0  0  0  0  0  0  0  0  0  0
   -1.4337   17.4062  -26.8330 C   0  0  0  0  0  0  0  0  0  0  0  0
    0.4497   17.6727  -28.5638 C   0  0  0  0  0  0  0  0  0  0  0  0
    1.2567   17.1663  -29.4438 C   0  0  0  0  0  0  0  0  0  0  0  0
    0.6295   18.9903  -28.1548 C   0  0  0  0  0  0  0  0  0  0  0  0
   -2.3512   16.6722  -26.1892 C   0  0  0  0  0  0  0  0  0  0  0  0
   -1.6898   12.9297  -28.7848 C   0  0  0  0  0  0  0  0  0  0  0  0
   -2.9457   17.2699  -24.9985 C   0  0  0  0  0  0  0  0  0  0  0  0
   -0.3446   19.5452  -27.1707 C   0  0  0  0  0  0  0  0  0  0  0  0
   -1.7200   12.0287  -29.9753 C   0  0  0  0  0  0  0  0  0  0  0  0
   -0.9685   18.6723  -26.2892 C   0  0  0  0  0  0  0  0  0  0  0  0
   -2.6599   18.3024  -24.5139 C   0  0  0  0  0  0  0  0  0  0  0  0
    1.9945   16.0677  -29.2263 C   0  0  0  0  0  0  0  0  0  0  0  0
   -3.1664   18.8304  -23.3295 O   0  0  0  0  0  0  0  0  0  0  0  0
   -1.7807   10.6094  -29.7148 C   0  0  0  0  0  0  0  0  0  0  0  0
   -2.4330   18.5260  -22.2541 C   0  0  0  0  0  0  0  0  0  0  0  0
   -2.8167   10.0907  -28.9396 C   0  0  0  0  0  0  0  0  0  0  0  0
   -2.6303   19.0839  -21.0895 C   0  0  0  0  0  0  0  0  0  0  0  0
   -1.6076   18.3307  -20.3323 C   0  0  0  0  0  0  0  0  0  0  0  0
   -1.6342   19.1513  -25.2605 C   0  0  0  0  0  0  0  0  0  0  0  0
    2.9755   15.7227  -30.2096 C   0  0  0  0  0  0  0  0  0  0  0  0
   -2.5079   10.0101  -27.4643 C   0  0  0  0  0  0  0  0  0  0  0  0
    3.3302   16.6404  -31.1046 C   0  0  0  0  0  0  0  0  0  0  0  0
    1.6405   18.2077  -30.6032 C   0  0  0  0  0  0  0  0  0  0  0  0
   -1.3909   17.0286  -20.9243 C   0  0  0  0  0  0  0  0  0  0  0  0
    0.9796   19.3249  -30.7078 O   0  0  0  0  0  0  0  0  0  0  0  0
    2.6828   17.7885  -31.3778 C   0  0  0  0  0  0  0  0  0  0  0  0
   -3.2853    8.6931  -29.3811 C   0  0  0  0  0  0  0  0  0  0  0  0
   -1.5824   17.3003  -22.4220 C   0  0  0  0  0  0  0  0  0  0  0  0
   -3.5060   10.8049  -26.5816 C   0  0  0  0  0  0  0  0  0  0  0  0
   -2.8041   15.3803  -26.6866 C   0  0  0  0  0  0  0  0  0  0  0  0
  1  2  2  0
  1  3  1  0
  3  4  1  0
  2  5  1  0
  2  6  1  0
  6  7  1  0
  6  8  2  0
  5  9  2  0
  4 10  1  0
  9 11  1  0
  8 12  1  0
 10 13  1  0
  5 14  1  0
 12 14  2  0
 11 15  2  0
  7 16  2  0
 15 17  1  0
 13 18  1  0
 17 19  1  0
 18 20  1  0
 19 21  1  0
 21 22  1  0
 14 23  1  0
 15 23  1  0
 16 24  1  0
 20 25  1  0
 24 26  2  0
  7 27  1  0
 22 28  1  0
 27 29  1  0
 26 30  1  0
 27 30  2  0
 20 31  1  0
 19 32  1  0
 28 32  1  0
 25 33  1  0
  3 34  2  0
  9 34  1  0
M  END
>  <ID>  (1) 
conformer_0

$$$$
