
     RDKit          3D

  9 10  0  0  0  0  0  0  0  0999 V2000
   -3.1715    8.9063  -29.5502 C   0  0  0  0  0  0  0  0  0  0  0  0
   -2.8062    9.5578  -28.4107 C   0  0  0  0  0  0  0  0  0  0  0  0
   -3.0032   10.9580  -28.4155 C   0  0  0  0  0  0  0  0  0  0  0  0
   -2.8942   10.0213  -30.4766 C   0  0  0  0  0  0  0  0  0  0  0  0
   -2.9544    8.8701  -27.0942 C   0  0  0  0  0  0  0  0  0  0  0  0
   -1.1057    9.5197  -28.2289 C   0  0  0  0  0  0  0  0  0  0  0  0
   -1.7662   10.8469  -30.1682 C   0  0  0  0  0  0  0  0  0  0  0  0
   -2.0556   11.6555  -29.1692 C   0  0  0  0  0  0  0  0  0  0  0  0
   -0.6911    9.9107  -29.6682 C   0  0  0  0  0  0  0  0  0  0  0  0
  1  2  1  0
  2  3  1  0
  1  4  1  0
  2  5  1  0
  2  6  1  0
  4  7  1  0
  3  8  1  0
  7  8  1  0
  6  9  1  0
  7  9  1  0
M  END
>  <ID>  (1) 
conformer_0

$$$$
