
     RDKit          3D

 31 34  0  0  0  0  0  0  0  0999 V2000
   -1.1150   15.8038  -28.4422 C   0  0  0  0  0  0  0  0  0  0  0  0
   -0.6206   16.8561  -28.0391 C   0  0  0  0  0  0  0  0  0  0  0  0
   -0.2825   14.9146  -29.2129 C   0  0  0  0  0  0  0  0  0  0  0  0
    0.7385   17.2136  -28.5840 C   0  0  0  0  0  0  0  0  0  0  0  0
   -1.2056   17.8590  -27.1232 C   0  0  0  0  0  0  0  0  0  0  0  0
    1.3998   18.4576  -28.3282 C   0  0  0  0  0  0  0  0  0  0  0  0
   -1.0423   19.1976  -27.2355 C   0  0  0  0  0  0  0  0  0  0  0  0
   -2.4006   15.2455  -27.8523 C   0  0  0  0  0  0  0  0  0  0  0  0
   -1.9555   17.3628  -26.0093 C   0  0  0  0  0  0  0  0  0  0  0  0
   -2.8712   14.1936  -28.7144 O   0  0  0  0  0  0  0  0  0  0  0  0
   -1.6256   17.8135  -24.6633 C   0  0  0  0  0  0  0  0  0  0  0  0
   -0.8179   17.3152  -23.8742 C   0  0  0  0  0  0  0  0  0  0  0  0
   -0.7081   17.7393  -22.4775 C   0  0  0  0  0  0  0  0  0  0  0  0
    0.8471   15.0836  -29.6838 C   0  0  0  0  0  0  0  0  0  0  0  0
   -2.4758   12.9843  -28.5855 C   0  0  0  0  0  0  0  0  0  0  0  0
   -1.9380   12.2672  -29.6391 C   0  0  0  0  0  0  0  0  0  0  0  0
    0.2876   17.1416  -21.5597 O   0  0  0  0  0  0  0  0  0  0  0  0
   -1.6782   10.9480  -29.5517 C   0  0  0  0  0  0  0  0  0  0  0  0
    1.3837   16.3495  -29.4110 C   0  0  0  0  0  0  0  0  0  0  0  0
    1.9297   19.1508  -29.3681 C   0  0  0  0  0  0  0  0  0  0  0  0
   -2.5259   18.8610  -24.1260 C   0  0  0  0  0  0  0  0  0  0  0  0
   -3.0979   12.1463  -27.4584 C   0  0  0  0  0  0  0  0  0  0  0  0
   -1.4853   18.7215  -21.9802 C   0  0  0  0  0  0  0  0  0  0  0  0
   -3.0352   10.8167  -27.3306 C   0  0  0  0  0  0  0  0  0  0  0  0
   -0.5776   16.4343  -20.6845 C   0  0  0  0  0  0  0  0  0  0  0  0
   -2.2676   10.1429  -28.4287 C   0  0  0  0  0  0  0  0  0  0  0  0
   -2.3117   19.3109  -22.7315 C   0  0  0  0  0  0  0  0  0  0  0  0
    2.6728   16.6857  -30.0368 C   0  0  0  0  0  0  0  0  0  0  0  0
   -3.4586   10.0868  -26.2511 C   0  0  0  0  0  0  0  0  0  0  0  0
   -2.0307    8.6147  -28.5146 C   0  0  0  0  0  0  0  0  0  0  0  0
    2.7731   18.2023  -30.2691 C   0  0  0  0  0  0  0  0  0  0  0  0
  1  2  2  0
  1  3  1  0
  2  4  1  0
  2  5  1  0
  4  6  1  0
  5  7  2  0
  1  8  1  0
  5  9  1  0
  8 10  1  0
  9 11  1  0
 11 12  1  0
 12 13  2  0
  3 14  2  0
 10 15  1  0
 15 16  2  0
 13 17  1  0
 16 18  1  0
  4 19  2  0
 14 19  1  0
  6 20  1  0
 11 21  2  0
 15 22  1  0
 13 23  1  0
 22 24  2  0
 17 25  1  0
 18 26  2  0
 24 26  1  0
 21 27  1  0
 23 27  2  0
 19 28  1  0
 24 29  1  0
 26 30  1  0
 20 31  1  0
 28 31  1  0
M  END
>  <ID>  (1) 
conformer_0

$$$$
