
     RDKit          3D

  8  8  0  0  0  0  0  0  0  0999 V2000
   -2.9460    8.5799  -27.4765 C   0  0  0  0  0  0  0  0  0  0  0  0
   -2.7296    9.3597  -28.6566 C   0  0  0  0  0  0  0  0  0  0  0  0
   -3.0757    9.4991  -26.2997 C   0  0  0  0  0  0  0  0  0  0  0  0
   -3.8943   10.6321  -26.4753 C   0  0  0  0  0  0  0  0  0  0  0  0
   -3.3114   10.5638  -28.7794 C   0  0  0  0  0  0  0  0  0  0  0  0
   -1.2386    9.5204  -28.9171 C   0  0  0  0  0  0  0  0  0  0  0  0
   -3.2548   11.4094  -27.5455 C   0  0  0  0  0  0  0  0  0  0  0  0
   -3.1027    8.4872  -29.8586 O   0  0  0  0  0  0  0  0  0  0  0  0
  1  2  1  0
  1  3  1  0
  3  4  1  0
  2  5  1  0
  2  6  1  0
  4  7  1  0
  5  7  1  0
  2  8  1  0
M  END
>  <ID>  (1) 
conformer_0

$$$$
