
     RDKit          3D

 33 37  0  0  0  0  0  0  0  0999 V2000
   -1.1150   15.8038  -28.4422 C   0  0  0  0  0  0  0  0  0  0  0  0
   -0.6206   16.8561  -28.0391 C   0  0  0  0  0  0  0  0  0  0  0  0
   -0.2825   14.9146  -29.2129 C   0  0  0  0  0  0  0  0  0  0  0  0
    0.8714   15.2423  -29.6328 C   0  0  0  0  0  0  0  0  0  0  0  0
    0.6457   17.3686  -28.4541 C   0  0  0  0  0  0  0  0  0  0  0  0
   -1.0369   13.4030  -29.3565 C   0  0  0  0  0  0  0  0  0  0  0  0
    1.6477   14.4362  -30.4041 F   0  0  0  0  0  0  0  0  0  0  0  0
   -1.5397   12.8784  -28.3424 C   0  0  0  0  0  0  0  0  0  0  0  0
   -1.4191   17.7569  -27.0894 C   0  0  0  0  0  0  0  0  0  0  0  0
   -2.0895   11.7304  -28.3879 C   0  0  0  0  0  0  0  0  0  0  0  0
    1.4593   16.5219  -29.2813 C   0  0  0  0  0  0  0  0  0  0  0  0
   -1.8500   10.9213  -29.5264 C   0  0  0  0  0  0  0  0  0  0  0  0
   -1.1833   19.0619  -26.9137 C   0  0  0  0  0  0  0  0  0  0  0  0
   -0.8153   12.6588  -30.4626 C   0  0  0  0  0  0  0  0  0  0  0  0
    2.7130   16.9772  -29.7425 C   0  0  0  0  0  0  0  0  0  0  0  0
   -1.0537   19.3279  -25.6254 C   0  0  0  0  0  0  0  0  0  0  0  0
    2.7990   17.6073  -30.8266 C   0  0  0  0  0  0  0  0  0  0  0  0
   -1.6716   18.3769  -24.7031 C   0  0  0  0  0  0  0  0  0  0  0  0
   -1.2899   18.1275  -23.4401 C   0  0  0  0  0  0  0  0  0  0  0  0
   -1.7740   17.2452  -25.7417 C   0  0  0  0  0  0  0  0  0  0  0  0
   -3.1662   19.0265  -24.6196 C   0  0  0  0  0  0  0  0  0  0  0  0
   -2.0383   18.3741  -22.3351 C   0  0  0  0  0  0  0  0  0  0  0  0
   -2.4487    9.4557  -29.4692 C   0  0  0  0  0  0  0  0  0  0  0  0
   -1.8366    8.6204  -28.8670 O   0  0  0  0  0  0  0  0  0  0  0  0
   -0.2021   17.2750  -23.2298 C   0  0  0  0  0  0  0  0  0  0  0  0
   -1.2484   11.3934  -30.5770 C   0  0  0  0  0  0  0  0  0  0  0  0
   -0.0041   17.0214  -21.7748 C   0  0  0  0  0  0  0  0  0  0  0  0
   -0.6743   17.3813  -20.8181 C   0  0  0  0  0  0  0  0  0  0  0  0
   -2.2414    8.6755  -27.4023 C   0  0  0  0  0  0  0  0  0  0  0  0
   -2.7980   11.1791  -27.0428 N   0  0  0  0  0  0  0  0  0  0  0  0
   -2.7279    9.8824  -26.7771 C   0  0  0  0  0  0  0  0  0  0  0  0
   -3.9710    9.7475  -26.1491 O   0  0  0  0  0  0  0  0  0  0  0  0
   -1.8096   18.1867  -20.9952 C   0  0  0  0  0  0  0  0  0  0  0  0
  1  2  2  0
  1  3  1  0
  3  4  2  0
  2  5  1  0
  3  6  1  0
  4  7  1  0
  6  8  1  0
  2  9  1  0
  8 10  2  0
  4 11  1  0
  5 11  2  0
 10 12  1  0
  9 13  1  0
  6 14  2  0
 11 15  1  0
 13 16  1  0
 15 17  1  0
 16 18  1  0
 18 19  1  0
  9 20  1  0
 18 20  1  0
 18 21  1  0
 19 22  1  0
 12 23  1  0
 23 24  1  0
 19 25  2  0
 12 26  2  0
 14 26  1  0
 25 27  1  0
 27 28  2  0
 24 29  1  0
 10 30  1  0
 29 31  1  0
 30 31  1  0
 31 32  2  0
 22 33  2  0
 28 33  1  0
M  END
>  <ID>  (1) 
conformer_0

$$$$
