
     RDKit          3D

 11 12  0  0  0  0  0  0  0  0999 V2000
   -3.0409   10.4219  -26.2020 C   0  0  0  0  0  0  0  0  0  0  0  0
   -3.0162    9.7018  -27.2888 C   0  0  0  0  0  0  0  0  0  0  0  0
   -2.3625   10.1890  -28.4527 C   0  0  0  0  0  0  0  0  0  0  0  0
   -1.9702   11.4950  -28.5685 C   0  0  0  0  0  0  0  0  0  0  0  0
   -2.1193   12.3743  -27.5045 C   0  0  0  0  0  0  0  0  0  0  0  0
   -2.7183   11.8712  -26.2204 C   0  0  0  0  0  0  0  0  0  0  0  0
   -3.4494    8.1716  -27.1711 C   0  0  0  0  0  0  0  0  0  0  0  0
   -1.3676   12.0239  -29.9035 C   0  0  0  0  0  0  0  0  0  0  0  0
   -1.1513   11.0190  -30.7972 C   0  0  0  0  0  0  0  0  0  0  0  0
   -2.1132    9.2504  -29.7092 C   0  0  0  0  0  0  0  0  0  0  0  0
   -1.5794    9.8224  -30.7454 N   0  0  0  0  0  0  0  0  0  0  0  0
  1  2  2  0
  2  3  1  0
  3  4  2  0
  4  5  1  0
  1  6  1  0
  5  6  2  0
  2  7  1  0
  4  8  1  0
  8  9  2  0
  3 10  1  0
  9 11  1  0
 10 11  2  0
M  END
>  <ID>  (1) 
conformer_0

$$$$
