
     RDKit          3D

  8  8  0  0  0  0  0  0  0  0999 V2000
   -3.5732    8.7323  -27.2995 C   0  0  0  0  0  0  0  0  0  0  0  0
   -2.9848    9.1014  -28.5030 C   0  0  0  0  0  0  0  0  0  0  0  0
   -2.5089   10.3150  -28.6397 C   0  0  0  0  0  0  0  0  0  0  0  0
   -1.9224   10.7572  -29.9224 C   0  0  0  0  0  0  0  0  0  0  0  0
   -1.3142   10.0674  -30.6124 O   0  0  0  0  0  0  0  0  0  0  0  0
   -3.5402   10.0005  -26.4852 C   0  0  0  0  0  0  0  0  0  0  0  0
   -2.1132   12.0037  -30.2733 O   0  0  0  0  0  0  0  0  0  0  0  0
   -2.7695   11.1527  -27.3867 S   0  0  0  0  0  0  0  0  0  0  0  0
  1  2  1  0
  2  3  2  0
  3  4  1  0
  4  5  2  0
  1  6  2  0
  4  7  1  0
  3  8  1  0
  6  8  1  0
M  END
>  <ID>  (1) 
conformer_0

$$$$
