
     RDKit          3D

 11 12  0  0  0  0  0  0  0  0999 V2000
   -3.0409   10.4219  -26.2020 C   0  0  0  0  0  0  0  0  0  0  0  0
   -3.0162    9.7018  -27.2888 C   0  0  0  0  0  0  0  0  0  0  0  0
   -2.3625   10.1890  -28.4527 C   0  0  0  0  0  0  0  0  0  0  0  0
   -1.9702   11.4950  -28.5685 C   0  0  0  0  0  0  0  0  0  0  0  0
   -2.1193   12.3743  -27.5045 C   0  0  0  0  0  0  0  0  0  0  0  0
   -2.7183   11.8712  -26.2204 C   0  0  0  0  0  0  0  0  0  0  0  0
   -3.4494    8.1716  -27.1711 C   0  0  0  0  0  0  0  0  0  0  0  0
   -2.1774    9.3233  -29.5788 C   0  0  0  0  0  0  0  0  0  0  0  0
   -1.4168   12.0797  -29.7310 C   0  0  0  0  0  0  0  0  0  0  0  0
   -1.2401   11.1806  -30.8106 C   0  0  0  0  0  0  0  0  0  0  0  0
   -1.6633    9.9069  -30.7666 C   0  0  0  0  0  0  0  0  0  0  0  0
  1  2  2  0
  2  3  1  0
  3  4  2  0
  4  5  1  0
  1  6  1  0
  5  6  2  0
  2  7  1  0
  3  8  1  0
  4  9  1  0
  9 10  2  0
  8 11  2  0
 10 11  1  0
M  END
>  <ID>  (1) 
conformer_0

$$$$
