
     RDKit          3D

 31 34  0  0  0  0  0  0  0  0999 V2000
   -1.1150   15.8038  -28.4422 C   0  0  0  0  0  0  0  0  0  0  0  0
   -0.6206   16.8561  -28.0391 C   0  0  0  0  0  0  0  0  0  0  0  0
   -0.2825   14.9146  -29.2129 C   0  0  0  0  0  0  0  0  0  0  0  0
    0.7385   17.2136  -28.5840 C   0  0  0  0  0  0  0  0  0  0  0  0
   -1.2056   17.8590  -27.1232 C   0  0  0  0  0  0  0  0  0  0  0  0
    1.3998   18.4576  -28.3282 C   0  0  0  0  0  0  0  0  0  0  0  0
   -1.0423   19.1976  -27.2355 C   0  0  0  0  0  0  0  0  0  0  0  0
   -2.4006   15.2455  -27.8523 C   0  0  0  0  0  0  0  0  0  0  0  0
   -1.9555   17.3628  -26.0093 C   0  0  0  0  0  0  0  0  0  0  0  0
   -2.8712   14.1936  -28.7144 O   0  0  0  0  0  0  0  0  0  0  0  0
   -1.6256   17.8135  -24.6633 C   0  0  0  0  0  0  0  0  0  0  0  0
   -0.8179   17.3152  -23.8742 C   0  0  0  0  0  0  0  0  0  0  0  0
   -0.7081   17.7393  -22.4775 C   0  0  0  0  0  0  0  0  0  0  0  0
    0.8471   15.0836  -29.6838 C   0  0  0  0  0  0  0  0  0  0  0  0
   -2.4758   12.9843  -28.5855 C   0  0  0  0  0  0  0  0  0  0  0  0
   -1.9380   12.2672  -29.6391 C   0  0  0  0  0  0  0  0  0  0  0  0
    0.2876   17.1416  -21.5597 O   0  0  0  0  0  0  0  0  0  0  0  0
    0.1869   19.5878  -27.7970 C   0  0  0  0  0  0  0  0  0  0  0  0
   -1.4621   18.8395  -22.0456 C   0  0  0  0  0  0  0  0  0  0  0  0
   -2.5078   18.9282  -24.1821 C   0  0  0  0  0  0  0  0  0  0  0  0
   -2.5918   12.2012  -27.3665 C   0  0  0  0  0  0  0  0  0  0  0  0
   -2.3298   10.8814  -27.2626 C   0  0  0  0  0  0  0  0  0  0  0  0
    1.4062   16.4098  -29.3584 C   0  0  0  0  0  0  0  0  0  0  0  0
   -2.3384   19.3639  -22.8875 C   0  0  0  0  0  0  0  0  0  0  0  0
   -1.6427   10.8505  -29.5720 C   0  0  0  0  0  0  0  0  0  0  0  0
   -2.6201   10.1921  -26.0282 C   0  0  0  0  0  0  0  0  0  0  0  0
    2.6925   16.7458  -29.8588 C   0  0  0  0  0  0  0  0  0  0  0  0
   -1.9399   10.2077  -28.4191 C   0  0  0  0  0  0  0  0  0  0  0  0
   -1.3564   19.1413  -20.5938 O   0  0  0  0  0  0  0  0  0  0  0  0
   -3.9288   10.3203  -25.6678 O   0  0  0  0  0  0  0  0  0  0  0  0
   -1.1293   10.0554  -30.9847 Cl  0  0  0  0  0  0  0  0  0  0  0  0
  1  2  2  0
  1  3  1  0
  2  4  1  0
  2  5  1  0
  4  6  1  0
  5  7  2  0
  1  8  1  0
  5  9  1  0
  8 10  1  0
  9 11  1  0
 11 12  1  0
 12 13  2  0
  3 14  2  0
 10 15  1  0
 15 16  2  0
 13 17  1  0
  6 18  1  0
  7 18  1  0
 13 19  1  0
 11 20  2  0
 15 21  1  0
 21 22  2  0
  4 23  2  0
 14 23  1  0
 19 24  2  0
 20 24  1  0
 16 25  1  0
 22 26  1  0
 23 27  1  0
 22 28  1  0
 25 28  2  0
 19 29  1  0
 26 30  1  0
 25 31  1  0
M  END
>  <ID>  (1) 
conformer_0

$$$$
