
     RDKit          3D

  9 10  0  0  0  0  0  0  0  0999 V2000
   -0.3275   17.2941  -22.5629 C   0  0  0  0  0  0  0  0  0  0  0  0
   -0.4638   17.3401  -21.1856 C   0  0  0  0  0  0  0  0  0  0  0  0
   -1.1604   18.1391  -23.2665 C   0  0  0  0  0  0  0  0  0  0  0  0
   -1.5834   17.9733  -20.6649 C   0  0  0  0  0  0  0  0  0  0  0  0
   -2.1701   18.8317  -22.7203 C   0  0  0  0  0  0  0  0  0  0  0  0
   -2.9426   19.5378  -23.6659 C   0  0  0  0  0  0  0  0  0  0  0  0
   -1.0395   18.0949  -24.7102 O   0  0  0  0  0  0  0  0  0  0  0  0
   -2.2115   18.7000  -25.1773 C   0  0  0  0  0  0  0  0  0  0  0  0
   -2.2980   18.7945  -21.3836 C   0  0  0  0  0  0  0  0  0  0  0  0
  1  2  1  0
  1  3  2  0
  2  4  2  0
  3  5  1  0
  5  6  1  0
  3  7  1  0
  6  8  2  0
  7  8  1  0
  4  9  1  0
  5  9  2  0
M  END
>  <ID>  (1) 
conformer_0

$$$$
