
     RDKit          3D

 10 11  0  0  0  0  0  0  0  0999 V2000
   -3.1912    8.7563  -26.7273 N   0  0  0  0  0  0  0  0  0  0  0  0
   -3.2725    9.8886  -26.3850 C   0  0  0  0  0  0  0  0  0  0  0  0
   -2.7837    8.9811  -28.2015 C   0  0  0  0  0  0  0  0  0  0  0  0
   -2.5406    9.9939  -28.8875 C   0  0  0  0  0  0  0  0  0  0  0  0
   -2.1912   10.0011  -30.3655 C   0  0  0  0  0  0  0  0  0  0  0  0
   -1.6704   11.1663  -30.7132 C   0  0  0  0  0  0  0  0  0  0  0  0
   -1.5474   12.2573  -29.8236 C   0  0  0  0  0  0  0  0  0  0  0  0
   -2.4633   11.1303  -28.1226 C   0  0  0  0  0  0  0  0  0  0  0  0
   -1.9770   12.2845  -28.4915 C   0  0  0  0  0  0  0  0  0  0  0  0
   -3.0151   11.1162  -26.6716 C   0  0  0  0  0  0  0  0  0  0  0  0
  1  2  1  0
  1  3  2  0
  3  4  1  0
  4  5  1  0
  5  6  2  0
  6  7  1  0
  4  8  2  0
  7  9  2  0
  8  9  1  0
  2 10  2  0
  8 10  1  0
M  END
>  <ID>  (1) 
conformer_0

$$$$
