
     RDKit          3D

 33 39  0  0  0  0  0  0  0  0999 V2000
   -1.1150   15.8038  -28.4422 C   0  0  0  0  0  0  0  0  0  0  0  0
   -0.6206   16.8561  -28.0391 C   0  0  0  0  0  0  0  0  0  0  0  0
   -1.1413   17.4347  -26.8650 C   0  0  0  0  0  0  0  0  0  0  0  0
   -0.5062   15.0924  -29.5426 C   0  0  0  0  0  0  0  0  0  0  0  0
   -2.0877   15.1412  -27.6305 C   0  0  0  0  0  0  0  0  0  0  0  0
    0.7957   15.2845  -29.6226 C   0  0  0  0  0  0  0  0  0  0  0  0
    1.3244   16.6042  -29.5020 C   0  0  0  0  0  0  0  0  0  0  0  0
   -1.1338   13.6768  -29.4695 C   0  0  0  0  0  0  0  0  0  0  0  0
    0.4478   17.5280  -28.7179 C   0  0  0  0  0  0  0  0  0  0  0  0
   -1.9807   13.4995  -28.4539 C   0  0  0  0  0  0  0  0  0  0  0  0
   -2.5305   14.0368  -27.6660 N   0  0  0  0  0  0  0  0  0  0  0  0
    0.3233   18.7351  -29.2306 C   0  0  0  0  0  0  0  0  0  0  0  0
    2.4314   17.1185  -30.1535 C   0  0  0  0  0  0  0  0  0  0  0  0
   -2.0789   16.9667  -26.0718 C   0  0  0  0  0  0  0  0  0  0  0  0
   -2.5628   15.9002  -26.4508 N   0  0  0  0  0  0  0  0  0  0  0  0
   -0.4516   12.6084  -30.0040 C   0  0  0  0  0  0  0  0  0  0  0  0
   -2.4858   17.5883  -24.8561 C   0  0  0  0  0  0  0  0  0  0  0  0
    2.6323   18.5251  -30.2886 C   0  0  0  0  0  0  0  0  0  0  0  0
   -2.6074   12.0549  -28.5630 C   0  0  0  0  0  0  0  0  0  0  0  0
   -3.6492   11.6151  -27.7007 C   0  0  0  0  0  0  0  0  0  0  0  0
   -3.3354   18.7454  -25.0212 C   0  0  0  0  0  0  0  0  0  0  0  0
   -3.6664   10.2946  -27.2266 C   0  0  0  0  0  0  0  0  0  0  0  0
   -1.9742   10.9259  -29.3404 C   0  0  0  0  0  0  0  0  0  0  0  0
   -1.8502   17.4325  -23.6578 C   0  0  0  0  0  0  0  0  0  0  0  0
   -2.1588   18.0918  -22.5234 C   0  0  0  0  0  0  0  0  0  0  0  0
   -2.4999    9.6147  -29.2566 C   0  0  0  0  0  0  0  0  0  0  0  0
   -2.0605    8.6538  -30.0823 O   0  0  0  0  0  0  0  0  0  0  0  0
   -3.1535   19.1708  -22.6365 C   0  0  0  0  0  0  0  0  0  0  0  0
   -3.3124    9.3119  -28.1843 C   0  0  0  0  0  0  0  0  0  0  0  0
   -1.4384   17.7040  -21.0484 Cl  0  0  0  0  0  0  0  0  0  0  0  0
    1.4930   19.3399  -29.9192 C   0  0  0  0  0  0  0  0  0  0  0  0
   -3.7001   19.4339  -23.8241 C   0  0  0  0  0  0  0  0  0  0  0  0
   -1.0027   11.3051  -30.0617 C   0  0  0  0  0  0  0  0  0  0  0  0
  1  2  1  0
  2  3  2  0
  1  4  1  0
  1  5  2  0
  4  6  1  0
  6  7  1  0
  4  8  1  0
  2  9  1  0
  7  9  1  0
  8 10  1  0
  5 11  1  0
 10 11  2  0
  9 12  2  0
  7 13  2  0
  3 14  1  0
  5 15  1  0
 14 15  2  0
  8 16  2  0
 14 17  1  0
 13 18  1  0
 10 19  1  0
 19 20  1  0
 17 21  1  0
 20 22  2  0
 19 23  2  0
 17 24  2  0
 24 25  1  0
 23 26  1  0
 26 27  1  0
 25 28  2  0
 22 29  1  0
 26 29  2  0
 25 30  1  0
 12 31  1  0
 18 31  2  0
 21 32  2  0
 28 32  1  0
 16 33  1  0
 23 33  1  0
M  END
>  <ID>  (1) 
conformer_0

$$$$
