
     RDKit          3D

 30 36  0  0  0  0  0  0  0  0999 V2000
   -1.1150   15.8038  -28.4422 C   0  0  0  0  0  0  0  0  0  0  0  0
   -0.6206   16.8561  -28.0391 C   0  0  0  0  0  0  0  0  0  0  0  0
   -1.1413   17.4347  -26.8650 C   0  0  0  0  0  0  0  0  0  0  0  0
   -0.5062   15.0924  -29.5426 C   0  0  0  0  0  0  0  0  0  0  0  0
   -2.0877   15.1412  -27.6305 C   0  0  0  0  0  0  0  0  0  0  0  0
    0.7957   15.2845  -29.6226 C   0  0  0  0  0  0  0  0  0  0  0  0
    1.3244   16.6042  -29.5020 C   0  0  0  0  0  0  0  0  0  0  0  0
    0.4827   17.5507  -28.6574 C   0  0  0  0  0  0  0  0  0  0  0  0
    2.5314   17.0534  -30.0758 C   0  0  0  0  0  0  0  0  0  0  0  0
   -1.0077   13.6480  -29.5086 C   0  0  0  0  0  0  0  0  0  0  0  0
   -2.5806   13.8116  -28.1738 O   0  0  0  0  0  0  0  0  0  0  0  0
    2.9242   18.3833  -29.9861 C   0  0  0  0  0  0  0  0  0  0  0  0
   -1.9508   13.1705  -29.0304 C   0  0  0  0  0  0  0  0  0  0  0  0
   -0.5783   12.7917  -30.5806 C   0  0  0  0  0  0  0  0  0  0  0  0
   -1.2858   11.6098  -30.3509 C   0  0  0  0  0  0  0  0  0  0  0  0
   -2.3121   11.9167  -29.1847 C   0  0  0  0  0  0  0  0  0  0  0  0
    0.9468   18.7691  -28.7897 C   0  0  0  0  0  0  0  0  0  0  0  0
    1.9980   19.2624  -29.4643 C   0  0  0  0  0  0  0  0  0  0  0  0
   -0.6334   18.7633  -26.3718 O   0  0  0  0  0  0  0  0  0  0  0  0
   -1.0954   19.1056  -25.1484 C   0  0  0  0  0  0  0  0  0  0  0  0
   -2.6622   15.9094  -26.5465 C   0  0  0  0  0  0  0  0  0  0  0  0
   -0.4514   18.9569  -24.1258 C   0  0  0  0  0  0  0  0  0  0  0  0
   -1.1448   18.3689  -22.9720 C   0  0  0  0  0  0  0  0  0  0  0  0
   -2.4926   18.1860  -23.2239 C   0  0  0  0  0  0  0  0  0  0  0  0
   -2.1593   17.0141  -26.2589 C   0  0  0  0  0  0  0  0  0  0  0  0
   -0.5180   18.0128  -21.6035 C   0  0  0  0  0  0  0  0  0  0  0  0
   -1.2167   10.2454  -30.9775 C   0  0  0  0  0  0  0  0  0  0  0  0
   -2.7228   18.5031  -24.7068 C   0  0  0  0  0  0  0  0  0  0  0  0
   -3.0056   17.4292  -25.3570 C   0  0  0  0  0  0  0  0  0  0  0  0
   -1.3666   17.3789  -20.7249 C   0  0  0  0  0  0  0  0  0  0  0  0
  1  2  1  0
  2  3  2  0
  1  4  1  0
  1  5  2  0
  4  6  1  0
  6  7  1  0
  2  8  1  0
  7  8  1  0
  7  9  2  0
  4 10  1  0
  5 11  1  0
  9 12  1  0
 10 13  1  0
 11 13  1  0
 10 14  2  0
 14 15  1  0
 13 16  2  0
 15 16  2  0
  8 17  2  0
 12 18  2  0
 17 18  1  0
  3 19  1  0
 19 20  1  0
  5 21  1  0
 20 22  1  0
 22 23  2  0
 23 24  1  0
  3 25  1  0
 21 25  2  0
 23 26  1  0
 15 27  1  0
 20 28  1  0
 24 28  1  0
 25 29  1  0
 28 29  1  0
 26 30  1  0
M  END
>  <ID>  (1) 
conformer_0

$$$$
