
     RDKit          3D

 36 42  0  0  0  0  0  0  0  0999 V2000
   -1.1150   15.8038  -28.4422 C   0  0  0  0  0  0  0  0  0  0  0  0
   -0.6206   16.8561  -28.0391 C   0  0  0  0  0  0  0  0  0  0  0  0
   -1.1286   17.5099  -27.0020 C   0  0  0  0  0  0  0  0  0  0  0  0
    0.5552   17.4756  -28.7050 C   0  0  0  0  0  0  0  0  0  0  0  0
   -0.5677   14.9781  -29.4890 C   0  0  0  0  0  0  0  0  0  0  0  0
   -1.0353   13.6286  -29.7157 C   0  0  0  0  0  0  0  0  0  0  0  0
   -2.3193   15.2166  -27.9167 C   0  0  0  0  0  0  0  0  0  0  0  0
   -1.7896   16.9232  -25.8860 C   0  0  0  0  0  0  0  0  0  0  0  0
   -0.8558   18.9024  -26.6911 C   0  0  0  0  0  0  0  0  0  0  0  0
   -0.1348   19.5627  -27.7888 C   0  0  0  0  0  0  0  0  0  0  0  0
   -2.1676   13.1457  -28.9560 C   0  0  0  0  0  0  0  0  0  0  0  0
   -1.0981   19.4272  -25.4221 C   0  0  0  0  0  0  0  0  0  0  0  0
    1.3329   16.7387  -29.6289 C   0  0  0  0  0  0  0  0  0  0  0  0
   -1.7027   18.8418  -24.4623 C   0  0  0  0  0  0  0  0  0  0  0  0
   -1.9606   19.4357  -23.1869 O   0  0  0  0  0  0  0  0  0  0  0  0
   -2.1154   17.5680  -24.6990 C   0  0  0  0  0  0  0  0  0  0  0  0
    0.6851   15.4267  -29.9537 C   0  0  0  0  0  0  0  0  0  0  0  0
   -2.8148   14.0359  -28.1779 C   0  0  0  0  0  0  0  0  0  0  0  0
   -2.3996   11.8606  -29.1823 C   0  0  0  0  0  0  0  0  0  0  0  0
   -1.4463   11.2661  -30.1187 C   0  0  0  0  0  0  0  0  0  0  0  0
   -3.2121   11.0232  -28.3284 C   0  0  0  0  0  0  0  0  0  0  0  0
   -1.5523   18.7850  -22.1188 C   0  0  0  0  0  0  0  0  0  0  0  0
    2.4897   17.1124  -30.0293 C   0  0  0  0  0  0  0  0  0  0  0  0
   -0.6100   11.6343  -30.8651 C   0  0  0  0  0  0  0  0  0  0  0  0
   -3.2752   11.2371  -27.0155 O   0  0  0  0  0  0  0  0  0  0  0  0
   -4.2826   10.4815  -26.3464 C   0  0  0  0  0  0  0  0  0  0  0  0
   -0.1952   13.0379  -30.5966 C   0  0  0  0  0  0  0  0  0  0  0  0
   -1.8477    9.7842  -30.4179 N   0  0  0  0  0  0  0  0  0  0  0  0
   -2.7517    9.3231  -29.3566 C   0  0  0  0  0  0  0  0  0  0  0  0
   -0.5937   17.9481  -22.2979 C   0  0  0  0  0  0  0  0  0  0  0  0
   -2.6059   18.3418  -21.2448 C   0  0  0  0  0  0  0  0  0  0  0  0
    0.8138   18.8080  -28.5024 C   0  0  0  0  0  0  0  0  0  0  0  0
    2.6612   18.2999  -30.6688 C   0  0  0  0  0  0  0  0  0  0  0  0
   -1.9074   17.4410  -20.2316 C   0  0  0  0  0  0  0  0  0  0  0  0
   -3.2866    9.7788  -28.4414 C   0  0  0  0  0  0  0  0  0  0  0  0
   -0.6630   16.9810  -21.0460 C   0  0  0  0  0  0  0  0  0  0  0  0
  1  2  2  0
  2  3  1  0
  2  4  1  0
  1  5  1  0
  5  6  2  0
  1  7  1  0
  3  8  1  0
  3  9  2  0
  9 10  1  0
  6 11  1  0
  9 12  1  0
  4 13  2  0
 12 14  2  0
 14 15  1  0
  8 16  2  0
 14 16  1  0
  5 17  1  0
 13 17  1  0
  7 18  1  0
 11 18  1  0
 11 19  2  0
 19 20  1  0
 19 21  1  0
 15 22  1  0
 13 23  1  0
 20 24  2  0
 21 25  1  0
 25 26  1  0
  6 27  1  0
 24 27  1  0
 20 28  1  0
 28 29  2  0
 22 30  1  0
 22 31  1  0
  4 32  1  0
 10 32  1  0
 23 33  1  0
 31 34  1  0
 21 35  2  0
 29 35  1  0
 30 36  1  0
 34 36  1  0
M  END
>  <ID>  (1) 
conformer_0

$$$$
