
     RDKit          3D

  6  6  0  0  0  0  0  0  0  0999 V2000
    1.0494   19.0981  -30.0346 C   0  0  0  0  0  0  0  0  0  0  0  0
    0.4913   18.6342  -28.9515 C   0  0  0  0  0  0  0  0  0  0  0  0
    2.1394   18.2808  -30.6059 C   0  0  0  0  0  0  0  0  0  0  0  0
    0.8257   17.3250  -28.5245 C   0  0  0  0  0  0  0  0  0  0  0  0
    2.4754   17.1886  -30.2574 C   0  0  0  0  0  0  0  0  0  0  0  0
    1.8652   16.5198  -29.1149 C   0  0  0  0  0  0  0  0  0  0  0  0
  1  2  2  0
  1  3  1  0
  2  4  1  0
  3  5  2  0
  4  6  2  0
  5  6  1  0
M  END
>  <ID>  (1) 
conformer_0

$$$$
