
     RDKit          3D

 10 10  0  0  0  0  0  0  0  0999 V2000
   -2.3253    9.4809  -27.2880 C   0  0  0  0  0  0  0  0  0  0  0  0
   -2.4699    9.4588  -28.5635 C   0  0  0  0  0  0  0  0  0  0  0  0
   -2.7084    8.3366  -29.1767 O   0  0  0  0  0  0  0  0  0  0  0  0
   -3.5121   10.0139  -26.6483 C   0  0  0  0  0  0  0  0  0  0  0  0
   -3.8922   11.3712  -27.3899 C   0  0  0  0  0  0  0  0  0  0  0  0
   -2.6749   11.6498  -28.1006 O   0  0  0  0  0  0  0  0  0  0  0  0
   -2.5772   10.8192  -29.1536 C   0  0  0  0  0  0  0  0  0  0  0  0
   -3.3645   10.2794  -25.2720 O   0  0  0  0  0  0  0  0  0  0  0  0
   -1.1164   11.1149  -29.8936 C   0  0  0  0  0  0  0  0  0  0  0  0
   -0.8958   10.3767  -30.9488 O   0  0  0  0  0  0  0  0  0  0  0  0
  1  2  1  0
  2  3  1  0
  1  4  1  0
  4  5  1  0
  5  6  1  0
  2  7  1  0
  6  7  1  0
  4  8  1  0
  7  9  1  0
  9 10  1  0
M  END
>  <ID>  (1) 
conformer_0

$$$$
