
     RDKit          3D

 36 43  0  0  0  0  0  0  0  0999 V2000
   -1.1150   15.8038  -28.4422 C   0  0  0  0  0  0  0  0  0  0  0  0
   -0.6206   16.8561  -28.0391 C   0  0  0  0  0  0  0  0  0  0  0  0
   -1.1286   17.5099  -27.0020 C   0  0  0  0  0  0  0  0  0  0  0  0
    0.5552   17.4756  -28.7050 C   0  0  0  0  0  0  0  0  0  0  0  0
   -0.5677   14.9781  -29.4890 C   0  0  0  0  0  0  0  0  0  0  0  0
   -1.0353   13.6286  -29.7157 C   0  0  0  0  0  0  0  0  0  0  0  0
   -2.3193   15.2166  -27.9167 C   0  0  0  0  0  0  0  0  0  0  0  0
   -1.7896   16.9232  -25.8860 C   0  0  0  0  0  0  0  0  0  0  0  0
   -0.8558   18.9024  -26.6911 C   0  0  0  0  0  0  0  0  0  0  0  0
   -0.1348   19.5627  -27.7888 C   0  0  0  0  0  0  0  0  0  0  0  0
   -1.2396   19.5545  -25.5427 C   0  0  0  0  0  0  0  0  0  0  0  0
   -1.7582   18.8890  -24.4823 C   0  0  0  0  0  0  0  0  0  0  0  0
   -0.3455   12.8341  -30.6597 C   0  0  0  0  0  0  0  0  0  0  0  0
    0.6594   18.8302  -28.7246 C   0  0  0  0  0  0  0  0  0  0  0  0
   -2.0855   13.2110  -28.8278 C   0  0  0  0  0  0  0  0  0  0  0  0
   -2.1175   17.5789  -24.6979 C   0  0  0  0  0  0  0  0  0  0  0  0
   -2.5325   11.8302  -29.0951 C   0  0  0  0  0  0  0  0  0  0  0  0
   -1.9428   11.0224  -29.9975 C   0  0  0  0  0  0  0  0  0  0  0  0
   -0.6765   11.5409  -30.7038 C   0  0  0  0  0  0  0  0  0  0  0  0
   -2.1075   19.5398  -23.3414 O   0  0  0  0  0  0  0  0  0  0  0  0
   -3.5294   11.2129  -28.2615 C   0  0  0  0  0  0  0  0  0  0  0  0
   -2.3002    9.6249  -30.0810 N   0  0  0  0  0  0  0  0  0  0  0  0
    1.1754   16.8913  -29.7302 C   0  0  0  0  0  0  0  0  0  0  0  0
   -3.0870    9.2970  -29.1568 C   0  0  0  0  0  0  0  0  0  0  0  0
   -2.8408   14.0883  -28.0735 C   0  0  0  0  0  0  0  0  0  0  0  0
   -1.7336   18.9139  -22.2416 C   0  0  0  0  0  0  0  0  0  0  0  0
   -2.3315   17.8114  -21.6849 C   0  0  0  0  0  0  0  0  0  0  0  0
   -0.8464   19.5071  -21.2651 C   0  0  0  0  0  0  0  0  0  0  0  0
    0.8918   15.3552  -29.7841 C   0  0  0  0  0  0  0  0  0  0  0  0
    1.5884   19.4757  -29.4180 C   0  0  0  0  0  0  0  0  0  0  0  0
   -0.5144   18.9582  -20.1331 C   0  0  0  0  0  0  0  0  0  0  0  0
    2.2457   17.4264  -30.3311 C   0  0  0  0  0  0  0  0  0  0  0  0
    2.3869   18.6620  -30.2693 C   0  0  0  0  0  0  0  0  0  0  0  0
   -3.7988    9.9554  -28.3147 C   0  0  0  0  0  0  0  0  0  0  0  0
   -1.2085   17.6218  -19.9022 C   0  0  0  0  0  0  0  0  0  0  0  0
   -1.9977   17.1447  -20.6504 C   0  0  0  0  0  0  0  0  0  0  0  0
  1  2  2  0
  2  3  1  0
  2  4  1  0
  1  5  1  0
  5  6  2  0
  1  7  1  0
  3  8  1  0
  3  9  2  0
  9 10  1  0
  9 11  1  0
 11 12  2  0
  6 13  1  0
  4 14  1  0
 10 14  1  0
  6 15  1  0
  8 16  2  0
 12 16  1  0
 15 17  1  0
 17 18  2  0
 13 19  2  0
 18 19  1  0
 12 20  1  0
 17 21  1  0
 18 22  1  0
  4 23  2  0
 22 24  2  0
  7 25  2  0
 15 25  2  0
 20 26  1  0
 26 27  2  0
 26 28  1  0
  5 29  1  0
 23 29  1  0
 14 30  2  0
 28 31  2  0
 23 32  1  0
 30 33  1  0
 32 33  2  0
 21 34  2  0
 24 34  1  0
 31 35  1  0
 27 36  1  0
 35 36  2  0
M  END
>  <ID>  (1) 
conformer_0

$$$$
