
     RDKit          3D

  9 10  0  0  0  0  0  0  0  0999 V2000
   -3.0328    8.5405  -26.8580 N   0  0  0  0  0  0  0  0  0  0  0  0
   -3.1942    9.7394  -26.4510 C   0  0  0  0  0  0  0  0  0  0  0  0
   -2.6001    8.5018  -28.1929 C   0  0  0  0  0  0  0  0  0  0  0  0
   -2.7988   10.9150  -27.0345 N   0  0  0  0  0  0  0  0  0  0  0  0
   -2.2304    9.5801  -28.9534 C   0  0  0  0  0  0  0  0  0  0  0  0
   -2.3085   10.8410  -28.3026 C   0  0  0  0  0  0  0  0  0  0  0  0
   -1.6500    9.7201  -30.3447 C   0  0  0  0  0  0  0  0  0  0  0  0
   -1.5257   11.1480  -30.4803 C   0  0  0  0  0  0  0  0  0  0  0  0
   -1.8865   12.0168  -29.1459 S   0  0  0  0  0  0  0  0  0  0  0  0
  1  2  1  0
  1  3  2  0
  2  4  2  0
  3  5  1  0
  4  6  1  0
  5  6  2  0
  5  7  1  0
  7  8  2  0
  6  9  1  0
  8  9  1  0
M  END
>  <ID>  (1) 
conformer_0

$$$$
