
     RDKit          3D

 29 31  0  0  0  0  0  0  0  0999 V2000
   -1.1150   15.8038  -28.4422 C   0  0  0  0  0  0  0  0  0  0  0  0
   -0.6206   16.8561  -28.0391 C   0  0  0  0  0  0  0  0  0  0  0  0
   -0.2825   14.9146  -29.2129 C   0  0  0  0  0  0  0  0  0  0  0  0
    0.7385   17.2136  -28.5840 C   0  0  0  0  0  0  0  0  0  0  0  0
   -1.2056   17.8590  -27.1232 C   0  0  0  0  0  0  0  0  0  0  0  0
    1.3998   18.4576  -28.3282 C   0  0  0  0  0  0  0  0  0  0  0  0
    0.8780   15.1161  -29.6360 C   0  0  0  0  0  0  0  0  0  0  0  0
    1.4140   19.2712  -29.5011 C   0  0  0  0  0  0  0  0  0  0  0  0
   -0.9142   13.5726  -29.4710 C   0  0  0  0  0  0  0  0  0  0  0  0
   -1.6008   17.4687  -25.8670 C   0  0  0  0  0  0  0  0  0  0  0  0
   -0.5958   12.7038  -30.2849 C   0  0  0  0  0  0  0  0  0  0  0  0
   -1.8690   13.2160  -28.3752 C   0  0  0  0  0  0  0  0  0  0  0  0
   -2.0339   18.3086  -24.8474 C   0  0  0  0  0  0  0  0  0  0  0  0
   -2.2688   12.0334  -28.1851 C   0  0  0  0  0  0  0  0  0  0  0  0
   -1.6856   18.1356  -23.5773 C   0  0  0  0  0  0  0  0  0  0  0  0
   -2.9961   19.2654  -25.1575 C   0  0  0  0  0  0  0  0  0  0  0  0
   -1.0991   11.3791  -30.2719 C   0  0  0  0  0  0  0  0  0  0  0  0
   -0.5955   17.3205  -23.1203 C   0  0  0  0  0  0  0  0  0  0  0  0
   -1.9863   10.9319  -29.3222 C   0  0  0  0  0  0  0  0  0  0  0  0
   -0.4083   17.2306  -21.6584 C   0  0  0  0  0  0  0  0  0  0  0  0
    1.4827   16.3602  -29.3730 C   0  0  0  0  0  0  0  0  0  0  0  0
   -2.5550    9.6577  -29.1946 C   0  0  0  0  0  0  0  0  0  0  0  0
   -2.1525   18.6871  -22.3121 C   0  0  0  0  0  0  0  0  0  0  0  0
   -3.0506    9.2038  -28.0195 C   0  0  0  0  0  0  0  0  0  0  0  0
   -1.6731   18.5585  -21.1148 S   0  0  0  0  0  0  0  0  0  0  0  0
   -0.8804   17.7866  -20.8100 C   0  0  0  0  0  0  0  0  0  0  0  0
    2.0620   18.7463  -30.6810 C   0  0  0  0  0  0  0  0  0  0  0  0
   -2.3086    8.7510  -27.1020 O   0  0  0  0  0  0  0  0  0  0  0  0
   -4.3554    9.4163  -27.7559 O   0  0  0  0  0  0  0  0  0  0  0  0
  1  2  2  0
  1  3  1  0
  2  4  1  0
  2  5  1  0
  4  6  1  0
  3  7  2  0
  6  8  1  0
  3  9  1  0
  5 10  2  3
  9 11  2  0
  9 12  1  0
 10 13  1  0
 12 14  2  0
 13 15  1  0
 13 16  2  0
 11 17  1  0
 15 18  1  0
 14 19  1  0
 17 19  2  0
 18 20  2  0
  4 21  2  0
  7 21  1  0
 19 22  1  0
 15 23  2  0
 22 24  1  0
 23 25  1  0
 20 26  1  0
 25 26  1  0
  8 27  1  0
 24 28  1  0
 24 29  2  0
M  END
>  <ID>  (1) 
conformer_0

$$$$
