
     RDKit          3D

  8  8  0  0  0  0  0  0  0  0999 V2000
   -1.6250   10.3748  -30.4218 C   0  0  0  0  0  0  0  0  0  0  0  0
   -1.3330   11.4885  -29.9506 C   0  0  0  0  0  0  0  0  0  0  0  0
   -1.7033   11.7479  -28.6060 C   0  0  0  0  0  0  0  0  0  0  0  0
   -2.4032    9.3828  -29.7659 C   0  0  0  0  0  0  0  0  0  0  0  0
   -2.8255    9.6344  -28.4502 C   0  0  0  0  0  0  0  0  0  0  0  0
   -2.4783   10.8561  -27.8782 C   0  0  0  0  0  0  0  0  0  0  0  0
   -2.8448   11.1051  -26.5124 O   0  0  0  0  0  0  0  0  0  0  0  0
   -2.9736    9.8672  -25.7382 C   0  0  0  0  0  0  0  0  0  0  0  0
  1  2  1  0
  2  3  2  0
  1  4  2  0
  4  5  1  0
  3  6  1  0
  5  6  2  0
  6  7  1  0
  7  8  1  0
M  END
>  <ID>  (1) 
conformer_0

$$$$
