
     RDKit          3D

 35 41  0  0  0  0  0  0  0  0999 V2000
   -1.1150   15.8038  -28.4422 C   0  0  0  0  0  0  0  0  0  0  0  0
   -0.6206   16.8561  -28.0391 C   0  0  0  0  0  0  0  0  0  0  0  0
   -0.2825   14.9146  -29.2129 C   0  0  0  0  0  0  0  0  0  0  0  0
    0.7385   17.2136  -28.5840 C   0  0  0  0  0  0  0  0  0  0  0  0
   -1.2056   17.8590  -27.1232 C   0  0  0  0  0  0  0  0  0  0  0  0
   -2.3819   15.2600  -27.9743 C   0  0  0  0  0  0  0  0  0  0  0  0
   -2.7611   15.4805  -26.7335 O   0  0  0  0  0  0  0  0  0  0  0  0
    1.3696   18.4657  -28.3994 C   0  0  0  0  0  0  0  0  0  0  0  0
    1.3854   16.3079  -29.3542 C   0  0  0  0  0  0  0  0  0  0  0  0
   -2.8825   16.7146  -26.0752 C   0  0  0  0  0  0  0  0  0  0  0  0
   -0.8710   13.5069  -29.4880 C   0  0  0  0  0  0  0  0  0  0  0  0
   -3.5145   16.7788  -24.9324 O   0  0  0  0  0  0  0  0  0  0  0  0
   -1.6871   17.6066  -26.0960 C   0  0  0  0  0  0  0  0  0  0  0  0
    2.6797   16.7331  -30.0331 C   0  0  0  0  0  0  0  0  0  0  0  0
   -0.8823   17.0042  -25.0157 C   0  0  0  0  0  0  0  0  0  0  0  0
   -1.7823   12.8534  -28.7096 C   0  0  0  0  0  0  0  0  0  0  0  0
   -3.2591   17.9628  -24.2370 C   0  0  0  0  0  0  0  0  0  0  0  0
   -2.2165   17.9360  -23.3153 C   0  0  0  0  0  0  0  0  0  0  0  0
   -2.7802   13.8454  -28.0293 C   0  0  0  0  0  0  0  0  0  0  0  0
    0.7439   15.0202  -29.5494 C   0  0  0  0  0  0  0  0  0  0  0  0
   -1.8308   11.5788  -28.4181 C   0  0  0  0  0  0  0  0  0  0  0  0
   -1.7937   10.6373  -29.1283 C   0  0  0  0  0  0  0  0  0  0  0  0
    3.1015   17.9202  -29.9642 C   0  0  0  0  0  0  0  0  0  0  0  0
   -2.3208   18.8081  -22.1603 C   0  0  0  0  0  0  0  0  0  0  0  0
   -2.1177   11.1901  -27.0722 O   0  0  0  0  0  0  0  0  0  0  0  0
    0.7886   19.4199  -27.4623 C   0  0  0  0  0  0  0  0  0  0  0  0
    2.5248   18.8194  -29.1195 C   0  0  0  0  0  0  0  0  0  0  0  0
   -0.9116   17.9071  -23.9175 C   0  0  0  0  0  0  0  0  0  0  0  0
   -1.6181   10.6046  -30.6479 C   0  0  0  0  0  0  0  0  0  0  0  0
   -2.3680    9.8396  -26.9883 C   0  0  0  0  0  0  0  0  0  0  0  0
   -1.2453   18.6886  -21.1599 C   0  0  0  0  0  0  0  0  0  0  0  0
   -0.3787   18.9870  -26.7104 C   0  0  0  0  0  0  0  0  0  0  0  0
   -0.7760   17.2460  -21.0971 C   0  0  0  0  0  0  0  0  0  0  0  0
   -2.0318    9.2844  -28.2719 C   0  0  0  0  0  0  0  0  0  0  0  0
   -3.8690    9.6986  -26.6877 C   0  0  0  0  0  0  0  0  0  0  0  0
  1  2  2  0
  1  3  1  0
  2  4  1  0
  2  5  1  0
  1  6  1  0
  6  7  1  0
  4  8  1  0
  4  9  2  0
  7 10  1  0
  3 11  1  0
 10 12  1  0
  5 13  1  0
 10 13  1  0
  9 14  1  0
 13 15  1  0
 11 16  2  0
 12 17  1  0
 17 18  1  0
  6 19  1  0
 16 19  1  0
  3 20  2  0
  9 20  1  0
 16 21  1  0
 21 22  2  0
 14 23  2  0
 18 24  1  0
 21 25  1  0
  8 26  1  0
  8 27  2  0
 23 27  1  0
 15 28  1  0
 18 28  1  0
 22 29  1  0
 25 30  1  0
 24 31  1  0
  5 32  1  0
 26 32  2  0
 31 33  1  0
 22 34  1  0
 30 34  1  0
 30 35  1  0
M  END
>  <ID>  (1) 
conformer_0

$$$$
