
     RDKit          3D

 34 39  0  0  0  0  0  0  0  0999 V2000
   -1.1150   15.8038  -28.4422 C   0  0  0  0  0  0  0  0  0  0  0  0
   -0.6206   16.8561  -28.0391 C   0  0  0  0  0  0  0  0  0  0  0  0
   -1.1286   17.5099  -27.0020 C   0  0  0  0  0  0  0  0  0  0  0  0
    0.5552   17.4756  -28.7050 C   0  0  0  0  0  0  0  0  0  0  0  0
   -0.5677   14.9781  -29.4890 C   0  0  0  0  0  0  0  0  0  0  0  0
   -1.0353   13.6286  -29.7157 C   0  0  0  0  0  0  0  0  0  0  0  0
   -2.3193   15.2166  -27.9167 C   0  0  0  0  0  0  0  0  0  0  0  0
   -1.7896   16.9232  -25.8860 C   0  0  0  0  0  0  0  0  0  0  0  0
   -0.8558   18.9024  -26.6911 C   0  0  0  0  0  0  0  0  0  0  0  0
   -0.1348   19.5627  -27.7888 C   0  0  0  0  0  0  0  0  0  0  0  0
   -1.2396   19.5545  -25.5427 C   0  0  0  0  0  0  0  0  0  0  0  0
   -2.1671   13.1502  -28.9409 C   0  0  0  0  0  0  0  0  0  0  0  0
   -2.8055   13.9858  -28.1265 C   0  0  0  0  0  0  0  0  0  0  0  0
   -2.3248   17.5308  -24.8497 C   0  0  0  0  0  0  0  0  0  0  0  0
   -2.5014   11.7956  -29.1587 C   0  0  0  0  0  0  0  0  0  0  0  0
   -1.9693   18.8956  -24.6566 C   0  0  0  0  0  0  0  0  0  0  0  0
   -2.1144   11.0021  -30.2125 C   0  0  0  0  0  0  0  0  0  0  0  0
   -2.0398    9.7489  -29.9350 N   0  0  0  0  0  0  0  0  0  0  0  0
   -2.8884   10.9617  -28.0514 C   0  0  0  0  0  0  0  0  0  0  0  0
   -2.6383    8.9938  -29.0749 C   0  0  0  0  0  0  0  0  0  0  0  0
   -2.3350   19.4612  -23.3997 C   0  0  0  0  0  0  0  0  0  0  0  0
   -3.0947    9.6807  -27.9674 C   0  0  0  0  0  0  0  0  0  0  0  0
   -3.7106    9.0149  -26.8640 O   0  0  0  0  0  0  0  0  0  0  0  0
    0.5782   18.8403  -28.6888 C   0  0  0  0  0  0  0  0  0  0  0  0
    1.4413   19.4078  -29.6315 C   0  0  0  0  0  0  0  0  0  0  0  0
   -3.8673    9.9140  -25.8662 C   0  0  0  0  0  0  0  0  0  0  0  0
   -1.8277   18.8491  -22.2569 C   0  0  0  0  0  0  0  0  0  0  0  0
    2.1182   18.5338  -30.4413 C   0  0  0  0  0  0  0  0  0  0  0  0
   -2.2806   18.0861  -21.5019 C   0  0  0  0  0  0  0  0  0  0  0  0
    2.1821   17.2682  -30.3452 C   0  0  0  0  0  0  0  0  0  0  0  0
    3.0019   16.3189  -31.0949 C   0  0  0  0  0  0  0  0  0  0  0  0
   -1.3677   17.3399  -20.5346 C   0  0  0  0  0  0  0  0  0  0  0  0
   -3.8165   11.3233  -26.6202 C   0  0  0  0  0  0  0  0  0  0  0  0
    1.2773   16.6237  -29.3991 C   0  0  0  0  0  0  0  0  0  0  0  0
  1  2  2  3
  2  3  1  0
  2  4  1  0
  1  5  1  0
  5  6  2  0
  1  7  1  0
  3  8  1  0
  3  9  2  0
  9 10  1  0
  9 11  1  0
  6 12  1  0
  7 13  1  0
 12 13  2  0
  8 14  2  0
 12 15  1  0
 11 16  2  0
 14 16  1  0
 15 17  1  0
 17 18  2  0
 15 19  2  0
 18 20  1  0
 16 21  1  0
 19 22  1  0
 20 22  2  0
 22 23  1  0
  4 24  1  0
 10 24  1  0
 24 25  2  0
 23 26  1  0
 21 27  1  0
 25 28  1  0
 27 29  1  0
 28 30  2  0
 30 31  1  0
 29 32  1  0
 19 33  1  0
 26 33  1  0
  4 34  2  0
 30 34  1  0
M  END
>  <ID>  (1) 
conformer_0

$$$$
