
     RDKit          3D

 36 42  0  0  0  0  0  0  0  0999 V2000
   -1.1150   15.8038  -28.4422 C   0  0  0  0  0  0  0  0  0  0  0  0
   -0.6206   16.8561  -28.0391 C   0  0  0  0  0  0  0  0  0  0  0  0
   -1.1286   17.5099  -27.0020 C   0  0  0  0  0  0  0  0  0  0  0  0
    0.5552   17.4756  -28.7050 C   0  0  0  0  0  0  0  0  0  0  0  0
   -0.5677   14.9781  -29.4890 C   0  0  0  0  0  0  0  0  0  0  0  0
   -1.0353   13.6286  -29.7157 C   0  0  0  0  0  0  0  0  0  0  0  0
   -2.3193   15.2166  -27.9167 C   0  0  0  0  0  0  0  0  0  0  0  0
   -1.7896   16.9232  -25.8860 C   0  0  0  0  0  0  0  0  0  0  0  0
   -0.8558   18.9024  -26.6911 C   0  0  0  0  0  0  0  0  0  0  0  0
   -0.1348   19.5627  -27.7888 C   0  0  0  0  0  0  0  0  0  0  0  0
   -2.1676   13.1457  -28.9560 C   0  0  0  0  0  0  0  0  0  0  0  0
   -1.0981   19.4272  -25.4221 C   0  0  0  0  0  0  0  0  0  0  0  0
    1.3329   16.7387  -29.6289 C   0  0  0  0  0  0  0  0  0  0  0  0
   -1.7027   18.8418  -24.4623 C   0  0  0  0  0  0  0  0  0  0  0  0
   -1.9606   19.4357  -23.1869 O   0  0  0  0  0  0  0  0  0  0  0  0
   -1.5108   18.6855  -22.1143 C   0  0  0  0  0  0  0  0  0  0  0  0
   -2.1254   17.5605  -24.7020 C   0  0  0  0  0  0  0  0  0  0  0  0
   -2.5706   11.8251  -29.1267 C   0  0  0  0  0  0  0  0  0  0  0  0
   -2.7632   14.0595  -28.0695 C   0  0  0  0  0  0  0  0  0  0  0  0
   -2.9091   11.1074  -27.9196 C   0  0  0  0  0  0  0  0  0  0  0  0
   -3.1608    9.7521  -28.0489 C   0  0  0  0  0  0  0  0  0  0  0  0
   -3.2066   11.7301  -26.5940 C   0  0  0  0  0  0  0  0  0  0  0  0
   -2.4360   18.1160  -21.3098 F   0  0  0  0  0  0  0  0  0  0  0  0
   -3.6087    9.0481  -26.9990 C   0  0  0  0  0  0  0  0  0  0  0  0
    0.6078   18.8872  -28.6777 C   0  0  0  0  0  0  0  0  0  0  0  0
   -2.7767    8.9808  -29.2871 C   0  0  0  0  0  0  0  0  0  0  0  0
   -2.3460    9.8735  -30.3196 C   0  0  0  0  0  0  0  0  0  0  0  0
   -0.8103   17.5132  -22.5349 F   0  0  0  0  0  0  0  0  0  0  0  0
    1.4444   19.5684  -29.5015 C   0  0  0  0  0  0  0  0  0  0  0  0
   -0.5923   19.3538  -21.4125 F   0  0  0  0  0  0  0  0  0  0  0  0
    2.4245   17.3150  -30.1979 C   0  0  0  0  0  0  0  0  0  0  0  0
   -3.7437    9.6705  -25.8007 C   0  0  0  0  0  0  0  0  0  0  0  0
   -3.5359   11.0275  -25.7096 C   0  0  0  0  0  0  0  0  0  0  0  0
   -2.1141   11.1310  -30.1894 C   0  0  0  0  0  0  0  0  0  0  0  0
    2.4046   18.7493  -30.1917 C   0  0  0  0  0  0  0  0  0  0  0  0
    0.8633   15.3421  -29.7773 C   0  0  0  0  0  0  0  0  0  0  0  0
  1  2  2  0
  2  3  1  0
  2  4  1  0
  1  5  1  0
  5  6  2  0
  1  7  1  0
  3  8  1  0
  3  9  2  0
  9 10  1  0
  6 11  1  0
  9 12  1  0
  4 13  2  0
 12 14  2  0
 14 15  1  0
 15 16  1  0
  8 17  2  0
 14 17  1  0
 11 18  1  0
  7 19  1  0
 11 19  2  0
 18 20  1  0
 20 21  2  0
 20 22  1  0
 16 23  1  0
 21 24  1  0
  4 25  1  0
 10 25  2  0
 21 26  1  0
 26 27  2  0
 16 28  1  0
 25 29  1  0
 16 30  1  0
 13 31  1  0
 24 32  2  0
 22 33  2  0
 32 33  1  0
 18 34  2  0
 27 34  1  0
 29 35  1  0
 31 35  1  0
  5 36  1  0
 13 36  1  0
M  END
>  <ID>  (1) 
conformer_0

$$$$
