
     RDKit          3D

 36 40  0  0  0  0  0  0  0  0999 V2000
   -1.1150   15.8038  -28.4422 C   0  0  0  0  0  0  0  0  0  0  0  0
   -0.6206   16.8561  -28.0391 C   0  0  0  0  0  0  0  0  0  0  0  0
   -1.1286   17.5099  -27.0020 C   0  0  0  0  0  0  0  0  0  0  0  0
    0.5552   17.4756  -28.7050 C   0  0  0  0  0  0  0  0  0  0  0  0
   -0.5677   14.9781  -29.4890 C   0  0  0  0  0  0  0  0  0  0  0  0
   -1.0353   13.6286  -29.7157 C   0  0  0  0  0  0  0  0  0  0  0  0
   -2.3193   15.2166  -27.9167 C   0  0  0  0  0  0  0  0  0  0  0  0
   -1.7896   16.9232  -25.8860 C   0  0  0  0  0  0  0  0  0  0  0  0
   -0.8558   18.9024  -26.6911 C   0  0  0  0  0  0  0  0  0  0  0  0
   -0.1348   19.5627  -27.7888 C   0  0  0  0  0  0  0  0  0  0  0  0
   -2.1676   13.1457  -28.9560 C   0  0  0  0  0  0  0  0  0  0  0  0
   -1.0981   19.4272  -25.4221 C   0  0  0  0  0  0  0  0  0  0  0  0
    1.3329   16.7387  -29.6289 C   0  0  0  0  0  0  0  0  0  0  0  0
   -1.7027   18.8418  -24.4623 C   0  0  0  0  0  0  0  0  0  0  0  0
   -1.9606   19.4357  -23.1869 O   0  0  0  0  0  0  0  0  0  0  0  0
   -1.5108   18.6855  -22.1143 C   0  0  0  0  0  0  0  0  0  0  0  0
   -2.1254   17.5605  -24.7020 C   0  0  0  0  0  0  0  0  0  0  0  0
   -2.5706   11.8251  -29.1267 C   0  0  0  0  0  0  0  0  0  0  0  0
   -2.7632   14.0595  -28.0695 C   0  0  0  0  0  0  0  0  0  0  0  0
   -2.9091   11.1074  -27.9196 C   0  0  0  0  0  0  0  0  0  0  0  0
   -3.1608    9.7521  -28.0489 C   0  0  0  0  0  0  0  0  0  0  0  0
   -3.2066   11.7301  -26.5940 C   0  0  0  0  0  0  0  0  0  0  0  0
   -0.5541   17.8865  -22.3762 F   0  0  0  0  0  0  0  0  0  0  0  0
   -1.1774   19.6626  -21.0805 F   0  0  0  0  0  0  0  0  0  0  0  0
   -2.6073   18.0769  -21.4355 F   0  0  0  0  0  0  0  0  0  0  0  0
    0.5779   18.8355  -28.5899 C   0  0  0  0  0  0  0  0  0  0  0  0
   -3.0815    8.9586  -27.0894 C   0  0  0  0  0  0  0  0  0  0  0  0
   -3.2659   10.8104  -25.5370 C   0  0  0  0  0  0  0  0  0  0  0  0
    2.3293   17.3640  -30.3318 C   0  0  0  0  0  0  0  0  0  0  0  0
   -3.0031    9.1226  -29.3634 C   0  0  0  0  0  0  0  0  0  0  0  0
    3.3408   16.5638  -30.6060 C   0  0  0  0  0  0  0  0  0  0  0  0
   -2.4035   11.3368  -30.1943 C   0  0  0  0  0  0  0  0  0  0  0  0
   -3.2779    7.9211  -29.5645 O   0  0  0  0  0  0  0  0  0  0  0  0
   -3.2825    9.4984  -25.7774 C   0  0  0  0  0  0  0  0  0  0  0  0
   -2.5412    9.8715  -30.2843 N   0  0  0  0  0  0  0  0  0  0  0  0
    2.0094   18.4662  -31.0535 C   0  0  0  0  0  0  0  0  0  0  0  0
  1  2  2  3
  2  3  1  0
  2  4  1  0
  1  5  1  0
  5  6  2  0
  1  7  1  0
  3  8  1  0
  3  9  2  0
  9 10  1  0
  6 11  1  0
  9 12  1  0
  4 13  2  3
 12 14  2  0
 14 15  1  0
 15 16  1  0
  8 17  2  0
 14 17  1  0
 11 18  1  0
  7 19  1  0
 11 19  2  0
 18 20  1  0
 20 21  2  0
 20 22  1  0
 16 23  1  0
 16 24  1  0
 16 25  1  0
  4 26  1  0
 10 26  2  0
 21 27  1  0
 22 28  2  0
 13 29  1  0
 21 30  1  0
 29 31  1  0
 18 32  2  0
 30 33  2  0
 27 34  2  0
 28 34  1  0
 30 35  1  0
 32 35  1  0
 29 36  2  0
M  END
>  <ID>  (1) 
conformer_0

$$$$
