
     RDKit          3D

  7  7  0  0  0  0  0  0  0  0999 V2000
   -4.1029    9.4456  -27.8602 C   0  0  0  0  0  0  0  0  0  0  0  0
   -3.1252    9.3461  -28.7613 C   0  0  0  0  0  0  0  0  0  0  0  0
   -3.9624   10.5205  -26.9451 C   0  0  0  0  0  0  0  0  0  0  0  0
   -2.9161   11.4469  -27.0887 C   0  0  0  0  0  0  0  0  0  0  0  0
   -1.9697   10.1841  -28.9228 C   0  0  0  0  0  0  0  0  0  0  0  0
   -1.9208   11.2734  -28.0756 C   0  0  0  0  0  0  0  0  0  0  0  0
   -1.0079    9.9709  -30.2199 Cl  0  0  0  0  0  0  0  0  0  0  0  0
  1  2  2  0
  1  3  1  0
  3  4  2  0
  2  5  1  0
  4  6  1  0
  5  6  2  0
  5  7  1  0
M  END
>  <ID>  (1) 
conformer_0

$$$$
