
     RDKit          3D

 36 42  0  0  0  0  0  0  0  0999 V2000
   -1.1150   15.8038  -28.4422 C   0  0  0  0  0  0  0  0  0  0  0  0
   -0.6206   16.8561  -28.0391 C   0  0  0  0  0  0  0  0  0  0  0  0
   -1.1413   17.4347  -26.8650 C   0  0  0  0  0  0  0  0  0  0  0  0
   -0.5062   15.0924  -29.5426 C   0  0  0  0  0  0  0  0  0  0  0  0
   -2.1241   15.1490  -27.7618 C   0  0  0  0  0  0  0  0  0  0  0  0
    0.4858   17.5870  -28.6083 C   0  0  0  0  0  0  0  0  0  0  0  0
   -1.0262   13.8201  -29.8129 C   0  0  0  0  0  0  0  0  0  0  0  0
   -2.7141   15.7759  -26.6533 O   0  0  0  0  0  0  0  0  0  0  0  0
   -2.0651   13.2928  -28.7944 C   0  0  0  0  0  0  0  0  0  0  0  0
   -2.4225   13.8805  -28.0256 C   0  0  0  0  0  0  0  0  0  0  0  0
    1.7069   17.1107  -28.7957 C   0  0  0  0  0  0  0  0  0  0  0  0
   -0.6367   18.6938  -26.3246 C   0  0  0  0  0  0  0  0  0  0  0  0
    0.3720   18.9134  -28.6666 C   0  0  0  0  0  0  0  0  0  0  0  0
   -2.3663   11.7889  -29.1456 C   0  0  0  0  0  0  0  0  0  0  0  0
   -2.1198   16.8459  -26.0393 C   0  0  0  0  0  0  0  0  0  0  0  0
   -1.2099   19.3738  -25.2353 C   0  0  0  0  0  0  0  0  0  0  0  0
    2.6861   17.8302  -29.5774 C   0  0  0  0  0  0  0  0  0  0  0  0
   -2.7189   17.3265  -24.9155 C   0  0  0  0  0  0  0  0  0  0  0  0
    2.4371   19.1335  -29.8555 C   0  0  0  0  0  0  0  0  0  0  0  0
   -2.7388   11.0369  -28.0183 C   0  0  0  0  0  0  0  0  0  0  0  0
   -0.1239   19.6820  -27.2883 C   0  0  0  0  0  0  0  0  0  0  0  0
   -3.0939   11.5813  -26.6737 C   0  0  0  0  0  0  0  0  0  0  0  0
   -2.1265   18.5632  -24.4400 C   0  0  0  0  0  0  0  0  0  0  0  0
    1.3338   19.7651  -29.2663 C   0  0  0  0  0  0  0  0  0  0  0  0
   -2.5028   19.0701  -23.1904 O   0  0  0  0  0  0  0  0  0  0  0  0
   -2.1558   18.2650  -22.1445 C   0  0  0  0  0  0  0  0  0  0  0  0
   -3.2822    9.8645  -28.3462 C   0  0  0  0  0  0  0  0  0  0  0  0
   -2.9614    9.2061  -29.4024 C   0  0  0  0  0  0  0  0  0  0  0  0
   -4.0135    8.9452  -27.2773 C   0  0  0  0  0  0  0  0  0  0  0  0
   -4.1518   11.1734  -25.8760 C   0  0  0  0  0  0  0  0  0  0  0  0
   -4.6110    9.7528  -26.2450 C   0  0  0  0  0  0  0  0  0  0  0  0
   -1.4958   19.0076  -21.0508 C   0  0  0  0  0  0  0  0  0  0  0  0
   -0.9948   17.3992  -22.3679 C   0  0  0  0  0  0  0  0  0  0  0  0
   -3.3730    7.9835  -29.6343 O   0  0  0  0  0  0  0  0  0  0  0  0
   -2.2926    9.8341  -30.4708 C   0  0  0  0  0  0  0  0  0  0  0  0
   -1.8709   11.2200  -30.1929 C   0  0  0  0  0  0  0  0  0  0  0  0
  1  2  1  0
  2  3  2  0
  1  4  1  0
  1  5  2  0
  2  6  1  0
  4  7  2  0
  5  8  1  0
  7  9  1  0
  5 10  1  0
  9 10  2  0
  6 11  1  0
  3 12  1  0
  6 13  2  0
  9 14  1  0
  3 15  1  0
  8 15  1  0
 12 16  1  0
 11 17  2  0
 15 18  2  0
 17 19  1  0
 14 20  1  0
 12 21  2  0
 13 21  1  0
 20 22  1  0
 16 23  2  0
 18 23  1  0
 13 24  1  0
 19 24  2  0
 23 25  1  0
 25 26  1  0
 20 27  2  0
 27 28  1  0
 27 29  1  0
 22 30  1  0
 29 31  1  0
 30 31  1  0
 26 32  1  0
 26 33  1  0
 28 34  1  0
 28 35  2  0
 14 36  2  0
 35 36  1  0
M  END
>  <ID>  (1) 
conformer_0

$$$$
