
     RDKit          3D

 36 42  0  0  0  0  0  0  0  0999 V2000
   -1.1150   15.8038  -28.4422 C   0  0  0  0  0  0  0  0  0  0  0  0
   -0.6206   16.8561  -28.0391 C   0  0  0  0  0  0  0  0  0  0  0  0
   -1.1286   17.5099  -27.0020 C   0  0  0  0  0  0  0  0  0  0  0  0
    0.5552   17.4756  -28.7050 C   0  0  0  0  0  0  0  0  0  0  0  0
   -0.5677   14.9781  -29.4890 C   0  0  0  0  0  0  0  0  0  0  0  0
   -1.0353   13.6286  -29.7157 C   0  0  0  0  0  0  0  0  0  0  0  0
   -2.3193   15.2166  -27.9167 C   0  0  0  0  0  0  0  0  0  0  0  0
   -1.7896   16.9232  -25.8860 C   0  0  0  0  0  0  0  0  0  0  0  0
   -0.8558   18.9024  -26.6911 C   0  0  0  0  0  0  0  0  0  0  0  0
   -0.1348   19.5627  -27.7888 C   0  0  0  0  0  0  0  0  0  0  0  0
   -1.2396   19.5545  -25.5427 C   0  0  0  0  0  0  0  0  0  0  0  0
   -1.7582   18.8890  -24.4823 C   0  0  0  0  0  0  0  0  0  0  0  0
   -0.3455   12.8341  -30.6597 C   0  0  0  0  0  0  0  0  0  0  0  0
    0.6594   18.8302  -28.7246 C   0  0  0  0  0  0  0  0  0  0  0  0
   -2.0855   13.2110  -28.8278 C   0  0  0  0  0  0  0  0  0  0  0  0
   -2.1175   17.5789  -24.6979 C   0  0  0  0  0  0  0  0  0  0  0  0
   -2.5325   11.8302  -29.0951 C   0  0  0  0  0  0  0  0  0  0  0  0
   -1.9428   11.0224  -29.9975 C   0  0  0  0  0  0  0  0  0  0  0  0
   -0.6765   11.5409  -30.7038 C   0  0  0  0  0  0  0  0  0  0  0  0
   -2.1075   19.5398  -23.3414 O   0  0  0  0  0  0  0  0  0  0  0  0
   -3.5294   11.2129  -28.2615 C   0  0  0  0  0  0  0  0  0  0  0  0
   -2.7344   14.0076  -27.9901 C   0  0  0  0  0  0  0  0  0  0  0  0
   -1.7662   18.9203  -22.2471 C   0  0  0  0  0  0  0  0  0  0  0  0
    1.5222   19.3749  -29.5797 C   0  0  0  0  0  0  0  0  0  0  0  0
   -3.6464    9.7884  -28.3399 C   0  0  0  0  0  0  0  0  0  0  0  0
    2.3106   18.6811  -30.3660 C   0  0  0  0  0  0  0  0  0  0  0  0
   -4.7057    9.3130  -27.4595 C   0  0  0  0  0  0  0  0  0  0  0  0
   -3.1330    9.0235  -29.4868 C   0  0  0  0  0  0  0  0  0  0  0  0
    2.3354   17.3639  -30.4438 C   0  0  0  0  0  0  0  0  0  0  0  0
   -2.3708   17.8195  -21.6918 C   0  0  0  0  0  0  0  0  0  0  0  0
   -2.0963    9.6497  -30.2200 N   0  0  0  0  0  0  0  0  0  0  0  0
   -4.5502   10.0941  -26.2111 C   0  0  0  0  0  0  0  0  0  0  0  0
    3.1714   16.5300  -31.1557 F   0  0  0  0  0  0  0  0  0  0  0  0
    1.3469   16.7176  -29.5192 C   0  0  0  0  0  0  0  0  0  0  0  0
   -1.7227   17.3625  -20.4171 C   0  0  0  0  0  0  0  0  0  0  0  0
   -4.1579   11.4985  -26.8708 O   0  0  0  0  0  0  0  0  0  0  0  0
  1  2  2  3
  2  3  1  0
  2  4  1  0
  1  5  1  0
  5  6  2  0
  1  7  1  0
  3  8  1  0
  3  9  2  0
  9 10  1  0
  9 11  1  0
 11 12  2  0
  6 13  1  0
  4 14  1  0
 10 14  1  0
  6 15  1  0
  8 16  2  0
 12 16  1  0
 15 17  1  0
 17 18  2  0
 13 19  2  0
 18 19  1  0
 12 20  1  0
 17 21  1  0
  7 22  2  0
 15 22  2  0
 20 23  1  0
 14 24  2  0
 21 25  2  0
 24 26  1  0
 25 27  1  0
 25 28  1  0
 26 29  2  0
 23 30  2  3
 18 31  1  0
 28 31  2  0
 27 32  1  0
 29 33  1  0
  4 34  2  0
 29 34  1  0
 30 35  1  0
 21 36  1  0
 32 36  1  0
M  END
>  <ID>  (1) 
conformer_0

$$$$
