
     RDKit          3D

 32 35  0  0  0  0  0  0  0  0999 V2000
   -1.1150   15.8038  -28.4422 C   0  0  0  0  0  0  0  0  0  0  0  0
   -0.6206   16.8561  -28.0391 C   0  0  0  0  0  0  0  0  0  0  0  0
   -1.1286   17.5099  -27.0020 C   0  0  0  0  0  0  0  0  0  0  0  0
    0.5552   17.4756  -28.7050 C   0  0  0  0  0  0  0  0  0  0  0  0
   -0.5677   14.9781  -29.4890 C   0  0  0  0  0  0  0  0  0  0  0  0
   -1.0353   13.6286  -29.7157 C   0  0  0  0  0  0  0  0  0  0  0  0
   -2.3193   15.2166  -27.9167 C   0  0  0  0  0  0  0  0  0  0  0  0
   -1.7896   16.9232  -25.8860 C   0  0  0  0  0  0  0  0  0  0  0  0
   -0.8558   18.9024  -26.6911 C   0  0  0  0  0  0  0  0  0  0  0  0
   -0.1348   19.5627  -27.7888 C   0  0  0  0  0  0  0  0  0  0  0  0
   -2.1676   13.1457  -28.9560 C   0  0  0  0  0  0  0  0  0  0  0  0
   -1.0981   19.4272  -25.4221 C   0  0  0  0  0  0  0  0  0  0  0  0
    1.3329   16.7387  -29.6289 C   0  0  0  0  0  0  0  0  0  0  0  0
   -1.7027   18.8418  -24.4623 C   0  0  0  0  0  0  0  0  0  0  0  0
   -1.9606   19.4357  -23.1869 O   0  0  0  0  0  0  0  0  0  0  0  0
   -1.5108   18.6855  -22.1143 C   0  0  0  0  0  0  0  0  0  0  0  0
    0.6450   18.8634  -28.6038 C   0  0  0  0  0  0  0  0  0  0  0  0
   -2.2456   17.6206  -21.7267 C   0  0  0  0  0  0  0  0  0  0  0  0
   -2.1161   17.5733  -24.7071 C   0  0  0  0  0  0  0  0  0  0  0  0
   -2.5820   11.8467  -29.2331 C   0  0  0  0  0  0  0  0  0  0  0  0
    1.5424   19.3703  -29.6570 C   0  0  0  0  0  0  0  0  0  0  0  0
   -1.8857   11.0433  -30.0648 C   0  0  0  0  0  0  0  0  0  0  0  0
   -2.7295   14.0255  -28.0270 C   0  0  0  0  0  0  0  0  0  0  0  0
    2.2809   17.3838  -30.2869 C   0  0  0  0  0  0  0  0  0  0  0  0
   -0.0898   18.3743  -22.1679 C   0  0  0  0  0  0  0  0  0  0  0  0
   -2.5010    9.6827  -30.0197 N   0  0  0  0  0  0  0  0  0  0  0  0
   -2.4141    8.9049  -28.8648 C   0  0  0  0  0  0  0  0  0  0  0  0
   -3.2377    9.4776  -27.6266 C   0  0  0  0  0  0  0  0  0  0  0  0
    3.2153   16.5549  -31.0589 C   0  0  0  0  0  0  0  0  0  0  0  0
    2.3582   18.7104  -30.2646 C   0  0  0  0  0  0  0  0  0  0  0  0
   -2.6133    9.5627  -26.4620 C   0  0  0  0  0  0  0  0  0  0  0  0
   -1.6774   19.8273  -20.9560 C   0  0  0  0  0  0  0  0  0  0  0  0
  1  2  2  3
  2  3  1  0
  2  4  1  0
  1  5  1  0
  5  6  2  0
  1  7  1  0
  3  8  1  0
  3  9  2  0
  9 10  1  0
  6 11  1  0
  9 12  1  0
  4 13  2  0
 12 14  2  0
 14 15  1  0
 15 16  1  0
  4 17  1  0
 10 17  2  0
 16 18  1  0
  8 19  2  0
 14 19  1  0
 11 20  1  0
 17 21  1  0
 20 22  2  3
  7 23  1  0
 11 23  2  0
 13 24  1  0
 16 25  1  0
 22 26  1  0
 26 27  1  0
 27 28  1  0
 24 29  1  0
 21 30  1  0
 24 30  2  0
 28 31  1  0
 16 32  1  0
M  END
>  <ID>  (1) 
conformer_0

$$$$
