
     RDKit          3D

  9 10  0  0  0  0  0  0  0  0999 V2000
   -1.9646   19.5333  -24.1905 C   0  0  0  0  0  0  0  0  0  0  0  0
   -1.8093   18.5873  -23.2202 C   0  0  0  0  0  0  0  0  0  0  0  0
   -0.5259   18.4049  -22.6557 C   0  0  0  0  0  0  0  0  0  0  0  0
   -2.7832   18.7270  -22.1107 C   0  0  0  0  0  0  0  0  0  0  0  0
   -0.6387   18.7611  -21.1668 C   0  0  0  0  0  0  0  0  0  0  0  0
   -1.9476   18.8370  -20.8572 C   0  0  0  0  0  0  0  0  0  0  0  0
   -1.9678   17.1371  -24.0406 C   0  0  0  0  0  0  0  0  0  0  0  0
   -2.7936   17.3187  -25.1877 C   0  0  0  0  0  0  0  0  0  0  0  0
   -2.8206   18.9124  -25.3424 C   0  0  0  0  0  0  0  0  0  0  0  0
  1  2  1  0
  2  3  1  0
  2  4  1  0
  3  5  1  0
  4  6  1  0
  5  6  1  0
  2  7  1  0
  7  8  1  0
  1  9  1  0
  8  9  1  0
M  END
>  <ID>  (1) 
conformer_0

$$$$
