
     RDKit          3D

 34 39  0  0  0  0  0  0  0  0999 V2000
   -1.1150   15.8038  -28.4422 C   0  0  0  0  0  0  0  0  0  0  0  0
   -0.6206   16.8561  -28.0391 C   0  0  0  0  0  0  0  0  0  0  0  0
   -1.1286   17.5099  -27.0020 C   0  0  0  0  0  0  0  0  0  0  0  0
    0.5552   17.4756  -28.7050 C   0  0  0  0  0  0  0  0  0  0  0  0
    0.6011   18.7170  -28.9972 C   0  0  0  0  0  0  0  0  0  0  0  0
   -2.1296   16.9555  -26.1709 C   0  0  0  0  0  0  0  0  0  0  0  0
   -2.6086   17.6977  -24.9845 C   0  0  0  0  0  0  0  0  0  0  0  0
   -1.9034   18.2028  -23.9499 C   0  0  0  0  0  0  0  0  0  0  0  0
   -2.1916   15.0740  -27.7347 C   0  0  0  0  0  0  0  0  0  0  0  0
   -2.6723   15.7393  -26.6138 C   0  0  0  0  0  0  0  0  0  0  0  0
   -3.9723   18.0683  -24.9364 C   0  0  0  0  0  0  0  0  0  0  0  0
   -2.7273   18.7566  -23.0485 C   0  0  0  0  0  0  0  0  0  0  0  0
   -2.3832   13.7868  -28.1395 C   0  0  0  0  0  0  0  0  0  0  0  0
    1.5195   19.3215  -29.8087 C   0  0  0  0  0  0  0  0  0  0  0  0
    2.3191   18.3893  -30.4314 C   0  0  0  0  0  0  0  0  0  0  0  0
    2.2828   17.1065  -30.2447 C   0  0  0  0  0  0  0  0  0  0  0  0
   -1.4627   13.0137  -28.7805 C   0  0  0  0  0  0  0  0  0  0  0  0
   -0.4744   18.0048  -23.7227 C   0  0  0  0  0  0  0  0  0  0  0  0
   -1.7067   11.6159  -29.0929 C   0  0  0  0  0  0  0  0  0  0  0  0
   -3.9706   18.7309  -23.6363 O   0  0  0  0  0  0  0  0  0  0  0  0
   -2.2931   10.8733  -28.0982 C   0  0  0  0  0  0  0  0  0  0  0  0
   -2.5551   11.0367  -26.7964 C   0  0  0  0  0  0  0  0  0  0  0  0
   -3.6461   10.2436  -26.2479 C   0  0  0  0  0  0  0  0  0  0  0  0
   -1.0944   11.0840  -30.2160 C   0  0  0  0  0  0  0  0  0  0  0  0
    1.3222   16.5791  -29.4186 C   0  0  0  0  0  0  0  0  0  0  0  0
   -2.1127   19.0736  -21.7767 C   0  0  0  0  0  0  0  0  0  0  0  0
   -2.4013    9.4561  -28.6470 C   0  0  0  0  0  0  0  0  0  0  0  0
   -0.0471   18.2224  -22.4753 C   0  0  0  0  0  0  0  0  0  0  0  0
   -0.4544   12.0110  -31.2373 O   0  0  0  0  0  0  0  0  0  0  0  0
   -3.1405    8.4176  -27.7462 C   0  0  0  0  0  0  0  0  0  0  0  0
   -0.8775   18.8227  -21.4775 C   0  0  0  0  0  0  0  0  0  0  0  0
   -1.3558    9.7953  -30.7121 C   0  0  0  0  0  0  0  0  0  0  0  0
   -4.0239    9.0152  -26.8883 C   0  0  0  0  0  0  0  0  0  0  0  0
   -1.9830    8.9977  -29.8218 C   0  0  0  0  0  0  0  0  0  0  0  0
  1  2  2  0
  2  3  1  0
  2  4  1  0
  4  5  1  0
  3  6  2  0
  6  7  1  0
  7  8  1  0
  1  9  1  0
  6 10  1  0
  9 10  2  0
  7 11  2  0
  8 12  2  0
  9 13  1  0
  5 14  2  0
 14 15  1  0
 15 16  2  0
 13 17  2  3
  8 18  1  0
 17 19  1  0
 11 20  1  0
 12 20  1  0
 19 21  1  0
 21 22  1  0
 22 23  1  0
 19 24  2  0
  4 25  2  0
 16 25  1  0
 12 26  1  0
 21 27  2  0
 18 28  2  0
 24 29  1  0
 27 30  1  0
 26 31  2  0
 28 31  1  0
 24 32  1  0
 23 33  1  0
 30 33  1  0
 27 34  1  0
 32 34  2  0
M  END
>  <ID>  (1) 
conformer_0

$$$$
