
     RDKit          3D

 36 41  0  0  0  0  0  0  0  0999 V2000
   -1.1150   15.8038  -28.4422 C   0  0  0  0  0  0  0  0  0  0  0  0
   -0.6206   16.8561  -28.0391 C   0  0  0  0  0  0  0  0  0  0  0  0
   -1.1286   17.5099  -27.0020 C   0  0  0  0  0  0  0  0  0  0  0  0
    0.5552   17.4756  -28.7050 C   0  0  0  0  0  0  0  0  0  0  0  0
   -0.5677   14.9781  -29.4890 C   0  0  0  0  0  0  0  0  0  0  0  0
   -1.0353   13.6286  -29.7157 C   0  0  0  0  0  0  0  0  0  0  0  0
   -2.3193   15.2166  -27.9167 C   0  0  0  0  0  0  0  0  0  0  0  0
   -1.7896   16.9232  -25.8860 C   0  0  0  0  0  0  0  0  0  0  0  0
   -0.8558   18.9024  -26.6911 C   0  0  0  0  0  0  0  0  0  0  0  0
   -0.1348   19.5627  -27.7888 C   0  0  0  0  0  0  0  0  0  0  0  0
   -2.1676   13.1457  -28.9560 C   0  0  0  0  0  0  0  0  0  0  0  0
   -2.7755   13.9716  -28.1283 C   0  0  0  0  0  0  0  0  0  0  0  0
    0.6668   18.8221  -28.6115 C   0  0  0  0  0  0  0  0  0  0  0  0
   -1.4063   19.5413  -25.6544 C   0  0  0  0  0  0  0  0  0  0  0  0
   -2.2885   18.9422  -24.8401 C   0  0  0  0  0  0  0  0  0  0  0  0
    1.2834   16.8805  -29.7532 C   0  0  0  0  0  0  0  0  0  0  0  0
    1.5608   19.5286  -29.4094 C   0  0  0  0  0  0  0  0  0  0  0  0
    2.2685   17.4914  -30.3444 C   0  0  0  0  0  0  0  0  0  0  0  0
   -2.3626   17.5596  -24.8766 C   0  0  0  0  0  0  0  0  0  0  0  0
   -2.7828   19.5451  -23.6843 O   0  0  0  0  0  0  0  0  0  0  0  0
    3.1535   16.6929  -31.1804 C   0  0  0  0  0  0  0  0  0  0  0  0
   -2.4153   11.7967  -29.1116 C   0  0  0  0  0  0  0  0  0  0  0  0
   -2.8346   11.0617  -27.9546 C   0  0  0  0  0  0  0  0  0  0  0  0
   -3.2838   11.6499  -26.6874 C   0  0  0  0  0  0  0  0  0  0  0  0
   -1.5871   11.0380  -29.9938 C   0  0  0  0  0  0  0  0  0  0  0  0
   -2.9221    9.7717  -28.1619 C   0  0  0  0  0  0  0  0  0  0  0  0
   -2.6587   18.8050  -22.5848 C   0  0  0  0  0  0  0  0  0  0  0  0
   -1.8804    9.6637  -30.1000 C   0  0  0  0  0  0  0  0  0  0  0  0
    2.3789   18.8296  -30.1683 C   0  0  0  0  0  0  0  0  0  0  0  0
   -3.6811    8.9739  -26.9908 C   0  0  0  0  0  0  0  0  0  0  0  0
   -1.2782   18.5982  -22.0423 C   0  0  0  0  0  0  0  0  0  0  0  0
   -3.8938   10.8718  -25.7928 C   0  0  0  0  0  0  0  0  0  0  0  0
   -1.1481   17.7382  -20.8751 C   0  0  0  0  0  0  0  0  0  0  0  0
   -4.0709    9.6017  -25.9268 C   0  0  0  0  0  0  0  0  0  0  0  0
   -2.5334    8.9954  -29.1599 C   0  0  0  0  0  0  0  0  0  0  0  0
   -0.8569   16.3879  -21.1867 C   0  0  0  0  0  0  0  0  0  0  0  0
  1  2  2  3
  2  3  1  0
  2  4  1  0
  1  5  1  0
  5  6  2  0
  1  7  1  0
  3  8  1  0
  3  9  2  0
  9 10  1  0
  6 11  1  0
  7 12  1  0
 11 12  2  0
  4 13  1  0
 10 13  2  0
  9 14  1  0
 14 15  2  0
  4 16  2  0
 13 17  1  0
 16 18  1  0
  8 19  2  0
 15 19  1  0
 15 20  1  0
 18 21  1  0
 11 22  1  0
 22 23  1  0
 23 24  1  0
 22 25  2  0
 23 26  2  0
 20 27  1  0
 25 28  1  0
 17 29  1  0
 18 29  2  0
 26 30  1  0
 27 31  1  0
 24 32  2  0
 31 33  1  0
 30 34  2  0
 32 34  1  0
 26 35  1  0
 28 35  2  0
 33 36  1  0
M  END
>  <ID>  (1) 
conformer_0

$$$$
