
     RDKit          3D

  6  6  0  0  0  0  0  0  0  0999 V2000
    2.7985   17.7471  -30.6096 C   0  0  0  0  0  0  0  0  0  0  0  0
    1.8946   18.6521  -30.5859 C   0  0  0  0  0  0  0  0  0  0  0  0
    2.2586   16.5034  -30.3490 O   0  0  0  0  0  0  0  0  0  0  0  0
    2.2717   16.0282  -29.1341 C   0  0  0  0  0  0  0  0  0  0  0  0
    1.2290   17.1154  -28.4070 C   0  0  0  0  0  0  0  0  0  0  0  0
    0.8181   18.3335  -29.4762 C   0  0  0  0  0  0  0  0  0  0  0  0
  1  2  1  0
  1  3  1  0
  3  4  1  0
  4  5  1  0
  2  6  1  0
  5  6  1  0
M  END
>  <ID>  (1) 
conformer_0

$$$$
