
     RDKit          3D

 35 40  0  0  0  0  0  0  0  0999 V2000
   -1.1150   15.8038  -28.4422 C   0  0  0  0  0  0  0  0  0  0  0  0
   -0.6206   16.8561  -28.0391 C   0  0  0  0  0  0  0  0  0  0  0  0
   -1.1286   17.5099  -27.0020 C   0  0  0  0  0  0  0  0  0  0  0  0
    0.5552   17.4756  -28.7050 C   0  0  0  0  0  0  0  0  0  0  0  0
   -0.5677   14.9781  -29.4890 C   0  0  0  0  0  0  0  0  0  0  0  0
   -1.0353   13.6286  -29.7157 C   0  0  0  0  0  0  0  0  0  0  0  0
   -2.3193   15.2166  -27.9167 C   0  0  0  0  0  0  0  0  0  0  0  0
   -1.7896   16.9232  -25.8860 C   0  0  0  0  0  0  0  0  0  0  0  0
   -0.8558   18.9024  -26.6911 C   0  0  0  0  0  0  0  0  0  0  0  0
   -0.1348   19.5627  -27.7888 C   0  0  0  0  0  0  0  0  0  0  0  0
   -2.1676   13.1457  -28.9560 C   0  0  0  0  0  0  0  0  0  0  0  0
   -2.7755   13.9716  -28.1283 C   0  0  0  0  0  0  0  0  0  0  0  0
    0.6668   18.8221  -28.6115 C   0  0  0  0  0  0  0  0  0  0  0  0
   -1.4063   19.5413  -25.6544 C   0  0  0  0  0  0  0  0  0  0  0  0
   -2.2885   18.9422  -24.8401 C   0  0  0  0  0  0  0  0  0  0  0  0
    1.2834   16.8805  -29.7532 C   0  0  0  0  0  0  0  0  0  0  0  0
    1.5608   19.5286  -29.4094 C   0  0  0  0  0  0  0  0  0  0  0  0
   -2.7569   19.6046  -23.6111 C   0  0  0  0  0  0  0  0  0  0  0  0
   -2.5321   11.7639  -29.1956 C   0  0  0  0  0  0  0  0  0  0  0  0
   -2.2869   18.9969  -22.4531 C   0  0  0  0  0  0  0  0  0  0  0  0
   -2.1232   11.1159  -30.3737 C   0  0  0  0  0  0  0  0  0  0  0  0
   -1.9287   17.6591  -22.3400 C   0  0  0  0  0  0  0  0  0  0  0  0
   -3.3115   11.1641  -28.2436 C   0  0  0  0  0  0  0  0  0  0  0  0
   -1.5839   17.0662  -23.5455 C   0  0  0  0  0  0  0  0  0  0  0  0
    2.3860   18.9176  -30.2512 C   0  0  0  0  0  0  0  0  0  0  0  0
   -2.0945   17.5461  -24.6545 C   0  0  0  0  0  0  0  0  0  0  0  0
    2.2292   17.5062  -30.3756 C   0  0  0  0  0  0  0  0  0  0  0  0
   -2.3573    9.7804  -30.4044 C   0  0  0  0  0  0  0  0  0  0  0  0
   -3.5714    9.8460  -28.3130 C   0  0  0  0  0  0  0  0  0  0  0  0
   -4.4695    9.2142  -27.2776 C   0  0  0  0  0  0  0  0  0  0  0  0
   -3.4724    9.3822  -26.1236 C   0  0  0  0  0  0  0  0  0  0  0  0
   -1.5600   17.1694  -21.0211 C   0  0  0  0  0  0  0  0  0  0  0  0
    3.0738   16.8357  -31.1240 O   0  0  0  0  0  0  0  0  0  0  0  0
   -2.1568   10.0583  -26.3737 C   0  0  0  0  0  0  0  0  0  0  0  0
   -3.1815    9.0193  -29.3940 C   0  0  0  0  0  0  0  0  0  0  0  0
  1  2  2  3
  2  3  1  0
  2  4  1  0
  1  5  1  0
  5  6  2  0
  1  7  1  0
  3  8  1  0
  3  9  2  0
  9 10  1  0
  6 11  1  0
  7 12  1  0
 11 12  2  0
  4 13  1  0
 10 13  2  0
  9 14  1  0
 14 15  2  0
  4 16  2  0
 13 17  1  0
 15 18  1  0
 11 19  1  0
 18 20  2  0
 19 21  2  0
 20 22  1  0
 19 23  1  0
 22 24  1  0
 17 25  2  0
  8 26  2  0
 15 26  1  0
 24 26  1  0
 16 27  1  0
 25 27  1  0
 21 28  1  0
 23 29  2  0
 29 30  1  0
 30 31  1  0
 22 32  1  0
 27 33  2  0
 31 34  1  0
 28 35  2  0
 29 35  1  0
M  END
>  <ID>  (1) 
conformer_0

$$$$
