
     RDKit          3D

 32 37  0  0  0  0  0  0  0  0999 V2000
   -1.1150   15.8038  -28.4422 C   0  0  0  0  0  0  0  0  0  0  0  0
   -0.6206   16.8561  -28.0391 C   0  0  0  0  0  0  0  0  0  0  0  0
   -1.1286   17.5099  -27.0020 C   0  0  0  0  0  0  0  0  0  0  0  0
    0.5552   17.4756  -28.7050 C   0  0  0  0  0  0  0  0  0  0  0  0
   -0.5677   14.9781  -29.4890 C   0  0  0  0  0  0  0  0  0  0  0  0
   -1.0353   13.6286  -29.7157 C   0  0  0  0  0  0  0  0  0  0  0  0
   -2.3193   15.2166  -27.9167 C   0  0  0  0  0  0  0  0  0  0  0  0
   -1.7896   16.9232  -25.8860 C   0  0  0  0  0  0  0  0  0  0  0  0
   -0.8558   18.9024  -26.6911 C   0  0  0  0  0  0  0  0  0  0  0  0
   -0.1348   19.5627  -27.7888 C   0  0  0  0  0  0  0  0  0  0  0  0
   -1.2396   19.5545  -25.5427 C   0  0  0  0  0  0  0  0  0  0  0  0
   -1.7582   18.8890  -24.4823 C   0  0  0  0  0  0  0  0  0  0  0  0
   -0.3455   12.8341  -30.6597 C   0  0  0  0  0  0  0  0  0  0  0  0
    0.6594   18.8302  -28.7246 C   0  0  0  0  0  0  0  0  0  0  0  0
   -2.0855   13.2110  -28.8278 C   0  0  0  0  0  0  0  0  0  0  0  0
   -2.1175   17.5789  -24.6979 C   0  0  0  0  0  0  0  0  0  0  0  0
   -2.5325   11.8302  -29.0951 C   0  0  0  0  0  0  0  0  0  0  0  0
   -1.9428   11.0224  -29.9975 C   0  0  0  0  0  0  0  0  0  0  0  0
   -0.6765   11.5409  -30.7038 C   0  0  0  0  0  0  0  0  0  0  0  0
   -2.1075   19.5398  -23.3414 O   0  0  0  0  0  0  0  0  0  0  0  0
   -3.5294   11.2129  -28.2615 C   0  0  0  0  0  0  0  0  0  0  0  0
   -2.7344   14.0076  -27.9901 C   0  0  0  0  0  0  0  0  0  0  0  0
   -1.7732   18.8168  -22.3080 C   0  0  0  0  0  0  0  0  0  0  0  0
    1.2377   16.9188  -29.6764 C   0  0  0  0  0  0  0  0  0  0  0  0
    2.2139   17.5938  -30.3821 C   0  0  0  0  0  0  0  0  0  0  0  0
   -2.2066    9.6272  -30.2063 N   0  0  0  0  0  0  0  0  0  0  0  0
   -2.1168   17.6958  -21.8183 C   0  0  0  0  0  0  0  0  0  0  0  0
    2.3906   18.8815  -30.2340 C   0  0  0  0  0  0  0  0  0  0  0  0
   -1.8533   17.5517  -20.4102 C   0  0  0  0  0  0  0  0  0  0  0  0
    1.5404   19.5855  -29.3302 C   0  0  0  0  0  0  0  0  0  0  0  0
   -3.7265    9.8269  -28.4406 C   0  0  0  0  0  0  0  0  0  0  0  0
   -3.1150    9.1027  -29.4109 C   0  0  0  0  0  0  0  0  0  0  0  0
  1  2  2  3
  2  3  1  0
  2  4  1  0
  1  5  1  0
  5  6  2  0
  1  7  1  0
  3  8  1  0
  3  9  2  0
  9 10  1  0
  9 11  1  0
 11 12  2  0
  6 13  1  0
  4 14  1  0
 10 14  1  0
  6 15  1  0
  8 16  2  0
 12 16  1  0
 15 17  1  0
 17 18  2  0
 13 19  2  0
 18 19  1  0
 12 20  1  0
 17 21  1  0
  7 22  2  0
 15 22  2  0
 20 23  1  0
  4 24  2  0
 24 25  1  0
 18 26  1  0
 23 27  1  0
 25 28  2  0
 27 29  1  0
 14 30  2  0
 28 30  1  0
 21 31  2  0
 26 32  2  0
 31 32  1  0
M  END
>  <ID>  (1) 
conformer_0

$$$$
