
     RDKit          3D

 10 11  0  0  0  0  0  0  0  0999 V2000
   -3.9869    9.1746  -27.5903 C   0  0  0  0  0  0  0  0  0  0  0  0
   -3.3043    9.1724  -28.8277 C   0  0  0  0  0  0  0  0  0  0  0  0
   -2.3136   10.1574  -29.0840 C   0  0  0  0  0  0  0  0  0  0  0  0
   -2.1500   11.2299  -28.2201 C   0  0  0  0  0  0  0  0  0  0  0  0
   -2.8022   11.2871  -27.0710 C   0  0  0  0  0  0  0  0  0  0  0  0
   -3.6835   10.2383  -26.7146 C   0  0  0  0  0  0  0  0  0  0  0  0
   -1.5373   10.0219  -30.5109 C   0  0  0  0  0  0  0  0  0  0  0  0
   -1.1554   12.3758  -28.6945 C   0  0  0  0  0  0  0  0  0  0  0  0
   -1.0658   11.3394  -30.9706 C   0  0  0  0  0  0  0  0  0  0  0  0
   -1.0995   12.3923  -29.9942 N   0  0  0  0  0  0  0  0  0  0  0  0
  1  2  1  0
  2  3  2  0
  3  4  1  0
  4  5  2  0
  1  6  2  0
  5  6  1  0
  3  7  1  0
  4  8  1  0
  7  9  1  0
  8 10  1  0
  9 10  1  0
M  END
>  <ID>  (1) 
conformer_0

$$$$
