
     RDKit          3D

 18 20  0  0  0  0  0  0  0  0999 V2000
   -0.8350   17.3846  -23.9693 C   0  0  0  0  0  0  0  0  0  0  0  0
   -1.7301   18.2637  -24.4489 C   0  0  0  0  0  0  0  0  0  0  0  0
   -0.6596   17.5590  -22.4674 C   0  0  0  0  0  0  0  0  0  0  0  0
   -1.4604   18.4411  -21.7840 C   0  0  0  0  0  0  0  0  0  0  0  0
   -2.4687   19.1989  -23.7875 C   0  0  0  0  0  0  0  0  0  0  0  0
   -1.8729   18.0877  -26.1738 C   0  0  0  0  0  0  0  0  0  0  0  0
   -1.0059   18.9405  -26.7531 C   0  0  0  0  0  0  0  0  0  0  0  0
   -0.1913   18.4193  -27.7977 C   0  0  0  0  0  0  0  0  0  0  0  0
   -2.4390   19.1622  -22.3452 C   0  0  0  0  0  0  0  0  0  0  0  0
    0.6282   19.1828  -28.5639 C   0  0  0  0  0  0  0  0  0  0  0  0
    1.5018   18.5358  -29.5025 C   0  0  0  0  0  0  0  0  0  0  0  0
   -0.2965   16.9887  -27.9687 C   0  0  0  0  0  0  0  0  0  0  0  0
    1.3726   17.0517  -29.5983 C   0  0  0  0  0  0  0  0  0  0  0  0
    2.3548   16.5031  -30.5995 C   0  0  0  0  0  0  0  0  0  0  0  0
   -1.2697   16.1901  -27.2761 C   0  0  0  0  0  0  0  0  0  0  0  0
    0.5722   16.3588  -28.8715 C   0  0  0  0  0  0  0  0  0  0  0  0
   -1.9617   16.6458  -26.2054 C   0  0  0  0  0  0  0  0  0  0  0  0
   -1.2565   18.4425  -20.0598 Cl  0  0  0  0  0  0  0  0  0  0  0  0
  1  2  1  0
  1  3  2  0
  3  4  1  0
  2  5  2  0
  2  6  1  0
  6  7  1  0
  7  8  1  0
  4  9  2  0
  5  9  1  0
  8 10  1  0
 10 11  2  0
  8 12  2  0
 11 13  1  0
 13 14  1  0
 12 15  1  0
 12 16  1  0
 13 16  2  0
  6 17  1  0
 15 17  2  0
  4 18  1  0
M  END
>  <ID>  (1) 
conformer_0

$$$$
