
     RDKit          3D

 35 41  0  0  0  0  0  0  0  0999 V2000
   -1.1150   15.8038  -28.4422 C   0  0  0  0  0  0  0  0  0  0  0  0
   -0.6206   16.8561  -28.0391 C   0  0  0  0  0  0  0  0  0  0  0  0
   -1.1286   17.5099  -27.0020 C   0  0  0  0  0  0  0  0  0  0  0  0
    0.5552   17.4756  -28.7050 C   0  0  0  0  0  0  0  0  0  0  0  0
   -0.5677   14.9781  -29.4890 C   0  0  0  0  0  0  0  0  0  0  0  0
   -1.0353   13.6286  -29.7157 C   0  0  0  0  0  0  0  0  0  0  0  0
   -2.3193   15.2166  -27.9167 C   0  0  0  0  0  0  0  0  0  0  0  0
   -1.7896   16.9232  -25.8860 C   0  0  0  0  0  0  0  0  0  0  0  0
   -0.8558   18.9024  -26.6911 C   0  0  0  0  0  0  0  0  0  0  0  0
   -0.1348   19.5627  -27.7888 C   0  0  0  0  0  0  0  0  0  0  0  0
   -2.1676   13.1457  -28.9560 C   0  0  0  0  0  0  0  0  0  0  0  0
   -1.0981   19.4272  -25.4221 C   0  0  0  0  0  0  0  0  0  0  0  0
    1.3329   16.7387  -29.6289 C   0  0  0  0  0  0  0  0  0  0  0  0
   -1.7027   18.8418  -24.4623 C   0  0  0  0  0  0  0  0  0  0  0  0
   -1.9606   19.4357  -23.1869 O   0  0  0  0  0  0  0  0  0  0  0  0
   -1.5108   18.6855  -22.1143 C   0  0  0  0  0  0  0  0  0  0  0  0
   -2.1254   17.5605  -24.7020 C   0  0  0  0  0  0  0  0  0  0  0  0
   -2.5706   11.8251  -29.1267 C   0  0  0  0  0  0  0  0  0  0  0  0
   -2.7632   14.0595  -28.0695 C   0  0  0  0  0  0  0  0  0  0  0  0
   -2.9091   11.1074  -27.9196 C   0  0  0  0  0  0  0  0  0  0  0  0
   -3.1608    9.7521  -28.0489 C   0  0  0  0  0  0  0  0  0  0  0  0
    0.6086   18.9028  -28.6804 C   0  0  0  0  0  0  0  0  0  0  0  0
    1.4251   19.5782  -29.5465 C   0  0  0  0  0  0  0  0  0  0  0  0
   -3.2048   11.7387  -26.5997 C   0  0  0  0  0  0  0  0  0  0  0  0
   -2.4258   18.1619  -21.2800 C   0  0  0  0  0  0  0  0  0  0  0  0
    0.7765   15.4877  -29.9267 C   0  0  0  0  0  0  0  0  0  0  0  0
    2.3162   17.4245  -30.2737 C   0  0  0  0  0  0  0  0  0  0  0  0
   -3.1126    9.1578  -29.2890 C   0  0  0  0  0  0  0  0  0  0  0  0
   -3.4198    8.7992  -26.9286 C   0  0  0  0  0  0  0  0  0  0  0  0
   -0.4886   17.7604  -22.3625 C   0  0  0  0  0  0  0  0  0  0  0  0
   -0.8559   16.4865  -21.8398 C   0  0  0  0  0  0  0  0  0  0  0  0
   -1.8380   16.8908  -20.8482 C   0  0  0  0  0  0  0  0  0  0  0  0
    2.0910   18.7526  -30.5339 C   0  0  0  0  0  0  0  0  0  0  0  0
   -2.5829    9.8168  -30.3793 C   0  0  0  0  0  0  0  0  0  0  0  0
   -2.2106   11.1598  -30.2221 C   0  0  0  0  0  0  0  0  0  0  0  0
  1  2  2  0
  2  3  1  0
  2  4  1  0
  1  5  1  0
  5  6  2  0
  1  7  1  0
  3  8  1  0
  3  9  2  0
  9 10  1  0
  6 11  1  0
  9 12  1  0
  4 13  2  0
 12 14  2  0
 14 15  1  0
 15 16  1  0
  8 17  2  0
 14 17  1  0
 11 18  1  0
  7 19  1  0
 11 19  2  0
 18 20  1  0
 20 21  2  0
  4 22  1  0
 10 22  2  0
 22 23  1  0
 20 24  1  0
 16 25  1  0
  5 26  1  0
 13 26  1  0
 13 27  1  0
 21 28  1  0
 21 29  1  0
 16 30  1  0
 30 31  1  0
 25 32  1  0
 31 32  1  0
 23 33  1  0
 27 33  1  0
 28 34  2  0
 18 35  2  0
 34 35  1  0
M  END
>  <ID>  (1) 
conformer_0

$$$$
