
     RDKit          3D

 36 42  0  0  0  0  0  0  0  0999 V2000
   -1.1150   15.8038  -28.4422 C   0  0  0  0  0  0  0  0  0  0  0  0
   -0.6206   16.8561  -28.0391 C   0  0  0  0  0  0  0  0  0  0  0  0
   -1.1286   17.5099  -27.0020 C   0  0  0  0  0  0  0  0  0  0  0  0
    0.5552   17.4756  -28.7050 C   0  0  0  0  0  0  0  0  0  0  0  0
   -0.5677   14.9781  -29.4890 C   0  0  0  0  0  0  0  0  0  0  0  0
   -1.0353   13.6286  -29.7157 C   0  0  0  0  0  0  0  0  0  0  0  0
   -2.3193   15.2166  -27.9167 C   0  0  0  0  0  0  0  0  0  0  0  0
   -1.7896   16.9232  -25.8860 C   0  0  0  0  0  0  0  0  0  0  0  0
   -0.8558   18.9024  -26.6911 C   0  0  0  0  0  0  0  0  0  0  0  0
   -0.1348   19.5627  -27.7888 C   0  0  0  0  0  0  0  0  0  0  0  0
   -2.1676   13.1457  -28.9560 C   0  0  0  0  0  0  0  0  0  0  0  0
   -1.0981   19.4272  -25.4221 C   0  0  0  0  0  0  0  0  0  0  0  0
    1.3329   16.7387  -29.6289 C   0  0  0  0  0  0  0  0  0  0  0  0
   -1.7027   18.8418  -24.4623 C   0  0  0  0  0  0  0  0  0  0  0  0
   -1.9606   19.4357  -23.1869 O   0  0  0  0  0  0  0  0  0  0  0  0
   -2.1154   17.5680  -24.6990 C   0  0  0  0  0  0  0  0  0  0  0  0
    0.6851   15.4267  -29.9537 C   0  0  0  0  0  0  0  0  0  0  0  0
   -2.8148   14.0359  -28.1779 C   0  0  0  0  0  0  0  0  0  0  0  0
   -2.3996   11.8606  -29.1823 C   0  0  0  0  0  0  0  0  0  0  0  0
   -1.4463   11.2661  -30.1187 C   0  0  0  0  0  0  0  0  0  0  0  0
   -3.2121   11.0232  -28.3284 C   0  0  0  0  0  0  0  0  0  0  0  0
   -1.5523   18.7850  -22.1188 C   0  0  0  0  0  0  0  0  0  0  0  0
    2.4897   17.1124  -30.0293 C   0  0  0  0  0  0  0  0  0  0  0  0
   -0.6100   11.6343  -30.8651 C   0  0  0  0  0  0  0  0  0  0  0  0
   -3.2752   11.2371  -27.0155 O   0  0  0  0  0  0  0  0  0  0  0  0
   -0.1960   13.0316  -30.5832 C   0  0  0  0  0  0  0  0  0  0  0  0
   -2.5556   18.1296  -21.3046 C   0  0  0  0  0  0  0  0  0  0  0  0
   -1.8199    9.6635  -30.4111 O   0  0  0  0  0  0  0  0  0  0  0  0
    0.8082   18.8363  -28.5791 C   0  0  0  0  0  0  0  0  0  0  0  0
   -0.2191   18.4981  -21.9008 C   0  0  0  0  0  0  0  0  0  0  0  0
    2.6787   17.9576  -31.0648 C   0  0  0  0  0  0  0  0  0  0  0  0
   -2.4291    9.0748  -29.2523 C   0  0  0  0  0  0  0  0  0  0  0  0
   -3.6608    9.7238  -28.7113 C   0  0  0  0  0  0  0  0  0  0  0  0
   -0.1591   17.5624  -20.7652 C   0  0  0  0  0  0  0  0  0  0  0  0
   -4.2742   10.5021  -26.3390 C   0  0  0  0  0  0  0  0  0  0  0  0
   -1.6463   17.4853  -20.2844 C   0  0  0  0  0  0  0  0  0  0  0  0
  1  2  2  0
  2  3  1  0
  2  4  1  0
  1  5  1  0
  5  6  2  0
  1  7  1  0
  3  8  1  0
  3  9  2  0
  9 10  1  0
  6 11  1  0
  9 12  1  0
  4 13  2  0
 12 14  2  0
 14 15  1  0
  8 16  2  0
 14 16  1  0
  5 17  1  0
 13 17  1  0
  7 18  1  0
 11 18  1  0
 11 19  2  0
 19 20  1  0
 19 21  1  0
 15 22  1  0
 13 23  1  0
 20 24  2  0
 21 25  1  0
  6 26  1  0
 24 26  1  0
 22 27  1  0
 20 28  1  0
  4 29  1  0
 10 29  2  0
 22 30  2  0
 23 31  1  0
 28 32  1  0
 21 33  1  0
 32 33  1  0
 30 34  1  0
 25 35  1  0
 27 36  1  0
 34 36  1  0
M  END
>  <ID>  (1) 
conformer_0

$$$$
