
     RDKit          3D

  5  5  0  0  0  0  0  0  0  0999 V2000
    3.0372   17.8831  -30.5037 C   0  0  0  0  0  0  0  0  0  0  0  0
    2.5665   16.7747  -29.7866 C   0  0  0  0  0  0  0  0  0  0  0  0
    2.1049   18.9753  -30.6977 C   0  0  0  0  0  0  0  0  0  0  0  0
    1.2874   19.0571  -29.3717 C   0  0  0  0  0  0  0  0  0  0  0  0
    1.5476   17.4058  -28.7675 C   0  0  0  0  0  0  0  0  0  0  0  0
  1  2  1  0
  1  3  1  0
  3  4  1  0
  2  5  1  0
  4  5  1  0
M  END
>  <ID>  (1) 
conformer_0

$$$$
