
     RDKit          3D

 31 34  0  0  0  0  0  0  0  0999 V2000
   -1.1150   15.8038  -28.4422 C   0  0  0  0  0  0  0  0  0  0  0  0
   -0.6206   16.8561  -28.0391 C   0  0  0  0  0  0  0  0  0  0  0  0
   -2.1749   15.1396  -27.9679 C   0  0  0  0  0  0  0  0  0  0  0  0
   -2.5945   13.8882  -28.5396 C   0  0  0  0  0  0  0  0  0  0  0  0
   -2.7625   15.7243  -26.9069 C   0  0  0  0  0  0  0  0  0  0  0  0
    0.5667   17.5397  -28.6202 C   0  0  0  0  0  0  0  0  0  0  0  0
   -2.0695   12.7363  -27.9966 O   0  0  0  0  0  0  0  0  0  0  0  0
   -2.3511   11.5636  -28.4817 C   0  0  0  0  0  0  0  0  0  0  0  0
   -2.3390   16.8384  -26.3475 C   0  0  0  0  0  0  0  0  0  0  0  0
   -3.0522   17.4313  -25.1793 C   0  0  0  0  0  0  0  0  0  0  0  0
   -3.0095   18.8725  -25.0497 C   0  0  0  0  0  0  0  0  0  0  0  0
   -2.3196   19.3208  -23.9063 C   0  0  0  0  0  0  0  0  0  0  0  0
   -2.7860   10.5279  -27.6434 C   0  0  0  0  0  0  0  0  0  0  0  0
   -2.2508   11.4075  -29.9343 C   0  0  0  0  0  0  0  0  0  0  0  0
   -1.8671   18.3496  -22.9916 C   0  0  0  0  0  0  0  0  0  0  0  0
    0.7810   18.6490  -28.6785 C   0  0  0  0  0  0  0  0  0  0  0  0
   -1.7795   12.3525  -30.7912 F   0  0  0  0  0  0  0  0  0  0  0  0
    1.5165   16.5958  -29.2627 C   0  0  0  0  0  0  0  0  0  0  0  0
   -1.6550   18.7114  -21.5699 C   0  0  0  0  0  0  0  0  0  0  0  0
   -0.1969   19.6041  -27.9940 C   0  0  0  0  0  0  0  0  0  0  0  0
    1.8889   19.2845  -29.3891 C   0  0  0  0  0  0  0  0  0  0  0  0
   -1.2382   17.4743  -26.9490 C   0  0  0  0  0  0  0  0  0  0  0  0
   -3.0225    9.2855  -28.2260 C   0  0  0  0  0  0  0  0  0  0  0  0
   -2.8473    9.1748  -29.7512 C   0  0  0  0  0  0  0  0  0  0  0  0
    2.4617   17.0540  -29.9626 C   0  0  0  0  0  0  0  0  0  0  0  0
   -1.0048   18.9525  -26.9382 C   0  0  0  0  0  0  0  0  0  0  0  0
   -2.3532   10.1578  -30.5137 C   0  0  0  0  0  0  0  0  0  0  0  0
   -2.9807   10.6702  -26.3034 O   0  0  0  0  0  0  0  0  0  0  0  0
    2.6637   18.4192  -30.0063 C   0  0  0  0  0  0  0  0  0  0  0  0
   -1.5159   17.7810  -20.5986 C   0  0  0  0  0  0  0  0  0  0  0  0
   -3.4894    8.2590  -27.5012 O   0  0  0  0  0  0  0  0  0  0  0  0
  1  2  2  0
  1  3  1  0
  3  4  1  0
  3  5  2  0
  2  6  1  0
  4  7  1  0
  7  8  1  0
  5  9  1  0
  9 10  1  0
 10 11  1  0
 11 12  1  0
  8 13  1  0
  8 14  2  0
 12 15  1  0
  6 16  2  0
 14 17  1  0
  6 18  1  0
 15 19  1  0
 16 20  1  0
 16 21  1  0
  2 22  1  0
  9 22  2  0
 13 23  2  0
 23 24  1  0
 18 25  2  0
 20 26  1  0
 22 26  1  0
 14 27  1  0
 24 27  2  0
 13 28  1  0
 21 29  2  0
 25 29  1  0
 19 30  1  0
 23 31  1  0
M  END
>  <ID>  (1) 
conformer_0

$$$$
