
     RDKit          3D

  9  9  0  0  0  0  0  0  0  0999 V2000
   -3.5732    8.7323  -27.2995 N   0  0  0  0  0  0  0  0  0  0  0  0
   -3.4567    9.2369  -28.3872 C   0  0  0  0  0  0  0  0  0  0  0  0
   -3.2463   10.5739  -28.4120 C   0  0  0  0  0  0  0  0  0  0  0  0
   -3.0305   10.9933  -27.1495 C   0  0  0  0  0  0  0  0  0  0  0  0
   -2.8124   11.1609  -29.7345 C   0  0  0  0  0  0  0  0  0  0  0  0
   -1.9540   12.2649  -29.6537 C   0  0  0  0  0  0  0  0  0  0  0  0
   -0.9454   12.1947  -28.8011 C   0  0  0  0  0  0  0  0  0  0  0  0
   -2.2254   10.1123  -30.6429 C   0  0  0  0  0  0  0  0  0  0  0  0
   -3.3112    9.8490  -26.3868 C   0  0  0  0  0  0  0  0  0  0  0  0
  1  2  1  0
  2  3  2  0
  3  4  1  0
  3  5  1  0
  5  6  1  0
  6  7  1  0
  5  8  1  0
  1  9  2  0
  4  9  1  0
M  END
>  <ID>  (1) 
conformer_0

$$$$
