
     RDKit          3D

  5  5  0  0  0  0  0  0  0  0999 V2000
   -1.2296   17.8726  -20.7537 C   0  0  0  0  0  0  0  0  0  0  0  0
   -0.5663   17.2956  -21.6703 C   0  0  0  0  0  0  0  0  0  0  0  0
   -2.2407   18.6360  -21.3083 C   0  0  0  0  0  0  0  0  0  0  0  0
   -1.0205   17.6404  -22.9139 C   0  0  0  0  0  0  0  0  0  0  0  0
   -2.3327   18.5987  -22.7358 S   0  0  0  0  0  0  0  0  0  0  0  0
  1  2  1  0
  1  3  2  0
  2  4  2  0
  3  5  1  0
  4  5  1  0
M  END
>  <ID>  (1) 
conformer_0

$$$$
