
     RDKit          3D

 34 38  0  0  0  0  0  0  0  0999 V2000
   -1.1150   15.8038  -28.4422 C   0  0  0  0  0  0  0  0  0  0  0  0
   -0.6206   16.8561  -28.0391 C   0  0  0  0  0  0  0  0  0  0  0  0
   -1.1286   17.5099  -27.0020 C   0  0  0  0  0  0  0  0  0  0  0  0
    0.5552   17.4756  -28.7050 C   0  0  0  0  0  0  0  0  0  0  0  0
   -0.5677   14.9781  -29.4890 C   0  0  0  0  0  0  0  0  0  0  0  0
   -1.0353   13.6286  -29.7157 C   0  0  0  0  0  0  0  0  0  0  0  0
   -2.3193   15.2166  -27.9167 C   0  0  0  0  0  0  0  0  0  0  0  0
   -1.7896   16.9232  -25.8860 C   0  0  0  0  0  0  0  0  0  0  0  0
   -0.8558   18.9024  -26.6911 C   0  0  0  0  0  0  0  0  0  0  0  0
   -0.1348   19.5627  -27.7888 C   0  0  0  0  0  0  0  0  0  0  0  0
   -1.2396   19.5545  -25.5427 C   0  0  0  0  0  0  0  0  0  0  0  0
   -1.7582   18.8890  -24.4823 C   0  0  0  0  0  0  0  0  0  0  0  0
   -0.3455   12.8341  -30.6597 C   0  0  0  0  0  0  0  0  0  0  0  0
    0.6594   18.8302  -28.7246 C   0  0  0  0  0  0  0  0  0  0  0  0
   -2.0855   13.2110  -28.8278 C   0  0  0  0  0  0  0  0  0  0  0  0
   -2.1175   17.5789  -24.6979 C   0  0  0  0  0  0  0  0  0  0  0  0
   -2.5325   11.8302  -29.0951 C   0  0  0  0  0  0  0  0  0  0  0  0
   -1.9428   11.0224  -29.9975 C   0  0  0  0  0  0  0  0  0  0  0  0
   -0.6765   11.5409  -30.7038 C   0  0  0  0  0  0  0  0  0  0  0  0
   -2.1075   19.5398  -23.3414 O   0  0  0  0  0  0  0  0  0  0  0  0
   -3.5294   11.2129  -28.2615 C   0  0  0  0  0  0  0  0  0  0  0  0
   -2.7344   14.0076  -27.9901 C   0  0  0  0  0  0  0  0  0  0  0  0
   -1.7662   18.9203  -22.2471 C   0  0  0  0  0  0  0  0  0  0  0  0
    1.5222   19.3749  -29.5797 C   0  0  0  0  0  0  0  0  0  0  0  0
   -3.1223   10.2751  -27.2835 C   0  0  0  0  0  0  0  0  0  0  0  0
    1.3923   16.8849  -29.6411 C   0  0  0  0  0  0  0  0  0  0  0  0
   -3.6984   10.4745  -26.0568 O   0  0  0  0  0  0  0  0  0  0  0  0
   -1.8921    9.8523  -27.1210 O   0  0  0  0  0  0  0  0  0  0  0  0
   -2.5215   17.9559  -21.5438 C   0  0  0  0  0  0  0  0  0  0  0  0
   -2.2203    9.5527  -30.3508 N   0  0  0  0  0  0  0  0  0  0  0  0
    1.4669   15.4508  -29.7656 O   0  0  0  0  0  0  0  0  0  0  0  0
    2.3860   18.7813  -30.3220 C   0  0  0  0  0  0  0  0  0  0  0  0
    2.2411   17.3145  -30.5223 C   0  0  0  0  0  0  0  0  0  0  0  0
   -2.2353   17.9768  -20.0986 C   0  0  0  0  0  0  0  0  0  0  0  0
  1  2  2  3
  2  3  1  0
  2  4  1  0
  1  5  1  0
  5  6  2  0
  1  7  1  0
  3  8  1  0
  3  9  2  0
  9 10  1  0
  9 11  1  0
 11 12  2  0
  6 13  1  0
  4 14  1  0
 10 14  1  0
  6 15  1  0
  8 16  2  0
 12 16  1  0
 15 17  1  0
 17 18  2  0
 13 19  2  0
 18 19  1  0
 12 20  1  0
 17 21  1  0
  7 22  2  0
 15 22  2  0
 20 23  1  0
 14 24  2  0
 21 25  1  0
  4 26  2  0
 25 27  1  0
 25 28  2  0
 23 29  1  0
 18 30  1  0
 26 31  1  0
 24 32  1  0
 26 33  1  0
 32 33  2  0
 29 34  1  0
M  END
>  <ID>  (1) 
conformer_0

$$$$
