
     RDKit          3D

 30 33  0  0  0  0  0  0  0  0999 V2000
   -1.1150   15.8038  -28.4422 C   0  0  0  0  0  0  0  0  0  0  0  0
   -0.6206   16.8561  -28.0391 C   0  0  0  0  0  0  0  0  0  0  0  0
   -0.2825   14.9146  -29.2129 C   0  0  0  0  0  0  0  0  0  0  0  0
    0.7385   17.2136  -28.5840 C   0  0  0  0  0  0  0  0  0  0  0  0
   -1.2056   17.8590  -27.1232 C   0  0  0  0  0  0  0  0  0  0  0  0
    1.3998   18.4576  -28.3282 C   0  0  0  0  0  0  0  0  0  0  0  0
   -1.0423   19.1976  -27.2355 C   0  0  0  0  0  0  0  0  0  0  0  0
   -2.4006   15.2455  -27.8523 C   0  0  0  0  0  0  0  0  0  0  0  0
   -1.9555   17.3628  -26.0093 C   0  0  0  0  0  0  0  0  0  0  0  0
   -2.8712   14.1936  -28.7144 O   0  0  0  0  0  0  0  0  0  0  0  0
   -1.6256   17.8135  -24.6633 C   0  0  0  0  0  0  0  0  0  0  0  0
   -0.8179   17.3152  -23.8742 C   0  0  0  0  0  0  0  0  0  0  0  0
   -0.7081   17.7393  -22.4775 C   0  0  0  0  0  0  0  0  0  0  0  0
    0.8471   15.0836  -29.6838 C   0  0  0  0  0  0  0  0  0  0  0  0
   -2.4758   12.9843  -28.5855 C   0  0  0  0  0  0  0  0  0  0  0  0
   -1.9380   12.2672  -29.6391 C   0  0  0  0  0  0  0  0  0  0  0  0
    0.2876   17.1416  -21.5597 O   0  0  0  0  0  0  0  0  0  0  0  0
    0.1869   19.5878  -27.7970 C   0  0  0  0  0  0  0  0  0  0  0  0
   -1.4621   18.8395  -22.0456 C   0  0  0  0  0  0  0  0  0  0  0  0
   -2.3180   19.3872  -22.9072 C   0  0  0  0  0  0  0  0  0  0  0  0
    1.3785   16.3544  -29.4004 C   0  0  0  0  0  0  0  0  0  0  0  0
   -2.5157   18.9664  -24.2359 C   0  0  0  0  0  0  0  0  0  0  0  0
   -3.0248   12.1986  -27.4408 C   0  0  0  0  0  0  0  0  0  0  0  0
   -0.6471   16.6144  -20.5561 C   0  0  0  0  0  0  0  0  0  0  0  0
   -2.9192   10.9152  -27.2970 C   0  0  0  0  0  0  0  0  0  0  0  0
   -2.2285   10.1996  -28.3881 C   0  0  0  0  0  0  0  0  0  0  0  0
   -3.4830   10.0581  -25.9324 Cl  0  0  0  0  0  0  0  0  0  0  0  0
    2.7814   16.8125  -29.9504 C   0  0  0  0  0  0  0  0  0  0  0  0
   -1.7352   10.8693  -29.4680 C   0  0  0  0  0  0  0  0  0  0  0  0
   -2.0334    8.3887  -28.2633 Cl  0  0  0  0  0  0  0  0  0  0  0  0
  1  2  2  0
  1  3  1  0
  2  4  1  0
  2  5  1  0
  4  6  1  0
  5  7  2  0
  1  8  1  0
  5  9  1  0
  8 10  1  0
  9 11  1  0
 11 12  1  0
 12 13  2  0
  3 14  2  0
 10 15  1  0
 15 16  2  0
 13 17  1  0
  6 18  1  0
  7 18  1  0
 13 19  1  0
 19 20  2  0
  4 21  2  0
 14 21  1  0
 11 22  2  0
 20 22  1  0
 15 23  1  0
 17 24  1  0
 23 25  2  0
 25 26  1  0
 25 27  1  0
 21 28  1  0
 16 29  1  0
 26 29  2  0
 26 30  1  0
M  END
>  <ID>  (1) 
conformer_0

$$$$
