
     RDKit          3D

 36 42  0  0  0  0  0  0  0  0999 V2000
   -1.1150   15.8038  -28.4422 C   0  0  0  0  0  0  0  0  0  0  0  0
   -0.6206   16.8561  -28.0391 C   0  0  0  0  0  0  0  0  0  0  0  0
   -1.1286   17.5099  -27.0020 C   0  0  0  0  0  0  0  0  0  0  0  0
    0.5552   17.4756  -28.7050 C   0  0  0  0  0  0  0  0  0  0  0  0
   -0.5677   14.9781  -29.4890 C   0  0  0  0  0  0  0  0  0  0  0  0
   -1.0353   13.6286  -29.7157 C   0  0  0  0  0  0  0  0  0  0  0  0
   -2.3193   15.2166  -27.9167 C   0  0  0  0  0  0  0  0  0  0  0  0
   -1.7896   16.9232  -25.8860 C   0  0  0  0  0  0  0  0  0  0  0  0
   -0.8558   18.9024  -26.6911 C   0  0  0  0  0  0  0  0  0  0  0  0
   -0.1348   19.5627  -27.7888 C   0  0  0  0  0  0  0  0  0  0  0  0
   -2.1676   13.1457  -28.9560 C   0  0  0  0  0  0  0  0  0  0  0  0
   -1.0981   19.4272  -25.4221 C   0  0  0  0  0  0  0  0  0  0  0  0
    1.3329   16.7387  -29.6289 C   0  0  0  0  0  0  0  0  0  0  0  0
   -1.7027   18.8418  -24.4623 C   0  0  0  0  0  0  0  0  0  0  0  0
   -1.9606   19.4357  -23.1869 O   0  0  0  0  0  0  0  0  0  0  0  0
   -1.5108   18.6855  -22.1143 C   0  0  0  0  0  0  0  0  0  0  0  0
   -2.1254   17.5605  -24.7020 C   0  0  0  0  0  0  0  0  0  0  0  0
   -2.5706   11.8251  -29.1267 C   0  0  0  0  0  0  0  0  0  0  0  0
   -2.7632   14.0595  -28.0695 C   0  0  0  0  0  0  0  0  0  0  0  0
   -2.9091   11.1074  -27.9196 C   0  0  0  0  0  0  0  0  0  0  0  0
   -3.1608    9.7521  -28.0489 C   0  0  0  0  0  0  0  0  0  0  0  0
    0.6086   18.9028  -28.6804 C   0  0  0  0  0  0  0  0  0  0  0  0
    1.4251   19.5782  -29.5465 C   0  0  0  0  0  0  0  0  0  0  0  0
   -3.2048   11.7387  -26.5997 C   0  0  0  0  0  0  0  0  0  0  0  0
   -2.4258   18.1619  -21.2800 C   0  0  0  0  0  0  0  0  0  0  0  0
    0.7765   15.4877  -29.9267 C   0  0  0  0  0  0  0  0  0  0  0  0
   -2.3344   11.0945  -30.2001 C   0  0  0  0  0  0  0  0  0  0  0  0
   -0.1782   18.3332  -22.0520 C   0  0  0  0  0  0  0  0  0  0  0  0
   -1.9775   17.4590  -20.1823 C   0  0  0  0  0  0  0  0  0  0  0  0
    2.5599   17.1685  -29.8597 C   0  0  0  0  0  0  0  0  0  0  0  0
    2.4561   18.7011  -30.2142 C   0  0  0  0  0  0  0  0  0  0  0  0
    0.0930   17.4353  -20.8624 C   0  0  0  0  0  0  0  0  0  0  0  0
   -2.4961    9.7581  -30.2449 C   0  0  0  0  0  0  0  0  0  0  0  0
   -3.0177    9.0895  -29.1640 C   0  0  0  0  0  0  0  0  0  0  0  0
   -3.7419    9.0890  -26.9021 O   0  0  0  0  0  0  0  0  0  0  0  0
   -0.6849   17.0809  -20.0782 C   0  0  0  0  0  0  0  0  0  0  0  0
  1  2  2  0
  2  3  1  0
  2  4  1  0
  1  5  1  0
  5  6  2  0
  1  7  1  0
  3  8  1  0
  3  9  2  0
  9 10  1  0
  6 11  1  0
  9 12  1  0
  4 13  2  0
 12 14  2  0
 14 15  1  0
 15 16  1  0
  8 17  2  0
 14 17  1  0
 11 18  1  0
  7 19  1  0
 11 19  2  0
 18 20  1  0
 20 21  2  0
  4 22  1  0
 10 22  2  0
 22 23  1  0
 20 24  1  0
 16 25  1  0
  5 26  1  0
 13 26  1  0
 18 27  2  0
 16 28  2  0
 25 29  2  0
 13 30  1  0
 23 31  2  0
 30 31  1  0
 28 32  1  0
 27 33  1  0
 21 34  1  0
 33 34  2  0
 21 35  1  0
 29 36  1  0
 32 36  2  0
M  END
>  <ID>  (1) 
conformer_0

$$$$
