
     RDKit          3D

 35 40  0  0  0  0  0  0  0  0999 V2000
   -1.1150   15.8038  -28.4422 C   0  0  0  0  0  0  0  0  0  0  0  0
   -0.6206   16.8561  -28.0391 C   0  0  0  0  0  0  0  0  0  0  0  0
   -1.1286   17.5099  -27.0020 C   0  0  0  0  0  0  0  0  0  0  0  0
    0.5552   17.4756  -28.7050 C   0  0  0  0  0  0  0  0  0  0  0  0
   -0.5677   14.9781  -29.4890 C   0  0  0  0  0  0  0  0  0  0  0  0
   -1.0353   13.6286  -29.7157 C   0  0  0  0  0  0  0  0  0  0  0  0
   -2.3193   15.2166  -27.9167 C   0  0  0  0  0  0  0  0  0  0  0  0
   -1.7896   16.9232  -25.8860 C   0  0  0  0  0  0  0  0  0  0  0  0
   -0.8558   18.9024  -26.6911 C   0  0  0  0  0  0  0  0  0  0  0  0
   -0.1348   19.5627  -27.7888 C   0  0  0  0  0  0  0  0  0  0  0  0
   -2.1676   13.1457  -28.9560 C   0  0  0  0  0  0  0  0  0  0  0  0
   -2.7755   13.9716  -28.1283 C   0  0  0  0  0  0  0  0  0  0  0  0
    0.6668   18.8221  -28.6115 C   0  0  0  0  0  0  0  0  0  0  0  0
   -1.4063   19.5413  -25.6544 C   0  0  0  0  0  0  0  0  0  0  0  0
   -2.2885   18.9422  -24.8401 C   0  0  0  0  0  0  0  0  0  0  0  0
    1.2834   16.8805  -29.7532 C   0  0  0  0  0  0  0  0  0  0  0  0
    1.5608   19.5286  -29.4094 C   0  0  0  0  0  0  0  0  0  0  0  0
    2.2685   17.4914  -30.3444 C   0  0  0  0  0  0  0  0  0  0  0  0
   -2.3626   17.5596  -24.8766 C   0  0  0  0  0  0  0  0  0  0  0  0
   -2.7828   19.5451  -23.6843 O   0  0  0  0  0  0  0  0  0  0  0  0
    3.1535   16.6929  -31.1804 C   0  0  0  0  0  0  0  0  0  0  0  0
   -2.4153   11.7967  -29.1116 C   0  0  0  0  0  0  0  0  0  0  0  0
   -2.8346   11.0617  -27.9546 C   0  0  0  0  0  0  0  0  0  0  0  0
   -3.2838   11.6499  -26.6874 C   0  0  0  0  0  0  0  0  0  0  0  0
   -1.5871   11.0380  -29.9938 C   0  0  0  0  0  0  0  0  0  0  0  0
   -2.9221    9.7717  -28.1619 C   0  0  0  0  0  0  0  0  0  0  0  0
    2.4345   18.8458  -30.2832 C   0  0  0  0  0  0  0  0  0  0  0  0
   -3.1526   10.6733  -25.6717 C   0  0  0  0  0  0  0  0  0  0  0  0
   -3.7076    8.9733  -27.1609 C   0  0  0  0  0  0  0  0  0  0  0  0
   -3.6640    9.4363  -26.1294 C   0  0  0  0  0  0  0  0  0  0  0  0
   -2.2466   19.1323  -22.5274 C   0  0  0  0  0  0  0  0  0  0  0  0
   -1.9535   17.7329  -22.2385 C   0  0  0  0  0  0  0  0  0  0  0  0
   -2.4355    8.9284  -29.2913 C   0  0  0  0  0  0  0  0  0  0  0  0
   -1.1508   17.4820  -20.9882 C   0  0  0  0  0  0  0  0  0  0  0  0
   -1.8285    9.6978  -30.2156 C   0  0  0  0  0  0  0  0  0  0  0  0
  1  2  2  3
  2  3  1  0
  2  4  1  0
  1  5  1  0
  5  6  2  0
  1  7  1  0
  3  8  1  0
  3  9  2  0
  9 10  1  0
  6 11  1  0
  7 12  1  0
 11 12  2  0
  4 13  1  0
 10 13  2  0
  9 14  1  0
 14 15  2  0
  4 16  2  0
 13 17  1  0
 16 18  1  0
  8 19  2  0
 15 19  1  0
 15 20  1  0
 18 21  1  0
 11 22  1  0
 22 23  1  0
 23 24  1  0
 22 25  2  0
 23 26  2  0
 17 27  1  0
 18 27  2  0
 24 28  1  0
 26 29  1  0
 28 30  1  0
 29 30  1  0
 20 31  1  0
 31 32  1  0
 26 33  1  0
 32 34  1  0
 25 35  1  0
 33 35  2  0
M  END
>  <ID>  (1) 
conformer_0

$$$$
