
     RDKit          3D

  9 10  0  0  0  0  0  0  0  0999 V2000
   -2.7266   19.3550  -24.4647 C   0  0  0  0  0  0  0  0  0  0  0  0
   -2.2245   19.0086  -25.6370 C   0  0  0  0  0  0  0  0  0  0  0  0
   -2.5034   18.9287  -23.4018 C   0  0  0  0  0  0  0  0  0  0  0  0
   -2.8222   19.2340  -22.0585 C   0  0  0  0  0  0  0  0  0  0  0  0
   -2.1591   18.6396  -20.8745 C   0  0  0  0  0  0  0  0  0  0  0  0
   -1.5747   17.7341  -23.5824 C   0  0  0  0  0  0  0  0  0  0  0  0
   -1.4700   17.7961  -25.3660 S   0  0  0  0  0  0  0  0  0  0  0  0
   -1.3437   17.5026  -21.1397 C   0  0  0  0  0  0  0  0  0  0  0  0
   -0.9429   17.0858  -22.3303 C   0  0  0  0  0  0  0  0  0  0  0  0
  1  2  2  0
  1  3  1  0
  3  4  1  0
  4  5  2  0
  3  6  2  0
  2  7  1  0
  6  7  1  0
  5  8  1  0
  6  9  1  0
  8  9  2  0
M  END
>  <ID>  (1) 
conformer_0

$$$$
