
     RDKit          3D

 28 29  0  0  0  0  0  0  0  0999 V2000
    8.2506  -40.2412    2.0223 C   0  0  0  0  0  0  0  0  0  0  0  0
    5.8789  -36.7367    1.9868 C   0  0  0  0  0  0  0  0  0  0  0  0
    7.0491  -37.3487   -1.6954 C   0  0  0  0  0  0  0  0  0  0  0  0
    8.8857  -38.7166   -0.2418 C   0  0  0  0  0  0  0  0  0  0  0  0
    4.6707  -39.0593   -1.4514 C   0  0  0  0  0  0  0  0  0  0  0  0
    9.9789  -38.3960    1.9017 C   0  0  0  0  0  0  0  0  0  0  0  0
    8.4587  -42.8306    3.6312 C   0  0  0  0  0  0  0  0  0  0  0  0
    4.1908  -37.8026    5.0245 C   0  0  0  0  0  0  0  0  0  0  0  0
    5.1722  -36.8036    4.3765 C   0  0  0  0  0  0  0  0  0  0  0  0
    4.7112  -36.7159    2.8823 C   0  0  0  0  0  0  0  0  0  0  0  0
    8.4691  -37.5443   -1.1274 C   0  0  0  0  0  0  0  0  0  0  0  0
    9.6718  -36.8739    1.7935 C   0  0  0  0  0  0  0  0  0  0  0  0
    8.2233  -44.0852    1.5511 C   0  0  0  0  0  0  0  0  0  0  0  0
    4.2070  -36.2652    6.7704 O   0  0  0  0  0  0  0  0  0  0  0  0
    5.8093  -38.0708   -1.0635 C   0  0  0  0  0  0  0  0  0  0  0  0
    3.2184  -36.6945    5.7034 C   0  0  0  0  0  0  0  0  0  0  0  0
    9.9818  -39.7568   -0.7096 C   0  0  0  0  0  0  0  0  0  0  0  0
    6.9137  -37.3150    1.0654 C   0  0  0  0  0  0  0  0  0  0  0  0
    6.2020  -40.0988    0.2992 C   0  0  0  0  0  0  0  0  0  0  0  0
    7.9947  -42.7408    2.2142 C   0  0  0  0  0  0  0  0  0  0  0  0
    4.6429  -37.6272    7.3911 C   0  0  0  0  0  0  0  0  0  0  0  0
    8.4248  -41.6129    1.4046 C   0  0  0  0  0  0  0  0  0  0  0  0
    4.5478  -38.6572    6.2034 C   0  0  0  0  0  0  0  0  0  0  0  0
    9.3775  -41.8427    4.0835 C   0  0  0  0  0  0  0  0  0  0  0  0
    8.2250  -36.5063    1.3251 C   0  0  0  0  0  0  0  0  0  0  0  0
    8.6970  -39.0343    1.2715 C   0  0  0  0  0  0  0  0  0  0  0  0
    6.3367  -38.5517    0.3403 C   0  0  0  0  0  0  0  0  0  0  0  0
    7.9580  -35.1982    1.3898 O   0  0  0  0  0  0  0  0  0  0  0  0
  1 22  2  3
  1 26  1  0
  2 10  1  0
  2 18  1  0
  3 11  1  0
  3 15  1  0
  4 11  1  0
  4 17  1  0
  4 26  1  0
  5 15  1  0
  6 12  1  0
  6 26  1  0
  7 20  1  0
  7 24  1  0
  8  9  1  0
  8 16  1  0
  8 23  1  0
  9 10  1  0
 12 25  2  0
 13 20  1  0
 14 16  1  0
 14 21  1  0
 15 27  1  0
 18 25  1  0
 18 27  1  0
 19 27  1  0
 20 22  1  0
 21 23  1  0
 25 28  1  0
M  END
>  <ID>  (1) 
conformer_0

$$$$
