
     RDKit          3D

 21 22  0  0  0  0  0  0  0  0999 V2000
    7.1751  -37.4982    0.5593 C   0  0  0  0  0  0  0  0  0  0  0  0
    5.0260  -37.0538    1.4192 C   0  0  0  0  0  0  0  0  0  0  0  0
    9.4090  -40.2316   -0.3573 O   0  0  0  0  0  0  0  0  0  0  0  0
    5.5946  -36.3790    2.5248 C   0  0  0  0  0  0  0  0  0  0  0  0
    5.4921  -37.7755   -1.0093 C   0  0  0  0  0  0  0  0  0  0  0  0
    7.8189  -36.8142    1.5450 C   0  0  0  0  0  0  0  0  0  0  0  0
    7.0125  -36.2557    2.5624 C   0  0  0  0  0  0  0  0  0  0  0  0
    5.8325  -37.4992    0.3917 C   0  0  0  0  0  0  0  0  0  0  0  0
    8.1674  -41.9427    4.9481 C   0  0  0  0  0  0  0  0  0  0  0  0
   10.1096  -36.6110    2.4966 C   0  0  0  0  0  0  0  0  0  0  0  0
    8.3947  -41.5590    3.4408 C   0  0  0  0  0  0  0  0  0  0  0  0
    4.7957  -39.0405   -1.3334 C   0  0  0  0  0  0  0  0  0  0  0  0
    8.4412  -41.2489    1.9285 C   0  0  0  0  0  0  0  0  0  0  0  0
    4.7734  -35.8457    3.4506 O   0  0  0  0  0  0  0  0  0  0  0  0
    7.9657  -38.2349   -0.5654 C   0  0  0  0  0  0  0  0  0  0  0  0
    6.8829  -37.8416   -1.7593 C   0  0  0  0  0  0  0  0  0  0  0  0
    9.2931  -36.7072    1.3053 C   0  0  0  0  0  0  0  0  0  0  0  0
    5.1929  -35.2569    4.6728 C   0  0  0  0  0  0  0  0  0  0  0  0
    8.4997  -43.0822    3.4812 C   0  0  0  0  0  0  0  0  0  0  0  0
    8.1795  -39.6851    0.0066 C   0  0  0  0  0  0  0  0  0  0  0  0
    7.9168  -39.8961    1.4956 C   0  0  0  0  0  0  0  0  0  0  0  0
  1  6  2  0
  1  8  1  0
  1 15  1  0
  2  4  1  0
  2  8  1  0
  3 20  1  0
  4  7  2  0
  4 14  1  0
  5  8  1  0
  5 12  1  0
  5 16  1  0
  6  7  1  0
  6 17  1  0
  9 11  1  0
 10 17  1  0
 11 13  1  0
 11 19  1  0
 13 21  1  0
 14 18  1  0
 15 16  1  0
 15 20  1  0
 20 21  1  0
M  END
>  <ID>  (1) 
conformer_0

$$$$
