
     RDKit          3D

 32 36  0  0  0  0  0  0  0  0999 V2000
    8.7465  -41.7117    2.1013 N   0  0  0  0  0  0  0  0  0  0  0  0
   -0.5612  -38.0600    1.3327 C   0  0  0  0  0  0  0  0  0  0  0  0
    6.0143  -36.6069   -0.5718 C   0  0  0  0  0  0  0  0  0  0  0  0
    9.1167  -42.5984    4.1701 O   0  0  0  0  0  0  0  0  0  0  0  0
    9.8828  -39.2342    2.8615 N   0  0  0  0  0  0  0  0  0  0  0  0
    0.5994  -38.3369    0.6321 C   0  0  0  0  0  0  0  0  0  0  0  0
    9.1912  -39.4321    1.7094 C   0  0  0  0  0  0  0  0  0  0  0  0
    8.6939  -40.6543    1.1696 C   0  0  0  0  0  0  0  0  0  0  0  0
    0.6401  -36.4801    2.6592 C   0  0  0  0  0  0  0  0  0  0  0  0
    9.2200  -41.6501    3.3697 C   0  0  0  0  0  0  0  0  0  0  0  0
    5.0024  -36.3110    0.4141 C   0  0  0  0  0  0  0  0  0  0  0  0
    7.9808  -35.6468    0.6675 C   0  0  0  0  0  0  0  0  0  0  0  0
    8.0235  -42.9202    1.5996 C   0  0  0  0  0  0  0  0  0  0  0  0
    8.8985  -38.1768    1.0978 C   0  0  0  0  0  0  0  0  0  0  0  0
    8.0183  -38.9077   -0.9648 C   0  0  0  0  0  0  0  0  0  0  0  0
    7.3997  -36.7000    0.0333 C   0  0  0  0  0  0  0  0  0  0  0  0
    9.1151  -35.8623    1.5439 C   0  0  0  0  0  0  0  0  0  0  0  0
   -0.5201  -37.1418    2.3606 C   0  0  0  0  0  0  0  0  0  0  0  0
    3.4179  -38.9798   -0.5512 C   0  0  0  0  0  0  0  0  0  0  0  0
    4.8198  -38.7834   -0.9208 C   0  0  0  0  0  0  0  0  0  0  0  0
    8.2164  -44.2685    2.2550 C   0  0  0  0  0  0  0  0  0  0  0  0
    1.7528  -36.7551    1.9670 C   0  0  0  0  0  0  0  0  0  0  0  0
    5.7685  -37.8076   -1.4285 C   0  0  0  0  0  0  0  0  0  0  0  0
   10.1842  -37.7738    2.9014 N   0  0  0  0  0  0  0  0  0  0  0  0
    2.9417  -37.8972    0.2648 C   0  0  0  0  0  0  0  0  0  0  0  0
    8.0658  -37.8940    0.0634 C   0  0  0  0  0  0  0  0  0  0  0  0
    1.7483  -37.6982    0.9389 C   0  0  0  0  0  0  0  0  0  0  0  0
    7.8776  -45.3236    1.2144 C   0  0  0  0  0  0  0  0  0  0  0  0
    9.4668  -37.1647    1.8532 C   0  0  0  0  0  0  0  0  0  0  0  0
    9.9917  -40.3668    3.7756 C   0  0  0  0  0  0  0  0  0  0  0  0
    3.8629  -36.9659    0.6635 N   0  0  0  0  0  0  0  0  0  0  0  0
    2.8524  -39.9987   -0.9981 O   0  0  0  0  0  0  0  0  0  0  0  0
  1  8  1  0
  1 10  1  0
  1 13  1  0
  2  6  2  0
  2 18  1  0
  3 11  1  0
  3 16  1  0
  3 23  1  0
  4 10  2  0
  5  7  1  0
  5 24  1  0
  5 30  1  0
  6 27  1  0
  7  8  1  0
  7 14  1  0
  9 18  2  0
  9 22  1  0
 10 30  1  0
 11 31  2  0
 12 16  2  0
 12 17  1  0
 13 21  1  0
 14 26  1  0
 14 29  2  0
 15 26  1  0
 16 26  1  0
 17 29  1  0
 19 20  1  0
 19 25  1  0
 19 32  2  0
 20 23  1  0
 21 28  1  0
 22 27  2  0
 24 29  1  0
 25 27  1  0
 25 31  1  0
M  END
>  <ID>  (1) 
conformer_0

$$$$
