
     RDKit          3D

 19 19  0  0  0  0  0  0  0  0999 V2000
    7.7949  -37.1076    0.0618 C   0  0  0  0  0  0  0  0  0  0  0  0
    8.3396  -36.8840    1.2449 C   0  0  0  0  0  0  0  0  0  0  0  0
    8.9773  -42.4255    3.4237 C   0  0  0  0  0  0  0  0  0  0  0  0
    5.0581  -39.4803   -1.6169 C   0  0  0  0  0  0  0  0  0  0  0  0
    8.3254  -39.4229    0.1877 C   0  0  0  0  0  0  0  0  0  0  0  0
    5.6839  -40.3553   -0.9231 N   0  0  0  0  0  0  0  0  0  0  0  0
    9.0550  -37.8920    1.9013 O   0  0  0  0  0  0  0  0  0  0  0  0
    8.0103  -42.8210    4.5234 C   0  0  0  0  0  0  0  0  0  0  0  0
    9.2932  -40.2819    2.2597 O   0  0  0  0  0  0  0  0  0  0  0  0
    8.4242  -34.5451    1.1331 O   0  0  0  0  0  0  0  0  0  0  0  0
    7.1411  -35.5221    2.6578 O   0  0  0  0  0  0  0  0  0  0  0  0
    7.0654  -38.1806   -1.8341 C   0  0  0  0  0  0  0  0  0  0  0  0
    8.3479  -41.3755    2.4514 C   0  0  0  0  0  0  0  0  0  0  0  0
    8.0387  -41.7962    5.5975 C   0  0  0  0  0  0  0  0  0  0  0  0
    7.7431  -38.3141   -0.4833 C   0  0  0  0  0  0  0  0  0  0  0  0
    8.0586  -35.5677    1.7912 C   0  0  0  0  0  0  0  0  0  0  0  0
    5.6401  -38.0486   -1.7209 C   0  0  0  0  0  0  0  0  0  0  0  0
    8.9050  -39.2156    1.4325 C   0  0  0  0  0  0  0  0  0  0  0  0
    4.1313  -39.7726   -2.3613 O   0  0  0  0  0  0  0  0  0  0  0  0
  1  2  2  0
  1 15  1  0
  2  7  1  0
  2 16  1  0
  3  8  1  0
  3 13  1  0
  4  6  1  0
  4 17  1  0
  4 19  2  0
  5 15  2  0
  5 18  1  0
  7 18  1  0
  8 14  1  0
  9 13  1  0
  9 18  1  0
 10 16  2  0
 11 16  1  0
 12 15  1  0
 12 17  1  0
M  END
>  <ID>  (1) 
conformer_0

$$$$
