
     RDKit          3D

 40 44  0  0  0  0  0  0  0  0999 V2000
    7.2478  -43.5420    2.2209 N   0  0  0  0  0  0  0  0  0  0  0  0
    5.1615  -37.6909    0.6415 C   0  0  0  0  0  0  0  0  0  0  0  0
    3.9894  -38.4166    0.2090 C   0  0  0  0  0  0  0  0  0  0  0  0
    7.2933  -43.0383    4.6827 C   0  0  0  0  0  0  0  0  0  0  0  0
    8.8596  -41.4457    5.5396 F   0  0  0  0  0  0  0  0  0  0  0  0
    2.9628  -36.2231    5.8295 C   0  0  0  0  0  0  0  0  0  0  0  0
    4.3090  -36.0204    6.1837 C   0  0  0  0  0  0  0  0  0  0  0  0
    2.6122  -36.4745    4.4911 C   0  0  0  0  0  0  0  0  0  0  0  0
    9.7430  -39.3771    1.5355 O   0  0  0  0  0  0  0  0  0  0  0  0
    9.3434  -34.6594    1.5745 C   0  0  0  0  0  0  0  0  0  0  0  0
    8.5908  -40.9398    0.3097 N   0  0  0  0  0  0  0  0  0  0  0  0
    8.0522  -41.6282    2.7390 C   0  0  0  0  0  0  0  0  0  0  0  0
    4.8019  -36.9507    1.7816 C   0  0  0  0  0  0  0  0  0  0  0  0
    6.3375  -37.8722   -0.1690 C   0  0  0  0  0  0  0  0  0  0  0  0
    9.2898  -39.6439    0.2753 C   0  0  0  0  0  0  0  0  0  0  0  0
    7.9338  -42.3489    5.7755 C   0  0  0  0  0  0  0  0  0  0  0  0
    8.1324  -41.7003    1.3701 N   0  0  0  0  0  0  0  0  0  0  0  0
    3.9385  -39.0760   -0.9857 C   0  0  0  0  0  0  0  0  0  0  0  0
    6.9736  -36.1074    1.9855 N   0  0  0  0  0  0  0  0  0  0  0  0
    7.5602  -42.9020    1.1178 C   0  0  0  0  0  0  0  0  0  0  0  0
    5.3238  -36.0362    5.1456 C   0  0  0  0  0  0  0  0  0  0  0  0
   10.4638  -39.8259   -0.8074 C   0  0  0  0  0  0  0  0  0  0  0  0
    9.6721  -33.5990    1.9994 N   0  0  0  0  0  0  0  0  0  0  0  0
    8.5772  -43.4542    6.2425 F   0  0  0  0  0  0  0  0  0  0  0  0
   11.9622  -32.8888    2.6783 N   0  0  0  0  0  0  0  0  0  0  0  0
    7.7065  -37.6246    0.2238 N   0  0  0  0  0  0  0  0  0  0  0  0
    7.8117  -36.5333    1.0730 C   0  0  0  0  0  0  0  0  0  0  0  0
    3.6303  -36.5721    3.5585 C   0  0  0  0  0  0  0  0  0  0  0  0
    5.7364  -36.3287    2.6326 C   0  0  0  0  0  0  0  0  0  0  0  0
    6.9101  -41.6503    6.4458 F   0  0  0  0  0  0  0  0  0  0  0  0
    5.0134  -39.0014   -1.8518 C   0  0  0  0  0  0  0  0  0  0  0  0
    4.9906  -36.2641    3.8923 C   0  0  0  0  0  0  0  0  0  0  0  0
   11.0496  -33.6015    1.8534 C   0  0  0  0  0  0  0  0  0  0  0  0
    7.5657  -42.7064    3.2484 N   0  0  0  0  0  0  0  0  0  0  0  0
    6.2001  -38.3097   -1.4371 C   0  0  0  0  0  0  0  0  0  0  0  0
   11.0651  -40.9356   -1.1635 C   0  0  0  0  0  0  0  0  0  0  0  0
    9.1393  -35.6929    0.9105 C   0  0  0  0  0  0  0  0  0  0  0  0
    3.5389  -36.8639    2.2858 N   0  0  0  0  0  0  0  0  0  0  0  0
    6.4081  -43.7891    4.9993 O   0  0  0  0  0  0  0  0  0  0  0  0
    8.7648  -38.3329   -0.4286 C   0  0  0  0  0  0  0  0  0  0  0  0
  1 20  1  0
  1 34  1  0
  2  3  1  0
  2 13  2  0
  2 14  1  0
  3 18  2  0
  4 16  1  0
  4 34  1  0
  4 39  2  0
  5 16  1  0
  6  7  2  0
  6  8  1  0
  7 21  1  0
  8 28  2  0
  9 15  1  0
 10 23  1  0
 10 37  1  0
 11 15  1  0
 11 17  1  0
 12 17  1  0
 12 34  1  0
 13 29  1  0
 13 38  1  0
 14 26  1  0
 14 35  1  0
 15 22  1  0
 15 40  1  0
 16 24  1  0
 16 30  1  0
 17 20  1  0
 18 31  1  0
 19 27  1  0
 19 29  1  0
 21 32  2  0
 22 36  2  0
 23 33  1  0
 25 33  1  0
 26 27  1  0
 26 40  1  0
 27 37  2  3
 28 32  1  0
 28 38  1  0
 29 32  1  0
 31 35  2  0
M  END
>  <ID>  (1) 
conformer_0

$$$$
