
     RDKit          3D

 21 22  0  0  0  0  0  0  0  0999 V2000
    5.7177  -38.1147   -1.6856 C   0  0  0  0  0  0  0  0  0  0  0  0
    7.9240  -36.4563    1.1424 C   0  0  0  0  0  0  0  0  0  0  0  0
    7.8461  -40.2053    0.8200 C   0  0  0  0  0  0  0  0  0  0  0  0
    4.2353  -37.4318    0.2424 C   0  0  0  0  0  0  0  0  0  0  0  0
    5.3738  -36.4175    0.2600 C   0  0  0  0  0  0  0  0  0  0  0  0
    8.2907  -37.9661   -1.2905 C   0  0  0  0  0  0  0  0  0  0  0  0
    7.4371  -41.4695    1.4071 C   0  0  0  0  0  0  0  0  0  0  0  0
   10.5409  -40.5806    4.4075 C   0  0  0  0  0  0  0  0  0  0  0  0
    8.7738  -37.6152    1.5063 C   0  0  0  0  0  0  0  0  0  0  0  0
    9.6873  -40.8774    3.1619 C   0  0  0  0  0  0  0  0  0  0  0  0
    8.4612  -42.4495    1.7941 O   0  0  0  0  0  0  0  0  0  0  0  0
    8.3910  -35.1118    1.1298 C   0  0  0  0  0  0  0  0  0  0  0  0
    6.3990  -38.0872    0.6813 C   0  0  0  0  0  0  0  0  0  0  0  0
    4.4619  -38.5740   -0.7896 C   0  0  0  0  0  0  0  0  0  0  0  0
    8.6135  -39.1050    1.5960 C   0  0  0  0  0  0  0  0  0  0  0  0
   10.8479  -37.6716    3.3364 C   0  0  0  0  0  0  0  0  0  0  0  0
    8.8331  -42.0891    3.3015 C   0  0  0  0  0  0  0  0  0  0  0  0
    9.8018  -39.8554    2.1468 C   0  0  0  0  0  0  0  0  0  0  0  0
    6.4628  -36.7072    1.1304 C   0  0  0  0  0  0  0  0  0  0  0  0
   10.0887  -37.1334    2.1389 C   0  0  0  0  0  0  0  0  0  0  0  0
    6.9133  -38.2165   -0.7563 C   0  0  0  0  0  0  0  0  0  0  0  0
  1 14  1  0
  1 21  1  0
  2  9  1  0
  2 12  1  0
  2 19  1  0
  3  7  1  0
  3 15  1  0
  4  5  1  0
  4 14  1  0
  5 19  1  0
  6 21  1  0
  7 11  1  0
  8 10  1  0
  9 15  1  0
  9 20  1  0
 10 17  1  0
 10 18  1  0
 11 17  1  0
 13 19  1  0
 13 21  1  0
 15 18  1  0
 16 20  1  0
M  END
>  <ID>  (1) 
conformer_0

$$$$
