
     RDKit          3D

 25 28  0  0  0  0  0  0  0  0999 V2000
    8.0681  -37.8550    0.7091 C   0  0  0  0  0  0  0  0  0  0  0  0
    7.1384  -35.9500   -0.2746 C   0  0  0  0  0  0  0  0  0  0  0  0
    2.8926  -39.9241   -1.4953 C   0  0  0  0  0  0  0  0  0  0  0  0
    6.0400  -38.0774   -0.6206 C   0  0  0  0  0  0  0  0  0  0  0  0
    4.3810  -39.4640    0.5207 C   0  0  0  0  0  0  0  0  0  0  0  0
    8.9399  -35.6775    1.3519 C   0  0  0  0  0  0  0  0  0  0  0  0
    8.5192  -40.1556    0.9447 C   0  0  0  0  0  0  0  0  0  0  0  0
    7.9051  -42.5494    1.6328 C   0  0  0  0  0  0  0  0  0  0  0  0
    7.2434  -39.9785    0.1879 O   0  0  0  0  0  0  0  0  0  0  0  0
    8.5939  -34.4345    1.4036 O   0  0  0  0  0  0  0  0  0  0  0  0
    8.7465  -41.1039    3.3035 C   0  0  0  0  0  0  0  0  0  0  0  0
    2.3751  -38.7600   -0.6404 C   0  0  0  0  0  0  0  0  0  0  0  0
    9.5620  -40.5495    0.1346 O   0  0  0  0  0  0  0  0  0  0  0  0
    3.1792  -38.4186    0.6380 C   0  0  0  0  0  0  0  0  0  0  0  0
    7.0617  -38.6316    0.0384 C   0  0  0  0  0  0  0  0  0  0  0  0
    7.7331  -43.5270    2.5749 C   0  0  0  0  0  0  0  0  0  0  0  0
    8.3932  -41.3290    2.0148 C   0  0  0  0  0  0  0  0  0  0  0  0
    9.7930  -36.3279    2.0967 O   0  0  0  0  0  0  0  0  0  0  0  0
    4.3598  -39.5785   -1.9245 C   0  0  0  0  0  0  0  0  0  0  0  0
    8.7767  -38.7515    1.4070 N   0  0  0  0  0  0  0  0  0  0  0  0
    4.9612  -38.9646   -0.7904 N   0  0  0  0  0  0  0  0  0  0  0  0
    8.0808  -43.3149    3.9095 C   0  0  0  0  0  0  0  0  0  0  0  0
    8.5899  -42.0664    4.2709 C   0  0  0  0  0  0  0  0  0  0  0  0
    6.1363  -36.7332   -0.8979 C   0  0  0  0  0  0  0  0  0  0  0  0
    8.0512  -36.4918    0.5683 C   0  0  0  0  0  0  0  0  0  0  0  0
  1 15  2  0
  1 20  1  0
  1 25  1  0
  2 24  1  0
  2 25  2  0
  3 12  1  0
  3 19  1  0
  4 15  1  0
  4 21  1  0
  4 24  1  0
  5 14  1  0
  5 21  1  0
  6 10  2  0
  6 18  1  0
  6 25  1  0
  7  9  1  0
  7 13  1  0
  7 17  1  0
  7 20  1  0
  8 16  2  0
  8 17  1  0
  9 15  1  0
 11 17  2  0
 11 23  1  0
 12 14  1  0
 16 22  1  0
 19 21  1  0
 22 23  2  0
M  END
>  <ID>  (1) 
conformer_0

$$$$
