
     RDKit          3D

 36 40  0  0  0  0  0  0  0  0999 V2000
    5.8794  -37.3780   -0.6077 C   0  0  0  0  0  0  0  0  0  0  0  0
    6.8019  -43.7412    3.7376 C   0  0  0  0  0  0  0  0  0  0  0  0
    6.3642  -43.2871    2.5373 C   0  0  0  0  0  0  0  0  0  0  0  0
    8.0764  -43.3813    5.6434 F   0  0  0  0  0  0  0  0  0  0  0  0
    7.9465  -41.6480    4.0851 C   0  0  0  0  0  0  0  0  0  0  0  0
    4.2428  -39.0659    2.9682 N   0  0  0  0  0  0  0  0  0  0  0  0
    6.6765  -36.9490   -1.8230 C   0  0  0  0  0  0  0  0  0  0  0  0
    5.1351  -36.9272    3.0965 C   0  0  0  0  0  0  0  0  0  0  0  0
   11.4066  -39.9503    0.4384 C   0  0  0  0  0  0  0  0  0  0  0  0
    5.2260  -39.5873    0.5647 N   0  0  0  0  0  0  0  0  0  0  0  0
    4.8688  -35.3351    4.8492 C   0  0  0  0  0  0  0  0  0  0  0  0
    6.3499  -41.7080    0.7090 O   0  0  0  0  0  0  0  0  0  0  0  0
    9.4780  -37.5305    2.2545 O   0  0  0  0  0  0  0  0  0  0  0  0
    8.2765  -35.5686    1.2831 C   0  0  0  0  0  0  0  0  0  0  0  0
    5.0094  -38.8192    1.7541 C   0  0  0  0  0  0  0  0  0  0  0  0
    5.1255  -41.0234    0.4624 C   0  0  0  0  0  0  0  0  0  0  0  0
    3.3837  -38.4095   -0.6047 O   0  0  0  0  0  1  0  0  0  0  0  0
   10.5249  -40.2781   -0.6100 C   0  0  0  0  0  0  0  0  0  0  0  0
    3.6501  -37.4066    4.8388 N   0  0  0  0  0  0  0  0  0  0  0  0
    7.0968  -35.8611    0.7711 C   0  0  0  0  0  0  0  0  0  0  0  0
    9.2076  -36.1936    2.0882 N   0  0  0  0  0  0  0  0  0  0  0  0
    3.8645  -36.1621    5.4177 C   0  0  0  0  0  0  0  0  0  0  0  0
    5.1295  -39.2547   -2.1022 O   0  0  0  0  0  1  0  0  0  0  0  0
   11.0081  -38.9931    1.3002 C   0  0  0  0  0  0  0  0  0  0  0  0
    4.8734  -38.7037   -0.8070 S   0  0  0  0  0  4  0  0  0  0  0  0
    8.7831  -39.0048    0.4074 C   0  0  0  0  0  0  0  0  0  0  0  0
    7.4386  -41.1660    2.8676 C   0  0  0  0  0  0  0  0  0  0  0  0
    6.6920  -42.0512    2.0805 C   0  0  0  0  0  0  0  0  0  0  0  0
    6.1770  -36.9371    0.6884 C   0  0  0  0  0  0  0  0  0  0  0  0
    4.3076  -37.8266    3.7396 C   0  0  0  0  0  0  0  0  0  0  0  0
    7.5841  -42.8856    4.5010 C   0  0  0  0  0  0  0  0  0  0  0  0
    5.5147  -37.4847    1.8348 C   0  0  0  0  0  0  0  0  0  0  0  0
    5.4289  -35.7804    3.7000 N   0  0  0  0  0  0  0  0  0  0  0  0
    9.1827  -39.8361   -0.6357 C   0  0  0  0  0  0  0  0  0  0  0  0
    9.7308  -38.5094    1.2949 C   0  0  0  0  0  0  0  0  0  0  0  0
   11.0207  -40.8322   -1.7185 F   0  0  0  0  0  0  0  0  0  0  0  0
  1  7  1  0
  1 25  1  0
  1 29  2  0
  2  3  2  0
  2 31  1  0
  3 28  1  0
  4 31  1  0
  5 27  1  0
  5 31  2  0
  6 15  1  0
  6 30  1  0
  8 30  2  0
  8 32  1  0
  8 33  1  0
  9 18  2  0
  9 24  1  0
 10 15  1  0
 10 16  1  0
 10 25  1  0
 11 22  1  0
 11 33  2  0
 12 16  1  0
 12 28  1  0
 13 21  1  0
 13 35  1  0
 14 20  2  3
 14 21  1  0
 15 32  2  0
 17 25  1  0
 18 34  1  0
 18 36  1  0
 19 22  2  0
 19 30  1  0
 20 29  1  0
 23 25  1  0
 24 35  2  0
 26 34  2  0
 26 35  1  0
 27 28  2  0
 29 32  1  0
M  END
>  <ID>  (1) 
conformer_0

$$$$
