
     RDKit          3D

 27 30  0  0  0  0  0  0  0  0999 V2000
    7.4140  -41.6376    2.9251 C   0  0  0  0  0  0  0  0  0  0  0  0
    9.6976  -40.0705   -0.6234 O   0  0  0  0  0  0  0  0  0  0  0  0
    7.1899  -38.2207   -1.4105 C   0  0  0  0  0  0  0  0  0  0  0  0
    6.8548  -37.1132    0.6622 C   0  0  0  0  0  0  0  0  0  0  0  0
    7.1788  -40.9856    1.6286 C   0  0  0  0  0  0  0  0  0  0  0  0
    8.5382  -40.9969    0.8737 C   0  0  0  0  0  0  0  0  0  0  0  0
    5.4711  -37.2222    0.5164 C   0  0  0  0  0  0  0  0  0  0  0  0
    9.0534  -37.9523    0.3304 C   0  0  0  0  0  0  0  0  0  0  0  0
    6.6367  -36.4809    2.9345 C   0  0  0  0  0  0  0  0  0  0  0  0
    7.6922  -37.7292   -0.2108 C   0  0  0  0  0  0  0  0  0  0  0  0
    7.4895  -43.0062    2.7278 C   0  0  0  0  0  0  0  0  0  0  0  0
    5.8250  -37.4822    3.1591 F   0  0  0  0  0  0  0  0  0  0  0  0
    4.9532  -37.8389   -0.6223 C   0  0  0  0  0  0  0  0  0  0  0  0
    6.5628  -35.3774    3.6786 F   0  0  0  0  0  0  0  0  0  0  0  0
    9.8417  -36.9123    2.5788 O   0  0  0  0  0  0  0  0  0  0  0  0
    9.2105  -39.5756    0.6507 C   0  0  0  0  0  0  0  0  0  0  0  0
    7.6243  -36.4089    1.7653 C   0  0  0  0  0  0  0  0  0  0  0  0
    7.9616  -43.3081    5.0090 C   0  0  0  0  0  0  0  0  0  0  0  0
    7.8589  -35.0467    1.3654 O   0  0  0  0  0  0  0  0  0  0  0  0
    9.0042  -37.0761    1.5928 C   0  0  0  0  0  0  0  0  0  0  0  0
    7.8999  -41.9537    5.2182 C   0  0  0  0  0  0  0  0  0  0  0  0
    9.7099  -39.5173    1.9538 O   0  0  0  0  0  0  0  0  0  0  0  0
    7.7904  -43.8604    3.7376 C   0  0  0  0  0  0  0  0  0  0  0  0
    5.8125  -38.2801   -1.6130 C   0  0  0  0  0  0  0  0  0  0  0  0
    7.5882  -41.0996    4.1630 C   0  0  0  0  0  0  0  0  0  0  0  0
    6.4826  -42.1129    0.7683 N   0  0  0  0  0  0  0  0  0  0  0  0
    7.1630  -43.3613    1.3917 C   0  0  0  0  0  0  0  0  0  0  0  0
  1  5  1  0
  1 11  1  0
  1 25  2  0
  2 16  1  0
  3 10  2  0
  3 24  1  0
  4  7  2  0
  4 10  1  0
  4 17  1  0
  5  6  1  0
  5 26  1  0
  6 16  1  0
  7 13  1  0
  8 10  1  0
  8 16  1  0
  8 20  1  0
  9 12  1  0
  9 14  1  0
  9 17  1  0
 11 23  2  0
 11 27  1  0
 13 24  2  0
 15 20  1  0
 16 22  1  0
 17 19  1  0
 17 20  1  0
 18 21  2  0
 18 23  1  0
 21 25  1  0
 26 27  1  0
M  END
>  <ID>  (1) 
conformer_0

$$$$
