
     RDKit          3D

 27 28  0  0  0  0  0  0  0  0999 V2000
    9.4599  -39.0220    1.2774 C   0  0  0  0  0  0  0  0  0  0  0  0
    7.3562  -35.4559    1.8230 O   0  0  0  0  0  0  0  0  0  0  0  0
    4.6894  -36.4417    1.5515 C   0  0  0  0  0  0  0  0  0  0  0  0
    6.5315  -43.0602    4.7528 C   0  0  0  0  0  0  0  0  0  0  0  0
    2.4204  -36.8058    3.1471 C   0  0  0  0  0  0  0  0  0  0  0  0
    7.6896  -37.9362   -0.6774 C   0  0  0  0  0  0  0  0  0  0  0  0
    3.7064  -37.1020    3.7650 C   0  0  0  0  0  0  0  0  0  0  0  0
    6.8166  -37.2491   -1.6538 C   0  0  0  0  0  0  0  0  0  0  0  0
    8.4755  -39.8143    0.5740 C   0  0  0  0  0  0  0  0  0  0  0  0
    8.4058  -41.1948    0.8703 C   0  0  0  0  0  0  0  0  0  0  0  0
    2.3031  -37.3469    1.7555 C   0  0  0  0  0  0  0  0  0  0  0  0
    5.8596  -36.7980    0.7415 O   0  0  0  0  0  0  0  0  0  0  0  0
    8.2274  -37.0667    0.3534 C   0  0  0  0  0  0  0  0  0  0  0  0
    9.1254  -37.6432    1.3202 C   0  0  0  0  0  0  0  0  0  0  0  0
    3.4952  -37.0444    0.8576 C   0  0  0  0  0  0  0  0  0  0  0  0
    8.0102  -42.9281    2.5194 C   0  0  0  0  0  0  0  0  0  0  0  0
    3.6749  -37.7098    4.8813 O   0  0  0  0  0  0  0  0  0  0  0  0
    1.4797  -36.2694    4.1551 C   0  0  0  0  0  0  0  0  0  0  0  0
    8.3103  -41.4123    2.3495 C   0  0  0  0  0  0  0  0  0  0  0  0
    7.1096  -36.3556    0.9902 C   0  0  0  0  0  0  0  0  0  0  0  0
    7.3532  -39.2160   -0.1022 C   0  0  0  0  0  0  0  0  0  0  0  0
   10.8583  -37.2466    2.9477 F   0  0  0  0  0  0  0  0  0  0  0  0
   10.2180  -35.6418    1.3077 F   0  0  0  0  0  0  0  0  0  0  0  0
    4.9320  -36.8280    2.9875 C   0  0  0  0  0  0  0  0  0  0  0  0
    8.6838  -43.3130    3.7139 O   0  0  0  0  0  0  0  0  0  0  0  0
    8.0127  -42.8001    4.9251 C   0  0  0  0  0  0  0  0  0  0  0  0
   10.0026  -36.7049    2.0383 C   0  0  0  0  0  0  0  0  0  0  0  0
  1  9  1  0
  1 14  1  0
  2 20  2  0
  3 12  1  0
  3 15  1  0
  3 24  1  0
  4 26  1  0
  5  7  1  0
  5 11  1  0
  5 18  1  0
  6  8  1  0
  6 13  1  0
  6 21  1  0
  7 17  2  0
  7 24  1  0
  9 10  1  0
  9 21  1  0
 10 19  1  0
 11 15  1  0
 12 20  1  0
 13 14  1  0
 13 20  1  0
 14 27  1  0
 16 19  1  0
 16 25  1  0
 22 27  1  0
 23 27  1  0
 25 26  1  0
M  END
>  <ID>  (1) 
conformer_0

$$$$
