
     RDKit          3D

 23 23  0  0  0  0  0  0  0  0999 V2000
    6.4151  -35.7790    2.6807 O   0  0  0  0  0  0  0  0  0  0  0  0
    5.5538  -37.5449    3.9152 O   0  0  0  0  0  0  0  0  0  0  0  0
    7.7768  -43.1032    4.2184 C   0  0  0  0  0  0  0  0  0  0  0  0
    8.0946  -44.0051    3.2271 F   0  0  0  0  0  0  0  0  0  0  0  0
    6.7301  -37.6068   -1.6952 C   0  0  0  0  0  0  0  0  0  0  0  0
    8.5847  -43.2644    5.2719 F   0  0  0  0  0  0  0  0  0  0  0  0
    8.3321  -39.8516    2.3329 O   0  0  0  0  0  0  0  0  0  0  0  0
    8.1740  -41.1950    2.5278 C   0  0  0  0  0  0  0  0  0  0  0  0
    5.4630  -38.4448   -1.5972 C   0  0  0  0  0  0  0  0  0  0  0  0
    8.6687  -40.8029    0.3422 C   0  0  0  0  0  0  0  0  0  0  0  0
    7.7747  -41.7604    3.7039 O   0  0  0  0  0  0  0  0  0  0  0  0
    6.3922  -37.1730    0.7289 C   0  0  0  0  0  0  0  0  0  0  0  0
    7.1065  -36.6971    1.9563 C   0  0  0  0  0  0  0  0  0  0  0  0
    8.4765  -36.1083    1.5717 C   0  0  0  0  0  0  0  0  0  0  0  0
    5.2850  -39.5447   -0.5840 C   0  0  0  0  0  0  0  0  0  0  0  0
    8.5337  -39.6069    0.8485 N   0  0  0  0  0  0  0  0  0  0  0  0
    7.3460  -37.4952   -0.3935 C   0  0  0  0  0  0  0  0  0  0  0  0
    8.5402  -38.3694   -0.0615 C   0  0  0  0  0  0  0  0  0  0  0  0
    6.5078  -43.4302    4.6980 F   0  0  0  0  0  0  0  0  0  0  0  0
    9.5735  -36.7762    1.8470 O   0  0  0  0  0  0  0  0  0  0  0  0
    8.4734  -34.9295    1.0897 F   0  0  0  0  0  0  0  0  0  0  0  0
    8.4218  -41.7371    1.2733 C   0  0  0  0  0  0  0  0  0  0  0  0
    5.7385  -36.2938    3.7104 C   0  0  0  0  0  0  0  0  0  0  0  0
  1 13  1  0
  1 23  1  0
  2 23  2  0
  3  4  1  0
  3  6  1  0
  3 11  1  0
  3 19  1  0
  5  9  1  0
  5 17  1  0
  7  8  1  0
  7 16  1  0
  8 11  1  0
  8 22  1  0
  9 15  1  0
 10 16  1  0
 10 22  1  0
 12 13  1  0
 12 17  1  0
 13 14  1  0
 14 20  1  0
 14 21  1  0
 16 18  1  0
 17 18  1  0
M  END
>  <ID>  (1) 
conformer_0

$$$$
