
     RDKit          3D

 30 31  0  0  0  0  0  0  0  0999 V2000
    9.3845  -38.2223    1.4038 N   0  0  0  0  0  0  0  0  0  0  0  0
    8.1641  -43.2445    1.5986 C   0  0  0  0  0  0  0  0  0  0  0  0
    3.5630  -40.2754   -1.8079 C   0  0  0  0  0  0  0  0  0  0  0  0
    9.4865  -35.7698    1.5324 F   0  0  0  0  0  0  0  0  0  0  0  0
    8.1375  -35.6433    1.0456 C   0  0  0  0  0  0  0  0  0  0  0  0
    7.4801  -36.6142    0.4379 C   0  0  0  0  0  0  0  0  0  0  0  0
    7.6293  -34.5136    1.4470 F   0  0  0  0  0  0  0  0  0  0  0  0
   10.8433  -37.0756    2.9326 F   0  0  0  0  0  0  0  0  0  0  0  0
    6.2280  -43.7108    5.3155 O   0  0  0  0  0  1  0  0  0  0  0  0
    8.0896  -41.4419    2.9938 C   0  0  0  0  0  0  0  0  0  0  0  0
    8.9177  -41.1088    0.5530 C   0  0  0  0  0  0  0  0  0  0  0  0
    5.7410  -41.1969    5.3654 C   0  0  0  0  0  0  0  0  0  0  0  0
    8.0807  -42.0688    6.0201 O   0  0  0  0  0  1  0  0  0  0  0  0
   10.1459  -41.4488   -0.1863 Cl  0  0  0  0  0  0  0  0  0  0  0  0
    9.8488  -37.1250    1.9038 C   0  0  0  0  0  0  0  0  0  0  0  0
    6.9298  -42.4478    5.2308 S   0  0  0  0  0  4  0  0  0  0  0  0
    8.5950  -38.7838    0.6292 C   0  0  0  0  0  0  0  0  0  0  0  0
    5.8650  -37.3600   -1.0335 C   0  0  0  0  0  0  0  0  0  0  0  0
    8.4264  -41.8823    1.7098 C   0  0  0  0  0  0  0  0  0  0  0  0
    6.6929  -37.3788   -2.5002 Cl  0  0  0  0  0  0  0  0  0  0  0  0
    7.5373  -42.5080    3.6453 C   0  0  0  0  0  0  0  0  0  0  0  0
    6.2522  -36.4081   -0.1489 N   0  0  0  0  0  0  0  0  0  0  0  0
    7.9717  -37.8000    0.3307 C   0  0  0  0  0  0  0  0  0  0  0  0
    4.7416  -38.3632   -0.8651 C   0  0  0  0  0  0  0  0  0  0  0  0
    4.6290  -39.4148   -1.8342 C   0  0  0  0  0  0  0  0  0  0  0  0
    7.5958  -43.7076    2.8567 N   0  0  0  0  0  0  0  0  0  0  0  0
    2.7266  -39.2123    0.1683 C   0  0  0  0  0  0  0  0  0  0  0  0
    8.2614  -40.0175    0.1870 N   0  0  0  0  0  0  0  0  0  0  0  0
    3.7899  -38.3119    0.1550 C   0  0  0  0  0  0  0  0  0  0  0  0
    2.5975  -40.1836   -0.8136 C   0  0  0  0  0  0  0  0  0  0  0  0
  1 15  2  3
  1 17  1  0
  2 19  1  0
  2 26  1  0
  3 25  2  0
  3 30  1  0
  4  5  1  0
  5  6  1  0
  5  7  1  0
  6 22  1  0
  6 23  2  0
  8 15  1  0
  9 16  1  0
 10 19  1  0
 10 21  1  0
 11 14  1  0
 11 19  1  0
 11 28  1  0
 12 16  1  0
 13 16  1  0
 16 21  1  0
 17 23  2  0
 17 28  1  0
 18 20  1  0
 18 22  1  0
 18 24  2  3
 21 26  1  0
 24 25  1  0
 24 29  1  0
 27 29  1  0
 27 30  2  0
M  END
>  <ID>  (1) 
conformer_0

$$$$
