
     RDKit          3D

 31 34  0  0  0  0  0  0  0  0999 V2000
    7.9168  -35.9510    0.2134 C   0  0  0  0  0  0  0  0  0  0  0  0
    5.7689  -36.6774    1.0580 C   0  0  0  0  0  0  0  0  0  0  0  0
    7.2459  -35.3995    2.4644 C   0  0  0  0  0  0  0  0  0  0  0  0
    5.3782  -36.0725    4.6611 C   0  0  0  0  0  0  0  0  0  0  0  0
    7.7962  -38.6607   -1.0619 C   0  0  0  0  0  0  0  0  0  0  0  0
    8.6126  -42.0519    3.1922 C   0  0  0  0  0  0  0  0  0  0  0  0
    6.7610  -36.6768    0.0384 C   0  0  0  0  0  0  0  0  0  0  0  0
    6.8291  -35.2631    7.4261 O   0  0  0  0  0  0  0  0  0  0  0  0
    5.1163  -33.8113    7.6722 C   0  0  0  0  0  0  0  0  0  0  0  0
    5.9623  -33.7103    8.8413 C   0  0  0  0  0  0  0  0  0  0  0  0
    8.5672  -42.7065    4.5062 C   0  0  0  0  0  0  0  0  0  0  0  0
    5.1131  -35.8917    3.2974 O   0  0  0  0  0  0  0  0  0  0  0  0
    5.5100  -37.2399    5.0143 O   0  0  0  0  0  0  0  0  0  0  0  0
    8.1809  -35.3161    1.4012 C   0  0  0  0  0  0  0  0  0  0  0  0
    7.3482  -43.7109    1.6642 C   0  0  0  0  0  0  0  0  0  0  0  0
    5.6747  -34.7390    6.8323 C   0  0  0  0  0  0  0  0  0  0  0  0
    4.9067  -39.1975   -1.9922 O   0  0  0  0  0  0  0  0  0  0  0  0
    6.7806  -40.5859    0.5820 N   0  0  0  0  0  0  0  0  0  0  0  0
    6.9833  -34.6157    8.7184 C   0  0  0  0  0  0  0  0  0  0  0  0
    6.7547  -37.5186   -1.1680 C   0  0  0  0  0  0  0  0  0  0  0  0
    8.8812  -40.4566    1.6352 C   0  0  0  0  0  0  0  0  0  0  0  0
    7.7217  -41.2573    1.2671 C   0  0  0  0  0  0  0  0  0  0  0  0
    9.5462  -39.7394    0.5099 C   0  0  0  0  0  0  0  0  0  0  0  0
    4.1174  -39.7095   -0.8699 C   0  0  0  0  0  0  0  0  0  0  0  0
    5.2732  -35.0004    5.4943 N   0  0  0  0  0  0  0  0  0  0  0  0
    7.7077  -42.3487    2.1232 C   0  0  0  0  0  0  0  0  0  0  0  0
    6.0209  -36.0281    2.2686 C   0  0  0  0  0  0  0  0  0  0  0  0
    7.0245  -39.9132   -0.7116 C   0  0  0  0  0  0  0  0  0  0  0  0
    9.0515  -38.5074   -0.2579 C   0  0  0  0  0  0  0  0  0  0  0  0
    9.2384  -40.8674    2.8840 N   0  0  0  0  0  0  0  0  0  0  0  0
    5.6526  -37.9659   -1.9331 C   0  0  0  0  0  0  0  0  0  0  0  0
  1  7  2  0
  1 14  1  0
  2  7  1  0
  2 27  2  0
  3 14  2  0
  3 27  1  0
  4 12  1  0
  4 13  2  0
  4 25  1  0
  5 20  1  0
  5 28  1  0
  5 29  1  0
  6 11  1  0
  6 26  1  0
  6 30  1  0
  7 20  1  0
  8 16  1  0
  8 19  1  0
  9 10  1  0
  9 16  1  0
 10 19  1  0
 12 27  1  0
 15 26  1  0
 16 25  1  0
 17 24  1  0
 17 31  1  0
 18 22  1  0
 18 28  1  0
 20 31  1  0
 21 22  1  0
 21 23  1  0
 21 30  1  0
 22 26  1  0
 23 29  1  0
M  END
>  <ID>  (1) 
conformer_0

$$$$
