
     RDKit          3D

 24 25  0  0  0  0  0  0  0  0999 V2000
    4.9942  -39.7729   -0.2292 C   0  0  0  0  0  0  0  0  0  0  0  0
   10.1297  -39.5027    2.2076 O   0  0  0  0  0  0  0  0  0  0  0  0
    5.4968  -36.7888    0.6201 O   0  0  0  0  0  0  0  0  0  0  0  0
    5.9586  -38.8057   -0.8364 C   0  0  0  0  0  0  0  0  0  0  0  0
    6.4883  -37.6945    0.0478 C   0  0  0  0  0  0  0  0  0  0  0  0
    8.3577  -36.2954    1.3320 S   0  0  0  0  0  4  0  0  0  0  0  0
    9.3114  -40.1931    1.3664 C   0  0  0  0  0  0  0  0  0  0  0  0
    8.4239  -35.1501    0.4640 O   0  0  0  0  0  0  0  0  0  0  0  0
    4.9191  -36.0090    2.8984 C   0  0  0  0  0  0  0  0  0  0  0  0
    7.8898  -37.6166    0.2645 C   0  0  0  0  0  0  0  0  0  0  0  0
    8.6524  -41.3386    1.9502 C   0  0  0  0  0  0  0  0  0  0  0  0
    5.6337  -38.1595   -2.1539 C   0  0  0  0  0  0  0  0  0  0  0  0
    4.7974  -37.1515    1.9117 C   0  0  0  0  0  0  0  0  0  0  0  0
    7.6484  -43.5693    3.2515 C   0  0  0  0  0  0  0  0  0  0  0  0
    8.2431  -42.4732    5.4742 C   0  0  0  0  0  0  0  0  0  0  0  0
    7.2302  -35.9590    2.3820 O   0  0  0  0  0  0  0  0  0  0  0  0
    8.2564  -42.5271    3.9366 C   0  0  0  0  0  0  0  0  0  0  0  0
    6.3115  -36.1041    3.4695 C   0  0  0  0  0  0  0  0  0  0  0  0
    7.9272  -42.2887    1.2372 C   0  0  0  0  0  0  0  0  0  0  0  0
    8.7214  -38.5121   -0.2882 C   0  0  0  0  0  0  0  0  0  0  0  0
    9.4635  -36.7181    2.1302 O   0  0  0  0  0  0  0  0  0  0  0  0
    9.1606  -39.7199    0.0805 C   0  0  0  0  0  0  0  0  0  0  0  0
    8.7294  -41.4563    3.3060 C   0  0  0  0  0  0  0  0  0  0  0  0
    7.4202  -43.3890    1.8649 N   0  0  0  0  0  0  0  0  0  0  0  0
  1  4  1  0
  2  7  1  0
  3  5  1  0
  3 13  1  0
  4  5  1  0
  4 12  1  0
  5 10  2  0
  6  8  1  0
  6 10  1  0
  6 16  1  0
  6 21  1  0
  7 11  2  3
  7 22  1  0
  9 13  1  0
  9 18  1  0
 10 20  1  0
 11 19  1  0
 11 23  1  0
 14 17  1  0
 14 24  1  0
 15 17  1  0
 16 18  1  0
 17 23  2  0
 19 24  2  0
 20 22  1  0
M  END
>  <ID>  (1) 
conformer_0

$$$$
