
     RDKit          3D

 31 35  0  0  0  0  0  0  0  0999 V2000
    8.7212  -35.8667    1.4410 O   0  0  0  0  0  0  0  0  0  0  0  0
    2.8105  -37.5338    0.8804 N   0  0  0  0  0  0  0  0  0  0  0  0
    8.9248  -40.9488    2.3509 C   0  0  0  0  0  0  0  0  0  0  0  0
    8.6596  -42.1802    4.4624 C   0  0  0  0  0  0  0  0  0  0  0  0
    7.3123  -42.8287    2.7818 C   0  0  0  0  0  0  0  0  0  0  0  0
    9.9559  -38.8629    2.0405 C   0  0  0  0  0  0  0  0  0  0  0  0
    6.3007  -38.5280   -1.9013 C   0  0  0  0  0  0  0  0  0  0  0  0
    3.0833  -38.3778   -0.1754 C   0  0  0  0  0  0  0  0  0  0  0  0
    7.5262  -36.4530    0.9258 C   0  0  0  0  0  0  0  0  0  0  0  0
    5.1261  -36.9563    1.0790 C   0  0  0  0  0  0  0  0  0  0  0  0
    6.9722  -43.6424    3.8677 O   0  0  0  0  0  0  0  0  0  0  0  0
    6.2579  -35.5694    2.6990 O   0  0  0  0  0  0  0  0  0  0  0  0
    6.5703  -42.8738    1.6210 N   0  0  0  0  0  0  0  0  0  0  0  0
    3.4533  -36.1324    2.5664 N   0  0  0  0  0  0  0  0  0  0  0  0
    8.3547  -41.9401    3.1681 C   0  0  0  0  0  0  0  0  0  0  0  0
    4.3485  -38.4126   -0.7044 C   0  0  0  0  0  0  0  0  0  0  0  0
    7.8559  -43.2228    4.9972 C   0  0  0  0  0  0  0  0  0  0  0  0
    9.2577  -40.2204    0.1319 C   0  0  0  0  0  0  0  0  0  0  0  0
    6.2889  -36.2716    1.6174 C   0  0  0  0  0  0  0  0  0  0  0  0
    9.5060  -38.9266    0.6300 C   0  0  0  0  0  0  0  0  0  0  0  0
    9.6522  -40.5410   -1.0929 F   0  0  0  0  0  0  0  0  0  0  0  0
    3.8036  -36.8535    1.5350 C   0  0  0  0  0  0  0  0  0  0  0  0
    9.0492  -37.8117   -0.3518 C   0  0  0  0  0  0  0  0  0  0  0  0
    9.5818  -39.8422    2.8692 C   0  0  0  0  0  0  0  0  0  0  0  0
   10.8537  -37.7448    2.5073 C   0  0  0  0  0  0  0  0  0  0  0  0
   10.5599  -37.3306    3.9168 N   0  0  0  0  0  0  0  0  0  0  0  0
    8.7470  -41.1035    0.9556 C   0  0  0  0  0  0  0  0  0  0  0  0
    5.3218  -37.6786   -0.0661 C   0  0  0  0  0  0  0  0  0  0  0  0
    6.4834  -37.7519   -0.7573 N   0  0  0  0  0  0  0  0  0  0  0  0
    7.6898  -37.1941   -0.3238 C   0  0  0  0  0  0  0  0  0  0  0  0
    4.9919  -38.9997   -1.8328 C   0  0  0  0  0  0  0  0  0  0  0  0
  1  9  1  0
  2  8  2  0
  2 22  1  0
  3 15  1  0
  3 24  1  0
  3 27  2  0
  4 15  1  0
  4 17  1  0
  5 11  1  0
  5 13  1  0
  5 15  2  0
  6 20  1  0
  6 24  2  0
  6 25  1  0
  7 29  1  0
  7 31  1  0
  8 16  1  0
  9 19  2  0
  9 30  1  0
 10 19  1  0
 10 22  1  0
 10 28  1  0
 11 17  1  0
 12 19  1  0
 14 22  2  0
 16 28  2  0
 16 31  1  0
 18 20  1  0
 18 21  1  0
 18 27  1  0
 20 23  1  0
 23 30  1  0
 25 26  1  0
 28 29  1  0
 29 30  1  0
M  END
>  <ID>  (1) 
conformer_0

$$$$
