
     RDKit          3D

 32 32  0  0  0  0  0  0  0  0999 V2000
    9.0241  -43.1349    3.4113 O   0  0  0  0  0  0  0  0  0  0  0  0
   10.3845  -40.6124   -0.7877 O   0  0  0  0  0  0  0  0  0  0  0  0
    8.3587  -41.8274    1.4135 C   0  0  0  0  0  0  0  0  0  0  0  0
    7.7100  -36.7738    0.0628 C   0  0  0  0  0  0  0  0  0  0  0  0
    3.0578  -37.7085    0.6701 C   0  0  0  0  0  0  0  0  0  0  0  0
    4.4673  -39.8826   -1.1004 C   0  0  0  0  0  0  0  0  0  0  0  0
    3.9764  -39.9875    0.2991 O   0  0  0  0  0  0  0  0  0  0  0  0
    9.5042  -40.8174    3.2794 C   0  0  0  0  0  0  0  0  0  0  0  0
    2.6859  -39.1906    0.3770 C   0  0  0  0  0  0  0  0  0  0  0  0
    9.9763  -38.5578    2.0017 C   0  0  0  0  0  0  0  0  0  0  0  0
    8.7871  -42.0216    2.8311 C   0  0  0  0  0  0  0  0  0  0  0  0
    5.5872  -38.9143   -1.0684 C   0  0  0  0  0  0  0  0  0  0  0  0
    4.8363  -35.0775    6.4969 C   0  0  0  0  0  0  0  0  0  0  0  0
    6.6586  -39.1992   -0.1300 O   0  0  0  0  0  0  0  0  0  0  0  0
    8.9879  -38.6767   -0.7236 C   0  0  0  0  0  0  0  0  0  0  0  0
    9.2887  -40.0750   -0.2385 C   0  0  0  0  0  0  0  0  0  0  0  0
    9.4375  -39.9088    2.2017 C   0  0  0  0  0  0  0  0  0  0  0  0
    6.7152  -36.0837    1.0788 S   0  0  0  0  0  3  0  0  0  0  0  0
    5.7330  -35.7280    4.2941 C   0  0  0  0  0  0  0  0  0  0  0  0
    4.7868  -35.9572    3.2017 N   0  0  0  0  0  0  0  0  0  0  0  0
    4.1270  -37.2709    3.1018 C   0  0  0  0  0  0  0  0  0  0  0  0
    2.8990  -37.3805    2.1824 C   0  0  0  0  0  0  0  0  0  0  0  0
    5.4827  -35.9087    0.6344 O   0  0  0  0  0  1  0  0  0  0  0  0
    3.5664  -40.2468   -1.9793 O   0  0  0  0  0  0  0  0  0  0  0  0
    8.7388  -40.4701    1.0113 C   0  0  0  0  0  0  0  0  0  0  0  0
    5.9540  -38.0764   -2.0353 O   0  0  0  0  0  0  0  0  0  0  0  0
    7.2726  -35.4086    2.1170 O   0  0  0  0  0  0  0  0  0  0  0  0
    5.4140  -36.1963    5.6912 C   0  0  0  0  0  0  0  0  0  0  0  0
    9.0758  -36.1824    0.3838 C   0  0  0  0  0  0  0  0  0  0  0  0
    6.1798  -35.7808    8.4242 O   0  0  0  0  0  0  0  0  0  0  0  0
    7.6896  -38.2717   -0.1086 C   0  0  0  0  0  0  0  0  0  0  0  0
    5.7795  -34.7175    7.6278 C   0  0  0  0  0  0  0  0  0  0  0  0
  1 11  2  0
  2 16  1  0
  3 11  1  0
  3 25  1  0
  4 18  1  0
  4 29  1  0
  4 31  1  0
  5  9  1  0
  5 22  1  0
  6  7  1  0
  6 12  1  0
  6 24  2  0
  7  9  1  0
  8 11  1  0
  8 17  1  0
 10 17  1  0
 12 14  1  0
 12 26  2  0
 13 28  1  0
 13 32  1  0
 14 31  1  0
 15 16  1  0
 15 31  1  0
 16 25  1  0
 17 25  1  0
 18 23  2  0
 18 27  1  0
 19 20  1  0
 19 28  1  0
 20 21  2  3
 21 22  1  0
 30 32  1  0
M  END
>  <ID>  (1) 
conformer_0

$$$$
