
     RDKit          3D

 29 31  0  0  0  0  0  0  0  0999 V2000
    5.5910  -38.5532   -1.8394 C   0  0  0  0  0  0  0  0  0  0  0  0
    5.3240  -39.3612   -0.5339 C   0  0  0  0  0  0  0  0  0  0  0  0
    4.2371  -36.5820    3.5359 C   0  0  0  0  0  0  0  0  0  0  0  0
    9.5767  -38.9246   -2.0545 N   0  0  0  0  0  0  0  0  0  0  0  0
    6.1200  -35.4210    4.3364 F   0  0  0  0  0  0  0  0  0  0  0  0
    8.6460  -36.8109    2.0252 O   0  0  0  0  0  0  0  0  0  0  0  0
    7.2589  -41.9093    3.1550 C   0  0  0  0  0  0  0  0  0  0  0  0
    5.5180  -36.1231    3.3747 C   0  0  0  0  0  0  0  0  0  0  0  0
    9.5555  -41.3899    3.7417 C   0  0  0  0  0  0  0  0  0  0  0  0
    8.2137  -42.8123    5.2417 C   0  0  0  0  0  0  0  0  0  0  0  0
    8.6765  -40.6572    1.6425 C   0  0  0  0  0  0  0  0  0  0  0  0
    6.5314  -40.1165   -0.2021 C   0  0  0  0  0  0  0  0  0  0  0  0
    7.0092  -37.9649   -1.9258 C   0  0  0  0  0  0  0  0  0  0  0  0
    7.4160  -41.1934    1.9926 C   0  0  0  0  0  0  0  0  0  0  0  0
   10.3311  -39.6045   -2.2407 C   0  0  0  0  0  0  0  0  0  0  0  0
    8.9980  -40.1779    0.2622 C   0  0  0  0  0  0  0  0  0  0  0  0
    7.4774  -37.9416   -0.3395 N   0  0  0  0  0  0  0  0  0  0  0  0
    7.6915  -35.9560    1.8697 C   0  0  0  0  0  0  0  0  0  0  0  0
    6.2351  -36.3402    2.1474 C   0  0  0  0  0  0  0  0  0  0  0  0
    8.3344  -42.0070    3.9976 C   0  0  0  0  0  0  0  0  0  0  0  0
    6.3935  -36.9978   -0.0831 C   0  0  0  0  0  0  0  0  0  0  0  0
    7.8613  -39.3367   -0.1856 C   0  0  0  0  0  0  0  0  0  0  0  0
    7.9509  -34.8106    1.4202 O   0  0  0  0  0  0  0  0  0  0  0  0
    9.7144  -40.7086    2.5715 C   0  0  0  0  0  0  0  0  0  0  0  0
    5.5693  -36.9175    1.1244 C   0  0  0  0  0  0  0  0  0  0  0  0
   10.1192  -40.8289   -0.2034 C   0  0  0  0  0  0  0  0  0  0  0  0
    4.2671  -37.3792    1.2603 C   0  0  0  0  0  0  0  0  0  0  0  0
    3.5599  -37.2154    2.4705 C   0  0  0  0  0  0  0  0  0  0  0  0
   10.8475  -40.6342   -1.3220 C   0  0  0  0  0  0  0  0  0  0  0  0
  1  2  1  0
  1 13  1  0
  2 12  1  0
  3  8  2  0
  3 28  1  0
  4 15  2  0
  5  8  1  0
  6 18  2  0
  7 14  2  0
  7 20  1  0
  8 19  1  0
  9 20  2  0
  9 24  1  0
 10 20  1  0
 11 14  1  0
 11 16  1  0
 11 24  2  0
 12 22  2  0
 13 17  1  0
 15 29  1  0
 16 22  1  0
 16 26  1  0
 17 21  1  0
 17 22  1  0
 18 19  1  0
 18 23  1  0
 19 25  2  0
 21 25  1  0
 25 27  1  0
 26 29  2  3
 27 28  2  0
M  END
>  <ID>  (1) 
conformer_0

$$$$
