
     RDKit          3D

 16 17  0  0  0  0  0  0  0  0999 V2000
    8.8408  -35.8021    1.5049 C   0  0  0  0  0  0  0  0  0  0  0  0
    8.8000  -39.3097    1.1039 N   0  0  0  0  0  0  0  0  0  0  0  0
    9.1148  -37.1264    1.5355 C   0  0  0  0  0  0  0  0  0  0  0  0
   10.7866  -37.2332    3.3102 O   0  0  0  0  0  0  0  0  0  0  0  0
    8.4288  -41.7868    1.6055 C   0  0  0  0  0  0  0  0  0  0  0  0
    9.9742  -39.1943    2.1531 O   0  0  0  0  0  0  0  0  0  0  0  0
    5.5611  -38.3641   -1.5091 C   0  0  0  0  0  0  0  0  0  0  0  0
    7.0085  -38.3263   -1.3815 C   0  0  0  0  0  0  0  0  0  0  0  0
    7.5276  -37.5297   -0.2819 C   0  0  0  0  0  0  0  0  0  0  0  0
    7.8351  -42.6173    2.6617 C   0  0  0  0  0  0  0  0  0  0  0  0
    7.7491  -40.3649    1.5048 C   0  0  0  0  0  0  0  0  0  0  0  0
    8.4143  -37.9901    0.7465 N   0  0  0  0  0  0  0  0  0  0  0  0
   10.0947  -37.7701    2.3990 C   0  0  0  0  0  0  0  0  0  0  0  0
    7.8839  -35.3128    0.5963 C   0  0  0  0  0  0  0  0  0  0  0  0
    8.6957  -42.6080    3.8852 C   0  0  0  0  0  0  0  0  0  0  0  0
    7.2350  -36.1747   -0.2800 C   0  0  0  0  0  0  0  0  0  0  0  0
  1  3  2  0
  1 14  1  0
  2  6  1  0
  2 11  1  0
  2 12  1  0
  3 12  1  0
  3 13  1  0
  4 13  2  0
  5 10  1  0
  5 11  1  0
  6 13  1  0
  7  8  1  0
  8  9  1  0
  9 12  1  0
  9 16  2  0
 10 15  1  0
 14 16  1  0
M  END
>  <ID>  (1) 
conformer_0

$$$$
