
     RDKit          3D

 42 45  0  0  0  0  0  0  0  0999 V2000
    7.5178  -44.4045    1.4143 C   0  0  0  0  0  0  0  0  0  0  0  0
    9.0053  -36.0243    0.9486 C   0  0  0  0  0  0  0  0  0  0  0  0
    9.5895  -40.4031    0.6634 O   0  0  0  0  0  0  0  0  0  0  0  0
    7.6745  -39.4029    0.1394 N   0  0  0  0  0  0  0  0  0  0  0  0
    2.9835  -37.9928    1.0544 S   0  0  0  0  0  4  0  0  0  0  0  0
    6.6471  -37.3310    0.5393 C   0  0  0  0  0  0  0  0  0  0  0  0
    6.7482  -43.4349    0.8718 C   0  0  0  0  0  0  0  0  0  0  0  0
    7.8628  -38.0228    0.3957 C   0  0  0  0  0  0  0  0  0  0  0  0
    4.5181  -35.4667    4.2606 O   0  0  0  0  0  0  0  0  0  0  0  0
    5.0844  -34.0169    6.0700 C   0  0  0  0  0  0  0  0  0  0  0  0
    9.0398  -37.3738    0.5472 C   0  0  0  0  0  0  0  0  0  0  0  0
    7.7918  -35.4177    1.2953 C   0  0  0  0  0  0  0  0  0  0  0  0
    8.1469  -44.3209    2.6283 C   0  0  0  0  0  0  0  0  0  0  0  0
    2.4889  -39.5590   -1.1787 C   0  0  0  0  0  0  0  0  0  0  0  0
    5.5911  -37.4676    3.8824 O   0  0  0  0  0  0  0  0  0  0  0  0
    4.6905  -38.6268   -0.8505 C   0  0  0  0  0  0  0  0  0  0  0  0
    5.1583  -36.3892    3.4896 C   0  0  0  0  0  0  0  0  0  0  0  0
    6.5698  -36.1718    1.3118 C   0  0  0  0  0  0  0  0  0  0  0  0
    7.7557  -41.4059    1.6766 C   0  0  0  0  0  0  0  0  0  0  0  0
    4.8363  -34.4411    8.4326 N   0  0  0  0  0  0  0  0  0  0  0  0
    7.6790  -45.5625    0.7686 F   0  0  0  0  0  0  0  0  0  0  0  0
    8.5414  -43.3560    4.6714 F   0  0  0  0  0  0  0  0  0  0  0  0
    5.6033  -37.8941   -0.1291 C   0  0  0  0  0  0  0  0  0  0  0  0
    1.7993  -37.2823    0.8570 O   0  0  0  0  0  1  0  0  0  0  0  0
    7.1418  -34.9785    8.6160 C   0  0  0  0  0  0  0  0  0  0  0  0
    6.7970  -42.1311    1.0118 C   0  0  0  0  0  0  0  0  0  0  0  0
    7.7068  -34.1840    1.5853 O   0  0  0  0  0  0  0  0  0  0  0  0
    8.3362  -40.2976    0.9833 C   0  0  0  0  0  0  0  0  0  0  0  0
    4.0689  -36.7725    1.4348 N   0  0  0  0  0  0  0  0  0  0  0  0
    3.3496  -38.7843   -0.4263 C   0  0  0  0  0  0  0  0  0  0  0  0
    3.1617  -39.0310    2.0938 O   0  0  0  0  0  1  0  0  0  0  0  0
    8.3387  -43.1701    3.3233 C   0  0  0  0  0  0  0  0  0  0  0  0
    8.8754  -40.9913    3.6331 F   0  0  0  0  0  0  0  0  0  0  0  0
    2.9408  -40.2346   -2.3241 C   0  0  0  0  0  0  0  0  0  0  0  0
    8.3173  -41.8714    2.8680 C   0  0  0  0  0  0  0  0  0  0  0  0
    5.1186  -39.2991   -2.0236 C   0  0  0  0  0  0  0  0  0  0  0  0
    5.3454  -33.4024    7.4681 C   0  0  0  0  0  0  0  0  0  0  0  0
    4.2764  -40.1050   -2.7385 C   0  0  0  0  0  0  0  0  0  0  0  0
    5.2114  -36.0416    2.0220 C   0  0  0  0  0  0  0  0  0  0  0  0
    4.6999  -35.3959    5.6382 N   0  0  0  0  0  0  0  0  0  0  0  0
    8.9424  -33.5534    1.4354 O   0  0  0  0  0  0  0  0  0  0  0  0
    5.7614  -35.6171    8.3008 C   0  0  0  0  0  0  0  0  0  0  0  0
  1  7  1  0
  1 13  1  0
  1 21  1  0
  2 11  1  0
  2 12  2  0
  3 28  2  0
  4  8  1  0
  4 28  1  0
  5 24  1  0
  5 29  1  0
  5 30  1  0
  5 31  1  0
  6  8  1  0
  6 18  1  0
  6 23  2  0
  7 26  2  0
  8 11  2  0
  9 17  1  0
  9 40  1  0
 10 37  1  0
 10 40  1  0
 12 18  1  0
 12 27  1  0
 13 32  1  0
 14 30  2  0
 14 34  1  0
 15 17  2  0
 16 23  2  0
 16 30  1  0
 16 36  1  0
 17 39  1  0
 18 39  1  0
 19 26  1  0
 19 28  1  0
 19 35  1  0
 20 37  1  0
 20 42  1  0
 22 32  1  0
 25 42  1  0
 27 41  1  0
 29 39  1  0
 32 35  1  0
 33 35  1  0
 34 38  1  0
 36 38  2  0
M  END
>  <ID>  (1) 
conformer_0

$$$$
