
     RDKit          3D

 15 15  0  0  0  0  0  0  0  0999 V2000
    9.0593  -42.4267    3.6242 C   0  0  0  0  0  0  0  0  0  0  0  0
    8.8140  -37.3543    0.4643 C   0  0  0  0  0  0  0  0  0  0  0  0
    6.8060  -36.0509   -0.1696 C   0  0  0  0  0  0  0  0  0  0  0  0
    7.9463  -38.2604   -0.4604 C   0  0  0  0  0  0  0  0  0  0  0  0
    8.0732  -42.2049    2.4483 C   0  0  0  0  0  0  0  0  0  0  0  0
    6.7356  -37.3996   -0.7809 C   0  0  0  0  0  0  0  0  0  0  0  0
    7.9712  -35.3226    1.8151 O   0  0  0  0  0  0  0  0  0  0  0  0
    8.2275  -40.5735    0.4241 N   0  0  0  0  0  0  0  0  0  0  0  0
    7.1455  -42.5242    5.0416 C   0  0  0  0  0  0  0  0  0  0  0  0
    8.3370  -40.9321    1.7402 C   0  0  0  0  0  0  0  0  0  0  0  0
    6.7395  -35.8578    2.4922 C   0  0  0  0  0  0  0  0  0  0  0  0
    8.4990  -41.9469    4.9310 C   0  0  0  0  0  0  0  0  0  0  0  0
    7.3461  -39.5882    0.0045 C   0  0  0  0  0  0  0  0  0  0  0  0
    6.4559  -37.4264   -2.1978 C   0  0  0  0  0  0  0  0  0  0  0  0
    8.2005  -35.9172    0.4897 C   0  0  0  0  0  0  0  0  0  0  0  0
  1  5  1  0
  1 12  1  0
  2  4  1  0
  2 15  1  0
  3  6  1  0
  3 15  1  0
  4  6  1  0
  4 13  1  0
  5 10  1  0
  6 14  1  0
  7 11  1  0
  7 15  1  0
  8 10  1  0
  8 13  1  0
  9 12  1  0
M  END
>  <ID>  (1) 
conformer_0

$$$$
