
     RDKit          3D

 33 36  0  0  0  0  0  0  0  0999 V2000
    8.8609  -36.8540    1.0569 C   0  0  0  0  0  0  0  0  0  0  0  0
   10.0065  -39.3068    1.6625 C   0  0  0  0  0  0  0  0  0  0  0  0
    4.2097  -36.9693    1.1631 N   0  0  0  0  0  0  0  0  0  0  0  0
    3.5110  -41.6908   -1.0365 C   0  0  0  0  0  0  0  0  0  0  0  0
    3.8690  -37.2931    2.5227 C   0  0  0  0  0  0  0  0  0  0  0  0
    7.3175  -41.3436    0.9189 C   0  0  0  0  0  0  0  0  0  0  0  0
    6.5006  -36.8750   -0.4589 C   0  0  0  0  0  0  0  0  0  0  0  0
    8.1628  -40.3456    0.3147 N   0  0  0  0  0  0  0  0  0  0  0  0
    8.1171  -34.7126    1.5721 O   0  0  0  0  0  0  0  0  0  0  0  0
    8.5085  -41.7999    3.0890 C   0  0  0  0  0  0  0  0  0  0  0  0
    9.5323  -40.3173   -0.6412 Cl  0  0  0  0  0  0  0  0  0  0  0  0
    4.7704  -36.4993    3.4949 C   0  0  0  0  0  0  0  0  0  0  0  0
   10.4090  -38.2061    2.3352 C   0  0  0  0  0  0  0  0  0  0  0  0
    5.2430  -40.1343   -0.1559 C   0  0  0  0  0  0  0  0  0  0  0  0
    7.0825  -35.5951   -0.1665 N   0  0  0  0  0  0  0  0  0  0  0  0
    7.3890  -41.9065    2.2906 C   0  0  0  0  0  0  0  0  0  0  0  0
    3.2183  -40.1853   -1.4165 C   0  0  0  0  0  0  0  0  0  0  0  0
    6.3055  -42.6633    2.7439 C   0  0  0  0  0  0  0  0  0  0  0  0
    9.8417  -36.9586    2.0357 C   0  0  0  0  0  0  0  0  0  0  0  0
    4.9337  -41.6596   -0.4309 C   0  0  0  0  0  0  0  0  0  0  0  0
    8.1093  -35.6235    0.8109 C   0  0  0  0  0  0  0  0  0  0  0  0
    3.3218  -39.4685    1.3052 C   0  0  0  0  0  0  0  0  0  0  0  0
    7.5525  -37.8104   -0.8196 C   0  0  0  0  0  0  0  0  0  0  0  0
    3.8729  -39.3796   -0.2060 C   0  0  0  0  0  0  0  0  0  0  0  0
    1.9430  -39.8501   -1.6093 O   0  0  0  0  0  0  0  0  0  0  0  0
    7.5185  -43.1906    4.7347 C   0  0  0  0  0  0  0  0  0  0  0  0
    3.9002  -38.8403    2.7328 C   0  0  0  0  0  0  0  0  0  0  0  0
    8.5938  -42.3996    4.2943 C   0  0  0  0  0  0  0  0  0  0  0  0
    9.0105  -39.3030    0.6547 C   0  0  0  0  0  0  0  0  0  0  0  0
    6.3627  -43.2826    3.9119 C   0  0  0  0  0  0  0  0  0  0  0  0
    8.5170  -37.9531    0.2871 C   0  0  0  0  0  0  0  0  0  0  0  0
    4.0571  -39.9466   -2.7095 C   0  0  0  0  0  0  0  0  0  0  0  0
    5.4914  -37.2990    0.5639 C   0  0  0  0  0  0  0  0  0  0  0  0
  1 19  1  0
  1 21  1  0
  1 31  2  0
  2 13  2  0
  2 29  1  0
  3  5  1  0
  3 33  1  0
  4 17  1  0
  4 20  1  0
  5 12  1  0
  5 27  1  0
  6  8  1  0
  6 16  1  0
  7 15  1  0
  7 23  1  0
  7 33  1  0
  8 11  1  0
  8 29  1  0
  9 21  2  0
 10 16  1  0
 10 28  2  0
 13 19  1  0
 14 20  1  0
 14 24  1  0
 15 21  1  0
 16 18  1  0
 17 24  1  0
 17 25  1  0
 17 32  1  0
 18 30  2  0
 22 24  1  0
 22 27  1  0
 23 31  1  0
 26 28  1  0
 26 30  1  0
 29 31  1  0
M  END
>  <ID>  (1) 
conformer_0

$$$$
