
     RDKit          3D

 21 20  0  0  0  0  0  0  0  0999 V2000
    7.1832  -42.1366    1.6684 C   0  0  0  0  0  0  0  0  0  0  0  0
    7.5178  -36.0228    0.0860 C   0  0  0  0  0  0  0  0  0  0  0  0
    6.1744  -37.9196   -1.0826 C   0  0  0  0  0  0  0  0  0  0  0  0
    8.7296  -42.5659    3.6151 C   0  0  0  0  0  0  0  0  0  0  0  0
    5.8214  -42.3942    1.1230 C   0  0  0  0  0  0  0  0  0  0  0  0
    9.4232  -37.3739    1.3255 C   0  0  0  0  0  0  0  0  0  0  0  0
   11.8040  -35.0849    3.7439 C   0  0  0  0  0  0  0  0  0  0  0  0
    8.7538  -36.8416    0.2123 C   0  0  0  0  0  0  0  0  0  0  0  0
   11.1696  -38.0717    3.2953 F   0  0  0  0  0  0  0  0  0  0  0  0
   10.9588  -35.9378    4.4416 C   0  0  0  0  0  0  0  0  0  0  0  0
   10.5003  -36.1386    5.4942 F   0  0  0  0  0  0  0  0  0  0  0  0
   10.5475  -36.9189    3.2968 C   0  0  0  0  0  0  0  0  0  0  0  0
    8.0812  -43.2053    2.2795 C   0  0  0  0  0  0  0  0  0  0  0  0
    5.0402  -41.2823    0.3585 C   0  0  0  0  0  0  0  0  0  0  0  0
    8.5542  -35.7280    2.9252 O   0  0  0  0  0  0  0  0  0  0  0  0
    4.3700  -39.5662   -1.9331 C   0  0  0  0  0  0  0  0  0  0  0  0
    3.9355  -38.1618    0.1662 C   0  0  0  0  0  0  0  0  0  0  0  0
    9.4698  -36.4321    2.5386 C   0  0  0  0  0  0  0  0  0  0  0  0
    5.6400  -40.0921    0.0703 C   0  0  0  0  0  0  0  0  0  0  0  0
    5.0478  -38.8935   -0.7085 C   0  0  0  0  0  0  0  0  0  0  0  0
    6.2054  -36.5725   -0.2306 C   0  0  0  0  0  0  0  0  0  0  0  0
  1  5  2  3
  1 13  1  0
  2  8  1  0
  2 21  1  0
  3 20  1  0
  3 21  1  0
  4 13  1  0
  5 14  1  0
  6  8  1  0
  6 18  1  0
  7 10  1  0
  9 12  1  0
 10 11  1  0
 10 12  1  0
 12 18  1  0
 14 19  2  3
 15 18  2  0
 16 20  1  0
 17 20  1  0
 19 20  1  0
M  END
>  <ID>  (1) 
conformer_0

$$$$
