
     RDKit          3D

 30 33  0  0  0  0  0  0  0  0999 V2000
    5.6852  -38.1813   -1.6435 C   0  0  0  0  0  0  0  0  0  0  0  0
    7.5425  -35.0306    1.7736 O   0  0  0  0  0  0  0  0  0  0  0  0
    7.6142  -43.1325    2.5221 C   0  0  0  0  0  0  0  0  0  0  0  0
    9.8788  -37.6686    2.1223 F   0  0  0  0  0  0  0  0  0  0  0  0
    7.5234  -38.7951   -0.3077 C   0  0  0  0  0  0  0  0  0  0  0  0
    8.5079  -41.3219    1.5705 C   0  0  0  0  0  0  0  0  0  0  0  0
    5.5599  -35.3346    5.2425 C   0  0  0  0  0  0  0  0  0  0  0  0
    7.7391  -42.4574    1.3040 C   0  0  0  0  0  0  0  0  0  0  0  0
    9.7168  -40.5816   -0.3144 O   0  0  0  0  0  0  0  0  0  0  0  0
    4.5285  -37.4179    5.7991 C   0  0  0  0  0  0  0  0  0  0  0  0
    5.0677  -36.2051    6.2124 C   0  0  0  0  0  0  0  0  0  0  0  0
    8.2727  -42.3700    3.4905 C   0  0  0  0  0  0  0  0  0  0  0  0
    9.6619  -35.0721    1.2607 O   0  0  0  0  0  0  0  0  0  0  0  0
    7.7273  -43.4412    5.5924 N   0  0  0  0  0  0  0  0  0  0  0  0
    8.9401  -40.3579    0.5988 C   0  0  0  0  0  0  0  0  0  0  0  0
    6.6398  -36.9780   -1.3943 C   0  0  0  0  0  0  0  0  0  0  0  0
    5.1536  -35.8783    7.6065 C   0  0  0  0  0  0  0  0  0  0  0  0
    5.0364  -37.4368    2.0908 C   0  0  0  0  0  0  0  0  0  0  0  0
    6.2087  -39.3624   -0.7738 C   0  0  0  0  0  0  0  0  0  0  0  0
    5.5450  -35.7399    3.9325 C   0  0  0  0  0  0  0  0  0  0  0  0
    4.4780  -37.8029    4.5059 C   0  0  0  0  0  0  0  0  0  0  0  0
    8.3550  -36.7339    0.4343 C   0  0  0  0  0  0  0  0  0  0  0  0
    8.4873  -39.0407    0.7065 N   0  0  0  0  0  0  0  0  0  0  0  0
    9.0916  -37.8543    1.0271 C   0  0  0  0  0  0  0  0  0  0  0  0
    6.0199  -37.4587    1.0106 N   0  0  0  0  0  0  0  0  0  0  0  0
    8.4661  -35.4917    1.1639 C   0  0  0  0  0  0  0  0  0  0  0  0
    8.3877  -42.6947    4.7953 C   0  0  0  0  0  0  0  0  0  0  0  0
    8.7812  -41.2743    2.9025 C   0  0  0  0  0  0  0  0  0  0  0  0
    7.0793  -37.3099    0.0309 C   0  0  0  0  0  0  0  0  0  0  0  0
    5.0234  -36.9588    3.5307 C   0  0  0  0  0  0  0  0  0  0  0  0
  1 16  1  0
  1 19  1  0
  2 26  2  0
  3  8  1  0
  3 12  1  0
  4 24  1  0
  5 19  1  0
  5 23  1  0
  5 29  1  0
  6  8  1  0
  6 15  1  0
  6 28  1  0
  7 11  1  0
  7 20  2  0
  9 15  2  0
 10 11  1  0
 10 21  2  0
 11 17  1  0
 12 27  1  0
 12 28  1  0
 13 26  1  0
 14 27  2  0
 15 23  1  0
 16 29  1  0
 18 25  1  0
 18 30  1  0
 20 30  1  0
 21 30  1  0
 22 24  1  0
 22 26  1  0
 22 29  1  0
 23 24  1  0
 25 29  1  0
M  END
>  <ID>  (1) 
conformer_0

$$$$
