
     RDKit          3D

 39 42  0  0  0  0  0  0  0  0999 V2000
    7.5394  -35.7003    0.4677 C   0  0  0  0  0  0  0  0  0  0  0  0
    4.6246  -39.4031   -2.0886 O   0  0  0  0  0  0  0  0  0  0  0  0
    5.4533  -33.6728    6.5281 C   0  0  0  0  0  0  0  0  0  0  0  0
    7.3873  -42.7651    1.4999 C   0  0  0  0  0  0  0  0  0  0  0  0
    6.8430  -43.8212    2.1858 C   0  0  0  0  0  0  0  0  0  0  0  0
    8.4520  -41.9698    3.5169 C   0  0  0  0  0  0  0  0  0  0  0  0
    9.2906  -39.6260   -0.3069 C   0  0  0  0  0  0  0  0  0  0  0  0
    4.8448  -37.3325    2.1126 C   0  0  0  0  0  0  0  0  0  0  0  0
    6.3580  -37.9834    0.4427 C   0  0  0  0  0  0  0  0  0  0  0  0
    3.4792  -37.1266    2.7613 C   0  0  0  0  0  0  0  0  0  0  0  0
    4.9904  -38.0691    0.9500 C   0  0  0  0  0  0  0  0  0  0  0  0
    6.5336  -37.3361   -2.0047 O   0  0  0  0  0  0  0  0  0  0  0  0
    9.6632  -35.9635    1.6836 C   0  0  0  0  0  0  0  0  0  0  0  0
    6.7955  -36.7870    1.2012 N   0  0  0  0  0  0  0  0  0  0  0  0
   10.3094  -40.5383   -0.4798 C   0  0  0  0  0  0  0  0  0  0  0  0
    5.7507  -36.4057    6.4542 C   0  0  0  0  0  0  0  0  0  0  0  0
    2.9891  -40.5176   -0.8552 C   0  0  0  0  0  0  0  0  0  0  0  0
    2.6343  -38.6201    0.9610 O   0  0  0  0  0  0  0  0  0  0  0  0
    8.2558  -39.9258    0.6482 C   0  0  0  0  0  0  0  0  0  0  0  0
    1.8937  -40.0389   -1.6268 N   0  0  0  0  0  0  0  0  0  0  0  0
    7.9607  -43.0533    4.2187 C   0  0  0  0  0  0  0  0  0  0  0  0
    6.0330  -36.6369    2.4855 C   0  0  0  0  0  0  0  0  0  0  0  0
    8.7145  -40.7720    1.5982 O   0  0  0  0  0  0  0  0  0  0  0  0
    5.7020  -36.3067    3.9817 O   0  0  0  0  0  0  0  0  0  0  0  0
   10.8951  -35.1594    2.0443 C   0  0  0  0  0  0  0  0  0  0  0  0
    4.0213  -39.4505   -0.9025 C   0  0  0  0  0  0  0  0  0  0  0  0
    7.1829  -44.0053    3.5463 C   0  0  0  0  0  0  0  0  0  0  0  0
    5.9806  -35.7219    7.6561 C   0  0  0  0  0  0  0  0  0  0  0  0
    5.8752  -34.3401    7.6860 C   0  0  0  0  0  0  0  0  0  0  0  0
    2.4155  -37.3595    1.7620 C   0  0  0  0  0  0  0  0  0  0  0  0
    9.2543  -38.4678   -0.9760 O   0  0  0  0  0  0  0  0  0  0  0  0
    9.4215  -37.0417    2.2145 O   0  0  0  0  0  0  0  0  0  0  0  0
    8.1616  -41.8532    2.1947 C   0  0  0  0  0  0  0  0  0  0  0  0
    5.5266  -35.7286    5.2885 C   0  0  0  0  0  0  0  0  0  0  0  0
    7.1431  -39.1589    0.7769 C   0  0  0  0  0  0  0  0  0  0  0  0
    8.6428  -35.0509    1.2240 C   0  0  0  0  0  0  0  0  0  0  0  0
    5.2572  -34.3693    5.3372 C   0  0  0  0  0  0  0  0  0  0  0  0
    3.8935  -38.7352    0.3451 C   0  0  0  0  0  0  0  0  0  0  0  0
    6.3636  -37.9377   -0.9360 O   0  0  0  0  0  0  0  0  0  0  0  0
  1 14  1  0
  1 36  1  0
  2 26  1  0
  3 29  2  0
  3 37  1  0
  4  5  2  0
  4 33  1  0
  5 27  1  0
  6 21  1  0
  6 33  2  0
  7 15  1  0
  7 19  1  0
  7 31  1  0
  8 10  1  0
  8 11  2  0
  8 22  1  0
  9 11  1  0
  9 14  1  0
  9 35  1  0
  9 39  1  0
 10 30  1  0
 11 38  1  0
 12 39  1  0
 13 25  1  0
 13 32  2  0
 13 36  1  0
 14 22  1  0
 16 28  2  0
 16 34  1  0
 17 20  1  0
 17 26  1  0
 18 30  1  0
 18 38  1  0
 19 23  1  0
 19 35  1  0
 21 27  2  0
 22 24  1  0
 23 33  1  0
 24 34  1  0
 26 38  1  0
 28 29  1  0
 34 37  2  0
M  END
>  <ID>  (1) 
conformer_0

$$$$
