
     RDKit          3D

 21 22  0  0  0  0  0  0  0  0999 V2000
    8.3484  -41.3855    2.0836 C   0  0  0  0  0  0  0  0  0  0  0  0
    5.5791  -34.9240    5.8387 C   0  0  0  0  0  0  0  0  0  0  0  0
    8.8742  -41.8585    3.5391 C   0  0  0  0  0  0  0  0  0  0  0  0
    8.1168  -40.1923    1.1439 C   0  0  0  0  0  0  0  0  0  0  0  0
    5.9170  -36.3361    2.1903 C   0  0  0  0  0  0  0  0  0  0  0  0
    4.8318  -39.3888   -1.2945 C   0  0  0  0  0  0  0  0  0  0  0  0
    6.2943  -35.3245    7.0093 O   0  0  0  0  0  0  0  0  0  0  0  0
    4.5895  -38.3822   -0.2541 N   0  0  0  0  0  0  0  0  0  0  0  0
    3.9573  -39.8477   -2.1192 N   0  0  0  0  0  0  0  0  0  0  0  0
    3.5988  -36.9663    1.1474 C   0  0  0  0  0  0  0  0  0  0  0  0
    5.5728  -37.8643    0.5284 C   0  0  0  0  0  0  0  0  0  0  0  0
    8.5757  -35.9582    1.4443 C   0  0  0  0  0  0  0  0  0  0  0  0
    5.9973  -39.9218   -1.4158 N   0  0  0  0  0  0  0  0  0  0  0  0
    4.9685  -36.9649    1.4031 C   0  0  0  0  0  0  0  0  0  0  0  0
    5.8055  -36.0583    4.7329 C   0  0  0  0  0  0  0  0  0  0  0  0
    6.9582  -34.7590    8.0489 C   0  0  0  0  0  0  0  0  0  0  0  0
    6.9941  -37.7910    0.8091 C   0  0  0  0  0  0  0  0  0  0  0  0
    5.6247  -35.5718    3.4110 C   0  0  0  0  0  0  0  0  0  0  0  0
    3.3583  -37.8775    0.1310 C   0  0  0  0  0  0  0  0  0  0  0  0
    7.1692  -36.7103    1.6211 C   0  0  0  0  0  0  0  0  0  0  0  0
    8.3661  -38.7000    0.5798 C   0  0  0  0  0  0  0  0  0  0  0  0
  1  3  1  0
  1  4  1  0
  2  7  1  0
  2 15  1  0
  4 21  1  0
  5 14  1  0
  5 18  1  0
  5 20  1  0
  6  8  1  0
  6  9  2  0
  6 13  1  0
  7 16  1  0
  8 11  1  0
  8 19  1  0
 10 14  1  0
 10 19  1  0
 11 14  2  0
 11 17  1  0
 12 20  1  0
 15 18  1  0
 17 20  1  0
 17 21  1  0
M  END
>  <ID>  (1) 
conformer_0

$$$$
