
     RDKit          3D

 30 32  0  0  0  0  0  0  0  0999 V2000
    8.2207  -36.7473    1.1636 C   0  0  0  0  0  0  0  0  0  0  0  0
    5.6142  -35.9058    5.9949 C   0  0  0  0  0  0  0  0  0  0  0  0
    6.8422  -43.7922    2.2144 C   0  0  0  0  0  0  0  0  0  0  0  0
    5.3242  -33.6018    6.6248 O   0  0  0  0  0  0  0  0  0  0  0  0
    5.9115  -34.6982    6.9401 C   0  0  0  0  0  0  0  0  0  0  0  0
    7.1716  -43.7985    3.5355 C   0  0  0  0  0  0  0  0  0  0  0  0
    6.8464  -34.8463    7.8669 O   0  0  0  0  0  0  0  0  0  0  0  0
    6.7735  -37.2035    1.4664 C   0  0  0  0  0  0  0  0  0  0  0  0
    9.2930  -37.0927    2.0512 F   0  0  0  0  0  0  0  0  0  0  0  0
    7.3443  -42.8244    1.3477 C   0  0  0  0  0  0  0  0  0  0  0  0
    5.2703  -35.4076    4.5874 C   0  0  0  0  0  0  0  0  0  0  0  0
    8.1838  -41.8341    1.8362 C   0  0  0  0  0  0  0  0  0  0  0  0
    9.0478  -38.7486    0.0661 C   0  0  0  0  0  0  0  0  0  0  0  0
    6.1584  -38.1606   -1.2487 C   0  0  0  0  0  0  0  0  0  0  0  0
    6.2278  -36.1023    3.7235 O   0  0  0  0  0  0  0  0  0  0  0  0
    8.2604  -35.3330    1.1006 O   0  0  0  0  0  0  0  0  0  0  0  0
    8.5884  -41.8505    3.1754 C   0  0  0  0  0  0  0  0  0  0  0  0
    5.4027  -38.9561   -2.0193 O   0  0  0  0  0  0  0  0  0  0  0  0
    8.0685  -42.8483    4.0075 C   0  0  0  0  0  0  0  0  0  0  0  0
    8.5126  -37.3743   -0.2417 C   0  0  0  0  0  0  0  0  0  0  0  0
    4.2725  -38.0338    0.3688 O   0  0  0  0  0  0  0  0  0  0  0  0
    8.4707  -43.0025    5.2933 F   0  0  0  0  0  0  0  0  0  0  0  0
    7.4667  -37.6750   -1.2784 O   0  0  0  0  0  0  0  0  0  0  0  0
    8.1659  -39.4430    1.0534 C   0  0  0  0  0  0  0  0  0  0  0  0
    5.2042  -37.3348   -0.3304 C   0  0  0  0  0  0  0  0  0  0  0  0
    6.8775  -38.7056    1.3351 C   0  0  0  0  0  0  0  0  0  0  0  0
    8.5186  -40.8137    1.0066 N   0  0  0  0  0  0  0  0  0  0  0  0
    5.6728  -36.8446    2.5439 C   0  0  0  0  0  0  0  0  0  0  0  0
    6.0814  -36.4161    0.3535 O   0  0  0  0  0  0  0  0  0  0  0  0
    9.7625  -39.6025   -0.6513 O   0  0  0  0  0  0  0  0  0  0  0  0
  1  8  1  0
  1  9  1  0
  1 16  1  0
  1 20  1  0
  2  5  1  0
  2 11  1  0
  3  6  1  0
  3 10  1  0
  4  5  2  0
  5  7  1  0
  6 19  2  0
  8 26  1  0
  8 28  1  0
  8 29  1  0
 10 12  2  0
 11 15  1  0
 12 17  1  0
 12 27  1  0
 13 20  1  0
 13 24  1  0
 13 30  1  0
 14 18  2  0
 14 23  1  0
 14 25  1  0
 15 28  1  0
 17 19  1  0
 19 22  1  0
 20 23  1  0
 21 25  1  0
 24 26  1  0
 24 27  1  0
 25 29  1  0
M  END
>  <ID>  (1) 
conformer_0

$$$$
