
     RDKit          3D

 26 27  0  0  0  0  0  0  0  0999 V2000
    4.9143  -36.9897    7.8994 O   0  0  0  0  0  0  0  0  0  0  0  0
    9.3626  -40.2172    2.3180 C   0  0  0  0  0  0  0  0  0  0  0  0
    7.7347  -39.3198    0.7895 C   0  0  0  0  0  0  0  0  0  0  0  0
    6.0647  -36.7353    1.5483 C   0  0  0  0  0  0  0  0  0  0  0  0
    9.9825  -38.9544    2.2884 C   0  0  0  0  0  0  0  0  0  0  0  0
    4.5828  -39.4337   -2.2205 C   0  0  0  0  0  0  0  0  0  0  0  0
    4.0464  -37.7861    2.1233 O   0  0  0  0  0  0  0  0  0  0  0  0
    5.2671  -36.1164    5.5900 C   0  0  0  0  0  3  0  0  0  0  0  0
    4.4851  -39.1106   -0.7996 C   0  0  0  0  0  0  0  0  0  0  0  0
    7.8899  -35.5860    0.3685 C   0  0  0  0  0  0  0  0  0  0  0  0
    8.3024  -40.3747    1.4044 C   0  0  0  0  0  0  0  0  0  0  0  0
    4.4095  -40.4265   -0.0623 C   0  0  0  0  0  0  0  0  0  0  0  0
    8.8272  -41.9028    4.0687 O   0  0  0  0  0  0  0  0  0  0  0  0
    9.3876  -37.8815    1.6826 C   0  0  0  0  0  0  0  0  0  0  0  0
    6.2858  -35.2105    7.7222 O   0  0  0  0  0  0  0  0  0  0  0  0
    5.2110  -36.3515    3.8842 C   0  0  0  0  0  0  0  0  0  0  0  0
    7.8274  -41.6995    1.1257 Cl  0  0  0  0  0  0  0  0  0  0  0  0
    5.2996  -38.1289   -0.2093 O   0  0  0  0  0  0  0  0  0  0  0  0
    9.7742  -41.2742    3.1902 C   0  0  0  0  0  0  0  0  0  0  0  0
    5.0856  -37.6535    1.0978 C   0  0  0  0  0  0  0  0  0  0  0  0
    4.4116  -37.6409    3.5637 C   0  0  0  0  0  0  0  0  0  0  0  0
    8.1392  -38.0357    1.0886 C   0  0  0  0  0  0  0  0  0  0  0  0
    5.8504  -35.9353    2.6760 N   0  0  0  0  0  0  0  0  0  0  0  0
    7.3092  -36.8449    0.9160 C   0  0  0  0  0  0  0  0  0  0  0  0
    5.4440  -36.0631    7.3126 C   0  0  0  0  0  0  0  0  0  0  0  0
    8.3484  -34.7306    1.3711 F   0  0  0  0  0  0  0  0  0  0  0  0
  1 25  2  0
  2  5  1  0
  2 11  1  0
  2 19  1  0
  3 11  2  0
  3 22  1  0
  4 20  1  0
  4 23  1  0
  4 24  1  0
  5 14  2  0
  6  9  1  0
  7 20  1  0
  7 21  1  0
  8 16  2  0
  8 25  1  0
  9 12  1  0
  9 18  1  0
 10 24  1  0
 10 26  1  0
 11 17  1  0
 13 19  1  0
 14 22  1  0
 15 25  1  0
 16 21  1  0
 16 23  1  0
 18 20  1  0
 22 24  1  0
M  END
>  <ID>  (1) 
conformer_0

$$$$
