
     RDKit          3D

 31 34  0  0  0  0  0  0  0  0999 V2000
    6.0475  -41.4583    1.4375 C   0  0  0  0  0  0  0  0  0  0  0  0
    8.5966  -41.8136    5.5074 F   0  0  0  0  0  0  0  0  0  0  0  0
    6.1712  -37.7395   -2.2088 O   0  0  0  0  0  0  0  0  0  0  0  0
    7.6497  -42.4462    3.4229 C   0  0  0  0  0  0  0  0  0  0  0  0
    5.7116  -36.2375    1.4431 C   0  0  0  0  0  0  0  0  0  0  0  0
    9.8141  -40.4994   -0.3215 O   0  0  0  0  0  0  0  0  0  0  0  0
    7.5806  -43.7412    5.3803 F   0  0  0  0  0  0  0  0  0  0  0  0
    6.4830  -35.9295    0.2563 O   0  0  0  0  0  0  0  0  0  0  0  0
    5.7702  -42.6952    1.9711 C   0  0  0  0  0  0  0  0  0  0  0  0
    7.2746  -36.8318   -0.4068 C   0  0  0  0  0  0  0  0  0  0  0  0
    3.6794  -37.1643    2.3879 C   0  0  0  0  0  0  0  0  0  0  0  0
    4.4287  -36.7479    1.2890 C   0  0  0  0  0  0  0  0  0  0  0  0
    8.1435  -42.7550    4.7468 C   0  0  0  0  0  0  0  0  0  0  0  0
    4.1894  -37.0188    3.6975 C   0  0  0  0  0  0  0  0  0  0  0  0
    9.2395  -38.1700   -0.3685 C   0  0  0  0  0  0  0  0  0  0  0  0
    8.1473  -41.4265    2.5927 C   0  0  0  0  0  0  0  0  0  0  0  0
    5.4499  -36.4480    3.8686 C   0  0  0  0  0  0  0  0  0  0  0  0
    7.6799  -39.9710    0.3514 N   0  0  0  0  0  0  0  0  0  0  0  0
    5.8137  -40.1228   -1.4242 O   0  0  0  0  0  0  0  0  0  0  0  0
    9.7644  -36.9768    2.1912 C   0  0  0  0  0  0  0  0  0  0  0  0
    5.3967  -39.1765    0.6018 C   0  0  0  0  0  0  0  0  0  0  0  0
    6.8611  -38.0362   -1.1272 C   0  0  0  0  0  0  0  0  0  0  0  0
    8.2971  -37.3646    0.4192 C   0  0  0  0  0  0  0  0  0  0  0  0
    8.9649  -36.3832    1.2270 C   0  0  0  0  0  0  0  0  0  0  0  0
    6.5526  -43.1963    2.9725 C   0  0  0  0  0  0  0  0  0  0  0  0
    8.9541  -39.6198   -0.1600 C   0  0  0  0  0  0  0  0  0  0  0  0
    6.5637  -39.3261   -0.4397 C   0  0  0  0  0  0  0  0  0  0  0  0
    8.7677  -35.1390    1.0780 O   0  0  0  0  0  0  0  0  0  0  0  0
    7.3450  -40.9553    1.4657 C   0  0  0  0  0  0  0  0  0  0  0  0
    6.1912  -36.0596    2.7397 C   0  0  0  0  0  0  0  0  0  0  0  0
    4.8644  -40.5822    1.0395 C   0  0  0  0  0  0  0  0  0  0  0  0
  1  9  1  0
  1 29  1  0
  1 31  1  0
  2 13  1  0
  3 22  1  0
  4 13  1  0
  4 16  1  0
  4 25  1  0
  5  8  1  0
  5 12  1  0
  5 30  2  0
  6 26  2  0
  7 13  1  0
  8 10  1  0
  9 25  2  0
 10 22  1  0
 10 23  1  0
 11 12  2  0
 11 14  1  0
 14 17  2  0
 15 23  1  0
 15 26  1  0
 16 29  2  0
 17 30  1  0
 18 26  1  0
 18 27  1  0
 18 29  1  0
 19 27  1  0
 20 24  1  0
 21 27  1  0
 21 31  1  0
 22 27  1  0
 23 24  1  0
 24 28  2  0
M  END
>  <ID>  (1) 
conformer_0

$$$$
