
     RDKit          3D

 33 36  0  0  0  0  0  0  0  0999 V2000
    4.8580  -35.8667    4.2350 C   0  0  0  0  0  0  0  0  0  0  0  0
    8.6419  -37.8711   -0.8598 C   0  0  0  0  0  0  0  0  0  0  0  0
    5.9707  -35.8923    3.4300 N   0  0  0  0  0  0  0  0  0  0  0  0
    4.3954  -38.9337    0.2233 N   0  0  0  0  0  0  0  0  0  0  0  0
    3.6503  -37.1843    2.6052 C   0  0  0  0  0  0  0  0  0  0  0  0
    5.1411  -41.1606   -0.1041 N   0  0  0  0  0  0  0  0  0  0  0  0
    9.1269  -36.6172    2.4671 O   0  0  0  0  0  0  0  0  0  0  0  0
    8.4207  -34.8126    1.0929 O   0  0  0  0  0  0  0  0  0  0  0  0
    8.1492  -44.7798    2.9153 C   0  0  0  0  0  0  0  0  0  0  0  0
    4.7519  -37.0882    1.8026 C   0  0  0  0  0  0  0  0  0  0  0  0
    5.9532  -36.5477    2.2488 C   0  0  0  0  0  0  0  0  0  0  0  0
    4.9117  -37.5311    0.3268 C   0  0  0  0  0  0  0  0  0  0  0  0
    8.1183  -42.4198    4.7649 C   0  0  0  0  0  0  0  0  0  0  0  0
    8.2693  -43.3947    2.4166 C   0  0  0  0  0  0  0  0  0  0  0  0
    8.1733  -41.0287    2.4549 C   0  0  0  0  0  0  0  0  0  0  0  0
    7.3675  -43.3659    5.0837 O   0  0  0  0  0  0  0  0  0  0  0  0
    9.1812  -37.0395    0.1830 C   0  0  0  0  0  0  0  0  0  0  0  0
    4.4523  -39.7453   -2.0461 C   0  0  0  0  0  0  0  0  0  0  0  0
    8.5209  -42.2283    3.2913 C   0  0  0  0  0  0  0  0  0  0  0  0
    3.6827  -36.5601    3.8589 C   0  0  0  0  0  0  0  0  0  0  0  0
    9.3582  -40.2827    1.8997 C   0  0  0  0  0  0  0  0  0  0  0  0
    4.3231  -40.0502   -0.5876 C   0  0  0  0  0  0  0  0  0  0  0  0
    9.1572  -39.7437    0.4518 C   0  0  0  0  0  0  0  0  0  0  0  0
    7.3601  -42.9608    1.3142 C   0  0  0  0  0  0  0  0  0  0  0  0
    8.4446  -36.1721    1.3674 C   0  0  0  0  0  0  0  0  0  0  0  0
    6.3938  -37.1403   -0.0364 C   0  0  0  0  0  0  0  0  0  0  0  0
    3.8391  -40.4271   -2.8593 O   0  0  0  0  0  0  0  0  0  0  0  0
    7.3260  -41.5265    1.3453 C   0  0  0  0  0  0  0  0  0  0  0  0
    5.2673  -38.8147   -2.4154 O   0  0  0  0  0  0  0  0  0  0  0  0
    8.6734  -38.3876    0.4679 N   0  0  0  0  0  0  0  0  0  0  0  0
    7.0308  -36.7105    1.2792 C   0  0  0  0  0  0  0  0  0  0  0  0
    8.6093  -41.6722    5.6669 O   0  0  0  0  0  0  0  0  0  0  0  0
    6.3502  -40.8162    0.5686 C   0  0  0  0  0  0  0  0  0  0  0  0
  1  3  2  0
  1 20  1  0
  2 17  1  0
  2 30  1  0
  3 11  1  0
  4 12  1  0
  4 22  1  0
  5 10  1  0
  5 20  2  0
  6 22  1  0
  6 33  2  0
  7 25  1  0
  8 25  1  0
  9 14  1  0
 10 11  2  0
 10 12  1  0
 11 31  1  0
 12 26  1  0
 13 16  2  0
 13 19  1  0
 13 32  1  0
 14 19  1  0
 14 24  1  0
 15 19  1  0
 15 21  1  0
 15 28  1  0
 17 25  1  0
 18 22  1  0
 18 27  2  0
 18 29  1  0
 21 23  1  0
 23 30  1  0
 24 28  1  0
 25 31  1  0
 26 31  1  0
 28 33  1  0
M  END
>  <ID>  (1) 
conformer_0

$$$$
