
     RDKit          3D

 33 36  0  0  0  0  0  0  0  0999 V2000
    6.5662  -37.7434   -2.1054 C   0  0  0  0  0  0  0  0  0  0  0  0
    8.6258  -41.2517    3.5562 C   0  0  0  0  0  0  0  0  0  0  0  0
    9.0366  -39.4443    1.6921 C   0  0  0  0  0  0  0  0  0  0  0  0
    9.6037  -38.9473   -0.5286 O   0  0  0  0  0  0  0  0  0  0  0  0
    7.6312  -42.7406    4.6408 C   0  0  0  0  0  0  0  0  0  0  0  0
    8.1175  -34.9715    1.5332 O   0  0  0  0  0  0  0  0  0  0  0  0
    8.4082  -41.6290    4.8170 N   0  0  0  0  0  0  0  0  0  0  0  0
    7.6169  -35.9904   -0.5331 C   0  0  0  0  0  0  0  0  0  0  0  0
    9.2956  -37.0424    0.9944 C   0  0  0  0  0  0  0  0  0  0  0  0
    8.3663  -45.0994    1.5560 C   0  0  0  0  0  0  0  0  0  0  0  0
    8.0844  -43.9325    2.4219 C   0  0  0  0  0  0  0  0  0  0  0  0
    7.9777  -43.8655    3.8173 C   0  0  0  0  0  0  0  0  0  0  0  0
    7.4685  -37.3956   -0.9573 C   0  0  0  0  0  0  0  0  0  0  0  0
    6.6222  -42.8144    5.3383 O   0  0  0  0  0  0  0  0  0  0  0  0
    4.7817  -37.5861   -0.4802 C   0  0  0  0  0  0  0  0  0  0  0  0
    4.5662  -36.5800    2.9845 C   0  0  0  0  0  0  0  0  0  0  0  0
    5.5010  -38.6034   -1.2988 C   0  0  0  0  0  0  0  0  0  0  0  0
    8.0909  -41.5953    2.2991 C   0  0  0  0  0  0  0  0  0  0  0  0
    3.9011  -36.7055    4.0859 N   0  0  0  0  0  0  0  0  0  0  0  0
    5.7568  -35.8940    3.2106 C   0  0  0  0  0  0  0  0  0  0  0  0
    4.6629  -36.0247    5.0595 C   0  0  0  0  0  0  0  0  0  0  0  0
    5.3732  -37.3358    0.8667 C   0  0  0  0  0  0  0  0  0  0  0  0
    4.7193  -39.3066   -2.1653 F   0  0  0  0  0  0  0  0  0  0  0  0
    5.7948  -35.5393    4.4565 C   0  0  0  0  0  0  0  0  0  0  0  0
    6.4085  -39.4351   -0.3232 C   0  0  0  0  0  0  0  0  0  0  0  0
    4.1878  -37.1099    1.7386 O   0  0  0  0  0  0  0  0  0  0  0  0
    8.9211  -38.4049    0.6091 C   0  0  0  0  0  0  0  0  0  0  0  0
    8.3904  -35.9077    0.7065 C   0  0  0  0  0  0  0  0  0  0  0  0
   10.0356  -36.8347    2.1408 O   0  0  0  0  0  0  0  0  0  0  0  0
    8.2626  -40.5826    1.2678 C   0  0  0  0  0  0  0  0  0  0  0  0
    7.4758  -38.3876    0.1342 C   0  0  0  0  0  0  0  0  0  0  0  0
    7.9345  -42.7967    1.6701 N   0  0  0  0  0  0  0  0  0  0  0  0
   10.1791  -39.4789    2.3779 O   0  0  0  0  0  0  0  0  0  0  0  0
  1 13  1  0
  1 17  1  0
  2  7  1  0
  2 18  1  0
  3 27  1  0
  3 30  1  0
  3 33  1  0
  4 27  1  0
  5  7  1  0
  5 12  1  0
  5 14  2  0
  6 28  2  0
  8 13  1  0
  8 28  1  0
  9 27  1  0
  9 28  1  0
  9 29  1  0
 10 11  1  0
 11 12  2  0
 11 32  1  0
 13 31  1  0
 15 17  1  0
 15 22  1  0
 16 19  1  0
 16 20  1  0
 16 26  1  0
 17 23  1  0
 17 25  1  0
 18 30  1  0
 18 32  2  0
 19 21  1  0
 20 24  1  0
 21 24  1  0
 22 26  1  0
 25 31  1  0
 27 31  1  0
M  END
>  <ID>  (1) 
conformer_0

$$$$
