
     RDKit          3D

 30 32  0  0  0  0  0  0  0  0999 V2000
    8.6848  -42.2889    5.6389 N   0  0  0  0  0  0  0  0  0  0  0  0
    8.6161  -35.7236    1.0611 C   0  0  0  0  0  0  0  0  0  0  0  0
    2.1409  -37.0211    0.3767 C   0  0  0  0  0  0  0  0  0  0  0  0
    6.3499  -41.8725    0.8538 N   0  0  0  0  0  0  0  0  0  0  0  0
    9.7519  -36.4767    1.0689 N   0  0  0  0  0  0  0  0  0  0  0  0
    6.4997  -40.6876    0.1723 C   0  0  0  0  0  0  0  0  0  0  0  0
    1.3014  -37.7743   -0.4873 O   0  0  0  0  0  0  0  0  0  0  0  0
   10.1249  -37.1980    2.2680 C   0  0  0  0  0  0  0  0  0  0  0  0
    7.6338  -39.9008    0.2956 C   0  0  0  0  0  0  0  0  0  0  0  0
    7.2624  -36.2806    0.8697 C   0  0  0  0  0  0  0  0  0  0  0  0
    7.6477  -43.3343    3.8814 C   0  0  0  0  0  0  0  0  0  0  0  0
    6.8309  -44.6804    1.9940 C   0  0  0  0  0  0  0  0  0  0  0  0
    7.2081  -43.4135    2.5622 C   0  0  0  0  0  0  0  0  0  0  0  0
    8.3003  -41.2925    2.1687 C   0  0  0  0  0  0  0  0  0  0  0  0
    8.6432  -34.4933    1.3192 O   0  0  0  0  0  0  0  0  0  0  0  0
    8.7738  -41.2682    3.4738 C   0  0  0  0  0  0  0  0  0  0  0  0
   10.0147  -40.2214    0.4692 C   0  0  0  0  0  0  0  0  0  0  0  0
    6.1762  -35.4843    1.2387 C   0  0  0  0  0  0  0  0  0  0  0  0
    5.5801  -45.0679    2.0391 O   0  0  0  0  0  0  0  0  0  0  0  0
    5.6582  -37.9966    0.2817 C   0  0  0  0  0  0  0  0  0  0  0  0
    4.8621  -35.9596    1.1451 C   0  0  0  0  0  0  0  0  0  0  0  0
    7.8431  -45.4255    1.2335 C   0  0  0  0  0  0  0  0  0  0  0  0
    7.9272  -38.5377   -0.2678 C   0  0  0  0  0  0  0  0  0  0  0  0
    8.6454  -40.4592    1.1063 C   0  0  0  0  0  0  0  0  0  0  0  0
    8.3615  -41.4435    6.6315 O   0  0  0  0  0  0  0  0  0  0  0  0
    3.3506  -37.7491    0.5373 O   0  0  0  0  0  0  0  0  0  0  0  0
    4.5841  -37.2510    0.6575 C   0  0  0  0  0  0  0  0  0  0  0  0
    7.2759  -42.2199    1.8524 C   0  0  0  0  0  0  0  0  0  0  0  0
    8.3523  -42.2448    4.3439 C   0  0  0  0  0  0  0  0  0  0  0  0
    6.9608  -37.5713    0.3397 C   0  0  0  0  0  0  0  0  0  0  0  0
  1 25  1  0
  1 29  1  0
  2  5  1  0
  2 10  1  0
  2 15  2  0
  3  7  1  0
  3 26  1  0
  4  6  2  0
  4 28  1  0
  5  8  1  0
  6  9  1  0
  9 23  1  0
  9 24  1  0
 10 18  2  0
 10 30  1  0
 11 13  2  0
 11 29  1  0
 12 13  1  0
 12 19  1  0
 12 22  1  0
 13 28  1  0
 14 16  1  0
 14 24  1  0
 14 28  1  0
 16 29  2  0
 17 24  1  0
 18 21  1  0
 20 27  1  0
 20 30  2  0
 21 27  2  0
 23 30  1  0
 26 27  1  0
M  END
>  <ID>  (1) 
conformer_0

$$$$
