
     RDKit          3D

 18 19  0  0  0  0  0  0  0  0999 V2000
    7.9584  -43.0707    4.5419 C   0  0  0  0  0  0  0  0  0  0  0  0
    7.2705  -35.5238    2.2368 O   0  0  0  0  0  0  0  0  0  0  0  0
    6.0451  -36.6408   -0.4182 C   0  0  0  0  0  0  0  0  0  0  0  0
    8.8538  -42.0165    4.3841 C   0  0  0  0  0  0  0  0  0  0  0  0
    7.2038  -42.7591    2.2716 C   0  0  0  0  0  0  0  0  0  0  0  0
    8.0570  -40.8869    0.9652 O   0  0  0  0  0  0  0  0  0  0  0  0
    6.1855  -38.0300   -1.2767 S   0  0  0  0  0  0  0  0  0  0  0  0
    7.1382  -43.4549    3.4581 C   0  0  0  0  0  0  0  0  0  0  0  0
    7.3085  -35.9138   -0.2319 C   0  0  0  0  0  0  0  0  0  0  0  0
    9.6128  -37.0577    2.1894 O   0  0  0  0  0  0  0  0  0  0  0  0
    7.0602  -39.8636    0.7959 C   0  0  0  0  0  0  0  0  0  0  0  0
    8.2386  -37.7580    0.2809 O   0  0  0  0  0  0  0  0  0  0  0  0
    8.0550  -35.5461    1.0639 C   0  0  0  0  0  0  0  0  0  0  0  0
    7.4299  -38.8686   -0.3250 C   0  0  0  0  0  0  0  0  0  0  0  0
    5.1031  -36.5596    0.5056 O   0  0  0  0  0  0  0  0  0  0  0  0
    9.0541  -36.8214    1.0630 C   0  0  0  0  0  0  0  0  0  0  0  0
    8.9207  -41.3457    3.1713 C   0  0  0  0  0  0  0  0  0  0  0  0
    8.0726  -41.6785    2.1315 C   0  0  0  0  0  0  0  0  0  0  0  0
  1  4  2  0
  1  8  1  0
  2 13  1  0
  3  7  1  0
  3  9  1  0
  3 15  2  0
  4 17  1  0
  5  8  2  0
  5 18  1  0
  6 11  1  0
  6 18  1  0
  7 14  1  0
  9 13  1  0
 10 16  1  0
 11 14  1  0
 12 14  1  0
 12 16  1  0
 13 16  1  0
 17 18  2  0
M  END
>  <ID>  (1) 
conformer_0

$$$$
