
     RDKit          3D

 24 27  0  0  0  0  0  0  0  0999 V2000
    8.2032  -36.1958    0.8125 C   0  0  0  0  0  0  0  0  0  0  0  0
    8.7639  -38.6235    1.0125 C   0  0  0  0  0  0  0  0  0  0  0  0
   11.0770  -38.6412    3.2469 C   0  0  0  0  0  0  0  0  0  0  0  0
    4.2053  -38.8265   -0.8122 C   0  0  0  0  0  0  0  0  0  0  0  0
    7.9129  -35.2085    1.5789 O   0  0  0  0  0  0  0  0  0  0  0  0
    8.0597  -39.0953   -0.2490 C   0  0  0  0  0  0  0  0  0  0  0  0
    3.9742  -37.8290    0.1977 C   0  0  0  0  0  0  0  0  0  0  0  0
   10.0340  -36.7350    2.1410 C   0  0  0  0  0  0  0  0  0  0  0  0
    8.4382  -42.6330    3.7157 C   0  0  0  0  0  0  0  0  0  0  0  0
   11.0144  -37.2116    3.0101 C   0  0  0  0  0  0  0  0  0  0  0  0
    7.4010  -36.3852   -0.3893 C   0  0  0  0  0  0  0  0  0  0  0  0
    8.1600  -42.0064    1.5752 C   0  0  0  0  0  0  0  0  0  0  0  0
    9.0607  -37.2442    1.3620 C   0  0  0  0  0  0  0  0  0  0  0  0
    5.1507  -36.9394    0.4769 C   0  0  0  0  0  0  0  0  0  0  0  0
    8.8222  -41.0060    2.1683 C   0  0  0  0  0  0  0  0  0  0  0  0
    6.3813  -37.4173   -0.1247 N   0  0  0  0  0  0  0  0  0  0  0  0
    9.2742  -39.6872    1.8659 C   0  0  0  0  0  0  0  0  0  0  0  0
    5.4501  -38.9795   -1.5425 C   0  0  0  0  0  0  0  0  0  0  0  0
    3.2126  -39.6662   -1.1892 N   0  0  0  0  0  0  0  0  0  0  0  0
   10.3096  -39.4192    2.6367 C   0  0  0  0  0  0  0  0  0  0  0  0
    8.3607  -43.2215    4.9597 F   0  0  0  0  0  0  0  0  0  0  0  0
    6.7095  -38.6809   -0.6993 C   0  0  0  0  0  0  0  0  0  0  0  0
    9.1046  -41.4430    3.5560 O   0  0  0  0  0  0  0  0  0  0  0  0
    7.8968  -43.0334    2.5537 C   0  0  0  0  0  0  0  0  0  0  0  0
  1  5  2  0
  1 11  1  0
  1 13  1  0
  2  6  1  0
  2 13  1  0
  2 17  1  0
  3 10  1  0
  3 20  2  0
  4  7  1  0
  4 18  1  0
  4 19  1  0
  6 22  1  0
  7 14  1  0
  8 10  1  0
  8 13  2  0
  9 21  1  0
  9 23  1  0
  9 24  1  0
 11 16  1  0
 12 15  1  0
 12 24  1  0
 14 16  1  0
 15 17  1  0
 15 23  1  0
 16 22  1  0
 17 20  1  0
 18 22  1  0
M  END
>  <ID>  (1) 
conformer_0

$$$$
