
     RDKit          3D

 22 23  0  0  0  0  0  0  0  0999 V2000
    4.9017  -36.8208   -0.1387 C   0  0  0  0  0  0  0  0  0  0  0  0
    8.7689  -39.3867    0.3453 C   0  0  0  0  0  0  0  0  0  0  0  0
    5.8971  -36.3944    2.0246 C   0  0  0  0  0  0  0  0  0  0  0  0
    8.7607  -41.1080    1.7337 N   0  0  0  0  0  0  0  0  0  0  0  0
    6.0671  -37.3653   -0.5675 C   0  0  0  0  0  0  0  0  0  0  0  0
    9.2591  -40.4438   -0.3553 O   0  0  0  0  0  0  0  0  0  0  0  0
    8.5617  -42.0449    2.8845 C   0  0  0  0  0  0  0  0  0  0  0  0
    8.5333  -39.7500    1.6099 C   0  0  0  0  0  0  0  0  0  0  0  0
    5.5951  -35.4853    7.2597 C   0  0  0  0  0  0  0  0  0  0  0  0
    8.4352  -38.0548   -0.3953 C   0  0  0  0  0  0  0  0  0  0  0  0
    9.2325  -41.5378    0.5251 C   0  0  0  0  0  0  0  0  0  0  0  0
    7.0989  -36.8991    1.5249 C   0  0  0  0  0  0  0  0  0  0  0  0
    6.0192  -35.7586    4.5483 O   0  0  0  0  0  0  0  0  0  0  0  0
    5.6902  -35.9328    3.3697 C   0  0  0  0  0  0  0  0  0  0  0  0
    9.0453  -41.6840    4.1839 C   0  0  0  0  0  0  0  0  0  0  0  0
    7.1079  -34.1173    8.4243 C   0  0  0  0  0  0  0  0  0  0  0  0
    5.5079  -35.3219    5.7866 C   0  0  0  0  0  0  0  0  0  0  0  0
    6.1878  -37.8532   -1.8791 F   0  0  0  0  0  0  0  0  0  0  0  0
    4.8033  -36.3314    1.1441 C   0  0  0  0  0  0  0  0  0  0  0  0
    6.8563  -35.3023    7.8508 O   0  0  0  0  0  0  0  0  0  0  0  0
    8.4015  -43.3552    2.5688 O   0  0  0  0  0  0  0  0  0  0  0  0
    7.2092  -37.4063    0.2409 C   0  0  0  0  0  0  0  0  0  0  0  0
  1  5  2  0
  1 19  1  0
  2  6  1  0
  2  8  1  0
  2 10  1  0
  3 12  1  0
  3 14  2  3
  3 19  1  0
  4  7  1  0
  4  8  1  0
  4 11  1  0
  5 18  1  0
  5 22  1  0
  6 11  1  0
  7 15  1  0
  7 21  2  0
  9 17  1  0
  9 20  1  0
 10 22  1  0
 12 22  2  0
 13 14  1  0
 13 17  1  0
 16 20  1  0
M  END
>  <ID>  (1) 
conformer_0

$$$$
