
     RDKit          3D

 26 26  0  0  0  0  0  0  0  0999 V2000
   10.4870  -40.7135   -0.6919 F   0  0  0  0  0  0  0  0  0  0  0  0
    5.9417  -38.0733   -0.9534 C   0  0  0  0  0  0  0  0  0  0  0  0
    9.0139  -42.2566    3.7950 C   0  0  0  0  0  0  0  0  0  0  0  0
    7.2081  -37.9586   -0.5518 C   0  0  0  0  0  0  0  0  0  0  0  0
    6.7369  -35.8681    2.4686 C   0  0  0  0  0  0  0  0  0  0  0  0
    9.7664  -38.2181    0.6262 F   0  0  0  0  0  0  0  0  0  0  0  0
    5.2109  -37.2585    1.1727 C   0  0  0  0  0  0  0  0  0  0  0  0
    5.6096  -35.8400    5.9338 C   0  0  0  0  0  0  0  0  0  0  0  0
    7.5656  -41.5366    1.7752 C   0  0  0  0  0  0  0  0  0  0  0  0
    6.4986  -36.7951    1.3751 C   0  0  0  0  0  0  0  0  0  0  0  0
    8.1184  -42.7613    2.6619 C   0  0  0  0  0  0  0  0  0  0  0  0
    6.9160  -42.4987    5.0683 C   0  0  0  0  0  0  0  0  0  0  0  0
    5.2164  -35.1684    4.5508 C   0  0  0  0  0  0  0  0  0  0  0  0
    5.7993  -38.2841   -2.2467 F   0  0  0  0  0  0  0  0  0  0  0  0
    7.4523  -37.1705    0.5023 C   0  0  0  0  0  0  0  0  0  0  0  0
    8.3348  -42.2022    5.1374 C   0  0  0  0  0  0  0  0  0  0  0  0
    6.8279  -34.9986    7.9704 C   0  0  0  0  0  0  0  0  0  0  0  0
    9.0623  -39.0157   -0.1369 C   0  0  0  0  0  0  0  0  0  0  0  0
    4.8868  -37.8337   -0.0562 C   0  0  0  0  0  0  0  0  0  0  0  0
    8.9150  -40.6702    1.7103 C   0  0  0  0  0  0  0  0  0  0  0  0
    4.2473  -37.1756    2.1324 O   0  0  0  0  0  0  0  0  0  0  0  0
    8.2033  -38.7592   -1.1350 O   0  0  0  0  0  0  0  0  0  0  0  0
    7.6627  -35.0660    2.3103 O   0  0  0  0  0  0  0  0  0  0  0  0
    5.6994  -34.7244    6.9662 C   0  0  0  0  0  0  0  0  0  0  0  0
    5.8919  -35.8985    3.5189 N   0  0  0  0  0  0  0  0  0  0  0  0
    9.2863  -40.4748    0.2161 C   0  0  0  0  0  0  0  0  0  0  0  0
  1 26  1  0
  2  4  1  0
  2 14  1  0
  2 19  2  0
  3 11  1  0
  3 16  1  0
  4 15  1  0
  4 22  1  0
  5 10  1  0
  5 23  2  0
  5 25  1  0
  6 18  1  0
  7 10  1  0
  7 19  1  0
  7 21  1  0
  8 13  1  0
  8 24  1  0
  9 11  1  0
  9 20  1  0
 10 15  2  0
 12 16  1  0
 13 25  1  0
 17 24  1  0
 18 22  1  0
 18 26  1  0
 20 26  1  0
M  END
>  <ID>  (1) 
conformer_0

$$$$
