
     RDKit          3D

 24 25  0  0  0  0  0  0  0  0999 V2000
    2.7523  -38.3022    3.1296 C   0  0  0  0  0  0  0  0  0  0  0  0
    2.9471  -37.5608    1.8566 C   0  0  0  0  0  0  0  0  0  0  0  0
    8.5774  -41.7481    1.2266 N   0  0  0  0  0  0  0  0  0  0  0  0
    6.9037  -37.7415   -1.0700 C   0  0  0  0  0  0  0  0  0  0  0  0
    6.6217  -38.0417    0.4215 C   0  0  0  0  0  0  0  0  0  0  0  0
    4.9988  -36.9989    3.0962 C   0  0  0  0  0  0  0  0  0  0  0  0
    5.7781  -38.2277   -1.9639 C   0  0  0  0  0  0  0  0  0  0  0  0
    3.2158  -39.5272    3.3099 F   0  0  0  0  0  0  0  0  0  0  0  0
    6.9699  -35.8484    1.2458 O   0  0  0  0  0  0  0  0  0  0  0  0
    9.6468  -36.1985    1.6281 C   0  0  0  0  0  0  0  0  0  0  0  0
    6.6491  -40.3732    1.4898 C   0  0  0  0  0  0  0  0  0  0  0  0
    5.1269  -38.0958    0.6818 C   0  0  0  0  0  0  0  0  0  0  0  0
   10.9172  -36.2186    2.3867 C   0  0  0  0  0  0  0  0  0  0  0  0
    4.4739  -37.2303    1.6991 C   0  0  0  0  0  0  0  0  0  0  0  0
    8.6713  -37.2220    1.6196 N   0  0  0  0  0  0  0  0  0  0  0  0
    9.2214  -40.7388    0.5351 C   0  0  0  0  0  0  0  0  0  0  0  0
    8.5603  -39.5607    0.3076 C   0  0  0  0  0  0  0  0  0  0  0  0
   11.1223  -37.2747    3.3842 C   0  0  0  0  0  0  0  0  0  0  0  0
    7.3005  -41.5455    1.6944 C   0  0  0  0  0  0  0  0  0  0  0  0
    7.3942  -36.9872    1.1909 C   0  0  0  0  0  0  0  0  0  0  0  0
    4.4221  -39.2071    0.2834 O   0  0  0  0  0  0  0  0  0  0  0  0
    7.2856  -39.3736    0.7713 C   0  0  0  0  0  0  0  0  0  0  0  0
    2.8169  -37.3285    4.2540 C   0  0  0  0  0  0  0  0  0  0  0  0
    3.9515  -36.3560    4.0328 C   0  0  0  0  0  0  0  0  0  0  0  0
  1  2  1  0
  1  8  1  0
  1 23  1  0
  2 14  1  0
  3 16  2  0
  3 19  1  0
  4  5  1  0
  4  7  1  0
  5 12  1  0
  5 20  1  0
  5 22  1  0
  6 14  1  0
  6 24  1  0
  9 20  2  0
 10 13  1  0
 10 15  2  3
 11 19  2  0
 11 22  1  0
 12 14  1  0
 12 21  1  0
 13 18  1  0
 15 20  1  0
 16 17  1  0
 17 22  2  0
 23 24  1  0
M  END
>  <ID>  (1) 
conformer_0

$$$$
