
     RDKit          3D

 31 31  0  0  0  0  0  0  0  0999 V2000
    8.0825  -40.8748    1.9310 C   0  0  0  0  0  0  0  0  0  0  0  0
    6.1176  -36.4038    1.1552 C   0  0  0  0  0  0  0  0  0  0  0  0
    4.3825  -36.9811    4.4424 C   0  0  0  0  0  0  0  0  0  0  0  0
    7.2050  -36.2392    0.2799 C   0  0  0  0  0  0  0  0  0  0  0  0
    8.9432  -41.2815    0.9075 N   0  0  0  0  0  0  0  0  0  0  0  0
    6.2982  -38.2719   -1.0640 C   0  0  0  0  0  0  0  0  0  0  0  0
    3.9770  -39.1433   -0.7966 O   0  0  0  0  0  0  0  0  0  0  0  0
    7.3982  -37.1682   -0.8336 C   0  0  0  0  0  0  0  0  0  0  0  0
    4.8636  -36.8168    0.7596 C   0  0  0  0  0  0  0  0  0  0  0  0
    6.9611  -39.5818   -0.5065 C   0  0  0  0  0  0  0  0  0  0  0  0
    5.0876  -36.4376    5.3107 O   0  0  0  0  0  0  0  0  0  0  0  0
    7.2829  -39.9745    2.1227 O   0  0  0  0  0  0  0  0  0  0  0  0
    9.3298  -40.3443   -0.0137 C   0  0  0  0  0  0  0  0  0  0  0  0
    8.3048  -34.4672    1.3519 F   0  0  0  0  0  0  0  0  0  0  0  0
    8.3724  -39.3603   -0.3723 C   0  0  0  0  0  0  0  0  0  0  0  0
    8.8601  -43.0476    3.0379 C   0  0  0  0  0  0  0  0  0  0  0  0
    8.2637  -41.6800    6.5080 C   0  0  0  0  0  0  0  0  0  0  0  0
    4.8929  -38.9071   -1.6110 C   0  0  0  0  0  0  0  0  0  0  0  0
    6.0717  -36.2414    2.5020 C   0  0  0  0  0  0  0  0  0  0  0  0
    4.0526  -37.0671    1.8435 C   0  0  0  0  0  0  0  0  0  0  0  0
    4.9579  -39.3000   -2.7489 O   0  0  0  0  0  0  0  0  0  0  0  0
    8.4307  -35.6524    0.9273 C   0  0  0  0  0  0  0  0  0  0  0  0
    8.7228  -37.9496   -0.7375 F   0  0  0  0  0  0  0  0  0  0  0  0
    4.8279  -36.7213    3.0282 C   0  0  0  0  0  0  0  0  0  0  0  0
    9.2850  -36.4225    1.5373 F   0  0  0  0  0  0  0  0  0  0  0  0
    7.1313  -43.4227    5.3181 O   0  0  0  0  0  0  0  0  0  0  0  0
    7.5598  -42.2389    5.3492 C   0  0  0  0  0  0  0  0  0  0  0  0
    3.4060  -37.7358    4.5409 O   0  0  0  0  0  0  0  0  0  0  0  0
    7.5045  -41.4103    4.2320 N   0  0  0  0  0  0  0  0  0  0  0  0
   10.3661  -40.4579   -0.7157 O   0  0  0  0  0  0  0  0  0  0  0  0
    8.2347  -41.7715    3.1248 C   0  0  0  0  0  0  0  0  0  0  0  0
  1  5  1  0
  1 12  2  0
  1 31  1  0
  2  4  1  0
  2  9  1  0
  2 19  1  0
  3 11  2  0
  3 24  1  0
  3 28  1  0
  4  8  1  0
  4 22  1  0
  5 13  1  0
  6  8  1  0
  6 10  1  0
  6 18  1  0
  7 18  2  0
  9 20  1  0
 10 15  1  0
 13 15  1  0
 13 30  2  0
 14 22  1  0
 15 23  1  0
 16 31  1  0
 17 27  1  0
 18 21  1  0
 19 24  1  0
 20 24  1  0
 22 25  1  0
 26 27  2  0
 27 29  1  0
 29 31  2  3
M  END
>  <ID>  (1) 
conformer_0

$$$$
