
     RDKit          3D

 25 25  0  0  0  0  0  0  0  0999 V2000
    5.9252  -43.2459    3.8151 O   0  0  0  0  0  1  0  0  0  0  0  0
    5.7708  -35.1812    6.4763 C   0  0  0  0  0  0  0  0  0  0  0  0
    7.9921  -43.6233    5.0575 O   0  0  0  0  0  1  0  0  0  0  0  0
    8.0308  -42.2317    2.9583 C   0  0  0  0  0  0  0  0  0  0  0  0
    8.1521  -35.2602    1.1595 C   0  0  0  0  0  0  0  0  0  0  0  0
    5.6877  -34.8989    5.0591 O   0  0  0  0  0  0  0  0  0  0  0  0
    7.2277  -36.2538    2.0028 C   0  0  0  0  0  0  0  0  0  0  0  0
    4.4928  -39.2998   -0.8659 C   0  0  0  0  0  0  0  0  0  0  0  0
    9.5079  -40.3250    2.9219 C   0  0  0  0  0  0  0  0  0  0  0  0
    6.7424  -38.7194   -0.2362 O   0  0  0  0  0  0  0  0  0  0  0  0
    8.0617  -40.7850    1.0938 N   0  0  0  0  0  0  0  0  0  0  0  0
    7.3492  -43.5292    3.7843 S   0  0  0  0  0  4  0  0  0  0  0  0
    9.0653  -38.5929    1.4029 O   0  0  0  0  0  0  0  0  0  0  0  0
    9.0414  -41.4945    3.5133 C   0  0  0  0  0  0  0  0  0  0  0  0
    7.6131  -41.9091    1.6522 C   0  0  0  0  0  0  0  0  0  0  0  0
    7.6818  -44.7926    2.7368 C   0  0  0  0  0  0  0  0  0  0  0  0
    8.8852  -39.9166    1.7629 C   0  0  0  0  0  0  0  0  0  0  0  0
    7.5509  -37.5612   -0.0648 C   0  0  0  0  0  0  0  0  0  0  0  0
    5.5613  -38.2841   -0.9931 C   0  0  0  0  0  0  0  0  0  0  0  0
    6.3633  -35.7528    2.9491 O   0  0  0  0  0  0  0  0  0  0  0  0
    9.0315  -37.9757    0.1381 C   0  0  0  0  0  0  0  0  0  0  0  0
    4.1864  -39.9410   -2.1755 C   0  0  0  0  0  0  0  0  0  0  0  0
    9.3115  -39.0026   -0.9805 C   0  0  0  0  0  0  0  0  0  0  0  0
    6.8232  -37.5369    1.2143 C   0  0  0  0  0  0  0  0  0  0  0  0
    5.8367  -36.0901    4.1944 C   0  0  0  0  0  0  0  0  0  0  0  0
  1 12  1  0
  2  6  1  0
  3 12  1  0
  4 12  1  0
  4 14  2  0
  4 15  1  0
  5  7  1  0
  6 25  1  0
  7 20  1  0
  7 24  1  0
  8 19  1  0
  8 22  1  0
  9 14  1  0
  9 17  2  0
 10 18  1  0
 10 19  1  0
 11 15  2  0
 11 17  1  0
 12 16  1  0
 13 17  1  0
 13 21  1  0
 18 21  1  0
 18 24  1  0
 20 25  1  0
 21 23  1  0
M  END
>  <ID>  (1) 
conformer_0

$$$$
