
     RDKit          3D

 30 33  0  0  0  0  0  0  0  0999 V2000
    7.2634  -41.7432    1.4531 C   0  0  0  0  0  0  0  0  0  0  0  0
    6.2544  -43.8571    2.2225 C   0  0  0  0  0  0  0  0  0  0  0  0
    5.7917  -45.0317    1.6524 C   0  0  0  0  0  0  0  0  0  0  0  0
    7.0169  -42.7259    5.5746 C   0  0  0  0  0  0  0  0  0  0  0  0
    4.9365  -44.5561    0.5036 C   0  0  0  0  0  0  0  0  0  0  0  0
    9.2559  -36.2164    1.2833 C   0  0  0  0  0  0  0  0  0  0  0  0
    6.7679  -36.2713    1.4389 C   0  0  0  0  0  0  0  0  0  0  0  0
    6.7866  -43.1282    3.2741 C   0  0  0  0  0  0  0  0  0  0  0  0
    6.3780  -43.3490    4.5390 C   0  0  0  0  0  0  0  0  0  0  0  0
    6.8678  -35.2810    2.3199 O   0  0  0  0  0  0  0  0  0  0  0  0
    8.0746  -41.9833    5.6923 C   0  0  0  0  0  0  0  0  0  0  0  0
    8.5689  -40.9711    0.8721 C   0  0  0  0  0  0  0  0  0  0  0  0
    8.9358  -41.4972    4.7922 C   0  0  0  0  0  0  0  0  0  0  0  0
    9.8341  -36.8956    2.3326 O   0  0  0  0  0  0  0  0  0  0  0  0
    7.8640  -37.7502   -0.0585 C   0  0  0  0  0  0  0  0  0  0  0  0
    5.3521  -38.8817   -2.4919 O   0  0  0  0  0  0  0  0  0  0  0  0
    4.1264  -38.2387   -0.5030 C   0  0  0  0  0  0  0  0  0  0  0  0
    6.6564  -38.1306   -0.5421 C   0  0  0  0  0  0  0  0  0  0  0  0
    5.5043  -43.3198    0.0994 N   0  0  0  0  0  0  0  0  0  0  0  0
    3.1182  -38.6718    0.3923 C   0  0  0  0  0  0  0  0  0  0  0  0
    5.4525  -37.6832   -0.0107 C   0  0  0  0  0  0  0  0  0  0  0  0
    7.6294  -42.1356    2.8901 C   0  0  0  0  0  0  0  0  0  0  0  0
    6.2339  -40.8042    1.3797 O   0  0  0  0  0  0  0  0  0  0  0  0
    4.3953  -39.3955   -1.4832 C   0  0  0  0  0  0  0  0  0  0  0  0
    9.1353  -38.4884   -0.4458 C   0  0  0  0  0  0  0  0  0  0  0  0
    9.3048  -39.7791    0.2162 C   0  0  0  0  0  0  0  0  0  0  0  0
    7.9542  -36.7519    0.8926 C   0  0  0  0  0  0  0  0  0  0  0  0
    5.5126  -36.7366    1.0109 C   0  0  0  0  0  0  0  0  0  0  0  0
    6.5808  -43.0055    0.9417 N   0  0  0  0  0  0  0  0  0  0  0  0
    8.6927  -41.5643    3.4490 C   0  0  0  0  0  0  0  0  0  0  0  0
  1 12  1  0
  1 22  1  0
  1 23  1  0
  1 29  1  0
  2  3  1  0
  2  8  1  0
  2 29  1  0
  3  5  1  0
  4  9  1  0
  4 11  2  0
  5 19  1  0
  6 14  1  0
  6 27  1  0
  7 10  1  0
  7 27  2  0
  7 28  1  0
  8  9  2  0
  8 22  1  0
 11 13  1  0
 12 26  2  3
 13 30  2  0
 15 18  2  0
 15 25  1  0
 15 27  1  0
 16 24  1  0
 17 20  1  0
 17 21  1  0
 17 24  1  0
 18 21  1  0
 19 29  1  0
 21 28  2  0
 22 30  1  0
 25 26  1  0
M  END
>  <ID>  (1) 
conformer_0

$$$$
