
     RDKit          3D

 19 20  0  0  0  0  0  0  0  0999 V2000
    8.7439  -40.2922    1.4519 O   0  0  0  0  0  0  0  0  0  0  0  0
    7.2114  -39.9356   -0.4029 C   0  0  0  0  0  0  0  0  0  0  0  0
    6.2173  -38.9537   -0.6755 C   0  0  0  0  0  0  0  0  0  0  0  0
    5.2136  -38.9008   -1.6372 C   0  0  0  0  0  0  0  0  0  0  0  0
    6.2921  -35.7849    1.2098 C   0  0  0  0  0  0  0  0  0  0  0  0
    8.2742  -34.8069    1.9839 O   0  0  0  0  0  0  0  0  0  0  0  0
    9.6038  -41.5654    4.0150 O   0  0  0  0  0  0  0  0  0  0  0  0
    7.7218  -38.0716    0.8214 C   0  0  0  0  0  0  0  0  0  0  0  0
    8.4065  -41.9577    3.8958 C   0  0  0  0  0  0  0  0  0  0  0  0
    4.6766  -39.7843   -2.3914 N   0  0  0  0  0  0  0  0  0  0  0  0
    8.0314  -39.4316    0.6026 C   0  0  0  0  0  0  0  0  0  0  0  0
    7.6479  -35.8617    1.5938 C   0  0  0  0  0  0  0  0  0  0  0  0
    5.7005  -36.8035    0.4838 C   0  0  0  0  0  0  0  0  0  0  0  0
    7.9210  -42.3280    2.5563 C   0  0  0  0  0  0  0  0  0  0  0  0
    7.5175  -41.8883    4.9069 O   0  0  0  0  0  0  0  0  0  0  0  0
    6.4658  -37.8752    0.1952 C   0  0  0  0  0  0  0  0  0  0  0  0
    9.9700  -37.1536    1.8495 Cl  0  0  0  0  0  0  0  0  0  0  0  0
    8.3363  -37.0369    1.4368 C   0  0  0  0  0  0  0  0  0  0  0  0
    8.3931  -41.6487    1.3314 C   0  0  0  0  0  0  0  0  0  0  0  0
  1 11  1  0
  1 19  1  0
  2  3  1  0
  2 11  1  0
  3  4  1  0
  3 16  1  0
  4 10  2  0
  5 12  1  0
  5 13  1  0
  6 12  1  0
  7  9  2  0
  8 11  1  0
  8 16  1  0
  8 18  1  0
  9 14  1  0
  9 15  1  0
 12 18  2  0
 13 16  2  0
 14 19  1  0
 17 18  1  0
M  END
>  <ID>  (1) 
conformer_0

$$$$
