
     RDKit          3D

 23 25  0  0  0  0  0  0  0  0999 V2000
    8.7896  -37.4747    1.3325 C   0  0  0  0  0  0  0  0  0  0  0  0
    9.5165  -39.0544    3.0703 C   0  0  0  0  0  0  0  0  0  0  0  0
    5.8275  -38.9119   -0.7632 C   0  0  0  0  0  0  0  0  0  0  0  0
    6.7658  -35.3480    2.1353 O   0  0  0  0  0  0  0  0  0  0  0  0
    8.1827  -39.8177    0.8950 C   0  0  0  0  0  0  0  0  0  0  0  0
    8.6317  -36.0776    0.7887 C   0  0  0  0  0  0  0  0  0  0  0  0
    7.9279  -38.4287    0.5162 C   0  0  0  0  0  0  0  0  0  0  0  0
    4.8823  -36.4070    0.2243 O   0  0  0  0  0  0  0  0  0  0  0  0
    9.9842  -39.8080    4.2093 C   0  0  0  0  0  0  0  0  0  0  0  0
    8.8869  -40.0263    2.1587 C   0  0  0  0  0  0  0  0  0  0  0  0
    6.2614  -36.5937    0.0145 C   0  0  0  0  0  0  0  0  0  0  0  0
    8.2194  -42.3812    2.0887 N   0  0  0  0  0  0  0  0  0  0  0  0
    8.8423  -41.2734    2.8200 C   0  0  0  0  0  0  0  0  0  0  0  0
    6.7781  -37.9752   -0.1985 C   0  0  0  0  0  0  0  0  0  0  0  0
    9.7354  -37.7898    2.4335 C   0  0  0  0  0  0  0  0  0  0  0  0
    9.5844  -41.1651    4.1342 C   0  0  0  0  0  0  0  0  0  0  0  0
   10.9109  -39.1312    5.1963 C   0  0  0  0  0  0  0  0  0  0  0  0
    5.1330  -38.4368   -1.9459 C   0  0  0  0  0  0  0  0  0  0  0  0
    8.3634  -43.5211    4.2398 C   0  0  0  0  0  0  0  0  0  0  0  0
    5.5936  -40.2765   -0.3361 C   0  0  0  0  0  0  0  0  0  0  0  0
    7.1627  -35.6754    0.7716 C   0  0  0  0  0  0  0  0  0  0  0  0
    8.1212  -43.5607    2.7672 C   0  0  0  0  0  0  0  0  0  0  0  0
    7.5954  -42.7413    5.1613 C   0  0  0  0  0  0  0  0  0  0  0  0
  1  6  1  0
  1  7  1  0
  1 15  1  0
  2  9  2  0
  2 10  1  0
  2 15  1  0
  3 14  1  0
  3 18  1  0
  3 20  1  0
  4 21  1  0
  5  7  1  0
  5 10  1  0
  6 21  1  0
  7 14  1  0
  8 11  1  0
  9 16  1  0
  9 17  1  0
 10 13  2  0
 11 14  1  0
 11 21  1  0
 12 13  1  0
 12 22  2  3
 13 16  1  0
 19 22  1  0
 19 23  1  0
M  END
>  <ID>  (1) 
conformer_0

$$$$
