
     RDKit          3D

 24 27  0  0  0  0  0  0  0  0999 V2000
   10.6585  -37.4251    2.9636 C   0  0  0  0  0  0  0  0  0  0  0  0
    9.9555  -38.5898    2.2446 O   0  0  0  0  0  0  0  0  0  0  0  0
    6.4128  -35.6488    2.0156 C   0  0  0  0  0  0  0  0  0  0  0  0
    6.9072  -35.9893   -0.3642 C   0  0  0  0  0  0  0  0  0  0  0  0
    8.6643  -40.3353    0.8722 C   0  0  0  0  0  0  0  0  0  0  0  0
    5.9826  -37.2238    0.2069 C   0  0  0  0  0  0  0  0  0  0  0  0
    5.9108  -38.0486   -2.0930 C   0  0  0  0  0  0  0  0  0  0  0  0
    8.5899  -36.6708    1.1622 C   0  0  0  0  0  0  0  0  0  0  0  0
    7.9760  -42.5959    1.6412 C   0  0  0  0  0  0  0  0  0  0  0  0
    7.5462  -35.6140    0.9900 C   0  0  0  0  0  0  0  0  0  0  0  0
    9.0296  -41.0786    3.1833 C   0  0  0  0  0  0  0  0  0  0  0  0
    8.8956  -41.9744    4.2096 C   0  0  0  0  0  0  0  0  0  0  0  0
    8.5696  -41.3643    1.9280 C   0  0  0  0  0  0  0  0  0  0  0  0
    8.0264  -38.0197    0.8632 C   0  0  0  0  0  0  0  0  0  0  0  0
    8.0966  -34.2974    1.0323 F   0  0  0  0  0  0  0  0  0  0  0  0
    8.3515  -43.2238    3.9435 C   0  0  0  0  0  0  0  0  0  0  0  0
    8.9063  -39.0261    1.4049 N   0  0  0  0  0  0  0  0  0  0  0  0
    9.8606  -36.0965    0.9153 F   0  0  0  0  0  0  0  0  0  0  0  0
    7.8172  -38.4287   -0.5932 C   0  0  0  0  0  0  0  0  0  0  0  0
    8.9467  -38.3906   -1.4144 C   0  0  0  0  0  0  0  0  0  0  0  0
    6.3641  -38.3504   -0.8305 C   0  0  0  0  0  0  0  0  0  0  0  0
    5.2329  -36.2836    1.2243 C   0  0  0  0  0  0  0  0  0  0  0  0
    7.8633  -43.5201    2.6731 C   0  0  0  0  0  0  0  0  0  0  0  0
    6.7203  -38.0961    1.3735 O   0  0  0  0  0  0  0  0  0  0  0  0
  1  2  1  0
  2 17  1  0
  3 10  1  0
  3 22  1  0
  4  6  1  0
  4 10  1  0
  5 13  1  0
  5 17  1  0
  6 21  1  0
  6 22  1  0
  6 24  1  0
  7 21  1  0
  8 10  1  0
  8 14  1  0
  8 18  1  0
  9 13  2  0
  9 23  1  0
 10 15  1  0
 11 12  2  0
 11 13  1  0
 12 16  1  0
 14 17  1  0
 14 19  1  0
 14 24  1  0
 16 23  2  0
 19 20  1  0
 19 21  1  0
M  END
>  <ID>  (1) 
conformer_0

$$$$
