
     RDKit          3D

 33 35  0  0  0  0  0  0  0  0999 V2000
    8.5535  -40.3780    1.0828 C   0  0  0  0  0  0  0  0  0  0  0  0
    5.3399  -35.0834    5.1887 C   0  0  0  0  0  0  0  0  0  0  0  0
    3.9788  -38.3210   -0.4452 C   0  0  0  0  0  0  0  0  0  0  0  0
    6.0724  -35.3820    7.4339 C   0  0  0  0  0  0  0  0  0  0  0  0
    8.8182  -37.6664    1.1601 N   0  0  0  0  0  0  0  0  0  0  0  0
    7.7904  -41.5466    1.5651 C   0  0  0  0  0  0  0  0  0  0  0  0
    8.4464  -39.6579   -0.1611 C   0  0  0  0  0  0  0  0  0  0  0  0
    8.5801  -42.4744    3.6504 C   0  0  0  0  0  0  0  0  0  0  0  0
    3.7401  -37.2677    2.7581 C   0  0  0  0  0  0  0  0  0  0  0  0
    3.8529  -36.5738    4.0646 C   0  0  0  0  0  0  0  0  0  0  0  0
    4.1114  -39.8452   -2.3903 C   0  0  0  0  0  0  0  0  0  0  0  0
    5.4389  -36.0155    6.2204 O   0  0  0  0  0  0  0  0  0  0  0  0
    4.2709  -36.4572    1.6263 C   0  0  0  0  0  0  0  0  0  0  0  0
    2.9624  -40.2406   -1.5000 C   0  0  0  0  0  0  0  0  0  0  0  0
    3.0924  -38.3913    2.4991 O   0  0  0  0  0  0  0  0  0  0  0  0
    9.4074  -39.7660    2.0545 C   0  0  0  0  0  0  0  0  0  0  0  0
    7.6482  -41.4210    3.0207 O   0  0  0  0  0  0  0  0  0  0  0  0
    7.8338  -43.0274    1.4256 C   0  0  0  0  0  0  0  0  0  0  0  0
    8.3846  -38.2146   -0.0901 C   0  0  0  0  0  0  0  0  0  0  0  0
    3.6245  -40.7875   -0.2754 C   0  0  0  0  0  0  0  0  0  0  0  0
    7.0364  -37.6105   -0.3255 C   0  0  0  0  0  0  0  0  0  0  0  0
    6.0744  -37.8329    0.6510 O   0  0  0  0  0  0  0  0  0  0  0  0
    8.2597  -43.6784    2.8082 C   0  0  0  0  0  0  0  0  0  0  0  0
    8.2666  -42.5764    5.1462 C   0  0  0  0  0  0  0  0  0  0  0  0
    9.6669  -38.4060    1.9052 N   0  0  0  0  0  0  0  0  0  0  0  0
    4.9248  -38.8549   -1.5344 C   0  0  0  0  0  0  0  0  0  0  0  0
    4.6814  -37.4054    0.5214 C   0  0  0  0  0  0  0  0  0  0  0  0
    4.8276  -35.4494    3.9265 O   0  0  0  0  0  0  0  0  0  0  0  0
    8.6231  -36.2487    1.3667 C   0  0  0  0  0  0  0  0  0  0  0  0
    9.6067  -35.5619    1.0876 F   0  0  0  0  0  0  0  0  0  0  0  0
    6.9572  -36.6569   -1.2088 O   0  0  0  0  0  0  0  0  0  0  0  0
    7.3857  -35.6268    1.6189 C   0  0  0  0  0  0  0  0  0  0  0  0
    3.0955  -39.4547   -0.1164 C   0  0  0  0  0  0  0  0  0  0  0  0
  1  6  1  0
  1  7  1  0
  1 16  1  0
  2 12  1  0
  2 28  1  0
  3 26  1  0
  3 27  1  0
  3 33  1  0
  4 12  1  0
  5 19  1  0
  5 25  1  0
  5 29  1  0
  6 17  1  0
  6 18  1  0
  7 19  1  0
  8 17  1  0
  8 23  1  0
  8 24  1  0
  9 10  1  0
  9 13  1  0
  9 15  1  0
 10 28  1  0
 11 14  1  0
 11 26  1  0
 13 27  1  0
 14 20  1  0
 16 25  1  0
 18 23  1  0
 19 21  1  0
 20 33  1  0
 21 22  1  0
 21 31  2  0
 22 27  1  0
 29 30  1  0
 29 32  1  0
M  END
>  <ID>  (1) 
conformer_0

$$$$
