
     RDKit          3D

 22 23  0  0  0  0  0  0  0  0999 V2000
    4.9678  -36.4042    0.3439 C   0  0  0  0  0  0  0  0  0  0  0  0
    8.3123  -42.8404    3.5577 C   0  0  0  0  0  0  0  0  0  0  0  0
    6.2610  -35.7420    0.5718 O   0  0  0  0  0  0  0  0  0  0  0  0
    7.4579  -36.4994    0.6953 C   0  0  0  0  0  0  0  0  0  0  0  0
    9.5771  -36.9446    1.8644 C   0  0  0  0  0  0  0  0  0  0  0  0
    9.3586  -38.2845    1.4713 C   0  0  0  0  0  0  0  0  0  0  0  0
   10.2343  -39.2320    1.8353 F   0  0  0  0  0  0  0  0  0  0  0  0
   11.4485  -37.5803    3.5119 C   0  0  0  0  0  0  0  0  0  0  0  0
    8.5098  -41.5215    2.8671 C   0  0  0  0  0  0  0  0  0  0  0  0
    7.9598  -40.2094    0.6519 C   0  0  0  0  0  0  0  0  0  0  0  0
   10.6642  -36.5005    2.7001 C   0  0  0  0  0  0  0  0  0  0  0  0
    7.4863  -37.7127    0.1080 C   0  0  0  0  0  0  0  0  0  0  0  0
    8.2588  -38.6931    0.6935 C   0  0  0  0  0  0  0  0  0  0  0  0
    6.7410  -37.9003   -1.1704 C   0  0  0  0  0  0  0  0  0  0  0  0
    8.2289  -42.9194    4.8997 O   0  0  0  0  0  0  0  0  0  0  0  0
    4.9958  -39.1444   -2.1103 O   0  0  0  0  0  0  0  0  0  0  0  0
    8.5588  -36.0468    1.4136 C   0  0  0  0  0  0  0  0  0  0  0  0
    8.0529  -41.5449    1.4309 C   0  0  0  0  0  0  0  0  0  0  0  0
    4.5108  -37.7985   -0.1045 C   0  0  0  0  0  0  0  0  0  0  0  0
   11.8323  -36.7713    4.8340 C   0  0  0  0  0  0  0  0  0  0  0  0
    5.3871  -38.3806   -1.1313 C   0  0  0  0  0  0  0  0  0  0  0  0
    8.1225  -43.8727    2.8359 O   0  0  0  0  0  0  0  0  0  0  0  0
  1  3  1  0
  1 19  1  0
  2  9  1  0
  2 15  2  0
  2 22  1  0
  3  4  1  0
  4 12  1  0
  4 17  1  0
  5  6  2  0
  5 11  1  0
  5 17  1  0
  6  7  1  0
  6 13  1  0
  8 11  1  0
  8 20  1  0
  9 18  1  0
 10 13  1  0
 10 18  2  3
 12 13  1  0
 12 14  1  0
 14 21  1  0
 16 21  1  0
 19 21  1  0
M  END
>  <ID>  (1) 
conformer_0

$$$$
