
     RDKit          3D

 40 43  0  0  0  0  0  0  0  0999 V2000
    3.9969  -37.5249    0.6960 C   0  0  0  0  0  0  0  0  0  0  0  0
    4.1358  -39.3060   -1.4667 C   0  0  0  0  0  0  0  0  0  0  0  0
    7.4672  -42.9460    4.5857 C   0  0  0  0  0  0  0  0  0  0  0  0
    6.7944  -36.1451    2.5082 O   0  0  0  0  0  0  0  0  0  0  0  0
    9.0237  -39.8811    0.5211 C   0  0  0  0  0  0  0  0  0  0  0  0
    4.6876  -44.0791    2.3276 O   0  0  0  0  0  0  0  0  0  0  0  0
    8.1272  -38.7997    0.2584 C   0  0  0  0  0  0  0  0  0  0  0  0
    6.2496  -38.4529   -1.9622 F   0  0  0  0  0  0  0  0  0  0  0  0
    4.1627  -36.3907    1.6935 C   0  0  0  0  0  0  0  0  0  0  0  0
    3.9700  -36.5531    3.1785 C   0  0  0  0  0  0  0  0  0  0  0  0
    8.9804  -37.8488   -0.4673 C   0  0  0  0  0  0  0  0  0  0  0  0
    5.6613  -44.0698    3.4455 O   0  0  0  0  0  0  0  0  0  0  0  0
    6.2522  -37.1210    0.3837 O   0  0  0  0  0  0  0  0  0  0  0  0
   11.7641  -41.1858   -1.5337 F   0  0  0  0  0  0  0  0  0  0  0  0
    9.9962  -38.5848   -1.2037 C   0  0  0  0  0  0  0  0  0  0  0  0
    4.2435  -40.0936   -2.5115 F   0  0  0  0  0  0  0  0  0  0  0  0
    5.1852  -38.5166   -1.1525 C   0  0  0  0  0  0  0  0  0  0  0  0
    8.1649  -41.7019    2.1635 C   0  0  0  0  0  0  0  0  0  0  0  0
    8.3945  -34.6154    1.1958 O   0  0  0  0  0  0  0  0  0  0  0  0
    8.8852  -41.4607    3.3162 C   0  0  0  0  0  0  0  0  0  0  0  0
    2.5386  -36.9693    3.4492 C   0  0  0  0  0  0  0  0  0  0  0  0
    1.5797  -36.7797    2.2675 C   0  0  0  0  0  0  0  0  0  0  0  0
    8.4977  -42.0149    4.5394 C   0  0  0  0  0  0  0  0  0  0  0  0
   10.5512  -41.1121   -0.8389 C   0  0  0  0  0  0  0  0  0  0  0  0
    8.6201  -41.2399    0.8530 C   0  0  0  0  0  0  0  0  0  0  0  0
    5.1379  -37.7385   -0.0278 C   0  0  0  0  0  0  0  0  0  0  0  0
    7.0313  -42.5253    2.2266 C   0  0  0  0  0  0  0  0  0  0  0  0
    4.1258  -35.8465    5.6895 C   0  0  0  0  0  0  0  0  0  0  0  0
    9.6232  -37.1068    1.7737 O   0  0  0  0  0  0  0  0  0  0  0  0
    0.6518  -35.8982    4.4850 O   0  0  0  0  0  0  0  0  0  0  0  0
    2.6392  -35.9241    5.8394 C   0  0  0  0  0  0  0  0  0  0  0  0
    4.7039  -35.8557    4.3014 C   0  0  0  0  0  0  0  0  0  0  0  0
    8.0860  -35.7801    0.5540 C   0  0  0  0  0  0  0  0  0  0  0  0
    1.9110  -36.4992    4.6902 C   0  0  0  0  0  0  0  0  0  0  0  0
    2.9285  -38.3736    0.3450 C   0  0  0  0  0  0  0  0  0  0  0  0
    6.7154  -43.1925    3.4194 C   0  0  0  0  0  0  0  0  0  0  0  0
    6.9334  -36.4498    1.2582 C   0  0  0  0  0  0  0  0  0  0  0  0
    9.3177  -36.7153    0.4470 C   0  0  0  0  0  0  0  0  0  0  0  0
    3.0117  -39.2543   -0.6874 C   0  0  0  0  0  0  0  0  0  0  0  0
    9.9742  -39.8824   -0.6040 C   0  0  0  0  0  0  0  0  0  0  0  0
  1  9  1  0
  1 26  2  0
  1 35  1  0
  2 16  1  0
  2 17  2  0
  2 39  1  0
  3 23  2  0
  3 36  1  0
  4 37  2  0
  5  7  1  0
  5 25  1  0
  5 40  1  0
  6 12  1  0
  7 11  1  0
  8 17  1  0
  9 10  1  0
 10 21  1  0
 10 32  2  0
 11 15  1  0
 11 38  1  0
 12 36  1  0
 13 26  1  0
 13 37  1  0
 14 24  1  0
 15 40  1  0
 17 26  1  0
 18 20  2  0
 18 25  1  0
 18 27  1  0
 19 33  1  0
 20 23  1  0
 21 22  1  0
 21 34  1  0
 24 40  1  0
 27 36  2  0
 28 31  1  0
 28 32  1  0
 29 38  1  0
 30 34  1  0
 31 34  1  0
 33 37  1  0
 33 38  1  0
 35 39  2  0
M  END
>  <ID>  (1) 
conformer_0

$$$$
