
     RDKit          3D

 19 20  0  0  0  0  0  0  0  0999 V2000
    8.2038  -41.3411    1.2331 C   0  0  0  0  0  0  0  0  0  0  0  0
    7.8688  -43.3485    4.4399 C   0  0  0  0  0  0  0  0  0  0  0  0
    8.6720  -41.2083    3.8066 O   0  0  0  0  0  0  0  0  0  0  0  0
    9.6894  -39.4857    1.4676 O   0  0  0  0  0  0  0  0  0  0  0  0
    5.5295  -37.3378    0.1893 C   0  0  0  0  0  0  0  0  0  0  0  0
    8.2385  -41.9726    5.0219 C   0  0  0  0  0  0  0  0  0  0  0  0
    8.8386  -36.6883    0.7873 C   0  0  0  0  0  0  0  0  0  0  0  0
    8.5328  -39.9472    1.0445 C   0  0  0  0  0  0  0  0  0  0  0  0
    8.2198  -43.2616    2.9278 C   0  0  0  0  0  0  0  0  0  0  0  0
    6.9113  -41.4618    5.6659 C   0  0  0  0  0  0  0  0  0  0  0  0
    8.3745  -41.8111    2.6035 C   0  0  0  0  0  0  0  0  0  0  0  0
    7.7626  -35.8239    2.7247 O   0  0  0  0  0  0  0  0  0  0  0  0
    7.6807  -35.7852    1.2580 C   0  0  0  0  0  0  0  0  0  0  0  0
    6.1156  -37.8522   -1.1437 C   0  0  0  0  0  0  0  0  0  0  0  0
    5.3419  -35.7061    1.9327 O   0  0  0  0  0  0  0  0  0  0  0  0
    8.2908  -37.8609   -0.0445 C   0  0  0  0  0  0  0  0  0  0  0  0
    6.2381  -36.1504    0.8805 C   0  0  0  0  0  0  0  0  0  0  0  0
    7.6298  -38.9380    0.6557 O   0  0  0  0  0  0  0  0  0  0  0  0
    7.5582  -37.2407   -1.2427 C   0  0  0  0  0  0  0  0  0  0  0  0
  1  8  1  0
  1 11  1  0
  2  6  1  0
  2  9  1  0
  3  6  1  0
  3 11  1  0
  4  8  2  0
  5 14  1  0
  5 17  1  0
  6 10  1  0
  7 13  1  0
  7 16  1  0
  8 18  1  0
  9 11  1  0
 12 13  1  0
 13 17  1  0
 14 19  1  0
 15 17  1  0
 16 18  1  0
 16 19  1  0
M  END
>  <ID>  (1) 
conformer_0

$$$$
