
     RDKit          3D

 17 19  0  0  0  0  0  0  0  0999 V2000
    8.3489  -36.9527    1.2238 C   0  0  0  0  0  0  0  0  0  0  0  0
    8.0274  -41.7856    1.5299 C   0  0  0  0  0  0  0  0  0  0  0  0
    8.2378  -40.4633    1.1920 C   0  0  0  0  0  0  0  0  0  0  0  0
    6.2904  -36.0943    1.9835 C   0  0  0  0  0  0  0  0  0  0  0  0
    7.6848  -36.2286    2.3045 N   0  0  0  0  0  0  0  0  0  0  0  0
    7.4896  -36.6892    0.0267 C   0  0  0  0  0  0  0  0  0  0  0  0
    9.1513  -38.0991    1.7581 C   0  0  0  0  0  0  0  0  0  0  0  0
    8.6848  -42.3397    2.6650 C   0  0  0  0  0  0  0  0  0  0  0  0
    9.7432  -40.2190    3.0145 C   0  0  0  0  0  0  0  0  0  0  0  0
   10.1548  -37.5556    2.4427 O   0  0  0  0  0  0  0  0  0  0  0  0
    7.6937  -37.7090   -1.1015 C   0  0  0  0  0  0  0  0  0  0  0  0
    9.5334  -41.5225    3.3858 C   0  0  0  0  0  0  0  0  0  0  0  0
    5.3763  -37.9048   -0.4447 C   0  0  0  0  0  0  0  0  0  0  0  0
    6.2972  -37.8131   -1.7332 C   0  0  0  0  0  0  0  0  0  0  0  0
    5.5008  -35.6350    2.8723 F   0  0  0  0  0  0  0  0  0  0  0  0
    5.9675  -36.6564    0.5251 C   0  0  0  0  0  0  0  0  0  0  0  0
    9.0707  -39.6279    1.9667 C   0  0  0  0  0  0  0  0  0  0  0  0
  1  5  1  0
  1  6  1  0
  1  7  1  0
  2  3  2  0
  2  8  1  0
  3 17  1  0
  4  5  1  0
  4 15  1  0
  4 16  1  0
  6 11  1  0
  6 16  1  0
  7 10  1  0
  7 17  1  0
  8 12  2  0
  9 12  1  0
  9 17  2  0
 11 14  1  0
 13 14  1  0
 13 16  1  0
M  END
>  <ID>  (1) 
conformer_0

$$$$
