
     RDKit          3D

 31 31  0  0  0  0  0  0  0  0999 V2000
    7.3537  -40.4408    1.4114 C   0  0  0  0  0  0  0  0  0  0  0  0
    8.7871  -39.5621   -0.2266 C   0  0  0  0  0  0  0  0  0  0  0  0
    8.3828  -43.6468    2.3640 C   0  0  0  0  0  0  0  0  0  0  0  0
    5.3018  -39.3785   -0.9452 C   0  0  0  0  0  0  0  0  0  0  0  0
    3.0866  -40.7512   -1.7754 C   0  0  0  0  0  0  0  0  0  0  0  0
    7.4986  -39.5594    0.3136 C   0  0  0  0  0  0  0  0  0  0  0  0
    6.9555  -43.0768    4.6064 C   0  0  0  0  0  0  0  0  0  0  0  0
    9.6781  -40.1621    0.0204 C   0  0  0  0  0  0  0  0  0  0  0  0
    8.2988  -42.2327    2.7411 C   0  0  0  0  0  0  0  0  0  0  0  0
    4.2082  -36.8823    3.1659 C   0  0  0  0  0  0  0  0  0  0  0  0
    9.3787  -36.9061    2.2533 F   0  0  0  0  0  0  0  0  0  0  0  0
    7.8165  -41.8897    4.1495 C   0  0  0  0  0  0  0  0  0  0  0  0
    2.5616  -42.1065   -1.1269 C   0  0  0  0  0  0  0  0  0  0  0  0
    6.4980  -37.4575   -0.5225 C   0  0  0  0  0  0  0  0  0  0  0  0
    8.0546  -41.2538    1.8060 C   0  0  0  0  0  0  0  0  0  0  0  0
    5.8856  -37.2407   -1.7250 C   0  0  0  0  0  0  0  0  0  0  0  0
    6.4642  -38.7919   -0.2281 C   0  0  0  0  0  0  0  0  0  0  0  0
    5.5070  -36.2727    2.6505 C   0  0  0  0  0  0  0  0  0  0  0  0
    3.4161  -39.9706    0.4576 O   0  0  0  0  0  0  0  0  0  0  0  0
    5.1575  -38.4670   -2.0003 C   0  0  0  0  0  0  0  0  0  0  0  0
    8.9646  -35.7924    1.6141 C   0  0  0  0  0  0  0  0  0  0  0  0
    8.1034  -35.0698    2.2804 O   0  0  0  0  0  0  0  0  0  0  0  0
    6.3509  -36.8585    1.7397 N   0  0  0  0  0  0  0  0  0  0  0  0
    4.1362  -40.2906   -0.7439 C   0  0  0  0  0  0  0  0  0  0  0  0
    8.2409  -42.9307    5.1201 C   0  0  0  0  0  0  0  0  0  0  0  0
    8.2788  -36.0908    0.2141 C   0  0  0  0  0  0  0  0  0  0  0  0
    3.5482  -37.6489    2.4344 O   0  0  0  0  0  0  0  0  0  0  0  0
    3.6814  -36.2727    4.1400 O   0  0  0  0  0  0  0  0  0  0  0  0
    6.8076  -36.4378    0.4368 C   0  0  0  0  0  0  0  0  0  0  0  0
    3.7749  -42.5671   -0.3310 C   0  0  0  0  0  0  0  0  0  0  0  0
   10.0884  -35.0919    1.3214 F   0  0  0  0  0  0  0  0  0  0  0  0
  1  6  1  0
  1 15  2  3
  2  6  1  0
  2  8  2  0
  3  9  1  0
  4 17  1  0
  4 20  1  0
  4 24  1  0
  5 13  1  0
  5 24  1  0
  6 17  1  0
  7 25  1  0
  9 12  1  0
  9 15  1  0
 10 18  1  0
 10 27  2  0
 10 28  1  0
 11 21  1  0
 12 25  1  0
 13 30  1  0
 14 16  1  0
 14 17  1  0
 14 29  1  0
 16 20  1  0
 18 23  1  0
 19 24  1  0
 21 22  1  0
 21 26  1  0
 21 31  1  0
 23 29  1  0
 26 29  1  0
M  END
>  <ID>  (1) 
conformer_0

$$$$
