
     RDKit          3D

 31 33  0  0  0  0  0  0  0  0999 V2000
    8.2522  -42.6807    3.8063 C   0  0  0  0  0  0  0  0  0  0  0  0
    3.7046  -38.4622    2.0040 C   0  0  0  0  0  0  0  0  0  0  0  0
    5.9780  -42.7594    3.0110 C   0  0  0  0  0  0  0  0  0  0  0  0
    5.9484  -41.4419    2.4292 C   0  0  0  0  0  0  0  0  0  0  0  0
    9.2102  -39.1365   -0.0950 C   0  0  0  0  0  0  0  0  0  0  0  0
    8.2828  -41.0894    1.9005 C   0  0  0  0  0  0  0  0  0  0  0  0
    4.3872  -39.6743    1.6622 N   0  0  0  0  0  0  0  0  0  0  0  0
    9.9976  -41.1402    3.4630 F   0  0  0  0  0  0  0  0  0  0  0  0
    4.8708  -38.2609   -1.1883 O   0  0  0  0  0  0  0  0  0  0  0  0
    4.7141  -43.6739    2.6920 Cl  0  0  0  0  0  0  0  0  0  0  0  0
    5.1144  -36.4310    1.3130 N   0  0  0  0  0  0  0  0  0  0  0  0
    6.5592  -36.4571    0.9120 C   0  0  0  0  0  0  0  0  0  0  0  0
    9.2270  -37.0407    1.3053 C   0  0  0  0  0  0  0  0  0  0  0  0
    7.1707  -37.4116    0.1080 C   0  0  0  0  0  0  0  0  0  0  0  0
    6.9624  -40.9695    1.7533 C   0  0  0  0  0  0  0  0  0  0  0  0
    4.6799  -40.6315    2.5565 C   0  0  0  0  0  0  0  0  0  0  0  0
    6.7729  -39.5321   -1.2572 O   0  0  0  0  0  0  0  0  0  0  0  0
    8.5112  -37.8158    0.3633 C   0  0  0  0  0  0  0  0  0  0  0  0
    4.0118  -40.7758    3.6071 O   0  0  0  0  0  0  0  0  0  0  0  0
    6.9996  -43.2322    3.7613 C   0  0  0  0  0  0  0  0  0  0  0  0
    6.7353  -37.2094   -2.3198 O   0  0  0  0  0  0  0  0  0  0  0  0
    6.3155  -38.1395   -1.2267 S   0  0  0  0  0  4  0  0  0  0  0  0
    8.8218  -41.6975    3.0661 C   0  0  0  0  0  0  0  0  0  0  0  0
    8.7602  -35.7966    1.6849 C   0  0  0  0  0  0  0  0  0  0  0  0
   10.2634  -37.6458    1.9446 O   0  0  0  0  0  0  0  0  0  0  0  0
    3.8186  -37.2666    0.9378 C   0  0  0  0  0  0  0  0  0  0  0  0
    6.0610  -35.9369    3.8211 C   0  0  0  0  0  0  0  0  0  0  0  0
    4.8969  -36.1339    2.8254 C   0  0  0  0  0  0  0  0  0  0  0  0
    3.6939  -36.5403    3.7429 C   0  0  0  0  0  0  0  0  0  0  0  0
    9.1816  -40.4930    0.7725 C   0  0  0  0  0  0  0  0  0  0  0  0
    7.3923  -35.5435    1.4450 C   0  0  0  0  0  0  0  0  0  0  0  0
  1 20  2  0
  1 23  1  0
  2  7  2  0
  2 26  1  0
  3  4  1  0
  3 10  1  0
  3 20  1  0
  4 15  1  0
  4 16  1  0
  5 18  1  0
  5 30  1  0
  6 15  2  0
  6 23  1  0
  6 30  1  0
  7 16  1  0
  8 23  1  0
  9 22  1  0
 11 12  1  0
 11 26  1  0
 11 28  1  0
 12 14  1  0
 12 31  1  0
 13 18  1  0
 13 24  1  0
 13 25  1  0
 14 18  1  0
 14 22  1  0
 16 19  2  0
 17 22  1  0
 21 22  1  0
 24 31  2  0
 27 28  1  0
 28 29  1  0
M  END
>  <ID>  (1) 
conformer_0

$$$$
