
     RDKit          3D

 22 24  0  0  0  0  0  0  0  0999 V2000
    5.8369  -35.5300    4.5251 C   0  0  0  0  0  0  0  0  0  0  0  0
    8.8206  -41.5413    3.0290 C   0  0  0  0  0  0  0  0  0  0  0  0
    6.2801  -36.3589   -0.2260 C   0  0  0  0  0  0  0  0  0  0  0  0
    9.2224  -39.4545    0.9885 O   0  0  0  0  0  0  0  0  0  0  0  0
    7.1396  -39.3421    0.0888 C   0  0  0  0  0  0  0  0  0  0  0  0
    7.8588  -43.3798    4.1821 O   0  0  0  0  0  0  0  0  0  0  0  0
    6.2965  -38.6194   -1.0738 C   0  0  0  0  0  0  0  0  0  0  0  0
    8.0514  -36.5186    1.3043 O   0  0  0  0  0  0  0  0  0  0  0  0
    5.9328  -36.8202    2.4861 C   0  0  0  0  0  0  0  0  0  0  0  0
    4.8083  -37.6871    4.4578 C   0  0  0  0  0  0  0  0  0  0  0  0
    8.3026  -42.2140    4.3125 C   0  0  0  0  0  0  0  0  0  0  0  0
    6.6089  -36.9334    1.1552 C   0  0  0  0  0  0  0  0  0  0  0  0
    5.1243  -37.8053    3.0948 C   0  0  0  0  0  0  0  0  0  0  0  0
    8.5414  -38.5027   -0.0487 C   0  0  0  0  0  0  0  0  0  0  0  0
    7.7281  -41.3599    1.9757 C   0  0  0  0  0  0  0  0  0  0  0  0
    8.0846  -40.5798    0.7594 C   0  0  0  0  0  0  0  0  0  0  0  0
    6.2084  -35.6849    3.1980 C   0  0  0  0  0  0  0  0  0  0  0  0
    4.9687  -36.4067    6.6666 Cl  0  0  0  0  0  0  0  0  0  0  0  0
    5.2069  -36.5558    5.1843 C   0  0  0  0  0  0  0  0  0  0  0  0
    8.4755  -41.7175    5.4720 O   0  0  0  0  0  0  0  0  0  0  0  0
    6.8779  -37.1717   -1.4800 C   0  0  0  0  0  0  0  0  0  0  0  0
    8.9483  -37.0589    0.3095 C   0  0  0  0  0  0  0  0  0  0  0  0
  1 17  2  0
  1 19  1  0
  2 11  1  0
  2 15  1  0
  3 12  1  0
  3 21  1  0
  4 14  1  0
  4 16  1  0
  5  7  1  0
  5 14  1  0
  5 16  1  0
  6 11  2  0
  7 21  1  0
  8 12  1  0
  8 22  1  0
  9 12  1  0
  9 13  2  0
  9 17  1  0
 10 13  1  0
 10 19  2  0
 11 20  1  0
 14 22  1  0
 15 16  1  0
 18 19  1  0
M  END
>  <ID>  (1) 
conformer_0

$$$$
