
     RDKit          3D

 28 29  0  0  0  0  0  0  0  0999 V2000
    4.2785  -40.0716   -2.3650 C   0  0  0  0  0  0  0  0  0  0  0  0
    2.7577  -39.3812   -0.5631 C   0  0  0  0  0  0  0  0  0  0  0  0
    4.8938  -36.1259    3.1918 N   0  0  0  0  0  0  0  0  0  0  0  0
    7.7309  -42.8335    1.5936 C   0  0  0  0  0  0  0  0  0  0  0  0
    8.7852  -39.4406    0.7823 C   0  0  0  0  0  0  0  0  0  0  0  0
    6.2257  -36.8293    1.1796 C   0  0  0  0  0  0  0  0  0  0  0  0
    8.7983  -40.8324    0.7704 N   0  0  0  0  0  0  0  0  0  0  0  0
    9.7012  -38.8791    1.6865 O   0  0  0  0  0  0  0  0  0  0  0  0
    3.6139  -36.7580    0.5131 Cl  0  0  0  0  0  0  0  0  0  0  0  0
    6.7168  -43.0506    2.6958 C   0  0  0  0  0  0  0  0  0  0  0  0
    7.7624  -38.9786   -0.0247 C   0  0  0  0  0  0  0  0  0  0  0  0
    8.5366  -41.6010    1.9356 C   0  0  0  0  0  0  0  0  0  0  0  0
    9.9047  -37.4214    1.9087 C   0  0  0  0  0  0  0  0  0  0  0  0
    7.5409  -43.4757    3.9467 C   0  0  0  0  0  0  0  0  0  0  0  0
    3.9400  -36.4804    5.3317 C   0  0  0  0  0  0  0  0  0  0  0  0
    5.2928  -38.6396   -0.4834 C   0  0  0  0  0  0  0  0  0  0  0  0
    5.6039  -35.2599    6.5098 C   0  0  0  0  0  0  0  0  0  0  0  0
    5.8429  -35.1620    5.1442 C   0  0  0  0  0  0  0  0  0  0  0  0
    5.8270  -36.1722    2.3230 C   0  0  0  0  0  0  0  0  0  0  0  0
    8.4759  -42.4490    4.5779 C   0  0  0  0  0  0  0  0  0  0  0  0
    7.6813  -36.6560    0.9679 C   0  0  0  0  0  0  0  0  0  0  0  0
    8.6741  -36.6240    1.9831 C   0  0  0  0  0  0  0  0  0  0  0  0
    4.8635  -35.9138    4.4735 C   0  0  0  0  0  0  0  0  0  0  0  0
    6.6136  -39.1692   -0.6083 C   0  0  0  0  0  0  0  0  0  0  0  0
    8.1686  -35.3338    0.9198 C   0  0  0  0  0  0  0  0  0  0  0  0
    4.3991  -36.0584    6.6714 C   0  0  0  0  0  0  0  0  0  0  0  0
    5.2336  -37.4901    0.4084 C   0  0  0  0  0  0  0  0  0  0  0  0
    4.1199  -39.3141   -1.1450 C   0  0  0  0  0  0  0  0  0  0  0  0
  1 28  1  0
  2 28  1  0
  3 19  1  0
  3 23  1  0
  4 10  1  0
  4 12  1  0
  5  7  1  0
  5  8  1  0
  5 11  1  0
  6 19  1  0
  6 21  1  0
  6 27  1  0
  7 12  1  0
  8 13  1  0
  9 27  1  0
 10 14  1  0
 11 24  1  0
 13 22  1  0
 14 20  1  0
 15 23  1  0
 15 26  1  0
 16 24  2  0
 16 27  1  0
 16 28  1  0
 17 18  1  0
 17 26  1  0
 18 23  1  0
 21 22  1  0
 21 25  1  0
M  END
>  <ID>  (1) 
conformer_0

$$$$
