
     RDKit          3D

 31 33  0  0  0  0  0  0  0  0999 V2000
   10.2478  -36.2859    1.7802 F   0  0  0  0  0  0  0  0  0  0  0  0
    7.8435  -39.4803    0.1053 C   0  0  0  0  0  0  0  0  0  0  0  0
    3.4341  -37.6231    0.3866 C   0  0  0  0  0  0  0  0  0  0  0  0
    6.5888  -41.5275    5.6602 C   0  0  0  0  0  0  0  0  0  0  0  0
    3.6385  -39.8752   -1.1901 C   0  0  0  0  0  0  0  0  0  0  0  0
    8.8796  -34.5184    1.3610 F   0  0  0  0  0  0  0  0  0  0  0  0
    5.4286  -38.4337   -0.7991 C   0  0  0  0  0  0  0  0  0  0  0  0
    9.0219  -40.5496    1.9567 C   0  0  0  0  0  0  0  0  0  0  0  0
    7.9898  -42.2108    3.3388 C   0  0  0  0  0  0  0  0  0  0  0  0
    6.2735  -37.5992    0.0653 C   0  0  0  0  0  0  0  0  0  0  0  0
    9.1316  -36.0268    1.1212 C   0  0  0  0  0  0  0  0  0  0  0  0
    8.1181  -35.7822    1.0304 C   0  0  0  0  0  0  0  0  0  0  0  0
    5.7170  -38.4891   -1.9850 O   0  0  0  0  0  0  0  0  0  0  0  0
    7.9402  -40.4994    1.1008 C   0  0  0  0  0  0  0  0  0  0  0  0
    2.0206  -37.8259    0.3008 O   0  0  0  0  0  0  0  0  0  0  0  0
    7.6442  -38.0193    0.1178 C   0  0  0  0  0  0  0  0  0  0  0  0
    6.9525  -42.2111    2.4421 N   0  0  0  0  0  0  0  0  0  0  0  0
    8.5752  -37.0292    0.4060 C   0  0  0  0  0  0  0  0  0  0  0  0
    5.8743  -36.5133    0.7419 C   0  0  0  0  0  0  0  0  0  0  0  0
    9.0610  -41.3640    3.0798 C   0  0  0  0  0  0  0  0  0  0  0  0
    1.7202  -39.2926    0.3330 C   0  0  0  0  0  0  0  0  0  0  0  0
    5.5894  -43.6959    4.7125 C   0  0  0  0  0  0  0  0  0  0  0  0
    4.1575  -38.7102   -0.3587 N   0  0  0  0  0  0  0  0  0  0  0  0
    6.7338  -35.5443    1.1624 C   0  0  0  0  0  0  0  0  0  0  0  0
    8.3969  -39.2441   -1.0083 O   0  0  0  0  0  0  0  0  0  0  0  0
    8.0044  -43.1188    4.5786 C   0  0  0  0  0  0  0  0  0  0  0  0
    6.9430  -41.4513    1.3080 C   0  0  0  0  0  0  0  0  0  0  0  0
    2.3618  -39.9645    1.5313 C   0  0  0  0  0  0  0  0  0  0  0  0
    0.1314  -39.3594    0.3335 C   0  0  0  0  0  0  0  0  0  0  0  0
    6.7678  -42.9459    5.2735 N   0  0  0  0  0  0  0  0  0  0  0  0
    2.1455  -39.9704   -1.0005 C   0  0  0  0  0  0  0  0  0  0  0  0
  1 11  1  0
  2 14  1  0
  2 16  1  0
  2 25  2  0
  3 15  1  0
  3 23  1  0
  4 30  1  0
  5 23  1  0
  5 31  1  0
  6 12  1  0
  7 10  1  0
  7 13  2  0
  7 23  1  0
  8 14  2  0
  8 20  1  0
  9 17  1  0
  9 20  2  0
  9 26  1  0
 10 16  1  0
 10 19  1  0
 11 12  1  0
 11 18  2  0
 12 24  1  0
 14 27  1  0
 15 21  1  0
 16 18  2  0
 17 27  2  0
 19 24  2  0
 21 28  1  0
 21 29  1  0
 21 31  1  0
 22 30  1  0
 26 30  1  0
M  END
>  <ID>  (1) 
conformer_0

$$$$
