
     RDKit          3D

 27 30  0  0  0  0  0  0  0  0999 V2000
    7.0788  -37.5061   -0.0455 C   0  0  0  0  0  0  0  0  0  0  0  0
    8.6093  -43.3882    4.2344 O   0  0  0  0  0  0  0  0  0  0  0  0
    5.8643  -35.8605    1.3241 C   0  0  0  0  0  0  0  0  0  0  0  0
    4.8708  -41.5580    4.1090 O   0  0  0  0  0  0  0  0  0  0  0  0
    6.1599  -37.8441   -1.1456 C   0  0  0  0  0  0  0  0  0  0  0  0
    3.1842  -37.5519    3.1454 C   0  0  0  0  0  0  0  0  0  0  0  0
    8.4876  -42.2033    3.8593 C   0  0  0  0  0  0  0  0  0  0  0  0
    5.0361  -37.7033   -0.1865 C   0  0  0  0  0  0  0  0  0  0  0  0
    4.0157  -41.2750    2.9622 C   0  0  0  0  0  0  0  0  0  0  0  0
    8.5388  -37.6879   -0.3752 C   0  0  0  0  0  0  0  0  0  0  0  0
    8.7455  -41.3764    1.3879 C   0  0  0  0  0  0  0  0  0  0  0  0
    8.2677  -35.4379    0.5668 C   0  0  0  0  0  0  0  0  0  0  0  0
    9.3309  -36.5810    0.4151 C   0  0  0  0  0  0  0  0  0  0  0  0
    9.2940  -38.9877   -0.2526 C   0  0  0  0  0  0  0  0  0  0  0  0
    6.9077  -35.9970    0.2423 C   0  0  0  0  0  0  0  0  0  0  0  0
    7.1693  -41.6424    3.3694 C   0  0  0  0  0  0  0  0  0  0  0  0
    6.0009  -43.6183    4.0233 O   0  0  0  0  0  0  0  0  0  0  0  0
    7.2264  -41.4717    1.8383 C   0  0  0  0  0  0  0  0  0  0  0  0
    4.5928  -39.0574    2.0298 O   0  0  0  0  0  0  0  0  0  0  0  0
    4.2757  -37.6473    2.1777 C   0  0  0  0  0  0  0  0  0  0  0  0
    8.9521  -39.9256    0.8923 C   0  0  0  0  0  0  0  0  0  0  0  0
    9.7094  -41.4336    3.7955 C   0  0  0  0  0  0  0  0  0  0  0  0
    2.7129  -38.9814    3.2308 O   0  0  0  0  0  0  0  0  0  0  0  0
    9.7888  -36.8685    1.8255 C   0  0  0  0  0  0  0  0  0  0  0  0
    3.7384  -39.8413    2.8656 C   0  0  0  0  0  0  0  0  0  0  0  0
    4.7547  -36.8615    1.0150 C   0  0  0  0  0  0  0  0  0  0  0  0
    6.0176  -42.3473    3.9658 C   0  0  0  0  0  0  0  0  0  0  0  0
  1  5  1  0
  1 10  1  0
  1 15  1  0
  2  7  2  0
  3 15  1  0
  3 26  1  0
  4  9  1  0
  4 27  1  0
  5  8  1  0
  6 20  1  0
  6 23  1  0
  7 16  1  0
  7 22  1  0
  8 26  1  0
  9 25  1  0
 10 13  1  0
 10 14  1  0
 11 18  1  0
 11 21  1  0
 12 13  1  0
 12 15  1  0
 13 24  1  0
 14 21  1  0
 16 18  1  0
 16 27  1  0
 17 27  2  0
 19 20  1  0
 19 25  1  0
 20 26  1  0
 23 25  1  0
M  END
>  <ID>  (1) 
conformer_0

$$$$
