
     RDKit          3D

 30 32  0  0  0  0  0  0  0  0999 V2000
    4.2659  -39.5921   -0.9551 C   0  0  0  0  0  0  0  0  0  0  0  0
    3.8635  -40.1031   -2.2796 C   0  0  0  0  0  0  0  0  0  0  0  0
    6.7174  -36.6261    1.9923 C   0  0  0  0  0  0  0  0  0  0  0  0
    5.5727  -35.5895    3.8061 C   0  0  0  0  0  0  0  0  0  0  0  0
    9.6229  -39.7991   -0.6055 F   0  0  0  0  0  0  0  0  0  0  0  0
    7.3623  -43.1661    4.8440 C   0  0  0  0  0  0  0  0  0  0  0  0
    6.9341  -38.5343   -0.7463 C   0  0  0  0  0  0  0  0  0  0  0  0
    5.7350  -37.5108    1.9098 C   0  0  0  0  0  0  0  0  0  0  0  0
    8.6574  -38.1589    0.8441 C   0  0  0  0  0  0  0  0  0  0  0  0
    6.7052  -39.8305   -0.1331 C   0  0  0  0  0  0  0  0  0  0  0  0
    6.6429  -35.6810    2.9804 C   0  0  0  0  0  0  0  0  0  0  0  0
    7.9423  -42.1864    2.3245 C   0  0  0  0  0  0  0  0  0  0  0  0
    6.1113  -37.7533   -1.8535 C   0  0  0  0  0  0  0  0  0  0  0  0
    7.8789  -36.5793    1.0388 C   0  0  0  0  0  0  0  0  0  0  0  0
    9.0404  -39.5613    0.6271 C   0  0  0  0  0  0  0  0  0  0  0  0
   10.2768  -37.0968    2.4950 C   0  0  0  0  0  0  0  0  0  0  0  0
    9.3237  -37.4460    1.6390 O   0  0  0  0  0  0  0  0  0  0  0  0
    7.7826  -37.5863    0.0077 C   0  0  0  0  0  0  0  0  0  0  0  0
    7.7549  -40.4102    0.5913 C   0  0  0  0  0  0  0  0  0  0  0  0
    4.6011  -37.4501    2.6821 C   0  0  0  0  0  0  0  0  0  0  0  0
    8.3968  -42.2359    4.6995 C   0  0  0  0  0  0  0  0  0  0  0  0
    8.4351  -35.3228    0.7442 O   0  0  0  0  0  0  0  0  0  0  0  0
    5.4196  -40.2550   -0.3693 N   0  0  0  0  0  0  0  0  0  0  0  0
    6.6373  -43.5992    3.7164 C   0  0  0  0  0  0  0  0  0  0  0  0
    6.9368  -43.1082    2.4915 C   0  0  0  0  0  0  0  0  0  0  0  0
    8.1204  -41.7003    1.0026 O   0  0  0  0  0  0  0  0  0  0  0  0
    9.9476  -39.9150    1.5979 F   0  0  0  0  0  0  0  0  0  0  0  0
    4.4978  -36.4710    3.6327 C   0  0  0  0  0  0  0  0  0  0  0  0
    8.6579  -41.7621    3.4072 C   0  0  0  0  0  0  0  0  0  0  0  0
    3.6045  -38.6864   -0.3423 O   0  0  0  0  0  0  0  0  0  0  0  0
  1  2  1  0
  1 23  1  0
  1 30  2  0
  3  8  2  0
  3 11  1  0
  3 14  1  0
  4 11  2  0
  4 28  1  0
  5 15  1  0
  6 21  2  0
  6 24  1  0
  7 10  1  0
  7 13  1  0
  7 18  1  0
  8 20  1  0
  9 15  1  0
  9 17  1  0
  9 18  1  0
 10 19  1  0
 10 23  2  3
 12 25  1  0
 12 26  1  0
 12 29  2  0
 14 18  1  0
 14 22  1  0
 15 19  1  0
 15 27  1  0
 16 17  1  0
 19 26  1  0
 20 28  2  0
 21 29  1  0
 24 25  2  0
M  END
>  <ID>  (1) 
conformer_0

$$$$
