
     RDKit          3D

 25 27  0  0  0  0  0  0  0  0999 V2000
    5.5148  -43.8281    4.1277 C   0  0  0  0  0  0  0  0  0  0  0  0
   10.0125  -39.2111    2.0515 C   0  0  0  0  0  0  0  0  0  0  0  0
    4.2920  -39.0135   -1.0760 C   0  0  0  0  0  0  0  0  0  0  0  0
    6.7349  -35.9901    0.8460 C   0  0  0  0  0  0  0  0  0  0  0  0
    8.1024  -43.4937    2.2299 C   0  0  0  0  0  0  0  0  0  0  0  0
    9.4761  -37.8463    1.8546 O   0  0  0  0  0  0  0  0  0  0  0  0
    4.5105  -37.2647    0.5664 C   0  0  0  0  0  0  0  0  0  0  0  0
    8.1570  -41.0828    2.3116 C   0  0  0  0  0  0  0  0  0  0  0  0
    7.7008  -42.4893    4.3723 C   0  0  0  0  0  0  0  0  0  0  0  0
    8.5432  -41.8916    5.4810 C   0  0  0  0  0  0  0  0  0  0  0  0
    3.7350  -38.2204   -0.0708 C   0  0  0  0  0  0  0  0  0  0  0  0
    8.6426  -39.3896   -0.0120 S   0  0  0  0  0  0  0  0  0  0  0  0
    6.5635  -43.2278    4.8425 C   0  0  0  0  0  0  0  0  0  0  0  0
    9.0557  -35.4231    1.2815 O   0  0  0  0  0  0  0  0  0  0  0  0
    8.0326  -42.2902    3.0537 N   0  0  0  0  0  0  0  0  0  0  0  0
    6.3284  -37.8388   -0.8237 C   0  0  0  0  0  0  0  0  0  0  0  0
    8.2137  -36.2430    0.5225 C   0  0  0  0  0  0  0  0  0  0  0  0
    3.5676  -39.9889   -1.6633 F   0  0  0  0  0  0  0  0  0  0  0  0
    8.9620  -40.1522    1.6038 C   0  0  0  0  0  0  0  0  0  0  0  0
    8.6799  -37.6794    0.6604 C   0  0  0  0  0  0  0  0  0  0  0  0
    6.6318  -35.7790    2.2519 O   0  0  0  0  0  0  0  0  0  0  0  0
    5.5947  -38.8253   -1.4453 C   0  0  0  0  0  0  0  0  0  0  0  0
    5.6517  -44.2842    2.7643 C   0  0  0  0  0  0  0  0  0  0  0  0
    6.6934  -43.8723    1.8655 C   0  0  0  0  0  0  0  0  0  0  0  0
    5.8528  -37.0642    0.2084 C   0  0  0  0  0  0  0  0  0  0  0  0
  1 13  1  0
  1 23  1  0
  2  6  1  0
  2 19  1  0
  3 11  2  0
  3 18  1  0
  3 22  1  0
  4 17  1  0
  4 21  1  0
  4 25  1  0
  5 15  1  0
  5 24  1  0
  6 20  1  0
  7 11  1  0
  7 25  2  0
  8 15  1  0
  8 19  1  0
  9 10  1  0
  9 13  2  0
  9 15  1  0
 12 19  1  0
 12 20  1  0
 14 17  1  0
 16 22  2  0
 16 25  1  0
 17 20  1  0
 23 24  1  0
M  END
>  <ID>  (1) 
conformer_0

$$$$
