
     RDKit          3D

 25 27  0  0  0  0  0  0  0  0999 V2000
    4.3532  -39.0153   -1.0016 C   0  0  0  0  0  0  0  0  0  0  0  0
    5.9909  -37.3844    0.9901 O   0  0  0  0  0  0  0  0  0  0  0  0
    8.4553  -40.8357    2.2763 C   0  0  0  0  0  0  0  0  0  0  0  0
    4.0854  -38.6259    3.2265 C   0  0  0  0  0  0  0  0  0  0  0  0
    6.1492  -38.0111   -2.0877 O   0  0  0  0  0  0  0  0  0  0  0  0
    8.2336  -36.1839    2.2691 O   0  0  0  0  0  1  0  0  0  0  0  0
    6.1662  -39.6191    1.2026 N   0  0  0  0  0  0  0  0  0  0  0  0
    6.4239  -38.5230    0.2511 C   0  0  0  0  0  0  0  0  0  0  0  0
    7.7866  -38.2488   -0.3829 C   0  0  0  0  0  0  0  0  0  0  0  0
    8.7370  -39.7188    1.3289 C   0  0  0  0  0  0  0  0  0  0  0  0
    7.2530  -41.5676    2.2273 C   0  0  0  0  0  0  0  0  0  0  0  0
    6.2025  -41.0967    1.2933 C   0  0  0  0  0  0  0  0  0  0  0  0
    7.0076  -42.6315    3.0747 C   0  0  0  0  0  0  0  0  0  0  0  0
    9.1178  -42.2101    4.1560 C   0  0  0  0  0  0  0  0  0  0  0  0
    7.9644  -42.9598    4.0440 C   0  0  0  0  0  0  0  0  0  0  0  0
    5.1824  -36.3014    3.1188 C   0  0  0  0  0  0  0  0  0  0  0  0
    4.9299  -37.5894    3.7918 C   0  0  0  0  0  0  0  0  0  0  0  0
    9.3829  -41.1866    3.2469 C   0  0  0  0  0  0  0  0  0  0  0  0
    9.1025  -36.8030    1.3563 S   0  0  0  0  0  4  0  0  0  0  0  0
    5.4365  -36.3288    1.6449 C   0  0  0  0  0  0  0  0  0  0  0  0
   10.2310  -36.0818    1.1770 O   0  0  0  0  0  1  0  0  0  0  0  0
    8.4211  -36.9913   -0.1405 N   0  0  0  0  0  0  0  0  0  0  0  0
    9.3698  -38.4311    1.8313 C   0  0  0  0  0  0  0  0  0  0  0  0
    8.6067  -39.5057   -0.2016 C   0  0  0  0  0  0  0  0  0  0  0  0
    5.7496  -38.9068   -1.0952 C   0  0  0  0  0  0  0  0  0  0  0  0
  1 25  1  0
  2  8  1  0
  2 20  1  0
  3 10  1  0
  3 11  2  0
  3 18  1  0
  4 17  1  0
  5 25  1  0
  6 19  1  0
  7  8  1  0
  7 12  1  0
  8  9  1  0
  8 25  1  0
  9 22  1  0
  9 24  1  0
 10 23  1  0
 10 24  1  0
 11 12  1  0
 11 13  1  0
 13 15  2  0
 14 15  1  0
 14 18  2  0
 16 17  1  0
 16 20  1  0
 19 21  1  0
 19 22  1  0
 19 23  1  0
M  END
>  <ID>  (1) 
conformer_0

$$$$
