
     RDKit          3D

 25 26  0  0  0  0  0  0  0  0999 V2000
    5.5147  -35.8407    6.0595 C   0  0  0  0  0  0  0  0  0  0  0  0
   10.6216  -40.2681   -0.7965 O   0  0  0  0  0  0  0  0  0  0  0  0
    6.6294  -37.4179    0.0848 C   0  0  0  0  0  0  0  0  0  0  0  0
    5.8245  -35.5150    4.6216 C   0  0  0  0  0  0  0  0  0  0  0  0
    5.4403  -36.4819    3.6133 N   0  0  0  0  0  0  0  0  0  0  0  0
    7.3683  -38.7161   -0.0276 C   0  0  0  0  0  0  0  0  0  0  0  0
    7.3162  -35.6317    2.2657 C   0  0  0  0  0  0  0  0  0  0  0  0
    7.9319  -35.3034    7.3094 F   0  0  0  0  0  0  0  0  0  0  0  0
    4.9064  -39.2448   -0.9541 C   0  0  0  0  0  0  0  0  0  0  0  0
    6.8509  -35.0001    7.9991 C   0  0  0  0  0  0  0  0  0  0  0  0
    9.4064  -40.0279   -0.1685 C   0  0  0  0  0  0  0  0  0  0  0  0
    2.5471  -39.6576   -0.8103 C   0  0  0  0  0  0  0  0  0  0  0  0
    7.2925  -36.1079   -0.1909 C   0  0  0  0  0  0  0  0  0  0  0  0
    6.0014  -36.2487    2.2970 C   0  0  0  0  0  0  0  0  0  0  0  0
    6.9468  -34.8180    9.2543 F   0  0  0  0  0  0  0  0  0  0  0  0
    8.8573  -40.9479    0.7246 C   0  0  0  0  0  0  0  0  0  0  0  0
    5.7319  -34.9472    7.1638 O   0  0  0  0  0  0  0  0  0  0  0  0
    8.0361  -35.4978    0.9813 C   0  0  0  0  0  0  0  0  0  0  0  0
    7.4930  -40.8577    1.0611 C   0  0  0  0  0  0  0  0  0  0  0  0
    8.6793  -38.8448   -0.4849 C   0  0  0  0  0  0  0  0  0  0  0  0
    5.3346  -39.9145    0.3253 O   0  0  0  0  0  0  0  0  0  0  0  0
    6.7347  -39.8518    0.4813 C   0  0  0  0  0  0  0  0  0  0  0  0
    3.7321  -39.9418   -1.5285 C   0  0  0  0  0  0  0  0  0  0  0  0
    5.6406  -37.2180    1.2432 S   0  0  0  0  0  0  0  0  0  0  0  0
    3.7340  -40.2837   -2.7629 O   0  0  0  0  0  0  0  0  0  0  0  0
  1  4  2  3
  1 17  1  0
  2 11  1  0
  3  6  1  0
  3 13  1  0
  3 24  1  0
  4  5  1  0
  5 14  1  0
  6 20  1  0
  6 22  1  0
  7 14  1  0
  7 18  1  0
  8 10  1  0
  9 21  1  0
  9 23  1  0
 10 15  1  0
 10 17  1  0
 11 16  1  0
 11 20  2  0
 12 23  1  0
 13 18  1  0
 14 24  1  0
 16 19  2  0
 19 22  1  0
 21 22  1  0
 23 25  2  0
M  END
>  <ID>  (1) 
conformer_0

$$$$
