
     RDKit          3D

 29 32  0  0  0  0  0  0  0  0999 V2000
    6.6849  -43.2269    4.9128 N   0  0  0  0  0  0  0  0  0  0  0  0
    7.9266  -42.5649    5.0969 C   0  0  0  0  0  0  0  0  0  0  0  0
   10.7236  -40.2971   -1.0547 O   0  0  0  0  0  0  0  0  0  0  0  0
    6.4043  -37.9643    0.6408 C   0  0  0  0  0  0  0  0  0  0  0  0
    4.0533  -37.9816    1.0346 C   0  0  0  0  0  0  0  0  0  0  0  0
    8.2447  -41.9985    3.8907 N   0  0  0  0  0  0  0  0  0  0  0  0
    5.8430  -35.9009    3.5208 C   0  0  0  0  0  0  0  0  0  0  0  0
    7.0699  -34.8620    8.1582 C   0  0  0  0  0  0  0  0  0  0  0  0
    5.4665  -33.9274    6.4508 C   0  0  0  0  0  0  0  0  0  0  0  0
    7.2680  -41.9048    1.6175 C   0  0  0  0  0  0  0  0  0  0  0  0
    9.0431  -37.6115   -1.0927 C   0  0  0  0  0  0  0  0  0  0  0  0
    6.5565  -33.5950    7.4917 C   0  0  0  0  0  0  0  0  0  0  0  0
    9.0380  -41.0815    0.3274 N   0  0  0  0  0  0  0  0  0  0  0  0
    8.2048  -40.8456    1.3182 C   0  0  0  0  0  0  0  0  0  0  0  0
    8.2499  -36.4650   -0.5102 O   0  0  0  0  0  0  0  0  0  0  0  0
    4.9763  -35.3003    4.4575 O   0  0  0  0  0  0  0  0  0  0  0  0
    5.6888  -35.2379    5.7876 O   0  0  0  0  0  0  0  0  0  0  0  0
    6.2737  -43.0027    3.5689 C   0  0  0  0  0  0  0  0  0  0  0  0
    5.5158  -36.4534    2.2047 C   0  0  0  0  0  0  0  0  0  0  0  0
    7.6119  -38.7767    0.4765 C   0  0  0  0  0  0  0  0  0  0  0  0
    4.2370  -36.9583    1.9735 C   0  0  0  0  0  0  0  0  0  0  0  0
    7.2505  -42.3004    2.9772 C   0  0  0  0  0  0  0  0  0  0  0  0
    7.8696  -39.5533    1.6539 C   0  0  0  0  0  0  0  0  0  0  0  0
    8.6578  -38.8967   -0.4648 C   0  0  0  0  0  0  0  0  0  0  0  0
    8.0508  -34.9875    1.2367 O   0  0  0  0  0  0  0  0  0  0  0  0
    7.5775  -35.9264    0.6939 N   0  0  0  0  0  0  0  0  0  0  0  0
    5.1529  -38.5131    0.3786 C   0  0  0  0  0  0  0  0  0  0  0  0
    6.4939  -36.7244    1.2274 C   0  0  0  0  0  0  0  0  0  0  0  0
    9.5782  -39.9930   -0.2993 C   0  0  0  0  0  0  0  0  0  0  0  0
  1  2  1  0
  1 18  1  0
  2  6  1  0
  3 29  2  0
  4 20  1  0
  4 27  1  0
  4 28  1  0
  5 21  1  0
  5 27  2  0
  6 22  1  0
  7 16  1  0
  7 19  1  0
  8 12  1  0
  9 12  1  0
  9 17  1  0
 10 14  1  0
 10 22  1  0
 11 15  1  0
 11 24  1  0
 13 14  1  0
 13 29  1  0
 14 23  1  0
 15 26  1  0
 16 17  1  0
 18 22  1  0
 19 21  1  0
 19 28  1  0
 20 23  1  0
 20 24  1  0
 24 29  1  0
 25 26  1  0
 26 28  1  0
M  END
>  <ID>  (1) 
conformer_0

$$$$
