
     RDKit          3D

 23 24  0  0  0  0  0  0  0  0999 V2000
    6.4060  -42.1563    1.3439 N   0  0  0  0  0  0  0  0  0  0  0  0
    8.2246  -44.0279    1.9397 C   0  0  0  0  0  0  0  0  0  0  0  0
    7.2357  -37.8313    0.1887 C   0  0  0  0  0  0  0  0  0  0  0  0
    8.5858  -38.1647   -0.3087 O   0  0  0  0  0  0  0  0  0  0  0  0
    3.0211  -40.5578    0.3874 O   0  0  0  0  0  1  0  0  0  0  0  0
    6.1404  -38.2598   -1.8286 F   0  0  0  0  0  0  0  0  0  0  0  0
    8.5834  -40.5521    1.2296 C   0  0  0  0  0  0  0  0  0  0  0  0
    4.3548  -40.4193   -0.2771 S   0  0  0  0  0  4  0  0  0  0  0  0
    4.2631  -40.4321   -1.7366 O   0  0  0  0  0  1  0  0  0  0  0  0
    8.1415  -35.0417    0.5521 C   0  0  0  0  0  0  0  0  0  0  0  0
    8.3907  -41.5146    2.4300 N   0  0  0  0  0  0  0  0  0  0  0  0
    5.1698  -38.9895    0.3164 C   0  0  0  0  0  0  0  0  0  0  0  0
    9.3587  -36.6555    2.0099 C   0  0  0  0  0  0  0  0  0  0  0  0
    5.7906  -37.4465    2.0251 C   0  0  0  0  0  0  0  0  0  0  0  0
    7.5235  -42.6203    1.9334 C   0  0  0  0  0  0  0  0  0  0  0  0
    5.3832  -41.7208    0.4415 C   0  0  0  0  0  0  0  0  0  0  0  0
    9.0500  -39.4645    0.0716 C   0  0  0  0  0  0  0  0  0  0  0  0
    7.9922  -35.9896    1.7690 C   0  0  0  0  0  0  0  0  0  0  0  0
    7.3897  -35.3147    2.7943 O   0  0  0  0  0  0  0  0  0  0  0  0
    8.9484  -41.8774    3.7602 C   0  0  0  0  0  0  0  0  0  0  0  0
    4.9052  -38.4085    1.5473 N   0  0  0  0  0  0  0  0  0  0  0  0
    6.2024  -38.4482   -0.4498 C   0  0  0  0  0  0  0  0  0  0  0  0
    6.9609  -37.1120    1.3443 C   0  0  0  0  0  0  0  0  0  0  0  0
  1 15  2  0
  1 16  1  0
  2 15  1  0
  3  4  1  0
  3 22  1  0
  3 23  1  0
  4 17  1  0
  5  8  1  0
  6 22  1  0
  7 11  1  0
  7 17  1  0
  8  9  1  0
  8 12  1  0
  8 16  1  0
 10 18  1  0
 11 15  1  0
 11 20  1  0
 12 21  2  0
 12 22  1  0
 13 18  1  0
 14 21  1  0
 14 23  2  0
 18 19  1  0
 18 23  1  0
M  END
>  <ID>  (1) 
conformer_0

$$$$
