
     RDKit          3D

 21 21  0  0  0  0  0  0  0  0999 V2000
    8.4569  -41.3458    3.3678 C   0  0  0  0  0  0  0  0  0  0  0  0
    5.9668  -37.5104   -0.1194 C   0  0  0  0  0  0  0  0  0  0  0  0
    7.5094  -43.4210    4.3285 O   0  0  0  0  0  0  0  0  0  0  0  0
    4.2512  -39.0823   -0.9352 C   0  0  0  0  0  0  0  0  0  0  0  0
    8.8037  -38.4050    0.5400 C   0  0  0  0  0  0  0  0  0  0  0  0
    8.4752  -38.3063   -0.9290 C   0  0  0  0  0  0  0  0  0  0  0  0
    8.6274  -41.8154    2.0227 C   0  0  0  0  0  0  0  0  0  0  0  0
    8.4334  -43.2595    1.7647 C   0  0  0  0  0  0  0  0  0  0  0  0
    7.8294  -42.1650    4.4133 C   0  0  0  0  0  0  0  0  0  0  0  0
    9.3677  -39.6182    1.1836 C   0  0  0  0  0  0  0  0  0  0  0  0
    7.9889  -36.1409    0.9381 C   0  0  0  0  0  0  0  0  0  0  0  0
    7.9935  -35.0927    1.8325 O   0  0  0  0  0  0  0  0  0  0  0  0
    4.6136  -36.8910    0.4863 C   0  0  0  0  0  0  0  0  0  0  0  0
    5.5339  -36.1099    1.5499 C   0  0  0  0  0  0  0  0  0  0  0  0
    7.6423  -41.5640    5.7907 C   0  0  0  0  0  0  0  0  0  0  0  0
    6.7140  -36.9629    1.0702 C   0  0  0  0  0  0  0  0  0  0  0  0
    6.1584  -41.0343    5.8083 C   0  0  0  0  0  0  0  0  0  0  0  0
    9.8880  -37.0639    2.2257 O   0  0  0  0  0  0  0  0  0  0  0  0
    8.5034  -40.8772    0.9057 C   0  0  0  0  0  0  0  0  0  0  0  0
    5.5314  -38.2982   -1.3536 C   0  0  0  0  0  0  0  0  0  0  0  0
    9.2286  -37.0482    1.0428 C   0  0  0  0  0  0  0  0  0  0  0  0
  1  7  1  0
  1  9  2  3
  2 13  1  0
  2 16  1  0
  2 20  1  0
  3  9  1  0
  4 20  1  0
  5  6  1  0
  5 10  1  0
  5 21  1  0
  7  8  1  0
  7 19  1  0
  9 15  1  0
 10 19  1  0
 11 12  1  0
 11 16  1  0
 11 21  1  0
 13 14  1  0
 14 16  1  0
 15 17  1  0
 18 21  1  0
M  END
>  <ID>  (1) 
conformer_0

$$$$
