
     RDKit          3D

 33 35  0  0  0  0  0  0  0  0999 V2000
    9.3677  -41.2359    0.6008 C   0  0  0  0  0  0  0  0  0  0  0  0
    9.9614  -40.4809   -0.3583 C   0  0  0  0  0  0  0  0  0  0  0  0
    4.7273  -34.8546    4.9780 C   0  0  0  0  0  0  0  0  0  0  0  0
    2.9839  -37.0332    0.5962 C   0  0  0  0  0  0  0  0  0  0  0  0
    6.5540  -43.2340    3.3655 C   0  0  0  0  0  0  0  0  0  0  0  0
    5.6887  -35.7437    4.3427 O   0  0  0  0  0  0  0  0  0  0  0  0
    8.4439  -34.7749    1.2277 F   0  0  0  0  0  0  0  0  0  0  0  0
    5.5125  -34.4446    6.2905 C   0  0  0  0  0  0  0  0  0  0  0  0
    3.9289  -39.0587   -0.5936 C   0  0  0  0  0  0  0  0  0  0  0  0
    6.9288  -42.8870    4.8316 C   0  0  0  0  0  0  0  0  0  0  0  0
    6.9105  -36.1217    2.5956 O   0  0  0  0  0  0  0  0  0  0  0  0
    5.6709  -36.0350    3.0250 C   0  0  0  0  0  0  0  0  0  0  0  0
    8.2029  -37.0836    0.6891 C   0  0  0  0  0  0  0  0  0  0  0  0
    5.3145  -37.3841    0.3300 C   0  0  0  0  0  0  0  0  0  0  0  0
    4.2701  -37.0275    1.2546 C   0  0  0  0  0  0  0  0  0  0  0  0
    6.0764  -38.4781    0.6709 O   0  0  0  0  0  0  0  0  0  0  0  0
    5.6292  -35.6756    6.9565 O   0  0  0  0  0  0  0  0  0  0  0  0
    6.9808  -42.3508    2.3631 O   0  0  0  0  0  0  0  0  0  0  0  0
    2.8252  -38.3681   -0.0505 C   0  0  0  0  0  0  0  0  0  0  0  0
    7.8726  -41.2139    2.6023 C   0  0  0  0  0  0  0  0  0  0  0  0
    4.5736  -36.1956    2.3041 N   0  0  0  0  0  0  0  0  0  0  0  0
   11.0671  -40.8811   -1.1029 F   0  0  0  0  0  0  0  0  0  0  0  0
    8.3548  -39.1710    0.4429 C   0  0  0  0  0  0  0  0  0  0  0  0
    8.1256  -41.9883    5.0684 C   0  0  0  0  0  0  0  0  0  0  0  0
    5.1909  -38.3217   -0.7441 C   0  0  0  0  0  0  0  0  0  0  0  0
    8.8750  -41.7293    3.6995 C   0  0  0  0  0  0  0  0  0  0  0  0
    8.3575  -40.5366    1.2979 C   0  0  0  0  0  0  0  0  0  0  0  0
    7.5218  -35.8628    1.4351 C   0  0  0  0  0  0  0  0  0  0  0  0
    9.3232  -39.2330   -0.4656 C   0  0  0  0  0  0  0  0  0  0  0  0
    8.4997  -36.5053   -0.5628 F   0  0  0  0  0  0  0  0  0  0  0  0
    3.4956  -39.4479    0.6581 C   0  0  0  0  0  0  0  0  0  0  0  0
    9.4123  -37.0892    1.4560 F   0  0  0  0  0  0  0  0  0  0  0  0
    7.4223  -38.2345    0.6494 O   0  0  0  0  0  0  0  0  0  0  0  0
  1  2  1  0
  1 27  1  0
  2 22  1  0
  2 29  1  0
  3  6  1  0
  3  8  1  0
  4 15  1  0
  4 19  1  0
  5 10  1  0
  5 18  1  0
  6 12  1  0
  7 28  1  0
  8 17  1  0
  9 19  1  0
  9 25  1  0
  9 31  1  0
 10 24  1  0
 11 12  1  0
 11 28  1  0
 12 21  1  0
 13 28  1  0
 13 30  1  0
 13 32  1  0
 13 33  1  0
 14 15  1  0
 14 16  1  0
 14 25  1  0
 15 21  1  0
 18 20  1  0
 20 26  1  0
 20 27  1  0
 23 27  1  0
 23 29  1  0
 23 33  1  0
 24 26  1  0
M  END
>  <ID>  (1) 
conformer_0

$$$$
