
     RDKit          3D

 21 22  0  0  0  0  0  0  0  0999 V2000
    8.3957  -42.9866    3.3065 C   0  0  0  0  0  0  0  0  0  0  0  0
    9.1207  -42.2902    4.2556 C   0  0  0  0  0  0  0  0  0  0  0  0
    3.7333  -39.9385   -1.9864 C   0  0  0  0  0  0  0  0  0  0  0  0
    8.9256  -37.5913    1.2199 C   0  0  0  0  0  0  0  0  0  0  0  0
    8.1747  -42.3944    2.0512 C   0  0  0  0  0  0  0  0  0  0  0  0
    7.3932  -38.7570   -0.4095 C   0  0  0  0  0  0  0  0  0  0  0  0
    4.8728  -39.3087   -1.2958 C   0  0  0  0  0  0  0  0  0  0  0  0
    7.7131  -35.8405   -0.0102 C   0  0  0  0  0  0  0  0  0  0  0  0
    9.8236  -37.9032    2.3549 C   0  0  0  0  0  0  0  0  0  0  0  0
    8.6884  -41.1114    1.8503 C   0  0  0  0  0  0  0  0  0  0  0  0
    9.3180  -40.3369    2.8762 C   0  0  0  0  0  0  0  0  0  0  0  0
    9.7183  -39.0563    2.9704 N   0  0  0  0  0  0  0  0  0  0  0  0
    8.3196  -38.5985    0.5146 C   0  0  0  0  0  0  0  0  0  0  0  0
    8.6353  -36.2406    0.8783 C   0  0  0  0  0  0  0  0  0  0  0  0
    6.6676  -37.7834   -1.0527 C   0  0  0  0  0  0  0  0  0  0  0  0
    5.6711  -38.2534   -1.9271 O   0  0  0  0  0  0  0  0  0  0  0  0
    6.8381  -36.4268   -0.8548 C   0  0  0  0  0  0  0  0  0  0  0  0
   10.9374  -37.6850    4.3593 O   0  0  0  0  0  0  0  0  0  0  0  0
   10.5944  -37.0099    3.0651 N   0  0  0  0  0  0  0  0  0  0  0  0
    9.3313  -35.2936    1.5139 F   0  0  0  0  0  0  0  0  0  0  0  0
    9.5652  -41.0127    4.0910 C   0  0  0  0  0  0  0  0  0  0  0  0
  1  2  1  0
  1  5  2  0
  2 21  2  0
  3  7  1  0
  4  9  1  0
  4 13  1  0
  4 14  1  0
  5 10  1  0
  6 13  2  0
  6 15  1  0
  7 16  1  0
  8 14  2  0
  8 17  1  0
  9 12  1  0
  9 19  2  3
 10 11  1  0
 11 12  2  3
 11 21  1  0
 14 20  1  0
 15 16  1  0
 15 17  2  0
 18 19  1  0
M  END
>  <ID>  (1) 
conformer_0

$$$$
