
     RDKit          3D

 28 31  0  0  0  0  0  0  0  0999 V2000
    5.6505  -40.1928   -0.1975 C   0  0  0  0  0  0  0  0  0  0  0  0
    4.9560  -35.8504    3.9196 C   0  0  0  0  0  0  0  0  0  0  0  0
    4.5622  -39.7746   -2.5902 O   0  0  0  0  0  0  0  0  0  0  0  0
    5.6184  -37.7178    0.5840 N   0  0  0  0  0  0  0  0  0  0  0  0
    5.1462  -36.7616    1.4976 C   0  0  0  0  0  0  0  0  0  0  0  0
    9.5270  -36.8719    1.5691 C   0  0  0  0  0  0  0  0  0  0  0  0
    7.6995  -42.7767    2.7017 C   0  0  0  0  0  0  0  0  0  0  0  0
    9.3447  -41.1043    3.1505 C   0  0  0  0  0  0  0  0  0  0  0  0
    8.4973  -35.8519    1.5263 C   0  0  0  0  0  0  0  0  0  0  0  0
    7.9412  -38.4743    0.6679 C   0  0  0  0  0  0  0  0  0  0  0  0
    7.0885  -40.1560    0.1999 N   0  0  0  0  0  0  0  0  0  0  0  0
    9.1571  -38.1900    1.2956 C   0  0  0  0  0  0  0  0  0  0  0  0
    5.2913  -38.6418   -1.9244 C   0  0  0  0  0  0  0  0  0  0  0  0
    5.9936  -34.4373    6.7381 O   0  0  0  0  0  0  0  0  0  0  0  0
    6.9306  -37.5967    0.7199 C   0  0  0  0  0  0  0  0  0  0  0  0
    5.0924  -36.4117    7.3821 O   0  0  0  0  0  0  0  0  0  0  0  0
    9.0308  -42.8372    4.6564 F   0  0  0  0  0  0  0  0  0  0  0  0
    7.2029  -36.3056    1.2369 C   0  0  0  0  0  0  0  0  0  0  0  0
    4.4183  -35.4536    5.2634 C   0  0  0  0  0  0  0  0  0  0  0  0
    7.2529  -42.1096    1.5738 C   0  0  0  0  0  0  0  0  0  0  0  0
    9.8386  -39.3178    1.7437 O   0  0  0  0  0  0  0  0  0  0  0  0
    7.7563  -40.8739    1.2490 C   0  0  0  0  0  0  0  0  0  0  0  0
    5.0995  -38.7774   -0.4053 C   0  0  0  0  0  0  0  0  0  0  0  0
    8.9535  -40.4173    2.0307 C   0  0  0  0  0  0  0  0  0  0  0  0
    4.2587  -36.8846    2.8090 C   0  0  0  0  0  0  0  0  0  0  0  0
    8.6805  -42.2464    3.4800 C   0  0  0  0  0  0  0  0  0  0  0  0
    5.3369  -35.4895    6.5236 C   0  0  0  0  0  0  0  0  0  0  0  0
    6.0227  -35.7793    1.5231 N   0  0  0  0  0  0  0  0  0  0  0  0
  1 11  1  0
  1 23  1  0
  2 19  1  0
  2 25  1  0
  3 13  1  0
  4  5  1  0
  4 15  1  0
  4 23  1  0
  5 25  1  0
  5 28  2  0
  6  9  2  0
  6 12  1  0
  7 20  1  0
  7 26  2  0
  8 24  2  0
  8 26  1  0
  9 18  1  0
 10 12  1  0
 10 15  1  0
 11 22  1  0
 12 21  1  0
 13 23  1  0
 14 27  2  0
 15 18  2  0
 16 27  1  0
 17 26  1  0
 18 28  1  0
 19 27  1  0
 20 22  2  0
 21 24  1  0
 22 24  1  0
M  END
>  <ID>  (1) 
conformer_0

$$$$
