
     RDKit          3D

 31 34  0  0  0  0  0  0  0  0999 V2000
    8.3899  -41.4269    1.9457 C   0  0  0  0  0  0  0  0  0  0  0  0
    7.8560  -42.5961    1.4520 C   0  0  0  0  0  0  0  0  0  0  0  0
    8.8033  -38.8597    1.2618 C   0  0  0  0  0  0  0  0  0  0  0  0
    2.3603  -37.3877    0.2305 C   0  0  0  0  0  0  0  0  0  0  0  0
    8.5894  -42.2600    5.5057 F   0  0  0  0  0  0  0  0  0  0  0  0
    1.6049  -38.5168   -0.2883 C   0  0  0  0  0  0  0  0  0  0  0  0
    6.8584  -35.7964    0.6122 C   0  0  0  0  0  0  0  0  0  0  0  0
    7.0823  -38.4695   -0.5474 C   0  0  0  0  0  0  0  0  0  0  0  0
    0.2654  -38.2507   -0.7945 C   0  0  0  0  0  0  0  0  0  0  0  0
    4.8648  -37.5844    0.0729 C   0  0  0  0  0  0  0  0  0  0  0  0
    7.8664  -43.5308    3.6446 C   0  0  0  0  0  0  0  0  0  0  0  0
   10.6209  -39.1965    2.7101 O   0  0  0  0  0  0  0  0  0  0  0  0
    3.6404  -37.6877    0.7364 C   0  0  0  0  0  0  0  0  0  0  0  0
    1.6806  -36.2113    0.4580 N   0  0  0  0  0  0  0  0  0  0  0  0
    9.1740  -36.0625    1.6170 C   0  0  0  0  0  0  0  0  0  0  0  0
   -0.3884  -36.9691   -1.0977 C   0  0  0  0  0  0  0  0  0  0  0  0
    2.4194  -39.6815   -0.8076 C   0  0  0  0  0  0  0  0  0  0  0  0
   11.0312  -36.5780    3.3471 C   0  0  0  0  0  0  0  0  0  0  0  0
    7.1216  -37.5100   -1.7719 C   0  0  0  0  0  0  0  0  0  0  0  0
   -0.7112  -36.1179    0.0794 C   0  0  0  0  0  0  0  0  0  0  0  0
    7.5765  -43.6161    2.3176 C   0  0  0  0  0  0  0  0  0  0  0  0
    7.9497  -37.9764    0.5526 C   0  0  0  0  0  0  0  0  0  0  0  0
    8.0903  -36.5747    0.8009 C   0  0  0  0  0  0  0  0  0  0  0  0
    8.6820  -41.3356    3.2920 C   0  0  0  0  0  0  0  0  0  0  0  0
   10.1149  -36.9707    2.1869 C   0  0  0  0  0  0  0  0  0  0  0  0
    5.6176  -36.4500    0.3696 N   0  0  0  0  0  0  0  0  0  0  0  0
    8.4037  -42.3802    4.1454 C   0  0  0  0  0  0  0  0  0  0  0  0
    5.6921  -38.8254   -0.1742 C   0  0  0  0  0  0  0  0  0  0  0  0
    0.4419  -36.0171    0.9627 N   0  0  0  0  0  0  0  0  0  0  0  0
    9.8757  -38.3966    2.0413 C   0  0  0  0  0  0  0  0  0  0  0  0
    8.5766  -40.2636    1.0304 C   0  0  0  0  0  0  0  0  0  0  0  0
  1  2  2  0
  1 24  1  0
  1 31  1  0
  2 21  1  0
  3 22  2  0
  3 30  1  0
  3 31  1  0
  4  6  1  0
  4 13  1  0
  4 14  1  0
  5 27  1  0
  6  9  1  0
  6 17  1  0
  7 23  1  0
  7 26  2  0
  8 19  1  0
  8 22  1  0
  8 28  1  0
  9 16  1  0
 10 13  1  0
 10 26  1  0
 10 28  1  0
 11 21  2  0
 11 27  1  0
 12 30  2  0
 14 29  1  0
 15 23  1  0
 15 25  2  0
 16 20  1  0
 18 25  1  0
 20 29  1  0
 22 23  1  0
 24 27  2  0
 25 30  1  0
M  END
>  <ID>  (1) 
conformer_0

$$$$
