
     RDKit          3D

 14 16  0  0  0  0  0  0  0  0999 V2000
    7.6411  -35.1724    1.6688 O   0  0  0  0  0  0  0  0  0  0  0  0
    6.2071  -38.0306   -1.2773 C   0  0  0  0  0  0  0  0  0  0  0  0
    8.6794  -39.3152    1.1170 C   0  0  0  0  0  0  0  0  0  0  0  0
    6.6483  -36.6416   -0.6812 N   0  0  0  0  0  0  0  0  0  0  0  0
    7.9220  -38.3956    0.4056 C   0  0  0  0  0  0  0  0  0  0  0  0
    9.4519  -36.5784    2.0241 C   0  0  0  0  0  0  0  0  0  0  0  0
    7.0084  -40.4058   -0.1434 C   0  0  0  0  0  0  0  0  0  0  0  0
    9.7912  -39.4972    1.9674 C   0  0  0  0  0  0  0  0  0  0  0  0
    8.3466  -36.1425    1.3173 C   0  0  0  0  0  0  0  0  0  0  0  0
   10.2779  -37.2348    2.6413 C   0  0  0  0  0  0  0  0  0  0  0  0
    8.0411  -40.6419    0.7779 C   0  0  0  0  0  0  0  0  0  0  0  0
    7.8051  -36.9343    0.2082 C   0  0  0  0  0  0  0  0  0  0  0  0
   10.5624  -38.6191    2.7286 C   0  0  0  0  0  0  0  0  0  0  0  0
    6.9440  -39.0036   -0.4104 C   0  0  0  0  0  0  0  0  0  0  0  0
  1  9  1  0
  2  4  1  0
  2 14  1  0
  3  5  2  0
  3  8  1  0
  3 11  1  0
  4 12  1  0
  5 12  1  0
  5 14  1  0
  6  9  2  0
  6 10  2  0
  7 11  1  0
  7 14  1  0
  8 13  2  0
  9 12  1  0
 10 13  1  0
M  END
>  <ID>  (1) 
conformer_0

$$$$
