
     RDKit          3D

 32 35  0  0  0  0  0  0  0  0999 V2000
    6.1072  -36.6536    0.9483 C   0  0  0  0  0  0  0  0  0  0  0  0
    5.2699  -36.3092    2.0753 C   0  0  0  0  0  0  0  0  0  0  0  0
    3.2640  -36.6801    3.1690 C   0  0  0  0  0  0  0  0  0  0  0  0
    6.8496  -42.9740    4.7507 C   0  0  0  0  0  0  0  0  0  0  0  0
    3.6981  -40.4366   -3.2292 C   0  0  0  0  0  0  0  0  0  0  0  0
    4.0403  -39.8712   -1.9152 C   0  0  0  0  0  0  0  0  0  0  0  0
    5.1242  -38.9231   -1.9561 C   0  0  0  0  0  0  0  0  0  0  0  0
    9.8989  -40.3226   -0.6346 O   0  0  0  0  0  0  0  0  0  0  0  0
    7.0229  -43.0639    3.2607 C   0  0  0  0  0  0  0  0  0  0  0  0
   10.6535  -37.8495    2.5308 C   0  0  0  0  0  0  0  0  0  0  0  0
    4.0777  -36.8635    1.8848 N   0  0  0  0  0  0  0  0  0  0  0  0
    5.7757  -37.8193   -1.2016 C   0  0  0  0  0  0  0  0  0  0  0  0
    4.1861  -35.7183    4.0358 C   0  0  0  0  0  0  0  0  0  0  0  0
    7.7218  -39.2728   -0.7855 C   0  0  0  0  0  0  0  0  0  0  0  0
    8.2553  -42.9355    5.1619 C   0  0  0  0  0  0  0  0  0  0  0  0
    7.5634  -36.4150    0.8108 C   0  0  0  0  0  0  0  0  0  0  0  0
    9.5367  -38.1459    1.7423 C   0  0  0  0  0  0  0  0  0  0  0  0
    7.2679  -37.9563   -1.3888 C   0  0  0  0  0  0  0  0  0  0  0  0
    5.4047  -35.6062    3.2370 O   0  0  0  0  0  0  0  0  0  0  0  0
   10.6589  -36.4063    2.8328 C   0  0  0  0  0  0  0  0  0  0  0  0
    8.7979  -36.8776    1.4018 C   0  0  0  0  0  0  0  0  0  0  0  0
    9.1011  -39.3969    1.3335 N   0  0  0  0  0  0  0  0  0  0  0  0
   11.8047  -35.8318    4.0955 Cl  0  0  0  0  0  0  0  0  0  0  0  0
    5.3402  -37.3452    0.1143 N   0  0  0  0  0  0  0  0  0  0  0  0
    8.4929  -40.3190    2.2609 C   0  0  0  0  0  0  0  0  0  0  0  0
    4.1091  -37.5069    0.6286 C   0  0  0  0  0  0  0  0  0  0  0  0
    8.9582  -39.7801   -0.0563 C   0  0  0  0  0  0  0  0  0  0  0  0
    3.5057  -40.3260   -0.8711 O   0  0  0  0  0  0  0  0  0  0  0  0
    8.4929  -42.7003    3.0499 O   0  0  0  0  0  0  0  0  0  0  0  0
    4.6414  -36.3439    5.3469 C   0  0  0  0  0  0  0  0  0  0  0  0
    9.6873  -35.7209    2.1156 C   0  0  0  0  0  0  0  0  0  0  0  0
    8.4842  -41.8179    1.7706 C   0  0  0  0  0  0  0  0  0  0  0  0
  1  2  2  0
  1 16  1  0
  1 24  1  0
  2 11  1  0
  2 19  1  0
  3 11  1  0
  3 13  1  0
  4  9  1  0
  4 15  1  0
  5  6  1  0
  6  7  1  0
  6 28  2  0
  7 12  1  0
  8 27  2  0
  9 29  1  0
 10 17  1  0
 10 20  1  0
 11 26  1  0
 12 18  1  0
 12 24  1  0
 13 19  1  0
 13 30  1  0
 14 18  1  0
 14 27  1  0
 16 21  1  0
 17 21  2  0
 17 22  1  0
 20 23  1  0
 20 31  1  0
 21 31  1  0
 22 25  1  0
 22 27  1  0
 24 26  1  0
 25 32  1  0
 29 32  1  0
M  END
>  <ID>  (1) 
conformer_0

$$$$
