
     RDKit          3D

 27 29  0  0  0  0  0  0  0  0999 V2000
    8.0202  -36.3785    1.1979 C   0  0  0  0  0  0  0  0  0  0  0  0
    8.0687  -35.0867    1.4690 C   0  0  0  0  0  0  0  0  0  0  0  0
    7.8003  -38.1415   -0.0607 N   0  0  0  0  0  0  0  0  0  0  0  0
    7.1704  -38.6190   -1.2917 C   0  0  0  0  0  0  0  0  0  0  0  0
    7.1320  -37.0155    0.3790 C   0  0  0  0  0  0  0  0  0  0  0  0
    9.9226  -39.7802   -0.9616 C   0  0  0  0  0  0  0  0  0  0  0  0
    8.8910  -38.3854    0.6942 C   0  0  0  0  0  0  0  0  0  0  0  0
    9.9754  -37.0894    2.3935 O   0  0  0  0  0  0  0  0  0  0  0  0
   11.6243  -41.0705   -1.8895 O   0  0  0  0  0  0  0  0  0  0  0  0
    4.8837  -38.4928   -1.6383 O   0  0  0  0  0  0  0  0  0  0  0  0
    6.6001  -41.4501    5.1542 C   0  0  0  0  0  0  0  0  0  0  0  0
    8.1096  -42.9618    3.3549 C   0  0  0  0  0  0  0  0  0  0  0  0
    3.3616  -37.0964    0.5198 C   0  0  0  0  0  0  0  0  0  0  0  0
    4.7191  -36.3872    0.6232 C   0  0  0  0  0  0  0  0  0  0  0  0
    8.4786  -42.9078    4.6797 C   0  0  0  0  0  0  0  0  0  0  0  0
    5.7952  -37.9683   -1.1455 C   0  0  0  0  0  0  0  0  0  0  0  0
    7.1766  -40.8132    0.9593 C   0  0  0  0  0  0  0  0  0  0  0  0
   10.7412  -41.1022   -0.8642 C   0  0  0  0  0  0  0  0  0  0  0  0
    9.0688  -37.2919    1.4783 C   0  0  0  0  0  0  0  0  0  0  0  0
    8.7127  -40.8316    0.7584 O   0  0  0  0  0  0  0  0  0  0  0  0
    9.7066  -39.6169    0.6386 C   0  0  0  0  0  0  0  0  0  0  0  0
    5.7997  -36.9576   -0.1367 N   0  0  0  0  0  0  0  0  0  0  0  0
    6.2005  -41.4926    3.8342 C   0  0  0  0  0  0  0  0  0  0  0  0
    5.1099  -36.0387    2.1155 C   0  0  0  0  0  0  0  0  0  0  0  0
    6.5699  -42.1543    1.4749 C   0  0  0  0  0  0  0  0  0  0  0  0
    7.7341  -42.1326    5.5702 C   0  0  0  0  0  0  0  0  0  0  0  0
    6.9640  -42.2504    2.9362 C   0  0  0  0  0  0  0  0  0  0  0  0
  1  2  2  0
  1  5  1  0
  1 19  1  0
  3  4  1  0
  3  5  1  0
  3  7  1  0
  4 16  1  0
  5 22  1  0
  6 18  1  0
  6 21  1  0
  7 19  2  0
  7 21  1  0
  8 19  1  0
  9 18  1  0
 10 16  2  0
 11 23  2  0
 11 26  1  0
 12 15  2  0
 12 27  1  0
 13 14  1  0
 14 22  1  0
 14 24  1  0
 15 26  1  0
 16 22  1  0
 17 20  1  0
 17 25  1  0
 20 21  1  0
 23 27  1  0
 25 27  1  0
M  END
>  <ID>  (1) 
conformer_0

$$$$
