
     RDKit          3D

 32 35  0  0  0  0  0  0  0  0999 V2000
    7.4847  -41.6998    1.9687 C   0  0  0  0  0  0  0  0  0  0  0  0
    7.3168  -36.7226    1.1206 N   0  0  0  0  0  0  0  0  0  0  0  0
    5.6472  -36.2797    2.8239 C   0  0  0  0  0  0  0  0  0  0  0  0
    8.3860  -42.1343    3.0730 C   0  0  0  0  0  0  0  0  0  0  0  0
    6.0914  -38.3074   -1.3195 C   0  0  0  0  0  0  0  0  0  0  0  0
    4.6101  -39.6039   -2.8428 F   0  0  0  0  0  0  0  0  0  0  0  0
    6.1323  -35.3595    7.8776 C   0  0  0  0  0  0  0  0  0  0  0  0
    8.3757  -35.8947    1.2405 C   0  0  0  0  0  0  0  0  0  0  0  0
    5.7631  -41.0730    0.2988 C   0  0  0  0  0  0  0  0  0  0  0  0
    4.8432  -39.1492   -1.4527 C   0  0  0  0  0  0  0  0  0  0  0  0
    9.2006  -38.0286    0.5293 C   0  0  0  0  0  0  0  0  0  0  0  0
    8.1619  -43.5140    3.6046 C   0  0  0  0  0  0  0  0  0  0  0  0
    6.0763  -43.5298    0.9518 C   0  0  0  0  0  0  0  0  0  0  0  0
    9.3062  -41.4218    3.6152 O   0  0  0  0  0  0  0  0  0  0  0  0
    7.4548  -35.0205    8.4587 N   0  0  0  0  0  0  0  0  0  0  0  0
    5.9065  -34.7708    6.5605 C   0  0  0  0  0  0  0  0  0  0  0  0
    9.6999  -36.6427    1.0705 C   0  0  0  0  0  0  0  0  0  0  0  0
    4.6447  -40.2611   -0.4967 C   0  0  0  0  0  0  0  0  0  0  0  0
    5.0952  -36.3609    0.6028 O   0  0  0  0  0  0  0  0  0  0  0  0
    8.3378  -34.6788    1.3580 O   0  0  0  0  0  0  0  0  0  0  0  0
    5.9941  -36.4713    1.4484 C   0  0  0  0  0  0  0  0  0  0  0  0
    7.7436  -40.3984    1.4713 N   0  0  0  0  0  0  0  0  0  0  0  0
   10.3570  -36.9056    2.4049 C   0  0  0  0  0  0  0  0  0  0  0  0
    6.8007  -38.7849   -0.1144 N   0  0  0  0  0  0  0  0  0  0  0  0
    7.7092  -37.9203    0.5024 C   0  0  0  0  0  0  0  0  0  0  0  0
    7.1212  -44.3097    3.0546 N   0  0  0  0  0  0  0  0  0  0  0  0
    6.9660  -40.1374    0.3308 C   0  0  0  0  0  0  0  0  0  0  0  0
    5.9674  -44.3679    2.2354 C   0  0  0  0  0  0  0  0  0  0  0  0
    6.2667  -42.1717    1.3273 C   0  0  0  0  0  0  0  0  0  0  0  0
    4.5358  -35.9720    3.3354 N   0  0  0  0  0  0  0  0  0  0  0  0
    5.5704  -35.4232    5.4258 C   0  0  0  0  0  0  0  0  0  0  0  0
    4.4754  -35.4400    4.6564 C   0  0  0  0  0  0  0  0  0  0  0  0
  1  4  1  0
  1 22  1  0
  1 29  1  0
  2  8  1  0
  2 21  1  0
  2 25  1  0
  3 21  1  0
  3 30  2  3
  4 12  1  0
  4 14  2  0
  5 10  1  0
  5 24  1  0
  6 10  1  0
  7 15  1  0
  7 16  1  0
  8 17  1  0
  8 20  2  0
  9 18  1  0
  9 27  1  0
  9 29  1  0
 10 18  1  0
 11 17  1  0
 11 25  1  0
 12 26  2  0
 13 28  1  0
 13 29  1  0
 16 31  1  0
 17 23  1  0
 19 21  2  0
 22 27  2  0
 24 25  1  0
 24 27  1  0
 26 28  1  0
 30 32  1  0
 31 32  2  3
M  END
>  <ID>  (1) 
conformer_0

$$$$
