
     RDKit          3D

 28 28  0  0  0  0  0  0  0  0999 V2000
    5.6094  -37.2056   -0.5352 O   0  0  0  0  0  0  0  0  0  0  0  0
    5.1712  -38.4940   -1.2370 C   0  0  0  0  0  0  0  0  0  0  0  0
    5.5351  -37.0003    0.9119 C   0  0  0  0  0  0  0  0  0  0  0  0
    7.0104  -41.2874    2.6148 O   0  0  0  0  0  0  0  0  0  0  0  0
    9.6519  -39.4145    2.0267 O   0  0  0  0  0  0  0  0  0  0  0  0
    4.0173  -34.7974    5.0775 C   0  0  0  0  0  0  0  0  0  0  0  0
    8.7376  -41.6700    5.5394 F   0  0  0  0  0  0  0  0  0  0  0  0
    6.4204  -35.9010    2.8377 C   0  0  0  0  0  0  0  0  0  0  0  0
    8.5828  -41.2974    1.0351 C   0  0  0  0  0  0  0  0  0  0  0  0
    7.0926  -37.0558   -1.0096 C   0  0  0  0  0  0  0  0  0  0  0  0
    7.8026  -37.8092    0.0413 C   0  0  0  0  0  0  0  0  0  0  0  0
    4.4600  -37.0257    2.0091 C   0  0  0  0  0  0  0  0  0  0  0  0
    4.9513  -35.9338    4.7875 C   0  0  0  0  0  0  0  0  0  0  0  0
    9.2692  -43.3412    4.2489 F   0  0  0  0  0  0  0  0  0  0  0  0
    7.2082  -43.0274    4.8983 C   0  0  0  0  0  0  0  0  0  0  0  0
    8.3722  -42.4102    4.4910 C   0  0  0  0  0  0  0  0  0  0  0  0
    9.7401  -36.8176    1.8810 O   0  0  0  0  0  0  0  0  0  0  0  0
    8.4670  -34.5808    1.2215 O   0  0  0  0  0  0  0  0  0  0  0  0
    4.8768  -37.2118    5.5257 C   0  0  0  0  0  0  0  0  0  0  0  0
    6.5734  -36.0407    1.3918 C   0  0  0  0  0  0  0  0  0  0  0  0
    8.8242  -36.9831    0.7706 C   0  0  0  0  0  0  0  0  0  0  0  0
    7.9393  -35.7157    0.8770 C   0  0  0  0  0  0  0  0  0  0  0  0
    9.3306  -39.1573   -0.9951 O   0  0  0  0  0  0  0  0  0  0  0  0
    5.0442  -36.2662    3.2671 N   0  0  0  0  0  0  0  0  0  0  0  0
    8.6863  -39.7971    1.1746 C   0  0  0  0  0  0  0  0  0  0  0  0
    7.0310  -41.3961    1.1477 C   0  0  0  0  0  0  0  0  0  0  0  0
    8.1242  -39.2372   -0.1584 C   0  0  0  0  0  0  0  0  0  0  0  0
    8.3483  -41.6055    3.1328 C   0  0  0  0  0  0  0  0  0  0  0  0
  1  2  1  0
  1  3  1  0
  3 12  1  0
  3 20  1  0
  4 26  1  0
  4 28  1  0
  5 25  1  0
  6 13  1  0
  7 16  1  0
  8 20  1  0
  8 24  1  0
  9 25  1  0
  9 26  1  0
 10 11  1  0
 11 21  1  0
 11 27  1  0
 12 24  1  0
 13 19  1  0
 13 24  1  0
 14 16  1  0
 15 16  1  0
 16 28  1  0
 17 21  1  0
 18 22  1  0
 20 22  1  0
 21 22  1  0
 23 27  1  0
 25 27  1  0
M  END
>  <ID>  (1) 
conformer_0

$$$$
