
     RDKit          3D

 16 17  0  0  0  0  0  0  0  0999 V2000
    8.8001  -42.4752    3.6054 C   0  0  0  0  0  0  0  0  0  0  0  0
    8.7385  -36.5407    1.0074 C   0  0  0  0  0  0  0  0  0  0  0  0
    9.5108  -36.9165    2.0840 O   0  0  0  0  0  0  0  0  0  0  0  0
    9.0948  -41.2002    3.1666 N   0  0  0  0  0  0  0  0  0  0  0  0
    7.1688  -35.6652    2.6319 O   0  0  0  0  0  0  0  0  0  0  0  0
    6.2203  -36.3740    0.4589 C   0  0  0  0  0  0  0  0  0  0  0  0
    7.9255  -38.8347    0.6377 O   0  0  0  0  0  0  0  0  0  0  0  0
    8.6220  -37.7209    0.0286 C   0  0  0  0  0  0  0  0  0  0  0  0
    8.5946  -41.0039    1.8291 C   0  0  0  0  0  0  0  0  0  0  0  0
    8.8612  -39.8439    1.0290 C   0  0  0  0  0  0  0  0  0  0  0  0
    5.6987  -38.3341   -1.4769 O   0  0  0  0  0  0  0  0  0  0  0  0
    8.1224  -43.1306    2.5713 C   0  0  0  0  0  0  0  0  0  0  0  0
    7.4058  -35.8729    1.2425 C   0  0  0  0  0  0  0  0  0  0  0  0
    7.8172  -37.3544   -1.2285 C   0  0  0  0  0  0  0  0  0  0  0  0
    6.3370  -37.2629   -0.7780 C   0  0  0  0  0  0  0  0  0  0  0  0
    7.9913  -42.1928    1.4707 C   0  0  0  0  0  0  0  0  0  0  0  0
  1  4  1  0
  1 12  1  0
  2  3  1  0
  2  8  1  0
  2 13  1  0
  4  9  1  0
  5 13  1  0
  6 13  1  0
  6 15  1  0
  7  8  1  0
  7 10  1  0
  8 14  1  0
  9 10  1  0
  9 16  1  0
 11 15  1  0
 12 16  1  0
 14 15  1  0
M  END
>  <ID>  (1) 
conformer_0

$$$$
