
     RDKit          3D

 42 45  0  0  0  0  0  0  0  0999 V2000
    4.5431  -35.7566    8.9534 O   0  0  0  0  0  0  0  0  0  0  0  0
    4.5253  -38.3832    6.6497 C   0  0  0  0  0  0  0  0  0  0  0  0
    9.8273  -40.5304   -0.2679 C   0  0  0  0  0  0  0  0  0  0  0  0
    6.8451  -43.5963    3.8489 C   0  0  0  0  0  0  0  0  0  0  0  0
    3.2827  -39.6651    2.8677 O   0  0  0  0  0  0  0  0  0  0  0  0
    3.6322  -37.5184    4.5682 C   0  0  0  0  0  0  0  0  0  0  0  0
    4.3214  -38.4803    5.2941 C   0  0  0  0  0  0  0  0  0  0  0  0
    7.3177  -43.8957    5.0169 O   0  0  0  0  0  0  0  0  0  0  0  0
    3.1664  -36.3619    6.6125 C   0  0  0  0  0  0  0  0  0  0  0  0
    3.9754  -37.2894    7.3184 C   0  0  0  0  0  0  0  0  0  0  0  0
    5.6325  -37.0788    1.5157 C   0  0  0  0  0  0  0  0  0  0  0  0
    3.6271  -37.4120    3.1037 C   0  0  0  0  0  0  0  0  0  0  0  0
    7.4493  -42.2899    1.9849 C   0  0  0  0  0  0  0  0  0  0  0  0
    5.2360  -41.6810    1.9115 C   0  0  0  0  0  0  0  0  0  0  0  0
    5.7002  -41.4506    3.2004 N   0  0  0  0  0  0  0  0  0  0  0  0
    8.4319  -37.2600    1.1326 C   0  0  0  0  0  0  0  0  0  0  0  0
    8.3263  -34.8158    1.2188 F   0  0  0  0  0  0  0  0  0  0  0  0
    6.2088  -42.4946    1.2372 N   0  0  0  0  0  0  0  0  0  0  0  0
    9.1773  -41.5387    0.3916 C   0  0  0  0  0  0  0  0  0  0  0  0
   10.8949  -40.8700   -1.0939 F   0  0  0  0  0  0  0  0  0  0  0  0
    3.4654  -36.5300    1.9896 N   0  0  0  0  0  0  0  0  0  0  0  0
    6.6433  -37.3513   -2.0960 C   0  0  0  0  0  0  0  0  0  0  0  0
    9.5291  -39.1660   -0.0705 C   0  0  0  0  0  0  0  0  0  0  0  0
    9.4935  -36.9302    2.0570 O   0  0  0  0  0  0  0  0  0  0  0  0
    8.6296  -38.7822    0.8859 C   0  0  0  0  0  0  0  0  0  0  0  0
    8.0153  -39.7944    1.5940 C   0  0  0  0  0  0  0  0  0  0  0  0
    8.2071  -41.1558    1.3428 C   0  0  0  0  0  0  0  0  0  0  0  0
    4.1990  -41.4643    1.1959 O   0  0  0  0  0  0  0  0  0  0  0  0
    5.6638  -36.8016    0.1125 C   0  0  0  0  0  0  0  0  0  0  0  0
    7.0111  -42.1820    3.3682 C   0  0  0  0  0  0  0  0  0  0  0  0
    4.3810  -36.6578    0.7952 C   0  0  0  0  0  0  0  0  0  0  0  0
    5.3909  -38.9351   -0.8457 O   0  0  0  0  0  0  0  0  0  0  0  0
    6.0452  -36.1938    2.4110 O   0  0  0  0  0  0  0  0  0  0  0  0
    5.8762  -37.7737   -0.9171 C   0  0  0  0  0  0  0  0  0  0  0  0
    7.8737  -41.5147    4.3799 C   0  0  0  0  0  0  0  0  0  0  0  0
    4.1557  -38.6787    2.5478 C   0  0  0  0  0  0  0  0  0  0  0  0
    5.3937  -38.3869    1.9721 O   0  0  0  0  0  0  0  0  0  0  0  0
    6.6089  -35.6299   -0.1607 C   0  0  0  0  0  0  0  0  0  0  0  0
    2.9520  -36.5340    5.2690 C   0  0  0  0  0  0  0  0  0  0  0  0
    7.9498  -36.0307    0.4394 C   0  0  0  0  0  0  0  0  0  0  0  0
    6.8229  -44.6716    2.8836 C   0  0  0  0  0  0  0  0  0  0  0  0
    4.1935  -37.1101    8.7552 C   0  0  0  0  0  0  0  0  0  0  0  0
  1 42  1  0
  2  7  2  0
  2 10  1  0
  3 19  2  0
  3 20  1  0
  3 23  1  0
  4  8  1  0
  4 30  1  0
  4 41  1  0
  5 36  2  0
  6  7  1  0
  6 12  1  0
  6 39  1  0
  9 10  1  0
  9 39  2  0
 10 42  1  0
 11 29  1  0
 11 33  2  0
 11 37  1  0
 12 21  1  0
 12 36  1  0
 13 18  1  0
 13 27  1  0
 13 30  1  0
 14 15  1  0
 14 18  1  0
 14 28  2  0
 15 30  1  0
 16 24  1  0
 16 25  1  0
 16 40  1  0
 17 40  1  0
 19 27  1  0
 21 31  1  0
 22 34  1  0
 23 25  2  0
 25 26  1  0
 26 27  2  0
 29 31  1  0
 29 34  1  0
 29 38  1  0
 30 35  1  0
 32 34  2  0
 36 37  1  0
 38 40  1  0
M  END
>  <ID>  (1) 
conformer_0

$$$$
