
     RDKit          3D

 23 23  0  0  0  0  0  0  0  0999 V2000
    7.9300  -37.3254   -0.7595 C   0  0  0  0  0  0  0  0  0  0  0  0
    4.9935  -36.0891    7.7931 C   0  0  0  0  0  0  0  0  0  0  0  0
    6.7810  -37.2508   -1.5025 F   0  0  0  0  0  0  0  0  0  0  0  0
    5.7378  -35.7956    3.2132 C   0  0  0  0  0  0  0  0  0  0  0  0
    8.0750  -42.6190    4.7538 C   0  0  0  0  0  0  0  0  0  0  0  0
    5.2844  -36.7734    4.2424 C   0  0  0  0  0  0  0  0  0  0  0  0
    7.3504  -38.5742    1.1907 O   0  0  0  0  0  0  0  0  0  0  0  0
    8.9944  -37.3683   -1.6692 F   0  0  0  0  0  0  0  0  0  0  0  0
    5.9301  -36.4016    1.8442 C   0  0  0  0  0  0  0  0  0  0  0  0
    9.1464  -40.5423    0.7890 O   0  0  0  0  0  0  0  0  0  0  0  0
    5.2628  -34.8199    5.6472 C   0  0  0  0  0  0  0  0  0  0  0  0
    8.9509  -39.5752   -0.3306 C   0  0  0  0  0  0  0  0  0  0  0  0
    8.8988  -41.9924    3.6200 C   0  0  0  0  0  0  0  0  0  0  0  0
    6.7275  -34.8847    7.7357 C   0  0  0  0  0  0  0  0  0  0  0  0
    7.8999  -40.9462    1.4760 C   0  0  0  0  0  0  0  0  0  0  0  0
    6.9610  -35.7299    0.9816 C   0  0  0  0  0  0  0  0  0  0  0  0
    5.8599  -35.7877    6.5349 C   0  0  0  0  0  0  0  0  0  0  0  0
    8.0918  -36.1318    0.1747 C   0  0  0  0  0  0  0  0  0  0  0  0
    9.3858  -36.2558    0.7612 F   0  0  0  0  0  0  0  0  0  0  0  0
    8.2579  -42.2517    2.2455 C   0  0  0  0  0  0  0  0  0  0  0  0
    5.9972  -35.5088    8.7879 N   0  0  0  0  0  0  0  0  0  0  0  0
    7.9115  -38.5841    0.0639 C   0  0  0  0  0  0  0  0  0  0  0  0
    4.4574  -36.0202    5.2633 C   0  0  0  0  0  0  0  0  0  0  0  0
  1  3  1  0
  1  8  1  0
  1 18  1  0
  1 22  1  0
  2 17  1  0
  2 21  1  0
  4  6  1  0
  4  9  1  0
  5 13  1  0
  6 23  1  0
  7 22  2  0
  9 16  1  0
 10 12  1  0
 10 15  1  0
 11 17  1  0
 11 23  1  0
 12 22  1  0
 13 20  1  0
 14 17  1  0
 14 21  1  0
 15 20  1  0
 16 18  1  0
 18 19  1  0
M  END
>  <ID>  (1) 
conformer_0

$$$$
