
     RDKit          3D

 27 28  0  0  0  0  0  0  0  0999 V2000
    9.9280  -37.4230    2.0852 C   0  0  0  0  0  0  0  0  0  0  0  0
    8.0275  -36.3387    0.9557 C   0  0  0  0  0  0  0  0  0  0  0  0
    9.6605  -40.0416   -0.2572 C   0  0  0  0  0  0  0  0  0  0  0  0
    6.0443  -38.1212   -1.6481 F   0  0  0  0  0  0  0  0  0  0  0  0
    5.1895  -35.6465    4.5251 C   0  0  0  0  0  0  0  0  0  0  0  0
    7.4649  -39.1316   -0.4786 C   0  0  0  0  0  0  0  0  0  0  0  0
   10.7539  -40.6702   -0.6862 F   0  0  0  0  0  0  0  0  0  0  0  0
    6.0791  -36.1127    2.2949 C   0  0  0  0  0  0  0  0  0  0  0  0
    6.2719  -35.9465   -0.1658 O   0  0  0  0  0  0  0  0  0  0  0  0
    9.1633  -40.6954    2.0791 C   0  0  0  0  0  0  0  0  0  0  0  0
    4.1938  -39.7478    1.5934 C   0  0  0  0  0  0  0  0  0  0  0  0
    6.0403  -35.2618    7.0615 C   0  0  0  0  0  0  0  0  0  0  0  0
    5.2067  -40.0188   -0.5275 C   0  0  0  0  0  0  0  0  0  0  0  0
    5.4406  -36.0237    5.8595 C   0  0  0  0  0  0  0  0  0  0  0  0
    9.0338  -37.2840    0.5793 C   0  0  0  0  0  0  0  0  0  0  0  0
    9.4582  -39.7051    1.2509 C   0  0  0  0  0  0  0  0  0  0  0  0
    5.7292  -38.0205    0.8580 C   0  0  0  0  0  0  0  0  0  0  0  0
    8.5858  -39.6204   -0.9527 C   0  0  0  0  0  0  0  0  0  0  0  0
    4.3337  -40.4662    0.4079 C   0  0  0  0  0  0  0  0  0  0  0  0
    4.7053  -37.8715    3.0681 C   0  0  0  0  0  0  0  0  0  0  0  0
    8.5678  -41.6368    2.9042 C   0  0  0  0  0  0  0  0  0  0  0  0
    6.4620  -36.7135    1.0829 N   0  0  0  0  0  0  0  0  0  0  0  0
    6.0724  -38.8435   -0.3971 C   0  0  0  0  0  0  0  0  0  0  0  0
    5.3179  -36.6157    3.2951 C   0  0  0  0  0  0  0  0  0  0  0  0
    4.8742  -38.5384    1.8125 C   0  0  0  0  0  0  0  0  0  0  0  0
    9.3826  -38.3908    1.2974 C   0  0  0  0  0  0  0  0  0  0  0  0
    8.2790  -35.0188    1.2014 O   0  0  0  0  0  0  0  0  0  0  0  0
  1 26  2  0
  2 15  1  0
  2 27  1  0
  3  7  1  0
  3 16  1  0
  3 18  2  3
  4 23  1  0
  5 14  1  0
  5 24  1  0
  6 18  1  0
  6 23  1  0
  8 22  1  0
  8 24  2  0
  9 22  1  0
 10 16  1  0
 10 21  1  0
 11 19  1  0
 11 25  1  0
 12 14  1  0
 13 19  2  0
 13 23  1  0
 15 26  1  0
 16 26  1  0
 17 22  1  0
 17 23  1  0
 17 25  2  0
 20 24  1  0
 20 25  1  0
M  END
>  <ID>  (1) 
conformer_0

$$$$
