
     RDKit          3D

 29 30  0  0  0  0  0  0  0  0999 V2000
    8.2283  -42.4488    1.4209 C   0  0  0  0  0  0  0  0  0  0  0  0
    8.7875  -42.7127    4.0946 C   0  0  0  0  0  0  0  0  0  0  0  0
    8.6204  -41.3521    2.1769 C   0  0  0  0  0  0  0  0  0  0  0  0
    5.1836  -37.0402    0.9219 C   0  0  0  0  0  0  0  0  0  0  0  0
    5.8509  -35.5964    5.1242 O   0  0  0  0  0  0  0  0  0  0  0  0
    9.7962  -35.6949    1.3793 O   0  0  0  0  0  0  0  0  0  0  0  0
    7.5733  -39.1272   -0.6308 C   0  0  0  0  0  0  0  0  0  0  0  0
   10.0251  -36.7597    2.0909 C   0  0  0  0  0  0  0  0  0  0  0  0
    3.4903  -36.5821    2.5674 N   0  0  0  0  0  0  0  0  0  0  0  0
    9.4760  -39.1035    2.0887 N   0  0  0  0  0  0  0  0  0  0  0  0
    5.9006  -36.6342    2.3165 C   0  0  0  0  0  0  0  0  0  0  0  0
   11.0718  -36.9513    3.0941 C   0  0  0  0  0  0  0  0  0  0  0  0
    4.8032  -38.6441   -1.2388 C   0  0  0  0  0  0  0  0  0  0  0  0
    7.8201  -36.4638   -0.6053 C   0  0  0  0  0  0  0  0  0  0  0  0
    8.3901  -43.8158    3.3342 C   0  0  0  0  0  0  0  0  0  0  0  0
    8.7230  -40.0629    1.5428 C   0  0  0  0  0  0  0  0  0  0  0  0
    8.9451  -41.4808    3.5155 C   0  0  0  0  0  0  0  0  0  0  0  0
    3.6029  -35.7523    5.1520 O   0  0  0  0  0  0  0  0  0  0  0  0
    5.6111  -37.6360   -0.4382 C   0  0  0  0  0  0  0  0  0  0  0  0
    8.1748  -43.6531    2.0100 C   0  0  0  0  0  0  0  0  0  0  0  0
    5.2597  -38.9493   -2.3966 O   0  0  0  0  0  0  0  0  0  0  0  0
    7.8683  -44.8270    1.1437 C   0  0  0  0  0  0  0  0  0  0  0  0
    4.7377  -36.6736    3.3513 C   0  0  0  0  0  0  0  0  0  0  0  0
    9.4752  -37.9121    1.6022 O   0  0  0  0  0  0  0  0  0  0  0  0
    3.6597  -36.9833    1.1702 C   0  0  0  0  0  0  0  0  0  0  0  0
    8.0305  -39.8738    0.4069 C   0  0  0  0  0  0  0  0  0  0  0  0
    4.7637  -35.9445    4.6536 C   0  0  0  0  0  0  0  0  0  0  0  0
    7.0575  -37.8131   -0.6382 C   0  0  0  0  0  0  0  0  0  0  0  0
    3.6098  -38.9900   -0.8908 O   0  0  0  0  0  0  0  0  0  0  0  0
  1  3  2  0
  1 20  1  0
  2 15  1  0
  2 17  2  0
  3 16  1  0
  3 17  1  0
  4 11  1  0
  4 19  1  0
  4 25  1  0
  5 27  2  0
  6  8  2  0
  7 26  1  0
  7 28  1  0
  8 12  1  0
  8 24  1  0
  9 23  1  0
  9 25  1  0
 10 16  2  3
 10 24  1  0
 11 23  1  0
 13 19  1  0
 13 21  2  0
 13 29  1  0
 14 28  1  0
 15 20  2  0
 16 26  1  0
 18 27  1  0
 19 28  1  0
 20 22  1  0
 23 27  1  0
M  END
>  <ID>  (1) 
conformer_0

$$$$
