
     RDKit          3D

 19 18  0  0  0  0  0  0  0  0999 V2000
    9.4222  -41.3448    3.6557 O   0  0  0  0  0  0  0  0  0  0  0  0
    8.6282  -40.1466    1.6463 C   0  0  0  0  0  0  0  0  0  0  0  0
    8.3100  -36.8657    0.8547 C   0  0  0  0  0  0  0  0  0  0  0  0
    9.2619  -36.7574    1.8070 O   0  0  0  0  0  0  0  0  0  0  0  0
    6.9523  -35.5976    2.3976 O   0  0  0  0  0  0  0  0  0  0  0  0
    7.1261  -38.4574   -0.8702 C   0  0  0  0  0  0  0  0  0  0  0  0
    6.4966  -35.2656    7.6808 O   0  0  0  0  0  0  0  0  0  0  0  0
    5.4033  -34.5775    5.5075 C   0  0  0  0  0  0  0  0  0  0  0  0
    6.8349  -37.1387   -1.6832 C   0  0  0  0  0  0  0  0  0  0  0  0
    9.0895  -39.3224    0.4131 C   0  0  0  0  0  0  0  0  0  0  0  0
    5.7808  -36.1057    3.0562 C   0  0  0  0  0  0  0  0  0  0  0  0
    6.1676  -35.9592    8.9933 C   0  0  0  0  0  0  0  0  0  0  0  0
    8.3567  -41.5860    1.5343 C   0  0  0  0  0  0  0  0  0  0  0  0
    8.4379  -42.1312    2.9681 C   0  0  0  0  0  0  0  0  0  0  0  0
    5.6754  -35.4043    4.3291 O   0  0  0  0  0  0  0  0  0  0  0  0
    8.1772  -38.1542    0.1575 C   0  0  0  0  0  0  0  0  0  0  0  0
    5.0060  -36.7625    6.5139 C   0  0  0  0  0  0  0  0  0  0  0  0
    7.0656  -36.0232    1.0170 C   0  0  0  0  0  0  0  0  0  0  0  0
    5.4403  -35.3574    6.7576 C   0  0  0  0  0  0  0  0  0  0  0  0
  1 14  1  0
  2 10  1  0
  2 13  1  0
  3  4  1  0
  3 16  1  0
  3 18  1  0
  5 11  1  0
  5 18  1  0
  6  9  1  0
  6 16  1  0
  7 12  1  0
  7 19  1  0
  8 15  1  0
  8 19  1  0
 10 16  1  0
 11 15  1  0
 13 14  1  0
 17 19  1  0
M  END
>  <ID>  (1) 
conformer_0

$$$$
