
     RDKit          3D

 28 30  0  0  0  0  0  0  0  0999 V2000
    8.6332  -41.5130    1.5749 C   0  0  0  0  0  0  0  0  0  0  0  0
    7.4027  -37.8239   -0.2573 C   0  0  0  0  0  0  0  0  0  0  0  0
   10.2745  -39.4690    2.6969 O   0  0  0  0  0  0  0  0  0  0  0  0
    6.5381  -42.1577    5.5430 C   0  0  0  0  0  0  0  0  0  0  0  0
    7.4582  -43.5476    1.7632 C   0  0  0  0  0  0  0  0  0  0  0  0
   10.4889  -40.0882   -1.0039 C   0  0  0  0  0  0  0  0  0  0  0  0
    9.2004  -36.2721    1.0503 C   0  0  0  0  0  0  0  0  0  0  0  0
    7.4784  -43.3840    3.1403 C   0  0  0  0  0  0  0  0  0  0  0  0
    7.8100  -36.0666    1.2211 C   0  0  0  0  0  0  0  0  0  0  0  0
   10.3716  -40.5369    4.6279 O   0  0  0  0  0  0  0  0  0  0  0  0
    4.4948  -37.7452    0.1249 C   0  0  0  0  0  0  0  0  0  0  0  0
    8.8497  -41.4394    2.9755 C   0  0  0  0  0  0  0  0  0  0  0  0
    5.1486  -38.4272   -1.1135 C   0  0  0  0  0  0  0  0  0  0  0  0
    9.6571  -37.3908    0.3823 C   0  0  0  0  0  0  0  0  0  0  0  0
    7.3863  -35.0062    1.8827 O   0  0  0  0  0  0  0  0  0  0  0  0
    4.8791  -36.0298    1.7841 O   0  0  0  0  0  0  0  0  0  0  0  0
    8.0896  -42.3276    3.7354 C   0  0  0  0  0  0  0  0  0  0  0  0
    8.0223  -42.5962    0.9603 C   0  0  0  0  0  0  0  0  0  0  0  0
    7.9223  -42.0557    5.1007 O   0  0  0  0  0  0  0  0  0  0  0  0
    6.8661  -36.9449    0.6529 C   0  0  0  0  0  0  0  0  0  0  0  0
    5.7981  -43.1516    5.2553 O   0  0  0  0  0  0  0  0  0  0  0  0
    6.5794  -38.1199   -1.5049 C   0  0  0  0  0  0  0  0  0  0  0  0
    5.4341  -37.0046    0.9904 C   0  0  0  0  0  0  0  0  0  0  0  0
    8.9215  -40.4639    0.7975 N   0  0  0  0  0  0  0  0  0  0  0  0
    9.8367  -40.4051    3.4373 C   0  0  0  0  0  0  0  0  0  0  0  0
    5.9322  -40.9678    6.0561 C   0  0  0  0  0  0  0  0  0  0  0  0
    8.9794  -39.7119   -0.3560 C   0  0  0  0  0  0  0  0  0  0  0  0
    8.7098  -38.2650   -0.1170 C   0  0  0  0  0  0  0  0  0  0  0  0
  1 12  1  0
  1 18  2  0
  1 24  1  0
  2 20  1  0
  2 22  1  0
  2 28  1  0
  3 25  2  0
  4 19  1  0
  4 21  2  0
  4 26  1  0
  5  8  1  0
  5 18  1  0
  6 27  1  0
  7  9  2  0
  7 14  1  0
  8 17  2  0
  9 15  1  0
  9 20  1  0
 10 25  1  0
 11 13  1  0
 11 23  1  0
 12 17  1  0
 12 25  1  0
 13 22  1  0
 14 28  1  0
 16 23  1  0
 17 19  1  0
 20 23  1  0
 24 27  1  0
 27 28  1  0
M  END
>  <ID>  (1) 
conformer_0

$$$$
