
     RDKit          3D

 24 23  0  0  0  0  0  0  0  0999 V2000
    6.6040  -38.0256   -0.6633 C   0  0  0  0  0  0  0  0  0  0  0  0
    8.1991  -42.4180    1.6542 C   0  0  0  0  0  0  0  0  0  0  0  0
    5.2555  -38.6930   -0.9464 C   0  0  0  0  0  0  0  0  0  0  0  0
    5.4371  -35.9341    6.7894 O   0  0  0  0  0  0  0  0  0  0  0  0
   10.8490  -37.1292    2.4222 C   0  0  0  0  0  0  0  0  0  0  0  0
    7.6345  -35.9386    0.9687 C   0  0  0  0  0  0  0  0  0  0  0  0
    8.3538  -40.9357    1.4391 C   0  0  0  0  0  0  0  0  0  0  0  0
    8.9855  -38.2692    0.9957 C   0  0  0  0  0  0  0  0  0  0  0  0
    8.4944  -42.9243    3.0465 C   0  0  0  0  0  0  0  0  0  0  0  0
    7.7995  -44.2084    2.5691 C   0  0  0  0  0  0  0  0  0  0  0  0
    4.6919  -35.6554    4.5527 C   0  0  0  0  0  0  0  0  0  0  0  0
    5.0511  -36.0781    2.1721 C   0  0  0  0  0  0  0  0  0  0  0  0
    8.8347  -40.5712    0.0481 C   0  0  0  0  0  0  0  0  0  0  0  0
    5.2888  -35.1329    5.8306 C   0  0  0  0  0  0  0  0  0  0  0  0
    7.0438  -37.2345   -1.9520 C   0  0  0  0  0  0  0  0  0  0  0  0
   11.3695  -35.6803    2.7033 C   0  0  0  0  0  0  0  0  0  0  0  0
    5.7683  -35.9859    3.4914 C   0  0  0  0  0  0  0  0  0  0  0  0
    9.0877  -35.7591    1.2599 C   0  0  0  0  0  0  0  0  0  0  0  0
    9.8554  -37.1461    1.3144 C   0  0  0  0  0  0  0  0  0  0  0  0
    9.2181  -39.1612   -0.1615 C   0  0  0  0  0  0  0  0  0  0  0  0
   12.2099  -35.7330    4.1050 C   0  0  0  0  0  0  0  0  0  0  0  0
    5.4171  -33.8759    5.9029 O   0  0  0  0  0  0  0  0  0  0  0  0
    6.5927  -36.9993    0.4533 C   0  0  0  0  0  0  0  0  0  0  0  0
    5.1454  -36.5988    0.7896 C   0  0  0  0  0  0  0  0  0  0  0  0
  1  3  1  0
  1 15  1  0
  1 23  1  0
  2  7  1  0
  2  9  1  0
  4 14  2  0
  5 16  1  0
  5 19  1  0
  6 18  1  0
  6 23  1  0
  7 13  1  0
  8 19  1  0
  8 20  1  0
  9 10  1  0
 11 14  1  0
 11 17  1  0
 12 17  1  0
 12 24  1  0
 13 20  2  3
 14 22  1  0
 16 21  1  0
 18 19  1  0
 23 24  1  0
M  END
>  <ID>  (1) 
conformer_0

$$$$
