
     RDKit          3D

 24 26  0  0  0  0  0  0  0  0999 V2000
    4.5802  -38.5669    0.2719 N   0  0  0  0  0  0  0  0  0  0  0  0
    6.3945  -41.8018    3.3781 C   0  0  0  0  0  0  0  0  0  0  0  0
   10.2319  -37.2169    2.3229 C   0  0  0  0  0  0  0  0  0  0  0  0
    5.3559  -42.0389    2.4156 O   0  0  0  0  0  0  0  0  0  0  0  0
    4.7368  -35.9720    0.9221 O   0  0  0  0  0  0  0  0  0  0  0  0
    4.9848  -40.7639    1.7924 C   0  0  0  0  0  0  0  0  0  0  0  0
    7.7813  -41.7567    2.7733 C   0  0  0  0  0  0  0  0  0  0  0  0
    7.8977  -42.2062    5.2174 C   0  0  0  0  0  0  0  0  0  0  0  0
    5.3949  -38.2763   -0.9636 C   0  0  0  0  0  0  0  0  0  0  0  0
    5.3102  -38.1650    1.4569 O   0  0  0  0  0  0  0  0  0  0  0  0
    7.0395  -36.7502    0.3854 C   0  0  0  0  0  0  0  0  0  0  0  0
    9.2247  -36.5715    1.5649 C   0  0  0  0  0  0  0  0  0  0  0  0
    5.8331  -36.7401    1.3803 C   0  0  0  0  0  0  0  0  0  0  0  0
    8.7606  -42.1116    3.9374 C   0  0  0  0  0  0  0  0  0  0  0  0
    8.2390  -37.4246    0.9456 N   0  0  0  0  0  0  0  0  0  0  0  0
    6.6675  -37.4117   -0.9312 C   0  0  0  0  0  0  0  0  0  0  0  0
    9.0975  -35.3507    1.3448 O   0  0  0  0  0  0  0  0  0  0  0  0
    6.3743  -36.0195    2.6181 C   0  0  0  0  0  0  0  0  0  0  0  0
    2.5674  -39.5526   -0.4795 O   0  0  0  0  0  0  0  0  0  0  0  0
    6.4386  -42.4991    4.6839 C   0  0  0  0  0  0  0  0  0  0  0  0
    4.1307  -40.9277    0.6150 C   0  0  0  0  0  0  0  0  0  0  0  0
    7.9203  -38.2108   -1.3294 C   0  0  0  0  0  0  0  0  0  0  0  0
    3.6299  -39.6234    0.1431 C   0  0  0  0  0  0  0  0  0  0  0  0
    8.8104  -38.2747   -0.0867 C   0  0  0  0  0  0  0  0  0  0  0  0
  1  9  1  0
  1 10  1  0
  1 23  1  0
  2  4  1  0
  2  7  1  0
  2 20  1  0
  3 12  1  0
  4  6  1  0
  5 13  1  0
  6 21  1  0
  7 14  1  0
  8 14  1  0
  8 20  1  0
  9 16  1  0
 10 13  1  0
 11 13  1  0
 11 15  1  0
 11 16  1  0
 12 15  1  0
 12 17  2  0
 13 18  1  0
 15 24  1  0
 16 22  1  0
 19 23  2  0
 21 23  1  0
 22 24  1  0
M  END
>  <ID>  (1) 
conformer_0

$$$$
