
     RDKit          3D

 35 40  0  0  0  0  0  0  0  0999 V2000
    5.5644  -39.5616    0.1506 C   0  0  0  0  0  0  0  0  0  0  0  0
    4.2103  -41.5092    0.2934 C   0  0  0  0  0  0  0  0  0  0  0  0
    8.1186  -39.3885   -0.6515 C   0  0  0  0  0  0  0  0  0  0  0  0
    7.6155  -42.5084    3.2414 C   0  0  0  0  0  0  0  0  0  0  0  0
   10.5212  -40.2098   -1.3419 N   0  0  0  0  0  0  0  0  0  0  0  0
    6.3650  -42.0518    1.2043 C   0  0  0  0  0  0  0  0  0  0  0  0
    8.1475  -37.2302    0.3681 C   0  0  0  0  0  0  0  0  0  0  0  0
    4.4547  -44.3363    2.3673 C   0  0  0  0  0  0  0  0  0  0  0  0
    7.4398  -35.3819    1.7662 C   0  0  0  0  0  0  0  0  0  0  0  0
    4.5272  -37.4487    0.7557 N   0  0  0  0  0  0  0  0  0  0  0  0
    5.4876  -40.9879    0.5257 C   0  0  0  0  0  0  0  0  0  0  0  0
    8.5263  -40.8812    1.5881 C   0  0  0  0  0  0  0  0  0  0  0  0
    3.0718  -40.7469    0.1788 C   0  0  0  0  0  0  0  0  0  0  0  0
    5.7810  -36.9855    0.9310 C   0  0  0  0  0  0  0  0  0  0  0  0
    7.6549  -41.9064    1.8477 O   0  0  0  0  0  0  0  0  0  0  0  0
    6.5134  -38.0724   -1.9506 C   0  0  0  0  0  0  0  0  0  0  0  0
    9.7274  -35.7802    1.2220 F   0  0  0  0  0  0  0  0  0  0  0  0
    4.7694  -42.3842    4.9044 C   0  0  0  0  0  0  0  0  0  0  0  0
    8.1730  -43.7302    5.2617 O   0  0  0  0  0  0  0  0  0  0  0  0
    6.0340  -35.8403    1.6501 C   0  0  0  0  0  0  0  0  0  0  0  0
    9.0326  -38.1396   -0.3731 C   0  0  0  0  0  0  0  0  0  0  0  0
    8.6516  -40.4456    0.2472 N   0  0  0  0  0  0  0  0  0  0  0  0
    4.5054  -44.5418    3.8779 O   0  0  0  0  0  0  0  0  0  0  0  0
    7.8373  -41.6073    5.6382 C   0  0  0  0  0  0  0  0  0  0  0  0
    6.8588  -37.6288    0.3252 C   0  0  0  0  0  0  0  0  0  0  0  0
    8.4500  -36.1083    1.1323 C   0  0  0  0  0  0  0  0  0  0  0  0
    6.4666  -43.4791    3.2342 C   0  0  0  0  0  0  0  0  0  0  0  0
    4.4289  -38.7786    0.3880 C   0  0  0  0  0  0  0  0  0  0  0  0
    8.1889  -42.5813    4.6491 C   0  0  0  0  0  0  0  0  0  0  0  0
    9.1589  -40.3946    2.4850 O   0  0  0  0  0  0  0  0  0  0  0  0
    6.7290  -38.8373   -0.4690 C   0  0  0  0  0  0  0  0  0  0  0  0
    3.1603  -39.3348    0.2829 C   0  0  0  0  0  0  0  0  0  0  0  0
    5.6465  -43.2166    2.0003 C   0  0  0  0  0  0  0  0  0  0  0  0
   10.0853  -40.4352   -0.0288 C   0  0  0  0  0  0  0  0  0  0  0  0
    5.5522  -43.6362    4.4338 C   0  0  0  0  0  0  0  0  0  0  0  0
  1 11  1  0
  1 28  1  0
  1 31  1  0
  2 11  1  0
  2 13  2  0
  3 21  1  0
  3 22  1  0
  3 31  1  0
  4 27  1  0
  4 29  1  0
  5 34  1  0
  6 11  1  0
  6 15  1  0
  6 33  1  0
  7 21  1  0
  7 25  2  0
  7 26  1  0
  8 23  1  0
  8 33  1  0
  9 20  1  0
  9 26  2  0
 10 14  1  0
 10 28  2  0
 12 15  1  0
 12 22  1  0
 12 30  2  0
 13 32  1  0
 14 20  2  0
 14 25  1  0
 16 31  1  0
 17 26  1  0
 18 35  1  0
 19 29  1  0
 22 34  1  0
 23 35  1  0
 24 29  1  0
 25 31  1  0
 27 33  1  0
 27 35  1  0
 28 32  1  0
M  END
>  <ID>  (1) 
conformer_0

$$$$
