
     RDKit          3D

 19 20  0  0  0  0  0  0  0  0999 V2000
    9.2114  -40.9404    2.5760 C   0  0  0  0  0  0  0  0  0  0  0  0
    5.8337  -35.8515    3.4889 C   0  0  0  0  0  0  0  0  0  0  0  0
    5.2011  -36.2585    4.6855 N   0  0  0  0  0  0  0  0  0  0  0  0
    5.5817  -35.3760    5.8229 C   0  0  0  0  0  0  0  0  0  0  0  0
    6.2608  -36.0930    1.0037 C   0  0  0  0  0  0  0  0  0  0  0  0
    6.5130  -38.7760   -1.1077 N   0  0  0  0  0  0  0  0  0  0  0  0
    5.5399  -36.5456    2.2085 C   0  0  0  0  0  0  0  0  0  0  0  0
   10.0604  -39.8330    2.6526 C   0  0  0  0  0  0  0  0  0  0  0  0
    8.3332  -37.3555    0.2642 C   0  0  0  0  0  0  0  0  0  0  0  0
    6.1320  -36.4911   -0.4655 C   0  0  0  0  0  0  0  0  0  0  0  0
    8.7545  -38.6723    0.9485 C   0  0  0  0  0  0  0  0  0  0  0  0
    9.3576  -42.2357    3.7111 Cl  0  0  0  0  0  0  0  0  0  0  0  0
    8.2364  -40.9753    1.5774 C   0  0  0  0  0  0  0  0  0  0  0  0
    5.6221  -38.4260   -2.1562 O   0  0  0  0  0  0  0  0  0  0  0  0
    4.9564  -37.6426    2.2021 O   0  0  0  0  0  0  0  0  0  0  0  0
    9.8359  -38.7140    1.8688 C   0  0  0  0  0  0  0  0  0  0  0  0
    7.2430  -37.5295   -0.7723 C   0  0  0  0  0  0  0  0  0  0  0  0
    7.7673  -36.2647    1.1896 C   0  0  0  0  0  0  0  0  0  0  0  0
    8.0495  -39.8825    0.7565 C   0  0  0  0  0  0  0  0  0  0  0  0
  1  8  1  0
  1 12  1  0
  1 13  1  0
  2  3  1  0
  2  7  1  0
  3  4  1  0
  5  7  1  0
  5 10  1  0
  5 18  1  0
  6 14  1  0
  6 17  1  0
  7 15  2  0
  8 16  2  0
  9 11  1  0
  9 17  1  0
  9 18  1  0
 10 17  1  0
 11 16  1  0
 11 19  1  0
 13 19  2  0
M  END
>  <ID>  (1) 
conformer_0

$$$$
