
     RDKit          3D

 27 28  0  0  0  0  0  0  0  0999 V2000
    9.1988  -39.9822   -0.2220 C   0  0  0  0  0  0  0  0  0  0  0  0
    9.3913  -39.9243    1.2225 C   0  0  0  0  0  0  0  0  0  0  0  0
    4.7126  -35.1709    3.9638 O   0  0  0  0  0  0  0  0  0  0  0  0
    7.2129  -34.9977    2.3431 O   0  0  0  0  0  0  0  0  0  0  0  0
    8.8801  -37.4623    0.5562 O   0  0  0  0  0  0  0  0  0  0  0  0
    6.3020  -36.9860    1.1992 C   0  0  0  0  0  0  0  0  0  0  0  0
    7.4431  -44.3230    1.2643 C   0  0  0  0  0  0  0  0  0  0  0  0
    8.3765  -37.7915   -0.7521 C   0  0  0  0  0  0  0  0  0  0  0  0
    5.0177  -36.5295    1.9611 C   0  0  0  0  0  0  0  0  0  0  0  0
    7.2514  -35.8230    1.3039 C   0  0  0  0  0  0  0  0  0  0  0  0
    7.2388  -42.8992    5.3889 C   0  0  0  0  0  0  0  0  0  0  0  0
    8.0514  -43.1601    1.8403 C   0  0  0  0  0  0  0  0  0  0  0  0
    8.6756  -36.0742    0.8624 C   0  0  0  0  0  0  0  0  0  0  0  0
    8.1193  -42.9911    3.2400 C   0  0  0  0  0  0  0  0  0  0  0  0
    8.4542  -42.1488    5.2968 C   0  0  0  0  0  0  0  0  0  0  0  0
    5.5913  -37.2656    4.1092 O   0  0  0  0  0  0  0  0  0  0  0  0
    7.9074  -39.2694   -0.7074 C   0  0  0  0  0  0  0  0  0  0  0  0
    7.0544  -43.4884    4.0710 C   0  0  0  0  0  0  0  0  0  0  0  0
    8.9912  -42.1369    4.0130 C   0  0  0  0  0  0  0  0  0  0  0  0
    8.7517  -40.9906    1.7629 N   0  0  0  0  0  0  0  0  0  0  0  0
   10.0880  -39.2057    1.9270 O   0  0  0  0  0  0  0  0  0  0  0  0
    5.2471  -36.2241    3.4504 C   0  0  0  0  0  0  0  0  0  0  0  0
    5.3048  -38.4163   -0.7769 C   0  0  0  0  0  0  0  0  0  0  0  0
    7.2706  -36.8016   -1.1349 C   0  0  0  0  0  0  0  0  0  0  0  0
    8.9124  -41.5578    6.4628 F   0  0  0  0  0  0  0  0  0  0  0  0
    8.4012  -42.0916    1.0834 N   0  0  0  0  0  0  0  0  0  0  0  0
    6.0363  -37.1911   -0.2682 C   0  0  0  0  0  0  0  0  0  0  0  0
  1  2  1  0
  1 17  1  0
  2 20  1  0
  2 21  2  0
  3 22  2  0
  4 10  1  0
  5  8  1  0
  5 13  1  0
  6  9  1  0
  6 10  1  0
  6 27  1  0
  7 12  1  0
  8 17  1  0
  8 24  1  0
  9 22  1  0
 10 13  1  0
 11 15  1  0
 11 18  1  0
 12 14  1  0
 12 26  2  3
 14 18  1  0
 14 19  1  0
 15 19  1  0
 15 25  1  0
 16 22  1  0
 20 26  1  0
 23 27  1  0
 24 27  1  0
M  END
>  <ID>  (1) 
conformer_0

$$$$
