
     RDKit          3D

 32 35  0  0  0  0  0  0  0  0999 V2000
    6.2587  -35.9818    3.1147 C   0  0  0  0  0  0  0  0  0  0  0  0
    2.7418  -39.3070   -0.5090 C   0  0  0  0  0  0  0  0  0  0  0  0
    7.7479  -41.7036    3.3063 C   0  0  0  0  0  0  0  0  0  0  0  0
    3.4278  -38.9950    0.7539 N   0  0  0  0  0  0  0  0  0  0  0  0
    4.5835  -35.2186    6.2757 C   0  0  0  0  0  0  0  0  0  0  0  0
    8.3664  -36.0185    1.0521 C   0  0  0  0  0  0  0  0  0  0  0  0
    8.5991  -41.3562    2.2369 C   0  0  0  0  0  0  0  0  0  0  0  0
    8.1050  -42.5618    4.4371 C   0  0  0  0  0  0  0  0  0  0  0  0
    5.6735  -38.4810   -0.1616 C   0  0  0  0  0  0  0  0  0  0  0  0
    3.7828  -39.7900   -1.5529 C   0  0  0  0  0  0  0  0  0  0  0  0
    8.0315  -40.4757    1.3718 C   0  0  0  0  0  0  0  0  0  0  0  0
    7.1934  -36.8568    0.9734 N   0  0  0  0  0  0  0  0  0  0  0  0
    5.1185  -39.1212   -1.4596 C   0  0  0  0  0  0  0  0  0  0  0  0
    6.7500  -40.3038    1.8875 C   0  0  0  0  0  0  0  0  0  0  0  0
    5.0679  -36.1990    3.9184 C   0  0  0  0  0  0  0  0  0  0  0  0
    8.2270  -34.8015    1.2531 O   0  0  0  0  0  0  0  0  0  0  0  0
    9.6226  -36.6406    1.1114 O   0  0  0  0  0  0  0  0  0  0  0  0
    6.6241  -35.0081    7.5943 O   0  0  0  0  0  0  0  0  0  0  0  0
    7.0520  -37.8109   -0.1431 C   0  0  0  0  0  0  0  0  0  0  0  0
    8.2331  -38.6339   -0.2472 N   0  0  0  0  0  0  0  0  0  0  0  0
    6.5352  -41.0068    3.0569 C   0  0  0  0  0  0  0  0  0  0  0  0
    7.1073  -36.9601   -1.6565 C   0  0  0  0  0  0  0  0  0  0  0  0
    4.5982  -34.8193    8.6021 O   0  0  0  0  0  0  0  0  0  0  0  0
    4.2394  -37.0823    3.1104 C   0  0  0  0  0  0  0  0  0  0  0  0
    9.8095  -40.3447   -0.3150 F   0  0  0  0  0  0  0  0  0  0  0  0
    8.6961  -39.8550    0.2333 C   0  0  0  0  0  0  0  0  0  0  0  0
    6.1985  -36.6930    1.9319 C   0  0  0  0  0  0  0  0  0  0  0  0
    4.5317  -38.1300    0.7441 C   0  0  0  0  0  0  0  0  0  0  0  0
    4.9380  -37.3405    1.8800 C   0  0  0  0  0  0  0  0  0  0  0  0
    5.3551  -35.0817    7.6381 C   0  0  0  0  0  0  0  0  0  0  0  0
    4.9131  -35.5824    5.0960 O   0  0  0  0  0  0  0  0  0  0  0  0
    9.9739  -37.0692    2.4112 C   0  0  0  0  0  0  0  0  0  0  0  0
  1 15  1  0
  1 27  1  0
  2  4  1  0
  2 10  1  0
  3  7  1  0
  3  8  1  0
  3 21  1  0
  4 28  1  0
  5 30  1  0
  5 31  1  0
  6 12  1  0
  6 16  2  0
  6 17  1  0
  7 11  1  0
  9 13  1  0
  9 19  1  0
  9 28  1  0
 10 13  1  0
 11 14  1  0
 11 26  1  0
 12 19  1  0
 12 27  1  0
 14 21  1  0
 15 24  1  0
 15 31  1  0
 17 32  1  0
 18 30  2  0
 19 20  1  0
 19 22  1  0
 20 26  1  0
 23 30  1  0
 24 29  1  0
 25 26  1  0
 27 29  2  0
 28 29  1  0
M  END
>  <ID>  (1) 
conformer_0

$$$$
