
     RDKit          3D

 28 30  0  0  0  0  0  0  0  0999 V2000
    6.8508  -34.9395    7.9337 C   0  0  0  0  0  0  0  0  0  0  0  0
    9.2252  -37.0985    1.1468 C   0  0  0  0  0  0  0  0  0  0  0  0
   10.1736  -40.3928   -0.7697 C   0  0  0  0  0  0  0  0  0  0  0  0
    5.3271  -38.6503   -0.8504 C   0  0  0  0  0  0  0  0  0  0  0  0
    5.6597  -36.8470    2.4523 C   0  0  0  0  0  0  0  0  0  0  0  0
    6.1134  -35.7013    3.2725 O   0  0  0  0  0  0  0  0  0  0  0  0
   10.0234  -37.0693    2.2564 F   0  0  0  0  0  0  0  0  0  0  0  0
    9.3179  -40.7974    0.3770 C   0  0  0  0  0  0  0  0  0  0  0  0
    5.2934  -36.5032    0.1733 O   0  0  0  0  0  0  0  0  0  0  0  0
    2.9425  -38.4211   -0.4005 C   0  0  0  0  0  0  0  0  0  0  0  0
    5.2257  -35.4571    4.4628 C   0  0  0  0  0  0  0  0  0  0  0  0
    8.8458  -41.3956    2.9016 C   0  0  0  0  0  0  0  0  0  0  0  0
    7.7698  -36.5015    1.2602 C   0  0  0  0  0  0  0  0  0  0  0  0
    9.1315  -39.5292    1.2323 C   0  0  0  0  0  0  0  0  0  0  0  0
    4.6402  -39.4070   -1.9369 C   0  0  0  0  0  0  0  0  0  0  0  0
    4.9773  -39.0075    0.5156 C   0  0  0  0  0  0  0  0  0  0  0  0
    8.9372  -41.8297    4.3611 C   0  0  0  0  0  0  0  0  0  0  0  0
    6.3962  -36.9928    1.0684 C   0  0  0  0  0  0  0  0  0  0  0  0
    9.2834  -39.9747    2.6321 C   0  0  0  0  0  0  0  0  0  0  0  0
    5.7576  -34.8138    6.7993 C   0  0  0  0  0  0  0  0  0  0  0  0
    8.7965  -38.3301    0.4400 C   0  0  0  0  0  0  0  0  0  0  0  0
    4.3985  -37.7533   -0.1183 C   0  0  0  0  0  0  0  0  0  0  0  0
    5.9627  -35.6394    5.6706 O   0  0  0  0  0  0  0  0  0  0  0  0
    6.7847  -38.2782   -1.0681 C   0  0  0  0  0  0  0  0  0  0  0  0
    7.3466  -37.8994    0.3323 C   0  0  0  0  0  0  0  0  0  0  0  0
    8.4243  -42.6020    2.0781 C   0  0  0  0  0  0  0  0  0  0  0  0
    3.2555  -39.6954   -1.3058 C   0  0  0  0  0  0  0  0  0  0  0  0
    7.9222  -35.0904    1.0370 F   0  0  0  0  0  0  0  0  0  0  0  0
  1 20  1  0
  2  7  1  0
  2 13  1  0
  2 21  1  0
  3  8  1  0
  4 15  1  0
  4 16  1  0
  4 22  1  0
  4 24  1  0
  5  6  1  0
  5 18  1  0
  6 11  1  0
  8 14  1  0
  9 18  1  0
  9 22  1  0
 10 22  1  0
 10 27  1  0
 11 23  1  0
 12 17  1  0
 12 19  2  3
 12 26  1  0
 13 18  1  0
 13 28  1  0
 14 19  1  0
 14 21  1  0
 15 27  1  0
 18 25  1  0
 20 23  1  0
 21 25  1  0
 24 25  1  0
M  END
>  <ID>  (1) 
conformer_0

$$$$
