
     RDKit          3D

 24 26  0  0  0  0  0  0  0  0999 V2000
    8.8081  -38.2164    0.9810 C   0  0  0  0  0  0  0  0  0  0  0  0
    9.0907  -41.9567    4.0110 C   0  0  0  0  0  0  0  0  0  0  0  0
    7.3721  -38.0783   -0.6788 C   0  0  0  0  0  0  0  0  0  0  0  0
    8.3062  -42.1084    5.3123 C   0  0  0  0  0  0  0  0  0  0  0  0
    8.4643  -35.1288    1.0888 O   0  0  0  0  0  0  0  0  0  0  0  0
    6.7477  -42.5294    1.1180 C   0  0  0  0  0  0  0  0  0  0  0  0
    4.0021  -36.8709    3.3113 C   0  0  0  0  0  0  0  0  0  0  0  0
    8.4304  -39.5391    0.6402 C   0  0  0  0  0  0  0  0  0  0  0  0
    7.6504  -39.4122   -0.5412 N   0  0  0  0  0  0  0  0  0  0  0  0
    5.1668  -36.3254    3.5627 C   0  0  0  0  0  0  0  0  0  0  0  0
    7.9985  -37.3142    0.3052 C   0  0  0  0  0  0  0  0  0  0  0  0
    6.3440  -36.1042    1.4985 N   0  0  0  0  0  0  0  0  0  0  0  0
    7.6199  -36.0389    0.8610 C   0  0  0  0  0  0  0  0  0  0  0  0
    3.3675  -37.2156    2.1022 C   0  0  0  0  0  0  0  0  0  0  0  0
    6.4918  -37.5648   -2.0215 Cl  0  0  0  0  0  0  0  0  0  0  0  0
    7.7628  -41.6998    1.7922 C   0  0  0  0  0  0  0  0  0  0  0  0
    8.4822  -40.6507    1.3741 N   0  0  0  0  0  0  0  0  0  0  0  0
    8.3464  -42.5330    2.8434 C   0  0  0  0  0  0  0  0  0  0  0  0
    7.2578  -43.9667    1.3084 C   0  0  0  0  0  0  0  0  0  0  0  0
    9.8843  -37.8855    1.9108 C   0  0  0  0  0  0  0  0  0  0  0  0
    4.0643  -37.0046    0.9012 N   0  0  0  0  0  0  0  0  0  0  0  0
    6.2779  -35.9737    2.8791 C   0  0  0  0  0  0  0  0  0  0  0  0
    5.2749  -36.5274    0.7960 C   0  0  0  0  0  0  0  0  0  0  0  0
    8.0070  -43.9627    2.6258 C   0  0  0  0  0  0  0  0  0  0  0  0
  1  8  1  0
  1 11  1  0
  1 20  1  0
  2  4  1  0
  2 18  1  0
  3  9  1  0
  3 11  1  0
  3 15  1  0
  5 13  2  0
  6 16  1  0
  6 19  1  0
  7 10  2  0
  7 14  1  0
  8  9  2  0
  8 17  1  0
 10 22  1  0
 11 13  1  0
 12 13  1  0
 12 22  1  0
 12 23  1  0
 14 21  1  0
 16 17  1  0
 16 18  1  0
 18 24  1  0
 19 24  1  0
 21 23  2  0
M  END
>  <ID>  (1) 
conformer_0

$$$$
