
     RDKit          3D

 31 34  0  0  0  0  0  0  0  0999 V2000
    3.4764  -40.0773    0.4646 C   0  0  0  0  0  0  0  0  0  0  0  0
    5.8750  -36.2408    0.6376 C   0  0  0  0  0  0  0  0  0  0  0  0
    8.1738  -38.9155    0.3723 C   0  0  0  0  0  0  0  0  0  0  0  0
    8.1516  -43.2217    4.7128 C   0  0  0  0  0  0  0  0  0  0  0  0
    7.0888  -42.2626    5.1908 C   0  0  0  0  0  0  0  0  0  0  0  0
    5.3099  -36.3284    4.4409 C   0  0  0  0  0  0  0  0  0  0  0  0
    9.3252  -36.6313    1.5855 O   0  0  0  0  0  0  0  0  0  0  0  0
    7.9373  -34.3763    1.0018 F   0  0  0  0  0  0  0  0  0  0  0  0
   10.9887  -40.8895   -1.0794 F   0  0  0  0  0  0  0  0  0  0  0  0
    6.6460  -37.0780   -1.5570 O   0  0  0  0  0  0  0  0  0  0  0  0
    7.7950  -41.4366    6.0136 O   0  0  0  0  0  0  0  0  0  0  0  0
    7.1430  -35.5966    1.2894 C   0  0  0  0  0  0  0  0  0  0  0  0
    8.2303  -36.6330    0.9333 C   0  0  0  0  0  0  0  0  0  0  0  0
    3.6964  -37.8518    3.6068 N   0  0  0  0  0  0  0  0  0  0  0  0
    8.5485  -42.8834    3.2667 C   0  0  0  0  0  0  0  0  0  0  0  0
    4.5217  -38.1636    2.5194 C   0  0  0  0  0  0  0  0  0  0  0  0
    8.2328  -40.7909    1.9595 C   0  0  0  0  0  0  0  0  0  0  0  0
    5.5200  -36.0489    3.0074 C   0  0  0  0  0  0  0  0  0  0  0  0
    3.9950  -41.2699   -0.3381 C   0  0  0  0  0  0  0  0  0  0  0  0
    4.0109  -36.9484    4.6345 C   0  0  0  0  0  0  0  0  0  0  0  0
    6.3415  -37.4184   -0.2834 C   0  0  0  0  0  0  0  0  0  0  0  0
    6.9306  -35.6245    2.7605 C   0  0  0  0  0  0  0  0  0  0  0  0
    7.8159  -39.8635    1.3450 C   0  0  0  0  0  0  0  0  0  0  0  0
    4.0373  -39.0608   -0.7879 C   0  0  0  0  0  0  0  0  0  0  0  0
    7.6396  -37.7019    0.2991 N   0  0  0  0  0  0  0  0  0  0  0  0
    5.1511  -36.8900    1.8291 C   0  0  0  0  0  0  0  0  0  0  0  0
    4.1525  -40.4449   -1.6310 C   0  0  0  0  0  0  0  0  0  0  0  0
    5.3961  -38.6044   -0.3339 C   0  0  0  0  0  0  0  0  0  0  0  0
    9.8205  -40.1942   -0.4967 C   0  0  0  0  0  0  0  0  0  0  0  0
    8.3511  -41.4654    3.0968 N   0  0  0  0  0  0  0  0  0  0  0  0
    9.2208  -39.3399   -0.4672 C   0  0  0  0  0  0  0  0  0  0  0  0
  1 19  1  0
  1 24  1  0
  2 12  1  0
  2 21  1  0
  2 26  1  0
  3 23  1  0
  3 25  1  0
  3 31  1  0
  4  5  1  0
  4 15  1  0
  5 11  1  0
  6 18  1  0
  6 20  1  0
  7 13  2  0
  8 12  1  0
  9 29  1  0
 10 21  1  0
 12 13  1  0
 12 22  1  0
 13 25  1  0
 14 16  1  0
 14 20  1  0
 15 30  1  0
 16 26  1  0
 17 23  1  0
 17 30  1  0
 18 22  1  0
 18 26  1  0
 19 27  1  0
 21 25  1  0
 21 28  1  0
 24 27  1  0
 24 28  1  0
 29 31  2  3
M  END
>  <ID>  (1) 
conformer_0

$$$$
