
     RDKit          3D

 26 28  0  0  0  0  0  0  0  0999 V2000
    8.0353  -41.5496    0.6600 N   0  0  0  0  0  0  0  0  0  0  0  0
    8.1334  -40.3352    1.4696 C   0  0  0  0  0  0  0  0  0  0  0  0
    9.0045  -36.7630    1.6753 C   0  0  0  0  0  0  0  0  0  0  0  0
    6.4082  -38.9617    0.1954 C   0  0  0  0  0  0  0  0  0  0  0  0
    3.9549  -37.2827    0.3994 O   0  0  0  0  0  0  0  0  0  0  0  0
    6.5025  -37.6241   -0.2681 C   0  0  0  0  0  0  0  0  0  0  0  0
    5.1968  -36.2758    2.5268 C   0  0  0  0  0  0  0  0  0  0  0  0
    9.7580  -39.5528    0.0723 O   0  0  0  0  0  0  0  0  0  0  0  0
    8.9340  -41.6821    4.5557 C   0  0  0  0  0  0  0  0  0  0  0  0
    6.8462  -43.3074    3.6190 C   0  0  0  0  0  0  0  0  0  0  0  0
    7.4381  -42.7198    1.3171 C   0  0  0  0  0  0  0  0  0  0  0  0
    5.3380  -38.6437   -2.1471 O   0  0  0  0  0  0  0  0  0  0  0  0
    7.6475  -42.5790    2.7762 C   0  0  0  0  0  0  0  0  0  0  0  0
    8.4402  -37.9172    1.0362 C   0  0  0  0  0  0  0  0  0  0  0  0
    7.6400  -38.4445    0.1936 N   0  0  0  0  0  0  0  0  0  0  0  0
    8.0047  -35.7289    2.0652 O   0  0  0  0  0  0  0  0  0  0  0  0
    7.1457  -36.0055   -0.3842 C   0  0  0  0  0  0  0  0  0  0  0  0
   10.0644  -36.8637    2.3805 O   0  0  0  0  0  0  0  0  0  0  0  0
    8.1415  -42.3959    5.4347 C   0  0  0  0  0  0  0  0  0  0  0  0
    8.6385  -41.7640    3.2567 C   0  0  0  0  0  0  0  0  0  0  0  0
    6.2047  -36.4776    0.5553 C   0  0  0  0  0  0  0  0  0  0  0  0
    8.7634  -39.2399    0.7676 C   0  0  0  0  0  0  0  0  0  0  0  0
    7.1124  -43.2117    4.9588 C   0  0  0  0  0  0  0  0  0  0  0  0
    6.6397  -36.2335    1.9999 C   0  0  0  0  0  0  0  0  0  0  0  0
    6.2545  -37.7169   -1.7595 C   0  0  0  0  0  0  0  0  0  0  0  0
    4.7281  -36.4233    0.9873 C   0  0  0  0  0  0  0  0  0  0  0  0
  1  2  1  0
  1 11  1  0
  2 22  1  0
  3 14  1  0
  3 16  1  0
  3 18  2  0
  4  6  1  0
  4 15  1  0
  5 26  1  0
  6 21  1  0
  6 25  1  0
  7 24  1  0
  7 26  1  0
  8 22  2  0
  9 19  1  0
  9 20  2  0
 10 13  1  0
 10 23  2  0
 11 13  1  0
 12 25  1  0
 13 20  1  0
 14 15  1  0
 14 22  1  0
 16 24  1  0
 17 21  1  0
 19 23  1  0
 21 24  1  0
 21 26  1  0
M  END
>  <ID>  (1) 
conformer_0

$$$$
