
     RDKit          3D

 24 25  0  0  0  0  0  0  0  0999 V2000
    9.2027  -39.4051    1.3082 C   0  0  0  0  0  0  0  0  0  0  0  0
    4.8688  -39.1430   -1.7295 C   0  0  0  0  0  0  0  0  0  0  0  0
    5.7152  -35.3549    3.3153 F   0  0  0  0  0  0  0  0  0  0  0  0
    7.0067  -36.7563    2.0054 C   0  0  0  0  0  0  0  0  0  0  0  0
   10.8738  -41.0654   -1.5458 F   0  0  0  0  0  0  0  0  0  0  0  0
    9.8867  -40.3170    0.5347 C   0  0  0  0  0  0  0  0  0  0  0  0
   11.3984  -36.5692    3.4648 F   0  0  0  0  0  0  0  0  0  0  0  0
   10.6702  -37.5358    2.7674 C   0  0  0  0  0  0  0  0  0  0  0  0
    4.7028  -36.4060    1.4833 C   0  0  0  0  0  0  0  0  0  0  0  0
    9.9669  -35.9845    1.1564 F   0  0  0  0  0  0  0  0  0  0  0  0
    8.7729  -38.0839    0.8870 C   0  0  0  0  0  0  0  0  0  0  0  0
    5.8125  -36.1773    2.2905 C   0  0  0  0  0  0  0  0  0  0  0  0
    6.2013  -38.3692   -1.3637 C   0  0  0  0  0  0  0  0  0  0  0  0
    9.5642  -39.0149   -1.4209 N   0  0  0  0  0  0  0  0  0  0  0  0
    3.8364  -39.3280   -0.9263 N   0  0  0  0  0  0  0  0  0  0  0  0
    6.1408  -37.7195    0.0140 C   0  0  0  0  0  0  0  0  0  0  0  0
    4.9357  -37.1983    0.3961 C   0  0  0  0  0  0  0  0  0  0  0  0
    8.9886  -38.0791   -0.5729 C   0  0  0  0  0  0  0  0  0  0  0  0
   10.0894  -40.1413   -0.8122 C   0  0  0  0  0  0  0  0  0  0  0  0
    7.3192  -37.5296    0.9652 C   0  0  0  0  0  0  0  0  0  0  0  0
    9.0881  -36.4903    3.3286 F   0  0  0  0  0  0  0  0  0  0  0  0
    4.7885  -39.5779   -2.9161 O   0  0  0  0  0  0  0  0  0  0  0  0
   11.0702  -38.7710    3.0205 F   0  0  0  0  0  0  0  0  0  0  0  0
    9.5282  -37.0489    1.9967 C   0  0  0  0  0  0  0  0  0  0  0  0
  1  6  1  0
  1 11  1  0
  2 13  1  0
  2 15  1  0
  2 22  2  0
  3 12  1  0
  4 12  2  0
  4 20  1  0
  5 19  1  0
  6 19  2  0
  7  8  1  0
  8 23  1  0
  8 24  1  0
  9 12  1  0
  9 17  1  0
 10 24  1  0
 11 18  1  0
 11 20  1  0
 11 24  1  0
 13 16  1  0
 14 18  2  0
 14 19  1  0
 16 17  1  0
 16 20  2  0
 21 24  1  0
M  END
>  <ID>  (1) 
conformer_0

$$$$
