
     RDKit          3D

 29 31  0  0  0  0  0  0  0  0999 V2000
    9.2732  -41.3935    3.7502 O   0  0  0  0  0  0  0  0  0  0  0  0
    8.1062  -41.6328    1.8467 C   0  0  0  0  0  0  0  0  0  0  0  0
    9.7486  -37.4044    1.5921 F   0  0  0  0  0  0  0  0  0  0  0  0
    8.5046  -38.8409   -0.0273 C   0  0  0  0  0  0  0  0  0  0  0  0
    5.0526  -35.6029    4.4858 C   0  0  0  0  0  0  0  0  0  0  0  0
    5.4377  -38.1513   -1.7360 C   0  0  0  0  0  0  0  0  0  0  0  0
    9.3107  -40.0237    0.2978 C   0  0  0  0  0  0  0  0  0  0  0  0
    6.9446  -41.9192    0.9987 C   0  0  0  0  0  0  0  0  0  0  0  0
    4.4429  -39.9569    1.3727 C   0  0  0  0  0  0  0  0  0  0  0  0
    6.7042  -37.8872   -1.1744 C   0  0  0  0  0  0  0  0  0  0  0  0
    8.5861  -37.6855    0.7681 C   0  0  0  0  0  0  0  0  0  0  0  0
    8.2972  -42.1792    3.0985 C   0  0  0  0  0  0  0  0  0  0  0  0
    6.3819  -36.2192    2.6529 C   0  0  0  0  0  0  0  0  0  0  0  0
    4.9579  -37.8857    3.6592 C   0  0  0  0  0  0  0  0  0  0  0  0
    9.0717  -40.6699    1.5739 C   0  0  0  0  0  0  0  0  0  0  0  0
    6.8360  -36.6783   -0.4752 C   0  0  0  0  0  0  0  0  0  0  0  0
    7.6088  -36.6966    0.6158 C   0  0  0  0  0  0  0  0  0  0  0  0
    5.9231  -37.5129    2.7436 C   0  0  0  0  0  0  0  0  0  0  0  0
    4.5033  -36.8719    4.5324 C   0  0  0  0  0  0  0  0  0  0  0  0
    7.6361  -38.8770   -1.0445 N   0  0  0  0  0  0  0  0  0  0  0  0
    4.8507  -41.3633    3.2948 O   0  0  0  0  0  0  0  0  0  0  0  0
   10.1523  -40.4348   -0.5290 O   0  0  0  0  0  0  0  0  0  0  0  0
    8.2544  -34.6116    1.3911 C   0  0  0  0  0  0  0  0  0  0  0  0
    5.9949  -35.2807    3.5541 N   0  0  0  0  0  0  0  0  0  0  0  0
    7.3444  -35.7238    1.6647 N   0  0  0  0  0  0  0  0  0  0  0  0
    7.6865  -43.3541    3.6845 C   0  0  0  0  0  0  0  0  0  0  0  0
    4.6746  -40.1885    2.8542 C   0  0  0  0  0  0  0  0  0  0  0  0
    4.4385  -39.1638    3.7387 N   0  0  0  0  0  0  0  0  0  0  0  0
    9.7279  -40.4459    2.7673 C   0  0  0  0  0  0  0  0  0  0  0  0
  1 12  1  0
  1 29  1  0
  2  8  1  0
  2 12  1  0
  2 15  1  0
  3 11  1  0
  4  7  1  0
  4 11  1  0
  4 20  2  0
  5 19  2  0
  5 24  1  0
  6 10  1  0
  7 15  1  0
  7 22  2  0
  9 27  1  0
 10 16  1  0
 10 20  1  0
 11 17  1  0
 12 26  1  0
 13 18  1  0
 13 24  2  0
 13 25  1  0
 14 18  2  0
 14 19  1  0
 14 28  1  0
 15 29  1  0
 16 17  1  0
 17 25  1  0
 21 27  2  0
 23 25  1  0
 27 28  1  0
M  END
>  <ID>  (1) 
conformer_0

$$$$
