
     RDKit          3D

 18 21  0  0  0  0  0  0  0  0999 V2000
  -22.6794   16.7714  -30.2588 N   0  0  0  0  0  0  0  0  0  0  0  0
  -21.4632   16.4815  -26.9583 C   0  0  0  0  0  0  0  0  0  0  0  0
  -18.4275   16.1763  -27.3288 N   0  0  0  0  0  0  0  0  0  0  0  0
  -19.0316   15.9973  -28.5264 C   0  0  0  0  0  0  0  0  0  0  0  0
  -16.5713   14.4886  -27.2048 C   0  0  0  0  0  0  0  0  0  0  0  0
  -15.9609   16.4707  -26.2280 C   0  0  0  0  0  0  0  0  0  0  0  0
  -21.5538   16.6083  -30.9865 C   0  0  0  0  0  0  0  0  0  0  0  0
  -15.0132   14.5599  -26.9662 C   0  0  0  0  0  0  0  0  0  0  0  0
  -20.3632   16.3286  -30.4327 C   0  0  0  0  0  0  0  0  0  0  0  0
  -22.6169   16.6578  -28.9616 C   0  0  0  0  0  0  0  0  0  0  0  0
  -14.7917   16.0516  -27.1310 C   0  0  0  0  0  0  0  0  0  0  0  0
  -15.9887   16.3825  -28.2021 C   0  0  0  0  0  0  0  0  0  0  0  0
  -16.9680   15.9456  -27.1756 C   0  0  0  0  0  0  0  0  0  0  0  0
  -19.1185   16.7142  -26.2238 C   0  0  0  0  0  0  0  0  0  0  0  0
  -20.2540   16.2486  -29.0525 C   0  0  0  0  0  0  0  0  0  0  0  0
  -20.4970   16.6487  -26.0977 C   0  0  0  0  0  0  0  0  0  0  0  0
  -18.4466   17.2555  -25.3333 O   0  0  0  0  0  0  0  0  0  0  0  0
  -21.4194   16.4449  -28.3294 C   0  0  0  0  0  0  0  0  0  0  0  0
  1  7  2  0
  1 10  1  0
  2 16  2  0
  2 18  1  0
  3  4  1  0
  3 13  1  0
  3 14  1  0
  4 15  1  0
  5  8  1  0
  5 13  1  0
  6 11  1  0
  6 13  1  0
  7  9  1  0
  8 11  1  0
  9 15  2  0
 10 18  2  0
 11 12  1  0
 12 13  1  0
 14 16  1  0
 14 17  2  0
 15 18  1  0
M  END
>  <ID>  (1) 
conformer_0

$$$$
