
     RDKit          3D

 23 25  0  0  0  0  0  0  0  0999 V2000
  -14.3719   15.2940  -27.6354 C   0  0  0  0  0  0  0  0  0  0  0  0
  -15.8063   18.8565  -28.3247 O   0  0  0  0  0  0  0  0  0  0  0  0
  -15.5567   15.1679  -26.7377 C   0  0  0  0  0  0  0  0  0  0  0  0
  -23.3030   16.3537  -28.5740 C   0  0  0  0  0  0  0  0  0  0  0  0
  -25.8419   16.7770  -29.5206 N   0  0  0  0  0  0  0  0  0  0  0  0
  -16.6927   14.6674  -27.6737 C   0  0  0  0  0  0  0  0  0  0  0  0
  -16.0134   16.5853  -29.0526 C   0  0  0  0  0  0  0  0  0  0  0  0
  -14.7631   16.0122  -28.8914 C   0  0  0  0  0  0  0  0  0  0  0  0
  -21.9336   16.2729  -28.1525 C   0  0  0  0  0  0  0  0  0  0  0  0
  -21.0064   15.7969  -29.0520 C   0  0  0  0  0  0  0  0  0  0  0  0
  -20.2257   16.7836  -26.6416 C   0  0  0  0  0  0  0  0  0  0  0  0
  -17.9157   16.6832  -27.4590 C   0  0  0  0  0  0  0  0  0  0  0  0
  -25.4433   17.3704  -28.3762 C   0  0  0  0  0  0  0  0  0  0  0  0
  -21.5337   16.7194  -26.9116 C   0  0  0  0  0  0  0  0  0  0  0  0
  -17.4857   17.2595  -26.3023 C   0  0  0  0  0  0  0  0  0  0  0  0
  -16.4047   16.9419  -30.4466 C   0  0  0  0  0  0  0  0  0  0  0  0
  -24.1974   17.1268  -27.8616 C   0  0  0  0  0  0  0  0  0  0  0  0
  -23.7235   15.7400  -29.7267 C   0  0  0  0  0  0  0  0  0  0  0  0
  -19.7345   15.8727  -28.7698 C   0  0  0  0  0  0  0  0  0  0  0  0
  -19.2888   16.4204  -27.5951 C   0  0  0  0  0  0  0  0  0  0  0  0
  -17.1405   15.9083  -28.4002 C   0  0  0  0  0  0  0  0  0  0  0  0
  -25.0102   15.9403  -30.1787 C   0  0  0  0  0  0  0  0  0  0  0  0
  -15.3527   17.5532  -28.2281 C   0  0  0  0  0  0  0  0  0  0  0  0
  1  3  1  0
  1  8  1  0
  2 23  1  0
  3  6  1  0
  4  9  1  0
  4 17  2  0
  4 18  1  0
  5 13  2  0
  5 22  1  0
  6 21  1  0
  7  8  1  0
  7 16  1  0
  7 21  1  0
  7 23  1  0
  9 10  1  0
  9 14  1  0
 10 19  2  0
 11 14  2  0
 11 20  1  0
 12 15  2  0
 12 20  1  0
 12 21  1  0
 13 17  1  0
 18 22  2  0
 19 20  1  0
M  END
>  <ID>  (1) 
conformer_0

$$$$
