
     RDKit          3D

 20 23  0  0  0  0  0  0  0  0999 V2000
  -15.0638   15.1265  -29.1354 C   0  0  0  0  0  0  0  0  0  0  0  0
  -20.1909   14.2381  -32.8752 C   0  0  0  0  0  0  0  0  0  0  0  0
  -17.7837   14.9592  -32.4082 C   0  0  0  0  0  0  0  0  0  0  0  0
  -18.5777   16.6474  -26.3454 C   0  0  0  0  0  0  0  0  0  0  0  0
  -20.6483   16.0367  -28.0572 C   0  0  0  0  0  0  0  0  0  0  0  0
  -15.1709   15.0155  -26.6628 C   0  0  0  0  0  0  0  0  0  0  0  0
  -18.2945   16.1925  -27.5982 C   0  0  0  0  0  0  0  0  0  0  0  0
  -20.9195   16.4193  -26.7572 C   0  0  0  0  0  0  0  0  0  0  0  0
  -18.9509   15.6138  -29.8308 C   0  0  0  0  0  0  0  0  0  0  0  0
  -15.9225   14.0925  -29.8200 C   0  0  0  0  0  0  0  0  0  0  0  0
  -17.5842   15.6770  -30.1522 N   0  0  0  0  0  0  0  0  0  0  0  0
  -19.7278   15.4135  -30.8856 O   0  0  0  0  0  0  0  0  0  0  0  0
  -16.8998   15.7940  -31.4844 C   0  0  0  0  0  0  0  0  0  0  0  0
  -19.3515   15.9441  -28.5108 C   0  0  0  0  0  0  0  0  0  0  0  0
  -19.2180   14.9054  -32.0540 C   0  0  0  0  0  0  0  0  0  0  0  0
  -19.8660   16.7287  -25.9079 C   0  0  0  0  0  0  0  0  0  0  0  0
  -16.9770   15.9575  -27.9454 N   0  0  0  0  0  0  0  0  0  0  0  0
  -14.6234   14.2468  -27.8696 C   0  0  0  0  0  0  0  0  0  0  0  0
  -15.9116   16.3157  -27.0377 C   0  0  0  0  0  0  0  0  0  0  0  0
  -16.5869   15.2504  -29.1404 C   0  0  0  0  0  0  0  0  0  0  0  0
  1 10  1  0
  1 18  1  0
  2 15  1  0
  3 13  1  0
  3 15  2  0
  4  7  1  0
  4 16  2  0
  5  8  2  0
  5 14  1  0
  6 18  1  0
  6 19  1  0
  7 14  1  0
  7 17  1  0
  8 16  1  0
  9 11  1  0
  9 12  1  0
  9 14  2  0
 10 20  1  0
 11 13  1  0
 11 20  1  0
 12 15  1  0
 17 19  1  0
 17 20  1  0
M  END
>  <ID>  (1) 
conformer_0

$$$$
