
     RDKit          3D

 10  9  0  0  0  0  0  0  0  0999 V2000
  -18.2335   14.9913  -30.6386 C   0  0  0  0  0  0  0  0  0  0  0  0
  -18.0007   16.1020  -26.8877 S   0  0  0  0  0  0  0  0  0  0  0  0
  -16.0241   15.5961  -28.3093 C   0  0  0  0  0  0  0  0  0  0  0  0
  -15.4044   15.6450  -26.8644 C   0  0  0  0  0  0  0  0  0  0  0  0
  -21.0293   16.2837  -29.3134 C   0  0  0  0  0  0  0  0  0  0  0  0
  -18.4667   15.4807  -29.2470 C   0  0  0  0  0  0  0  0  0  0  0  0
  -21.5902   15.7374  -30.3189 N   0  0  0  0  0  0  0  0  0  0  0  0
  -21.6376   17.1227  -28.6364 O   0  0  0  0  0  0  0  0  0  0  0  0
  -17.5215   15.3318  -28.1870 C   0  0  0  0  0  0  0  0  0  0  0  0
  -19.7727   15.8777  -28.8752 C   0  0  0  0  0  0  0  0  0  0  0  0
  1  6  1  0
  2  9  1  0
  3  4  1  0
  3  9  1  0
  5  7  1  0
  5  8  2  0
  5 10  1  0
  6  9  1  0
  6 10  1  0
M  END
>  <ID>  (1) 
conformer_0

$$$$
