
     RDKit          3D

 28 30  0  0  0  0  0  0  0  0999 V2000
  -18.5227   17.8941  -28.8997 C   0  0  0  0  0  0  0  0  0  0  0  0
  -16.2836   17.0471  -28.1126 O   0  0  0  0  0  0  0  0  0  0  0  0
  -20.5915   19.0451  -30.3233 C   0  0  0  0  0  0  0  0  0  0  0  0
  -22.9095   17.6880  -30.6053 O   0  0  0  0  0  0  0  0  0  0  0  0
  -17.5414   21.0749  -29.4638 C   0  0  0  0  0  0  0  0  0  0  0  0
  -21.4455   16.0598  -29.9699 O   0  0  0  0  0  0  0  0  0  0  0  0
  -16.3269   13.3948  -27.4810 C   0  0  0  0  0  0  0  0  0  0  0  0
  -14.9670   13.2058  -27.0808 C   0  0  0  0  0  0  0  0  0  0  0  0
  -19.1243   17.0148  -27.8871 C   0  0  0  0  0  0  0  0  0  0  0  0
  -15.8279   15.7416  -28.1094 C   0  0  0  0  0  0  0  0  0  0  0  0
  -19.6686   17.3303  -25.0848 C   0  0  0  0  0  0  0  0  0  0  0  0
  -17.6585   17.1494  -28.2959 C   0  0  0  0  0  0  0  0  0  0  0  0
  -20.5103   18.6398  -31.7584 C   0  0  0  0  0  0  0  0  0  0  0  0
  -18.0375   18.7693  -29.9908 C   0  0  0  0  0  0  0  0  0  0  0  0
  -14.3751   15.4424  -28.0639 C   0  0  0  0  0  0  0  0  0  0  0  0
  -20.8932   17.1384  -26.1309 C   0  0  0  0  0  0  0  0  0  0  0  0
  -24.0441   16.7617  -30.6174 C   0  0  0  0  0  0  0  0  0  0  0  0
  -21.0395   18.2531  -29.0577 C   0  0  0  0  0  0  0  0  0  0  0  0
  -18.5280   20.1548  -29.8288 C   0  0  0  0  0  0  0  0  0  0  0  0
  -13.5624   16.5556  -28.7431 C   0  0  0  0  0  0  0  0  0  0  0  0
  -20.6317   17.4816  -27.6972 C   0  0  0  0  0  0  0  0  0  0  0  0
  -18.9982   15.6583  -27.1091 C   0  0  0  0  0  0  0  0  0  0  0  0
  -16.7973   14.6901  -27.9589 C   0  0  0  0  0  0  0  0  0  0  0  0
  -14.1432   14.4297  -26.9332 C   0  0  0  0  0  0  0  0  0  0  0  0
  -21.8971   17.2650  -29.8049 C   0  0  0  0  0  0  0  0  0  0  0  0
  -16.1910   20.5055  -29.7414 C   0  0  0  0  0  0  0  0  0  0  0  0
  -19.8827   20.2795  -30.1233 O   0  0  0  0  0  0  0  0  0  0  0  0
  -18.2489   14.6911  -27.9520 C   0  0  0  0  0  0  0  0  0  0  0  0
  1  9  1  0
  1 12  1  0
  1 14  1  0
  2 10  1  0
  2 12  1  0
  3 13  1  0
  3 18  1  0
  3 27  1  0
  4 17  1  0
  4 25  1  0
  5 19  1  0
  5 26  1  0
  6 25  2  0
  7  8  2  0
  7 23  1  0
  8 24  1  0
  9 21  1  0
  9 22  1  0
 10 15  1  0
 10 23  1  0
 11 16  1  0
 14 19  1  0
 15 20  1  0
 15 24  1  0
 16 21  1  0
 18 21  1  0
 18 25  1  0
 19 27  1  0
 22 28  1  0
 23 28  1  0
M  END
>  <ID>  (1) 
conformer_0

$$$$
