
     RDKit          3D

 22 24  0  0  0  0  0  0  0  0999 V2000
  -14.4807   13.6811  -27.5746 C   0  0  0  0  0  0  0  0  0  0  0  0
  -20.2773   16.3608  -28.8370 C   0  0  0  0  0  0  0  0  0  0  0  0
  -15.7823   16.0455  -28.4801 C   0  0  0  0  0  0  0  0  0  0  0  0
  -15.8387   13.7274  -28.2837 C   0  0  0  0  0  0  0  0  0  0  0  0
  -16.7443   13.9331  -27.2350 C   0  0  0  0  0  0  0  0  0  0  0  0
  -19.3494   16.3080  -31.0444 O   0  0  0  0  0  0  0  0  0  0  0  0
  -15.4610   17.0825  -27.6338 C   0  0  0  0  0  0  0  0  0  0  0  0
  -17.9502   16.7348  -29.1555 C   0  0  0  0  0  0  0  0  0  0  0  0
  -22.0799   16.6866  -30.2472 O   0  0  0  0  0  0  0  0  0  0  0  0
  -22.3678   16.6467  -28.0237 O   0  0  0  0  0  0  0  0  0  0  0  0
  -19.3027   16.9543  -29.8066 C   0  0  0  0  0  0  0  0  0  0  0  0
  -21.6727   16.5446  -29.0386 C   0  0  0  0  0  0  0  0  0  0  0  0
  -19.5015   15.7114  -27.8766 O   0  0  0  0  0  0  0  0  0  0  0  0
  -19.6800   15.7831  -33.3206 C   0  0  0  0  0  0  0  0  0  0  0  0
  -19.7301   16.8092  -32.2797 C   0  0  0  0  0  0  0  0  0  0  0  0
  -14.4559   14.8476  -26.6396 C   0  0  0  0  0  0  0  0  0  0  0  0
  -18.1537   15.4383  -28.3994 C   0  0  0  0  0  0  0  0  0  0  0  0
  -16.5766   16.6529  -29.6372 O   0  0  0  0  0  0  0  0  0  0  0  0
  -16.6776   14.9698  -28.0811 C   0  0  0  0  0  0  0  0  0  0  0  0
  -15.8990   18.1842  -27.4672 O   0  0  0  0  0  0  0  0  0  0  0  0
  -14.7397   16.0757  -27.4136 C   0  0  0  0  0  0  0  0  0  0  0  0
  -19.1944   18.1053  -32.6497 C   0  0  0  0  0  0  0  0  0  0  0  0
  1  4  1  0
  1 16  1  0
  2 11  1  0
  2 12  1  0
  2 13  1  0
  3  7  1  0
  3 18  1  0
  3 19  1  0
  4  5  1  0
  5 19  1  0
  6 11  1  0
  6 15  1  0
  7 20  2  0
  7 21  1  0
  8 11  1  0
  8 17  1  0
  8 18  1  0
  9 12  2  0
 10 12  1  0
 13 17  1  0
 14 15  1  0
 15 22  1  0
 16 21  1  0
 17 19  1  0
M  END
>  <ID>  (1) 
conformer_0

$$$$
