
     RDKit          3D

 24 27  0  0  0  0  0  0  0  0999 V2000
  -16.8087   15.2898  -27.3473 C   0  0  0  0  0  0  0  0  0  0  0  0
  -17.2923   18.0287  -29.7559 C   0  0  0  0  0  0  0  0  0  0  0  0
  -17.5912   16.0103  -28.3706 C   0  0  0  0  0  0  0  0  0  0  0  0
  -20.8810   17.2414  -30.5821 C   0  0  0  0  0  0  0  0  0  0  0  0
  -18.8275   18.5863  -31.5108 O   0  0  0  0  0  0  0  0  0  0  0  0
  -16.8051   16.6243  -29.4191 C   0  0  0  0  0  0  0  0  0  0  0  0
  -17.4613   15.4066  -29.6300 C   0  0  0  0  0  0  0  0  0  0  0  0
  -18.4777   16.9792  -27.6769 C   0  0  0  0  0  0  0  0  0  0  0  0
  -21.8376   18.4068  -30.3945 C   0  0  0  0  0  0  0  0  0  0  0  0
  -14.6700   15.4224  -26.2164 C   0  0  0  0  0  0  0  0  0  0  0  0
  -22.0720   16.2124  -28.7613 C   0  0  0  0  0  0  0  0  0  0  0  0
  -19.6118   16.7272  -28.5521 C   0  0  0  0  0  0  0  0  0  0  0  0
  -19.5229   16.9046  -30.0167 C   0  0  0  0  0  0  0  0  0  0  0  0
  -24.0602   17.0234  -30.9674 C   0  0  0  0  0  0  0  0  0  0  0  0
  -20.9164   16.5324  -27.8862 C   0  0  0  0  0  0  0  0  0  0  0  0
  -16.6370   13.8511  -27.4150 C   0  0  0  0  0  0  0  0  0  0  0  0
  -15.8631   16.1751  -26.6740 C   0  0  0  0  0  0  0  0  0  0  0  0
  -23.1560   17.2376  -28.7632 C   0  0  0  0  0  0  0  0  0  0  0  0
  -23.4712   17.8370  -27.5352 C   0  0  0  0  0  0  0  0  0  0  0  0
  -15.3863   16.8251  -28.9890 C   0  0  0  0  0  0  0  0  0  0  0  0
  -23.2495   17.9576  -30.0532 C   0  0  0  0  0  0  0  0  0  0  0  0
  -21.6643   15.9664  -30.2037 C   0  0  0  0  0  0  0  0  0  0  0  0
  -15.5307   17.3977  -27.5056 C   0  0  0  0  0  0  0  0  0  0  0  0
  -18.5212   17.7768  -30.5566 C   0  0  0  0  0  0  0  0  0  0  0  0
  1  3  1  0
  1 16  1  0
  1 17  1  0
  2  6  1  0
  2 24  1  0
  3  7  1  0
  3  8  1  0
  4  9  1  0
  4 13  1  0
  4 22  1  0
  5 24  1  0
  6  7  1  0
  6 20  1  0
  8 12  1  0
  9 21  1  0
 10 17  1  0
 11 15  1  0
 11 18  1  0
 11 22  1  0
 12 13  1  0
 12 15  2  0
 13 24  1  0
 14 21  1  0
 17 23  1  0
 18 19  1  0
 18 21  1  0
 20 23  1  0
M  END
>  <ID>  (1) 
conformer_0

$$$$
