
     RDKit          3D

 21 23  0  0  0  0  0  0  0  0999 V2000
  -13.8395   15.7658  -27.7168 C   0  0  0  0  0  0  0  0  0  0  0  0
  -15.9034   16.3139  -26.2379 C   0  0  0  0  0  0  0  0  0  0  0  0
  -20.6542   16.2682  -30.5558 C   0  0  0  0  0  0  0  0  0  0  0  0
  -19.5046   15.8962  -29.8208 C   0  0  0  0  0  0  0  0  0  0  0  0
  -21.2158   16.0761  -28.2497 C   0  0  0  0  0  0  0  0  0  0  0  0
  -16.9764   17.3166  -24.4151 C   0  0  0  0  0  0  0  0  0  0  0  0
  -17.0573   16.8127  -25.6904 C   0  0  0  0  0  0  0  0  0  0  0  0
  -21.8761   16.3014  -29.6360 C   0  0  0  0  0  0  0  0  0  0  0  0
  -19.7217   16.0987  -28.3404 O   0  0  0  0  0  0  0  0  0  0  0  0
  -18.4450   16.2900  -27.7130 C   0  0  0  0  0  0  0  0  0  0  0  0
  -18.3116   16.8295  -26.4019 C   0  0  0  0  0  0  0  0  0  0  0  0
  -15.3370   15.7018  -27.3292 C   0  0  0  0  0  0  0  0  0  0  0  0
  -19.2347   17.9345  -24.5347 C   0  0  0  0  0  0  0  0  0  0  0  0
  -16.1518   15.6331  -28.4948 C   0  0  0  0  0  0  0  0  0  0  0  0
  -22.9309   16.7559  -30.5707 O   0  0  0  0  0  0  0  0  0  0  0  0
  -19.3614   17.4303  -25.7737 C   0  0  0  0  0  0  0  0  0  0  0  0
  -17.4668   15.9372  -28.6223 C   0  0  0  0  0  0  0  0  0  0  0  0
  -14.3458   14.5490  -27.1001 C   0  0  0  0  0  0  0  0  0  0  0  0
  -20.6845   16.2101  -31.8229 O   0  0  0  0  0  0  0  0  0  0  0  0
  -18.0561   17.8915  -23.8495 N   0  0  0  0  0  0  0  0  0  0  0  0
  -18.0286   15.8418  -30.0161 C   0  0  0  0  0  0  0  0  0  0  0  0
  1 18  1  0
  2  7  2  0
  2 12  1  0
  3  4  1  0
  3  8  1  0
  3 19  2  0
  4 21  1  0
  5  8  1  0
  5  9  1  0
  6  7  1  0
  6 20  2  0
  7 11  1  0
  8 15  1  0
  9 10  1  0
 10 11  2  0
 10 17  1  0
 11 16  1  0
 12 14  1  0
 12 18  1  0
 13 16  2  0
 13 20  1  0
 14 17  2  0
 17 21  1  0
M  END
>  <ID>  (1) 
conformer_0

$$$$
