
     RDKit          3D

 25 28  0  0  0  0  0  0  0  0999 V2000
  -19.0267   15.8191  -30.1301 C   0  0  0  0  0  0  0  0  0  0  0  0
  -19.6348   15.8442  -31.3982 C   0  0  0  0  0  0  0  0  0  0  0  0
  -18.8023   15.5102  -32.5350 C   0  0  0  0  0  0  0  0  0  0  0  0
  -23.3251   18.2362  -27.6435 C   0  0  0  0  0  0  0  0  0  0  0  0
  -15.9658   13.6885  -27.3352 C   0  0  0  0  0  0  0  0  0  0  0  0
  -19.3812   16.2943  -28.8732 C   0  0  0  0  0  0  0  0  0  0  0  0
  -18.2166   17.5450  -24.3119 C   0  0  0  0  0  0  0  0  0  0  0  0
  -16.3473   15.9298  -26.8659 C   0  0  0  0  0  0  0  0  0  0  0  0
  -19.6493   14.8321  -33.5132 C   0  0  0  0  0  0  0  0  0  0  0  0
  -20.6983   16.5519  -28.4393 C   0  0  0  0  0  0  0  0  0  0  0  0
  -21.1028   16.3592  -27.0504 C   0  0  0  0  0  0  0  0  0  0  0  0
  -19.9702   16.6030  -26.0736 C   0  0  0  0  0  0  0  0  0  0  0  0
  -15.0449   15.6231  -26.3152 C   0  0  0  0  0  0  0  0  0  0  0  0
  -17.7904   15.1988  -30.0327 C   0  0  0  0  0  0  0  0  0  0  0  0
  -21.5238   18.3672  -29.9019 C   0  0  0  0  0  0  0  0  0  0  0  0
  -23.0725   16.9124  -28.3675 C   0  0  0  0  0  0  0  0  0  0  0  0
  -19.2963   17.6304  -25.3081 C   0  0  0  0  0  0  0  0  0  0  0  0
  -16.4532   14.9132  -27.8771 N   0  0  0  0  0  0  0  0  0  0  0  0
  -17.4559   16.7185  -27.0861 N   0  0  0  0  0  0  0  0  0  0  0  0
  -17.4236   15.2150  -28.7354 C   0  0  0  0  0  0  0  0  0  0  0  0
  -20.9964   16.0260  -31.6951 C   0  0  0  0  0  0  0  0  0  0  0  0
  -22.5716   15.8872  -27.2433 C   0  0  0  0  0  0  0  0  0  0  0  0
  -14.7940   14.1654  -26.5321 C   0  0  0  0  0  0  0  0  0  0  0  0
  -21.8195   17.0772  -29.2337 C   0  0  0  0  0  0  0  0  0  0  0  0
  -18.2623   16.1350  -28.0434 C   0  0  0  0  0  0  0  0  0  0  0  0
  1  2  1  0
  1  6  1  0
  1 14  1  0
  2  3  1  0
  2 21  1  0
  3  9  1  0
  4 16  1  0
  5 18  1  0
  5 23  1  0
  6 10  1  0
  6 25  1  0
  7 17  1  0
  8 13  1  0
  8 18  1  0
  8 19  2  0
 10 11  1  0
 10 24  1  0
 11 12  1  0
 11 22  1  0
 12 17  2  3
 13 23  1  0
 14 20  1  0
 15 24  1  0
 16 22  1  0
 16 24  1  0
 18 20  1  0
 19 25  1  0
 20 25  1  0
M  END
>  <ID>  (1) 
conformer_0

$$$$
