
     RDKit          3D

 25 27  0  0  0  0  0  0  0  0999 V2000
  -23.0719   16.0277  -29.2357 C   0  0  0  0  0  0  0  0  0  0  0  0
  -20.4519   15.3298  -32.1593 C   0  0  0  0  0  0  0  0  0  0  0  0
  -16.9650   17.7274  -28.7275 C   0  0  0  0  0  0  0  0  0  0  0  0
  -19.6802   17.5207  -27.9579 C   0  0  0  0  0  0  0  0  0  0  0  0
  -16.5898   19.7970  -29.7075 C   0  0  0  0  0  0  0  0  0  0  0  0
  -20.6885   18.1943  -28.4799 O   0  0  0  0  0  0  0  0  0  0  0  0
  -14.8733   17.0853  -27.7374 C   0  0  0  0  0  0  0  0  0  0  0  0
  -15.2856   19.2986  -29.0425 C   0  0  0  0  0  0  0  0  0  0  0  0
  -20.8360   16.0633  -30.0650 C   0  0  0  0  0  0  0  0  0  0  0  0
  -20.2234   17.2813  -25.5348 C   0  0  0  0  0  0  0  0  0  0  0  0
  -19.2218   17.7557  -26.5539 C   0  0  0  0  0  0  0  0  0  0  0  0
  -14.5937   14.7877  -26.4763 Cl  0  0  0  0  0  0  0  0  0  0  0  0
  -21.2694   15.7863  -27.5460 C   0  0  0  0  0  0  0  0  0  0  0  0
  -17.5439   18.7241  -29.4793 O   0  0  0  0  0  0  0  0  0  0  0  0
  -18.9751   16.4463  -28.6362 C   0  0  0  0  0  0  0  0  0  0  0  0
  -23.6198   15.9642  -30.3348 O   0  0  0  0  0  0  0  0  0  0  0  0
  -21.3066   16.1328  -31.3388 O   0  0  0  0  0  0  0  0  0  0  0  0
  -16.8103   15.6233  -27.6634 C   0  0  0  0  0  0  0  0  0  0  0  0
  -19.4063   16.1279  -29.9863 C   0  0  0  0  0  0  0  0  0  0  0  0
  -15.5025   15.9092  -27.3598 C   0  0  0  0  0  0  0  0  0  0  0  0
  -21.6659   16.1751  -28.9501 N   0  0  0  0  0  0  0  0  0  0  0  0
  -21.4331   16.7230  -26.2970 C   0  0  0  0  0  0  0  0  0  0  0  0
  -15.6258   18.0215  -28.4587 C   0  0  0  0  0  0  0  0  0  0  0  0
  -17.5706   16.5450  -28.3332 C   0  0  0  0  0  0  0  0  0  0  0  0
  -23.9244   15.7966  -28.0626 C   0  0  0  0  0  0  0  0  0  0  0  0
  1 16  2  0
  1 21  1  0
  1 25  1  0
  2 17  1  0
  3 14  1  0
  3 23  2  0
  3 24  1  0
  4  6  1  0
  4 11  1  0
  4 15  1  0
  5  8  1  0
  5 14  1  0
  7 20  2  0
  7 23  1  0
  8 23  1  0
  9 17  1  0
  9 19  1  0
  9 21  1  0
 10 11  1  0
 10 22  1  0
 12 20  1  0
 13 21  1  0
 13 22  1  0
 15 19  1  0
 15 24  1  0
 18 20  1  0
 18 24  2  0
M  END
>  <ID>  (1) 
conformer_0

$$$$
