
     RDKit          3D

 31 32  0  0  0  0  0  0  0  0999 V2000
  -21.3938   19.9089  -26.3666 C   0  0  0  0  0  0  0  0  0  0  0  0
  -18.2662   14.8320  -34.3189 O   0  0  0  0  0  0  0  0  0  0  0  0
  -14.2184   15.2815  -27.9619 C   0  0  0  0  0  0  0  0  0  0  0  0
  -20.9462   17.9019  -24.8554 C   0  0  0  0  0  0  0  0  0  0  0  0
  -22.6610   19.9589  -26.5300 O   0  0  0  0  0  0  0  0  0  0  0  0
  -17.0435   14.3603  -27.4537 C   0  0  0  0  0  0  0  0  0  0  0  0
  -14.3890   18.0401  -29.0065 O   0  0  0  0  0  0  0  0  0  0  0  0
  -14.9165   13.2882  -26.8432 C   0  0  0  0  0  0  0  0  0  0  0  0
  -19.2687   15.2639  -32.3523 C   0  0  0  0  0  0  0  0  0  0  0  0
  -16.6855   15.2418  -32.5821 C   0  0  0  0  0  0  0  0  0  0  0  0
  -20.9831   19.4950  -24.8998 C   0  0  0  0  0  0  0  0  0  0  0  0
  -20.4358   16.5121  -28.3511 C   0  0  0  0  0  0  0  0  0  0  0  0
  -17.8660   15.0179  -30.4362 C   0  0  0  0  0  0  0  0  0  0  0  0
  -20.4762   20.0620  -27.2330 O   0  0  0  0  0  0  0  0  0  0  0  0
  -22.5125   16.9633  -27.1704 C   0  0  0  0  0  0  0  0  0  0  0  0
  -16.5774   15.4179  -31.1152 C   0  0  0  0  0  0  0  0  0  0  0  0
  -15.3599   15.8654  -28.4388 C   0  0  0  0  0  0  0  0  0  0  0  0
  -15.0426   16.9253  -29.4503 C   0  0  0  0  0  0  0  0  0  0  0  0
  -19.1367   15.7079  -30.8868 C   0  0  0  0  0  0  0  0  0  0  0  0
  -17.0299   17.9438  -27.9704 C   0  0  0  0  0  0  0  0  0  0  0  0
  -17.6734   16.6415  -28.1875 C   0  0  0  0  0  0  0  0  0  0  0  0
  -16.7105   15.5360  -28.0461 C   0  0  0  0  0  0  0  0  0  0  0  0
  -19.0437   16.8641  -28.7144 C   0  0  0  0  0  0  0  0  0  0  0  0
  -21.0157   16.7374  -27.0284 C   0  0  0  0  0  0  0  0  0  0  0  0
  -20.4882   15.3955  -30.5290 O   0  0  0  0  0  0  0  0  0  0  0  0
  -19.0321   17.1959  -30.2585 C   0  0  0  0  0  0  0  0  0  0  0  0
  -18.0328   14.8653  -33.0029 C   0  0  0  0  0  0  0  0  0  0  0  0
  -13.9673   14.1620  -27.2458 C   0  0  0  0  0  0  0  0  0  0  0  0
  -16.2426   13.3858  -26.9455 C   0  0  0  0  0  0  0  0  0  0  0  0
  -20.2700   17.5444  -26.1609 O   0  0  0  0  0  0  0  0  0  0  0  0
  -17.0934   18.5176  -26.8260 O   0  0  0  0  0  0  0  0  0  0  0  0
  1  5  2  0
  1 11  1  0
  1 14  1  0
  2 27  1  0
  3 17  1  0
  3 28  2  0
  4 11  1  0
  4 30  1  0
  6 22  2  0
  6 29  1  0
  7 18  1  0
  8 28  1  0
  8 29  2  0
  9 19  1  0
  9 27  1  0
 10 16  1  0
 10 27  1  0
 12 23  1  0
 12 24  1  0
 13 16  1  0
 13 19  1  0
 15 24  1  0
 17 18  1  0
 17 22  1  0
 19 25  1  0
 19 26  1  0
 20 21  1  0
 20 31  2  0
 21 22  1  0
 21 23  1  0
 23 26  1  0
 24 30  1  0
M  END
>  <ID>  (1) 
conformer_0

$$$$
