
     RDKit          3D

 25 30  0  0  0  0  0  0  0  0999 V2000
  -22.1273   17.2968  -26.3856 C   0  0  0  0  0  0  0  0  0  0  0  0
  -17.8669   16.5992  -26.0484 C   0  0  0  0  0  0  0  0  0  0  0  0
  -16.7702   16.1828  -26.8584 C   0  0  0  0  0  0  0  0  0  0  0  0
  -15.8630   16.0522  -29.0109 C   0  0  0  0  0  0  0  0  0  0  0  0
  -14.4788   15.6650  -27.1721 C   0  0  0  0  0  0  0  0  0  0  0  0
  -18.8443   16.5261  -26.9425 O   0  0  0  0  0  0  0  0  0  0  0  0
  -18.1052   16.4318  -31.7178 N   0  0  0  0  0  0  0  0  0  0  0  0
  -19.8269   17.0085  -33.0467 O   0  0  0  0  0  0  0  0  0  0  0  0
  -21.6137   17.1945  -30.9807 C   0  0  0  0  0  0  0  0  0  0  0  0
  -20.5825   16.6728  -28.5044 C   0  0  0  0  0  0  0  0  0  0  0  0
  -18.2076   16.3169  -29.2672 C   0  0  0  0  0  0  0  0  0  0  0  0
  -21.9903   17.9556  -31.8276 O   0  0  0  0  0  0  0  0  0  0  0  0
  -19.6535   16.5064  -29.5083 N   0  0  0  0  0  0  0  0  0  0  0  0
  -20.0537   16.7372  -27.2279 C   0  0  0  0  0  0  0  0  0  0  0  0
  -21.9041   16.8843  -28.7198 C   0  0  0  0  0  0  0  0  0  0  0  0
  -20.2350   16.7676  -30.7498 C   0  0  0  0  0  0  0  0  0  0  0  0
  -16.0559   16.2046  -30.4369 C   0  0  0  0  0  0  0  0  0  0  0  0
  -17.5250   16.3146  -30.5106 C   0  0  0  0  0  0  0  0  0  0  0  0
  -17.0519   16.1870  -28.2657 C   0  0  0  0  0  0  0  0  0  0  0  0
  -22.6981   17.1804  -27.6295 C   0  0  0  0  0  0  0  0  0  0  0  0
  -19.4015   16.7348  -31.9038 C   0  0  0  0  0  0  0  0  0  0  0  0
  -15.5293   15.8640  -26.3343 N   0  0  0  0  0  0  0  0  0  0  0  0
  -22.4869   16.8840  -29.9579 N   0  0  0  0  0  0  0  0  0  0  0  0
  -20.8162   17.0610  -26.1733 C   0  0  0  0  0  0  0  0  0  0  0  0
  -14.6389   15.7897  -28.5087 N   0  0  0  0  0  0  0  0  0  0  0  0
  1 20  2  0
  1 24  1  0
  2  3  1  0
  2  6  1  0
  3 19  2  0
  3 22  1  0
  4 17  1  0
  4 19  1  0
  4 25  2  0
  5 22  2  0
  5 25  1  0
  6 14  1  0
  7 18  2  0
  7 21  1  0
  8 21  2  0
  9 12  2  0
  9 16  1  0
  9 23  1  0
 10 13  1  0
 10 14  1  0
 10 15  2  0
 11 13  1  0
 11 18  1  0
 11 19  1  0
 13 16  1  0
 14 24  2  0
 15 20  1  0
 15 23  1  0
 16 21  1  0
 17 18  1  0
M  END
>  <ID>  (1) 
conformer_0

$$$$
