
     RDKit          3D

 21 24  0  0  0  0  0  0  0  0999 V2000
  -22.4676   20.1452  -29.1191 O   0  0  0  0  0  0  0  0  0  0  0  0
  -20.8636   15.8957  -28.8194 C   0  0  0  0  0  0  0  0  0  0  0  0
  -21.0250   17.1429  -29.6690 C   0  0  0  0  0  0  0  0  0  0  0  0
  -23.0834   16.7031  -28.2164 C   0  0  0  0  0  0  0  0  0  0  0  0
  -22.2541   19.0300  -28.6340 C   0  0  0  0  0  0  0  0  0  0  0  0
  -18.5313   15.2533  -27.4058 C   0  0  0  0  0  0  0  0  0  0  0  0
  -23.2911   18.1892  -27.9860 C   0  0  0  0  0  0  0  0  0  0  0  0
  -14.8861   16.7114  -28.6895 C   0  0  0  0  0  0  0  0  0  0  0  0
  -16.1222   15.7911  -26.7527 C   0  0  0  0  0  0  0  0  0  0  0  0
  -20.9834   18.3857  -28.9305 C   0  0  0  0  0  0  0  0  0  0  0  0
  -19.4143   15.6434  -28.5384 C   0  0  0  0  0  0  0  0  0  0  0  0
  -20.3154   14.9056  -32.2452 O   0  0  0  0  0  0  0  0  0  0  0  0
  -15.2027   16.8882  -27.2320 C   0  0  0  0  0  0  0  0  0  0  0  0
  -20.8983   16.7965  -31.0171 O   0  0  0  0  0  0  0  0  0  0  0  0
  -18.7000   15.9624  -30.8716 C   0  0  0  0  0  0  0  0  0  0  0  0
  -18.5663   16.4486  -29.4343 C   0  0  0  0  0  0  0  0  0  0  0  0
  -17.1575   15.6328  -27.7680 C   0  0  0  0  0  0  0  0  0  0  0  0
  -21.7331   16.2339  -27.5881 C   0  0  0  0  0  0  0  0  0  0  0  0
  -16.0396   16.7636  -29.6090 C   0  0  0  0  0  0  0  0  0  0  0  0
  -20.0824   15.6906  -31.2908 C   0  0  0  0  0  0  0  0  0  0  0  0
  -17.2338   16.4072  -28.9094 C   0  0  0  0  0  0  0  0  0  0  0  0
  1  5  2  0
  2  3  1  0
  2 11  1  0
  2 18  1  0
  3 10  1  0
  3 14  1  0
  4  7  1  0
  4 18  1  0
  5  7  1  0
  5 10  1  0
  6 11  1  0
  6 17  1  0
  8 13  1  0
  8 19  1  0
  9 13  1  0
  9 17  1  0
 11 16  1  0
 12 20  2  0
 14 20  1  0
 15 16  1  0
 15 20  1  0
 16 21  1  0
 17 21  1  0
 19 21  1  0
M  END
>  <ID>  (1) 
conformer_0

$$$$
