
     RDKit          3D

 29 31  0  0  0  0  0  0  0  0999 V2000
  -21.0025   17.3654  -27.2733 N   0  0  0  0  0  0  0  0  0  0  0  0
  -23.2975   14.9696  -28.2364 C   0  0  0  0  0  0  0  0  0  0  0  0
  -18.1032   17.4221  -25.2230 C   0  0  0  0  0  0  0  0  0  0  0  0
  -18.3894   15.4824  -29.7275 C   0  0  0  0  0  0  0  0  0  0  0  0
  -19.1258   16.0300  -32.0180 C   0  0  0  0  0  0  0  0  0  0  0  0
  -23.9623   17.2438  -27.9094 C   0  0  0  0  0  0  0  0  0  0  0  0
  -22.9774   16.3249  -28.1645 C   0  0  0  0  0  0  0  0  0  0  0  0
  -16.4442   16.4870  -26.7278 C   0  0  0  0  0  0  0  0  0  0  0  0
  -18.1551   15.3074  -31.1507 C   0  0  0  0  0  0  0  0  0  0  0  0
  -20.2394   16.7416  -31.9887 O   0  0  0  0  0  0  0  0  0  0  0  0
  -17.3103   15.5377  -28.8984 N   0  0  0  0  0  0  0  0  0  0  0  0
  -16.1791   13.7540  -27.2877 C   0  0  0  0  0  0  0  0  0  0  0  0
  -19.5799   14.7968  -33.9747 C   0  0  0  0  0  0  0  0  0  0  0  0
  -16.6305   14.3076  -28.6404 C   0  0  0  0  0  0  0  0  0  0  0  0
  -15.0335   16.0343  -26.4896 C   0  0  0  0  0  0  0  0  0  0  0  0
  -25.2391   16.7946  -27.6888 C   0  0  0  0  0  0  0  0  0  0  0  0
  -19.9078   17.2169  -26.7539 C   0  0  0  0  0  0  0  0  0  0  0  0
  -20.7801   16.2872  -29.3222 C   0  0  0  0  0  0  0  0  0  0  0  0
  -16.7164   17.6479  -25.7829 C   0  0  0  0  0  0  0  0  0  0  0  0
  -18.9473   16.8170  -26.1287 N   0  0  0  0  0  0  0  0  0  0  0  0
  -19.5738   16.0978  -29.4899 C   0  0  0  0  0  0  0  0  0  0  0  0
  -14.1438   15.1380  -27.2703 C   0  0  0  0  0  0  0  0  0  0  0  0
  -18.6619   15.8723  -33.4670 C   0  0  0  0  0  0  0  0  0  0  0  0
  -26.2622   17.7068  -27.4966 N   0  0  0  0  0  0  0  0  0  0  0  0
  -25.5616   15.4597  -27.6841 C   0  0  0  0  0  0  0  0  0  0  0  0
  -16.9151   16.6815  -28.1411 C   0  0  0  0  0  0  0  0  0  0  0  0
  -14.6560   13.7282  -27.0854 C   0  0  0  0  0  0  0  0  0  0  0  0
  -21.5990   16.6925  -28.2869 C   0  0  0  0  0  0  0  0  0  0  0  0
  -24.5412   14.5678  -27.9739 C   0  0  0  0  0  0  0  0  0  0  0  0
  1 17  1  0
  1 28  1  0
  2  7  2  0
  2 29  1  0
  3 19  1  0
  3 20  1  0
  4  9  1  0
  4 11  1  0
  4 21  2  0
  5  9  1  0
  5 10  1  0
  5 23  1  0
  6  7  1  0
  6 16  2  0
  7 28  1  0
  8 15  1  0
  8 19  1  0
  8 26  1  0
 11 14  1  0
 11 26  1  0
 12 14  1  0
 12 27  1  0
 13 23  1  0
 15 22  1  0
 16 24  1  0
 16 25  1  0
 17 20  1  0
 18 21  2  0
 18 28  1  0
 22 27  1  0
 25 29  2  0
M  END
>  <ID>  (1) 
conformer_0

$$$$
