
     RDKit          3D

 28 31  0  0  0  0  0  0  0  0999 V2000
  -24.0932   13.8828  -29.0372 O   0  0  0  0  0  0  0  0  0  0  0  0
  -21.4280   18.1028  -30.0218 C   0  0  0  0  0  0  0  0  0  0  0  0
  -20.9770   16.9903  -29.3376 C   0  0  0  0  0  0  0  0  0  0  0  0
  -18.3214   16.9276  -30.4501 C   0  0  0  0  0  0  0  0  0  0  0  0
  -16.1709   15.1539  -27.3075 C   0  0  0  0  0  0  0  0  0  0  0  0
  -19.2573   17.0616  -31.5549 C   0  0  0  0  0  0  0  0  0  0  0  0
  -21.9064   15.9757  -29.0373 C   0  0  0  0  0  0  0  0  0  0  0  0
  -16.3075   17.9670  -29.6931 C   0  0  0  0  0  0  0  0  0  0  0  0
  -15.8704   16.3692  -27.8634 C   0  0  0  0  0  0  0  0  0  0  0  0
  -19.3606   18.2153  -28.0167 C   0  0  0  0  0  0  0  0  0  0  0  0
  -15.1747   14.5475  -26.4550 C   0  0  0  0  0  0  0  0  0  0  0  0
  -16.6946   16.9426  -28.7588 C   0  0  0  0  0  0  0  0  0  0  0  0
  -18.0044   17.5234  -34.3338 C   0  0  0  0  0  0  0  0  0  0  0  0
  -15.4611   18.8484  -29.5046 O   0  0  0  0  0  0  0  0  0  0  0  0
  -19.8349   18.4100  -26.7461 C   0  0  0  0  0  0  0  0  0  0  0  0
  -25.4397   15.3500  -29.9831 O   0  0  0  0  0  0  0  0  0  0  0  0
  -18.2779   15.1106  -28.4073 C   0  0  0  0  0  0  0  0  0  0  0  0
  -23.5349   17.1464  -30.3965 C   0  0  0  0  0  0  0  0  0  0  0  0
  -16.6785   17.6224  -32.2067 C   0  0  0  0  0  0  0  0  0  0  0  0
  -24.2951   15.0407  -29.4601 C   0  0  0  0  0  0  0  0  0  0  0  0
  -17.1247   17.8568  -30.8189 N   0  0  0  0  0  0  0  0  0  0  0  0
  -19.0063   18.4102  -32.2836 C   0  0  0  0  0  0  0  0  0  0  0  0
  -22.6445   18.1818  -30.6053 C   0  0  0  0  0  0  0  0  0  0  0  0
  -19.5514   17.0674  -28.9448 N   0  0  0  0  0  0  0  0  0  0  0  0
  -17.3574   14.5309  -27.5882 C   0  0  0  0  0  0  0  0  0  0  0  0
  -17.7462   18.2204  -33.0501 C   0  0  0  0  0  0  0  0  0  0  0  0
  -18.1068   16.4178  -29.0473 C   0  0  0  0  0  0  0  0  0  0  0  0
  -23.2097   16.0316  -29.6144 C   0  0  0  0  0  0  0  0  0  0  0  0
  1 20  2  0
  2  3  2  0
  2 23  1  0
  3  7  1  0
  3 24  1  0
  4  6  1  0
  4 21  1  0
  4 27  1  0
  5  9  2  0
  5 11  1  0
  5 25  1  0
  6 22  1  0
  7 28  2  0
  8 12  1  0
  8 14  2  0
  8 21  1  0
  9 12  1  0
 10 15  2  0
 10 24  1  0
 12 27  1  0
 13 26  1  0
 16 20  1  0
 17 25  2  0
 17 27  1  0
 18 23  2  0
 18 28  1  0
 19 21  1  0
 19 26  1  0
 20 28  1  0
 22 26  1  0
 24 27  1  0
M  END
>  <ID>  (1) 
conformer_0

$$$$
