
     RDKit          3D

 23 26  0  0  0  0  0  0  0  0999 V2000
  -16.6220   15.1694  -28.2505 C   0  0  0  0  0  0  0  0  0  0  0  0
  -20.5469   18.1095  -24.8596 C   0  0  0  0  0  0  0  0  0  0  0  0
  -17.9414   15.4042  -28.7277 C   0  0  0  0  0  0  0  0  0  0  0  0
  -20.9991   17.2881  -28.4761 C   0  0  0  0  0  0  0  0  0  0  0  0
  -16.3859   14.1323  -27.3555 C   0  0  0  0  0  0  0  0  0  0  0  0
  -21.9801   16.4206  -31.4129 N   0  0  0  0  0  0  0  0  0  0  0  0
  -15.1282   13.9988  -26.8180 C   0  0  0  0  0  0  0  0  0  0  0  0
  -17.6201   15.5635  -30.1258 C   0  0  0  0  0  0  0  0  0  0  0  0
  -19.2433   17.6257  -24.7152 C   0  0  0  0  0  0  0  0  0  0  0  0
  -19.9952   16.4879  -29.2000 C   0  0  0  0  0  0  0  0  0  0  0  0
  -18.6783   15.5049  -30.9407 N   0  0  0  0  0  0  0  0  0  0  0  0
  -21.1929   17.9940  -26.0897 C   0  0  0  0  0  0  0  0  0  0  0  0
  -15.5828   15.9734  -28.6796 C   0  0  0  0  0  0  0  0  0  0  0  0
  -14.3271   15.8427  -28.1746 C   0  0  0  0  0  0  0  0  0  0  0  0
  -19.2799   16.8611  -27.0064 C   0  0  0  0  0  0  0  0  0  0  0  0
  -18.6184   16.9999  -25.8017 C   0  0  0  0  0  0  0  0  0  0  0  0
  -18.9555   16.2199  -28.2391 C   0  0  0  0  0  0  0  0  0  0  0  0
  -22.0199   17.7802  -29.0059 O   0  0  0  0  0  0  0  0  0  0  0  0
  -20.1366   16.5270  -32.6785 O   0  0  0  0  0  0  0  0  0  0  0  0
  -19.8867   16.0062  -30.5125 C   0  0  0  0  0  0  0  0  0  0  0  0
  -20.7310   16.3700  -31.6094 C   0  0  0  0  0  0  0  0  0  0  0  0
  -14.1005   14.8473  -27.2183 C   0  0  0  0  0  0  0  0  0  0  0  0
  -20.5703   17.4425  -27.1304 C   0  0  0  0  0  0  0  0  0  0  0  0
  1  3  1  0
  1  5  1  0
  1 13  1  0
  2  9  2  0
  2 12  1  0
  3  8  1  0
  3 17  1  0
  4 10  1  0
  4 18  2  0
  4 23  1  0
  5  7  2  0
  6 21  1  0
  7 22  1  0
  8 11  1  0
  9 16  1  0
 10 17  1  0
 10 20  2  0
 11 20  1  0
 12 23  2  0
 13 14  2  0
 14 22  1  0
 15 16  2  0
 15 17  1  0
 15 23  1  0
 19 21  2  0
 20 21  1  0
M  END
>  <ID>  (1) 
conformer_0

$$$$
