
     RDKit          3D

 18 19  0  0  0  0  0  0  0  0999 V2000
  -17.1385   16.3383  -26.5262 C   0  0  0  0  0  0  0  0  0  0  0  0
  -22.3935   16.2791  -27.8204 C   0  0  0  0  0  0  0  0  0  0  0  0
  -14.4998   14.2876  -27.4790 C   0  0  0  0  0  0  0  0  0  0  0  0
  -18.8340   16.1461  -28.5251 N   0  0  0  0  0  0  0  0  0  0  0  0
  -14.4592   15.7859  -27.0849 C   0  0  0  0  0  0  0  0  0  0  0  0
  -20.9558   16.6366  -29.5115 C   0  0  0  0  0  0  0  0  0  0  0  0
  -18.7168   15.7285  -29.9296 C   0  0  0  0  0  0  0  0  0  0  0  0
  -16.0042   13.9418  -27.6056 C   0  0  0  0  0  0  0  0  0  0  0  0
  -15.6904   16.1075  -26.3167 N   0  0  0  0  0  0  0  0  0  0  0  0
  -17.8140   15.6570  -27.6460 C   0  0  0  0  0  0  0  0  0  0  0  0
  -22.3112   17.3165  -26.9400 O   0  0  0  0  0  0  0  0  0  0  0  0
  -19.6162   17.5034  -31.3166 O   0  0  0  0  0  0  0  0  0  0  0  0
  -16.6843   15.0092  -28.4617 C   0  0  0  0  0  0  0  0  0  0  0  0
  -20.5401   15.4312  -31.5683 O   0  0  0  0  0  0  0  0  0  0  0  0
  -19.9869   16.3115  -30.6717 C   0  0  0  0  0  0  0  0  0  0  0  0
  -20.3310   16.2890  -28.1561 C   0  0  0  0  0  0  0  0  0  0  0  0
  -20.2266   15.9228  -26.6401 C   0  0  0  0  0  0  0  0  0  0  0  0
  -22.3690   16.5513  -29.3049 C   0  0  0  0  0  0  0  0  0  0  0  0
  1  9  1  0
  1 10  1  0
  2 11  1  0
  2 18  1  0
  3  5  1  0
  3  8  1  0
  4  7  1  0
  4 10  1  0
  4 16  1  0
  5  9  1  0
  6 15  1  0
  6 16  1  0
  6 18  1  0
  7 15  1  0
  8 13  1  0
 10 13  1  0
 12 15  1  0
 14 15  1  0
 16 17  1  0
M  END
>  <ID>  (1) 
conformer_0

$$$$
