
     RDKit          3D

 24 28  0  0  0  0  0  0  0  0999 V2000
  -19.0817   14.7521  -31.6321 C   0  0  0  0  0  0  0  0  0  0  0  0
  -19.0303   16.9383  -32.6039 C   0  0  0  0  0  0  0  0  0  0  0  0
  -20.1192   17.6207  -28.4101 C   0  0  0  0  0  0  0  0  0  0  0  0
  -18.7234   16.7047  -30.2304 C   0  0  0  0  0  0  0  0  0  0  0  0
  -19.3154   14.1956  -32.8494 C   0  0  0  0  0  0  0  0  0  0  0  0
  -21.9680   19.2035  -28.4896 C   0  0  0  0  0  0  0  0  0  0  0  0
  -18.9454   16.1154  -31.5088 C   0  0  0  0  0  0  0  0  0  0  0  0
  -21.3598   18.0889  -27.6177 C   0  0  0  0  0  0  0  0  0  0  0  0
  -17.8874   16.0110  -29.2296 C   0  0  0  0  0  0  0  0  0  0  0  0
  -15.8446   15.1185  -28.5880 C   0  0  0  0  0  0  0  0  0  0  0  0
  -21.8649   16.7248  -27.0307 C   0  0  0  0  0  0  0  0  0  0  0  0
  -19.3865   15.0428  -33.9956 C   0  0  0  0  0  0  0  0  0  0  0  0
  -20.7456   18.7226  -26.3219 C   0  0  0  0  0  0  0  0  0  0  0  0
  -20.0326   17.5383  -25.7076 O   0  0  0  0  0  0  0  0  0  0  0  0
  -14.4321   14.8127  -28.7983 C   0  0  0  0  0  0  0  0  0  0  0  0
  -19.5663   17.7302  -29.7391 C   0  0  0  0  0  0  0  0  0  0  0  0
  -15.3841   14.2023  -26.4274 C   0  0  0  0  0  0  0  0  0  0  0  0
  -19.6330   16.4321  -27.7217 C   0  0  0  0  0  0  0  0  0  0  0  0
  -16.6107   15.6229  -29.5387 N   0  0  0  0  0  0  0  0  0  0  0  0
  -20.3949   16.2324  -26.4575 C   0  0  0  0  0  0  0  0  0  0  0  0
  -18.3926   15.8894  -27.9929 N   0  0  0  0  0  0  0  0  0  0  0  0
  -16.3527   14.8711  -27.3296 C   0  0  0  0  0  0  0  0  0  0  0  0
  -19.2690   16.4310  -33.8578 C   0  0  0  0  0  0  0  0  0  0  0  0
  -17.6158   15.2749  -27.0667 C   0  0  0  0  0  0  0  0  0  0  0  0
  1  5  2  0
  1  7  1  0
  2  7  1  0
  2 23  2  0
  3  8  1  0
  3 16  1  0
  3 18  1  0
  4  7  1  0
  4  9  1  0
  4 16  1  0
  5 12  1  0
  6  8  1  0
  8 11  1  0
  8 13  1  0
  9 19  1  0
  9 21  1  0
 10 15  1  0
 10 19  2  0
 10 22  1  0
 11 20  1  0
 12 23  1  0
 13 14  1  0
 14 20  1  0
 17 22  1  0
 18 20  1  0
 18 21  1  0
 21 24  1  0
 22 24  2  0
M  END
>  <ID>  (1) 
conformer_0

$$$$
