
     RDKit          3D

 28 28  0  0  0  0  0  0  0  0999 V2000
  -18.3790   12.7152  -32.4271 C   0  0  0  0  0  0  0  0  0  0  0  0
  -16.6046   16.6079  -25.9246 C   0  0  0  0  0  0  0  0  0  0  0  0
  -17.8895   17.3003  -25.6906 O   0  0  0  0  0  0  0  0  0  0  0  0
  -18.2640   13.9501  -31.5295 C   0  0  0  0  0  0  0  0  0  0  0  0
  -18.0269   17.4792  -24.2077 C   0  0  0  0  0  0  0  0  0  0  0  0
  -16.8571   14.4727  -29.2126 O   0  0  0  0  0  0  0  0  0  0  0  0
  -16.9904   14.9137  -33.3661 O   0  0  0  0  0  0  0  0  0  0  0  0
  -18.7860   17.5499  -26.8348 C   0  0  0  0  0  0  0  0  0  0  0  0
  -15.4193   14.7753  -29.0241 C   0  0  0  0  0  0  0  0  0  0  0  0
  -15.2499   15.3879  -27.6828 C   0  0  0  0  0  0  0  0  0  0  0  0
  -19.5755   12.7561  -33.3624 C   0  0  0  0  0  0  0  0  0  0  0  0
  -20.1041   18.5511  -28.8514 C   0  0  0  0  0  0  0  0  0  0  0  0
  -20.7043   16.8245  -30.5424 C   0  0  0  0  0  0  0  0  0  0  0  0
  -16.6600   15.8050  -27.1937 C   0  0  0  0  0  0  0  0  0  0  0  0
  -18.1140   17.6732  -28.0334 O   0  0  0  0  0  0  0  0  0  0  0  0
  -16.9935   14.7173  -31.9505 C   0  0  0  0  0  0  0  0  0  0  0  0
  -20.8198   12.5982  -32.6775 O   0  0  0  0  0  0  0  0  0  0  0  0
  -15.9872   15.6487  -31.3363 C   0  0  0  0  0  0  0  0  0  0  0  0
  -19.5256   14.8087  -31.6253 C   0  0  0  0  0  0  0  0  0  0  0  0
  -20.3342   18.2312  -30.3173 C   0  0  0  0  0  0  0  0  0  0  0  0
  -20.7210   17.4084  -28.1318 O   0  0  0  0  0  0  0  0  0  0  0  0
  -15.4057   16.7424  -32.1793 C   0  0  0  0  0  0  0  0  0  0  0  0
  -17.5844   14.9540  -28.0325 C   0  0  0  0  0  0  0  0  0  0  0  0
  -19.4210   17.3383  -28.2493 C   0  0  0  0  0  0  0  0  0  0  0  0
  -14.8725   15.1364  -30.4093 C   0  0  0  0  0  0  0  0  0  0  0  0
  -14.7601   17.6972  -31.1225 C   0  0  0  0  0  0  0  0  0  0  0  0
  -20.2199   15.1830  -32.6499 O   0  0  0  0  0  0  0  0  0  0  0  0
  -19.5838   15.8287  -30.4965 C   0  0  0  0  0  0  0  0  0  0  0  0
  1  4  1  0
  1 11  1  0
  2 14  1  0
  3  5  1  0
  3  8  1  0
  4 16  1  0
  4 19  1  0
  6  9  1  0
  6 23  1  0
  7 16  1  0
  8 15  1  0
  9 10  1  0
  9 25  1  0
 10 14  1  0
 11 17  1  0
 12 20  1  0
 12 24  1  0
 13 20  1  0
 13 28  1  0
 14 23  1  0
 15 24  1  0
 16 18  1  0
 18 22  1  0
 18 25  1  0
 19 27  1  0
 19 28  1  0
 21 24  1  0
 22 26  1  0
M  END
>  <ID>  (1) 
conformer_0

$$$$
