
     RDKit          3D

 23 27  0  0  0  0  0  0  0  0999 V2000
  -18.7840   16.9138  -26.3597 C   0  0  0  0  0  0  0  0  0  0  0  0
  -15.3750   17.7836  -25.5356 O   0  0  0  0  0  0  0  0  0  0  0  0
  -21.2045   16.0422  -30.7051 C   0  0  0  0  0  0  0  0  0  0  0  0
  -16.3530   14.2978  -27.5568 C   0  0  0  0  0  0  0  0  0  0  0  0
  -17.9897   17.6567  -24.2427 C   0  0  0  0  0  0  0  0  0  0  0  0
  -19.2973   17.8300  -23.8389 C   0  0  0  0  0  0  0  0  0  0  0  0
  -23.1048   16.7623  -29.3066 C   0  0  0  0  0  0  0  0  0  0  0  0
  -19.0733   15.5067  -29.6033 N   0  0  0  0  0  0  0  0  0  0  0  0
  -14.6850   16.1330  -27.5673 C   0  0  0  0  0  0  0  0  0  0  0  0
  -17.1748   15.6420  -27.9952 C   0  0  0  0  0  0  0  0  0  0  0  0
  -20.0746   17.1456  -25.9560 C   0  0  0  0  0  0  0  0  0  0  0  0
  -19.5403   16.1727  -28.4909 C   0  0  0  0  0  0  0  0  0  0  0  0
  -16.0973   16.6989  -27.5028 C   0  0  0  0  0  0  0  0  0  0  0  0
  -20.3600   17.5782  -24.6961 C   0  0  0  0  0  0  0  0  0  0  0  0
  -20.8674   16.7288  -28.4084 C   0  0  0  0  0  0  0  0  0  0  0  0
  -18.4788   16.2898  -27.6009 C   0  0  0  0  0  0  0  0  0  0  0  0
  -19.7371   15.7322  -30.8481 C   0  0  0  0  0  0  0  0  0  0  0  0
  -14.8273   14.6301  -27.4952 C   0  0  0  0  0  0  0  0  0  0  0  0
  -17.6879   17.2426  -25.5207 C   0  0  0  0  0  0  0  0  0  0  0  0
  -21.7823   16.0644  -29.3041 C   0  0  0  0  0  0  0  0  0  0  0  0
  -16.3413   17.1483  -26.0891 C   0  0  0  0  0  0  0  0  0  0  0  0
  -13.6196   16.9078  -27.2846 O   0  0  0  0  0  0  0  0  0  0  0  0
  -17.6956   15.1265  -29.3628 C   0  0  0  0  0  0  0  0  0  0  0  0
  1 11  1  0
  1 16  1  0
  1 19  2  0
  2 21  2  0
  3 17  1  0
  3 20  1  0
  4 10  1  0
  4 18  1  0
  5  6  2  0
  5 19  1  0
  6 14  1  0
  7 20  1  0
  8 12  1  0
  8 17  1  0
  8 23  1  0
  9 13  1  0
  9 18  1  0
  9 22  1  0
 10 13  1  0
 10 16  1  0
 10 23  1  0
 11 14  2  0
 12 15  1  0
 12 16  2  0
 13 21  1  0
 15 20  1  0
 19 21  1  0
M  END
>  <ID>  (1) 
conformer_0

$$$$
