
     RDKit          3D

 19 21  0  0  0  0  0  0  0  0999 V2000
  -16.8639   15.7617  -27.4547 C   0  0  0  0  0  0  0  0  0  0  0  0
  -15.9893   16.1514  -26.4345 C   0  0  0  0  0  0  0  0  0  0  0  0
  -19.0590   15.9994  -28.5876 C   0  0  0  0  0  0  0  0  0  0  0  0
  -19.6822   14.4084  -33.2473 C   0  0  0  0  0  0  0  0  0  0  0  0
  -19.0558   14.7420  -31.9083 C   0  0  0  0  0  0  0  0  0  0  0  0
  -20.9834   15.9706  -27.0942 C   0  0  0  0  0  0  0  0  0  0  0  0
  -17.6826   17.4901  -25.5636 C   0  0  0  0  0  0  0  0  0  0  0  0
  -17.8686   14.2583  -31.5100 N   0  0  0  0  0  0  0  0  0  0  0  0
  -19.6248   15.5065  -30.9265 O   0  0  0  0  0  0  0  0  0  0  0  0
  -17.6871   14.6698  -30.2226 C   0  0  0  0  0  0  0  0  0  0  0  0
  -18.5081   17.1509  -26.5487 N   0  0  0  0  0  0  0  0  0  0  0  0
  -16.2555   14.8644  -28.3132 C   0  0  0  0  0  0  0  0  0  0  0  0
  -23.0967   15.7194  -28.0904 C   0  0  0  0  0  0  0  0  0  0  0  0
  -16.5420   14.3972  -29.5055 C   0  0  0  0  0  0  0  0  0  0  0  0
  -22.3982   16.5950  -27.0631 C   0  0  0  0  0  0  0  0  0  0  0  0
  -18.1699   16.2898  -27.4997 C   0  0  0  0  0  0  0  0  0  0  0  0
  -18.7631   15.4222  -29.8197 C   0  0  0  0  0  0  0  0  0  0  0  0
  -20.4934   16.4532  -28.5006 C   0  0  0  0  0  0  0  0  0  0  0  0
  -16.3879   17.0117  -25.4833 C   0  0  0  0  0  0  0  0  0  0  0  0
  1  2  2  0
  1 12  1  0
  1 16  1  0
  2 19  1  0
  3 16  1  0
  3 17  1  0
  3 18  1  0
  4  5  1  0
  5  8  1  0
  5  9  1  0
  6 15  1  0
  6 18  1  0
  7 11  1  0
  7 19  2  0
  8 10  1  0
  9 17  1  0
 10 14  1  0
 10 17  2  0
 11 16  2  0
 12 14  2  0
 13 15  1  0
M  END
>  <ID>  (1) 
conformer_0

$$$$
