
     RDKit          3D

 31 35  0  0  0  0  0  0  0  0999 V2000
  -20.4865   16.2219  -29.6915 N   0  0  0  0  0  0  0  0  0  0  0  0
  -22.3937   15.4933  -29.5322 C   0  0  0  0  0  0  0  0  0  0  0  0
  -24.6815   14.5419  -27.7232 N   0  0  0  0  0  0  0  0  0  0  0  0
  -19.0119   18.0191  -26.1694 C   0  0  0  0  0  0  0  0  0  0  0  0
  -19.9865   17.7085  -32.3903 O   0  0  0  0  0  0  0  0  0  0  0  0
  -19.2679   16.4749  -30.4688 N   0  0  0  0  0  0  0  0  0  0  0  0
  -16.1612   13.2797  -27.2499 C   0  0  0  0  0  0  0  0  0  0  0  0
  -20.7645   17.2919  -24.6272 C   0  0  0  0  0  0  0  0  0  0  0  0
  -16.3446   15.8154  -30.9124 C   0  0  0  0  0  0  0  0  0  0  0  0
  -21.6236   16.0752  -30.5605 C   0  0  0  0  0  0  0  0  0  0  0  0
  -17.0679   15.9131  -29.5848 C   0  0  0  0  0  0  0  0  0  0  0  0
  -25.3822   13.8684  -28.8748 C   0  0  0  0  0  0  0  0  0  0  0  0
  -19.1855   16.9258  -31.8249 C   0  0  0  0  0  0  0  0  0  0  0  0
  -18.8270   17.0575  -28.3722 C   0  0  0  0  0  0  0  0  0  0  0  0
  -20.1383   17.2234  -25.9409 C   0  0  0  0  0  0  0  0  0  0  0  0
  -18.3583   17.9290  -27.4055 C   0  0  0  0  0  0  0  0  0  0  0  0
  -17.8651   16.7873  -32.5266 C   0  0  0  0  0  0  0  0  0  0  0  0
  -16.5470   15.2970  -28.4785 C   0  0  0  0  0  0  0  0  0  0  0  0
  -20.0869   16.5266  -28.2627 C   0  0  0  0  0  0  0  0  0  0  0  0
  -15.6880   15.9519  -27.6449 C   0  0  0  0  0  0  0  0  0  0  0  0
  -20.6664   16.4549  -26.9787 C   0  0  0  0  0  0  0  0  0  0  0  0
  -24.3584   14.1368  -29.9617 C   0  0  0  0  0  0  0  0  0  0  0  0
  -16.6438   17.1785  -31.5941 C   0  0  0  0  0  0  0  0  0  0  0  0
  -15.9297   18.2215  -30.5695 C   0  0  0  0  0  0  0  0  0  0  0  0
  -16.8431   13.9814  -28.2575 C   0  0  0  0  0  0  0  0  0  0  0  0
  -18.2607   16.6581  -29.5675 N   0  0  0  0  0  0  0  0  0  0  0  0
  -15.0012   15.2681  -26.6443 C   0  0  0  0  0  0  0  0  0  0  0  0
  -24.3403   15.8469  -28.2682 C   0  0  0  0  0  0  0  0  0  0  0  0
  -15.2137   13.9071  -26.5099 C   0  0  0  0  0  0  0  0  0  0  0  0
  -23.8220   15.5235  -29.6755 C   0  0  0  0  0  0  0  0  0  0  0  0
  -15.5231   17.2455  -32.7460 C   0  0  0  0  0  0  0  0  0  0  0  0
  1  6  1  0
  1 10  1  0
  1 19  1  0
  2 10  1  0
  2 30  1  0
  3 12  1  0
  3 28  1  0
  4 15  1  0
  4 16  2  0
  5 13  2  0
  6 13  1  0
  6 26  1  0
  7 25  1  0
  7 29  2  0
  8 15  1  0
  9 11  1  0
  9 23  1  0
 11 18  1  0
 11 26  1  0
 12 22  1  0
 13 17  1  0
 14 16  1  0
 14 19  1  0
 14 26  1  0
 15 21  2  0
 17 23  1  0
 18 20  2  0
 18 25  1  0
 19 21  1  0
 20 27  1  0
 22 30  1  0
 23 24  1  0
 23 31  1  0
 27 29  1  0
 28 30  1  0
M  END
>  <ID>  (1) 
conformer_0

$$$$
