
     RDKit          3D

 27 30  0  0  0  0  0  0  0  0999 V2000
  -20.5535   17.2740  -31.0283 C   0  0  0  0  0  0  0  0  0  0  0  0
  -21.2806   18.3899  -25.6583 O   0  0  0  0  0  0  0  0  0  0  0  0
  -19.4222   16.5393  -28.4348 C   0  0  0  0  0  0  0  0  0  0  0  0
  -18.3291   16.2065  -27.5098 C   0  0  0  0  0  0  0  0  0  0  0  0
  -14.6441   14.0546  -26.4917 C   0  0  0  0  0  0  0  0  0  0  0  0
  -15.7829   15.2475  -29.7524 C   0  0  0  0  0  0  0  0  0  0  0  0
  -18.1388   14.7736  -29.8316 C   0  0  0  0  0  0  0  0  0  0  0  0
  -20.3503   17.3836  -27.6091 N   0  0  0  0  0  0  0  0  0  0  0  0
  -14.4287   15.1615  -27.5137 C   0  0  0  0  0  0  0  0  0  0  0  0
  -22.7770   18.1857  -30.8730 C   0  0  0  0  0  0  0  0  0  0  0  0
  -21.4646   19.9131  -29.7445 O   0  0  0  0  0  0  0  0  0  0  0  0
  -19.9155   15.9816  -31.0678 C   0  0  0  0  0  0  0  0  0  0  0  0
  -20.2609   17.7301  -26.2696 C   0  0  0  0  0  0  0  0  0  0  0  0
  -20.9790   17.6309  -29.6885 C   0  0  0  0  0  0  0  0  0  0  0  0
  -22.6626   17.5459  -27.7886 O   0  0  0  0  0  0  0  0  0  0  0  0
  -19.0085   17.4731  -25.6128 C   0  0  0  0  0  0  0  0  0  0  0  0
  -19.1935   15.7859  -29.7685 C   0  0  0  0  0  0  0  0  0  0  0  0
  -21.9770   18.6465  -29.7096 C   0  0  0  0  0  0  0  0  0  0  0  0
  -17.0225   15.0447  -29.0516 N   0  0  0  0  0  0  0  0  0  0  0  0
  -14.6128   14.7330  -28.9330 C   0  0  0  0  0  0  0  0  0  0  0  0
  -21.5134   17.8952  -28.4242 C   0  0  0  0  0  0  0  0  0  0  0  0
  -14.2584   16.6502  -27.3666 C   0  0  0  0  0  0  0  0  0  0  0  0
  -18.1464   16.7679  -26.2899 C   0  0  0  0  0  0  0  0  0  0  0  0
  -21.1269   17.7227  -24.4179 C   0  0  0  0  0  0  0  0  0  0  0  0
  -21.6594   17.6756  -31.8439 C   0  0  0  0  0  0  0  0  0  0  0  0
  -17.3157   15.2336  -27.7836 C   0  0  0  0  0  0  0  0  0  0  0  0
  -20.2884   15.0540  -31.7958 O   0  0  0  0  0  0  0  0  0  0  0  0
  1 12  1  0
  1 14  1  0
  1 25  1  0
  2 13  1  0
  2 24  1  0
  3  4  2  0
  3  8  1  0
  3 17  1  0
  4 23  1  0
  4 26  1  0
  5  9  1  0
  6 19  1  0
  6 20  1  0
  7 17  1  0
  7 19  1  0
  8 13  1  0
  8 21  1  0
  9 20  1  0
  9 22  1  0
 10 18  1  0
 10 25  1  0
 11 18  1  0
 12 17  1  0
 12 27  2  0
 13 16  1  0
 14 18  1  0
 14 21  1  0
 15 21  1  0
 16 23  2  0
 19 26  1  0
M  END
>  <ID>  (1) 
conformer_0

$$$$
