
     RDKit          3D

 27 28  0  0  0  0  0  0  0  0999 V2000
  -17.3979   16.8993  -26.4129 C   0  0  0  0  0  0  0  0  0  0  0  0
  -21.8263   17.0812  -29.6914 C   0  0  0  0  0  0  0  0  0  0  0  0
  -17.7307   16.2248  -27.6226 N   0  0  0  0  0  0  0  0  0  0  0  0
  -18.5971   14.7528  -33.1242 C   0  0  0  0  0  0  0  0  0  0  0  0
  -18.5138   17.8225  -25.9514 C   0  0  0  0  0  0  0  0  0  0  0  0
  -16.8660   15.3754  -28.3856 C   0  0  0  0  0  0  0  0  0  0  0  0
  -19.3733   15.9082  -30.7389 C   0  0  0  0  0  0  0  0  0  0  0  0
  -18.6963   16.2782  -33.0483 C   0  0  0  0  0  0  0  0  0  0  0  0
  -22.4575   16.0437  -27.3951 C   0  0  0  0  0  0  0  0  0  0  0  0
  -17.9408   17.9366  -31.4453 O   0  0  0  0  0  0  0  0  0  0  0  0
  -15.2456   13.5458  -27.8227 C   0  0  0  0  0  0  0  0  0  0  0  0
  -23.7356   17.4358  -31.1417 O   0  0  0  0  0  0  0  0  0  0  0  0
  -14.6107   14.1739  -26.5845 C   0  0  0  0  0  0  0  0  0  0  0  0
  -18.5402   16.7473  -31.6198 C   0  0  0  0  0  0  0  0  0  0  0  0
  -23.9969   15.8777  -29.3344 C   0  0  0  0  0  0  0  0  0  0  0  0
  -19.8031   16.9605  -25.9086 C   0  0  0  0  0  0  0  0  0  0  0  0
  -19.5286   17.1509  -33.7885 O   0  0  0  0  0  0  0  0  0  0  0  0
  -20.2203   16.8694  -27.3790 C   0  0  0  0  0  0  0  0  0  0  0  0
  -23.1982   16.8434  -30.1353 C   0  0  0  0  0  0  0  0  0  0  0  0
  -19.0454   16.2623  -28.0641 C   0  0  0  0  0  0  0  0  0  0  0  0
  -16.7013   14.0149  -27.7185 C   0  0  0  0  0  0  0  0  0  0  0  0
  -21.4264   16.6198  -28.2810 C   0  0  0  0  0  0  0  0  0  0  0  0
  -21.1033   18.0019  -30.6315 C   0  0  0  0  0  0  0  0  0  0  0  0
  -17.3325   14.5115  -33.9958 C   0  0  0  0  0  0  0  0  0  0  0  0
  -18.6963   19.0375  -26.9122 C   0  0  0  0  0  0  0  0  0  0  0  0
  -23.8286   16.2922  -27.8707 C   0  0  0  0  0  0  0  0  0  0  0  0
  -19.2674   15.5882  -29.3114 C   0  0  0  0  0  0  0  0  0  0  0  0
  1  3  1  0
  1  5  1  0
  2 19  1  0
  2 22  2  0
  2 23  1  0
  3  6  1  0
  3 20  1  0
  4  8  1  0
  4 24  1  0
  5 16  1  0
  5 25  1  0
  6 21  1  0
  7 14  1  0
  7 27  1  0
  8 14  1  0
  8 17  1  0
  9 22  1  0
  9 26  1  0
 10 14  1  0
 11 13  1  0
 11 21  1  0
 12 19  1  0
 15 19  1  0
 15 26  1  0
 16 18  1  0
 18 20  1  0
 18 22  1  0
 20 27  1  0
M  END
>  <ID>  (1) 
conformer_0

$$$$
