
     RDKit          3D

 31 33  0  0  0  0  0  0  0  0999 V2000
  -17.4711   17.5194  -31.5405 C   0  0  0  0  0  0  0  0  0  0  0  0
  -20.5173   17.3838  -27.3015 N   0  0  0  0  0  0  0  0  0  0  0  0
  -19.5225   16.4830  -30.8511 C   0  0  0  0  0  0  0  0  0  0  0  0
  -17.6650   15.2763  -27.6370 C   0  0  0  0  0  0  0  0  0  0  0  0
  -18.8247   15.8693  -27.7336 C   0  0  0  0  0  0  0  0  0  0  0  0
  -22.2472   18.8987  -28.9058 C   0  0  0  0  0  0  0  0  0  0  0  0
  -19.9538   17.8252  -24.7733 C   0  0  0  0  0  0  0  0  0  0  0  0
  -22.5576   20.4341  -27.1151 C   0  0  0  0  0  0  0  0  0  0  0  0
  -19.1059   17.0272  -25.5261 C   0  0  0  0  0  0  0  0  0  0  0  0
  -15.1612   16.2192  -27.2283 C   0  0  0  0  0  0  0  0  0  0  0  0
  -14.5095   17.4283  -27.0668 C   0  0  0  0  0  0  0  0  0  0  0  0
  -20.0369   16.5622  -32.1124 C   0  0  0  0  0  0  0  0  0  0  0  0
  -21.2963   18.2753  -26.6925 C   0  0  0  0  0  0  0  0  0  0  0  0
  -17.9504   17.6183  -32.8232 C   0  0  0  0  0  0  0  0  0  0  0  0
  -19.2262   17.1571  -33.1261 C   0  0  0  0  0  0  0  0  0  0  0  0
  -15.1211   19.1522  -28.7967 N   0  0  0  0  0  0  0  0  0  0  0  0
  -21.0807   18.4318  -25.3537 N   0  0  0  0  0  0  0  0  0  0  0  0
  -15.5515   20.4980  -28.6788 C   0  0  0  0  0  0  0  0  0  0  0  0
  -21.7329   15.7969  -29.9074 C   0  0  0  0  0  0  0  0  0  0  0  0
  -17.0289   14.2019  -27.7554 C   0  0  0  0  0  0  0  0  0  0  0  0
  -15.7169   13.8507  -27.5117 O   0  0  0  0  0  0  0  0  0  0  0  0
  -22.1662   19.0630  -27.4772 N   0  0  0  0  0  0  0  0  0  0  0  0
  -15.4538   19.5857  -26.6400 N   0  0  0  0  0  0  0  0  0  0  0  0
  -15.7636   20.7664  -27.3853 N   0  0  0  0  0  0  0  0  0  0  0  0
  -20.3239   15.9025  -29.7314 C   0  0  0  0  0  0  0  0  0  0  0  0
  -19.4939   16.7776  -26.8093 C   0  0  0  0  0  0  0  0  0  0  0  0
  -19.6281   15.4258  -28.7431 N   0  0  0  0  0  0  0  0  0  0  0  0
  -14.8667   14.9405  -27.2450 C   0  0  0  0  0  0  0  0  0  0  0  0
  -16.1969   18.0092  -31.2318 N   0  0  0  0  0  0  0  0  0  0  0  0
  -18.2416   16.9489  -30.5744 C   0  0  0  0  0  0  0  0  0  0  0  0
  -15.0140   18.6721  -27.5185 C   0  0  0  0  0  0  0  0  0  0  0  0
  1 14  2  0
  1 29  1  0
  1 30  1  0
  2 13  2  0
  2 26  1  0
  3 12  1  0
  3 25  1  0
  3 30  2  0
  4  5  1  0
  4 20  2  3
  5 26  1  0
  5 27  1  0
  6 22  1  0
  7  9  1  0
  7 17  2  0
  8 22  1  0
  9 26  2  0
 10 11  1  0
 10 28  2  3
 11 31  1  0
 12 15  2  0
 13 17  1  0
 13 22  1  0
 14 15  1  0
 16 18  1  0
 16 31  2  0
 18 24  1  0
 19 25  1  0
 20 21  1  0
 21 28  1  0
 23 24  1  0
 23 31  1  0
 25 27  1  0
M  END
>  <ID>  (1) 
conformer_0

$$$$
