
     RDKit          3D

 18 19  0  0  0  0  0  0  0  0999 V2000
  -19.5395   15.7239  -29.8479 C   0  0  0  0  0  0  0  0  0  0  0  0
  -20.4042   16.6528  -27.1896 C   0  0  0  0  0  0  0  0  0  0  0  0
  -20.3320   15.9313  -30.9008 C   0  0  0  0  0  0  0  0  0  0  0  0
  -17.5344   16.1353  -28.5912 N   0  0  0  0  0  0  0  0  0  0  0  0
  -20.9749   17.1718  -26.0738 C   0  0  0  0  0  0  0  0  0  0  0  0
  -19.0079   16.5558  -27.2512 C   0  0  0  0  0  0  0  0  0  0  0  0
  -17.8245   17.1453  -30.7388 C   0  0  0  0  0  0  0  0  0  0  0  0
  -18.6324   17.3869  -31.8586 C   0  0  0  0  0  0  0  0  0  0  0  0
  -16.1467   14.5693  -27.4014 O   0  0  0  0  0  1  0  0  0  0  0  0
  -16.6784   16.8534  -26.3228 C   0  0  0  0  0  0  0  0  0  0  0  0
  -15.1633   16.4771  -28.4004 O   0  0  0  0  0  1  0  0  0  0  0  0
  -21.2922   16.2714  -28.1790 N   0  0  0  0  0  0  0  0  0  0  0  0
  -18.8017   17.4906  -25.0849 C   0  0  0  0  0  0  0  0  0  0  0  0
  -18.1985   16.9566  -26.2388 C   0  0  0  0  0  0  0  0  0  0  0  0
  -20.1772   17.6004  -24.9993 C   0  0  0  0  0  0  0  0  0  0  0  0
  -18.3099   16.3277  -29.6988 C   0  0  0  0  0  0  0  0  0  0  0  0
  -16.2620   15.9334  -27.7718 S   0  0  0  0  0  4  0  0  0  0  0  0
  -19.8871   16.7753  -31.9259 C   0  0  0  0  0  0  0  0  0  0  0  0
  1  3  2  0
  1 16  1  0
  2  5  2  0
  2  6  1  0
  2 12  1  0
  3 18  1  0
  4 16  1  0
  4 17  1  0
  5 15  1  0
  6 14  2  0
  7  8  1  0
  7 16  2  0
  8 18  2  0
  9 17  1  0
 10 14  1  0
 10 17  1  0
 11 17  1  0
 13 14  1  0
 13 15  2  0
M  END
>  <ID>  (1) 
conformer_0

$$$$
