
     RDKit          3D

 27 29  0  0  0  0  0  0  0  0999 V2000
  -18.9923   19.5893  -28.3417 O   0  0  0  0  0  0  0  0  0  0  0  0
  -19.9809   16.5412  -28.3755 C   0  0  0  0  0  0  0  0  0  0  0  0
  -15.7504   12.9879  -26.9640 C   0  0  0  0  0  0  0  0  0  0  0  0
  -18.0018   14.9142  -31.9799 O   0  0  0  0  0  0  0  0  0  0  0  0
  -14.2887   14.9256  -26.7785 C   0  0  0  0  0  0  0  0  0  0  0  0
  -17.9484   16.9634  -29.4704 C   0  0  0  0  0  0  0  0  0  0  0  0
  -22.7631   15.1367  -26.6160 F   0  0  0  0  0  0  0  0  0  0  0  0
  -19.1696   17.1836  -31.7689 C   0  0  0  0  0  0  0  0  0  0  0  0
  -18.5553   18.5059  -27.7348 C   0  0  0  0  0  0  0  0  0  0  0  0
  -17.0390   16.5565  -30.5018 N   0  0  0  0  0  0  0  0  0  0  0  0
  -15.6743   15.5442  -28.7348 C   0  0  0  0  0  0  0  0  0  0  0  0
  -21.1242   16.5720  -25.8773 C   0  0  0  0  0  0  0  0  0  0  0  0
  -15.7407   16.4416  -29.8708 C   0  0  0  0  0  0  0  0  0  0  0  0
  -17.8738   16.3849  -31.7659 C   0  0  0  0  0  0  0  0  0  0  0  0
  -20.4410   16.6850  -31.6119 O   0  0  0  0  0  0  0  0  0  0  0  0
  -16.5074   14.4718  -28.7222 C   0  0  0  0  0  0  0  0  0  0  0  0
  -16.5699   13.3857  -27.9857 C   0  0  0  0  0  0  0  0  0  0  0  0
  -14.7266   13.6790  -26.4374 C   0  0  0  0  0  0  0  0  0  0  0  0
  -14.7025   15.7425  -27.7595 C   0  0  0  0  0  0  0  0  0  0  0  0
  -21.6837   15.8003  -26.9000 C   0  0  0  0  0  0  0  0  0  0  0  0
  -19.1510   18.5841  -32.2549 C   0  0  0  0  0  0  0  0  0  0  0  0
  -19.5589   17.4789  -27.4241 C   0  0  0  0  0  0  0  0  0  0  0  0
  -14.7848   17.0327  -30.3783 O   0  0  0  0  0  0  0  0  0  0  0  0
  -21.1169   15.7958  -28.1619 C   0  0  0  0  0  0  0  0  0  0  0  0
  -20.0530   17.3934  -26.1430 C   0  0  0  0  0  0  0  0  0  0  0  0
  -19.1128   16.3012  -29.4217 O   0  0  0  0  0  0  0  0  0  0  0  0
  -17.3677   17.8864  -28.4414 C   0  0  0  0  0  0  0  0  0  0  0  0
  1  9  1  0
  2 22  1  0
  2 24  1  0
  2 26  1  0
  3 17  1  0
  3 18  2  0
  4 14  1  0
  5 18  1  0
  5 19  2  0
  6 10  1  0
  6 26  1  0
  6 27  1  0
  7 20  1  0
  8 14  1  0
  8 15  1  0
  8 21  1  0
  9 22  1  0
  9 27  1  0
 10 13  1  0
 10 14  1  0
 11 13  1  0
 11 16  1  0
 11 19  1  0
 12 20  1  0
 12 25  2  0
 13 23  2  0
 16 17  2  0
 20 24  2  0
 22 25  1  0
M  END
>  <ID>  (1) 
conformer_0

$$$$
