
     RDKit          3D

 27 29  0  0  0  0  0  0  0  0999 V2000
  -14.5546   13.7601  -26.6801 C   0  0  0  0  0  0  0  0  0  0  0  0
  -13.8937   16.5701  -27.2245 C   0  0  0  0  0  0  0  0  0  0  0  0
  -20.1324   15.0200  -32.4714 O   0  0  0  0  0  0  0  0  0  0  0  0
  -19.4656   17.5637  -26.2396 C   0  0  0  0  0  0  0  0  0  0  0  0
  -22.5296   16.4937  -30.0588 C   0  0  0  0  0  0  0  0  0  0  0  0
  -19.4446   16.0025  -32.0216 C   0  0  0  0  0  0  0  0  0  0  0  0
  -17.3885   16.8639  -31.0428 C   0  0  0  0  0  0  0  0  0  0  0  0
  -15.2953   17.8149  -30.2612 C   0  0  0  0  0  0  0  0  0  0  0  0
  -20.6060   16.7446  -28.4376 C   0  0  0  0  0  0  0  0  0  0  0  0
  -16.0295   18.0259  -28.9634 C   0  0  0  0  0  0  0  0  0  0  0  0
  -21.6516   16.4729  -26.4028 C   0  0  0  0  0  0  0  0  0  0  0  0
  -15.5746   14.6955  -27.2299 C   0  0  0  0  0  0  0  0  0  0  0  0
  -24.7920   15.5433  -27.9102 C   0  0  0  0  0  0  0  0  0  0  0  0
  -20.4524   16.8880  -27.0576 C   0  0  0  0  0  0  0  0  0  0  0  0
  -15.9526   16.8082  -31.1047 N   0  0  0  0  0  0  0  0  0  0  0  0
  -17.5211   16.5622  -27.4443 C   0  0  0  0  0  0  0  0  0  0  0  0
  -17.9651   15.7701  -31.8994 C   0  0  0  0  0  0  0  0  0  0  0  0
  -20.2159   16.8914  -31.1455 C   0  0  0  0  0  0  0  0  0  0  0  0
  -21.6077   16.3793  -31.1424 N   0  0  0  0  0  0  0  0  0  0  0  0
  -16.9126   14.2409  -27.3397 C   0  0  0  0  0  0  0  0  0  0  0  0
  -15.2653   16.0169  -27.5355 C   0  0  0  0  0  0  0  0  0  0  0  0
  -23.8663   16.4192  -27.3018 O   0  0  0  0  0  0  0  0  0  0  0  0
  -22.5905   16.3687  -27.4730 C   0  0  0  0  0  0  0  0  0  0  0  0
  -21.9010   16.4979  -28.7541 C   0  0  0  0  0  0  0  0  0  0  0  0
  -16.2648   16.8910  -27.9934 C   0  0  0  0  0  0  0  0  0  0  0  0
  -18.1499   17.6609  -26.6743 C   0  0  0  0  0  0  0  0  0  0  0  0
  -17.8918   15.2028  -27.4512 C   0  0  0  0  0  0  0  0  0  0  0  0
  1 12  1  0
  2 21  1  0
  3  6  2  0
  4 14  1  0
  4 26  1  0
  5 19  1  0
  5 24  1  0
  6 17  1  0
  6 18  1  0
  7 15  1  0
  7 17  1  0
  8 10  1  0
  8 15  1  0
  9 14  1  0
  9 24  1  0
 10 25  1  0
 11 14  1  0
 11 23  1  0
 12 20  1  0
 12 21  2  0
 13 22  1  0
 16 25  1  0
 16 26  1  0
 16 27  1  0
 18 19  1  0
 20 27  2  0
 21 25  1  0
 22 23  1  0
 23 24  2  0
M  END
>  <ID>  (1) 
conformer_0

$$$$
