
     RDKit          3D

 19 20  0  0  0  0  0  0  0  0999 V2000
  -19.7934   17.5295  -25.9049 C   0  0  0  0  0  0  0  0  0  0  0  0
  -16.0275   13.4422  -27.5531 C   0  0  0  0  0  0  0  0  0  0  0  0
  -14.8680   14.0102  -27.1596 C   0  0  0  0  0  0  0  0  0  0  0  0
  -17.5122   17.8187  -25.8491 O   0  0  0  0  0  0  0  0  0  0  0  0
  -20.9108   17.0349  -26.5098 C   0  0  0  0  0  0  0  0  0  0  0  0
  -22.0482   15.8290  -28.2475 C   0  0  0  0  0  0  0  0  0  0  0  0
  -24.8754   16.2271  -30.5689 C   0  0  0  0  0  0  0  0  0  0  0  0
  -16.0037   15.9726  -26.6819 C   0  0  0  0  0  0  0  0  0  0  0  0
  -22.2070   16.0609  -29.5619 N   0  0  0  0  0  0  0  0  0  0  0  0
  -18.4863   16.0337  -27.1224 N   0  0  0  0  0  0  0  0  0  0  0  0
  -22.9598   15.3994  -27.5075 O   0  0  0  0  0  0  0  0  0  0  0  0
  -17.2092   15.4168  -27.1171 C   0  0  0  0  0  0  0  0  0  0  0  0
  -14.8658   15.3023  -26.7220 C   0  0  0  0  0  0  0  0  0  0  0  0
  -19.5652   15.6398  -27.8359 N   0  0  0  0  0  0  0  0  0  0  0  0
  -17.1866   14.1331  -27.5697 C   0  0  0  0  0  0  0  0  0  0  0  0
  -18.5611   17.1477  -26.2721 C   0  0  0  0  0  0  0  0  0  0  0  0
  -21.2512   16.3842  -30.5941 C   0  0  0  0  0  0  0  0  0  0  0  0
  -23.4781   15.9859  -30.2111 C   0  0  0  0  0  0  0  0  0  0  0  0
  -20.7944   16.1528  -27.5605 C   0  0  0  0  0  0  0  0  0  0  0  0
  1  5  2  0
  1 16  1  0
  2  3  1  0
  2 15  2  0
  3 13  1  0
  4 16  2  0
  5 19  1  0
  6  9  1  0
  6 11  2  0
  6 19  1  0
  7 18  1  0
  8 12  1  0
  8 13  2  0
  9 17  1  0
  9 18  1  0
 10 12  1  0
 10 14  1  0
 10 16  1  0
 12 15  1  0
 14 19  2  0
M  END
>  <ID>  (1) 
conformer_0

$$$$
