
     RDKit          3D

 18 19  0  0  0  0  0  0  0  0999 V2000
  -18.1436   16.1913  -29.4345 C   0  0  0  0  0  0  0  0  0  0  0  0
  -14.6803   15.1868  -27.3328 C   0  0  0  0  0  0  0  0  0  0  0  0
  -21.3634   16.4855  -29.9679 C   0  0  0  0  0  0  0  0  0  0  0  0
  -16.9806   14.9198  -27.7945 C   0  0  0  0  0  0  0  0  0  0  0  0
  -20.5335   16.0285  -28.8537 C   0  0  0  0  0  0  0  0  0  0  0  0
  -20.6314   17.3548  -30.8881 C   0  0  0  0  0  0  0  0  0  0  0  0
  -18.1379   17.0092  -30.5937 C   0  0  0  0  0  0  0  0  0  0  0  0
  -16.9806   17.3047  -31.2869 O   0  0  0  0  0  0  0  0  0  0  0  0
  -22.8065   15.6644  -27.6318 C   0  0  0  0  0  0  0  0  0  0  0  0
  -14.5524   16.1047  -28.3734 C   0  0  0  0  0  0  0  0  0  0  0  0
  -19.2481   15.8170  -28.9346 N   0  0  0  0  0  0  0  0  0  0  0  0
  -22.5694   16.1958  -30.2803 O   0  0  0  0  0  0  0  0  0  0  0  0
  -15.9011   14.6042  -27.0666 C   0  0  0  0  0  0  0  0  0  0  0  0
  -21.4508   18.1584  -31.7166 O   0  0  0  0  0  0  0  0  0  0  0  0
  -16.8899   15.8516  -28.8254 C   0  0  0  0  0  0  0  0  0  0  0  0
  -19.2955   17.4851  -31.0630 C   0  0  0  0  0  0  0  0  0  0  0  0
  -15.6582   16.4080  -29.1201 C   0  0  0  0  0  0  0  0  0  0  0  0
  -21.2526   15.8272  -27.4935 C   0  0  0  0  0  0  0  0  0  0  0  0
  1  7  2  0
  1 11  1  0
  1 15  1  0
  2 10  1  0
  2 13  1  0
  3  5  1  0
  3  6  1  0
  3 12  2  0
  4 13  2  0
  4 15  1  0
  5 11  1  0
  5 18  1  0
  6 14  1  0
  6 16  2  0
  7  8  1  0
  7 16  1  0
  9 18  1  0
 10 17  2  0
 15 17  1  0
M  END
>  <ID>  (1) 
conformer_0

$$$$
