
     RDKit          3D

 20 22  0  0  0  0  0  0  0  0999 V2000
  -16.4469   15.6716  -26.7132 C   0  0  0  0  0  0  0  0  0  0  0  0
  -21.1917   16.4016  -27.6813 C   0  0  0  0  0  0  0  0  0  0  0  0
  -18.8057   15.3669  -30.4794 C   0  0  0  0  0  0  0  0  0  0  0  0
  -20.4540   17.4708  -25.6659 C   0  0  0  0  0  0  0  0  0  0  0  0
  -20.6593   16.7619  -30.3875 C   0  0  0  0  0  0  0  0  0  0  0  0
  -18.1891   17.7034  -25.2155 C   0  0  0  0  0  0  0  0  0  0  0  0
  -19.1253   17.1172  -26.0044 C   0  0  0  0  0  0  0  0  0  0  0  0
  -19.9309   16.1720  -28.0798 C   0  0  0  0  0  0  0  0  0  0  0  0
  -15.3416   14.6030  -26.9969 C   0  0  0  0  0  0  0  0  0  0  0  0
  -16.8517   17.5587  -25.2288 C   0  0  0  0  0  0  0  0  0  0  0  0
  -17.6978   15.5540  -27.3843 C   0  0  0  0  0  0  0  0  0  0  0  0
  -21.2649   15.7132  -31.3362 C   0  0  0  0  0  0  0  0  0  0  0  0
  -16.0968   16.6558  -25.8638 C   0  0  0  0  0  0  0  0  0  0  0  0
  -21.5024   17.0360  -26.4963 C   0  0  0  0  0  0  0  0  0  0  0  0
  -19.7407   15.9443  -29.5071 N   0  0  0  0  0  0  0  0  0  0  0  0
  -18.9500   15.7841  -31.9243 C   0  0  0  0  0  0  0  0  0  0  0  0
  -18.8848   16.3062  -27.1163 C   0  0  0  0  0  0  0  0  0  0  0  0
  -20.7101   18.1832  -24.6313 O   0  0  0  0  0  0  0  0  0  0  0  0
  -17.7052   14.6112  -28.2652 N   0  0  0  0  0  0  0  0  0  0  0  0
  -20.2807   15.2313  -32.3523 C   0  0  0  0  0  0  0  0  0  0  0  0
  1  9  1  0
  1 11  1  0
  1 13  1  0
  2  8  1  0
  2 14  2  0
  3 15  1  0
  3 16  1  0
  4  7  1  0
  4 14  1  0
  4 18  2  0
  5 12  1  0
  5 15  1  0
  6  7  2  0
  6 10  1  0
  7 17  1  0
  8 15  1  0
  8 17  1  0
 10 13  2  0
 11 17  1  0
 11 19  2  0
 12 20  1  0
 16 20  1  0
M  END
>  <ID>  (1) 
conformer_0

$$$$
