
     RDKit          3D

 32 35  0  0  0  0  0  0  0  0999 V2000
  -18.8436   15.9913  -32.8035 C   0  0  0  0  0  0  0  0  0  0  0  0
  -16.1152   17.0579  -32.2208 C   0  0  0  0  0  0  0  0  0  0  0  0
  -17.6171   15.5237  -28.3052 C   0  0  0  0  0  0  0  0  0  0  0  0
  -20.7132   19.3515  -32.4861 C   0  0  0  0  0  0  0  0  0  0  0  0
  -17.6874   15.1867  -29.6290 N   0  0  0  0  0  0  0  0  0  0  0  0
  -19.1874   13.5358  -33.1755 C   0  0  0  0  0  0  0  0  0  0  0  0
  -19.3560   17.3423  -32.2129 C   0  0  0  0  0  0  0  0  0  0  0  0
  -19.4607   17.3805  -30.8227 O   0  0  0  0  0  0  0  0  0  0  0  0
  -23.0747   14.9560  -27.5315 O   0  0  0  0  0  0  0  0  0  0  0  0
  -18.9503   18.9769  -34.0202 O   0  0  0  0  0  0  0  0  0  0  0  0
  -16.5196   15.2465  -30.3907 C   0  0  0  0  0  0  0  0  0  0  0  0
  -23.5348   16.0689  -29.6325 C   0  0  0  0  0  0  0  0  0  0  0  0
  -24.7020   15.6848  -30.1880 O   0  0  0  0  0  0  0  0  0  0  0  0
  -19.5924   18.5502  -32.9721 C   0  0  0  0  0  0  0  0  0  0  0  0
  -18.7399   15.9729  -27.5638 C   0  0  0  0  0  0  0  0  0  0  0  0
  -22.6892   15.6269  -28.5383 C   0  0  0  0  0  0  0  0  0  0  0  0
  -16.1065   16.1376  -26.5315 C   0  0  0  0  0  0  0  0  0  0  0  0
  -22.8387   17.1443  -30.1807 C   0  0  0  0  0  0  0  0  0  0  0  0
  -16.7717   14.5802  -32.7129 C   0  0  0  0  0  0  0  0  0  0  0  0
  -25.1010   14.3637  -30.3856 C   0  0  0  0  0  0  0  0  0  0  0  0
  -16.1862   15.6249  -31.7748 C   0  0  0  0  0  0  0  0  0  0  0  0
  -20.5509   18.1040  -30.2384 C   0  0  0  0  0  0  0  0  0  0  0  0
  -17.1940   16.7209  -25.8939 C   0  0  0  0  0  0  0  0  0  0  0  0
  -18.4804   16.6376  -26.3644 C   0  0  0  0  0  0  0  0  0  0  0  0
  -21.4670   16.1902  -28.5992 N   0  0  0  0  0  0  0  0  0  0  0  0
  -18.2495   16.2451  -34.2517 C   0  0  0  0  0  0  0  0  0  0  0  0
  -21.5849   17.2010  -29.6711 C   0  0  0  0  0  0  0  0  0  0  0  0
  -18.3377   14.5729  -32.3373 C   0  0  0  0  0  0  0  0  0  0  0  0
  -20.1541   15.8580  -27.9529 C   0  0  0  0  0  0  0  0  0  0  0  0
  -15.2220   14.8870  -28.2908 O   0  0  0  0  0  0  0  0  0  0  0  0
  -16.3154   15.5193  -27.7415 C   0  0  0  0  0  0  0  0  0  0  0  0
  -21.0664   19.1245  -31.1018 C   0  0  0  0  0  0  0  0  0  0  0  0
  1  7  1  0
  1 26  1  0
  1 28  1  0
  2 21  1  0
  3  5  1  0
  3 15  1  0
  3 31  1  0
  4 14  1  0
  4 32  1  0
  5 11  1  0
  6 28  1  0
  7  8  1  0
  7 14  1  0
  8 22  1  0
  9 16  2  0
 10 14  1  0
 11 21  1  0
 12 13  1  0
 12 16  1  0
 12 18  1  0
 13 20  1  0
 15 24  1  0
 15 29  1  0
 16 25  1  0
 17 23  1  0
 17 31  2  0
 18 27  1  0
 19 21  1  0
 19 28  1  0
 22 27  1  0
 22 32  1  0
 23 24  2  0
 25 27  1  0
 25 29  1  0
 30 31  1  0
M  END
>  <ID>  (1) 
conformer_0

$$$$
