
     RDKit          3D

 19 21  0  0  0  0  0  0  0  0999 V2000
  -18.7759   15.1638  -32.4366 C   0  0  0  0  0  0  0  0  0  0  0  0
  -15.8344   16.4787  -26.6491 C   0  0  0  0  0  0  0  0  0  0  0  0
  -18.8813   15.7914  -28.3419 N   0  0  0  0  0  0  0  0  0  0  0  0
  -20.1456   15.9743  -28.3149 C   0  0  0  0  0  0  0  0  0  0  0  0
  -20.1910   16.0878  -30.7831 C   0  0  0  0  0  0  0  0  0  0  0  0
  -15.2687   15.1935  -26.7140 C   0  0  0  0  0  0  0  0  0  0  0  0
  -19.9572   17.2460  -32.8413 C   0  0  0  0  0  0  0  0  0  0  0  0
  -17.2487   14.3103  -27.6724 C   0  0  0  0  0  0  0  0  0  0  0  0
  -20.9684   16.0981  -27.2825 N   0  0  0  0  0  0  0  0  0  0  0  0
  -17.7750   15.5838  -27.6477 C   0  0  0  0  0  0  0  0  0  0  0  0
  -20.8683   15.9787  -29.5230 C   0  0  0  0  0  0  0  0  0  0  0  0
  -20.4735   17.1625  -31.5812 C   0  0  0  0  0  0  0  0  0  0  0  0
  -19.2762   15.1351  -31.1671 C   0  0  0  0  0  0  0  0  0  0  0  0
  -22.2018   15.8936  -29.1341 C   0  0  0  0  0  0  0  0  0  0  0  0
  -19.1244   16.2178  -33.2857 C   0  0  0  0  0  0  0  0  0  0  0  0
  -22.2698   16.0289  -27.7979 C   0  0  0  0  0  0  0  0  0  0  0  0
  -23.2318   15.5612  -30.0281 Cl  0  0  0  0  0  0  0  0  0  0  0  0
  -15.9810   14.1192  -27.2179 C   0  0  0  0  0  0  0  0  0  0  0  0
  -17.1249   16.6567  -27.1140 C   0  0  0  0  0  0  0  0  0  0  0  0
  1 13  2  0
  1 15  1  0
  2  6  2  0
  2 19  1  0
  3  4  2  3
  3 10  1  0
  4  9  1  0
  4 11  1  0
  5 11  1  0
  5 12  1  0
  5 13  1  0
  6 18  1  0
  7 12  2  0
  7 15  1  0
  8 10  1  0
  8 18  2  0
  9 16  1  0
 10 19  2  0
 11 14  1  0
 14 16  1  0
 14 17  1  0
M  END
>  <ID>  (1) 
conformer_0

$$$$
