
     RDKit          3D

 23 28  0  0  0  0  0  0  0  0999 V2000
  -22.4969   16.5766  -30.4178 C   0  0  0  0  0  0  0  0  0  0  0  0
  -16.2373   15.9767  -29.7076 C   0  0  0  0  0  0  0  0  0  0  0  0
  -14.7251   15.9972  -29.7174 O   0  0  0  0  0  0  0  0  0  0  0  0
  -21.1139   17.2108  -27.2363 C   0  0  0  0  0  0  0  0  0  0  0  0
  -23.3588   18.1147  -29.0057 O   0  0  0  0  0  0  0  0  0  0  0  0
  -16.6156   14.4293  -27.6966 C   0  0  0  0  0  0  0  0  0  0  0  0
  -17.8419   16.4101  -28.3557 C   0  0  0  0  0  0  0  0  0  0  0  0
  -15.3446   16.7401  -27.5184 C   0  0  0  0  0  0  0  0  0  0  0  0
  -21.0439   18.3107  -26.1594 C   0  0  0  0  0  0  0  0  0  0  0  0
  -19.1410   16.8269  -30.3171 C   0  0  0  0  0  0  0  0  0  0  0  0
  -15.2439   14.3333  -27.8572 C   0  0  0  0  0  0  0  0  0  0  0  0
  -19.8641   17.0409  -28.0634 C   0  0  0  0  0  0  0  0  0  0  0  0
  -18.6385   17.4391  -27.7466 C   0  0  0  0  0  0  0  0  0  0  0  0
  -16.4443   16.8581  -28.4725 C   0  0  0  0  0  0  0  0  0  0  0  0
  -20.2033   16.6429  -29.3991 C   0  0  0  0  0  0  0  0  0  0  0  0
  -21.4776   17.2470  -29.6504 C   0  0  0  0  0  0  0  0  0  0  0  0
  -17.8632   16.2744  -29.8812 C   0  0  0  0  0  0  0  0  0  0  0  0
  -21.1338   15.7975  -26.4166 C   0  0  0  0  0  0  0  0  0  0  0  0
  -18.0199   14.9569  -27.8505 C   0  0  0  0  0  0  0  0  0  0  0  0
  -23.7580   17.2291  -30.0528 C   0  0  0  0  0  0  0  0  0  0  0  0
  -15.7824   15.4043  -26.9512 C   0  0  0  0  0  0  0  0  0  0  0  0
  -22.2056   17.5860  -28.3292 C   0  0  0  0  0  0  0  0  0  0  0  0
  -14.0883   16.4690  -28.4327 C   0  0  0  0  0  0  0  0  0  0  0  0
  1 16  1  0
  1 20  1  0
  2  3  1  0
  2 14  1  0
  2 17  1  0
  3 23  1  0
  4  9  1  0
  4 12  1  0
  4 18  1  0
  4 22  1  0
  5 20  1  0
  5 22  1  0
  6 11  1  0
  6 19  1  0
  6 21  1  0
  7 13  1  0
  7 14  1  0
  7 17  1  0
  7 19  1  0
  8 14  1  0
  8 21  1  0
  8 23  1  0
 10 15  1  0
 10 17  1  0
 12 13  1  0
 12 15  1  0
 15 16  1  0
 16 22  1  0
M  END
>  <ID>  (1) 
conformer_0

$$$$
