
     RDKit          3D

 17 19  0  0  0  0  0  0  0  0999 V2000
  -20.6554   17.4366  -31.2741 O   0  0  0  0  0  0  0  0  0  0  0  0
  -19.3951   15.9118  -28.2310 C   0  0  0  0  0  0  0  0  0  0  0  0
  -21.9206   16.5262  -29.4837 C   0  0  0  0  0  0  0  0  0  0  0  0
  -23.0688   16.9760  -30.2858 C   0  0  0  0  0  0  0  0  0  0  0  0
  -20.5859   15.8241  -27.4193 C   0  0  0  0  0  0  0  0  0  0  0  0
  -21.9408   17.7235  -27.4439 O   0  0  0  0  0  0  0  0  0  0  0  0
  -19.4213   16.6226  -29.4701 C   0  0  0  0  0  0  0  0  0  0  0  0
  -16.2270   16.1338  -26.5736 C   0  0  0  0  0  0  0  0  0  0  0  0
  -18.0607   15.5979  -27.9239 C   0  0  0  0  0  0  0  0  0  0  0  0
  -15.9395   15.7013  -28.8622 O   0  0  0  0  0  0  0  0  0  0  0  0
  -13.9840   15.3634  -27.3206 C   0  0  0  0  0  0  0  0  0  0  0  0
  -17.5356   15.6368  -26.6366 C   0  0  0  0  0  0  0  0  0  0  0  0
  -17.2415   16.0459  -28.9571 C   0  0  0  0  0  0  0  0  0  0  0  0
  -15.4461   15.5274  -27.5995 C   0  0  0  0  0  0  0  0  0  0  0  0
  -20.6626   16.8074  -30.1690 C   0  0  0  0  0  0  0  0  0  0  0  0
  -18.0789   16.3252  -30.0706 C   0  0  0  0  0  0  0  0  0  0  0  0
  -21.7765   16.5365  -28.0250 C   0  0  0  0  0  0  0  0  0  0  0  0
  1 15  2  0
  2  5  1  0
  2  7  1  0
  2  9  1  0
  3  4  1  0
  3 15  1  0
  3 17  1  0
  5 17  1  0
  6 17  1  0
  7 15  1  0
  7 16  1  0
  8 12  1  0
  8 14  1  0
  9 12  1  0
  9 13  1  0
 10 13  1  0
 10 14  1  0
 11 14  1  0
 13 16  1  0
M  END
>  <ID>  (1) 
conformer_0

$$$$
