
     RDKit          3D

 21 24  0  0  0  0  0  0  0  0999 V2000
  -19.8359   15.2060  -33.5851 C   0  0  0  0  0  0  0  0  0  0  0  0
  -15.6563   15.8741  -25.9932 C   0  0  0  0  0  0  0  0  0  0  0  0
  -19.9535   13.7005  -33.5311 C   0  0  0  0  0  0  0  0  0  0  0  0
  -19.1424   16.2443  -26.8840 C   0  0  0  0  0  0  0  0  0  0  0  0
  -19.9503   17.6600  -24.7225 C   0  0  0  0  0  0  0  0  0  0  0  0
  -18.4628   14.6647  -31.6749 N   0  0  0  0  0  0  0  0  0  0  0  0
  -16.1794   14.4437  -27.6608 C   0  0  0  0  0  0  0  0  0  0  0  0
  -20.4249   16.4190  -26.7195 C   0  0  0  0  0  0  0  0  0  0  0  0
  -18.1337   15.0601  -30.2258 C   0  0  0  0  0  3  0  0  0  0  0  0
  -16.9268   16.1940  -26.2400 N   0  0  0  0  0  0  0  0  0  0  0  0
  -20.8783   17.1140  -25.6009 C   0  0  0  0  0  0  0  0  0  0  0  0
  -18.9381   15.2680  -29.1280 N   0  0  0  0  0  0  0  0  0  0  0  0
  -18.5634   13.1441  -33.5261 C   0  0  0  0  0  0  0  0  0  0  0  0
  -18.1446   16.6676  -25.9509 C   0  0  0  0  0  0  0  0  0  0  0  0
  -18.5899   17.4601  -24.9308 C   0  0  0  0  0  0  0  0  0  0  0  0
  -16.7674   15.5945  -30.3477 C   0  0  0  0  0  0  0  0  0  0  0  0
  -17.6428   14.2418  -32.9322 C   0  0  0  0  0  0  0  0  0  0  0  0
  -19.4206   15.6474  -32.2009 C   0  0  0  0  0  0  0  0  0  0  0  0
  -18.4895   15.5368  -27.9077 C   0  0  0  0  0  0  0  0  0  0  0  0
  -17.2087   15.2746  -27.5356 N   0  0  0  0  0  0  0  0  0  0  0  0
  -15.1999   14.8060  -26.7788 C   0  0  0  0  0  0  0  0  0  0  0  0
  1  3  1  0
  1 18  1  0
  2 10  1  0
  2 21  1  0
  3 13  1  0
  4  8  1  0
  4 14  2  0
  4 19  1  0
  5 11  1  0
  5 15  2  0
  6  9  1  0
  6 17  1  0
  6 18  1  0
  7 20  1  0
  7 21  1  0
  8 11  2  0
  9 12  1  0
  9 16  1  0
 10 14  1  0
 10 20  1  0
 12 19  2  3
 13 17  1  0
 14 15  1  0
 19 20  1  0
M  END
>  <ID>  (1) 
conformer_0

$$$$
