
     RDKit          3D

 20 22  0  0  0  0  0  0  0  0999 V2000
  -14.9713   14.6794  -26.4366 C   0  0  0  0  0  0  0  0  0  0  0  0
  -20.2058   16.4276  -26.4581 C   0  0  0  0  0  0  0  0  0  0  0  0
  -18.8852   16.2992  -32.7882 C   0  0  0  0  0  0  0  0  0  0  0  0
  -19.4019   18.1876  -24.8790 C   0  0  0  0  0  0  0  0  0  0  0  0
  -18.5019   15.5259  -28.4074 C   0  0  0  0  0  0  0  0  0  0  0  0
  -15.5225   13.7123  -27.2343 C   0  0  0  0  0  0  0  0  0  0  0  0
  -16.9369   15.9859  -26.5287 C   0  0  0  0  0  0  0  0  0  0  0  0
  -15.6410   15.8058  -26.1279 C   0  0  0  0  0  0  0  0  0  0  0  0
  -19.3176   15.0535  -31.9562 C   0  0  0  0  0  0  0  0  0  0  0  0
  -19.1274   17.1818  -25.7577 C   0  0  0  0  0  0  0  0  0  0  0  0
  -17.1892   17.9435  -25.0054 C   0  0  0  0  0  0  0  0  0  0  0  0
  -17.7224   16.9817  -25.8375 C   0  0  0  0  0  0  0  0  0  0  0  0
  -17.3848   15.1360  -27.5667 C   0  0  0  0  0  0  0  0  0  0  0  0
  -18.2053   18.6943  -24.4315 N   0  0  0  0  0  0  0  0  0  0  0  0
  -19.8340   15.7696  -27.7894 C   0  0  0  0  0  0  0  0  0  0  0  0
  -18.2200   16.0084  -29.7890 C   0  0  0  0  0  0  0  0  0  0  0  0
  -20.6040   15.2368  -31.3851 O   0  0  0  0  0  0  0  0  0  0  0  0
  -18.2559   14.7884  -30.7921 C   0  0  0  0  0  0  0  0  0  0  0  0
  -19.3730   13.8962  -32.8291 O   0  0  0  0  0  0  0  0  0  0  0  0
  -16.7349   13.9649  -27.7986 C   0  0  0  0  0  0  0  0  0  0  0  0
  1  6  1  0
  1  8  2  0
  2 10  1  0
  2 15  2  0
  3  9  1  0
  4 10  1  0
  4 14  1  0
  5 13  1  0
  5 15  1  0
  5 16  1  0
  6 20  1  0
  7  8  1  0
  7 12  1  0
  7 13  1  0
  9 17  1  0
  9 18  1  0
  9 19  1  0
 10 12  2  0
 11 12  1  0
 11 14  1  0
 13 20  2  0
 16 18  1  0
M  END
>  <ID>  (1) 
conformer_0

$$$$
