
     RDKit          3D

 31 33  0  0  0  0  0  0  0  0999 V2000
  -18.6686   18.0826  -32.5477 O   0  0  0  0  0  0  0  0  0  0  0  0
  -16.9085   16.6740  -25.9785 C   0  0  0  0  0  0  0  0  0  0  0  0
  -15.6768   16.2396  -26.4276 N   0  0  0  0  0  0  0  0  0  0  0  0
  -18.5445   15.0469  -29.1353 C   0  0  0  0  0  0  0  0  0  0  0  0
  -17.9330   15.9085  -28.0266 C   0  0  0  0  0  0  0  0  0  0  0  0
  -16.6019   16.1560  -28.6266 C   0  0  0  0  0  0  0  0  0  0  0  0
  -16.6438   16.1960  -30.0995 C   0  0  0  0  0  0  0  0  0  0  0  0
  -15.4540   16.1339  -27.7506 C   0  0  0  0  0  0  0  0  0  0  0  0
  -20.2416   16.4516  -30.6906 C   0  0  0  0  0  0  0  0  0  0  0  0
  -19.8514   14.2624  -33.2369 C   0  0  0  0  0  0  0  0  0  0  0  0
  -18.5241   14.5512  -33.4852 C   0  0  0  0  0  0  0  0  0  0  0  0
  -14.0275   15.6772  -28.1222 C   0  0  0  0  0  0  0  0  0  0  0  0
  -20.5160   16.8462  -26.8095 C   0  0  0  0  0  0  0  0  0  0  0  0
  -20.6079   13.8033  -32.2993 O   0  0  0  0  0  0  0  0  0  0  0  0
  -18.6773   17.9261  -23.9241 C   0  0  0  0  0  0  0  0  0  0  0  0
  -17.2909   17.8594  -23.7534 C   0  0  0  0  0  0  0  0  0  0  0  0
  -19.3849   17.5091  -24.8996 N   0  0  0  0  0  0  0  0  0  0  0  0
  -17.9596   15.5406  -30.4966 C   0  0  0  0  0  0  0  0  0  0  0  0
  -23.6855   15.8717  -29.8750 C   0  0  0  0  0  0  0  0  0  0  0  0
  -22.9112   15.3279  -30.7104 O   0  0  0  0  0  0  0  0  0  0  0  0
  -19.2732   16.8955  -26.0953 C   0  0  0  0  0  0  0  0  0  0  0  0
  -18.0813   16.4868  -26.6928 N   0  0  0  0  0  0  0  0  0  0  0  0
  -24.7799   16.7210  -30.1811 C   0  0  0  0  0  0  0  0  0  0  0  0
  -16.7198   17.2644  -24.7690 C   0  0  0  0  0  0  0  0  0  0  0  0
  -18.2579   16.9251  -33.3629 C   0  0  0  0  0  0  0  0  0  0  0  0
  -22.8663   17.8038  -27.6073 C   0  0  0  0  0  0  0  0  0  0  0  0
  -19.0599   15.7231  -32.7964 C   0  0  0  0  0  0  0  0  0  0  0  0
  -23.4841   15.4854  -28.4365 C   0  0  0  0  0  0  0  0  0  0  0  0
  -21.3682   15.7332  -27.1601 C   0  0  0  0  0  0  0  0  0  0  0  0
  -22.7348   16.3124  -27.5028 C   0  0  0  0  0  0  0  0  0  0  0  0
  -19.1428   15.7472  -31.3789 C   0  0  0  0  0  0  0  0  0  0  0  0
  1 25  1  0
  2  3  1  0
  2 22  1  0
  2 24  2  0
  3  8  1  0
  4  5  1  0
  4 18  1  0
  5  6  1  0
  5 22  1  0
  6  7  1  0
  6  8  1  0
  7 18  1  0
  8 12  1  0
  9 31  1  0
 10 11  1  0
 10 14  1  0
 11 27  1  0
 13 21  1  0
 13 29  1  0
 15 16  1  0
 15 17  2  0
 16 24  1  0
 17 21  1  0
 18 31  1  0
 19 20  2  0
 19 23  1  0
 19 28  1  0
 21 22  1  0
 25 27  1  0
 26 30  1  0
 27 31  1  0
 28 30  1  0
 29 30  1  0
M  END
>  <ID>  (1) 
conformer_0

$$$$
