
     RDKit          3D

 24 27  0  0  0  0  0  0  0  0999 V2000
  -21.5641   16.7987  -31.0754 C   0  0  0  0  0  0  0  0  0  0  0  0
  -18.8905   17.8311  -24.7228 C   0  0  0  0  0  0  0  0  0  0  0  0
  -17.6329   15.5930  -29.4276 C   0  0  0  0  0  0  0  0  0  0  0  0
  -20.2503   16.6445  -31.4082 N   0  0  0  0  0  0  0  0  0  0  0  0
  -19.5797   16.3044  -30.3247 C   0  0  0  0  0  0  0  0  0  0  0  0
  -19.8843   17.3044  -25.5154 C   0  0  0  0  0  0  0  0  0  0  0  0
  -15.4005   16.4528  -29.0187 C   0  0  0  0  0  0  0  0  0  0  0  0
  -18.2540   16.7164  -27.0917 C   0  0  0  0  0  0  0  0  0  0  0  0
  -22.5988   16.4241  -28.7512 N   0  0  0  0  0  0  0  0  0  0  0  0
  -21.9962   16.4153  -27.5132 C   0  0  0  0  0  0  0  0  0  0  0  0
  -18.5891   15.4160  -30.3838 N   0  0  0  0  0  0  0  0  0  0  0  0
  -17.2692   17.2778  -26.3413 C   0  0  0  0  0  0  0  0  0  0  0  0
  -17.5764   17.8315  -25.1379 C   0  0  0  0  0  0  0  0  0  0  0  0
  -16.0597   13.1110  -27.3770 C   0  0  0  0  0  0  0  0  0  0  0  0
  -20.6250   16.2642  -27.6843 C   0  0  0  0  0  0  0  0  0  0  0  0
  -19.6115   16.7361  -26.7293 C   0  0  0  0  0  0  0  0  0  0  0  0
  -20.4093   16.2813  -29.1596 C   0  0  0  0  0  0  0  0  0  0  0  0
  -17.9993   16.1126  -28.2760 O   0  0  0  0  0  0  0  0  0  0  0  0
  -13.8983   13.8692  -28.0947 O   0  0  0  0  0  0  0  0  0  0  0  0
  -15.6150   15.5174  -27.8970 C   0  0  0  0  0  0  0  0  0  0  0  0
  -14.7542   14.4777  -26.0410 O   0  0  0  0  0  0  0  0  0  0  0  0
  -16.4562   16.3306  -30.1535 C   0  0  0  0  0  0  0  0  0  0  0  0
  -21.7384   16.4501  -29.7607 C   0  0  0  0  0  0  0  0  0  0  0  0
  -15.0229   14.2717  -27.4059 C   0  0  0  0  0  0  0  0  0  0  0  0
  1  4  1  0
  1 23  1  0
  2  6  1  0
  2 13  2  0
  3 11  1  0
  3 18  1  0
  3 22  1  0
  4  5  2  0
  5 11  1  0
  5 17  1  0
  6 16  2  0
  7 20  1  0
  7 22  1  0
  8 12  2  0
  8 16  1  0
  8 18  1  0
  9 10  1  0
  9 23  1  0
 10 15  1  0
 12 13  1  0
 14 24  1  0
 15 16  1  0
 15 17  1  0
 17 23  2  0
 19 24  1  0
 20 24  1  0
 21 24  1  0
M  END
>  <ID>  (1) 
conformer_0

$$$$
