
     RDKit          3D

 23 24  0  0  0  0  0  0  0  0999 V2000
  -18.9402   15.0422  -30.4448 C   0  0  0  0  0  0  0  0  0  0  0  0
  -17.2913   19.3477  -31.2828 O   0  0  0  0  0  0  0  0  0  0  0  0
  -21.0160   18.7335  -26.9334 O   0  0  0  0  0  0  0  0  0  0  0  0
  -18.3697   17.5891  -25.0978 O   0  0  0  0  0  0  0  0  0  0  0  0
  -18.4953   16.9855  -27.4178 C   0  0  0  0  0  0  0  0  0  0  0  0
  -20.1099   17.7939  -29.2545 C   0  0  0  0  0  0  0  0  0  0  0  0
  -17.0391   16.7665  -27.1530 C   0  0  0  0  0  0  0  0  0  0  0  0
  -20.5167   17.7205  -26.0855 C   0  0  0  0  0  0  0  0  0  0  0  0
  -16.6120   15.3378  -27.0208 C   0  0  0  0  0  0  0  0  0  0  0  0
  -18.1423   15.5573  -29.2800 C   0  0  0  0  0  0  0  0  0  0  0  0
  -18.1663   17.1275  -31.0658 N   0  0  0  0  0  0  0  0  0  0  0  0
  -16.1036   17.7545  -26.6531 C   0  0  0  0  0  0  0  0  0  0  0  0
  -16.5020   17.4978  -29.5485 O   0  0  0  0  0  0  0  0  0  0  0  0
  -20.0940   14.3608  -32.6642 C   0  0  0  0  0  0  0  0  0  0  0  0
  -18.7470   17.7908  -28.6929 C   0  0  0  0  0  0  0  0  0  0  0  0
  -19.1884   15.5149  -32.8371 C   0  0  0  0  0  0  0  0  0  0  0  0
  -18.6078   15.9038  -31.5811 C   0  0  0  0  0  0  0  0  0  0  0  0
  -21.0574   16.2891  -26.2481 C   0  0  0  0  0  0  0  0  0  0  0  0
  -19.0207   17.6542  -26.2282 C   0  0  0  0  0  0  0  0  0  0  0  0
  -18.9451   15.6075  -27.9493 C   0  0  0  0  0  0  0  0  0  0  0  0
  -17.8022   17.0078  -29.6034 C   0  0  0  0  0  0  0  0  0  0  0  0
  -17.7194   18.1958  -31.8711 C   0  0  0  0  0  0  0  0  0  0  0  0
  -20.8929   18.1819  -24.6697 C   0  0  0  0  0  0  0  0  0  0  0  0
  1 10  1  0
  1 17  1  0
  2 22  1  0
  3  8  1  0
  4 19  1  0
  5  7  1  0
  5 15  1  0
  5 19  1  0
  5 20  1  0
  6 15  1  0
  7  9  1  0
  7 12  1  0
  8 18  1  0
  8 19  1  0
  8 23  1  0
 10 20  1  0
 10 21  1  0
 11 17  1  0
 11 21  1  0
 11 22  1  0
 13 21  1  0
 14 16  1  0
 15 21  1  0
 16 17  1  0
M  END
>  <ID>  (1) 
conformer_0

$$$$
