
     RDKit          3D

 20 22  0  0  0  0  0  0  0  0999 V2000
  -19.6176   16.5908  -28.7376 C   0  0  0  0  0  0  0  0  0  0  0  0
  -16.6139   16.0091  -26.7979 C   0  0  0  0  0  0  0  0  0  0  0  0
  -19.3679   17.7304  -31.4883 O   0  0  0  0  0  0  0  0  0  0  0  0
  -20.6467   17.2358  -29.4903 C   0  0  0  0  0  0  0  0  0  0  0  0
  -17.8862   15.2933  -29.9117 C   0  0  0  0  0  0  0  0  0  0  0  0
  -15.7355   15.4689  -27.8969 C   0  0  0  0  0  0  0  0  0  0  0  0
  -23.1752   17.3375  -27.0520 O   0  0  0  0  0  0  0  0  0  0  0  0
  -21.5194   18.2170  -31.4653 O   0  0  0  0  0  0  0  0  0  0  0  0
  -18.1933   16.5648  -29.1616 C   0  0  0  0  0  0  0  0  0  0  0  0
  -20.4914   17.6805  -30.8729 C   0  0  0  0  0  0  0  0  0  0  0  0
  -17.2839   14.0560  -29.3245 C   0  0  0  0  0  0  0  0  0  0  0  0
  -15.5911   16.2764  -29.1910 C   0  0  0  0  0  0  0  0  0  0  0  0
  -21.8479   17.4673  -28.8691 C   0  0  0  0  0  0  0  0  0  0  0  0
  -19.9757   16.0060  -27.5377 C   0  0  0  0  0  0  0  0  0  0  0  0
  -15.4564   13.4594  -27.0784 C   0  0  0  0  0  0  0  0  0  0  0  0
  -16.3274   13.9939  -28.1883 C   0  0  0  0  0  0  0  0  0  0  0  0
  -16.8756   17.3546  -29.1176 C   0  0  0  0  0  0  0  0  0  0  0  0
  -14.5275   14.7608  -27.2166 C   0  0  0  0  0  0  0  0  0  0  0  0
  -21.1974   16.1951  -26.9627 C   0  0  0  0  0  0  0  0  0  0  0  0
  -22.0963   17.0046  -27.6390 C   0  0  0  0  0  0  0  0  0  0  0  0
  1  4  1  0
  1  9  1  0
  1 14  1  0
  2  6  1  0
  3 10  2  0
  4 10  1  0
  4 13  2  0
  5  9  1  0
  5 11  1  0
  6 12  1  0
  6 16  1  0
  6 18  1  0
  7 20  2  0
  8 10  1  0
  9 17  1  0
 11 16  2  0
 12 17  1  0
 13 20  1  0
 14 19  2  0
 15 16  1  0
 15 18  1  0
 19 20  1  0
M  END
>  <ID>  (1) 
conformer_0

$$$$
