
     RDKit          3D

 23 26  0  0  0  0  0  0  0  0999 V2000
  -14.2772   15.5696  -28.6503 C   0  0  0  0  0  0  0  0  0  0  0  0
  -16.0263   15.7246  -26.9905 C   0  0  0  0  0  0  0  0  0  0  0  0
  -18.7367   14.7435  -31.1837 O   0  0  0  0  0  0  0  0  0  0  0  0
  -18.8967   15.4512  -30.1218 C   0  0  0  0  0  0  0  0  0  0  0  0
  -21.8195   17.6038  -31.1023 C   0  0  0  0  0  0  0  0  0  0  0  0
  -20.4941   16.8733  -28.8313 C   0  0  0  0  0  0  0  0  0  0  0  0
  -21.0140   18.3177  -28.8984 C   0  0  0  0  0  0  0  0  0  0  0  0
  -21.5979   16.0371  -28.1812 C   0  0  0  0  0  0  0  0  0  0  0  0
  -20.6549   15.4795  -26.0454 O   0  0  0  0  0  0  0  0  0  0  0  0
  -16.1263   13.6700  -28.4766 C   0  0  0  0  0  0  0  0  0  0  0  0
  -15.7369   15.9954  -28.4050 C   0  0  0  0  0  0  0  0  0  0  0  0
  -16.4613   14.9921  -29.3276 C   0  0  0  0  0  0  0  0  0  0  0  0
  -20.8827   16.4636  -31.2568 C   0  0  0  0  0  0  0  0  0  0  0  0
  -14.6619   16.8665  -28.7170 C   0  0  0  0  0  0  0  0  0  0  0  0
  -14.3196   17.6856  -27.4480 C   0  0  0  0  0  0  0  0  0  0  0  0
  -19.9582   16.4591  -30.1382 C   0  0  0  0  0  0  0  0  0  0  0  0
  -21.1805   18.6717  -30.3084 C   0  0  0  0  0  0  0  0  0  0  0  0
  -16.8027   16.7101  -27.6531 C   0  0  0  0  0  0  0  0  0  0  0  0
  -16.3606   14.1834  -26.9882 C   0  0  0  0  0  0  0  0  0  0  0  0
  -18.1662   16.0958  -27.9174 C   0  0  0  0  0  0  0  0  0  0  0  0
  -17.9416   15.1547  -29.0517 C   0  0  0  0  0  0  0  0  0  0  0  0
  -21.5869   16.3540  -26.6964 C   0  0  0  0  0  0  0  0  0  0  0  0
  -19.3566   16.8410  -27.8496 O   0  0  0  0  0  0  0  0  0  0  0  0
  1 14  1  0
  2 11  1  0
  2 18  1  0
  2 19  1  0
  3  4  1  0
  4 16  1  0
  4 21  1  0
  5 13  1  0
  5 17  1  0
  6  7  1  0
  6  8  1  0
  6 16  1  0
  6 23  1  0
  7 17  1  0
  8 22  1  0
  9 22  1  0
 10 12  1  0
 10 19  1  0
 11 12  1  0
 11 14  1  0
 12 21  1  0
 13 16  1  0
 14 15  1  0
 18 20  1  0
 20 21  1  0
 20 23  1  0
M  END
>  <ID>  (1) 
conformer_0

$$$$
