
     RDKit          3D

 30 35  0  0  0  0  0  0  0  0999 V2000
  -21.4135   20.0927  -31.4764 C   0  0  0  0  0  0  0  0  0  0  0  0
  -19.7065   15.5261  -31.4232 C   0  0  0  0  0  0  0  0  0  0  0  0
  -19.0645   19.1603  -30.2690 C   0  0  0  0  0  0  0  0  0  0  0  0
  -19.6814   19.3977  -33.1631 C   0  0  0  0  0  0  0  0  0  0  0  0
  -18.3513   16.4633  -26.1171 O   0  0  0  0  0  0  0  0  0  0  0  0
  -19.1340   16.0870  -28.2056 N   0  0  0  0  0  0  0  0  0  0  0  0
  -18.2145   15.8948  -27.2096 C   0  0  0  0  0  0  0  0  0  0  0  0
  -20.0401   20.3697  -32.0748 C   0  0  0  0  0  0  0  0  0  0  0  0
  -22.8015   16.2801  -28.0937 C   0  0  0  0  0  0  0  0  0  0  0  0
  -17.4476   17.6203  -31.2942 C   0  0  0  0  0  0  0  0  0  0  0  0
  -17.7586   14.0183  -29.5950 C   0  0  0  0  0  0  0  0  0  0  0  0
  -22.9990   17.4838  -27.4066 C   0  0  0  0  0  0  0  0  0  0  0  0
  -15.8981   15.3958  -26.6337 C   0  0  0  0  0  0  0  0  0  0  0  0
  -14.7312   14.7162  -26.7929 C   0  0  0  0  0  0  0  0  0  0  0  0
  -21.9043   18.2312  -26.9775 C   0  0  0  0  0  0  0  0  0  0  0  0
  -19.6543   18.0803  -32.5536 C   0  0  0  0  0  0  0  0  0  0  0  0
  -19.0417   15.6871  -32.7127 C   0  0  0  0  0  0  0  0  0  0  0  0
  -19.7472   16.8015  -30.5511 C   0  0  0  0  0  0  0  0  0  0  0  0
  -19.6146   16.8955  -33.3843 C   0  0  0  0  0  0  0  0  0  0  0  0
  -18.9955   17.9407  -31.2203 C   0  0  0  0  0  0  0  0  0  0  0  0
  -21.5221   15.8543  -28.3344 C   0  0  0  0  0  0  0  0  0  0  0  0
  -20.4347   16.5831  -27.9045 C   0  0  0  0  0  0  0  0  0  0  0  0
  -16.9596   15.2046  -27.4945 C   0  0  0  0  0  0  0  0  0  0  0  0
  -14.5625   13.8098  -27.8127 C   0  0  0  0  0  0  0  0  0  0  0  0
  -16.7620   14.3123  -28.5902 C   0  0  0  0  0  0  0  0  0  0  0  0
  -18.8445   16.1338  -29.5447 C   0  0  0  0  0  0  0  0  0  0  0  0
  -18.9674   20.3831  -31.0448 C   0  0  0  0  0  0  0  0  0  0  0  0
  -15.5749   13.6249  -28.7132 C   0  0  0  0  0  0  0  0  0  0  0  0
  -18.5416   14.9686  -30.2578 N   0  0  0  0  0  0  0  0  0  0  0  0
  -20.6308   17.7628  -27.2171 C   0  0  0  0  0  0  0  0  0  0  0  0
  1  8  1  0
  2 17  1  0
  2 18  1  0
  2 29  1  0
  3 20  1  0
  3 27  1  0
  4  8  1  0
  4 16  1  0
  5  7  2  0
  6  7  1  0
  6 22  1  0
  6 26  1  0
  7 23  1  0
  8 27  1  0
  9 12  2  0
  9 21  1  0
 10 20  1  0
 11 25  1  0
 11 29  1  0
 12 15  1  0
 13 14  2  0
 13 23  1  0
 14 24  1  0
 15 30  2  0
 16 19  1  0
 16 20  1  0
 17 19  1  0
 18 20  1  0
 18 26  1  0
 21 22  2  0
 22 30  1  0
 23 25  1  0
 24 28  1  0
 25 28  2  0
 26 29  1  0
M  END
>  <ID>  (1) 
conformer_0

$$$$
