
     RDKit          3D

 31 34  0  0  0  0  0  0  0  0999 V2000
  -18.8918   16.4191  -29.9257 N   0  0  0  0  0  0  0  0  0  0  0  0
  -18.8551   14.5940  -31.6540 C   0  0  0  0  0  0  0  0  0  0  0  0
  -25.5628   13.9176  -27.6931 O   0  0  0  0  0  0  0  0  0  0  0  0
  -16.6155   17.3553  -30.1584 N   0  0  0  0  0  0  0  0  0  0  0  0
  -16.0787   16.5526  -28.0167 C   0  0  0  0  0  0  0  0  0  0  0  0
  -19.8868   17.6066  -27.3078 C   0  0  0  0  0  0  0  0  0  0  0  0
  -20.7565   15.8874  -31.1072 O   0  0  0  0  0  0  0  0  0  0  0  0
  -25.5581   16.2965  -27.5978 C   0  0  0  0  0  0  0  0  0  0  0  0
  -15.2281   15.5670  -27.3115 C   0  0  0  0  0  0  0  0  0  0  0  0
  -18.4348   17.9450  -27.3524 C   0  0  0  0  0  0  0  0  0  0  0  0
  -23.3021   16.8951  -28.1334 O   0  0  0  0  0  0  0  0  0  0  0  0
  -15.8219   14.1910  -27.1055 C   0  0  0  0  0  0  0  0  0  0  0  0
  -18.9624   16.8917  -32.4180 C   0  0  0  0  0  0  0  0  0  0  0  0
  -19.4960   16.0017  -33.5424 C   0  0  0  0  0  0  0  0  0  0  0  0
  -19.7131   17.5588  -24.8009 C   0  0  0  0  0  0  0  0  0  0  0  0
  -15.5700   17.1500  -29.2200 C   0  0  0  0  0  0  0  0  0  0  0  0
  -24.2168   15.8585  -28.2086 C   0  0  0  0  0  0  0  0  0  0  0  0
  -19.3908   15.9976  -31.1916 C   0  0  0  0  0  0  0  0  0  0  0  0
  -17.9276   17.3087  -29.6945 C   0  0  0  0  0  0  0  0  0  0  0  0
  -24.1818   14.3786  -27.9188 C   0  0  0  0  0  0  0  0  0  0  0  0
  -19.5572   14.5599  -33.0579 C   0  0  0  0  0  0  0  0  0  0  0  0
  -14.0114   15.8078  -27.0296 O   0  0  0  0  0  0  0  0  0  0  0  0
  -18.1711   17.2698  -24.8659 C   0  0  0  0  0  0  0  0  0  0  0  0
  -21.8754   17.5705  -26.2514 C   0  0  0  0  0  0  0  0  0  0  0  0
  -17.1886   17.1047  -27.1961 C   0  0  0  0  0  0  0  0  0  0  0  0
  -26.3870   15.0639  -27.3710 C   0  0  0  0  0  0  0  0  0  0  0  0
  -20.8920   17.3270  -28.2437 C   0  0  0  0  0  0  0  0  0  0  0  0
  -18.1918   19.2253  -26.9538 O   0  0  0  0  0  0  0  0  0  0  0  0
  -22.1355   17.2481  -27.6174 C   0  0  0  0  0  0  0  0  0  0  0  0
  -20.5011   17.6678  -26.0746 C   0  0  0  0  0  0  0  0  0  0  0  0
  -16.8073   16.9703  -25.6784 C   0  0  0  0  0  0  0  0  0  0  0  0
  1 18  1  0
  1 19  1  0
  2 18  1  0
  2 21  1  0
  3 20  1  0
  3 26  1  0
  4 16  1  0
  4 19  1  0
  5  9  1  0
  5 16  1  0
  5 25  1  0
  6 10  1  0
  6 27  1  0
  6 30  1  0
  7 18  1  0
  8 17  1  0
  8 26  1  0
  9 12  1  0
  9 22  2  0
 10 25  1  0
 10 28  1  0
 11 17  1  0
 11 29  1  0
 13 14  1  0
 13 18  1  0
 14 21  1  0
 15 23  1  0
 15 30  2  0
 17 20  1  0
 23 31  1  0
 24 29  1  0
 24 30  1  0
 25 31  1  0
 27 29  1  0
M  END
>  <ID>  (1) 
conformer_0

$$$$
