
     RDKit          3D

 27 30  0  0  0  0  0  0  0  0999 V2000
  -20.6536   15.2808  -31.4025 O   0  0  0  0  0  0  0  0  0  0  0  0
  -23.0683   15.6062  -30.2835 C   0  0  0  0  0  0  0  0  0  0  0  0
  -19.3709   16.1900  -28.2963 N   0  0  0  0  0  0  0  0  0  0  0  0
  -22.7410   17.2881  -28.5046 C   0  0  0  0  0  0  0  0  0  0  0  0
  -24.0719   14.4862  -29.9410 C   0  0  0  0  0  0  0  0  0  0  0  0
  -21.0500   17.3385  -30.3347 C   0  0  0  0  0  0  0  0  0  0  0  0
  -15.5620   14.8388  -28.6215 C   0  0  0  0  0  0  0  0  0  0  0  0
  -17.2279   15.9750  -27.4000 C   0  0  0  0  0  0  0  0  0  0  0  0
  -20.0833   16.2269  -30.6203 C   0  0  0  0  0  0  0  0  0  0  0  0
  -23.4103   15.0095  -27.6600 C   0  0  0  0  0  0  0  0  0  0  0  0
  -15.2201   16.6074  -26.1051 N   0  0  0  0  0  0  0  0  0  0  0  0
  -23.9522   16.4333  -27.9934 C   0  0  0  0  0  0  0  0  0  0  0  0
  -22.1819   19.5922  -28.8804 O   0  0  0  0  0  0  0  0  0  0  0  0
  -19.0235   15.8277  -29.5775 C   0  0  0  0  0  0  0  0  0  0  0  0
  -16.5584   16.4068  -26.2821 C   0  0  0  0  0  0  0  0  0  0  0  0
  -24.1942   19.0536  -28.0399 O   0  0  0  0  0  0  0  0  0  0  0  0
  -18.5644   16.3370  -27.2818 C   0  0  0  0  0  0  0  0  0  0  0  0
  -14.8283   14.6855  -27.4137 C   0  0  0  0  0  0  0  0  0  0  0  0
  -14.3276   15.8641  -26.7868 N   0  0  0  0  0  0  0  0  0  0  0  0
  -23.0399   18.8031  -28.4837 C   0  0  0  0  0  0  0  0  0  0  0  0
  -17.7342   15.1504  -29.6284 C   0  0  0  0  0  0  0  0  0  0  0  0
  -24.1642   14.0060  -28.4902 C   0  0  0  0  0  0  0  0  0  0  0  0
  -17.5110   17.1033  -25.5008 C   0  0  0  0  0  0  0  0  0  0  0  0
  -16.9132   15.2415  -28.5249 C   0  0  0  0  0  0  0  0  0  0  0  0
  -22.2530   16.7276  -29.7897 N   0  0  0  0  0  0  0  0  0  0  0  0
  -18.7284   17.0411  -26.1136 C   0  0  0  0  0  0  0  0  0  0  0  0
  -19.5934   16.1245  -32.0087 C   0  0  0  0  0  0  0  0  0  0  0  0
  1  9  1  0
  2  5  1  0
  2 25  1  0
  3 14  1  0
  3 17  1  0
  4 12  1  0
  4 20  1  0
  4 25  1  0
  5 22  1  0
  6  9  1  0
  6 25  1  0
  7 18  1  0
  7 24  1  0
  8 15  1  0
  8 17  2  0
  8 24  1  0
  9 14  1  0
  9 27  1  0
 10 12  1  0
 10 22  1  0
 11 15  1  0
 11 19  2  0
 13 20  2  0
 14 21  1  0
 15 23  1  0
 16 20  1  0
 17 26  1  0
 18 19  1  0
 21 24  2  0
 23 26  1  0
M  END
>  <ID>  (1) 
conformer_0

$$$$
