
     RDKit          3D

 22 25  0  0  0  0  0  0  0  0999 V2000
  -18.7302   15.8457  -28.2363 C   0  0  0  0  0  0  0  0  0  0  0  0
  -16.6182   14.7883  -28.4071 C   0  0  0  0  0  0  0  0  0  0  0  0
  -16.8762   14.4891  -29.7409 C   0  0  0  0  0  0  0  0  0  0  0  0
  -21.4898   17.8008  -25.9959 N   0  0  0  0  0  0  0  0  0  0  0  0
  -21.0634   16.1066  -27.6652 C   0  0  0  0  0  0  0  0  0  0  0  0
  -19.4757   13.4512  -33.2547 C   0  0  0  0  0  0  0  0  0  0  0  0
  -20.2347   17.5741  -25.3239 C   0  0  0  0  0  0  0  0  0  0  0  0
  -19.6540   15.8205  -33.3806 C   0  0  0  0  0  0  0  0  0  0  0  0
  -15.6264   15.7443  -26.4260 C   0  0  0  0  0  0  0  0  0  0  0  0
  -19.1956   16.9238  -26.2161 C   0  0  0  0  0  0  0  0  0  0  0  0
  -17.8917   15.3750  -31.8179 C   0  0  0  0  0  0  0  0  0  0  0  0
  -17.4871   15.5773  -27.7546 C   0  0  0  0  0  0  0  0  0  0  0  0
  -17.5824   14.5627  -34.0590 C   0  0  0  0  0  0  0  0  0  0  0  0
  -17.0756   16.1491  -26.5685 C   0  0  0  0  0  0  0  0  0  0  0  0
  -20.1177   18.4309  -24.0765 C   0  0  0  0  0  0  0  0  0  0  0  0
  -18.9878   15.6238  -29.5652 C   0  0  0  0  0  0  0  0  0  0  0  0
  -21.8423   17.2718  -27.2958 C   0  0  0  0  0  0  0  0  0  0  0  0
  -17.9802   15.1071  -30.3866 C   0  0  0  0  0  0  0  0  0  0  0  0
  -17.9091   16.9056  -25.8611 N   0  0  0  0  0  0  0  0  0  0  0  0
  -15.4055   14.5167  -27.5561 S   0  0  0  0  0  0  0  0  0  0  0  0
  -18.6419   14.7373  -32.9342 C   0  0  0  0  0  0  0  0  0  0  0  0
  -19.6515   16.3551  -27.3628 N   0  0  0  0  0  0  0  0  0  0  0  0
  1 12  1  0
  1 16  2  0
  1 22  1  0
  2  3  1  0
  2 12  2  0
  2 20  1  0
  3 18  1  0
  4  7  2  0
  4 17  1  0
  5 17  1  0
  5 22  1  0
  6 21  1  0
  7 10  1  0
  7 15  1  0
  8 21  1  0
  9 14  1  0
  9 20  1  0
 10 19  1  0
 10 22  1  0
 11 18  1  0
 11 21  1  0
 12 14  1  0
 13 21  1  0
 14 19  2  0
 16 18  1  0
M  END
>  <ID>  (1) 
conformer_0

$$$$
