
     RDKit          3D

 41 46  0  0  0  0  0  0  0  0999 V2000
  -22.3989   18.4504  -29.3102 C   0  0  0  0  0  0  0  0  0  0  0  0
  -14.5683   17.9750  -27.1919 C   0  0  0  0  0  0  0  0  0  0  0  0
  -18.0847   17.1403  -25.4979 O   0  0  0  0  0  0  0  0  0  0  0  0
  -15.6847   17.7780  -26.1294 C   0  0  0  0  0  0  0  0  0  0  0  0
  -18.7994   19.4398  -30.1698 C   0  0  0  0  0  0  0  0  0  0  0  0
  -13.8590   14.5411  -28.3644 C   0  0  0  0  0  0  0  0  0  0  0  0
  -15.2044   17.1675  -28.3887 C   0  0  0  0  0  0  0  0  0  0  0  0
  -21.4306   17.4051  -25.7003 C   0  0  0  0  0  0  0  0  0  0  0  0
  -16.5285   15.1910  -28.6752 C   0  0  0  0  0  0  0  0  0  0  0  0
  -20.9997   18.7520  -29.2211 C   0  0  0  0  0  0  0  0  0  0  0  0
  -15.0130   15.9893  -30.4487 C   0  0  0  0  0  0  0  0  0  0  0  0
  -21.8825   17.9420  -31.7047 O   0  0  0  0  0  0  0  0  0  0  0  0
  -22.8067   18.0074  -30.6388 C   0  0  0  0  0  0  0  0  0  0  0  0
  -13.2373   15.6657  -28.8509 C   0  0  0  0  0  0  0  0  0  0  0  0
  -15.4283   13.8004  -26.6044 O   0  0  0  0  0  0  0  0  0  0  0  0
  -17.0189   13.5239  -32.8754 C   0  0  0  0  0  0  0  0  0  0  0  0
  -15.7307   15.9458  -27.6801 C   0  0  0  0  0  0  0  0  0  0  0  0
  -14.7788   14.9378  -27.1466 C   0  0  0  0  0  0  0  0  0  0  0  0
  -18.2646   19.6876  -28.7643 C   0  0  0  0  0  0  0  0  0  0  0  0
  -19.5939   17.9597  -32.4664 O   0  0  0  0  0  0  0  0  0  0  0  0
  -20.3324   18.4452  -25.3519 C   0  0  0  0  0  0  0  0  0  0  0  0
  -15.7250   15.0088  -29.8697 C   0  0  0  0  0  0  0  0  0  0  0  0
  -18.4975   13.6295  -33.1572 C   0  0  0  0  0  0  0  0  0  0  0  0
  -16.2377   14.1360  -30.8081 O   0  0  0  0  0  0  0  0  0  0  0  0
  -14.9406   16.9660  -31.3909 C   0  0  0  0  0  0  0  0  0  0  0  0
  -20.4019   18.6696  -27.8545 C   0  0  0  0  0  0  0  0  0  0  0  0
  -17.5174   18.5928  -27.9611 C   0  0  0  0  0  0  0  0  0  0  0  0
  -23.0672   18.5760  -27.9133 C   0  0  0  0  0  0  0  0  0  0  0  0
  -20.2141   19.0092  -30.4055 C   0  0  0  0  0  0  0  0  0  0  0  0
  -20.5118   18.1686  -31.5692 C   0  0  0  0  0  0  0  0  0  0  0  0
  -18.1626   17.7853  -26.7446 C   0  0  0  0  0  0  0  0  0  0  0  0
  -16.3658   18.0917  -28.8708 C   0  0  0  0  0  0  0  0  0  0  0  0
  -16.5978   14.7209  -32.0796 C   0  0  0  0  0  0  0  0  0  0  0  0
  -19.5462   18.6634  -26.6183 C   0  0  0  0  0  0  0  0  0  0  0  0
  -18.8964   14.9731  -32.7199 C   0  0  0  0  0  0  0  0  0  0  0  0
  -22.4457   17.7412  -26.7904 O   0  0  0  0  0  0  0  0  0  0  0  0
  -17.8209   15.4677  -32.0049 O   0  0  0  0  0  0  0  0  0  0  0  0
  -20.2241   15.0907  -32.5644 O   0  0  0  0  0  0  0  0  0  0  0  0
  -17.8713   14.6644  -28.2942 C   0  0  0  0  0  0  0  0  0  0  0  0
  -16.6968   16.6300  -26.6485 C   0  0  0  0  0  0  0  0  0  0  0  0
  -14.2897   15.1133  -29.6231 C   0  0  0  0  0  0  0  0  0  0  0  0
  1 10  1  0
  1 13  2  0
  1 28  1  0
  2  4  1  0
  2  7  1  0
  3 31  1  0
  4 40  1  0
  5 19  1  0
  5 29  1  0
  6 14  1  0
  6 18  1  0
  7 17  1  0
  7 32  1  0
  8 21  1  0
  8 36  1  0
  9 17  1  0
  9 22  1  0
  9 39  1  0
 10 26  1  0
 10 29  1  0
 11 22  1  0
 11 25  2  0
 11 41  1  0
 12 13  1  0
 12 30  1  0
 14 41  1  0
 15 18  1  0
 16 23  1  0
 16 33  1  0
 17 18  1  0
 17 40  1  0
 19 27  1  0
 20 30  2  0
 21 34  1  0
 22 24  1  0
 23 35  1  0
 24 33  1  0
 26 34  1  0
 27 31  1  0
 27 32  1  0
 28 36  1  0
 29 30  1  0
 31 34  1  0
 33 37  1  0
 35 37  1  0
 35 38  2  0
M  END
>  <ID>  (1) 
conformer_0

$$$$
