
     RDKit          3D

 21 22  0  0  0  0  0  0  0  0999 V2000
  -20.8454   16.5912  -27.5907 C   0  0  0  0  0  0  0  0  0  0  0  0
  -16.5480   17.2974  -26.4292 C   0  0  0  0  0  0  0  0  0  0  0  0
  -15.4430   16.5348  -26.8328 C   0  0  0  0  0  0  0  0  0  0  0  0
  -20.1122   17.0076  -26.2527 C   0  0  0  0  0  0  0  0  0  0  0  0
  -15.6153   15.3368  -27.4641 C   0  0  0  0  0  0  0  0  0  0  0  0
  -20.5927   16.3216  -29.0356 N   0  0  0  0  0  0  0  0  0  0  0  0
  -17.9443   15.6587  -27.4159 C   0  0  0  0  0  0  0  0  0  0  0  0
  -21.2930   16.6135  -31.3333 C   0  0  0  0  0  0  0  0  0  0  0  0
  -16.8747   14.8671  -27.7377 C   0  0  0  0  0  0  0  0  0  0  0  0
  -23.1273   15.6020  -28.1411 C   0  0  0  0  0  0  0  0  0  0  0  0
  -18.9081   17.7481  -26.6380 O   0  0  0  0  0  0  0  0  0  0  0  0
  -16.2577   19.6057  -25.6565 C   0  0  0  0  0  0  0  0  0  0  0  0
  -19.3199   16.3977  -29.6786 C   0  0  0  0  0  0  0  0  0  0  0  0
  -14.4198   14.5601  -27.9073 C   0  0  0  0  0  0  0  0  0  0  0  0
  -16.2812   18.2911  -25.5544 O   0  0  0  0  0  0  0  0  0  0  0  0
  -14.2282   17.0002  -26.5708 O   0  0  0  0  0  0  0  0  0  0  0  0
  -17.8102   16.9065  -26.8632 C   0  0  0  0  0  0  0  0  0  0  0  0
  -22.9979   15.9342  -29.5688 C   0  0  0  0  0  0  0  0  0  0  0  0
  -21.6409   16.1533  -29.9503 C   0  0  0  0  0  0  0  0  0  0  0  0
  -22.0012   15.6593  -27.1877 C   0  0  0  0  0  0  0  0  0  0  0  0
  -20.5225   15.5434  -32.0463 C   0  0  0  0  0  0  0  0  0  0  0  0
  1  4  1  0
  1  6  1  0
  1 20  1  0
  2  3  2  0
  2 15  1  0
  2 17  1  0
  3  5  1  0
  3 16  1  0
  4 11  1  0
  5  9  2  0
  5 14  1  0
  6 13  1  0
  6 19  1  0
  7  9  1  0
  7 17  2  0
  8 19  1  0
  8 21  1  0
 10 18  1  0
 10 20  1  0
 11 17  1  0
 12 15  1  0
 18 19  1  0
M  END
>  <ID>  (1) 
conformer_0

$$$$
