
     RDKit          3D

 22 24  0  0  0  0  0  0  0  0999 V2000
  -17.7376   14.9941  -27.8451 C   0  0  0  0  0  0  0  0  0  0  0  0
  -15.7504   15.7755  -26.6617 C   0  0  0  0  0  0  0  0  0  0  0  0
  -19.8973   15.9279  -27.2122 N   0  0  0  0  0  0  0  0  0  0  0  0
  -16.3508   14.9500  -27.6171 C   0  0  0  0  0  0  0  0  0  0  0  0
  -20.5791   16.1239  -28.3757 C   0  0  0  0  0  0  0  0  0  0  0  0
  -20.9248   16.0450  -30.6859 C   0  0  0  0  0  0  0  0  0  0  0  0
  -24.4528   17.4491  -28.2237 C   0  0  0  0  0  0  0  0  0  0  0  0
  -15.9124   17.5257  -24.8954 C   0  0  0  0  0  0  0  0  0  0  0  0
  -22.2441   17.5179  -27.2898 C   0  0  0  0  0  0  0  0  0  0  0  0
  -24.0520   16.5501  -29.1290 N   0  0  0  0  0  0  0  0  0  0  0  0
  -17.9363   16.7185  -26.1952 N   0  0  0  0  0  0  0  0  0  0  0  0
  -25.6905   17.8285  -28.1286 O   0  0  0  0  0  0  0  0  0  0  0  0
  -22.2532   15.8972  -30.4829 N   0  0  0  0  0  0  0  0  0  0  0  0
  -22.7472   16.3278  -29.3427 C   0  0  0  0  0  0  0  0  0  0  0  0
  -16.5619   16.6427  -25.9504 C   0  0  0  0  0  0  0  0  0  0  0  0
  -21.8813   16.6520  -28.3009 C   0  0  0  0  0  0  0  0  0  0  0  0
  -18.8358   17.7018  -25.5371 C   0  0  0  0  0  0  0  0  0  0  0  0
  -23.7886   19.1845  -26.7750 O   0  0  0  0  0  0  0  0  0  0  0  0
  -20.1008   15.9088  -29.5996 N   0  0  0  0  0  0  0  0  0  0  0  0
  -18.5234   15.8635  -27.1111 C   0  0  0  0  0  0  0  0  0  0  0  0
  -20.4961   16.4037  -31.7941 O   0  0  0  0  0  0  0  0  0  0  0  0
  -23.4832   18.0410  -27.3885 C   0  0  0  0  0  0  0  0  0  0  0  0
  1  4  1  0
  1 20  2  0
  2  4  1  0
  2 15  2  0
  3  5  1  0
  3 20  1  0
  5 16  1  0
  5 19  2  0
  6 13  1  0
  6 19  1  0
  6 21  2  0
  7 10  1  0
  7 12  2  0
  7 22  1  0
  8 15  1  0
  9 16  2  0
  9 22  1  0
 10 14  1  0
 11 15  1  0
 11 17  1  0
 11 20  1  0
 13 14  2  0
 14 16  1  0
 18 22  1  0
M  END
>  <ID>  (1) 
conformer_0

$$$$
