
     RDKit          3D

 27 29  0  0  0  0  0  0  0  0999 V2000
  -22.2324   16.9326  -28.3043 C   0  0  0  0  0  0  0  0  0  0  0  0
  -17.0300   15.4531  -28.2987 C   0  0  0  0  0  0  0  0  0  0  0  0
  -15.2820   14.9550  -26.7835 C   0  0  0  0  0  0  0  0  0  0  0  0
  -14.4175   15.7308  -27.5167 C   0  0  0  0  0  0  0  0  0  0  0  0
  -18.4188   15.3614  -28.7056 C   0  0  0  0  0  0  0  0  0  0  0  0
  -20.6240   15.5855  -28.2463 C   0  0  0  0  0  0  0  0  0  0  0  0
  -18.4652   15.9392  -32.9524 C   0  0  0  0  0  0  0  0  0  0  0  0
  -17.1981   15.3757  -32.2644 C   0  0  0  0  0  0  0  0  0  0  0  0
  -24.0830   15.4108  -28.0717 C   0  0  0  0  0  0  0  0  0  0  0  0
  -16.5823   14.8005  -27.1741 C   0  0  0  0  0  0  0  0  0  0  0  0
  -18.6299   15.0561  -30.0144 N   0  0  0  0  0  0  0  0  0  0  0  0
  -26.4347   14.7016  -26.7254 C   0  0  0  0  0  0  0  0  0  0  0  0
  -21.4773   16.1764  -27.1507 C   0  0  0  0  0  0  0  0  0  0  0  0
  -22.9728   15.7903  -28.8251 O   0  0  0  0  0  0  0  0  0  0  0  0
  -16.3765   16.8414  -30.2721 O   0  0  0  0  0  0  0  0  0  0  0  0
  -16.1070   16.2109  -29.0898 C   0  0  0  0  0  0  0  0  0  0  0  0
  -17.6667   14.5951  -31.0244 C   0  0  0  0  0  0  0  0  0  0  0  0
  -24.9730   16.3910  -27.6860 C   0  0  0  0  0  0  0  0  0  0  0  0
  -19.4657   14.8367  -33.1256 C   0  0  0  0  0  0  0  0  0  0  0  0
  -26.1585   16.0478  -27.0172 C   0  0  0  0  0  0  0  0  0  0  0  0
  -14.8143   16.3941  -28.6586 C   0  0  0  0  0  0  0  0  0  0  0  0
  -19.3395   16.2981  -28.2092 C   0  0  0  0  0  0  0  0  0  0  0  0
  -20.5582   14.7865  -32.3212 O   0  0  0  0  0  0  0  0  0  0  0  0
  -18.3167   13.3304  -31.6405 C   0  0  0  0  0  0  0  0  0  0  0  0
  -25.4848   13.7506  -27.1166 C   0  0  0  0  0  0  0  0  0  0  0  0
  -18.6982   13.5221  -33.1080 C   0  0  0  0  0  0  0  0  0  0  0  0
  -24.3316   14.0947  -27.7964 C   0  0  0  0  0  0  0  0  0  0  0  0
  1 13  1  0
  1 14  1  0
  2  5  1  0
  2 10  1  0
  2 16  1  0
  3  4  1  0
  3 10  2  0
  4 21  1  0
  5 11  1  0
  5 22  1  0
  6 13  1  0
  6 22  1  0
  7  8  1  0
  7 19  1  0
  8 17  1  0
  9 14  1  0
  9 18  2  0
  9 27  1  0
 11 17  1  0
 12 20  2  0
 12 25  1  0
 15 16  1  0
 16 21  2  0
 17 24  1  0
 18 20  1  0
 19 23  1  0
 19 26  1  0
 24 26  1  0
 25 27  2  0
M  END
>  <ID>  (1) 
conformer_0

$$$$
