
     RDKit          3D

 30 32  0  0  0  0  0  0  0  0999 V2000
  -16.2373   17.6043  -28.7511 C   0  0  0  0  0  0  0  0  0  0  0  0
  -15.7199   15.5470  -26.7283 C   0  0  0  0  0  0  0  0  0  0  0  0
  -21.9030   17.7892  -28.1844 O   0  0  0  0  0  0  0  0  0  0  0  0
  -24.8000   12.8269  -30.8644 C   0  0  0  0  0  0  0  0  0  0  0  0
  -23.9739   16.4639  -27.8871 C   0  0  0  0  0  0  0  0  0  0  0  0
  -19.4987   16.5082  -30.3914 C   0  0  0  0  0  0  0  0  0  0  0  0
  -20.0046   18.9576  -29.3867 C   0  0  0  0  0  0  0  0  0  0  0  0
  -19.9091   15.8486  -31.6159 C   0  0  0  0  0  0  0  0  0  0  0  0
  -20.2226   16.5426  -29.2178 N   0  0  0  0  0  0  0  0  0  0  0  0
  -14.9033   16.6218  -26.9823 C   0  0  0  0  0  0  0  0  0  0  0  0
  -19.1527   15.6918  -32.9068 C   0  0  0  0  0  0  0  0  0  0  0  0
  -21.8473   18.2089  -26.7516 C   0  0  0  0  0  0  0  0  0  0  0  0
  -16.8936   15.2273  -27.2787 C   0  0  0  0  0  0  0  0  0  0  0  0
  -22.0467   15.1694  -30.8047 N   0  0  0  0  0  0  0  0  0  0  0  0
  -18.6977   18.7102  -29.9345 N   0  0  0  0  0  0  0  0  0  0  0  0
  -17.3672   16.8669  -29.0046 C   0  0  0  0  0  0  0  0  0  0  0  0
  -21.0427   15.1219  -31.6980 O   0  0  0  0  0  0  0  0  0  0  0  0
  -24.5738   13.9317  -28.7452 C   0  0  0  0  0  0  0  0  0  0  0  0
  -15.2076   17.5742  -27.9519 C   0  0  0  0  0  0  0  0  0  0  0  0
  -24.3618   13.8825  -30.1018 C   0  0  0  0  0  0  0  0  0  0  0  0
  -20.5530   17.8026  -28.6505 C   0  0  0  0  0  0  0  0  0  0  0  0
  -22.5057   16.4820  -28.2894 C   0  0  0  0  0  0  0  0  0  0  0  0
  -18.2047   17.3293  -30.1763 C   0  0  0  0  0  0  0  0  0  0  0  0
  -22.4092   15.5522  -29.4548 C   0  0  0  0  0  0  0  0  0  0  0  0
  -25.4404   11.7641  -30.2486 C   0  0  0  0  0  0  0  0  0  0  0  0
  -17.6187   15.7464  -28.2615 C   0  0  0  0  0  0  0  0  0  0  0  0
  -24.3820   15.0653  -27.8011 C   0  0  0  0  0  0  0  0  0  0  0  0
  -25.1562   12.8178  -28.1369 C   0  0  0  0  0  0  0  0  0  0  0  0
  -17.4010   17.2391  -31.3261 O   0  0  0  0  0  0  0  0  0  0  0  0
  -25.5869   11.7733  -28.8830 C   0  0  0  0  0  0  0  0  0  0  0  0
  1 16  1  0
  1 19  2  0
  2 10  2  0
  2 13  1  0
  3 12  1  0
  3 21  1  0
  4 20  2  0
  4 25  1  0
  5 22  1  0
  5 27  1  0
  6  8  2  3
  6  9  1  0
  6 23  1  0
  7 15  1  0
  7 21  1  0
  8 11  1  0
  8 17  1  0
  9 21  1  0
 10 19  1  0
 13 26  2  0
 14 17  1  0
 14 24  1  0
 15 23  1  0
 16 23  1  0
 16 26  1  0
 18 20  1  0
 18 27  1  0
 18 28  2  0
 22 24  1  0
 23 29  1  0
 25 30  2  0
 28 30  1  0
M  END
>  <ID>  (1) 
conformer_0

$$$$
