
     RDKit          3D

 21 25  0  0  0  0  0  0  0  0999 V2000
  -20.8337   15.9738  -31.6806 C   0  0  0  0  0  0  0  0  0  0  0  0
  -15.9307   15.9987  -26.2164 C   0  0  0  0  0  0  0  0  0  0  0  0
  -21.8022   16.0820  -29.3955 C   0  0  0  0  0  0  0  0  0  0  0  0
  -20.0910   15.0085  -32.4059 N   0  0  0  0  0  0  0  0  0  0  0  0
  -23.1647   16.1442  -29.6440 C   0  0  0  0  0  0  0  0  0  0  0  0
  -21.5909   16.2006  -28.0207 C   0  0  0  0  0  0  0  0  0  0  0  0
  -18.2783   16.4115  -26.4934 C   0  0  0  0  0  0  0  0  0  0  0  0
  -20.7661   15.9219  -30.2451 N   0  0  0  0  0  0  0  0  0  0  0  0
  -20.3521   16.3287  -27.4901 C   0  0  0  0  0  0  0  0  0  0  0  0
  -17.1671   17.3265  -24.5626 O   0  0  0  0  0  0  0  0  0  0  0  0
  -18.5769   17.7780  -24.2313 C   0  0  0  0  0  0  0  0  0  0  0  0
  -19.5290   15.7380  -29.6810 C   0  0  0  0  0  0  0  0  0  0  0  0
  -19.6818   16.8201  -26.3372 C   0  0  0  0  0  0  0  0  0  0  0  0
  -23.7981   16.1951  -28.3903 C   0  0  0  0  0  0  0  0  0  0  0  0
  -18.2001   15.6701  -27.6827 C   0  0  0  0  0  0  0  0  0  0  0  0
  -19.3589   15.8208  -28.3779 N   0  0  0  0  0  0  0  0  0  0  0  0
  -19.8673   17.6197  -25.0663 C   0  0  0  0  0  0  0  0  0  0  0  0
  -17.1091   16.5837  -25.7790 C   0  0  0  0  0  0  0  0  0  0  0  0
  -17.1214   14.9500  -28.0419 C   0  0  0  0  0  0  0  0  0  0  0  0
  -15.9591   15.1161  -27.3004 C   0  0  0  0  0  0  0  0  0  0  0  0
  -22.8144   16.1985  -27.3794 C   0  0  0  0  0  0  0  0  0  0  0  0
  1  4  1  0
  1  8  1  0
  2 18  2  0
  2 20  1  0
  3  5  1  0
  3  6  2  0
  3  8  1  0
  5 14  1  0
  6  9  1  0
  6 21  1  0
  7 13  1  0
  7 15  2  0
  7 18  1  0
  8 12  1  0
  9 13  2  0
  9 16  1  0
 10 11  1  0
 10 18  1  0
 11 17  1  0
 12 16  1  0
 13 17  1  0
 14 21  1  0
 15 16  1  0
 15 19  1  0
 19 20  2  0
M  END
>  <ID>  (1) 
conformer_0

$$$$
