
     RDKit          3D

 20 22  0  0  0  0  0  0  0  0999 V2000
  -20.0862   15.5946  -32.2936 O   0  0  0  0  0  0  0  0  0  0  0  0
  -21.2689   16.4960  -27.5415 C   0  0  0  0  0  0  0  0  0  0  0  0
  -22.0657   16.4224  -28.6861 C   0  0  0  0  0  0  0  0  0  0  0  0
  -18.0080   15.8318  -31.2601 N   0  0  0  0  0  0  0  0  0  0  0  0
  -19.9424   16.2977  -27.6080 C   0  0  0  0  0  0  0  0  0  0  0  0
  -15.7647   13.1820  -27.0170 C   0  0  0  0  0  0  0  0  0  0  0  0
  -16.5470   15.8037  -30.6368 C   0  0  0  0  0  0  0  0  0  0  0  0
  -15.9969   14.9915  -28.4291 N   0  0  0  0  0  0  0  0  0  0  0  0
  -18.0453   15.8137  -28.8394 N   0  0  0  0  0  0  0  0  0  0  0  0
  -24.2913   16.9659  -29.5770 C   0  0  0  0  0  0  0  0  0  0  0  0
  -20.1874   16.0275  -29.9801 C   0  0  0  0  0  0  0  0  0  0  0  0
  -21.5161   16.2205  -29.8760 N   0  0  0  0  0  0  0  0  0  0  0  0
  -14.6994   14.1957  -26.5813 C   0  0  0  0  0  0  0  0  0  0  0  0
  -23.4340   16.6222  -28.5168 N   0  0  0  0  0  0  0  0  0  0  0  0
  -14.9677   15.4257  -27.4615 C   0  0  0  0  0  0  0  0  0  0  0  0
  -16.7830   13.9844  -27.7160 C   0  0  0  0  0  0  0  0  0  0  0  0
  -19.4622   15.8204  -31.2245 C   0  0  0  0  0  0  0  0  0  0  0  0
  -21.8118   16.7659  -26.4011 O   0  0  0  0  0  0  0  0  0  0  0  0
  -19.3846   16.0385  -28.8248 C   0  0  0  0  0  0  0  0  0  0  0  0
  -16.7726   15.9006  -29.1309 C   0  0  0  0  0  0  0  0  0  0  0  0
  1 17  2  0
  2  3  2  0
  2  5  1  0
  2 18  1  0
  3 12  1  0
  3 14  1  0
  4  7  1  0
  4 17  1  0
  5 19  2  0
  6 13  1  0
  6 16  1  0
  7 20  1  0
  8 15  1  0
  8 16  1  0
  8 20  1  0
  9 19  1  0
  9 20  1  0
 10 14  1  0
 11 12  2  0
 11 17  1  0
 11 19  1  0
 13 15  1  0
M  END
>  <ID>  (1) 
conformer_0

$$$$
