
     RDKit          3D

 35 41  0  0  0  0  0  0  0  0999 V2000
  -13.5066   17.1555  -28.8659 C   0  0  0  0  0  0  0  0  0  0  0  0
  -18.0133   15.7923  -29.9326 C   0  0  0  0  0  0  0  0  0  0  0  0
  -19.7185   16.3526  -31.5101 C   0  0  0  0  0  0  0  0  0  0  0  0
  -23.4979   16.4659  -28.4440 C   0  0  0  0  0  0  0  0  0  0  0  0
  -14.3217   16.0977  -28.1893 C   0  0  0  0  0  0  0  0  0  0  0  0
  -17.0434   16.1866  -30.9162 C   0  0  0  0  0  0  0  0  0  0  0  0
  -21.4734   17.2327  -27.1141 C   0  0  0  0  0  0  0  0  0  0  0  0
  -21.9738   16.5379  -30.5479 C   0  0  0  0  0  0  0  0  0  0  0  0
  -20.3455   16.3342  -25.1894 C   0  0  0  0  0  0  0  0  0  0  0  0
  -19.5860   15.9203  -27.6749 C   0  0  0  0  0  0  0  0  0  0  0  0
  -16.3219   14.8915  -28.5162 C   0  0  0  0  0  0  0  0  0  0  0  0
  -15.7092   16.4458  -30.3701 C   0  0  0  0  0  0  0  0  0  0  0  0
  -17.6546   14.7845  -28.9564 C   0  0  0  0  0  0  0  0  0  0  0  0
  -25.9554   15.1875  -28.4060 C   0  0  0  0  0  0  0  0  0  0  0  0
  -25.1129   15.0581  -29.4696 C   0  0  0  0  0  0  0  0  0  0  0  0
  -23.0719   15.6298  -30.7159 C   0  0  0  0  0  0  0  0  0  0  0  0
  -21.5598   18.3111  -26.5031 O   0  0  0  0  0  0  0  0  0  0  0  0
  -22.1504   16.8878  -28.2831 C   0  0  0  0  0  0  0  0  0  0  0  0
  -23.8942   15.7130  -29.5376 C   0  0  0  0  0  0  0  0  0  0  0  0
  -25.6229   16.0471  -27.3647 C   0  0  0  0  0  0  0  0  0  0  0  0
  -15.5098   15.9450  -29.0174 C   0  0  0  0  0  0  0  0  0  0  0  0
  -21.3374   16.3980  -29.3400 N   0  0  0  0  0  0  0  0  0  0  0  0
  -19.4075   15.7647  -30.2785 C   0  0  0  0  0  0  0  0  0  0  0  0
  -15.3231   17.8537  -30.5904 C   0  0  0  0  0  0  0  0  0  0  0  0
  -27.0911   14.5452  -28.3654 F   0  0  0  0  0  0  0  0  0  0  0  0
  -17.4277   17.0933  -31.9758 C   0  0  0  0  0  0  0  0  0  0  0  0
  -18.8868   17.4439  -31.8694 C   0  0  0  0  0  0  0  0  0  0  0  0
  -15.7848   14.3232  -27.2949 C   0  0  0  0  0  0  0  0  0  0  0  0
  -14.4467   15.0540  -27.0940 C   0  0  0  0  0  0  0  0  0  0  0  0
  -20.5257   16.2420  -26.6125 C   0  0  0  0  0  0  0  0  0  0  0  0
  -20.5647   15.7249  -32.5452 C   0  0  0  0  0  0  0  0  0  0  0  0
  -22.0175   17.6445  -31.1630 O   0  0  0  0  0  0  0  0  0  0  0  0
  -24.4120   16.6899  -27.4071 C   0  0  0  0  0  0  0  0  0  0  0  0
  -20.0748   15.9542  -29.0153 C   0  0  0  0  0  0  0  0  0  0  0  0
  -14.1166   18.1108  -29.7636 C   0  0  0  0  0  0  0  0  0  0  0  0
  1  5  1  0
  1 35  1  0
  2  6  1  0
  2 13  1  0
  2 23  1  0
  3 23  1  0
  3 27  1  0
  3 31  1  0
  4 18  1  0
  4 19  1  0
  4 33  1  0
  5 21  2  0
  5 29  1  0
  6 12  1  0
  6 26  1  0
  7 17  2  0
  7 18  1  0
  7 30  1  0
  8 16  1  0
  8 22  1  0
  8 32  2  0
  9 30  1  0
 10 30  1  0
 10 34  2  0
 11 13  1  0
 11 21  1  0
 11 28  1  0
 12 21  1  0
 12 24  1  0
 14 15  2  0
 14 20  1  0
 14 25  1  0
 15 19  1  0
 16 19  1  0
 18 22  1  0
 20 33  2  0
 22 34  1  0
 23 34  1  0
 24 35  1  0
 26 27  1  0
 28 29  1  0
M  END
>  <ID>  (1) 
conformer_0

$$$$
