
     RDKit          3D

 17 16  0  0  0  0  0  0  0  0999 V2000
  -22.2018   17.8106  -28.8971 C   0  0  0  0  0  0  0  0  0  0  0  0
  -16.4977   16.3285  -26.4876 C   0  0  0  0  0  0  0  0  0  0  0  0
  -22.1041   16.2764  -29.2004 C   0  0  0  0  0  0  0  0  0  0  0  0
  -17.1447   15.3470  -27.4485 C   0  0  0  0  0  0  0  0  0  0  0  0
  -23.1407   15.5140  -28.3841 C   0  0  0  0  0  0  0  0  0  0  0  0
  -19.0315   17.2609  -25.4283 C   0  0  0  0  0  0  0  0  0  0  0  0
  -17.7333   15.1592  -29.9468 C   0  0  0  0  0  0  0  0  0  0  0  0
  -19.5862   16.0334  -28.0217 C   0  0  0  0  0  0  0  0  0  0  0  0
  -24.0976   14.9995  -29.4841 C   0  0  0  0  0  0  0  0  0  0  0  0
  -18.5952   15.1834  -27.2393 C   0  0  0  0  0  0  0  0  0  0  0  0
  -20.8486   16.5116  -27.2901 C   0  0  0  0  0  0  0  0  0  0  0  0
  -17.5533   16.9508  -25.5643 C   0  0  0  0  0  0  0  0  0  0  0  0
  -21.5940   17.8616  -27.4313 C   0  0  0  0  0  0  0  0  0  0  0  0
  -21.1708   15.9895  -30.3268 C   0  0  0  0  0  0  0  0  0  0  0  0
  -17.6199   16.3977  -30.9083 C   0  0  0  0  0  0  0  0  0  0  0  0
  -16.8565   17.3913  -24.2790 C   0  0  0  0  0  0  0  0  0  0  0  0
  -16.6543   15.3724  -28.8564 C   0  0  0  0  0  0  0  0  0  0  0  0
  1  3  1  0
  1 13  1  0
  2  4  1  0
  2 12  1  0
  3  5  1  0
  3 14  1  0
  4 10  1  0
  4 17  1  0
  5  9  1  0
  6 12  1  0
  7 15  1  0
  7 17  1  0
  8 10  1  0
  8 11  1  0
 11 13  1  0
 12 16  1  0
M  END
>  <ID>  (1) 
conformer_0

$$$$
