
     RDKit          3D

  9  9  0  0  0  0  0  0  0  0999 V2000
  -19.7816   15.8149  -28.5516 C   0  0  0  0  0  0  0  0  0  0  0  0
  -17.3038   15.6486  -27.3213 C   0  0  0  0  0  0  0  0  0  0  0  0
  -19.6086   16.2701  -27.2707 C   0  0  0  0  0  0  0  0  0  0  0  0
  -18.3705   16.2020  -26.6546 C   0  0  0  0  0  0  0  0  0  0  0  0
  -17.4733   15.1800  -28.5922 C   0  0  0  0  0  0  0  0  0  0  0  0
  -18.7194   15.2504  -29.2339 C   0  0  0  0  0  0  0  0  0  0  0  0
  -16.0707   15.6154  -26.7400 O   0  0  0  0  0  0  0  0  0  0  0  0
  -21.0858   15.5747  -30.5975 O   0  0  0  0  0  0  0  0  0  0  0  0
  -21.1542   15.9911  -29.2007 C   0  0  0  0  0  0  0  0  0  0  0  0
  1  3  2  0
  1  6  1  0
  1  9  1  0
  2  4  1  0
  2  5  2  0
  2  7  1  0
  3  4  1  0
  5  6  1  0
  8  9  1  0
M  END
>  <ID>  (1) 
conformer_0

$$$$
