
     RDKit          3D

 27 30  0  0  0  0  0  0  0  0999 V2000
  -18.8173   15.8769  -30.3437 C   0  0  0  0  0  0  0  0  0  0  0  0
  -21.7918   14.8532  -30.9643 C   0  0  0  0  0  0  0  0  0  0  0  0
  -19.7205   14.7612  -32.2705 C   0  0  0  0  0  0  0  0  0  0  0  0
  -22.6136   18.8608  -26.8172 C   0  0  0  0  0  0  0  0  0  0  0  0
  -21.2459   18.9519  -26.5405 C   0  0  0  0  0  0  0  0  0  0  0  0
  -14.8720   14.7529  -26.8597 C   0  0  0  0  0  0  0  0  0  0  0  0
  -16.9721   15.9126  -28.3890 C   0  0  0  0  0  0  0  0  0  0  0  0
  -16.0433   14.0335  -27.0480 C   0  0  0  0  0  0  0  0  0  0  0  0
  -20.9805   14.5154  -32.0205 C   0  0  0  0  0  0  0  0  0  0  0  0
  -19.5924   15.9467  -27.6903 C   0  0  0  0  0  0  0  0  0  0  0  0
  -20.4562   17.9207  -26.9114 C   0  0  0  0  0  0  0  0  0  0  0  0
  -22.3879   16.7171  -27.9117 C   0  0  0  0  0  0  0  0  0  0  0  0
  -23.2101   14.4121  -30.6659 C   0  0  0  0  0  0  0  0  0  0  0  0
  -23.1355   17.7420  -27.4174 C   0  0  0  0  0  0  0  0  0  0  0  0
  -21.2131   15.5980  -30.0081 C   0  0  0  0  0  0  0  0  0  0  0  0
  -14.6797   15.9824  -27.4474 C   0  0  0  0  0  0  0  0  0  0  0  0
  -15.6939   16.5232  -28.2047 C   0  0  0  0  0  0  0  0  0  0  0  0
  -17.7483   16.4778  -29.4779 C   0  0  0  0  0  0  0  0  0  0  0  0
  -23.8623   15.6672  -29.9701 C   0  0  0  0  0  0  0  0  0  0  0  0
  -20.8676   16.8161  -27.6077 C   0  0  0  0  0  0  0  0  0  0  0  0
  -17.0645   14.5989  -27.7584 C   0  0  0  0  0  0  0  0  0  0  0  0
  -24.6002   15.5670  -27.8468 C   0  0  0  0  0  0  0  0  0  0  0  0
  -18.6944   15.3678  -31.6355 C   0  0  0  0  0  0  0  0  0  0  0  0
  -18.3191   16.7112  -28.1778 O   0  0  0  0  0  0  0  0  0  0  0  0
  -23.3102   15.7687  -28.6001 N   0  0  0  0  0  0  0  0  0  0  0  0
  -20.0373   15.8987  -29.8734 C   0  0  0  0  0  0  0  0  0  0  0  0
  -17.1328   17.4257  -30.2421 O   0  0  0  0  0  0  0  0  0  0  0  0
  1 18  1  0
  1 23  2  0
  1 26  1  0
  2  9  1  0
  2 13  1  0
  2 15  1  0
  3  9  2  0
  3 23  1  0
  4  5  1  0
  4 14  1  0
  5 11  2  0
  6  8  1  0
  6 16  1  0
  7 17  1  0
  7 18  1  0
  7 21  1  0
  8 21  2  0
 10 20  1  0
 10 24  1  0
 11 20  1  0
 12 14  2  0
 12 20  1  0
 12 25  1  0
 13 19  1  0
 15 26  2  0
 16 17  2  0
 18 24  1  0
 18 27  1  0
 19 25  1  0
 22 25  1  0
M  END
>  <ID>  (1) 
conformer_0

$$$$
