
     RDKit          3D

 17 16  0  0  0  0  0  0  0  0999 V2000
  -14.3231   15.4985  -27.5957 C   0  0  0  0  0  0  0  0  0  0  0  0
  -16.5413   14.9522  -28.4172 C   0  0  0  0  0  0  0  0  0  0  0  0
  -21.2960   16.3861  -27.7234 C   0  0  0  0  0  0  0  0  0  0  0  0
  -16.1743   14.0717  -27.3813 O   0  0  0  0  0  0  0  0  0  0  0  0
  -18.8230   15.8155  -31.8174 C   0  0  0  0  0  0  0  0  0  0  0  0
  -15.8013   15.3996  -27.1256 C   0  0  0  0  0  0  0  0  0  0  0  0
  -18.6486   15.7486  -29.3853 O   0  0  0  0  0  0  0  0  0  0  0  0
  -17.5853   13.9957  -30.6913 O   0  0  0  0  0  0  0  0  0  0  0  0
  -18.9871   14.9537  -33.0504 C   0  0  0  0  0  0  0  0  0  0  0  0
  -20.2877   15.9264  -26.6839 C   0  0  0  0  0  0  0  0  0  0  0  0
  -18.2949   15.1323  -30.5855 C   0  0  0  0  0  0  0  0  0  0  0  0
  -17.7441   14.3310  -33.4697 O   0  0  0  0  0  0  0  0  0  0  0  0
  -18.9319   15.7156  -27.0464 O   0  0  0  0  0  0  0  0  0  0  0  0
  -19.9039   16.6394  -31.4964 O   0  0  0  0  0  0  0  0  0  0  0  0
  -18.0217   15.2121  -28.1076 C   0  0  0  0  0  0  0  0  0  0  0  0
  -21.4434   15.5844  -28.7860 O   0  0  0  0  0  0  0  0  0  0  0  0
  -20.3317   16.9733  -25.5762 C   0  0  0  0  0  0  0  0  0  0  0  0
  1  6  1  0
  2  4  1  0
  2 15  1  0
  3 10  1  0
  3 16  1  0
  4  6  1  0
  5  9  1  0
  5 11  1  0
  5 14  1  0
  7 11  1  0
  7 15  1  0
  8 11  2  0
  9 12  1  0
 10 13  1  0
 10 17  1  0
 13 15  1  0
M  END
>  <ID>  (1) 
conformer_0

$$$$
