
     RDKit          3D

 19 21  0  0  0  0  0  0  0  0999 V2000
  -15.8851   14.7269  -26.9291 C   0  0  0  0  0  0  0  0  0  0  0  0
  -19.5862   17.0004  -32.5898 C   0  0  0  0  0  0  0  0  0  0  0  0
  -16.9132   14.1750  -27.6404 C   0  0  0  0  0  0  0  0  0  0  0  0
  -16.9721   16.8441  -26.9749 C   0  0  0  0  0  0  0  0  0  0  0  0
  -22.1913   16.1082  -29.1327 C   0  0  0  0  0  0  0  0  0  0  0  0
  -22.2798   17.2620  -27.0499 C   0  0  0  0  0  0  0  0  0  0  0  0
  -20.2075   17.0447  -28.1508 C   0  0  0  0  0  0  0  0  0  0  0  0
  -20.1024   16.2754  -30.4328 C   0  0  0  0  0  0  0  0  0  0  0  0
  -20.9144   17.5363  -27.1146 C   0  0  0  0  0  0  0  0  0  0  0  0
  -17.9521   16.3051  -27.7185 C   0  0  0  0  0  0  0  0  0  0  0  0
  -18.8972   17.1413  -28.2067 N   0  0  0  0  0  0  0  0  0  0  0  0
  -20.8989   16.4362  -29.2542 C   0  0  0  0  0  0  0  0  0  0  0  0
  -22.8900   16.5070  -28.0501 C   0  0  0  0  0  0  0  0  0  0  0  0
  -20.0704   17.2769  -31.3590 C   0  0  0  0  0  0  0  0  0  0  0  0
  -19.0471   15.7459  -32.8511 C   0  0  0  0  0  0  0  0  0  0  0  0
  -19.0027   14.8279  -31.8413 C   0  0  0  0  0  0  0  0  0  0  0  0
  -17.9691   14.9484  -28.0043 C   0  0  0  0  0  0  0  0  0  0  0  0
  -19.4948   15.1012  -30.6604 N   0  0  0  0  0  0  0  0  0  0  0  0
  -15.9213   16.0505  -26.5630 C   0  0  0  0  0  0  0  0  0  0  0  0
  1  3  2  0
  1 19  1  0
  2 14  2  0
  2 15  1  0
  3 17  1  0
  4 10  1  0
  4 19  2  0
  5 12  1  0
  5 13  2  0
  6  9  1  0
  6 13  1  0
  7  9  2  0
  7 11  1  0
  7 12  1  0
  8 12  1  0
  8 14  1  0
  8 18  2  0
 10 11  1  0
 10 17  2  0
 15 16  2  0
 16 18  1  0
M  END
>  <ID>  (1) 
conformer_0

$$$$
