
     RDKit          3D

 30 33  0  0  0  0  0  0  0  0999 V2000
  -16.0651   15.4694  -27.7731 C   0  0  0  0  0  0  0  0  0  0  0  0
  -19.6621   18.7638  -29.0096 C   0  0  0  0  0  0  0  0  0  0  0  0
  -18.3442   20.6343  -28.1495 C   0  0  0  0  0  0  0  0  0  0  0  0
  -16.0032   15.4533  -30.2883 C   0  0  0  0  0  0  0  0  0  0  0  0
  -16.0663   17.4775  -28.8441 C   0  0  0  0  0  0  0  0  0  0  0  0
  -16.4841   16.9334  -30.2482 C   0  0  0  0  0  0  0  0  0  0  0  0
  -17.9557   17.4634  -30.5682 C   0  0  0  0  0  0  0  0  0  0  0  0
  -17.3623   19.8019  -28.9082 C   0  0  0  0  0  0  0  0  0  0  0  0
  -22.5818   17.9395  -27.0490 O   0  0  0  0  0  0  0  0  0  0  0  0
  -20.2667   16.6684  -31.2308 C   0  0  0  0  0  0  0  0  0  0  0  0
  -19.1381   16.6634  -30.3157 O   0  0  0  0  0  0  0  0  0  0  0  0
  -15.5093   13.2582  -27.1942 C   0  0  0  0  0  0  0  0  0  0  0  0
  -19.6969   20.0167  -28.0719 C   0  0  0  0  0  0  0  0  0  0  0  0
  -18.5665   15.9929  -32.9062 C   0  0  0  0  0  0  0  0  0  0  0  0
  -16.3801   17.3233  -26.2353 C   0  0  0  0  0  0  0  0  0  0  0  0
  -20.8622   17.7779  -28.6372 C   0  0  0  0  0  0  0  0  0  0  0  0
  -19.0551   16.0286  -26.9569 C   0  0  0  0  0  0  0  0  0  0  0  0
  -21.4695   16.4085  -29.0666 C   0  0  0  0  0  0  0  0  0  0  0  0
  -16.0537   13.3104  -28.6333 C   0  0  0  0  0  0  0  0  0  0  0  0
  -15.0054   18.2365  -28.8134 O   0  0  0  0  0  0  0  0  0  0  0  0
  -15.3886   14.6624  -26.7443 C   0  0  0  0  0  0  0  0  0  0  0  0
  -21.3245   18.1147  -27.1857 C   0  0  0  0  0  0  0  0  0  0  0  0
  -20.2316   14.4664  -32.0426 O   0  0  0  0  0  0  0  0  0  0  0  0
  -21.5574   16.1907  -30.5981 C   0  0  0  0  0  0  0  0  0  0  0  0
  -16.0780   14.7252  -29.0081 C   0  0  0  0  0  0  0  0  0  0  0  0
  -19.7753   15.6766  -32.2620 C   0  0  0  0  0  0  0  0  0  0  0  0
  -20.5670   18.4305  -26.1339 O   0  0  0  0  0  0  0  0  0  0  0  0
  -16.6885   16.7917  -27.6716 C   0  0  0  0  0  0  0  0  0  0  0  0
  -18.2259   18.7489  -29.6515 C   0  0  0  0  0  0  0  0  0  0  0  0
  -18.1892   16.8962  -27.8340 C   0  0  0  0  0  0  0  0  0  0  0  0
  1 21  1  0
  1 25  1  0
  1 28  1  0
  2 13  1  0
  2 16  1  0
  2 29  1  0
  3  8  1  0
  3 13  1  0
  4  6  1  0
  4 25  1  0
  5  6  1  0
  5 20  1  0
  5 28  1  0
  6  7  1  0
  7 11  1  0
  7 29  1  0
  8 29  1  0
  9 22  2  0
 10 11  1  0
 10 24  1  0
 10 26  1  0
 12 19  1  0
 12 21  1  0
 14 26  1  0
 15 28  1  0
 16 18  1  0
 16 22  1  0
 17 30  1  0
 18 24  1  0
 19 25  1  0
 22 27  1  0
 23 26  1  0
 28 30  1  0
M  END
>  <ID>  (1) 
conformer_0

$$$$
