
     RDKit          3D

 28 31  0  0  0  0  0  0  0  0999 V2000
  -18.5189   16.9894  -26.0211 C   0  0  0  0  0  0  0  0  0  0  0  0
  -19.0431   16.5952  -27.2295 C   0  0  0  0  0  0  0  0  0  0  0  0
  -18.1407   17.2882  -31.9192 N   0  0  0  0  0  0  0  0  0  0  0  0
  -20.3656   17.2531  -27.3985 C   0  0  0  0  0  0  0  0  0  0  0  0
  -15.1850   15.6925  -26.3310 O   0  0  0  0  0  0  0  0  0  0  0  0
  -23.0920   15.7101  -29.1992 N   0  0  0  0  0  0  0  0  0  0  0  0
  -16.4772   15.9232  -26.6106 C   0  0  0  0  0  0  0  0  0  0  0  0
  -17.0392   15.6243  -33.7681 C   0  0  0  0  0  0  0  0  0  0  0  0
  -24.9979   16.3505  -27.7832 C   0  0  0  0  0  0  0  0  0  0  0  0
  -20.5292   16.5904  -29.7020 C   0  0  0  0  0  0  0  0  0  0  0  0
  -19.7521   17.5950  -29.8709 O   0  0  0  0  0  0  0  0  0  0  0  0
  -17.1954   16.7062  -25.7295 C   0  0  0  0  0  0  0  0  0  0  0  0
  -18.2879   15.3502  -33.2056 C   0  0  0  0  0  0  0  0  0  0  0  0
  -20.7735   17.6503  -26.1305 O   0  0  0  0  0  0  0  0  0  0  0  0
  -17.0742   15.4052  -27.7564 C   0  0  0  0  0  0  0  0  0  0  0  0
  -18.8492   16.1751  -32.3058 C   0  0  0  0  0  0  0  0  0  0  0  0
  -16.3468   16.7634  -33.3387 C   0  0  0  0  0  0  0  0  0  0  0  0
  -22.3829   15.3337  -26.9767 O   0  0  0  0  0  0  0  0  0  0  0  0
  -22.2463   15.8189  -28.1004 C   0  0  0  0  0  0  0  0  0  0  0  0
  -21.2469   15.9374  -30.7306 N   0  0  0  0  0  0  0  0  0  0  0  0
  -21.0994   16.5130  -28.4190 C   0  0  0  0  0  0  0  0  0  0  0  0
  -23.3501   15.7458  -31.4129 O   0  0  0  0  0  0  0  0  0  0  0  0
  -20.2968   15.7325  -31.8659 C   0  0  0  0  0  0  0  0  0  0  0  0
  -22.6002   15.7752  -30.4765 C   0  0  0  0  0  0  0  0  0  0  0  0
  -24.4469   15.7498  -29.0063 O   0  0  0  0  0  0  0  0  0  0  0  0
  -16.9415   17.5638  -32.3872 N   0  0  0  0  0  0  0  0  0  0  0  0
  -19.5099   17.6672  -25.1997 C   0  0  0  0  0  0  0  0  0  0  0  0
  -18.3625   15.7284  -28.0200 C   0  0  0  0  0  0  0  0  0  0  0  0
  1  2  2  0
  1 12  1  0
  1 27  1  0
  2  4  1  0
  2 28  1  0
  3 16  2  0
  3 26  1  0
  4 14  1  0
  4 21  1  0
  5  7  1  0
  6 19  1  0
  6 24  1  0
  6 25  1  0
  7 12  2  0
  7 15  1  0
  8 13  2  0
  8 17  1  0
  9 25  1  0
 10 11  2  0
 10 20  1  0
 10 21  1  0
 13 16  1  0
 14 27  1  0
 15 28  2  0
 16 23  1  0
 17 26  2  0
 18 19  2  0
 19 21  1  0
 20 23  1  0
 20 24  1  0
 22 24  2  0
M  END
>  <ID>  (1) 
conformer_0

$$$$
