
     RDKit          3D

 28 32  0  0  0  0  0  0  0  0999 V2000
  -16.2835   16.7179  -26.0189 C   0  0  0  0  0  0  0  0  0  0  0  0
  -21.1169   16.4777  -29.1454 C   0  0  0  0  0  0  0  0  0  0  0  0
  -21.4627   16.3360  -30.5811 C   0  0  0  0  0  0  0  0  0  0  0  0
  -22.5767   16.0614  -30.8444 O   0  0  0  0  0  0  0  0  0  0  0  0
  -17.8700   15.9515  -31.7809 C   0  0  0  0  0  0  0  0  0  0  0  0
  -20.9991   17.7980  -27.0109 C   0  0  0  0  0  0  0  0  0  0  0  0
  -21.1994   20.1855  -27.3730 C   0  0  0  0  0  0  0  0  0  0  0  0
  -18.6909   17.4991  -25.9189 N   0  0  0  0  0  0  0  0  0  0  0  0
  -21.2576   20.7363  -24.6686 C   0  0  0  0  0  0  0  0  0  0  0  0
  -20.2994   16.8109  -32.8556 C   0  0  0  0  0  0  0  0  0  0  0  0
  -17.6108   16.7213  -26.3403 C   0  0  0  0  0  0  0  0  0  0  0  0
  -19.1183   16.7062  -33.6213 C   0  0  0  0  0  0  0  0  0  0  0  0
  -19.0614   15.9804  -31.0554 C   0  0  0  0  0  0  0  0  0  0  0  0
  -18.0302   15.8630  -27.3376 C   0  0  0  0  0  0  0  0  0  0  0  0
  -18.9980   15.5773  -29.7603 C   0  0  0  0  0  0  0  0  0  0  0  0
  -21.4211   19.0340  -26.4454 N   0  0  0  0  0  0  0  0  0  0  0  0
  -19.7321   17.2517  -26.7513 C   0  0  0  0  0  0  0  0  0  0  0  0
  -15.9687   14.7915  -27.5182 C   0  0  0  0  0  0  0  0  0  0  0  0
  -19.8470   16.0506  -28.8306 C   0  0  0  0  0  0  0  0  0  0  0  0
  -21.1150   19.2447  -25.0751 C   0  0  0  0  0  0  0  0  0  0  0  0
  -19.1553   16.9493  -34.9373 F   0  0  0  0  0  0  0  0  0  0  0  0
  -15.4592   15.7260  -26.6339 C   0  0  0  0  0  0  0  0  0  0  0  0
  -17.9054   16.2981  -33.1058 C   0  0  0  0  0  0  0  0  0  0  0  0
  -20.3126   16.3954  -31.5294 C   0  0  0  0  0  0  0  0  0  0  0  0
  -21.7875   17.2139  -28.0862 C   0  0  0  0  0  0  0  0  0  0  0  0
  -21.1048   18.2081  -24.1956 O   0  0  0  0  0  0  0  0  0  0  0  0
  -19.2832   16.2796  -27.6599 N   0  0  0  0  0  0  0  0  0  0  0  0
  -17.2972   14.8606  -27.8780 C   0  0  0  0  0  0  0  0  0  0  0  0
  1 11  2  0
  1 22  1  0
  2  3  1  0
  2 19  2  0
  2 25  1  0
  3  4  2  0
  3 24  1  0
  5 13  1  0
  5 23  1  0
  6 16  1  0
  6 17  2  0
  6 25  1  0
  7 16  1  0
  8 11  1  0
  8 17  1  0
  9 20  1  0
 10 12  1  0
 10 24  1  0
 11 14  1  0
 12 21  1  0
 12 23  2  0
 13 15  1  0
 13 24  2  0
 14 27  1  0
 14 28  2  0
 15 19  1  0
 16 20  1  0
 17 27  1  0
 18 22  2  0
 18 28  1  0
 19 27  1  0
 20 26  2  0
M  END
>  <ID>  (1) 
conformer_0

$$$$
