
     RDKit          3D

 22 25  0  0  0  0  0  0  0  0999 V2000
  -19.2415   16.2995  -33.3944 C   0  0  0  0  0  0  0  0  0  0  0  0
  -17.3553   15.4076  -27.6866 C   0  0  0  0  0  0  0  0  0  0  0  0
  -19.6519   17.1743  -32.3867 C   0  0  0  0  0  0  0  0  0  0  0  0
  -21.1943   16.6806  -26.1281 C   0  0  0  0  0  0  0  0  0  0  0  0
  -16.8854   16.3698  -26.8693 C   0  0  0  0  0  0  0  0  0  0  0  0
  -20.1393   17.4496  -30.0533 N   0  0  0  0  0  0  0  0  0  0  0  0
  -22.0936   17.2176  -27.0637 C   0  0  0  0  0  0  0  0  0  0  0  0
  -18.6430   15.0706  -29.6265 N   0  0  0  0  0  0  0  0  0  0  0  0
  -15.6128   16.2714  -26.3569 C   0  0  0  0  0  0  0  0  0  0  0  0
  -19.7042   16.2648  -27.9192 C   0  0  0  0  0  0  0  0  0  0  0  0
  -19.0336   15.4826  -30.8036 N   0  0  0  0  0  0  0  0  0  0  0  0
  -15.3681   14.1424  -27.4837 C   0  0  0  0  0  0  0  0  0  0  0  0
  -21.7657   17.3715  -28.3880 C   0  0  0  0  0  0  0  0  0  0  0  0
  -16.6273   14.2955  -28.0053 C   0  0  0  0  0  0  0  0  0  0  0  0
  -19.9985   16.1981  -26.5790 C   0  0  0  0  0  0  0  0  0  0  0  0
  -20.5249   16.9702  -28.8253 C   0  0  0  0  0  0  0  0  0  0  0  0
  -19.2506   16.6838  -34.7504 N   0  0  0  0  0  0  0  0  0  0  0  0
  -19.6163   16.7239  -31.0913 C   0  0  0  0  0  0  0  0  0  0  0  0
  -18.5852   15.5541  -28.4320 C   0  0  0  0  0  0  0  0  0  0  0  0
  -14.8454   15.1256  -26.6744 C   0  0  0  0  0  0  0  0  0  0  0  0
  -18.8063   14.9954  -33.1127 C   0  0  0  0  0  0  0  0  0  0  0  0
  -18.7244   14.5898  -31.8222 C   0  0  0  0  0  0  0  0  0  0  0  0
  1  3  1  0
  1 17  1  0
  1 21  1  0
  2  5  2  0
  2 14  1  0
  2 19  1  0
  3 18  2  0
  4  7  1  0
  4 15  2  0
  5  9  1  0
  6 16  1  0
  6 18  1  0
  7 13  2  0
  8 11  1  0
  8 19  1  0
  9 20  2  0
 10 15  1  0
 10 16  1  0
 10 19  1  0
 11 18  1  0
 11 22  1  0
 12 14  2  0
 12 20  1  0
 13 16  1  0
 21 22  2  0
M  END
>  <ID>  (1) 
conformer_0

$$$$
