
     RDKit          3D

 22 24  0  0  0  0  0  0  0  0999 V2000
  -15.3144   14.7132  -26.8985 C   0  0  0  0  0  0  0  0  0  0  0  0
  -18.5897   17.7390  -31.9233 C   0  0  0  0  0  0  0  0  0  0  0  0
  -16.0621   17.2978  -29.4432 O   0  0  0  0  0  0  0  0  0  0  0  0
  -17.6821   15.4680  -29.2480 C   0  0  0  0  0  0  0  0  0  0  0  0
  -22.8996   16.6559  -29.3818 C   0  0  0  0  0  0  0  0  0  0  0  0
  -15.4160   16.6749  -25.4012 N   0  0  0  0  0  0  0  0  0  0  0  0
  -19.0210   16.7493  -30.9870 C   0  0  0  0  0  0  0  0  0  0  0  0
  -16.1330   13.9885  -27.9765 C   0  0  0  0  0  0  0  0  0  0  0  0
  -20.8362   17.7668  -29.6179 C   0  0  0  0  0  0  0  0  0  0  0  0
  -21.2736   15.8004  -30.8994 C   0  0  0  0  0  0  0  0  0  0  0  0
  -18.0900   15.9001  -30.4552 N   0  0  0  0  0  0  0  0  0  0  0  0
  -17.9946   15.5666  -26.9669 C   0  0  0  0  0  0  0  0  0  0  0  0
  -16.3932   14.9772  -29.1171 C   0  0  0  0  0  0  0  0  0  0  0  0
  -18.5442   15.0784  -28.2506 C   0  0  0  0  0  0  0  0  0  0  0  0
  -15.6849   16.1094  -26.5492 C   0  0  0  0  0  0  0  0  0  0  0  0
  -23.2831   14.6918  -30.5028 F   0  0  0  0  0  0  0  0  0  0  0  0
  -17.4436   17.9204  -27.0612 C   0  0  0  0  0  0  0  0  0  0  0  0
  -22.0639   17.6849  -29.0451 C   0  0  0  0  0  0  0  0  0  0  0  0
  -20.3900   16.7781  -30.4999 C   0  0  0  0  0  0  0  0  0  0  0  0
  -16.5772   16.2686  -28.7305 C   0  0  0  0  0  0  0  0  0  0  0  0
  -22.4911   15.7235  -30.2708 C   0  0  0  0  0  0  0  0  0  0  0  0
  -16.9124   16.5332  -27.3186 C   0  0  0  0  0  0  0  0  0  0  0  0
  1  8  1  0
  1 15  1  0
  2  7  1  0
  3 20  1  0
  4 11  1  0
  4 13  1  0
  4 14  1  0
  5 18  2  0
  5 21  1  0
  6 15  2  0
  7 11  1  0
  7 19  1  0
  8 13  1  0
  9 18  1  0
  9 19  2  0
 10 19  1  0
 10 21  2  0
 12 14  1  0
 12 22  1  0
 13 20  1  0
 15 22  1  0
 16 21  1  0
 17 22  1  0
 20 22  1  0
M  END
>  <ID>  (1) 
conformer_0

$$$$
