
     RDKit          3D

 15 14  0  0  0  0  0  0  0  0999 V2000
  -17.0640   18.0938  -27.4024 C   0  0  0  0  0  0  0  0  0  0  0  0
  -15.2187   16.7108  -28.9614 C   0  0  0  0  0  0  0  0  0  0  0  0
  -18.3947   17.2561  -29.4820 O   0  0  0  0  0  0  0  0  0  0  0  0
  -16.3997   15.7156  -26.9508 C   0  0  0  0  0  0  0  0  0  0  0  0
  -19.2282   17.1283  -28.3873 C   0  0  0  0  0  0  0  0  0  0  0  0
  -16.0683   16.9892  -27.7402 C   0  0  0  0  0  0  0  0  0  0  0  0
  -23.7568   15.6599  -28.6209 O   0  0  0  0  0  0  0  0  0  0  0  0
  -17.5290   14.7685  -27.4811 C   0  0  0  0  0  0  0  0  0  0  0  0
  -22.6406   15.3945  -27.8527 C   0  0  0  0  0  0  0  0  0  0  0  0
  -15.1233   14.9137  -26.6933 C   0  0  0  0  0  0  0  0  0  0  0  0
  -21.6518   16.5222  -27.6988 C   0  0  0  0  0  0  0  0  0  0  0  0
  -23.7271   14.9823  -29.8848 C   0  0  0  0  0  0  0  0  0  0  0  0
  -20.9150   16.3804  -26.3345 C   0  0  0  0  0  0  0  0  0  0  0  0
  -20.6045   16.5972  -28.8254 C   0  0  0  0  0  0  0  0  0  0  0  0
  -18.4812   17.5131  -27.0701 C   0  0  0  0  0  0  0  0  0  0  0  0
  1  6  1  0
  1 15  1  0
  2  6  1  0
  3  5  1  0
  4  6  1  0
  4  8  1  0
  4 10  1  0
  5 14  1  0
  5 15  1  0
  7  9  1  0
  7 12  1  0
  9 11  1  0
 11 13  1  0
 11 14  1  0
M  END
>  <ID>  (1) 
conformer_0

$$$$
