
     RDKit          3D

 24 25  0  0  0  0  0  0  0  0999 V2000
  -17.1101   16.7166  -30.9319 O   0  0  0  0  0  0  0  0  0  0  0  0
  -16.8070   15.9415  -26.9682 C   0  0  0  0  0  0  0  0  0  0  0  0
  -17.3775   15.9478  -28.2963 N   0  0  0  0  0  0  0  0  0  0  0  0
  -15.4509   16.5593  -26.8988 C   0  0  0  0  0  0  0  0  0  0  0  0
  -22.0468   15.9692  -29.4283 C   0  0  0  0  0  0  0  0  0  0  0  0
  -22.7923   15.9692  -28.2427 C   0  0  0  0  0  0  0  0  0  0  0  0
  -24.2491   15.9493  -28.3699 C   0  0  0  0  0  0  0  0  0  0  0  0
  -20.7017   16.2212  -29.3329 C   0  0  0  0  0  0  0  0  0  0  0  0
  -22.5992   15.7058  -30.5128 O   0  0  0  0  0  0  0  0  0  0  0  0
  -18.2707   16.7841  -30.3752 C   0  0  0  0  0  0  0  0  0  0  0  0
  -18.3412   18.0601  -33.3286 O   0  0  0  0  0  0  0  0  0  0  0  0
  -18.6084   19.5991  -31.5772 O   0  0  0  0  0  1  0  0  0  0  0  0
  -22.2499   16.0450  -27.0031 C   0  0  0  0  0  0  0  0  0  0  0  0
  -18.3560   16.6805  -28.9360 C   0  0  0  0  0  0  0  0  0  0  0  0
  -19.8708   16.3072  -27.1296 C   0  0  0  0  0  0  0  0  0  0  0  0
  -19.6945   16.3843  -28.4898 C   0  0  0  0  0  0  0  0  0  0  0  0
  -21.0410   16.1673  -26.4867 C   0  0  0  0  0  0  0  0  0  0  0  0
  -16.9440   14.7500  -29.0158 C   0  0  0  0  0  0  0  0  0  0  0  0
  -15.5441   15.0861  -26.8491 C   0  0  0  0  0  0  0  0  0  0  0  0
  -14.6899   14.6539  -28.0414 C   0  0  0  0  0  0  0  0  0  0  0  0
  -19.3402   17.3662  -31.1860 N   0  0  0  0  0  0  0  0  0  0  0  0
  -20.7087   17.3042  -31.6792 C   0  0  0  0  0  0  0  0  0  0  0  0
  -18.7239   18.4316  -32.1485 S   0  0  0  0  0  3  0  0  0  0  0  0
  -15.4258   15.0161  -29.3152 C   0  0  0  0  0  0  0  0  0  0  0  0
  1 10  2  0
  2  3  1  0
  2  4  1  0
  3 14  1  0
  3 18  1  0
  4 19  1  0
  5  6  1  0
  5  8  1  0
  5  9  2  0
  6  7  1  0
  6 13  1  0
  8 16  2  0
 10 14  1  0
 10 21  1  0
 11 23  1  0
 12 23  2  0
 13 17  2  0
 14 16  1  0
 15 16  1  0
 15 17  1  0
 18 24  1  0
 19 20  1  0
 20 24  1  0
 21 22  1  0
 21 23  1  0
M  END
>  <ID>  (1) 
conformer_0

$$$$
