
     RDKit          3D

 27 31  0  0  0  0  0  0  0  0999 V2000
  -19.6339   13.5190  -33.4515 C   0  0  0  0  0  0  0  0  0  0  0  0
  -19.8806   14.7532  -31.4974 C   0  0  0  0  0  0  0  0  0  0  0  0
  -21.4953   18.7081  -25.4607 C   0  0  0  0  0  0  0  0  0  0  0  0
  -19.8632   16.6773  -29.5968 C   0  0  0  0  0  3  0  0  0  0  0  0
  -21.0764   18.1128  -30.9857 C   0  0  0  0  0  0  0  0  0  0  0  0
  -18.0783   14.9422  -29.8618 N   0  0  0  0  0  0  0  0  0  0  0  0
  -20.6927   17.5597  -28.7544 C   0  0  0  0  0  0  0  0  0  0  0  0
  -17.1065   14.5380  -28.9553 N   0  0  0  0  0  0  0  0  0  0  0  0
  -18.5547   14.6694  -31.1765 C   0  0  0  0  0  0  0  0  0  0  0  0
  -16.2859   14.4763  -32.2181 C   0  0  0  0  0  0  0  0  0  0  0  0
  -16.2267   13.5449  -29.0926 C   0  0  0  0  0  0  0  0  0  0  0  0
  -16.0981   15.1578  -26.9187 C   0  0  0  0  0  0  0  0  0  0  0  0
  -19.2732   16.8161  -26.9026 C   0  0  0  0  0  0  0  0  0  0  0  0
  -17.1528   15.2423  -27.7871 C   0  0  0  0  0  0  0  0  0  0  0  0
  -17.7435   14.1922  -32.1929 C   0  0  0  0  0  0  0  0  0  0  0  0
  -18.8690   15.8776  -29.1202 C   0  0  0  0  0  0  0  0  0  0  0  0
  -21.3028   18.2471  -26.6217 C   0  0  0  0  0  0  0  0  0  0  0  0
  -20.4159   17.5252  -27.3824 C   0  0  0  0  0  0  0  0  0  0  0  0
  -15.1271   14.1926  -27.0861 C   0  0  0  0  0  0  0  0  0  0  0  0
  -20.6658   18.4380  -24.3607 C   0  0  0  0  0  0  0  0  0  0  0  0
  -19.5579   17.6278  -24.5596 C   0  0  0  0  0  0  0  0  0  0  0  0
  -20.4501   14.1775  -32.5399 C   0  0  0  0  0  0  0  0  0  0  0  0
  -20.6731   17.5363  -29.8984 C   0  0  0  0  0  0  0  0  0  0  0  0
  -19.0262   16.9851  -25.5696 C   0  0  0  0  0  0  0  0  0  0  0  0
  -15.1938   13.3234  -28.1662 C   0  0  0  0  0  0  0  0  0  0  0  0
  -18.2720   13.5408  -33.2859 C   0  0  0  0  0  0  0  0  0  0  0  0
  -18.4107   16.0103  -27.7768 C   0  0  0  0  0  0  0  0  0  0  0  0
  1 22  1  0
  1 26  2  0
  2  9  1  0
  2 22  2  0
  3 17  2  0
  3 20  1  0
  4 16  2  0
  4 23  1  0
  5 23  1  0
  6  8  1  0
  6  9  1  0
  6 16  1  0
  7 18  2  0
  7 23  2  0
  8 11  1  0
  8 14  1  0
  9 15  1  0
 10 15  1  0
 11 25  2  0
 12 14  2  0
 12 19  1  0
 13 18  1  0
 13 24  1  0
 13 27  2  0
 14 27  1  0
 15 26  1  0
 16 27  1  0
 17 18  1  0
 19 25  1  0
 20 21  1  0
 21 24  2  0
M  END
>  <ID>  (1) 
conformer_0

$$$$
