
     RDKit          3D

 19 20  0  0  0  0  0  0  0  0999 V2000
  -23.3968   15.3591  -28.1118 O   0  0  0  0  0  0  0  0  0  0  0  0
  -21.0754   16.0523  -26.8272 O   0  0  0  0  0  0  0  0  0  0  0  0
  -15.1411   17.5520  -27.4427 C   0  0  0  0  0  0  0  0  0  0  0  0
  -15.2230   14.9622  -27.7632 C   0  0  0  0  0  0  0  0  0  0  0  0
  -16.7613   14.8992  -27.3392 C   0  0  0  0  0  0  0  0  0  0  0  0
  -22.9044   15.8122  -29.1633 C   0  0  0  0  0  0  0  0  0  0  0  0
  -23.5786   16.0543  -30.2208 O   0  0  0  0  0  0  0  0  0  0  0  0
  -19.3242   16.4874  -28.2102 C   0  0  0  0  0  0  0  0  0  0  0  0
  -16.4264   17.2107  -28.0085 O   0  0  0  0  0  0  0  0  0  0  0  0
  -20.9107   16.1705  -30.4543 C   0  0  0  0  0  0  0  0  0  0  0  0
  -18.5615   16.7179  -26.9586 C   0  0  0  0  0  0  0  0  0  0  0  0
  -20.6745   16.1972  -28.0850 C   0  0  0  0  0  0  0  0  0  0  0  0
  -15.2539   18.2672  -26.3487 O   0  0  0  0  0  0  0  0  0  0  0  0
  -14.3599   16.2317  -27.3320 C   0  0  0  0  0  0  0  0  0  0  0  0
  -18.7578   17.9174  -26.3546 O   0  0  0  0  0  0  0  0  0  0  0  0
  -21.4945   16.0611  -29.2228 C   0  0  0  0  0  0  0  0  0  0  0  0
  -18.8154   16.5681  -29.4840 C   0  0  0  0  0  0  0  0  0  0  0  0
  -17.1268   16.3716  -27.0344 C   0  0  0  0  0  0  0  0  0  0  0  0
  -19.5600   16.4138  -30.5755 C   0  0  0  0  0  0  0  0  0  0  0  0
  1  6  2  0
  2 12  1  0
  3  9  1  0
  3 13  1  0
  3 14  1  0
  4  5  1  0
  4 14  1  0
  5 18  1  0
  6  7  1  0
  6 16  1  0
  8 11  1  0
  8 12  2  0
  8 17  1  0
  9 18  1  0
 10 16  2  0
 10 19  1  0
 11 15  1  0
 11 18  1  0
 12 16  1  0
 17 19  2  0
M  END
>  <ID>  (1) 
conformer_0

$$$$
