
     RDKit          3D

 20 22  0  0  0  0  0  0  0  0999 V2000
  -17.1441   15.7862  -27.6275 C   0  0  0  0  0  0  0  0  0  0  0  0
  -21.6308   16.1087  -27.8401 C   0  0  0  0  0  0  0  0  0  0  0  0
  -14.9977   14.7612  -27.4675 C   0  0  0  0  0  0  0  0  0  0  0  0
  -18.8688   16.0296  -29.3562 C   0  0  0  0  0  0  0  0  0  0  0  0
  -14.4605   15.9468  -26.9616 C   0  0  0  0  0  0  0  0  0  0  0  0
  -20.7247   15.8445  -26.8359 C   0  0  0  0  0  0  0  0  0  0  0  0
  -23.1354   18.3222  -31.6324 O   0  0  0  0  0  0  0  0  0  0  0  0
  -21.6362   19.0396  -31.9970 C   0  0  0  0  0  0  0  0  0  0  0  0
  -15.3184   17.0469  -26.7421 C   0  0  0  0  0  0  0  0  0  0  0  0
  -18.5515   15.7849  -27.9697 C   0  0  0  0  0  0  0  0  0  0  0  0
  -21.3388   16.4134  -29.1540 C   0  0  0  0  0  0  0  0  0  0  0  0
  -17.8817   15.8608  -30.2384 O   0  0  0  0  0  0  0  0  0  0  0  0
  -21.8201   17.7221  -31.1176 C   0  0  0  0  0  0  0  0  0  0  0  0
  -16.3223   14.6996  -27.7889 C   0  0  0  0  0  0  0  0  0  0  0  0
  -20.3398   17.2031  -31.0054 N   0  0  0  0  0  0  0  0  0  0  0  0
  -16.6337   16.9483  -27.0704 C   0  0  0  0  0  0  0  0  0  0  0  0
  -19.2625   17.7219  -31.8726 C   0  0  0  0  0  0  0  0  0  0  0  0
  -22.3843   16.8703  -29.9798 N   0  0  0  0  0  0  0  0  0  0  0  0
  -19.4384   15.7062  -26.9626 C   0  0  0  0  0  0  0  0  0  0  0  0
  -20.1694   16.4860  -29.7961 C   0  0  0  0  0  0  0  0  0  0  0  0
  1 10  1  0
  1 14  1  0
  1 16  1  0
  2  6  1  0
  2 11  1  0
  3  5  1  0
  3 14  2  0
  4 10  1  0
  4 12  1  0
  4 20  1  0
  5  9  1  0
  6 19  2  0
  7 13  1  0
  8 13  1  0
  9 16  2  0
 10 19  1  0
 11 18  1  0
 11 20  2  0
 13 15  1  0
 13 18  1  0
 15 17  1  0
 15 20  1  0
M  END
>  <ID>  (1) 
conformer_0

$$$$
