
     RDKit          3D

 25 27  0  0  0  0  0  0  0  0999 V2000
  -23.9657   18.4508  -28.6169 C   0  0  0  0  0  0  0  0  0  0  0  0
  -21.6551   16.9112  -28.4298 C   0  0  0  0  0  0  0  0  0  0  0  0
  -16.4797   13.9516  -27.1695 N   0  0  0  0  0  0  0  0  0  0  0  0
  -23.6387   17.7854  -27.4206 C   0  0  0  0  0  0  0  0  0  0  0  0
  -22.4711   17.0261  -27.3402 C   0  0  0  0  0  0  0  0  0  0  0  0
  -19.5493   16.2205  -29.3817 C   0  0  0  0  0  0  0  0  0  0  0  0
  -23.1520   18.3261  -29.7291 C   0  0  0  0  0  0  0  0  0  0  0  0
  -17.3982   14.5979  -27.9167 C   0  0  0  0  0  0  0  0  0  0  0  0
  -20.4129   16.2165  -28.2276 C   0  0  0  0  0  0  0  0  0  0  0  0
  -20.0300   15.7367  -26.9524 C   0  0  0  0  0  0  0  0  0  0  0  0
  -17.1722   15.7920  -28.5307 C   0  0  0  0  0  0  0  0  0  0  0  0
  -17.1716   19.7890  -30.2801 C   0  0  0  0  0  0  0  0  0  0  0  0
  -19.4696   16.5566  -31.7522 C   0  0  0  0  0  0  0  0  0  0  0  0
  -15.2635   14.5124  -27.0029 C   0  0  0  0  0  0  0  0  0  0  0  0
  -15.8835   16.3214  -28.4644 C   0  0  0  0  0  0  0  0  0  0  0  0
  -22.0516   17.5552  -29.5887 C   0  0  0  0  0  0  0  0  0  0  0  0
  -19.6553   17.1303  -34.0278 C   0  0  0  0  0  0  0  0  0  0  0  0
  -17.6982   17.3887  -30.3371 C   0  0  0  0  0  0  0  0  0  0  0  0
  -16.6437   18.3181  -30.0025 O   0  0  0  0  0  0  0  0  0  0  0  0
  -15.5236   17.5611  -29.2715 O   0  0  0  0  0  0  0  0  0  0  0  0
  -18.1464   16.4800  -29.3282 C   0  0  0  0  0  0  0  0  0  0  0  0
  -19.9029   16.1474  -32.9805 O   0  0  0  0  0  0  0  0  0  0  0  0
  -20.1223   16.0930  -30.6239 C   0  0  0  0  0  0  0  0  0  0  0  0
  -18.3274   17.3893  -31.5901 C   0  0  0  0  0  0  0  0  0  0  0  0
  -14.9128   15.6762  -27.6722 C   0  0  0  0  0  0  0  0  0  0  0  0
  1  4  2  0
  1  7  1  0
  2  5  2  0
  2  9  1  0
  2 16  1  0
  3  8  2  0
  3 14  1  0
  4  5  1  0
  6  9  1  0
  6 21  1  0
  6 23  1  0
  7 16  2  0
  8 11  1  0
  9 10  1  0
 11 15  2  0
 11 21  1  0
 12 19  1  0
 13 22  1  0
 13 23  2  0
 13 24  1  0
 14 25  2  0
 15 20  1  0
 15 25  1  0
 17 22  1  0
 18 19  1  0
 18 21  1  0
 18 24  2  0
M  END
>  <ID>  (1) 
conformer_0

$$$$
