
     RDKit          3D

 15 16  0  0  0  0  0  0  0  0999 V2000
  -19.5866   16.2122  -28.2819 C   0  0  0  0  0  0  0  0  0  0  0  0
  -19.7473   15.8278  -31.9046 C   0  0  0  0  0  0  0  0  0  0  0  0
  -20.6545   15.7807  -27.5516 C   0  0  0  0  0  0  0  0  0  0  0  0
  -19.7186   16.1999  -29.6842 C   0  0  0  0  0  0  0  0  0  0  0  0
  -20.4821   17.1581  -27.6999 C   0  0  0  0  0  0  0  0  0  0  0  0
  -19.6074   15.2056  -33.0431 O   0  0  0  0  0  0  0  0  0  0  0  0
  -20.5649   16.9078  -31.6552 C   0  0  0  0  0  0  0  0  0  0  0  0
  -18.3295   16.1556  -27.5316 C   0  0  0  0  0  0  0  0  0  0  0  0
  -15.9861   16.2270  -26.1417 C   0  0  0  0  0  0  0  0  0  0  0  0
  -17.3795   15.1819  -27.7431 C   0  0  0  0  0  0  0  0  0  0  0  0
  -18.1125   17.1449  -26.5994 C   0  0  0  0  0  0  0  0  0  0  0  0
  -20.5643   17.1021  -30.2582 C   0  0  0  0  0  0  0  0  0  0  0  0
  -16.2098   15.2102  -27.0530 C   0  0  0  0  0  0  0  0  0  0  0  0
  -19.1751   15.4229  -30.6305 C   0  0  0  0  0  0  0  0  0  0  0  0
  -16.9372   17.1908  -25.9069 C   0  0  0  0  0  0  0  0  0  0  0  0
  1  3  1  0
  1  4  1  0
  1  8  1  0
  2  6  1  0
  2  7  1  0
  2 14  1  0
  3  5  1  0
  4 12  1  0
  4 14  1  0
  7 12  1  0
  8 10  1  0
  8 11  1  0
  9 13  1  0
  9 15  1  0
 10 13  2  0
 11 15  2  0
M  END
>  <ID>  (1) 
conformer_0

$$$$
