
     RDKit          3D

 20 22  0  0  0  0  0  0  0  0999 V2000
  -15.2581   14.8370  -26.9432 C   0  0  0  0  0  0  0  0  0  0  0  0
  -20.6555   17.6922  -23.8651 C   0  0  0  0  0  0  0  0  0  0  0  0
  -19.5969   18.0271  -23.0517 C   0  0  0  0  0  0  0  0  0  0  0  0
  -17.1753   15.1578  -28.8315 C   0  0  0  0  0  0  0  0  0  0  0  0
  -20.2103   16.2912  -27.2805 C   0  0  0  0  0  0  0  0  0  0  0  0
  -21.2972   15.7228  -27.2965 O   0  0  0  0  0  0  0  0  0  0  0  0
  -18.4154   17.1612  -25.8518 C   0  0  0  0  0  0  0  0  0  0  0  0
  -19.3656   15.6650  -29.8286 C   0  0  0  0  0  0  0  0  0  0  0  0
  -18.2826   17.9703  -23.4861 C   0  0  0  0  0  0  0  0  0  0  0  0
  -20.1165   15.9452  -32.0485 O   0  0  0  0  0  0  0  0  0  0  0  0
  -19.3458   16.0093  -28.3795 N   0  0  0  0  0  0  0  0  0  0  0  0
  -17.8605   17.6186  -24.6878 C   0  0  0  0  0  0  0  0  0  0  0  0
  -17.5847   16.8521  -26.9679 C   0  0  0  0  0  0  0  0  0  0  0  0
  -16.1989   14.1389  -28.0974 C   0  0  0  0  0  0  0  0  0  0  0  0
  -20.3830   15.8398  -30.8452 C   0  0  0  0  0  0  0  0  0  0  0  0
  -17.9290   15.2763  -30.1981 C   0  0  0  0  0  0  0  0  0  0  0  0
  -21.5917   15.6036  -30.4702 O   0  0  0  0  0  0  0  0  0  0  0  0
  -20.7162   17.2584  -25.1203 C   0  0  0  0  0  0  0  0  0  0  0  0
  -18.0131   15.8703  -27.8577 C   0  0  0  0  0  0  0  0  0  0  0  0
  -19.7942   16.9169  -26.0783 C   0  0  0  0  0  0  0  0  0  0  0  0
  1 14  1  0
  2  3  1  0
  2 18  2  0
  3  9  1  0
  4 14  1  0
  4 16  1  0
  4 19  1  0
  5  6  2  0
  5 11  1  0
  5 20  1  0
  7 12  1  0
  7 13  1  0
  7 20  2  0
  8 11  1  0
  8 15  1  0
  8 16  1  0
  9 12  2  0
 10 15  2  0
 11 19  1  0
 13 19  1  0
 15 17  1  0
 18 20  1  0
M  END
>  <ID>  (1) 
conformer_0

$$$$
