
     RDKit          3D

 24 27  0  0  0  0  0  0  0  0999 V2000
  -17.1462   15.3360  -28.1922 C   0  0  0  0  0  0  0  0  0  0  0  0
  -19.5441   16.5266  -28.1728 C   0  0  0  0  0  0  0  0  0  0  0  0
  -18.4922   16.6749  -31.8974 C   0  0  0  0  0  0  0  0  0  0  0  0
  -16.9506   14.0821  -28.6351 C   0  0  0  0  0  0  0  0  0  0  0  0
  -16.3892   15.8348  -27.2165 N   0  0  0  0  0  0  0  0  0  0  0  0
  -18.7255   15.2313  -29.9384 N   0  0  0  0  0  0  0  0  0  0  0  0
  -19.3076   15.8209  -33.9720 C   0  0  0  0  0  0  0  0  0  0  0  0
  -20.5826   17.0538  -28.9188 C   0  0  0  0  0  0  0  0  0  0  0  0
  -16.0048   13.3252  -28.0595 N   0  0  0  0  0  0  0  0  0  0  0  0
  -20.8587   16.5674  -26.2188 C   0  0  0  0  0  0  0  0  0  0  0  0
  -18.9221   15.4638  -31.2786 C   0  0  0  0  0  0  0  0  0  0  0  0
  -17.8119   17.6362  -31.0543 N   0  0  0  0  0  0  0  0  0  0  0  0
  -15.4288   15.0584  -26.6064 C   0  0  0  0  0  0  0  0  0  0  0  0
  -17.3230   18.5405  -28.6207 C   0  0  0  0  0  0  0  0  0  0  0  0
  -19.5203   14.4745  -31.9902 N   0  0  0  0  0  0  0  0  0  0  0  0
  -17.7030   17.3846  -29.6178 C   0  0  0  0  0  0  0  0  0  0  0  0
  -21.9121   17.1523  -26.9537 C   0  0  0  0  0  0  0  0  0  0  0  0
  -18.2320   16.1632  -28.9218 C   0  0  0  0  0  0  0  0  0  0  0  0
  -19.6727   16.2515  -26.8493 C   0  0  0  0  0  0  0  0  0  0  0  0
  -19.6982   14.6569  -33.3200 C   0  0  0  0  0  0  0  0  0  0  0  0
  -21.7588   17.3731  -28.3351 C   0  0  0  0  0  0  0  0  0  0  0  0
  -16.1653   19.1399  -29.5558 C   0  0  0  0  0  0  0  0  0  0  0  0
  -15.2408   13.7665  -27.0238 C   0  0  0  0  0  0  0  0  0  0  0  0
  -18.6994   16.8620  -33.2474 C   0  0  0  0  0  0  0  0  0  0  0  0
  1  4  2  0
  1  5  1  0
  1 18  1  0
  2  8  2  0
  2 18  1  0
  2 19  1  0
  3 11  1  0
  3 12  2  0
  3 24  1  0
  4  9  1  0
  5 13  2  0
  6 11  2  0
  6 18  1  0
  7 20  1  0
  7 24  2  0
  8 21  1  0
  9 23  2  0
 10 17  1  0
 10 19  2  0
 11 15  1  0
 12 16  1  0
 13 23  1  0
 14 16  1  0
 14 22  1  0
 15 20  2  0
 16 18  1  0
 17 21  2  0
M  END
>  <ID>  (1) 
conformer_0

$$$$
