
     RDKit          3D

 22 25  0  0  0  0  0  0  0  0999 V2000
  -19.3754   15.7184  -27.8471 C   0  0  0  0  0  0  0  0  0  0  0  0
  -21.6725   15.9728  -27.4989 C   0  0  0  0  0  0  0  0  0  0  0  0
  -14.3269   15.1092  -27.4510 C   0  0  0  0  0  0  0  0  0  0  0  0
  -21.4037   15.6937  -26.1432 C   0  0  0  0  0  0  0  0  0  0  0  0
  -16.1786   17.0588  -30.0783 C   0  0  0  0  0  0  0  0  0  0  0  0
  -20.0613   15.2425  -32.6739 O   0  0  0  0  0  0  0  0  0  0  0  0
  -17.2901   16.4779  -30.9072 C   0  0  0  0  0  0  0  0  0  0  0  0
  -16.6824   14.7152  -27.1621 C   0  0  0  0  0  0  0  0  0  0  0  0
  -14.6038   15.9573  -28.5227 C   0  0  0  0  0  0  0  0  0  0  0  0
  -20.6178   15.9783  -28.3719 C   0  0  0  0  0  0  0  0  0  0  0  0
  -19.7027   16.4023  -31.9906 N   0  0  0  0  0  0  0  0  0  0  0  0
  -18.4584   16.1757  -29.9700 N   0  0  0  0  0  0  0  0  0  0  0  0
  -18.2912   15.8230  -28.6467 C   0  0  0  0  0  0  0  0  0  0  0  0
  -15.3682   14.4915  -26.7837 C   0  0  0  0  0  0  0  0  0  0  0  0
  -20.8198   16.2230  -29.7505 C   0  0  0  0  0  0  0  0  0  0  0  0
  -19.6901   16.2334  -30.5852 C   0  0  0  0  0  0  0  0  0  0  0  0
  -16.6330   18.4447  -29.4887 C   0  0  0  0  0  0  0  0  0  0  0  0
  -16.9623   15.5702  -28.2129 C   0  0  0  0  0  0  0  0  0  0  0  0
  -22.1023   16.4916  -30.1605 C   0  0  0  0  0  0  0  0  0  0  0  0
  -15.9166   16.1700  -28.9132 C   0  0  0  0  0  0  0  0  0  0  0  0
  -23.1478   16.5085  -29.2959 C   0  0  0  0  0  0  0  0  0  0  0  0
  -22.9244   16.2338  -27.9533 C   0  0  0  0  0  0  0  0  0  0  0  0
  1 10  1  0
  1 13  2  0
  2  4  1  0
  2 10  2  0
  2 22  1  0
  3  9  1  0
  3 14  2  0
  5  7  1  0
  5 17  1  0
  5 20  1  0
  6 11  1  0
  7 12  1  0
  8 14  1  0
  8 18  2  0
  9 20  2  0
 10 15  1  0
 11 16  2  3
 12 13  1  0
 12 16  1  0
 13 18  1  0
 15 16  1  0
 15 19  2  0
 18 20  1  0
 19 21  1  0
 21 22  2  0
M  END
>  <ID>  (1) 
conformer_0

$$$$
