
     RDKit          3D

 20 22  0  0  0  0  0  0  0  0999 V2000
  -19.0976   15.8577  -32.4689 C   0  0  0  0  0  0  0  0  0  0  0  0
  -22.2235   16.4084  -28.7891 C   0  0  0  0  0  0  0  0  0  0  0  0
  -16.5520   14.7838  -28.6389 C   0  0  0  0  0  0  0  0  0  0  0  0
  -21.3832   18.9013  -25.4159 C   0  0  0  0  0  0  0  0  0  0  0  0
  -19.9828   14.6921  -32.6198 C   0  0  0  0  0  0  0  0  0  0  0  0
  -16.6614   15.9296  -26.5559 C   0  0  0  0  0  0  0  0  0  0  0  0
  -18.6892   17.0078  -25.8334 C   0  0  0  0  0  0  0  0  0  0  0  0
  -17.8569   15.1235  -28.8712 C   0  0  0  0  0  0  0  0  0  0  0  0
  -19.9694   16.1485  -28.1169 C   0  0  0  0  0  0  0  0  0  0  0  0
  -21.3961   17.5249  -26.3445 C   0  0  0  0  0  0  0  0  0  0  0  0
  -18.6046   15.8330  -27.9609 C   0  0  0  0  0  0  0  0  0  0  0  0
  -15.9741   15.1691  -27.4419 C   0  0  0  0  0  0  0  0  0  0  0  0
  -20.8138   14.7219  -31.4411 O   0  0  0  0  0  0  0  0  0  0  0  0
  -20.0426   17.0355  -26.0265 N   0  0  0  0  0  0  0  0  0  0  0  0
  -19.1962   16.2160  -31.1087 O   0  0  0  0  0  0  0  0  0  0  0  0
  -21.9965   17.6630  -27.8149 C   0  0  0  0  0  0  0  0  0  0  0  0
  -14.5702   14.7825  -27.0934 C   0  0  0  0  0  0  0  0  0  0  0  0
  -17.9429   16.2513  -26.7945 C   0  0  0  0  0  0  0  0  0  0  0  0
  -20.7923   16.0145  -29.2938 C   0  0  0  0  0  0  0  0  0  0  0  0
  -20.1857   15.4614  -30.4767 C   0  0  0  0  0  0  0  0  0  0  0  0
  1  5  1  0
  1 15  1  0
  2 16  1  0
  2 19  1  0
  3  8  1  0
  3 12  2  0
  4 10  1  0
  5 13  1  0
  6 12  1  0
  6 18  2  0
  7 14  1  0
  7 18  1  0
  8 11  2  0
  9 11  1  0
  9 19  2  0
 10 14  1  0
 10 16  1  0
 11 18  1  0
 12 17  1  0
 13 20  1  0
 15 20  1  0
 19 20  1  0
M  END
>  <ID>  (1) 
conformer_0

$$$$
