
     RDKit          3D

 20 23  0  0  0  0  0  0  0  0999 V2000
  -21.4648   18.9581  -28.6790 C   0  0  0  0  0  0  0  0  0  0  0  0
  -14.4135   15.8223  -26.8729 C   0  0  0  0  0  0  0  0  0  0  0  0
  -18.5747   16.6732  -28.4146 C   0  0  0  0  0  0  0  0  0  0  0  0
  -21.1101   16.5419  -28.8342 C   0  0  0  0  0  0  0  0  0  0  0  0
  -19.6428   17.1783  -30.5802 O   0  0  0  0  0  0  0  0  0  0  0  0
  -23.7431   14.1940  -29.5754 O   0  0  0  0  0  0  0  0  0  0  0  0
  -19.9642   18.7345  -28.7963 C   0  0  0  0  0  0  0  0  0  0  0  0
  -15.2952   16.8571  -27.0656 N   0  0  0  0  0  0  0  0  0  0  0  0
  -23.0982   15.1658  -29.1028 C   0  0  0  0  0  0  0  0  0  0  0  0
  -19.7617   17.2393  -29.1600 C   0  0  0  0  0  0  0  0  0  0  0  0
  -17.5960   17.3953  -27.8604 N   0  0  0  0  0  0  0  0  0  0  0  0
  -18.2090   15.3870  -28.3134 N   0  0  0  0  0  0  0  0  0  0  0  0
  -23.3259   17.3104  -28.0844 C   0  0  0  0  0  0  0  0  0  0  0  0
  -16.5405   16.6310  -27.5321 C   0  0  0  0  0  0  0  0  0  0  0  0
  -14.8507   14.5499  -27.1223 C   0  0  0  0  0  0  0  0  0  0  0  0
  -16.0891   14.3234  -27.5666 N   0  0  0  0  0  0  0  0  0  0  0  0
  -23.3513   15.8127  -27.8162 C   0  0  0  0  0  0  0  0  0  0  0  0
  -16.9401   15.3553  -27.8125 C   0  0  0  0  0  0  0  0  0  0  0  0
  -22.0848   17.6402  -28.6554 C   0  0  0  0  0  0  0  0  0  0  0  0
  -21.8439   15.5655  -29.5968 O   0  0  0  0  0  0  0  0  0  0  0  0
  1  7  1  0
  1 19  1  0
  2  8  1  0
  2 15  1  0
  3 10  1  0
  3 11  2  0
  3 12  1  0
  4 10  1  0
  4 19  1  0
  4 20  1  0
  5 10  1  0
  6  9  2  0
  7 10  1  0
  8 14  2  0
  9 17  1  0
  9 20  1  0
 11 14  1  0
 12 18  2  0
 13 17  1  0
 13 19  1  0
 14 18  1  0
 15 16  2  0
 16 18  1  0
M  END
>  <ID>  (1) 
conformer_0

$$$$
