
     RDKit          3D

 20 22  0  0  0  0  0  0  0  0999 V2000
  -16.0566   16.5520  -27.6185 C   0  0  0  0  0  0  0  0  0  0  0  0
  -23.1648   16.4424  -28.4377 C   0  0  0  0  0  0  0  0  0  0  0  0
  -18.9863   16.2407  -29.7425 C   0  0  0  0  0  0  0  0  0  0  0  0
  -16.3925   13.5990  -27.2948 C   0  0  0  0  0  0  0  0  0  0  0  0
  -15.1485   15.7156  -26.7035 C   0  0  0  0  0  0  0  0  0  0  0  0
  -20.8795   16.4012  -28.3813 N   0  0  0  0  0  0  0  0  0  0  0  0
  -17.5229   16.4440  -29.6075 N   0  0  0  0  0  0  0  0  0  0  0  0
  -21.9841   16.5951  -27.4912 C   0  0  0  0  0  0  0  0  0  0  0  0
  -13.7929   16.4347  -26.8285 C   0  0  0  0  0  0  0  0  0  0  0  0
  -20.2120   16.7255  -31.9424 C   0  0  0  0  0  0  0  0  0  0  0  0
  -22.5418   17.5082  -31.1492 O   0  0  0  0  0  0  0  0  0  0  0  0
  -19.0051   17.2781  -32.2972 O   0  0  0  0  0  0  0  0  0  0  0  0
  -20.2125   16.3662  -30.5535 C   0  0  0  0  0  0  0  0  0  0  0  0
  -19.0591   16.4125  -27.1524 O   0  0  0  0  0  0  0  0  0  0  0  0
  -19.5403   16.1896  -28.3155 C   0  0  0  0  0  0  0  0  0  0  0  0
  -22.5994   17.0959  -29.8000 C   0  0  0  0  0  0  0  0  0  0  0  0
  -17.3818   14.4216  -28.0204 C   0  0  0  0  0  0  0  0  0  0  0  0
  -15.0437   14.2695  -27.2066 C   0  0  0  0  0  0  0  0  0  0  0  0
  -21.2991   16.5280  -29.6885 C   0  0  0  0  0  0  0  0  0  0  0  0
  -16.9078   15.7392  -28.5366 C   0  0  0  0  0  0  0  0  0  0  0  0
  1  5  1  0
  1 20  1  0
  2  8  1  0
  2 16  1  0
  3  7  1  0
  3 13  1  0
  3 15  1  0
  4 17  1  0
  4 18  1  0
  5  9  1  0
  5 18  1  0
  6  8  1  0
  6 15  1  0
  6 19  1  0
  7 20  1  0
 10 12  1  0
 10 13  1  0
 11 16  1  0
 13 19  1  0
 14 15  2  0
 16 19  1  0
 17 20  1  0
M  END
>  <ID>  (1) 
conformer_0

$$$$
