
     RDKit          3D

 31 36  0  0  0  0  0  0  0  0999 V2000
  -16.5107   14.9824  -28.7971 C   0  0  0  0  0  0  0  0  0  0  0  0
  -18.2401   18.1278  -31.2355 C   0  0  0  0  0  0  0  0  0  0  0  0
  -14.9083   18.3464  -29.5784 C   0  0  0  0  0  0  0  0  0  0  0  0
  -22.7097   16.3476  -27.1821 C   0  0  0  0  0  0  0  0  0  0  0  0
  -20.8154   15.0687  -26.5041 O   0  0  0  0  0  0  0  0  0  0  0  0
  -18.9669   18.6165  -28.9281 C   0  0  0  0  0  0  0  0  0  0  0  0
  -15.8165   17.2435  -30.0392 C   0  0  0  0  0  0  0  0  0  0  0  0
  -17.1121   17.8777  -30.3788 N   0  0  0  0  0  0  0  0  0  0  0  0
  -23.2374   15.0338  -27.4701 O   0  0  0  0  0  0  0  0  0  0  0  0
  -14.2043   15.3218  -27.1935 C   0  0  0  0  0  0  0  0  0  0  0  0
  -20.6823   18.9153  -30.9646 C   0  0  0  0  0  0  0  0  0  0  0  0
  -15.8658   19.4481  -29.2374 C   0  0  0  0  0  0  0  0  0  0  0  0
  -19.5077   15.6262  -28.7536 C   0  0  0  0  0  0  0  0  0  0  0  0
  -20.2834   17.9346  -28.4876 O   0  0  0  0  0  0  0  0  0  0  0  0
  -20.3582   17.1498  -25.9993 C   0  0  0  0  0  0  0  0  0  0  0  0
  -14.5668   16.4409  -28.1166 C   0  0  0  0  0  0  0  0  0  0  0  0
  -19.4005   18.5556  -30.4402 C   0  0  0  0  0  0  0  0  0  0  0  0
  -21.4314   17.3636  -29.3049 C   0  0  0  0  0  0  0  0  0  0  0  0
  -22.4319   16.4035  -29.9195 C   0  0  0  0  0  0  0  0  0  0  0  0
  -16.4735   14.1412  -27.5471 C   0  0  0  0  0  0  0  0  0  0  0  0
  -21.1722   16.2941  -27.0190 C   0  0  0  0  0  0  0  0  0  0  0  0
  -18.6373   19.1588  -27.3949 O   0  0  0  0  0  0  0  0  0  0  0  0
  -22.7454   18.6079  -31.0145 O   0  0  0  0  0  0  0  0  0  0  0  0
  -15.7633   16.2503  -28.9182 C   0  0  0  0  0  0  0  0  0  0  0  0
  -15.1588   14.2387  -26.7844 C   0  0  0  0  0  0  0  0  0  0  0  0
  -20.5659   16.6301  -28.4021 C   0  0  0  0  0  0  0  0  0  0  0  0
  -13.9953   17.7784  -28.5378 C   0  0  0  0  0  0  0  0  0  0  0  0
  -18.1014   18.4779  -32.3892 O   0  0  0  0  0  0  0  0  0  0  0  0
  -21.6816   18.9341  -32.0946 C   0  0  0  0  0  0  0  0  0  0  0  0
  -17.3031   18.9786  -29.3756 C   0  0  0  0  0  0  0  0  0  0  0  0
  -21.8223   18.6571  -29.9529 C   0  0  0  0  0  0  0  0  0  0  0  0
  1 20  1  0
  1 24  1  0
  2  8  1  0
  2 17  1  0
  2 28  2  0
  3  7  1  0
  3 12  1  0
  3 27  1  0
  4  9  1  0
  4 21  1  0
  5 21  1  0
  6 14  1  0
  6 17  1  0
  6 22  1  0
  6 30  1  0
  7  8  1  0
  7 24  1  0
  8 30  1  0
 10 16  1  0
 10 25  2  0
 11 17  1  0
 11 29  1  0
 11 31  1  0
 12 30  1  0
 13 26  1  0
 14 26  1  0
 15 21  1  0
 16 24  2  0
 16 27  1  0
 18 19  1  0
 18 26  1  0
 18 31  1  0
 20 25  1  0
 21 26  1  0
 23 29  1  0
 23 31  1  0
M  END
>  <ID>  (1) 
conformer_0

$$$$
