
     RDKit          3D

 35 39  0  0  0  0  0  0  0  0999 V2000
  -16.8346   15.5231  -34.3379 O   0  0  0  0  0  0  0  0  0  0  0  0
  -18.7505   16.7069  -26.9379 C   0  0  0  0  0  0  0  0  0  0  0  0
  -18.3779   15.9032  -31.0686 C   0  0  0  0  0  0  0  0  0  0  0  0
  -17.3385   15.5166  -31.9895 C   0  0  0  0  0  0  0  0  0  0  0  0
  -22.3755   17.0481  -27.6938 C   0  0  0  0  0  0  0  0  0  0  0  0
  -20.7892   17.2435  -25.9118 C   0  0  0  0  0  0  0  0  0  0  0  0
  -17.6001   16.1448  -33.2763 C   0  0  0  0  0  0  0  0  0  0  0  0
  -17.4974   15.9572  -27.1447 C   0  0  0  0  0  0  0  0  0  0  0  0
  -25.5295   13.3155  -27.4695 F   0  0  0  0  0  0  0  0  0  0  0  0
  -15.0770   15.8805  -27.3172 C   0  0  0  0  0  0  0  0  0  0  0  0
  -13.8810   16.5670  -27.5182 F   0  0  0  0  0  0  0  0  0  0  0  0
  -20.4139   15.9142  -30.2079 O   0  0  0  0  0  0  0  0  0  0  0  0
  -15.1064   14.4907  -27.4049 C   0  0  0  0  0  0  0  0  0  0  0  0
  -24.8267   17.2687  -27.9716 C   0  0  0  0  0  0  0  0  0  0  0  0
  -19.7491   15.6675  -31.3891 C   0  0  0  0  0  0  0  0  0  0  0  0
  -26.0887   16.7897  -27.9964 C   0  0  0  0  0  0  0  0  0  0  0  0
  -23.7220   16.4433  -27.7351 C   0  0  0  0  0  0  0  0  0  0  0  0
  -16.2350   16.6032  -27.1035 C   0  0  0  0  0  0  0  0  0  0  0  0
  -21.0945   16.6930  -27.1760 N   0  0  0  0  0  0  0  0  0  0  0  0
  -16.2236   17.6497  -31.7104 C   0  0  0  0  0  0  0  0  0  0  0  0
  -15.5085   17.8663  -30.4516 C   0  0  0  0  0  0  0  0  0  0  0  0
  -19.5501   16.0206  -29.1918 C   0  0  0  0  0  0  0  0  0  0  0  0
  -19.8685   16.3513  -27.7999 C   0  0  0  0  0  0  0  0  0  0  0  0
  -16.1458   16.2573  -32.1841 C   0  0  0  0  0  0  0  0  0  0  0  0
  -17.4976   14.5529  -27.3354 C   0  0  0  0  0  0  0  0  0  0  0  0
  -19.3563   17.1409  -25.7620 C   0  0  0  0  0  0  0  0  0  0  0  0
  -16.8578   16.3510  -35.5773 C   0  0  0  0  0  0  0  0  0  0  0  0
  -19.9779   15.4103  -32.7845 C   0  0  0  0  0  0  0  0  0  0  0  0
  -25.2525   14.6233  -27.6068 C   0  0  0  0  0  0  0  0  0  0  0  0
  -23.9549   15.0796  -27.6019 C   0  0  0  0  0  0  0  0  0  0  0  0
  -26.3145   15.4638  -27.8021 C   0  0  0  0  0  0  0  0  0  0  0  0
  -22.2642   18.0609  -28.8552 C   0  0  0  0  0  0  0  0  0  0  0  0
  -16.3236   13.8471  -27.4358 C   0  0  0  0  0  0  0  0  0  0  0  0
  -19.0378   16.1012  -33.7139 C   0  0  0  0  0  0  0  0  0  0  0  0
  -18.3441   16.1266  -29.7549 N   0  0  0  0  0  0  0  0  0  0  0  0
  1  7  1  0
  1 27  1  0
  2  8  1  0
  2 23  1  0
  2 26  1  0
  3  4  1  0
  3 15  1  0
  3 35  1  0
  4  7  1  0
  4 24  1  0
  5 17  1  0
  5 19  1  0
  5 32  1  0
  6 19  1  0
  6 26  1  0
  7 34  1  0
  8 18  2  0
  8 25  1  0
  9 29  1  0
 10 11  1  0
 10 13  2  0
 10 18  1  0
 12 15  1  0
 12 22  1  0
 13 33  1  0
 14 16  2  0
 14 17  1  0
 15 28  1  0
 16 31  1  0
 17 30  2  0
 19 23  1  0
 20 21  1  0
 20 24  1  0
 22 23  1  0
 22 35  1  0
 25 33  2  0
 28 34  1  0
 29 30  1  0
 29 31  2  0
M  END
>  <ID>  (1) 
conformer_0

$$$$
