
     RDKit          3D

 28 29  0  0  0  0  0  0  0  0999 V2000
  -20.1507   18.2321  -27.8328 C   0  0  0  0  0  0  0  0  0  0  0  0
  -25.0827   15.1990  -27.6207 O   0  0  0  0  0  0  0  0  0  0  0  0
  -17.9733   17.4964  -32.1324 O   0  0  0  0  0  0  0  0  0  0  0  0
  -16.7810   19.1508  -29.1151 C   0  0  0  0  0  0  0  0  0  0  0  0
  -17.9173   19.0284  -28.2492 N   0  0  0  0  0  0  0  0  0  0  0  0
  -19.0526   17.6906  -29.9637 C   0  0  0  0  0  0  0  0  0  0  0  0
  -22.2908   15.8189  -29.7752 C   0  0  0  0  0  0  0  0  0  0  0  0
  -15.2268   13.3840  -26.6851 C   0  0  0  0  0  0  0  0  0  0  0  0
  -17.9109   17.8671  -30.8745 C   0  0  0  0  0  0  0  0  0  0  0  0
  -24.2148   14.8023  -28.5468 C   0  0  0  0  0  0  0  0  0  0  0  0
  -22.3849   17.4824  -27.3277 C   0  0  0  0  0  0  0  0  0  0  0  0
  -19.0282   18.3317  -28.6742 C   0  0  0  0  0  0  0  0  0  0  0  0
  -24.3741   13.4062  -29.0756 C   0  0  0  0  0  0  0  0  0  0  0  0
  -14.5285   19.7020  -28.2167 C   0  0  0  0  0  0  0  0  0  0  0  0
  -15.8655   14.1613  -27.8327 C   0  0  0  0  0  0  0  0  0  0  0  0
  -21.2260   17.4547  -28.2220 C   0  0  0  0  0  0  0  0  0  0  0  0
  -17.3551   14.5389  -27.6855 C   0  0  0  0  0  0  0  0  0  0  0  0
  -20.1349   16.9042  -30.2768 C   0  0  0  0  0  0  0  0  0  0  0  0
  -14.5770   18.1699  -28.1715 C   0  0  0  0  0  0  0  0  0  0  0  0
  -15.0025   15.4069  -27.9186 C   0  0  0  0  0  0  0  0  0  0  0  0
  -23.2267   15.6377  -28.8812 N   0  0  0  0  0  0  0  0  0  0  0  0
  -15.4453   16.3009  -26.6428 C   0  0  0  0  0  0  0  0  0  0  0  0
  -22.2299   15.2487  -30.8633 O   0  0  0  0  0  0  0  0  0  0  0  0
  -25.8676   13.2993  -29.6830 C   0  0  0  0  0  0  0  0  0  0  0  0
  -21.1990   16.7191  -29.4398 C   0  0  0  0  0  0  0  0  0  0  0  0
  -15.7898   20.2275  -28.9509 C   0  0  0  0  0  0  0  0  0  0  0  0
  -15.7190   17.7415  -27.1353 C   0  0  0  0  0  0  0  0  0  0  0  0
  -16.8104   18.4807  -30.3903 N   0  0  0  0  0  0  0  0  0  0  0  0
  1 12  2  0
  1 16  1  0
  2 10  2  0
  3  9  2  0
  4  5  2  0
  4 26  1  0
  4 28  1  0
  5 12  1  0
  6  9  1  0
  6 12  1  0
  6 18  2  0
  7 21  1  0
  7 23  2  0
  7 25  1  0
  8 15  1  0
  9 28  1  0
 10 13  1  0
 10 21  1  0
 11 16  1  0
 13 24  1  0
 14 19  1  0
 14 26  1  0
 15 17  1  0
 15 20  1  0
 16 25  2  0
 18 25  1  0
 19 27  1  0
 20 22  1  0
 22 27  1  0
M  END
>  <ID>  (1) 
conformer_0

$$$$
