
     RDKit          3D

 29 31  0  0  0  0  0  0  0  0999 V2000
  -21.5748   16.7893  -26.9579 C   0  0  0  0  0  0  0  0  0  0  0  0
  -14.1492   15.1405  -28.5411 C   0  0  0  0  0  0  0  0  0  0  0  0
  -22.2459   16.6068  -28.0976 C   0  0  0  0  0  0  0  0  0  0  0  0
  -15.0740   18.7334  -31.4739 C   0  0  0  0  0  0  0  0  0  0  0  0
  -16.7110   14.0071  -27.9697 C   0  0  0  0  0  0  0  0  0  0  0  0
  -15.3431   17.7547  -27.5465 C   0  0  0  0  0  0  0  0  0  0  0  0
  -21.8422   16.3775  -29.3714 C   0  0  0  0  0  0  0  0  0  0  0  0
  -22.8111   17.0138  -31.3394 O   0  0  0  0  0  0  0  0  0  0  0  0
  -19.4428   16.2733  -27.9281 C   0  0  0  0  0  0  0  0  0  0  0  0
  -18.3793   17.0434  -32.6761 O   0  0  0  0  0  0  0  0  0  0  0  0
  -16.8462   16.4334  -30.8192 C   0  0  0  0  0  0  0  0  0  0  0  0
  -15.3935   18.2190  -29.9975 N   0  0  0  0  0  0  0  0  0  0  0  0
  -14.2630   14.4589  -27.1780 C   0  0  0  0  0  0  0  0  0  0  0  0
  -20.5739   16.3780  -29.9821 C   0  0  0  0  0  0  0  0  0  0  0  0
  -22.9529   16.1458  -30.2864 C   0  0  0  0  0  0  0  0  0  0  0  0
  -20.3451   16.5467  -31.3793 C   0  0  0  0  0  0  0  0  0  0  0  0
  -18.3703   17.3554  -25.4097 C   0  0  0  0  0  0  0  0  0  0  0  0
  -19.6215   17.0751  -25.7256 O   0  0  0  0  0  0  0  0  0  0  0  0
  -15.4417   16.6887  -30.2816 C   0  0  0  0  0  0  0  0  0  0  0  0
  -17.1123   15.3493  -27.6955 O   0  0  0  0  0  0  0  0  0  0  0  0
  -18.2800   16.1615  -30.3010 C   0  0  0  0  0  0  0  0  0  0  0  0
  -20.1580   16.7004  -26.8929 C   0  0  0  0  0  0  0  0  0  0  0  0
  -16.2039   16.4511  -27.9565 C   0  0  0  0  0  0  0  0  0  0  0  0
  -19.3918   16.2004  -29.2869 C   0  0  0  0  0  0  0  0  0  0  0  0
  -16.6401   19.0841  -29.6324 C   0  0  0  0  0  0  0  0  0  0  0  0
  -15.5656   13.6067  -27.0811 C   0  0  0  0  0  0  0  0  0  0  0  0
  -18.9810   16.5108  -31.6490 C   0  0  0  0  0  0  0  0  0  0  0  0
  -14.4806   18.3734  -28.7714 C   0  0  0  0  0  0  0  0  0  0  0  0
  -15.3036   15.8735  -29.0526 C   0  0  0  0  0  0  0  0  0  0  0  0
  1  3  1  0
  1 22  2  0
  2 13  1  0
  2 29  1  0
  3  7  2  0
  4 12  1  0
  5 20  1  0
  5 26  1  0
  6 23  1  0
  6 28  1  0
  7 14  1  0
  7 15  1  0
  8 15  1  0
  9 22  1  0
  9 24  1  0
 10 27  1  0
 11 19  1  0
 11 21  1  0
 12 25  1  0
 12 28  1  0
 13 26  1  0
 14 16  1  0
 14 24  2  0
 16 27  1  0
 17 18  1  0
 18 22  1  0
 19 29  1  0
 20 23  1  0
 21 24  1  0
 21 27  1  0
 23 29  1  0
M  END
>  <ID>  (1) 
conformer_0

$$$$
