
     RDKit          3D

 20 22  0  0  0  0  0  0  0  0999 V2000
  -14.5669   15.7705  -27.6683 C   0  0  0  0  0  0  0  0  0  0  0  0
  -14.2413   14.3623  -27.1759 C   0  0  0  0  0  0  0  0  0  0  0  0
  -16.1241   13.4652  -28.5062 C   0  0  0  0  0  0  0  0  0  0  0  0
  -15.3818   13.3541  -27.2219 C   0  0  0  0  0  0  0  0  0  0  0  0
  -18.3802   15.6043  -31.3529 C   0  0  0  0  0  0  0  0  0  0  0  0
  -20.9378   17.1228  -25.9780 C   0  0  0  0  0  0  0  0  0  0  0  0
  -20.5673   16.0141  -31.0264 C   0  0  0  0  0  0  0  0  0  0  0  0
  -20.2277   16.1595  -28.4454 C   0  0  0  0  0  0  0  0  0  0  0  0
  -18.6215   15.4620  -30.0107 C   0  0  0  0  0  0  0  0  0  0  0  0
  -15.7795   16.0321  -28.5255 C   0  0  0  0  0  0  0  0  0  0  0  0
  -19.4063   16.0341  -27.3616 C   0  0  0  0  0  0  0  0  0  0  0  0
  -21.4828   16.7703  -28.2611 C   0  0  0  0  0  0  0  0  0  0  0  0
  -21.8233   17.2481  -27.0385 C   0  0  0  0  0  0  0  0  0  0  0  0
  -19.6102   15.8365  -32.0031 C   0  0  0  0  0  0  0  0  0  0  0  0
  -19.7834   15.7739  -33.2742 N   0  0  0  0  0  0  0  0  0  0  0  0
  -19.7280   16.5010  -26.1398 C   0  0  0  0  0  0  0  0  0  0  0  0
  -19.9636   15.7937  -29.7968 C   0  0  0  0  0  0  0  0  0  0  0  0
  -22.2927   16.8849  -29.2793 O   0  0  0  0  0  0  0  0  0  0  0  0
  -16.4797   14.8315  -29.0080 C   0  0  0  0  0  0  0  0  0  0  0  0
  -17.8587   14.9367  -29.0950 N   0  0  0  0  0  0  0  0  0  0  0  0
  1  2  1  0
  1 10  2  0
  2  4  1  0
  3  4  1  0
  3 19  1  0
  5  9  1  0
  5 14  1  0
  6 13  1  0
  6 16  1  0
  7 14  1  0
  7 17  1  0
  8 11  1  0
  8 12  1  0
  8 17  2  3
  9 17  1  0
  9 20  1  0
 10 19  1  0
 11 16  2  0
 12 13  2  0
 12 18  1  0
 14 15  2  0
 19 20  1  0
M  END
>  <ID>  (1) 
conformer_0

$$$$
