
     RDKit          3D

 30 33  0  0  0  0  0  0  0  0999 V2000
  -18.7781   16.9087  -25.7161 C   0  0  0  0  0  0  0  0  0  0  0  0
  -18.2699   15.5732  -27.6550 O   0  0  0  0  0  0  0  0  0  0  0  0
  -23.5566   16.0465  -29.0130 C   0  0  0  0  0  0  0  0  0  0  0  0
  -19.6896   17.5604  -24.9093 C   0  0  0  0  0  0  0  0  0  0  0  0
  -18.9250   16.2168  -33.1124 C   0  0  0  0  0  0  0  0  0  0  0  0
  -17.4113   16.8147  -29.5638 C   0  0  0  0  0  0  0  0  0  0  0  0
  -15.5095   14.5171  -27.0643 C   0  0  0  0  0  0  0  0  0  0  0  0
  -24.0770   16.0519  -30.4934 C   0  0  0  0  0  0  0  0  0  0  0  0
  -16.6101   17.1474  -31.8775 C   0  0  0  0  0  0  0  0  0  0  0  0
  -21.6887   17.6031  -26.3731 C   0  0  0  0  0  0  0  0  0  0  0  0
  -16.6945   17.0345  -33.2186 C   0  0  0  0  0  0  0  0  0  0  0  0
  -18.8395   16.2946  -31.7757 C   0  0  0  0  0  0  0  0  0  0  0  0
  -17.5181   18.2953  -29.0909 C   0  0  0  0  0  0  0  0  0  0  0  0
  -20.9697   17.7923  -25.3121 C   0  0  0  0  0  0  0  0  0  0  0  0
  -19.7790   16.5919  -29.1823 C   0  0  0  0  0  0  0  0  0  0  0  0
  -21.9065   17.6745  -30.0786 C   0  0  0  0  0  0  0  0  0  0  0  0
  -22.4081   17.1143  -28.7836 C   0  0  0  0  0  0  0  0  0  0  0  0
  -14.7135   16.8910  -27.0267 C   0  0  0  0  0  0  0  0  0  0  0  0
  -20.5655   17.2790  -30.1741 N   0  0  0  0  0  0  0  0  0  0  0  0
  -17.6652   16.7552  -31.1177 C   0  0  0  0  0  0  0  0  0  0  0  0
  -23.0787   14.7911  -28.7164 O   0  0  0  0  0  0  0  0  0  0  0  0
  -17.8236   16.5670  -33.8715 C   0  0  0  0  0  0  0  0  0  0  0  0
  -15.5339   15.8773  -27.8711 C   0  0  0  0  0  0  0  0  0  0  0  0
  -19.0957   16.4828  -26.9828 C   0  0  0  0  0  0  0  0  0  0  0  0
  -15.5688   17.3720  -33.9522 C   0  0  0  0  0  0  0  0  0  0  0  0
  -16.1376   16.3442  -29.0721 N   0  0  0  0  0  0  0  0  0  0  0  0
  -24.6024   16.4654  -28.2658 O   0  0  0  0  0  0  0  0  0  0  0  0
  -18.4595   15.8991  -29.0056 C   0  0  0  0  0  0  0  0  0  0  0  0
  -21.4877   17.1830  -27.6901 C   0  0  0  0  0  0  0  0  0  0  0  0
  -20.1274   16.8502  -27.8191 C   0  0  0  0  0  0  0  0  0  0  0  0
  1  4  2  0
  1 24  1  0
  2 24  1  0
  2 28  1  0
  3  8  1  0
  3 17  1  0
  3 21  1  0
  3 27  1  0
  4 14  1  0
  5 12  2  0
  5 22  1  0
  6 13  1  0
  6 20  1  0
  6 26  1  0
  6 28  1  0
  7 23  1  0
  9 11  1  0
  9 20  2  0
 10 14  2  0
 10 29  1  0
 11 22  2  0
 11 25  1  0
 12 20  1  0
 15 19  1  0
 15 28  1  0
 15 30  1  0
 16 17  1  0
 16 19  1  0
 17 29  1  0
 18 23  1  0
 23 26  1  0
 24 30  1  0
 29 30  1  0
M  END
>  <ID>  (1) 
conformer_0

$$$$
