
     RDKit          3D

 22 24  0  0  0  0  0  0  0  0999 V2000
  -13.9258   15.6641  -27.4889 C   0  0  0  0  0  0  0  0  0  0  0  0
  -17.3866   14.7403  -27.1118 O   0  0  0  0  0  0  0  0  0  0  0  0
  -18.9681   15.7659  -28.7120 N   0  0  0  0  0  0  0  0  0  0  0  0
  -23.6646   16.9327  -30.0901 C   0  0  0  0  0  0  0  0  0  0  0  0
  -21.2253   16.2202  -29.4918 N   0  0  0  0  0  0  0  0  0  0  0  0
  -18.2307   16.0031  -29.9553 C   0  0  0  0  0  0  0  0  0  0  0  0
  -24.5850   14.9866  -28.7342 C   0  0  0  0  0  0  0  0  0  0  0  0
  -14.5516   14.2277  -29.2833 C   0  0  0  0  0  0  0  0  0  0  0  0
  -18.8532   16.3350  -31.2152 C   0  0  0  0  0  0  0  0  0  0  0  0
  -23.0815   14.4911  -30.4230 O   0  0  0  0  0  0  0  0  0  0  0  0
  -20.5529   16.2405  -27.2070 C   0  0  0  0  0  0  0  0  0  0  0  0
  -20.2877   16.4731  -31.6891 C   0  0  0  0  0  0  0  0  0  0  0  0
  -22.5844   17.2308  -31.0873 N   0  0  0  0  0  0  0  0  0  0  0  0
  -15.8250   14.1141  -28.7506 C   0  0  0  0  0  0  0  0  0  0  0  0
  -20.3284   16.1166  -28.5711 C   0  0  0  0  0  0  0  0  0  0  0  0
  -16.1262   14.8175  -27.6327 C   0  0  0  0  0  0  0  0  0  0  0  0
  -19.4009   15.7406  -26.5410 C   0  0  0  0  0  0  0  0  0  0  0  0
  -15.2122   15.5718  -26.9857 C   0  0  0  0  0  0  0  0  0  0  0  0
  -18.4858   15.4041  -27.4548 C   0  0  0  0  0  0  0  0  0  0  0  0
  -13.5945   15.0163  -28.6451 C   0  0  0  0  0  0  0  0  0  0  0  0
  -23.6303   15.4686  -29.7606 C   0  0  0  0  0  0  0  0  0  0  0  0
  -21.4336   16.5519  -30.7791 C   0  0  0  0  0  3  0  0  0  0  0  0
  1 18  2  0
  1 20  1  0
  2 16  1  0
  2 19  1  0
  3  6  1  0
  3 15  1  0
  3 19  1  0
  4 13  1  0
  4 21  1  0
  5 15  2  0
  5 22  1  0
  6  9  2  0
  7 21  1  0
  8 14  1  0
  8 20  2  0
  9 12  1  0
 10 21  1  0
 11 15  1  0
 11 17  1  0
 12 22  1  0
 13 22  1  0
 14 16  2  0
 16 18  1  0
 17 19  1  0
M  END
>  <ID>  (1) 
conformer_0

$$$$
