
     RDKit          3D

 30 31  0  0  0  0  0  0  0  0999 V2000
  -15.1580   16.9523  -28.2812 C   0  0  0  0  0  0  0  0  0  0  0  0
  -19.3156   18.3745  -26.1600 O   0  0  0  0  0  0  0  0  0  0  0  0
  -19.6869   20.2300  -25.1069 C   0  0  0  0  0  0  0  0  0  0  0  0
  -18.4613   16.7794  -29.4212 N   0  0  0  0  0  0  0  0  0  0  0  0
  -17.4389   16.5528  -28.7094 C   0  0  0  0  0  0  0  0  0  0  0  0
  -16.1174   13.6886  -27.0255 F   0  0  0  0  0  0  0  0  0  0  0  0
  -24.1754   14.9980  -29.9512 C   0  0  0  0  0  0  0  0  0  0  0  0
  -18.5335   14.7049  -27.5306 F   0  0  0  0  0  0  0  0  0  0  0  0
  -17.3559   14.7067  -33.1409 C   0  0  0  0  0  0  0  0  0  0  0  0
  -20.3189   18.4265  -27.1745 C   0  0  0  0  0  0  0  0  0  0  0  0
  -20.3701   17.2323  -27.8634 O   0  0  0  0  0  0  0  0  0  0  0  0
  -19.5336   16.4703  -30.0295 C   0  0  0  0  0  0  0  0  0  0  0  0
  -20.9433   17.9281  -24.3508 C   0  0  0  0  0  0  0  0  0  0  0  0
  -18.2154   14.2453  -32.0550 C   0  0  0  0  0  0  0  0  0  0  0  0
  -17.4065   15.4190  -27.8992 C   0  0  0  0  0  0  0  0  0  0  0  0
  -20.6677   16.7795  -29.1730 C   0  0  0  0  0  0  0  0  0  0  0  0
  -24.0439   17.1951  -28.5475 O   0  0  0  0  0  1  0  0  0  0  0  0
  -18.6736   18.2840  -23.8701 O   0  0  0  0  0  0  0  0  0  0  0  0
  -21.9261   16.5745  -29.7994 C   0  0  0  0  0  0  0  0  0  0  0  0
  -16.3539   17.3784  -28.8036 C   0  0  0  0  0  0  0  0  0  0  0  0
  -19.4655   15.0376  -32.1721 C   0  0  0  0  0  0  0  0  0  0  0  0
  -23.1933   16.0474  -28.8775 P   0  0  0  0  0  4  0  0  0  0  0  0
  -19.6790   16.0387  -31.2468 N   0  0  0  0  0  0  0  0  0  0  0  0
  -22.7721   15.2865  -27.6492 O   0  0  0  0  0  0  0  0  0  0  0  0
  -16.2126   14.9599  -27.4909 C   0  0  0  0  0  0  0  0  0  0  0  0
  -15.1058   15.7457  -27.6705 C   0  0  0  0  0  0  0  0  0  0  0  0
  -19.5147   15.5851  -33.5780 C   0  0  0  0  0  0  0  0  0  0  0  0
  -13.7403   15.1303  -27.2304 Cl  0  0  0  0  0  0  0  0  0  0  0  0
  -18.1740   15.4882  -34.1145 C   0  0  0  0  0  0  0  0  0  0  0  0
  -19.6642   18.6985  -24.7974 C   0  0  0  0  0  0  0  0  0  0  0  0
  1 20  1  0
  1 26  1  0
  2 10  1  0
  2 30  1  0
  3 30  1  0
  4  5  1  0
  4 12  1  0
  5 15  1  0
  5 20  2  0
  6 25  1  0
  7 22  1  0
  8 15  1  0
  9 14  1  0
  9 29  1  0
 10 11  1  0
 11 16  1  0
 12 16  2  3
 12 23  1  0
 13 30  1  0
 14 21  1  0
 15 25  1  0
 16 19  1  0
 17 22  2  0
 18 30  1  0
 19 22  1  0
 21 23  1  0
 21 27  1  0
 22 24  1  0
 25 26  2  0
 26 28  1  0
 27 29  1  0
M  END
>  <ID>  (1) 
conformer_0

$$$$
