
     RDKit          3D

 20 23  0  0  0  0  0  0  0  0999 V2000
  -18.5163   17.8594  -27.9025 C   0  0  0  0  0  0  0  0  0  0  0  0
  -16.5268   14.7617  -27.4073 C   0  0  0  0  0  0  0  0  0  0  0  0
  -20.1289   16.1903  -31.8030 O   0  0  0  0  0  0  0  0  0  0  0  0
  -19.1121   16.5966  -29.7587 C   0  0  0  0  0  0  0  0  0  0  0  0
  -20.4583   17.0251  -29.2144 C   0  0  0  0  0  0  0  0  0  0  0  0
  -20.1553   16.4819  -27.0254 C   0  0  0  0  0  0  0  0  0  0  0  0
  -15.2054   14.3975  -26.7597 C   0  0  0  0  0  0  0  0  0  0  0  0
  -19.1072   15.5739  -27.5180 C   0  0  0  0  0  0  0  0  0  0  0  0
  -16.8666   16.1002  -26.9455 C   0  0  0  0  0  0  0  0  0  0  0  0
  -16.1997   16.6560  -26.0582 O   0  0  0  0  0  0  0  0  0  0  0  0
  -18.7428   18.9769  -31.5567 C   0  0  0  0  0  0  0  0  0  0  0  0
  -21.0614   15.8312  -26.2258 C   0  0  0  0  0  0  0  0  0  0  0  0
  -18.9422   18.9653  -30.1261 C   0  0  0  0  0  0  0  0  0  0  0  0
  -18.0530   16.5344  -27.5955 C   0  0  0  0  0  0  0  0  0  0  0  0
  -18.2808   17.8516  -29.4125 C   0  0  0  0  0  0  0  0  0  0  0  0
  -17.9454   16.3736  -31.7855 O   0  0  0  0  0  0  0  0  0  0  0  0
  -20.0930   17.6890  -27.8647 C   0  0  0  0  0  0  0  0  0  0  0  0
  -17.2368   14.6485  -28.7683 C   0  0  0  0  0  0  0  0  0  0  0  0
  -18.4240   15.5975  -28.7771 C   0  0  0  0  0  0  0  0  0  0  0  0
  -19.0606   16.3568  -31.2283 C   0  0  0  0  0  0  0  0  0  0  0  0
  1 14  1  0
  1 15  1  0
  1 17  1  0
  2  7  1  0
  2  9  1  0
  2 18  1  0
  3 20  2  0
  4  5  1  0
  4 15  1  0
  4 19  1  0
  4 20  1  0
  5 17  1  0
  6  8  1  0
  6 12  2  0
  6 17  1  0
  8 14  1  0
  8 19  1  0
  9 10  2  0
  9 14  1  0
 11 13  1  0
 13 15  1  0
 16 20  1  0
 18 19  1  0
M  END
>  <ID>  (1) 
conformer_0

$$$$
