
     RDKit          3D

 15 16  0  0  0  0  0  0  0  0999 V2000
  -16.3308   16.7301  -26.6399 C   0  0  0  0  0  0  0  0  0  0  0  0
  -20.5413   16.1415  -31.8603 C   0  0  0  0  0  0  0  0  0  0  0  0
  -19.6912   15.7924  -28.2709 C   0  0  0  0  0  0  0  0  0  0  0  0
  -20.9030   15.8512  -27.6380 C   0  0  0  0  0  0  0  0  0  0  0  0
  -17.8803   16.7448  -26.7433 C   0  0  0  0  0  0  0  0  0  0  0  0
  -20.7757   16.0277  -30.3563 C   0  0  0  0  0  0  0  0  0  0  0  0
  -19.2509   15.5493  -32.1416 N   0  0  0  0  0  0  0  0  0  0  0  0
  -23.1838   15.7478  -27.7369 F   0  0  0  0  0  0  0  0  0  0  0  0
  -19.6996   15.8558  -29.6103 N   0  0  0  0  0  0  0  0  0  0  0  0
  -16.2558   14.2229  -27.1866 C   0  0  0  0  0  0  0  0  0  0  0  0
  -15.5366   15.4184  -26.6247 C   0  0  0  0  0  0  0  0  0  0  0  0
  -22.0168   16.0812  -29.7470 C   0  0  0  0  0  0  0  0  0  0  0  0
  -17.5272   14.5663  -27.8013 C   0  0  0  0  0  0  0  0  0  0  0  0
  -18.4319   15.6422  -27.5009 C   0  0  0  0  0  0  0  0  0  0  0  0
  -22.0136   15.8957  -28.4074 C   0  0  0  0  0  0  0  0  0  0  0  0
  1  5  1  0
  1 11  1  0
  2  6  1  0
  2  7  1  0
  3  4  2  0
  3  9  1  0
  3 14  1  0
  4 15  1  0
  5 14  1  0
  6  9  2  0
  6 12  1  0
  8 15  1  0
 10 11  1  0
 10 13  1  0
 12 15  2  0
 13 14  1  0
M  END
>  <ID>  (1) 
conformer_0

$$$$
