
     RDKit          3D

 36 40  0  0  0  0  0  0  0  0999 V2000
  -19.4173   19.1889  -30.6795 N   0  0  0  0  0  0  0  0  0  0  0  0
  -15.9364   16.2784  -27.8142 C   0  0  0  0  0  0  0  0  0  0  0  0
  -19.5892   15.0878  -33.2373 C   0  0  0  0  0  0  0  0  0  0  0  0
  -15.3806   13.6190  -27.0758 C   0  0  0  0  0  0  0  0  0  0  0  0
  -20.7569   18.4977  -30.9247 C   0  0  0  0  0  0  0  0  0  0  0  0
  -17.6996   19.5057  -28.9165 C   0  0  0  0  0  0  0  0  0  0  0  0
  -19.8505   17.0163  -26.4508 C   0  0  0  0  0  0  0  0  0  0  0  0
  -22.3876   16.4914  -27.4961 C   0  0  0  0  0  0  0  0  0  0  0  0
  -17.7513   17.8230  -27.2492 N   0  0  0  0  0  0  0  0  0  0  0  0
  -20.9323   20.9250  -29.6267 O   0  0  0  0  0  0  0  0  0  0  0  0
  -22.1313   17.7252  -26.8948 C   0  0  0  0  0  0  0  0  0  0  0  0
  -17.2430   18.1930  -30.7402 C   0  0  0  0  0  0  0  0  0  0  0  0
  -16.9483   15.4948  -29.9431 C   0  0  0  0  0  0  0  0  0  0  0  0
  -20.1415   15.7464  -26.9524 C   0  0  0  0  0  0  0  0  0  0  0  0
  -20.1463   20.5865  -27.5854 O   0  0  0  0  0  0  0  0  0  0  0  0
  -20.8709   17.9475  -26.3543 C   0  0  0  0  0  0  0  0  0  0  0  0
  -21.3893   15.4957  -27.4986 C   0  0  0  0  0  0  0  0  0  0  0  0
  -17.8640   17.1622  -25.0965 O   0  0  0  0  0  0  0  0  0  0  0  0
  -19.8005   17.4706  -33.0230 C   0  0  0  0  0  0  0  0  0  0  0  0
  -19.1181   19.4802  -29.3306 C   0  0  0  0  0  0  0  0  0  0  0  0
  -14.7677   14.6712  -26.4278 C   0  0  0  0  0  0  0  0  0  0  0  0
  -14.9965   16.0261  -26.8240 C   0  0  0  0  0  0  0  0  0  0  0  0
  -19.4593   16.3691  -33.8132 C   0  0  0  0  0  0  0  0  0  0  0  0
  -17.0296   18.1983  -29.3272 N   0  0  0  0  0  0  0  0  0  0  0  0
  -16.1456   13.9000  -28.1975 C   0  0  0  0  0  0  0  0  0  0  0  0
  -20.5425   16.0200  -31.2129 C   0  0  0  0  0  0  0  0  0  0  0  0
  -20.3767   17.2855  -31.7295 C   0  0  0  0  0  0  0  0  0  0  0  0
  -20.1972   20.3610  -28.7967 C   0  0  0  0  0  0  0  0  0  0  0  0
  -16.6563   17.5576  -28.0626 C   0  0  0  0  0  0  0  0  0  0  0  0
  -16.3585   15.2005  -28.6246 C   0  0  0  0  0  0  0  0  0  0  0  0
  -15.9247   16.2159  -30.9357 C   0  0  0  0  0  0  0  0  0  0  0  0
  -18.4516   17.3822  -26.1845 C   0  0  0  0  0  0  0  0  0  0  0  0
  -16.0223   17.6958  -31.5095 C   0  0  0  0  0  0  0  0  0  0  0  0
  -18.1670   19.0528  -31.4755 C   0  0  0  0  0  0  0  0  0  0  0  0
  -20.1331   14.9168  -31.9628 C   0  0  0  0  0  0  0  0  0  0  0  0
  -19.6175   18.6742  -33.5885 O   0  0  0  0  0  0  0  0  0  0  0  0
  1  5  1  0
  1 20  1  0
  1 34  1  0
  2 22  1  0
  2 29  1  0
  2 30  1  0
  3 23  2  0
  3 35  1  0
  4 21  1  0
  4 25  2  0
  5 27  1  0
  6 20  1  0
  6 24  1  0
  7 14  1  0
  7 16  2  0
  7 32  1  0
  8 11  2  0
  8 17  1  0
  9 29  2  3
  9 32  1  0
 10 28  2  0
 11 16  1  0
 12 24  1  0
 12 33  1  0
 12 34  1  0
 13 30  1  0
 13 31  1  0
 14 17  2  0
 15 28  1  0
 18 32  2  0
 19 23  1  0
 19 27  2  0
 19 36  1  0
 20 28  1  0
 21 22  2  0
 24 29  1  0
 25 30  1  0
 26 27  1  0
 26 35  2  0
 31 33  1  0
M  END
>  <ID>  (1) 
conformer_0

$$$$
