
     RDKit          3D

 29 33  0  0  0  0  0  0  0  0999 V2000
  -19.4206   15.7633  -28.0053 N   0  0  0  0  0  0  0  0  0  0  0  0
  -20.2339   17.8903  -25.1544 C   0  0  0  0  0  0  0  0  0  0  0  0
  -22.2325   17.1319  -28.3068 C   0  0  0  0  0  0  0  0  0  0  0  0
  -17.2136   14.3584  -30.5271 C   0  0  0  0  0  0  0  0  0  0  0  0
  -23.4873   16.1909  -30.5577 C   0  0  0  0  0  0  0  0  0  0  0  0
  -21.8786   19.5203  -25.5521 N   0  0  0  0  0  0  0  0  0  0  0  0
  -19.4928   16.2855  -26.8324 C   0  0  0  0  0  0  0  0  0  0  0  0
  -17.8111   13.8362  -32.9276 C   0  0  0  0  0  0  0  0  0  0  0  0
  -16.5864   14.9011  -28.1181 C   0  0  0  0  0  0  0  0  0  0  0  0
  -14.8712   15.9898  -26.8223 C   0  0  0  0  0  0  0  0  0  0  0  0
  -15.1389   14.7603  -27.6219 C   0  0  0  0  0  0  0  0  0  0  0  0
  -22.2541   18.8651  -26.6332 C   0  0  0  0  0  0  0  0  0  0  0  0
  -18.8067   15.4812  -29.1829 C   0  0  0  0  0  0  0  0  0  0  0  0
  -17.5421   14.8899  -29.3132 C   0  0  0  0  0  0  0  0  0  0  0  0
  -20.4623   17.2658  -26.3445 C   0  0  0  0  0  0  0  0  0  0  0  0
  -22.2278   15.7983  -30.2691 C   0  0  0  0  0  0  0  0  0  0  0  0
  -18.4491   15.7592  -34.2827 C   0  0  0  0  0  0  0  0  0  0  0  0
  -24.1583   17.0717  -29.7082 C   0  0  0  0  0  0  0  0  0  0  0  0
  -21.6385   16.2796  -29.1673 C   0  0  0  0  0  0  0  0  0  0  0  0
  -23.5056   17.5164  -28.6382 C   0  0  0  0  0  0  0  0  0  0  0  0
  -19.1359   15.3515  -31.5177 N   0  0  0  0  0  0  0  0  0  0  0  0
  -18.0758   14.5638  -31.5877 C   0  0  0  0  0  0  0  0  0  0  0  0
  -19.4707   15.7418  -30.3648 C   0  0  0  0  0  0  0  0  0  0  0  0
  -16.0572   16.8015  -26.9907 N   0  0  0  0  0  0  0  0  0  0  0  0
  -18.7325   14.3641  -33.9451 O   0  0  0  0  0  0  0  0  0  0  0  0
  -17.1401   15.8707  -27.0900 C   0  0  0  0  0  0  0  0  0  0  0  0
  -21.6356   17.7129  -27.0830 C   0  0  0  0  0  0  0  0  0  0  0  0
  -18.2052   16.3451  -26.3587 N   0  0  0  0  0  0  0  0  0  0  0  0
  -20.9204   18.9913  -24.7599 N   0  0  0  0  0  0  0  0  0  0  0  0
  1  7  2  0
  1 13  1  0
  2 15  2  0
  2 29  1  0
  3 19  1  0
  3 20  1  0
  3 27  1  0
  4 14  1  0
  4 22  2  0
  5 16  1  0
  5 18  1  0
  6 12  1  0
  6 29  2  0
  7 15  1  0
  7 28  1  0
  8 22  1  0
  8 25  1  0
  9 11  1  0
  9 14  1  0
  9 26  1  0
 10 11  1  0
 10 24  1  0
 12 27  2  0
 13 14  1  0
 13 23  1  0
 15 27  1  0
 16 19  2  0
 17 25  1  0
 18 20  2  0
 21 22  1  0
 21 23  2  0
 24 26  2  0
 26 28  1  0
M  END
>  <ID>  (1) 
conformer_0

$$$$
