
     RDKit          3D

 20 21  0  0  0  0  0  0  0  0999 V2000
  -19.2680   17.4587  -25.2258 C   0  0  0  0  0  0  0  0  0  0  0  0
  -18.9757   16.6346  -26.4330 C   0  0  0  0  0  0  0  0  0  0  0  0
  -14.7376   15.6817  -27.7493 O   0  0  0  0  0  0  0  0  0  0  0  0
  -19.0008   15.5804  -29.4244 C   0  0  0  0  0  0  0  0  0  0  0  0
  -18.4402   17.0910  -32.6794 C   0  0  0  0  0  0  0  0  0  0  0  0
  -15.1187   14.4612  -27.1967 C   0  0  0  0  0  0  0  0  0  0  0  0
  -19.4314   14.3777  -32.9855 C   0  0  0  0  0  0  0  0  0  0  0  0
  -19.6756   15.4341  -34.0757 C   0  0  0  0  0  0  0  0  0  0  0  0
  -20.0226   16.4439  -27.3426 C   0  0  0  0  0  0  0  0  0  0  0  0
  -16.4764   14.1495  -27.2712 O   0  0  0  0  0  0  0  0  0  0  0  0
  -17.9618   16.0537  -31.6569 C   0  0  0  0  0  0  0  0  0  0  0  0
  -17.3837   15.1469  -27.6415 C   0  0  0  0  0  0  0  0  0  0  0  0
  -21.4068   16.6978  -26.7594 C   0  0  0  0  0  0  0  0  0  0  0  0
  -16.7531   16.5124  -25.8695 O   0  0  0  0  0  0  0  0  0  0  0  0
  -17.6809   16.1030  -26.6449 C   0  0  0  0  0  0  0  0  0  0  0  0
  -20.0486   14.8692  -31.6542 C   0  0  0  0  0  0  0  0  0  0  0  0
  -20.0045   16.1105  -28.6375 C   0  0  0  0  0  0  0  0  0  0  0  0
  -17.8502   15.0977  -28.8931 C   0  0  0  0  0  0  0  0  0  0  0  0
  -18.8149   16.5689  -33.9672 O   0  0  0  0  0  0  0  0  0  0  0  0
  -19.1250   15.5496  -30.8468 N   0  0  0  0  0  0  0  0  0  0  0  0
  1  2  1  0
  2  9  1  0
  2 15  1  0
  3  6  1  0
  4 17  1  0
  4 18  2  0
  4 20  1  0
  5 11  1  0
  5 19  1  0
  6 10  1  0
  7  8  1  0
  7 16  1  0
  8 19  1  0
  9 13  1  0
  9 17  1  0
 10 12  1  0
 11 20  1  0
 12 15  1  0
 12 18  1  0
 14 15  2  0
 16 20  1  0
M  END
>  <ID>  (1) 
conformer_0

$$$$
