
     RDKit          3D

 20 22  0  0  0  0  0  0  0  0999 V2000
  -21.2856   16.4065  -30.5621 C   0  0  0  0  0  0  0  0  0  0  0  0
  -17.0470   16.0946  -27.0985 C   0  0  0  0  0  0  0  0  0  0  0  0
  -23.2234   16.8048  -28.6930 C   0  0  0  0  0  0  0  0  0  0  0  0
  -15.9952   17.9768  -28.2168 O   0  0  0  0  0  0  0  0  0  0  0  0
  -17.9747   16.7959  -26.0737 C   0  0  0  0  0  0  0  0  0  0  0  0
  -22.5215   16.8371  -30.9157 C   0  0  0  0  0  0  0  0  0  0  0  0
  -17.3428   16.3875  -29.5072 C   0  0  0  0  0  0  0  0  0  0  0  0
  -19.6923   15.9250  -28.9096 O   0  0  0  0  0  0  0  0  0  0  0  0
  -24.2932   17.0069  -27.7342 C   0  0  0  0  0  0  0  0  0  0  0  0
  -21.9606   16.3974  -28.2610 C   0  0  0  0  0  0  0  0  0  0  0  0
  -18.9183   16.8797  -31.3922 C   0  0  0  0  0  0  0  0  0  0  0  0
  -18.4178   15.3677  -29.1088 C   0  0  0  0  0  0  0  0  0  0  0  0
  -15.7124   15.5342  -26.5968 C   0  0  0  0  0  0  0  0  0  0  0  0
  -16.7679   16.9896  -28.2553 C   0  0  0  0  0  0  0  0  0  0  0  0
  -17.9021   14.8792  -27.6502 C   0  0  0  0  0  0  0  0  0  0  0  0
  -20.1643   14.9856  -32.0852 O   0  0  0  0  0  0  0  0  0  0  0  0
  -17.9792   17.4624  -30.3552 C   0  0  0  0  0  0  0  0  0  0  0  0
  -21.0005   16.2294  -29.2103 C   0  0  0  0  0  0  0  0  0  0  0  0
  -23.4937   17.0377  -30.0015 C   0  0  0  0  0  0  0  0  0  0  0  0
  -20.1970   16.1817  -31.5196 C   0  0  0  0  0  0  0  0  0  0  0  0
  1  6  1  0
  1 18  2  0
  1 20  1  0
  2  5  1  0
  2 13  1  0
  2 14  1  0
  2 15  1  0
  3  9  1  0
  3 10  2  0
  3 19  1  0
  4 14  2  0
  6 19  2  0
  7 12  1  0
  7 14  1  0
  7 17  1  0
  8 12  1  0
  8 18  1  0
 10 18  1  0
 11 17  1  0
 11 20  1  0
 12 15  1  0
 16 20  1  0
M  END
>  <ID>  (1) 
conformer_0

$$$$
