
     RDKit          3D

 30 35  0  0  0  0  0  0  0  0999 V2000
  -20.1981   20.6390  -28.5676 C   0  0  0  0  0  0  0  0  0  0  0  0
  -18.5919   16.5241  -29.3080 C   0  0  0  0  0  0  0  0  0  0  0  0
  -20.2757   16.5596  -26.3674 O   0  0  0  0  0  0  0  0  0  0  0  0
  -21.1714   16.2003  -30.4496 C   0  0  0  0  0  0  0  0  0  0  0  0
  -23.3432   16.8263  -29.8039 C   0  0  0  0  0  0  0  0  0  0  0  0
  -18.5958   18.2061  -26.9959 N   0  0  0  0  0  0  0  0  0  0  0  0
  -18.7458   16.0142  -30.5725 C   0  0  0  0  0  0  0  0  0  0  0  0
  -14.5746   16.6906  -28.7911 C   0  0  0  0  0  0  0  0  0  0  0  0
  -19.4900   19.8926  -29.5621 C   0  0  0  0  0  0  0  0  0  0  0  0
  -16.0484   16.3907  -29.2788 C   0  0  0  0  0  0  0  0  0  0  0  0
  -16.0861   16.3378  -26.7384 C   0  0  0  0  0  0  0  0  0  0  0  0
  -22.4071   17.0889  -28.7257 C   0  0  0  0  0  0  0  0  0  0  0  0
  -22.4283   16.2675  -30.8736 O   0  0  0  0  0  0  0  0  0  0  0  0
  -17.2992   16.9332  -28.7031 C   0  0  0  0  0  0  0  0  0  0  0  0
  -16.0376   14.8413  -28.8357 C   0  0  0  0  0  0  0  0  0  0  0  0
  -17.3009   17.1684  -27.2743 N   0  0  0  0  0  0  0  0  0  0  0  0
  -15.8733   14.8663  -27.2705 C   0  0  0  0  0  0  0  0  0  0  0  0
  -21.2876   20.8697  -26.4252 C   0  0  0  0  0  0  0  0  0  0  0  0
  -21.0820   16.6414  -29.1902 C   0  0  0  0  0  0  0  0  0  0  0  0
  -19.2690   19.4672  -25.0736 C   0  0  0  0  0  0  0  0  0  0  0  0
  -20.1855   20.2322  -24.3853 C   0  0  0  0  0  0  0  0  0  0  0  0
  -19.3804   19.3516  -26.4427 C   0  0  0  0  0  0  0  0  0  0  0  0
  -19.5859   17.1751  -27.2338 C   0  0  0  0  0  0  0  0  0  0  0  0
  -20.0309   22.0914  -28.7788 C   0  0  0  0  0  0  0  0  0  0  0  0
  -14.7442   16.9532  -27.2497 C   0  0  0  0  0  0  0  0  0  0  0  0
  -20.3026   20.2564  -27.1517 C   0  0  0  0  0  0  0  0  0  0  0  0
  -20.0067   15.8387  -31.1325 C   0  0  0  0  0  0  0  0  0  0  0  0
  -16.5728   17.8687  -29.3884 C   0  0  0  0  0  0  0  0  0  0  0  0
  -21.2399   20.8535  -25.0615 C   0  0  0  0  0  0  0  0  0  0  0  0
  -19.7824   16.7529  -28.6163 C   0  0  0  0  0  0  0  0  0  0  0  0
  1  9  1  0
  1 24  1  0
  1 26  1  0
  2  7  2  0
  2 14  1  0
  2 30  1  0
  3 23  2  0
  4 13  1  0
  4 19  2  0
  4 27  1  0
  5 12  1  0
  5 13  1  0
  6 16  1  0
  6 22  1  0
  6 23  1  0
  7 27  1  0
  8 10  1  0
  8 25  1  0
 10 14  1  0
 10 15  1  0
 11 16  1  0
 11 17  1  0
 11 25  1  0
 12 19  1  0
 14 16  1  0
 14 28  1  0
 15 17  1  0
 18 26  1  0
 18 29  2  0
 19 30  1  0
 20 21  2  0
 20 22  1  0
 21 29  1  0
 22 26  1  0
 23 30  1  0
M  END
>  <ID>  (1) 
conformer_0

$$$$
