
     RDKit          3D

 17 18  0  0  0  0  0  0  0  0999 V2000
  -20.7435   17.6484  -25.3022 C   0  0  0  0  0  0  0  0  0  0  0  0
  -17.8460   16.0008  -26.9281 C   0  0  0  0  0  0  0  0  0  0  0  0
  -15.5019   14.6378  -27.2746 C   0  0  0  0  0  0  0  0  0  0  0  0
  -16.6087   14.3031  -27.9834 C   0  0  0  0  0  0  0  0  0  0  0  0
  -19.0937   16.6290  -26.6515 C   0  0  0  0  0  0  0  0  0  0  0  0
  -20.4311   16.1202  -30.0535 C   0  0  0  0  0  0  0  0  0  0  0  0
  -21.2654   16.9311  -27.5326 C   0  0  0  0  0  0  0  0  0  0  0  0
  -19.4510   17.2423  -25.4964 C   0  0  0  0  0  0  0  0  0  0  0  0
  -20.0138   16.5407  -27.7162 C   0  0  0  0  0  0  0  0  0  0  0  0
  -15.5728   15.6980  -26.3840 C   0  0  0  0  0  0  0  0  0  0  0  0
  -19.8682   15.1158  -30.8803 O   0  0  0  0  0  0  0  0  0  0  0  0
  -20.1204   15.3944  -32.2617 C   0  0  0  0  0  0  0  0  0  0  0  0
  -21.8177   16.2544  -30.6771 C   0  0  0  0  0  0  0  0  0  0  0  0
  -19.6075   16.1141  -28.9495 N   0  0  0  0  0  0  0  0  0  0  0  0
  -17.7227   14.9772  -27.8341 C   0  0  0  0  0  0  0  0  0  0  0  0
  -21.6584   17.4743  -26.3439 C   0  0  0  0  0  0  0  0  0  0  0  0
  -16.7307   16.3791  -26.2386 C   0  0  0  0  0  0  0  0  0  0  0  0
  1  8  2  0
  1 16  1  0
  2  5  1  0
  2 15  1  0
  2 17  1  0
  3  4  1  0
  3 10  1  0
  4 15  2  0
  5  8  1  0
  5  9  2  0
  6 11  1  0
  6 13  1  0
  6 14  1  0
  7  9  1  0
  7 16  2  0
  9 14  1  0
 10 17  2  0
 11 12  1  0
M  END
>  <ID>  (1) 
conformer_0

$$$$
