
     RDKit          3D

 20 22  0  0  0  0  0  0  0  0999 V2000
  -17.5552   16.9396  -25.6300 C   0  0  0  0  0  0  0  0  0  0  0  0
  -17.7993   15.1504  -27.6931 C   0  0  0  0  0  0  0  0  0  0  0  0
  -21.3196   15.4930  -31.2794 C   0  0  0  0  0  0  0  0  0  0  0  0
  -20.1491   16.1894  -27.9585 C   0  0  0  0  0  0  0  0  0  0  0  0
  -20.1186   15.3588  -31.9466 C   0  0  0  0  0  0  0  0  0  0  0  0
  -14.0222   14.9069  -27.2124 C   0  0  0  0  0  0  0  0  0  0  0  0
  -15.5461   12.9273  -27.2506 C   0  0  0  0  0  0  0  0  0  0  0  0
  -16.4425   16.2163  -26.0739 N   0  0  0  0  0  0  0  0  0  0  0  0
  -18.7764   16.8016  -26.2310 C   0  0  0  0  0  0  0  0  0  0  0  0
  -20.9291   16.9331  -27.1122 O   0  0  0  0  0  0  0  0  0  0  0  0
  -21.3047   15.9287  -29.9830 C   0  0  0  0  0  0  0  0  0  0  0  0
  -16.5808   15.2647  -27.0445 C   0  0  0  0  0  0  0  0  0  0  0  0
  -20.6056   17.3159  -24.5887 C   0  0  0  0  0  0  0  0  0  0  0  0
  -18.9580   16.1983  -30.1014 C   0  0  0  0  0  0  0  0  0  0  0  0
  -20.1249   16.1327  -29.3714 C   0  0  0  0  0  0  0  0  0  0  0  0
  -18.9234   15.7936  -31.3955 C   0  0  0  0  0  0  0  0  0  0  0  0
  -15.4161   14.4351  -27.5074 C   0  0  0  0  0  0  0  0  0  0  0  0
  -20.0808   14.7282  -33.1239 O   0  0  0  0  0  0  0  0  0  0  0  0
  -20.0983   17.4365  -26.0106 C   0  0  0  0  0  0  0  0  0  0  0  0
  -18.8141   15.9994  -27.3378 C   0  0  0  0  0  0  0  0  0  0  0  0
  1  8  1  0
  1  9  1  0
  2 12  1  0
  2 20  1  0
  3  5  1  0
  3 11  1  0
  4 10  1  0
  4 15  1  0
  4 20  1  0
  5 16  2  0
  5 18  1  0
  6 17  1  0
  7 17  1  0
  8 12  2  0
  9 19  1  0
  9 20  2  0
 10 19  1  0
 11 15  2  0
 12 17  1  0
 13 19  1  0
 14 15  1  0
 14 16  1  0
M  END
>  <ID>  (1) 
conformer_0

$$$$
