
     RDKit          3D

 25 26  0  0  0  0  0  0  0  0999 V2000
  -15.7215   15.6470  -29.3113 C   0  0  0  0  0  0  0  0  0  0  0  0
  -20.0440   15.7544  -28.6238 C   0  0  0  0  0  0  0  0  0  0  0  0
  -22.5765   15.5393  -27.7154 C   0  0  0  0  0  0  0  0  0  0  0  0
  -18.8248   15.4478  -28.6141 C   0  0  0  0  0  0  0  0  0  0  0  0
  -14.0896   15.0403  -27.2237 Cl  0  0  0  0  0  0  0  0  0  0  0  0
  -15.6930   15.1414  -28.0834 C   0  0  0  0  0  0  0  0  0  0  0  0
  -23.7341   17.9359  -26.9910 O   0  0  0  0  0  0  0  0  0  0  0  0
  -21.8643   16.7494  -27.5268 C   0  0  0  0  0  0  0  0  0  0  0  0
  -20.4939   16.8013  -27.8124 C   0  0  0  0  0  0  0  0  0  0  0  0
  -16.1482   15.8710  -30.4701 C   0  0  0  0  0  0  0  0  0  0  0  0
  -21.6720   18.9406  -26.5720 C   0  0  0  0  0  0  0  0  0  0  0  0
  -14.8383   17.1312  -31.6832 O   0  0  0  0  0  0  0  0  0  0  0  0
  -15.7746   16.2687  -31.6887 C   0  0  0  0  0  0  0  0  0  0  0  0
  -19.7102   17.8146  -27.3177 C   0  0  0  0  0  0  0  0  0  0  0  0
  -17.1855   15.5352  -33.6757 C   0  0  0  0  0  0  0  0  0  0  0  0
  -21.2473   15.5821  -31.1217 O   0  0  0  0  0  0  0  0  0  0  0  0
  -19.4689   15.7253  -29.7138 N   0  0  0  0  0  0  0  0  0  0  0  0
  -20.2798   18.9036  -26.6642 C   0  0  0  0  0  0  0  0  0  0  0  0
  -22.4523   17.8869  -27.0238 C   0  0  0  0  0  0  0  0  0  0  0  0
  -16.7869   14.7059  -27.3440 C   0  0  0  0  0  0  0  0  0  0  0  0
  -18.5440   15.3418  -33.3443 C   0  0  0  0  0  0  0  0  0  0  0  0
  -19.1994   15.5902  -32.1388 C   0  0  0  0  0  3  0  0  0  0  0  0
  -20.0125   15.6459  -30.9638 C   0  0  0  0  0  0  0  0  0  0  0  0
  -16.2174   15.8304  -32.9401 C   0  0  0  0  0  0  0  0  0  0  0  0
  -18.0581   14.9252  -27.7128 C   0  0  0  0  0  0  0  0  0  0  0  0
  1  6  2  0
  1 10  2  0
  2  4  1  0
  2  9  1  0
  2 17  1  0
  3  8  1  0
  4 25  2  0
  5  6  1  0
  6 20  1  0
  7 19  2  0
  8  9  1  0
  8 19  1  0
  9 14  2  0
 10 13  1  0
 11 18  2  0
 11 19  1  0
 12 13  2  0
 13 24  1  0
 14 18  1  0
 15 21  1  0
 15 24  2  0
 16 23  2  0
 17 23  1  0
 20 25  1  0
 21 22  2  0
 22 23  1  0
M  END
>  <ID>  (1) 
conformer_0

$$$$
