
     RDKit          3D

 27 29  0  0  0  0  0  0  0  0999 V2000
  -14.8276   14.2975  -26.7070 C   0  0  0  0  0  0  0  0  0  0  0  0
  -15.8668   13.5993  -27.5780 C   0  0  0  0  0  0  0  0  0  0  0  0
  -20.0616   16.0357  -32.0472 C   0  0  0  0  0  0  0  0  0  0  0  0
  -17.4661   17.7633  -28.7301 C   0  0  0  0  0  0  0  0  0  0  0  0
  -20.5164   14.8111  -31.6031 O   0  0  0  0  0  0  0  0  0  0  0  0
  -18.8516   20.1327  -29.5523 C   0  0  0  0  0  0  0  0  0  0  0  0
  -17.1726   17.3286  -31.4893 O   0  0  0  0  0  0  0  0  0  0  0  0
  -18.6633   18.5763  -26.2847 O   0  0  0  0  0  0  0  0  0  0  0  0
  -18.6885   19.0045  -30.5963 C   0  0  0  0  0  0  0  0  0  0  0  0
  -16.4567   16.6924  -28.4537 C   0  0  0  0  0  0  0  0  0  0  0  0
  -16.1946   18.9774  -30.1630 O   0  0  0  0  0  0  0  0  0  0  0  0
  -17.1896   14.3702  -27.6056 C   0  0  0  0  0  0  0  0  0  0  0  0
  -17.3794   18.1609  -30.2514 C   0  0  0  0  0  0  0  0  0  0  0  0
  -17.1685   15.4072  -28.7471 C   0  0  0  0  0  0  0  0  0  0  0  0
  -18.8254   17.3921  -28.2919 C   0  0  0  0  0  0  0  0  0  0  0  0
  -16.2195   17.1606  -26.0357 O   0  0  0  0  0  0  0  0  0  0  0  0
  -20.2937   17.2211  -31.4533 C   0  0  0  0  0  0  0  0  0  0  0  0
  -20.6367   17.3372  -26.7133 C   0  0  0  0  0  0  0  0  0  0  0  0
  -20.0683   17.7197  -28.9990 C   0  0  0  0  0  0  0  0  0  0  0  0
  -15.8529   16.6173  -27.1149 C   0  0  0  0  0  0  0  0  0  0  0  0
  -20.7707   17.3049  -25.1806 C   0  0  0  0  0  0  0  0  0  0  0  0
  -18.1442   15.1772  -29.6157 O   0  0  0  0  0  0  0  0  0  0  0  0
  -21.0407   17.8389  -28.0521 O   0  0  0  0  0  0  0  0  0  0  0  0
  -14.5729   15.8049  -26.9643 C   0  0  0  0  0  0  0  0  0  0  0  0
  -19.1182   17.4113  -26.8536 C   0  0  0  0  0  0  0  0  0  0  0  0
  -16.1068   17.8087  -32.3120 C   0  0  0  0  0  0  0  0  0  0  0  0
  -19.8928   18.0672  -30.4050 C   0  0  0  0  0  0  0  0  0  0  0  0
  1  2  1  0
  1 24  1  0
  2 12  1  0
  3  5  1  0
  3 17  1  0
  4 10  1  0
  4 13  1  0
  4 15  1  0
  6  9  1  0
  7 13  1  0
  7 26  1  0
  8 25  1  0
  9 13  1  0
  9 27  1  0
 10 14  1  0
 10 20  1  0
 11 13  1  0
 12 14  1  0
 14 22  1  0
 15 19  1  0
 15 25  1  0
 16 20  2  0
 17 27  1  0
 18 21  1  0
 18 23  1  0
 18 25  1  0
 19 23  1  0
 19 27  1  0
 20 24  1  0
M  END
>  <ID>  (1) 
conformer_0

$$$$
