
     RDKit          3D

 28 31  0  0  0  0  0  0  0  0999 V2000
  -18.6203   16.9024  -26.9617 N   0  0  0  0  0  0  0  0  0  0  0  0
  -17.5001   16.4004  -27.5071 C   0  0  0  0  0  0  0  0  0  0  0  0
  -20.8762   16.0163  -26.6041 C   0  0  0  0  0  0  0  0  0  0  0  0
  -18.3440   16.1345  -34.4277 C   0  0  0  0  0  0  0  0  0  0  0  0
  -22.1360   15.8981  -27.5678 C   0  0  0  0  0  0  0  0  0  0  0  0
  -17.0214   14.6194  -29.0935 C   0  0  0  0  0  0  0  0  0  0  0  0
  -20.1446   16.2435  -28.7804 O   0  0  0  0  0  0  0  0  0  0  0  0
  -16.3089   16.2139  -26.7211 C   0  0  0  0  0  0  0  0  0  0  0  0
  -16.2211   14.0273  -27.9473 C   0  0  0  0  0  0  0  0  0  0  0  0
  -15.5227   15.0905  -27.1782 C   0  0  0  0  0  0  0  0  0  0  0  0
  -23.2636   16.0499  -30.4012 C   0  0  0  0  0  0  0  0  0  0  0  0
  -21.5182   16.2050  -28.8575 N   0  0  0  0  0  0  0  0  0  0  0  0
  -17.6957   17.1260  -29.8497 C   0  0  0  0  0  0  0  0  0  0  0  0
  -23.5697   15.4424  -27.9356 C   0  0  0  0  0  0  0  0  0  0  0  0
  -17.4528   18.1124  -32.1642 C   0  0  0  0  0  0  0  0  0  0  0  0
  -22.0536   16.8196  -30.0596 C   0  0  0  0  0  0  0  0  0  0  0  0
  -18.5262   15.4972  -33.2192 C   0  0  0  0  0  0  0  0  0  0  0  0
  -17.8826   17.4476  -34.5718 C   0  0  0  0  0  0  0  0  0  0  0  0
  -16.8647   19.2442  -31.4586 C   0  0  0  0  0  0  0  0  0  0  0  0
  -18.2915   15.8478  -31.9661 C   0  0  0  0  0  0  0  0  0  0  0  0
  -17.1591   19.6494  -30.2624 O   0  0  0  0  0  0  0  0  0  0  0  0
  -14.1178   14.9568  -26.7572 C   0  0  0  0  0  0  0  0  0  0  0  0
  -17.4785   16.0512  -28.8761 C   0  0  0  0  0  0  0  0  0  0  0  0
  -17.8070   16.9860  -31.3365 C   0  0  0  0  0  0  0  0  0  0  0  0
  -16.3740   16.9528  -25.4244 C   0  0  0  0  0  0  0  0  0  0  0  0
  -17.5766   18.1967  -33.5177 C   0  0  0  0  0  0  0  0  0  0  0  0
  -24.1664   16.0328  -29.2067 C   0  0  0  0  0  0  0  0  0  0  0  0
  -19.7590   16.4268  -27.5057 C   0  0  0  0  0  0  0  0  0  0  0  0
  1  2  1  0
  1 28  1  0
  2  8  1  0
  2 23  1  0
  3  5  1  0
  3 28  1  0
  4 17  1  0
  4 18  1  0
  5 12  1  0
  5 14  1  0
  6  9  1  0
  6 23  1  0
  7 12  1  0
  7 28  1  0
  8 10  1  0
  8 25  1  0
  9 10  1  0
 10 22  1  0
 11 16  1  0
 11 27  1  0
 12 16  1  0
 13 23  2  3
 13 24  1  0
 14 27  1  0
 15 19  1  0
 15 24  2  0
 15 26  1  0
 17 20  2  0
 18 26  2  0
 19 21  1  0
 20 24  1  0
M  END
>  <ID>  (1) 
conformer_0

$$$$
