
     RDKit          3D

 21 23  0  0  0  0  0  0  0  0999 V2000
  -23.2150   16.7420  -29.4227 N   0  0  0  0  0  0  0  0  0  0  0  0
  -17.9167   15.0190  -27.8893 C   0  0  0  0  0  0  0  0  0  0  0  0
  -24.7847   15.9110  -27.8739 C   0  0  0  0  0  0  0  0  0  0  0  0
  -21.1309   16.3484  -30.2237 N   0  0  0  0  0  0  0  0  0  0  0  0
  -22.6777   15.6576  -28.8083 C   0  0  0  0  0  0  0  0  0  0  0  0
  -17.6542   17.4917  -30.8815 C   0  0  0  0  0  0  0  0  0  0  0  0
  -19.8627   16.3683  -30.8145 C   0  0  0  0  0  0  0  0  0  0  0  0
  -19.7137   15.9847  -32.2450 C   0  0  0  0  0  0  0  0  0  0  0  0
  -25.9768   15.2259  -27.2478 C   0  0  0  0  0  0  0  0  0  0  0  0
  -22.2140   17.1333  -30.3412 N   0  0  0  0  0  0  0  0  0  0  0  0
  -15.0505   16.2994  -28.7781 C   0  0  0  0  0  0  0  0  0  0  0  0
  -16.4827   16.7727  -28.7568 C   0  0  0  0  0  0  0  0  0  0  0  0
  -24.5506   16.9211  -28.8301 C   0  0  0  0  0  0  0  0  0  0  0  0
  -16.5218   14.2697  -27.7017 C   0  0  0  0  0  0  0  0  0  0  0  0
  -23.6111   15.0711  -28.0025 N   0  0  0  0  0  0  0  0  0  0  0  0
  -27.0895   16.1132  -26.7508 C   0  0  0  0  0  0  0  0  0  0  0  0
  -17.7246   15.9977  -28.9747 N   0  0  0  0  0  0  0  0  0  0  0  0
  -18.5768   16.4909  -30.0377 C   0  0  0  0  0  0  0  0  0  0  0  0
  -21.4490   15.4873  -29.2254 N   0  0  0  0  0  0  0  0  0  0  0  0
  -15.5356   14.9763  -26.7488 C   0  0  0  0  0  0  0  0  0  0  0  0
  -14.6326   16.0676  -27.2742 C   0  0  0  0  0  0  0  0  0  0  0  0
  1  5  1  0
  1 10  1  0
  1 13  1  0
  2 14  1  0
  2 17  1  0
  3  9  1  0
  3 13  1  0
  3 15  1  0
  4  7  1  0
  4 10  1  0
  4 19  1  0
  5 15  2  0
  5 19  1  0
  6 18  1  0
  7  8  1  0
  7 18  1  0
  9 16  1  0
 11 12  1  0
 11 21  1  0
 12 17  1  0
 14 20  1  0
 17 18  1  0
 20 21  1  0
M  END
>  <ID>  (1) 
conformer_0

$$$$
