
     RDKit          3D

 13 15  0  0  0  0  0  0  0  0999 V2000
   -1.0780  -31.2540  -15.9084 C   0  0  0  0  0  0  0  0  0  0  0  0
   -1.0780  -31.2540  -17.4084 C   0  0  0  0  0  0  0  0  0  0  0  0
    0.2220  -31.0540  -15.3084 C   0  0  0  0  0  0  0  0  0  0  0  0
   -2.3780  -30.6540  -17.7084 N   0  0  0  0  0  0  0  0  0  0  0  0
   -1.9780  -30.2540  -15.3084 C   0  0  0  0  0  0  0  0  0  0  0  0
   -1.5780  -29.9540  -14.0084 C   0  0  0  0  0  0  0  0  0  0  0  0
    0.5220  -31.2540  -13.9084 C   0  0  0  0  0  0  0  0  0  0  0  0
   -2.6780  -29.4540  -13.3084 N   0  0  0  0  0  0  0  0  0  0  0  0
   -3.7780  -29.5540  -13.9084 C   0  0  0  0  0  0  0  0  0  0  0  0
   -3.9780  -29.3540  -15.0084 N   0  0  0  0  0  0  0  0  0  0  0  0
   -2.8780  -29.2540  -15.7084 C   0  0  0  0  0  0  0  0  0  0  0  0
   -0.4780  -30.3540  -13.3084 N   0  0  0  0  0  0  0  0  0  0  0  0
   -1.1780  -29.8540  -17.8084 C   0  0  0  0  0  0  0  0  0  0  0  0
  2  1  1  0
  3  1  1  0
  4  2  1  0
  5  1  1  0
  6  5  1  0
  7  3  1  0
  8  6  2  0
  9  8  1  0
 10  9  1  0
 11  5  1  0
 11 10  1  0
 12  6  1  0
 12  7  1  0
 13  2  1  0
 13  4  1  0
M  END
>  <ID>  (1) 
conformer_0

$$$$
