
     RDKit          3D

 14 17  0  0  0  0  0  0  0  0999 V2000
    0.0681  -31.7849  -15.6771 C   0  0  0  0  0  0  0  0  0  0  0  0
   -0.8319  -31.5849  -16.5771 C   0  0  0  0  0  0  0  0  0  0  0  0
   -1.9319  -30.5849  -16.3771 C   0  0  0  0  0  0  0  0  0  0  0  0
   -1.9319  -30.3849  -14.9771 C   0  0  0  0  0  3  0  0  0  0  0  0
   -0.9319  -30.3849  -14.0771 C   0  0  0  0  0  0  0  0  0  0  0  0
    0.1681  -30.9849  -14.5771 C   0  0  0  0  0  0  0  0  0  0  0  0
   -3.1319  -29.5849  -14.5771 C   0  0  0  0  0  0  0  0  0  0  0  0
   -4.0319  -29.8849  -15.4771 N   0  0  0  0  0  0  0  0  0  0  0  0
   -1.2319  -29.8849  -12.7771 C   0  0  0  0  0  0  0  0  0  0  0  0
   -3.6319  -29.6849  -13.1771 C   0  0  0  0  0  0  0  0  0  0  0  0
   -2.5319  -29.7849  -12.2771 C   0  0  0  0  0  0  0  0  0  0  0  0
   -0.6319  -30.1849  -16.9771 C   0  0  0  0  0  0  0  0  0  0  0  0
   -0.3319  -29.7849  -18.1771 N   0  0  0  0  0  0  0  0  0  0  0  0
   -3.4319  -30.4849  -16.5771 C   0  0  0  0  0  0  0  0  0  0  0  0
  2  1  2  0
  3  2  1  0
  4  3  1  0
  5  4  1  0
  6  1  1  0
  6  5  2  0
  7  4  1  0
  8  7  1  0
  9  5  1  0
 10  7  2  0
 11  9  2  0
 11 10  1  0
 12  2  1  0
 12  3  1  0
 13 12  2  0
 14  3  1  0
 14  8  2  0
M  END
>  <ID>  (1) 
conformer_0

$$$$
