
     RDKit          3D

 22 26  0  0  0  0  0  0  0  0999 V2000
    0.0681  -31.7849  -15.6771 C   0  0  0  0  0  0  0  0  0  0  0  0
   -0.8319  -31.5849  -16.5771 C   0  0  0  0  0  0  0  0  0  0  0  0
   -1.9319  -30.5849  -16.3771 C   0  0  0  0  0  0  0  0  0  0  0  0
   -1.9319  -30.3849  -14.9771 C   0  0  0  0  0  3  0  0  0  0  0  0
   -0.9319  -30.3849  -14.0771 C   0  0  0  0  0  0  0  0  0  0  0  0
    0.1681  -30.9849  -14.5771 C   0  0  0  0  0  0  0  0  0  0  0  0
   -3.1319  -29.5849  -14.5771 C   0  0  0  0  0  0  0  0  0  0  0  0
   -3.9319  -29.9849  -15.5771 N   0  0  0  0  0  0  0  0  0  0  0  0
   -3.4319  -29.4849  -13.1771 C   0  0  0  0  0  0  0  0  0  0  0  0
   -1.0319  -29.9849  -12.6771 C   0  0  0  0  0  0  0  0  0  0  0  0
   -0.7319  -30.2849  -16.9771 C   0  0  0  0  0  0  0  0  0  0  0  0
   -2.3319  -29.6849  -12.1771 C   0  0  0  0  0  0  0  0  0  0  0  0
   -2.5319  -29.9849  -10.7771 C   0  0  0  0  0  0  0  0  0  0  0  0
   -2.5319  -29.2849   -9.5771 C   0  0  0  0  0  0  0  0  0  0  0  0
   -3.7319  -29.0849   -8.7771 C   0  0  0  0  0  0  0  0  0  0  0  0
   -4.9319  -29.3849   -9.4771 C   0  0  0  0  0  0  0  0  0  0  0  0
   -4.9319  -28.7849  -10.7771 C   0  0  0  0  0  0  0  0  0  0  0  0
   -3.5319  -29.2849   -7.4771 O   0  0  0  0  0  0  0  0  0  0  0  0
   -2.1319  -29.5849   -7.1771 C   0  0  0  0  0  0  0  0  0  0  0  0
   -3.2319  -30.3849  -16.6771 C   0  0  0  0  0  0  0  0  0  0  0  0
   -4.6319  -29.1849  -12.9771 N   0  0  0  0  0  0  0  0  0  0  0  0
   -5.3319  -28.4849  -11.9771 C   0  0  0  0  0  0  0  0  0  0  0  0
  2  1  2  0
  3  2  1  0
  4  3  1  0
  5  4  1  0
  6  1  1  0
  6  5  2  0
  7  4  1  0
  8  7  1  0
  9  7  2  0
 10  5  1  0
 11  2  1  0
 11  3  1  0
 12  9  1  0
 12 10  2  0
 13 12  1  0
 14 13  1  0
 15 14  1  0
 16 15  1  0
 17 16  1  0
 18 15  1  0
 19 18  1  0
 20  3  1  0
 20  8  2  0
 21  9  1  0
 22 17  1  0
 22 21  1  0
M  END
>  <ID>  (1) 
conformer_0

$$$$
