
     RDKit          3D

 21 26  0  0  0  0  0  0  0  0999 V2000
    0.0681  -31.7849  -15.6771 C   0  0  0  0  0  0  0  0  0  0  0  0
   -0.8319  -31.5849  -16.5771 C   0  0  0  0  0  0  0  0  0  0  0  0
   -1.9319  -30.5849  -16.3771 C   0  0  0  0  0  0  0  0  0  0  0  0
   -1.9319  -30.3849  -14.9771 C   0  0  0  0  0  3  0  0  0  0  0  0
   -0.9319  -30.2849  -14.0771 C   0  0  0  0  0  0  0  0  0  0  0  0
    0.1681  -30.8849  -14.6771 C   0  0  0  0  0  0  0  0  0  0  0  0
   -3.1319  -29.5849  -14.5771 C   0  0  0  0  0  0  0  0  0  0  0  0
   -3.9319  -29.9849  -15.4771 N   0  0  0  0  0  0  0  0  0  0  0  0
   -1.2319  -29.6849  -12.8771 C   0  0  0  0  0  0  0  0  0  0  0  0
   -0.7319  -30.1849  -17.0771 C   0  0  0  0  0  0  0  0  0  0  0  0
   -3.6319  -29.5849  -13.1771 C   0  0  0  0  0  0  0  0  0  0  0  0
   -2.4319  -29.8849  -12.1771 C   0  0  0  0  0  0  0  0  0  0  0  0
   -2.8319  -29.6849  -10.8771 C   0  0  0  0  0  0  0  0  0  0  0  0
   -2.2319  -29.5849   -9.5771 C   0  0  0  0  0  0  0  0  0  0  0  0
   -2.8319  -28.8849   -8.5771 C   0  0  0  0  0  0  0  0  0  0  0  0
   -4.2319  -28.7849   -8.5771 C   0  0  0  0  0  0  0  0  0  0  0  0
   -4.9319  -28.8849   -9.6771 C   0  0  0  0  0  0  0  0  0  0  0  0
   -4.2319  -29.1849  -10.8771 C   0  0  0  0  0  0  0  0  0  0  0  0
   -4.6319  -29.1849  -12.1771 N   0  0  0  0  0  0  0  0  0  0  0  0
   -3.3319  -30.6849  -16.5771 C   0  0  0  0  0  0  0  0  0  0  0  0
   -0.3319  -30.0849  -18.2771 O   0  0  0  0  0  0  0  0  0  0  0  0
  2  1  2  0
  3  2  1  0
  4  3  1  0
  5  4  1  0
  6  1  1  0
  6  5  2  0
  7  4  1  0
  8  7  1  0
  9  5  1  0
 10  2  1  0
 10  3  1  0
 11  7  2  0
 12  9  2  0
 12 11  1  0
 13 12  1  0
 14 13  1  0
 15 14  2  0
 16 15  1  0
 17 16  2  0
 18 13  1  0
 18 17  1  0
 19 11  1  0
 19 18  2  0
 20  3  1  0
 20  8  2  0
 21 10  2  0
M  END
>  <ID>  (1) 
conformer_0

$$$$
