
     RDKit          3D

 14 17  0  0  0  0  0  0  0  0999 V2000
   -0.8266  -30.2578  -13.8544 C   0  0  0  0  0  0  0  0  0  0  0  0
   -0.5266  -30.8578  -15.0544 C   0  0  0  0  0  0  0  0  0  0  0  0
   -1.6266  -30.8578  -16.0544 C   0  0  0  0  0  0  0  0  0  0  0  0
   -2.8266  -30.3578  -15.4544 C   0  0  0  0  0  0  0  0  0  0  0  0
    0.5734  -31.7578  -15.2544 C   0  0  0  0  0  0  0  0  0  0  0  0
   -1.3266  -31.4578  -17.3544 C   0  0  0  0  0  0  0  0  0  0  0  0
   -3.9266  -29.9578  -15.5544 N   0  0  0  0  0  0  0  0  0  0  0  0
   -2.9266  -29.4578  -14.5544 C   0  0  0  0  0  0  0  0  0  0  0  0
    1.7734  -31.3578  -14.6544 C   0  0  0  0  0  0  0  0  0  0  0  0
    0.3734  -30.0578  -13.0544 C   0  0  0  0  0  0  0  0  0  0  0  0
    1.5734  -30.8578  -13.3544 C   0  0  0  0  0  0  0  0  0  0  0  0
   -0.7266  -30.5578  -18.2544 C   0  0  0  0  0  0  0  0  0  0  0  0
   -0.1266  -31.5578  -17.6544 N   0  0  0  0  0  0  0  0  0  0  0  0
    0.6734  -31.7578  -16.6544 N   0  0  0  0  0  0  0  0  0  0  0  0
  2  1  1  0
  3  2  2  0
  4  3  1  0
  5  2  1  0
  6  3  1  0
  7  4  1  0
  8  4  1  0
  8  7  2  0
  9  5  1  0
 10  1  2  0
 11  9  2  0
 11 10  1  0
 12  6  1  0
 13  6  1  0
 13 12  1  0
 14  5  2  0
 14 13  1  0
M  END
>  <ID>  (1) 
conformer_0

$$$$
