
     RDKit          3D

 26 33  0  0  0  0  0  0  0  0999 V2000
    0.0681  -31.7849  -15.6771 C   0  0  0  0  0  0  0  0  0  0  0  0
   -0.8319  -31.5849  -16.5771 C   0  0  0  0  0  3  0  0  0  0  0  0
   -1.9319  -30.5849  -16.3771 C   0  0  0  0  0  0  0  0  0  0  0  0
   -1.9319  -30.3849  -14.9771 C   0  0  0  0  0  0  0  0  0  0  0  0
   -0.9319  -30.3849  -14.0771 C   0  0  0  0  0  0  0  0  0  0  0  0
    0.1681  -30.9849  -14.5771 C   0  0  0  0  0  0  0  0  0  0  0  0
   -3.1319  -29.5849  -14.5771 C   0  0  0  0  0  0  0  0  0  0  0  0
   -3.9319  -29.9849  -15.5771 N   0  0  0  0  0  0  0  0  0  0  0  0
   -3.4319  -29.4849  -13.1771 C   0  0  0  0  0  0  0  0  0  0  0  0
   -1.0319  -29.9849  -12.6771 C   0  0  0  0  0  0  0  0  0  0  0  0
   -0.7319  -30.2849  -16.9771 C   0  0  0  0  0  0  0  0  0  0  0  0
   -2.3319  -29.6849  -12.1771 C   0  0  0  0  0  0  0  0  0  0  0  0
   -2.6319  -29.7849  -10.7771 C   0  0  0  0  0  0  0  0  0  0  0  0
   -1.7319  -30.1849   -9.7771 C   0  0  0  0  0  0  0  0  0  0  0  0
   -2.0319  -29.4849   -8.5771 C   0  0  0  0  0  0  0  0  0  0  0  0
   -3.3319  -28.8849   -8.4771 C   0  0  0  0  0  0  0  0  0  0  0  0
   -4.4319  -29.4849   -9.1771 C   0  0  0  0  0  0  0  0  0  0  0  0
   -5.7319  -29.2849   -8.6771 C   0  0  0  0  0  0  0  0  0  0  0  0
   -4.0319  -29.5849  -10.4771 N   0  0  0  0  0  0  0  0  0  0  0  0
   -2.3319  -28.1849   -8.7771 N   0  0  0  0  0  0  0  0  0  0  0  0
   -3.3319  -30.6849  -16.6771 C   0  0  0  0  0  0  0  0  0  0  0  0
   -4.8319  -28.9849  -11.2771 C   0  0  0  0  0  0  0  0  0  0  0  0
   -1.8319  -27.3849   -7.6771 C   0  0  0  0  0  0  0  0  0  0  0  0
   -1.2319  -26.1849   -7.4771 O   0  0  0  0  0  0  0  0  0  0  0  0
   -4.5319  -29.0849  -12.6771 O   0  0  0  0  0  0  0  0  0  0  0  0
   -0.8319  -27.6849   -7.0771 C   0  0  0  0  0  0  0  0  0  0  0  0
  2  1  1  0
  3  2  1  0
  4  3  1  0
  5  4  1  0
  6  1  2  0
  6  5  1  0
  7  4  2  0
  8  7  1  0
  9  7  1  0
 10  5  2  0
 11  2  1  0
 11  3  1  0
 12  9  1  0
 12 10  1  0
 13 12  2  0
 14 13  1  0
 15 14  2  0
 16 15  1  0
 17 16  2  0
 18 17  1  0
 19 13  1  0
 19 17  1  0
 20 15  1  0
 20 16  1  0
 21  3  1  0
 21  8  2  0
 22 19  1  0
 23 20  1  0
 24 23  1  0
 25  9  1  0
 25 22  1  0
 26 23  1  0
 26 24  1  0
M  END
>  <ID>  (1) 
conformer_0

$$$$
