
     RDKit          3D

 26 31  0  0  0  0  0  0  0  0999 V2000
    0.0681  -31.7849  -15.6771 C   0  0  0  0  0  0  0  0  0  0  0  0
   -0.8319  -31.5849  -16.5771 C   0  0  0  0  0  0  0  0  0  0  0  0
   -1.9319  -30.5849  -16.3771 C   0  0  0  0  0  0  0  0  0  0  0  0
   -1.9319  -30.3849  -14.9771 C   0  0  0  0  0  0  0  0  0  0  0  0
   -0.9319  -30.3849  -14.0771 C   0  0  0  0  0  0  0  0  0  0  0  0
    0.1681  -30.9849  -14.5771 C   0  0  0  0  0  0  0  0  0  0  0  0
   -1.0319  -29.8849  -12.7771 C   0  0  0  0  0  0  0  0  0  0  0  0
   -3.0319  -29.5849  -14.3771 C   0  0  0  0  0  0  0  0  0  0  0  0
   -3.8319  -29.6849  -15.4771 N   0  0  0  0  0  0  0  0  0  0  0  0
   -3.4319  -29.5849  -13.0771 C   0  0  0  0  0  0  0  0  0  0  0  0
   -0.6319  -30.1849  -16.9771 C   0  0  0  0  0  0  0  0  0  0  0  0
   -2.3319  -29.7849  -12.0771 C   0  0  0  0  0  0  0  0  0  0  0  0
   -2.5319  -29.5849  -10.7771 C   0  0  0  0  0  0  0  0  0  0  0  0
   -2.3319  -29.1849   -9.4771 C   0  0  0  0  0  0  0  0  0  0  0  0
   -3.2319  -28.8849   -8.4771 C   0  0  0  0  0  0  0  0  0  0  0  0
   -4.5319  -29.1849   -8.8771 C   0  0  0  0  0  0  0  0  0  0  0  0
   -5.1319  -29.2849  -10.0771 C   0  0  0  0  0  0  0  0  0  0  0  0
   -4.5319  -29.0849  -12.4771 N   0  0  0  0  0  0  0  0  0  0  0  0
   -4.7319  -28.6849  -11.1771 C   0  0  0  0  0  0  0  0  0  0  0  0
   -5.3319  -29.4849   -7.6771 O   0  0  0  0  0  0  0  0  0  0  0  0
   -4.4319  -29.7849   -6.5771 C   0  0  0  0  0  0  0  0  0  0  0  0
   -4.1319  -30.8849  -15.6771 N   0  0  0  0  0  0  0  0  0  0  0  0
   -3.2319  -31.1849  -16.7771 C   0  0  0  0  0  0  0  0  0  0  0  0
   -0.0319  -30.0849  -18.0771 N   0  0  0  0  0  0  0  0  0  0  0  0
   -3.4319  -28.6849  -15.4771 N   0  0  0  0  0  0  0  0  0  0  0  0
   -5.8319  -28.1849  -10.6771 C   0  0  0  0  0  0  0  0  0  0  0  0
  2  1  2  0
  3  2  1  0
  4  3  1  0
  5  4  1  0
  6  1  1  0
  6  5  2  0
  7  5  1  0
  8  4  2  0
  9  8  1  0
 10  8  1  0
 11  2  1  0
 11  3  1  0
 12  7  1  0
 12 10  1  0
 13 12  2  0
 14 13  2  0
 15 14  1  0
 16 15  1  0
 17 16  1  0
 18 10  1  0
 19 17  1  0
 19 18  1  0
 20 16  1  0
 21 20  1  0
 22  9  1  0
 23  3  1  0
 23 22  2  0
 24 11  2  0
 25  9  1  0
 26 17  1  0
 26 19  1  0
M  END
>  <ID>  (1) 
conformer_0

$$$$
