
     RDKit          3D

 16 20  0  0  0  0  0  0  0  0999 V2000
   -0.8266  -30.2578  -13.8544 C   0  0  0  0  0  0  0  0  0  0  0  0
   -0.5266  -30.8578  -15.0544 C   0  0  0  0  0  0  0  0  0  0  0  0
   -1.6266  -30.8578  -16.0544 C   0  0  0  0  0  0  0  0  0  0  0  0
   -2.8266  -30.3578  -15.4544 C   0  0  0  0  0  0  0  0  0  0  0  0
    0.5734  -31.7578  -15.2544 C   0  0  0  0  0  0  0  0  0  0  0  0
   -1.2266  -31.7578  -17.1544 C   0  0  0  0  0  0  0  0  0  0  0  0
   -3.9266  -29.9578  -15.2544 N   0  0  0  0  0  0  0  0  0  0  0  0
   -2.8266  -29.3578  -14.5544 C   0  0  0  0  0  0  0  0  0  0  0  0
    0.2734  -30.4578  -12.8544 C   0  0  0  0  0  0  0  0  0  0  0  0
   -2.0266  -29.6578  -13.5544 N   0  0  0  0  0  0  0  0  0  0  0  0
    1.5734  -31.0578  -13.1544 C   0  0  0  0  0  0  0  0  0  0  0  0
    1.7734  -31.3578  -14.5544 C   0  0  0  0  0  0  0  0  0  0  0  0
   -1.1266  -31.2578  -18.4544 C   0  0  0  0  0  0  0  0  0  0  0  0
   -0.1266  -31.2578  -17.6544 N   0  0  0  0  0  0  0  0  0  0  0  0
    0.6734  -31.7578  -16.6544 N   0  0  0  0  0  0  0  0  0  0  0  0
   -0.1266  -30.3578  -11.5544 O   0  0  0  0  0  0  0  0  0  0  0  0
  2  1  1  0
  3  2  2  0
  4  3  1  0
  5  2  1  0
  6  3  1  0
  7  4  1  0
  8  4  1  0
  8  7  2  0
  9  1  2  0
 10  1  1  0
 10  8  1  0
 11  9  1  0
 12  5  1  0
 12 11  2  0
 13  6  1  0
 14  6  1  0
 14 13  1  0
 15  5  2  0
 15 14  1  0
 16  9  1  0
M  END
>  <ID>  (1) 
conformer_0

$$$$
