
     RDKit          3D

 25 30  0  0  0  0  0  0  0  0999 V2000
   -0.8266  -30.2578  -13.8544 C   0  0  0  0  0  0  0  0  0  0  0  0
   -0.5266  -30.8578  -15.0544 C   0  0  0  0  0  0  0  0  0  0  0  0
   -1.6266  -31.1578  -15.9544 C   0  0  0  0  0  0  0  0  0  0  0  0
   -1.2266  -31.7578  -17.1544 C   0  0  0  0  0  0  0  0  0  0  0  0
    0.6734  -31.4578  -15.3544 C   0  0  0  0  0  0  0  0  0  0  0  0
   -2.6266  -30.1578  -15.6544 C   0  0  0  0  0  3  0  0  0  0  0  0
   -3.9266  -30.2578  -15.5544 N   0  0  0  0  0  0  0  0  0  0  0  0
   -2.9266  -29.7578  -14.6544 N   0  0  0  0  0  4  0  0  0  0  0  0
   -3.5266  -29.4578  -13.4544 C   0  0  0  0  0  0  0  0  0  0  0  0
    0.1734  -30.0578  -12.9544 C   0  0  0  0  0  0  0  0  0  0  0  0
    1.3734  -30.8578  -13.0544 C   0  0  0  0  0  0  0  0  0  0  0  0
    1.7734  -31.2578  -14.3544 C   0  0  0  0  0  0  0  0  0  0  0  0
   -2.1266  -29.8578  -13.5544 N   0  0  0  0  0  0  0  0  0  0  0  0
   -1.0266  -31.7578  -18.4544 N   0  0  0  0  0  0  0  0  0  0  0  0
   -3.9266  -29.1578  -12.1544 C   0  0  0  0  0  0  0  0  0  0  0  0
   -3.1266  -29.5578  -10.9544 C   0  0  0  0  0  0  0  0  0  0  0  0
   -3.5266  -29.2578   -9.6544 C   0  0  0  0  0  0  0  0  0  0  0  0
   -2.4266  -29.0578   -8.6544 C   0  0  0  0  0  0  0  0  0  0  0  0
   -4.9266  -29.0578   -9.2544 C   0  0  0  0  0  0  0  0  0  0  0  0
   -1.7266  -30.0578  -11.0544 C   0  0  0  0  0  0  0  0  0  0  0  0
   -4.7266  -28.7578   -7.8544 N   0  0  0  0  0  0  0  0  0  0  0  0
   -3.3266  -28.5578   -7.4544 C   0  0  0  0  0  0  0  0  0  0  0  0
    0.0734  -31.2578  -17.5544 C   0  0  0  0  0  0  0  0  0  0  0  0
    0.9734  -31.5578  -16.6544 N   0  0  0  0  0  0  0  0  0  0  0  0
   -4.1266  -29.8578   -7.2544 C   0  0  0  0  0  0  0  0  0  0  0  0
  2  1  1  0
  3  2  2  0
  4  3  1  0
  5  2  1  0
  6  3  1  0
  7  6  1  0
  8  6  1  0
  9  8  1  0
 10  1  1  0
 11 10  2  0
 12  5  2  0
 12 11  1  0
 13  1  1  0
 13  9  1  0
 14  4  1  0
 15  9  1  0
 16 15  2  3
 17 16  1  0
 18 17  1  0
 19 17  2  0
 20 16  1  0
 21 19  1  0
 22 18  1  0
 22 21  1  0
 23  4  1  0
 23 14  2  0
 24  5  1  0
 24 23  1  0
 25 21  1  0
 25 22  1  0
M  END
>  <ID>  (1) 
conformer_0

$$$$
