
     RDKit          3D

 14 17  0  0  0  0  0  0  0  0999 V2000
   -0.8266  -30.2578  -13.8544 C   0  0  0  0  0  0  0  0  0  0  0  0
   -0.5266  -30.8578  -15.0544 C   0  0  0  0  0  0  0  0  0  0  0  0
   -1.5266  -30.9578  -16.0544 C   0  0  0  0  0  0  0  0  0  0  0  0
   -1.0266  -31.3578  -17.3544 C   0  0  0  0  0  0  0  0  0  0  0  0
    0.6734  -31.3578  -15.4544 C   0  0  0  0  0  0  0  0  0  0  0  0
   -2.7266  -30.1578  -15.8544 C   0  0  0  0  0  0  0  0  0  0  0  0
    0.1734  -30.8578  -17.8544 C   0  0  0  0  0  0  0  0  0  0  0  0
   -3.9266  -30.0578  -15.4544 N   0  0  0  0  0  0  0  0  0  0  0  0
   -2.9266  -29.6578  -14.5544 C   0  0  0  0  0  0  0  0  0  0  0  0
   -2.0266  -29.6578  -13.7544 N   0  0  0  0  0  0  0  0  0  0  0  0
    0.2734  -30.1578  -12.8544 C   0  0  0  0  0  0  0  0  0  0  0  0
    1.4734  -30.8578  -13.1544 C   0  0  0  0  0  0  0  0  0  0  0  0
    1.6734  -31.3578  -14.5544 C   0  0  0  0  0  0  0  0  0  0  0  0
    0.9734  -31.1578  -16.8544 N   0  0  0  0  0  0  0  0  0  0  0  0
  2  1  2  0
  3  2  1  0
  4  3  2  0
  5  2  1  0
  6  3  1  0
  7  4  1  0
  8  6  1  0
  9  6  1  0
  9  8  2  0
 10  1  1  0
 10  9  1  0
 11  1  1  0
 12 11  2  0
 13  5  2  0
 13 12  1  0
 14  5  1  0
 14  7  2  0
M  END
>  <ID>  (1) 
conformer_0

$$$$
