
     RDKit          3D

 21 25  0  0  0  0  0  0  0  0999 V2000
    0.0681  -31.7849  -15.6771 C   0  0  0  0  0  0  0  0  0  0  0  0
   -0.8319  -31.5849  -16.5771 C   0  0  0  0  0  0  0  0  0  0  0  0
   -1.9319  -30.5849  -16.3771 C   0  0  0  0  0  0  0  0  0  0  0  0
   -1.9319  -30.3849  -14.9771 C   0  0  0  0  0  3  0  0  0  0  0  0
   -0.9319  -30.2849  -14.0771 C   0  0  0  0  0  0  0  0  0  0  0  0
    0.1681  -30.8849  -14.6771 C   0  0  0  0  0  0  0  0  0  0  0  0
   -3.1319  -29.5849  -14.5771 C   0  0  0  0  0  0  0  0  0  0  0  0
   -3.9319  -30.0849  -15.5771 N   0  0  0  0  0  0  0  0  0  0  0  0
   -3.4319  -29.6849  -13.1771 C   0  0  0  0  0  0  0  0  0  0  0  0
   -1.0319  -29.9849  -12.6771 C   0  0  0  0  0  0  0  0  0  0  0  0
   -0.6319  -30.2849  -16.9771 C   0  0  0  0  0  0  0  0  0  0  0  0
   -2.4319  -29.7849  -12.1771 C   0  0  0  0  0  0  0  0  0  0  0  0
   -2.6319  -29.8849  -10.7771 C   0  0  0  0  0  0  0  0  0  0  0  0
   -1.8319  -30.3849   -9.8771 C   0  0  0  0  0  0  0  0  0  0  0  0
   -2.1319  -30.5849   -8.5771 C   0  0  0  0  0  0  0  0  0  0  0  0
   -1.1319  -31.0849   -7.6771 C   0  0  0  0  0  0  0  0  0  0  0  0
   -1.6319  -30.9849   -6.2771 C   0  0  0  0  0  0  0  0  0  0  0  0
   -2.9319  -30.2849   -6.3771 C   0  0  0  0  0  0  0  0  0  0  0  0
   -3.1319  -29.8849   -7.7771 O   0  0  0  0  0  0  0  0  0  0  0  0
   -3.2319  -30.6849  -16.6771 C   0  0  0  0  0  0  0  0  0  0  0  0
   -0.1319  -29.9849  -18.1771 N   0  0  0  0  0  0  0  0  0  0  0  0
  2  1  2  0
  3  2  1  0
  4  3  1  0
  5  4  1  0
  6  1  1  0
  6  5  2  0
  7  4  1  0
  8  7  1  0
  9  7  2  0
 10  5  1  0
 11  2  1  0
 11  3  1  0
 12  9  1  0
 12 10  2  0
 13 12  1  0
 14 13  2  3
 15 14  1  0
 16 15  1  0
 17 16  1  0
 18 17  1  0
 19 15  1  0
 19 18  1  0
 20  3  1  0
 20  8  2  0
 21 11  1  0
M  END
>  <ID>  (1) 
conformer_0

$$$$
