
     RDKit          3D

 24 28  0  0  0  0  0  0  0  0999 V2000
   -0.8266  -30.2578  -13.8544 C   0  0  0  0  0  0  0  0  0  0  0  0
   -0.5266  -30.8578  -15.0544 C   0  0  0  0  0  0  0  0  0  0  0  0
   -1.5266  -30.9578  -16.0544 C   0  0  0  0  0  0  0  0  0  0  0  0
   -1.3266  -31.5578  -17.2544 C   0  0  0  0  0  0  0  0  0  0  0  0
   -2.7266  -30.2578  -15.5544 C   0  0  0  0  0  0  0  0  0  0  0  0
    0.5734  -31.7578  -15.4544 C   0  0  0  0  0  0  0  0  0  0  0  0
   -2.3266  -30.0578  -14.1544 N   0  0  0  0  0  0  0  0  0  0  0  0
   -3.8266  -29.6578  -15.5544 N   0  0  0  0  0  0  0  0  0  0  0  0
   -3.3266  -29.5578  -13.2544 C   0  0  0  0  0  0  0  0  0  0  0  0
   -0.5266  -30.1578  -12.5544 C   0  0  0  0  0  0  0  0  0  0  0  0
   -4.2266  -29.3578  -14.3544 N   0  0  0  0  0  0  0  0  0  0  0  0
   -2.9266  -29.7578  -11.8544 C   0  0  0  0  0  0  0  0  0  0  0  0
   -3.7266  -29.3578  -10.8544 C   0  0  0  0  0  0  0  0  0  0  0  0
    0.7734  -31.8578  -16.7544 N   0  0  0  0  0  0  0  0  0  0  0  0
   -0.0266  -31.5578  -17.7544 N   0  0  0  0  0  0  0  0  0  0  0  0
    1.7734  -31.4578  -14.6544 C   0  0  0  0  0  0  0  0  0  0  0  0
    1.6734  -31.0578  -13.2544 C   0  0  0  0  0  0  0  0  0  0  0  0
    2.7734  -31.5578  -12.5544 O   0  0  0  0  0  0  0  0  0  0  0  0
    3.7734  -31.7578  -13.5544 C   0  0  0  0  0  0  0  0  0  0  0  0
    0.6734  -30.8578  -12.1544 C   0  0  0  0  0  0  0  0  0  0  0  0
   -1.5266  -29.9578  -11.7544 N   0  0  0  0  0  0  0  0  0  0  0  0
   -5.0266  -28.6578  -10.8544 C   0  0  0  0  0  0  0  0  0  0  0  0
   -3.1266  -29.2578   -9.5544 O   0  0  0  0  0  0  0  0  0  0  0  0
    0.6734  -30.7578  -17.3544 C   0  0  0  0  0  0  0  0  0  0  0  0
  2  1  2  0
  3  2  1  0
  4  3  2  0
  5  3  1  0
  6  2  1  0
  7  1  1  0
  7  5  1  0
  8  5  2  0
  9  7  1  0
 10  1  1  0
 11  8  1  0
 11  9  2  0
 12  9  1  0
 13 12  1  0
 14  6  1  0
 15  4  1  0
 16  6  2  0
 17 16  1  0
 18 17  1  0
 19 18  1  0
 20 10  1  0
 20 17  2  0
 21 10  1  0
 21 12  2  0
 22 13  1  0
 23 13  1  0
 24 14  1  0
 24 15  1  0
M  END
>  <ID>  (1) 
conformer_0

$$$$
