
     RDKit          3D

 13 16  0  0  0  0  0  0  0  0999 V2000
   -0.8266  -30.2578  -13.8544 C   0  0  0  0  0  0  0  0  0  0  0  0
   -0.5266  -30.8578  -15.0544 C   0  0  0  0  0  0  0  0  0  0  0  0
   -1.5266  -30.9578  -16.0544 C   0  0  0  0  0  0  0  0  0  0  0  0
   -1.3266  -31.5578  -17.2544 C   0  0  0  0  0  0  0  0  0  0  0  0
   -2.7266  -30.1578  -15.7544 C   0  0  0  0  0  0  0  0  0  0  0  0
    0.6734  -31.5578  -15.4544 C   0  0  0  0  0  0  0  0  0  0  0  0
   -3.9266  -29.9578  -15.5544 N   0  0  0  0  0  0  0  0  0  0  0  0
   -3.0266  -29.7578  -14.5544 C   0  0  0  0  0  0  0  0  0  0  0  0
    0.2734  -29.9578  -12.9544 C   0  0  0  0  0  0  0  0  0  0  0  0
    1.2734  -30.9578  -13.1544 C   0  0  0  0  0  0  0  0  0  0  0  0
    1.6734  -31.5578  -14.3544 C   0  0  0  0  0  0  0  0  0  0  0  0
   -0.6266  -30.3578  -17.2544 C   0  0  0  0  0  0  0  0  0  0  0  0
   -2.1266  -29.7578  -13.5544 N   0  0  0  0  0  0  0  0  0  0  0  0
  2  1  1  0
  3  2  1  0
  4  3  1  0
  5  3  1  0
  6  2  2  0
  7  5  1  0
  8  5  1  0
  8  7  2  0
  9  1  2  0
 10  9  1  0
 11  6  1  0
 11 10  2  0
 12  3  1  0
 12  4  2  0
 13  1  1  0
 13  8  1  0
M  END
>  <ID>  (1) 
conformer_0

$$$$
