
     RDKit          3D

 24 29  0  0  0  0  0  0  0  0999 V2000
    0.0681  -31.7849  -15.6771 C   0  0  0  0  0  0  0  0  0  0  0  0
   -0.8319  -31.5849  -16.5771 C   0  0  0  0  0  0  0  0  0  0  0  0
   -1.9319  -30.5849  -16.3771 C   0  0  0  0  0  0  0  0  0  0  0  0
   -1.9319  -30.3849  -14.9771 C   0  0  0  0  0  3  0  0  0  0  0  0
   -0.9319  -30.2849  -14.0771 C   0  0  0  0  0  0  0  0  0  0  0  0
    0.1681  -30.8849  -14.6771 C   0  0  0  0  0  0  0  0  0  0  0  0
   -3.1319  -29.5849  -14.5771 C   0  0  0  0  0  0  0  0  0  0  0  0
   -3.9319  -29.8849  -15.5771 N   0  0  0  0  0  0  0  0  0  0  0  0
   -1.2319  -29.8849  -12.7771 C   0  0  0  0  0  0  0  0  0  0  0  0
   -3.6319  -29.5849  -13.2771 C   0  0  0  0  0  0  0  0  0  0  0  0
   -0.7319  -30.1849  -17.0771 C   0  0  0  0  0  0  0  0  0  0  0  0
   -3.6319  -29.2849  -11.9771 C   0  0  0  0  0  0  0  0  0  0  0  0
   -2.5319  -29.7849  -12.3771 N   0  0  0  0  0  0  0  0  0  0  0  0
   -0.3319  -30.2849  -11.6771 C   0  0  0  0  0  0  0  0  0  0  0  0
   -1.1319  -30.5849  -10.4771 C   0  0  0  0  0  0  0  0  0  0  0  0
   -2.2319  -29.8849   -9.9771 C   0  0  0  0  0  0  0  0  0  0  0  0
   -2.3319  -29.4849   -8.6771 C   0  0  0  0  0  0  0  0  0  0  0  0
   -1.6319  -30.1849   -7.7771 C   0  0  0  0  0  0  0  0  0  0  0  0
   -0.4319  -30.8849   -7.9771 C   0  0  0  0  0  0  0  0  0  0  0  0
    0.7681  -30.6849   -7.2771 O   0  0  0  0  0  0  0  0  0  0  0  0
    0.3681  -29.7849   -6.1771 C   0  0  0  0  0  0  0  0  0  0  0  0
   -0.3319  -31.1849   -9.4771 C   0  0  0  0  0  0  0  0  0  0  0  0
   -3.3319  -30.4849  -16.6771 C   0  0  0  0  0  0  0  0  0  0  0  0
   -0.1319  -29.8849  -18.0771 N   0  0  0  0  0  0  0  0  0  0  0  0
  2  1  2  0
  3  2  1  0
  4  3  1  0
  5  4  1  0
  6  1  1  0
  6  5  2  0
  7  4  1  0
  8  7  2  0
  9  5  1  0
 10  7  1  0
 11  2  1  0
 11  3  1  0
 12 10  1  0
 13  9  1  0
 13 10  1  0
 13 12  1  0
 14  9  1  0
 15 14  1  0
 16 15  2  0
 17 16  1  0
 18 17  2  0
 19 18  1  0
 20 19  1  0
 21 20  1  0
 22 15  1  0
 22 19  2  0
 23  3  1  0
 23  8  1  0
 24 11  2  0
M  END
>  <ID>  (1) 
conformer_0

$$$$
