
     RDKit          3D

 22 25  0  0  0  0  0  0  0  0999 V2000
    0.0681  -31.7849  -15.6771 C   0  0  0  0  0  0  0  0  0  0  0  0
   -0.8319  -31.5849  -16.5771 C   0  0  0  0  0  0  0  0  0  0  0  0
   -1.9319  -30.5849  -16.3771 C   0  0  0  0  0  0  0  0  0  0  0  0
   -1.9319  -30.3849  -14.9771 C   0  0  0  0  0  0  0  0  0  0  0  0
   -0.9319  -30.3849  -14.0771 C   0  0  0  0  0  0  0  0  0  0  0  0
    0.1681  -30.9849  -14.5771 C   0  0  0  0  0  0  0  0  0  0  0  0
   -3.1319  -29.5849  -14.5771 C   0  0  0  0  0  0  0  0  0  0  0  0
   -4.0319  -29.8849  -15.4771 N   0  0  0  0  0  0  0  0  0  0  0  0
   -1.2319  -29.8849  -12.7771 C   0  0  0  0  0  0  0  0  0  0  0  0
   -3.5319  -29.5849  -13.1771 C   0  0  0  0  0  3  0  0  0  0  0  0
   -0.6319  -30.1849  -16.9771 C   0  0  0  0  0  0  0  0  0  0  0  0
   -2.5319  -29.7849  -12.1771 C   0  0  0  0  0  0  0  0  0  0  0  0
   -2.8319  -29.6849  -10.8771 C   0  0  0  0  0  0  0  0  0  0  0  0
   -1.8319  -30.0849   -9.8771 C   0  0  0  0  0  0  0  0  0  0  0  0
   -2.2319  -29.2849   -8.6771 C   0  0  0  0  0  0  0  0  0  0  0  0
   -3.4319  -28.6849   -8.6771 C   0  0  0  0  0  0  0  0  0  0  0  0
   -4.5319  -29.2849   -9.1771 C   0  0  0  0  0  0  0  0  0  0  0  0
   -5.8319  -28.5849   -9.3771 O   0  0  0  0  0  0  0  0  0  0  0  0
   -5.9319  -27.5849   -8.3771 C   0  0  0  0  0  0  0  0  0  0  0  0
   -4.1319  -29.8849  -10.4771 C   0  0  0  0  0  0  0  0  0  0  0  0
   -3.5319  -28.7849  -15.4771 O   0  0  0  0  0  0  0  0  0  0  0  0
   -0.1319  -29.7849  -18.0771 O   0  0  0  0  0  0  0  0  0  0  0  0
  2  1  2  0
  3  2  1  0
  4  3  2  0
  5  4  1  0
  6  1  1  0
  6  5  2  0
  7  4  1  0
  8  7  1  0
  9  5  1  0
 10  7  1  0
 11  2  1  0
 11  3  1  0
 12  9  2  0
 12 10  1  0
 13 12  1  0
 14 13  2  0
 15 14  1  0
 16 15  2  0
 17 16  1  0
 18 17  1  0
 19 18  1  0
 20 13  1  0
 20 17  2  0
 21  7  1  0
 22 11  2  0
M  END
>  <ID>  (1) 
conformer_0

$$$$
