
     RDKit          3D

 15 18  0  0  0  0  0  0  0  0999 V2000
   -0.8266  -30.2578  -13.8544 C   0  0  0  0  0  0  0  0  0  0  0  0
   -0.5266  -30.8578  -15.0544 C   0  0  0  0  0  0  0  0  0  0  0  0
   -1.6266  -31.1578  -15.9544 C   0  0  0  0  0  0  0  0  0  0  0  0
   -1.2266  -31.7578  -17.1544 C   0  0  0  0  0  0  0  0  0  0  0  0
    0.6734  -31.4578  -15.3544 C   0  0  0  0  0  0  0  0  0  0  0  0
   -2.7266  -30.2578  -15.6544 C   0  0  0  0  0  0  0  0  0  0  0  0
   -3.9266  -30.0578  -15.3544 N   0  0  0  0  0  0  0  0  0  0  0  0
    0.2734  -30.0578  -12.9544 C   0  0  0  0  0  0  0  0  0  0  0  0
   -2.9266  -29.4578  -14.6544 C   0  0  0  0  0  0  0  0  0  0  0  0
   -2.0266  -29.7578  -13.6544 N   0  0  0  0  0  0  0  0  0  0  0  0
    1.7734  -31.3578  -14.5544 C   0  0  0  0  0  0  0  0  0  0  0  0
    1.4734  -30.8578  -13.2544 C   0  0  0  0  0  0  0  0  0  0  0  0
   -0.0266  -31.2578  -17.8544 N   0  0  0  0  0  0  0  0  0  0  0  0
    0.7734  -31.5578  -16.7544 N   0  0  0  0  0  0  0  0  0  0  0  0
   -0.3266  -29.8578  -18.2544 C   0  0  0  0  0  0  0  0  0  0  0  0
  2  1  1  0
  3  2  2  0
  4  3  1  0
  5  2  1  0
  6  3  1  0
  7  6  1  0
  8  1  2  0
  9  6  1  0
  9  7  2  0
 10  1  1  0
 10  9  1  0
 11  5  1  0
 12  8  1  0
 12 11  2  0
 13  4  1  0
 14  5  2  0
 14 13  1  0
 15 13  1  0
M  END
>  <ID>  (1) 
conformer_0

$$$$
