
     RDKit          3D

 25 30  0  0  0  0  0  0  0  0999 V2000
    0.0681  -31.7849  -15.6771 C   0  0  0  0  0  0  0  0  0  0  0  0
   -0.8319  -31.5849  -16.5771 C   0  0  0  0  0  3  0  0  0  0  0  0
   -1.9319  -30.5849  -16.3771 C   0  0  0  0  0  0  0  0  0  0  0  0
   -1.9319  -30.3849  -14.9771 C   0  0  0  0  0  0  0  0  0  0  0  0
   -0.9319  -30.2849  -14.0771 C   0  0  0  0  0  0  0  0  0  0  0  0
    0.1681  -30.9849  -14.6771 C   0  0  0  0  0  0  0  0  0  0  0  0
   -3.0319  -29.4849  -14.5771 C   0  0  0  0  0  0  0  0  0  0  0  0
   -3.9319  -29.8849  -15.4771 N   0  0  0  0  0  0  0  0  0  0  0  0
   -1.2319  -29.8849  -12.7771 C   0  0  0  0  0  0  0  0  0  0  0  0
   -3.5319  -29.3849  -13.1771 C   0  0  0  0  0  0  0  0  0  0  0  0
   -3.5319  -29.3849  -11.8771 C   0  0  0  0  0  0  0  0  0  0  0  0
   -0.7319  -30.2849  -17.0771 C   0  0  0  0  0  0  0  0  0  0  0  0
   -2.4319  -29.6849  -12.3771 N   0  0  0  0  0  0  0  0  0  0  0  0
   -0.4319  -30.5849  -11.7771 C   0  0  0  0  0  0  0  0  0  0  0  0
   -1.1319  -30.5849  -10.4771 C   0  0  0  0  0  0  0  0  0  0  0  0
   -0.3319  -31.2849   -9.4771 C   0  0  0  0  0  0  0  0  0  0  0  0
   -0.5319  -30.6849   -8.1771 C   0  0  0  0  0  0  0  0  0  0  0  0
   -1.6319  -29.6849   -8.2771 C   0  0  0  0  0  0  0  0  0  0  0  0
   -2.1319  -29.7849   -9.6771 C   0  0  0  0  0  0  0  0  0  0  0  0
   -3.3319  -30.4849  -16.5771 C   0  0  0  0  0  0  0  0  0  0  0  0
   -0.2319  -29.8849  -18.0771 N   0  0  0  0  0  0  0  0  0  0  0  0
    0.8681  -30.3849  -18.6771 C   0  0  0  0  0  0  0  0  0  0  0  0
    1.5681  -31.0849  -17.5771 C   0  0  0  0  0  0  0  0  0  0  0  0
    2.5681  -31.6849  -18.0771 O   0  0  0  0  0  0  0  0  0  0  0  0
    2.1681  -32.0849  -17.0771 O   0  0  0  0  0  0  0  0  0  0  0  0
  2  1  1  0
  3  2  1  0
  4  3  1  0
  5  4  1  0
  6  1  2  0
  6  5  1  0
  7  4  1  0
  8  7  1  0
  9  5  2  0
 10  7  2  0
 11 10  1  0
 12  2  1  0
 12  3  1  0
 13  9  1  0
 13 10  1  0
 13 11  1  0
 14  9  1  0
 15 14  1  0
 16 15  1  0
 17 16  1  0
 18 17  1  0
 19 15  1  0
 19 18  1  0
 20  3  1  0
 20  8  2  0
 21 12  1  0
 22 21  1  0
 23 22  1  0
 24 23  1  0
 25 23  1  0
M  END
>  <ID>  (1) 
conformer_0

$$$$
