
     RDKit          3D

 23 27  0  0  0  0  0  0  0  0999 V2000
    0.0681  -31.7849  -15.6771 C   0  0  0  0  0  0  0  0  0  0  0  0
   -0.8319  -31.5849  -16.5771 C   0  0  0  0  0  0  0  0  0  0  0  0
   -1.9319  -30.5849  -16.3771 C   0  0  0  0  0  0  0  0  0  0  0  0
   -1.9319  -30.3849  -14.9771 C   0  0  0  0  0  3  0  0  0  0  0  0
   -0.9319  -30.3849  -14.0771 C   0  0  0  0  0  0  0  0  0  0  0  0
    0.1681  -30.9849  -14.5771 C   0  0  0  0  0  0  0  0  0  0  0  0
   -3.1319  -29.5849  -14.5771 C   0  0  0  0  0  0  0  0  0  0  0  0
   -4.0319  -29.8849  -15.4771 N   0  0  0  0  0  0  0  0  0  0  0  0
   -1.2319  -29.8849  -12.7771 C   0  0  0  0  0  0  0  0  0  0  0  0
   -3.5319  -29.5849  -13.1771 C   0  0  0  0  0  0  0  0  0  0  0  0
   -0.6319  -30.2849  -16.9771 C   0  0  0  0  0  0  0  0  0  0  0  0
   -2.5319  -29.7849  -12.2771 C   0  0  0  0  0  0  0  0  0  0  0  0
   -2.7319  -29.7849  -10.8771 C   0  0  0  0  0  0  0  0  0  0  0  0
   -1.8319  -30.1849   -9.9771 C   0  0  0  0  0  0  0  0  0  0  0  0
   -2.2319  -30.4849   -8.6771 C   0  0  0  0  0  0  0  0  0  0  0  0
   -3.5319  -30.0849   -8.2771 C   0  0  0  0  0  0  0  0  0  0  0  0
   -4.2319  -29.1849   -8.9771 C   0  0  0  0  0  0  0  0  0  0  0  0
   -4.9319  -28.1849   -8.2771 C   0  0  0  0  0  0  0  0  0  0  0  0
   -5.6319  -29.2849   -8.7771 O   0  0  0  0  0  0  0  0  0  0  0  0
   -0.2319  -29.8849  -18.0771 N   0  0  0  0  0  0  0  0  0  0  0  0
    1.0681  -30.0849  -18.6771 C   0  0  0  0  0  0  0  0  0  0  0  0
    1.6681  -31.0849  -18.0771 O   0  0  0  0  0  0  0  0  0  0  0  0
   -3.3319  -30.5849  -16.5771 C   0  0  0  0  0  0  0  0  0  0  0  0
  2  1  2  0
  3  2  1  0
  4  3  1  0
  5  4  1  0
  6  1  1  0
  6  5  2  0
  7  4  1  0
  8  7  1  0
  9  5  1  0
 10  7  2  0
 11  2  1  0
 11  3  1  0
 12  9  2  0
 12 10  1  0
 13 12  1  0
 14 13  2  3
 15 14  1  0
 16 15  1  0
 17 16  1  0
 18 17  1  0
 19 17  1  0
 19 18  1  0
 20 11  1  0
 21 20  1  0
 22 21  1  0
 23  3  1  0
 23  8  2  0
M  END
>  <ID>  (1) 
conformer_0

$$$$
