
     RDKit          3D

 24 29  0  0  0  0  0  0  0  0999 V2000
    0.0681  -31.7849  -15.6771 C   0  0  0  0  0  0  0  0  0  0  0  0
   -0.8319  -31.5849  -16.5771 C   0  0  0  0  0  0  0  0  0  0  0  0
   -1.9319  -30.5849  -16.3771 C   0  0  0  0  0  0  0  0  0  0  0  0
   -1.9319  -30.3849  -14.9771 C   0  0  0  0  0  3  0  0  0  0  0  0
   -0.9319  -30.3849  -14.0771 C   0  0  0  0  0  0  0  0  0  0  0  0
    0.1681  -30.9849  -14.5771 C   0  0  0  0  0  0  0  0  0  0  0  0
   -1.0319  -29.8849  -12.7771 C   0  0  0  0  0  0  0  0  0  0  0  0
   -3.0319  -29.5849  -14.3771 C   0  0  0  0  0  0  0  0  0  0  0  0
   -3.9319  -29.7849  -15.4771 N   0  0  0  0  0  0  0  0  0  0  0  0
   -3.4319  -29.4849  -13.0771 C   0  0  0  0  0  0  0  0  0  0  0  0
   -0.7319  -30.2849  -16.9771 C   0  0  0  0  0  0  0  0  0  0  0  0
   -2.3319  -29.8849  -12.1771 C   0  0  0  0  0  0  0  0  0  0  0  0
   -2.5319  -29.8849  -10.7771 C   0  0  0  0  0  0  0  0  0  0  0  0
   -1.8319  -30.3849   -9.6771 C   0  0  0  0  0  0  0  0  0  0  0  0
   -1.8319  -29.5849   -8.5771 C   0  0  0  0  0  0  0  0  0  0  0  0
   -3.0319  -28.8849   -8.4771 C   0  0  0  0  0  0  0  0  0  0  0  0
   -4.2319  -29.5849   -8.9771 C   0  0  0  0  0  0  0  0  0  0  0  0
   -2.3319  -30.9849   -8.5771 O   0  0  0  0  0  0  0  0  0  0  0  0
   -3.9319  -29.6849  -10.4771 O   0  0  0  0  0  0  0  0  0  0  0  0
   -5.4319  -28.7849   -8.6771 C   0  0  0  0  0  0  0  0  0  0  0  0
   -5.9319  -28.9849   -7.3771 C   0  0  0  0  0  0  0  0  0  0  0  0
   -7.0319  -28.2849   -6.7771 C   0  0  0  0  0  0  0  0  0  0  0  0
   -7.6319  -28.7849   -5.5771 N   0  0  0  0  0  0  0  0  0  0  0  0
   -3.3319  -30.3849  -16.5771 C   0  0  0  0  0  0  0  0  0  0  0  0
  2  1  2  0
  3  2  1  0
  4  3  1  0
  5  4  1  0
  6  1  1  0
  6  5  2  0
  7  5  1  0
  8  4  1  0
  9  8  1  0
 10  8  2  0
 11  2  1  0
 11  3  1  0
 12  7  2  0
 12 10  1  0
 13 12  1  0
 14 13  1  0
 15 14  1  0
 16 15  1  0
 17 16  1  0
 18 14  1  0
 18 15  1  0
 19 13  1  0
 19 17  1  0
 20 17  1  0
 21 20  1  0
 22 21  2  3
 23 22  1  0
 24  3  1  0
 24  9  2  0
M  END
>  <ID>  (1) 
conformer_0

$$$$
