
     RDKit          3D

 23 30  0  0  0  0  0  0  0  0999 V2000
   -0.8266  -30.2578  -13.8544 C   0  0  0  0  0  0  0  0  0  0  0  0
   -0.5266  -30.8578  -15.0544 C   0  0  0  0  0  3  0  0  0  0  0  0
   -1.5266  -30.9578  -16.0544 C   0  0  0  0  0  0  0  0  0  0  0  0
   -1.3266  -31.5578  -17.2544 C   0  0  0  0  0  0  0  0  0  0  0  0
   -2.7266  -30.2578  -15.5544 C   0  0  0  0  0  0  0  0  0  0  0  0
    0.5734  -31.7578  -15.4544 C   0  0  0  0  0  0  0  0  0  0  0  0
   -2.3266  -30.0578  -14.1544 N   0  0  0  0  0  0  0  0  0  0  0  0
   -3.8266  -29.6578  -15.5544 N   0  0  0  0  0  0  0  0  0  0  0  0
   -3.3266  -29.5578  -13.2544 C   0  0  0  0  0  0  0  0  0  0  0  0
   -0.5266  -30.1578  -12.5544 C   0  0  0  0  0  3  0  0  0  0  0  0
   -4.3266  -29.3578  -14.3544 N   0  0  0  0  0  0  0  0  0  0  0  0
   -2.9266  -29.9578  -11.9544 C   0  0  0  0  0  0  0  0  0  0  0  0
   -1.5266  -29.8578  -11.6544 C   0  0  0  0  0  0  0  0  0  0  0  0
    1.8734  -31.6578  -14.8544 C   0  0  0  0  0  0  0  0  0  0  0  0
    0.7734  -31.6578  -16.8544 N   0  0  0  0  0  0  0  0  0  0  0  0
   -0.8266  -30.3578  -17.3544 C   0  0  0  0  0  0  0  0  0  0  0  0
    0.4734  -30.6578  -17.6544 N   0  0  0  0  0  0  0  0  0  0  0  0
    1.9734  -31.0578  -13.5544 C   0  0  0  0  0  0  0  0  0  0  0  0
    2.8734  -31.4578  -12.6544 O   0  0  0  0  0  0  0  0  0  0  0  0
    2.4734  -31.7578  -11.3544 C   0  0  0  0  0  0  0  0  0  0  0  0
    0.6734  -30.7578  -12.9544 C   0  0  0  0  0  0  0  0  0  0  0  0
    2.1734  -31.9578  -17.0544 C   0  0  0  0  0  0  0  0  0  0  0  0
    2.8734  -31.6578  -15.7544 O   0  0  0  0  0  0  0  0  0  0  0  0
  2  1  1  0
  3  2  1  0
  4  3  1  0
  5  3  1  0
  6  2  1  0
  7  1  1  0
  7  5  1  0
  8  5  2  0
  9  7  1  0
 10  1  1  0
 11  8  1  0
 11  9  2  0
 12  9  1  0
 13 10  1  0
 13 12  2  0
 14  6  2  0
 15  6  1  0
 16  3  1  0
 16  4  1  0
 17 15  1  0
 17 16  2  0
 18 14  1  0
 19 18  1  0
 20 19  1  0
 21  1  1  0
 21 10  1  0
 21 18  2  0
 22 15  1  0
 23 14  1  0
 23 22  1  0
M  END
>  <ID>  (1) 
conformer_0

$$$$
