
     RDKit          3D

 12 14  0  0  0  0  0  0  0  0999 V2000
   -0.4374  -31.7820  -16.5070 C   0  0  0  0  0  0  0  0  0  0  0  0
   -1.5374  -30.9820  -16.0070 C   0  0  0  0  0  0  0  0  0  0  0  0
   -1.1374  -30.3820  -14.7070 C   0  0  0  0  0  0  0  0  0  0  0  0
    0.2626  -30.6820  -14.3070 C   0  0  0  0  0  0  0  0  0  0  0  0
   -2.0374  -29.7820  -13.8070 C   0  0  0  0  0  0  0  0  0  0  0  0
   -3.3374  -29.4820  -14.2070 C   0  0  0  0  0  0  0  0  0  0  0  0
   -3.5374  -30.1820  -15.5070 N   0  0  0  0  0  0  0  0  0  0  0  0
    0.6626  -31.5820  -15.6070 C   0  0  0  0  0  0  0  0  0  0  0  0
   -2.7374  -30.6820  -16.4070 C   0  0  0  0  0  0  0  0  0  0  0  0
   -1.7374  -29.9820  -12.4070 C   0  0  0  0  0  0  0  0  0  0  0  0
   -3.0374  -29.7820  -11.8070 C   0  0  0  0  0  0  0  0  0  0  0  0
   -4.0374  -29.3820  -12.9070 N   0  0  0  0  0  0  0  0  0  0  0  0
  2  1  2  0
  3  2  1  0
  4  3  2  0
  5  3  1  0
  6  5  1  0
  7  6  1  0
  8  1  1  0
  8  4  1  0
  9  2  1  0
  9  7  1  0
 10  5  1  0
 11 10  2  0
 12  6  1  0
 12 11  1  0
M  END
>  <ID>  (1) 
conformer_0

$$$$
