
     RDKit          3D

 19 23  0  0  0  0  0  0  0  0999 V2000
    0.0681  -31.7849  -15.6771 C   0  0  0  0  0  0  0  0  0  0  0  0
   -0.8319  -31.5849  -16.5771 C   0  0  0  0  0  0  0  0  0  0  0  0
   -1.9319  -30.5849  -16.3771 C   0  0  0  0  0  0  0  0  0  0  0  0
   -1.9319  -30.3849  -14.9771 C   0  0  0  0  0  3  0  0  0  0  0  0
   -0.9319  -30.3849  -14.0771 C   0  0  0  0  0  0  0  0  0  0  0  0
    0.1681  -30.9849  -14.5771 C   0  0  0  0  0  0  0  0  0  0  0  0
   -3.1319  -29.5849  -14.5771 C   0  0  0  0  0  0  0  0  0  0  0  0
   -3.9319  -29.9849  -15.5771 N   0  0  0  0  0  0  0  0  0  0  0  0
   -3.4319  -29.4849  -13.1771 C   0  0  0  0  0  0  0  0  0  0  0  0
   -1.0319  -29.8849  -12.6771 C   0  0  0  0  0  0  0  0  0  0  0  0
   -0.2319  -30.4849  -11.6771 C   0  0  0  0  0  0  0  0  0  0  0  0
   -2.4319  -29.6849  -12.2771 N   0  0  0  0  0  0  0  0  0  0  0  0
   -0.6319  -30.1849  -16.9771 C   0  0  0  0  0  0  0  0  0  0  0  0
    0.9681  -31.1849  -12.1771 C   0  0  0  0  0  0  0  0  0  0  0  0
    1.7681  -31.5849  -11.0771 O   0  0  0  0  0  0  0  0  0  0  0  0
    0.9681  -31.4849   -9.8771 C   0  0  0  0  0  0  0  0  0  0  0  0
    1.2681  -31.2849  -13.5771 C   0  0  0  0  0  0  0  0  0  0  0  0
   -3.2319  -30.6849  -16.6771 C   0  0  0  0  0  0  0  0  0  0  0  0
   -0.1319  -29.7849  -18.0771 N   0  0  0  0  0  0  0  0  0  0  0  0
  2  1  2  0
  3  2  1  0
  4  3  1  0
  5  4  1  0
  6  1  1  0
  6  5  1  0
  7  4  1  0
  8  7  1  0
  9  7  2  0
 10  5  1  0
 11 10  1  0
 12  9  1  0
 12 10  2  0
 13  2  1  0
 13  3  1  0
 14 11  2  0
 15 14  1  0
 16 15  1  0
 17  6  2  0
 17 14  1  0
 18  3  1  0
 18  8  2  0
 19 13  2  0
M  END
>  <ID>  (1) 
conformer_0

$$$$
