
     RDKit          3D

 26 31  0  0  0  0  0  0  0  0999 V2000
    0.0681  -31.7849  -15.6771 C   0  0  0  0  0  0  0  0  0  0  0  0
   -0.8319  -31.5849  -16.5771 C   0  0  0  0  0  3  0  0  0  0  0  0
   -1.9319  -30.5849  -16.3771 C   0  0  0  0  0  0  0  0  0  0  0  0
   -1.9319  -30.3849  -14.9771 C   0  0  0  0  0  0  0  0  0  0  0  0
   -0.9319  -30.3849  -14.0771 C   0  0  0  0  0  0  0  0  0  0  0  0
    0.1681  -30.9849  -14.5771 C   0  0  0  0  0  0  0  0  0  0  0  0
   -3.1319  -29.5849  -14.5771 C   0  0  0  0  0  0  0  0  0  0  0  0
   -3.9319  -29.9849  -15.5771 N   0  0  0  0  0  0  0  0  0  0  0  0
   -3.4319  -29.4849  -13.1771 C   0  0  0  0  0  0  0  0  0  0  0  0
   -1.0319  -29.9849  -12.6771 C   0  0  0  0  0  0  0  0  0  0  0  0
   -0.7319  -30.2849  -16.9771 C   0  0  0  0  0  0  0  0  0  0  0  0
   -2.3319  -29.7849  -12.1771 C   0  0  0  0  0  0  0  0  0  0  0  0
   -2.6319  -29.5849  -10.8771 C   0  0  0  0  0  0  0  0  0  0  0  0
   -1.7319  -30.0849   -9.8771 C   0  0  0  0  0  0  0  0  0  0  0  0
   -2.1319  -29.4849   -8.5771 C   0  0  0  0  0  0  0  0  0  0  0  0
   -3.1319  -28.5849   -8.5771 C   0  0  0  0  0  0  0  0  0  0  0  0
   -4.3319  -28.8849   -9.1771 C   0  0  0  0  0  0  0  0  0  0  0  0
   -3.3319  -30.6849  -16.6771 C   0  0  0  0  0  0  0  0  0  0  0  0
   -4.0319  -29.1849  -10.5771 N   0  0  0  0  0  0  0  0  0  0  0  0
   -5.6319  -28.4849   -8.8771 C   0  0  0  0  0  0  0  0  0  0  0  0
   -6.3319  -27.4849   -9.6771 O   0  0  0  0  0  0  0  0  0  0  0  0
   -6.9319  -26.3849   -9.1771 C   0  0  0  0  0  0  0  0  0  0  0  0
   -6.5319  -25.2849   -9.5771 O   0  0  0  0  0  0  0  0  0  0  0  0
   -8.2319  -26.3849   -8.5771 C   0  0  0  0  0  0  0  0  0  0  0  0
   -4.5319  -29.1849  -12.7771 O   0  0  0  0  0  0  0  0  0  0  0  0
   -4.6319  -28.9849  -11.5771 N   0  0  0  0  0  0  0  0  0  0  0  0
  2  1  1  0
  3  2  1  0
  4  3  1  0
  5  4  1  0
  6  1  2  0
  6  5  1  0
  7  4  2  0
  8  7  1  0
  9  7  1  0
 10  5  2  0
 11  2  1  0
 11  3  1  0
 12  9  1  0
 12 10  1  0
 13 12  2  0
 14 13  1  0
 15 14  2  0
 16 15  1  0
 17 16  2  0
 18  3  1  0
 18  8  2  0
 19 13  1  0
 19 17  1  0
 20 17  1  0
 21 20  1  0
 22 21  1  0
 23 22  2  0
 24 22  1  0
 25  9  1  0
 26 19  1  0
 26 25  1  0
M  END
>  <ID>  (1) 
conformer_0

$$$$
