
     RDKit          3D

 23 27  0  0  0  0  0  0  0  0999 V2000
   -0.8266  -30.2578  -13.8544 C   0  0  0  0  0  0  0  0  0  0  0  0
   -0.5266  -30.8578  -15.0544 C   0  0  0  0  0  0  0  0  0  0  0  0
   -1.6266  -30.8578  -16.0544 C   0  0  0  0  0  0  0  0  0  0  0  0
   -2.8266  -30.3578  -15.4544 C   0  0  0  0  0  3  0  0  0  0  0  0
    0.5734  -31.7578  -15.2544 C   0  0  0  0  0  0  0  0  0  0  0  0
   -1.3266  -31.8578  -17.0544 C   0  0  0  0  0  0  0  0  0  0  0  0
   -3.9266  -29.9578  -15.4544 N   0  0  0  0  0  0  0  0  0  0  0  0
   -2.8266  -29.4578  -14.6544 N   0  0  0  0  0  4  0  0  0  0  0  0
   -3.2266  -29.2578  -13.3544 C   0  0  0  0  0  0  0  0  0  0  0  0
   -2.0266  -29.7578  -13.5544 N   0  0  0  0  0  0  0  0  0  0  0  0
    0.2734  -30.2578  -12.8544 C   0  0  0  0  0  0  0  0  0  0  0  0
    1.3734  -31.0578  -12.9544 C   0  0  0  0  0  0  0  0  0  0  0  0
    1.5734  -31.6578  -14.2544 C   0  0  0  0  0  0  0  0  0  0  0  0
   -3.7266  -29.1578  -11.9544 C   0  0  0  0  0  0  0  0  0  0  0  0
   -1.2266  -31.5578  -18.3544 C   0  0  0  0  0  0  0  0  0  0  0  0
   -2.9266  -29.7578  -10.8544 C   0  0  0  0  0  0  0  0  0  0  0  0
   -3.5266  -29.3578   -9.5544 C   0  0  0  0  0  0  0  0  0  0  0  0
   -2.6266  -29.1578   -8.4544 C   0  0  0  0  0  0  0  0  0  0  0  0
   -2.9266  -28.3578   -7.4544 N   0  0  0  0  0  0  0  0  0  0  0  0
   -1.6266  -29.9578   -8.3544 O   0  0  0  0  0  0  0  0  0  0  0  0
   -0.0266  -31.6578  -17.5544 N   0  0  0  0  0  0  0  0  0  0  0  0
    0.7734  -31.5578  -16.5544 N   0  0  0  0  0  0  0  0  0  0  0  0
   -4.3266  -29.7578  -13.0544 N   0  0  0  0  0  0  0  0  0  0  0  0
  2  1  1  0
  3  2  2  0
  4  3  1  0
  5  2  1  0
  6  3  1  0
  7  4  1  0
  8  4  1  0
  9  8  1  0
 10  1  1  0
 10  9  1  0
 11  1  2  0
 12 11  1  0
 13  5  1  0
 13 12  2  0
 14  9  1  0
 15  6  1  0
 16 14  1  0
 17 16  1  0
 18 17  1  0
 19 18  1  0
 20 18  2  0
 21  6  1  0
 21 15  1  0
 22  5  2  0
 22 21  1  0
 23  9  1  0
 23 14  1  0
M  END
>  <ID>  (1) 
conformer_0

$$$$
