
     RDKit          3D

 16 20  0  0  0  0  0  0  0  0999 V2000
   -0.8266  -30.2578  -13.8544 C   0  0  0  0  0  0  0  0  0  0  0  0
   -0.5266  -30.8578  -15.0544 C   0  0  0  0  0  0  0  0  0  0  0  0
   -1.6266  -30.8578  -16.0544 C   0  0  0  0  0  0  0  0  0  0  0  0
   -2.8266  -30.3578  -15.4544 C   0  0  0  0  0  0  0  0  0  0  0  0
    0.5734  -31.7578  -15.2544 C   0  0  0  0  0  0  0  0  0  0  0  0
   -1.3266  -31.8578  -17.0544 C   0  0  0  0  0  0  0  0  0  0  0  0
   -4.0266  -30.2578  -15.3544 N   0  0  0  0  0  0  0  0  0  0  0  0
   -2.9266  -29.5578  -14.5544 C   0  0  0  0  0  0  0  0  0  0  0  0
   -1.9266  -29.5578  -13.5544 N   0  0  0  0  0  0  0  0  0  0  0  0
   -0.0266  -30.6578  -12.6544 C   0  0  0  0  0  0  0  0  0  0  0  0
    1.5734  -31.8578  -14.2544 C   0  0  0  0  0  0  0  0  0  0  0  0
    1.2734  -31.2578  -12.9544 C   0  0  0  0  0  0  0  0  0  0  0  0
   -1.3266  -31.4578  -18.4544 C   0  0  0  0  0  0  0  0  0  0  0  0
   -0.2266  -31.6578  -17.4544 N   0  0  0  0  0  0  0  0  0  0  0  0
    0.7734  -31.6578  -16.6544 N   0  0  0  0  0  0  0  0  0  0  0  0
   -0.0266  -30.0578  -11.4544 F   0  0  0  0  0  0  0  0  0  0  0  0
  2  1  1  0
  3  2  2  0
  4  3  1  0
  5  2  1  0
  6  3  1  0
  7  4  1  0
  8  4  1  0
  8  7  1  0
  9  1  1  0
  9  8  1  0
 10  1  2  0
 11  5  1  0
 12 10  1  0
 12 11  2  0
 13  6  1  0
 14  6  1  0
 14 13  1  0
 15  5  2  0
 15 14  1  0
 16 10  1  0
M  END
>  <ID>  (1) 
conformer_0

$$$$
