
     RDKit          3D

 14 15  0  0  0  0  0  0  0  0999 V2000
   -0.8266  -30.2578  -13.8544 C   0  0  0  0  0  0  0  0  0  0  0  0
   -0.5266  -30.8578  -15.0544 C   0  0  0  0  0  0  0  0  0  0  0  0
   -1.6266  -30.8578  -16.0544 C   0  0  0  0  0  0  0  0  0  0  0  0
   -2.8266  -30.3578  -15.4544 C   0  0  0  0  0  0  0  0  0  0  0  0
    0.5734  -31.7578  -15.2544 C   0  0  0  0  0  0  0  0  0  0  0  0
   -1.3266  -31.4578  -17.3544 C   0  0  0  0  0  0  0  0  0  0  0  0
   -3.9266  -29.9578  -15.5544 N   0  0  0  0  0  0  0  0  0  0  0  0
   -2.9266  -29.4578  -14.5544 C   0  0  0  0  0  0  0  0  0  0  0  0
    1.3734  -32.0578  -14.1544 C   0  0  0  0  0  0  0  0  0  0  0  0
    0.1734  -30.3578  -12.8544 C   0  0  0  0  0  0  0  0  0  0  0  0
    1.3734  -31.1578  -13.1544 C   0  0  0  0  0  0  0  0  0  0  0  0
   -0.1266  -30.8578  -17.9544 C   0  0  0  0  0  0  0  0  0  0  0  0
   -0.3266  -29.4578  -17.9544 N   0  0  0  0  0  0  0  0  0  0  0  0
    0.3734  -30.1578  -17.1544 N   0  0  0  0  0  0  0  0  0  0  0  0
  2  1  2  0
  3  2  1  0
  4  3  1  0
  5  2  1  0
  6  3  1  0
  7  4  1  0
  8  4  1  0
  8  7  2  0
  9  5  2  0
 10  1  1  0
 11  9  1  0
 11 10  2  0
 12  6  1  0
 13 12  2  0
 14 12  1  0
M  END
>  <ID>  (1) 
conformer_0

$$$$
