
     RDKit          3D

 15 18  0  0  0  0  0  0  0  0999 V2000
   -1.6465  -30.6881  -15.6641 C   0  0  0  0  0  0  0  0  0  0  0  0
   -0.2465  -30.8881  -15.3641 C   0  0  0  0  0  0  0  0  0  0  0  0
   -2.4465  -29.7881  -14.9641 C   0  0  0  0  0  0  0  0  0  0  0  0
   -3.7465  -29.7881  -15.0641 N   0  0  0  0  0  0  0  0  0  0  0  0
   -2.1465  -31.0881  -16.8641 C   0  0  0  0  0  0  0  0  0  0  0  0
    0.3535  -31.5881  -16.4641 C   0  0  0  0  0  0  0  0  0  0  0  0
   -2.1465  -29.4881  -13.5641 N   0  0  0  0  0  0  0  0  0  0  0  0
   -3.2465  -29.4881  -12.7641 C   0  0  0  0  0  0  0  0  0  0  0  0
   -3.0465  -29.7881  -11.4641 C   0  0  0  0  0  0  0  0  0  0  0  0
   -1.6465  -30.1881  -11.1641 C   0  0  0  0  0  0  0  0  0  0  0  0
   -1.0465  -30.0881  -12.7641 C   0  0  0  0  0  0  0  0  0  0  0  0
   -1.6465  -32.0881  -17.6641 N   0  0  0  0  0  0  0  0  0  0  0  0
   -4.2465  -29.5881  -13.6641 C   0  0  0  0  0  0  0  0  0  0  0  0
    0.0535  -30.6881  -17.4641 C   0  0  0  0  0  0  0  0  0  0  0  0
   -1.2465  -30.8881  -17.9641 C   0  0  0  0  0  0  0  0  0  0  0  0
  2  1  2  0
  3  1  1  0
  4  3  1  0
  5  1  1  0
  6  2  1  0
  7  3  1  0
  8  7  1  0
  9  8  2  0
 10  9  1  0
 11  7  1  0
 11 10  2  0
 12  5  1  0
 13  4  2  0
 13  8  1  0
 14  6  2  0
 15  5  2  0
 15 12  1  0
 15 14  1  0
M  END
>  <ID>  (1) 
conformer_0

$$$$
