
     RDKit          3D

 26 32  0  0  0  0  0  0  0  0999 V2000
    0.0681  -31.7849  -15.6771 C   0  0  0  0  0  0  0  0  0  0  0  0
   -0.8319  -31.5849  -16.5771 C   0  0  0  0  0  3  0  0  0  0  0  0
   -1.9319  -30.5849  -16.3771 C   0  0  0  0  0  0  0  0  0  0  0  0
   -1.9319  -30.3849  -14.9771 C   0  0  0  0  0  0  0  0  0  0  0  0
   -0.9319  -30.2849  -14.0771 C   0  0  0  0  0  0  0  0  0  0  0  0
    0.1681  -30.8849  -14.6771 C   0  0  0  0  0  0  0  0  0  0  0  0
   -3.1319  -29.5849  -14.5771 C   0  0  0  0  0  0  0  0  0  0  0  0
   -3.9319  -30.0849  -15.5771 N   0  0  0  0  0  0  0  0  0  0  0  0
   -1.3319  -29.8849  -12.7771 C   0  0  0  0  0  0  0  0  0  0  0  0
   -3.5319  -29.2849  -13.2771 C   0  0  0  0  0  0  0  0  0  0  0  0
   -0.7319  -30.2849  -17.1771 C   0  0  0  0  0  0  0  0  0  0  0  0
   -3.7319  -29.5849  -11.9771 C   0  0  0  0  0  0  0  0  0  0  0  0
   -2.5319  -29.7849  -12.3771 N   0  0  0  0  0  0  0  0  0  0  0  0
   -0.4319  -30.2849  -11.6771 C   0  0  0  0  0  0  0  0  0  0  0  0
   -1.2319  -30.5849  -10.4771 C   0  0  0  0  0  0  0  0  0  0  0  0
   -3.2319  -30.6849  -16.5771 C   0  0  0  0  0  0  0  0  0  0  0  0
   -2.2319  -29.7849   -9.8771 C   0  0  0  0  0  0  0  0  0  0  0  0
   -2.0319  -29.2849   -8.5771 C   0  0  0  0  0  0  0  0  0  0  0  0
   -1.6319  -30.4849   -7.7771 C   0  0  0  0  0  0  0  0  0  0  0  0
   -0.3319  -31.0849   -8.1771 C   0  0  0  0  0  0  0  0  0  0  0  0
    0.5681  -31.3849   -7.0771 O   0  0  0  0  0  0  0  0  0  0  0  0
   -0.0319  -30.9849   -5.8771 C   0  0  0  0  0  0  0  0  0  0  0  0
   -0.4319  -31.3849   -9.5771 C   0  0  0  0  0  0  0  0  0  0  0  0
   -2.2319  -30.8849   -6.6771 O   0  0  0  0  0  0  0  0  0  0  0  0
   -1.4319  -31.4849   -5.6771 C   0  0  0  0  0  0  0  0  0  0  0  0
   -0.2319  -29.7849  -18.1771 N   0  0  0  0  0  0  0  0  0  0  0  0
  2  1  1  0
  3  2  1  0
  4  3  1  0
  5  4  1  0
  6  1  2  0
  6  5  1  0
  7  4  1  0
  8  7  1  0
  9  5  2  0
 10  7  2  0
 11  2  1  0
 11  3  1  0
 12 10  1  0
 13  9  1  0
 13 10  1  0
 13 12  1  0
 14  9  1  0
 15 14  1  0
 16  3  1  0
 16  8  2  0
 17 15  2  0
 18 17  1  0
 19 18  2  0
 20 19  1  0
 21 20  1  0
 22 21  1  0
 23 15  1  0
 23 20  2  0
 24 19  1  0
 25 22  1  0
 25 24  1  0
 26 11  2  0
M  END
>  <ID>  (1) 
conformer_0

$$$$
