
     RDKit          3D

 23 29  0  0  0  0  0  0  0  0999 V2000
    0.0681  -31.7849  -15.6771 C   0  0  0  0  0  0  0  0  0  0  0  0
   -0.8319  -31.5849  -16.5771 C   0  0  0  0  0  0  0  0  0  0  0  0
   -1.9319  -30.5849  -16.3771 C   0  0  0  0  0  0  0  0  0  0  0  0
   -1.9319  -30.3849  -14.9771 C   0  0  0  0  0  3  0  0  0  0  0  0
   -0.9319  -30.2849  -14.0771 C   0  0  0  0  0  0  0  0  0  0  0  0
    0.1681  -30.8849  -14.6771 C   0  0  0  0  0  0  0  0  0  0  0  0
   -3.1319  -29.5849  -14.5771 C   0  0  0  0  0  0  0  0  0  0  0  0
   -3.9319  -30.0849  -15.5771 N   0  0  0  0  0  0  0  0  0  0  0  0
   -1.3319  -29.8849  -12.7771 C   0  0  0  0  0  0  0  0  0  0  0  0
   -3.6319  -29.4849  -13.2771 C   0  0  0  0  0  0  0  0  0  0  0  0
   -0.7319  -30.2849  -16.9771 C   0  0  0  0  0  0  0  0  0  0  0  0
   -2.5319  -29.7849  -12.2771 C   0  0  0  0  0  0  0  0  0  0  0  0
   -2.9319  -29.6849  -10.8771 C   0  0  0  0  0  0  0  0  0  0  0  0
   -2.0319  -29.4849   -9.8771 C   0  0  0  0  0  0  0  0  0  0  0  0
   -2.2319  -28.6849   -8.7771 C   0  0  0  0  0  0  0  0  0  0  0  0
   -3.4319  -28.5849   -8.2771 C   0  0  0  0  0  0  0  0  0  0  0  0
   -4.6319  -29.1849   -8.7771 C   0  0  0  0  0  0  0  0  0  0  0  0
   -2.9319  -30.4849   -9.8771 O   0  0  0  0  0  0  0  0  0  0  0  0
   -5.8319  -28.7849   -8.0771 C   0  0  0  0  0  0  0  0  0  0  0  0
   -3.9319  -29.9849   -8.0771 N   0  0  0  0  0  0  0  0  0  0  0  0
   -3.2319  -30.7849  -16.6771 C   0  0  0  0  0  0  0  0  0  0  0  0
   -5.5319  -27.6849   -7.1771 O   0  0  0  0  0  0  0  0  0  0  0  0
   -5.5319  -28.9849   -6.6771 C   0  0  0  0  0  0  0  0  0  0  0  0
  2  1  2  0
  3  2  1  0
  4  3  1  0
  5  4  1  0
  6  1  1  0
  6  5  2  0
  7  4  1  0
  8  7  1  0
  9  5  1  0
 10  7  2  0
 11  2  1  0
 11  3  1  0
 12  9  2  0
 12 10  1  0
 13 12  1  0
 14 13  1  0
 15 14  1  0
 16 15  1  0
 17 16  1  0
 18 13  1  0
 18 14  1  0
 19 17  1  0
 20 16  1  0
 20 17  1  0
 21  3  1  0
 21  8  2  0
 22 19  1  0
 23 19  1  0
 23 22  1  0
M  END
>  <ID>  (1) 
conformer_0

$$$$
