
     RDKit          3D

 25 27  0  0  0  0  0  0  0  0999 V2000
   -0.8266  -30.2578  -13.8544 C   0  0  0  0  0  0  0  0  0  0  0  0
   -0.5266  -30.8578  -15.0544 C   0  0  0  0  0  0  0  0  0  0  0  0
   -1.6266  -31.1578  -15.9544 C   0  0  0  0  0  0  0  0  0  0  0  0
   -1.2266  -31.7578  -17.1544 C   0  0  0  0  0  0  0  0  0  0  0  0
    0.6734  -31.4578  -15.3544 C   0  0  0  0  0  0  0  0  0  0  0  0
   -2.7266  -30.2578  -15.6544 C   0  0  0  0  0  3  0  0  0  0  0  0
   -3.9266  -30.1578  -15.5544 N   0  0  0  0  0  0  0  0  0  0  0  0
   -3.0266  -29.9578  -14.4544 N   0  0  0  0  0  4  0  0  0  0  0  0
   -3.3266  -29.5578  -13.2544 C   0  0  0  0  0  0  0  0  0  0  0  0
    0.3734  -30.0578  -13.0544 C   0  0  0  0  0  0  0  0  0  0  0  0
    1.2734  -31.1578  -12.9544 C   0  0  0  0  0  0  0  0  0  0  0  0
    1.5734  -31.6578  -14.2544 C   0  0  0  0  0  0  0  0  0  0  0  0
   -2.1266  -29.8578  -13.5544 N   0  0  0  0  0  0  0  0  0  0  0  0
   -3.6266  -29.3578  -11.8544 C   0  0  0  0  0  0  0  0  0  0  0  0
   -1.4266  -31.0578  -18.3544 C   0  0  0  0  0  0  0  0  0  0  0  0
   -2.9266  -30.0578  -10.7544 C   0  0  0  0  0  0  0  0  0  0  0  0
   -2.8266  -29.3578   -9.5544 C   0  0  0  0  0  0  0  0  0  0  0  0
   -1.8266  -29.8578   -8.5544 C   0  0  0  0  0  0  0  0  0  0  0  0
   -1.6266  -31.2578   -8.7544 C   0  0  0  0  0  0  0  0  0  0  0  0
   -2.0266  -32.3578   -9.3544 O   0  0  0  0  0  0  0  0  0  0  0  0
   -0.7266  -30.5578   -9.4544 N   0  0  0  0  0  0  0  0  0  0  0  0
   -0.4266  -29.9578  -18.1544 C   0  0  0  0  0  0  0  0  0  0  0  0
    0.7734  -30.3578  -18.5544 N   0  0  0  0  0  0  0  0  0  0  0  0
    0.4734  -30.2578  -17.3544 N   0  0  0  0  0  0  0  0  0  0  0  0
    1.9734  -30.3578  -18.9544 C   0  0  0  0  0  0  0  0  0  0  0  0
  2  1  1  0
  3  2  2  0
  4  3  1  0
  5  2  1  0
  6  3  1  0
  7  6  1  0
  8  6  1  0
  9  8  1  0
 10  1  1  0
 11 10  2  0
 12  5  2  0
 12 11  1  0
 13  1  1  0
 13  9  1  0
 14  9  1  0
 15  4  1  0
 16 14  1  0
 17 16  2  3
 18 17  1  0
 19 18  1  0
 20 19  1  0
 21 18  1  0
 21 19  1  0
 22 15  1  0
 23 22  1  0
 24 22  1  0
 25 23  1  0
M  END
>  <ID>  (1) 
conformer_0

$$$$
