
     RDKit          3D

 24 29  0  0  0  0  0  0  0  0999 V2000
    0.0681  -31.7849  -15.6771 C   0  0  0  0  0  0  0  0  0  0  0  0
   -0.8319  -31.5849  -16.5771 C   0  0  0  0  0  3  0  0  0  0  0  0
   -1.9319  -30.5849  -16.3771 C   0  0  0  0  0  0  0  0  0  0  0  0
   -1.9319  -30.3849  -14.9771 C   0  0  0  0  0  0  0  0  0  0  0  0
   -0.9319  -30.2849  -14.0771 C   0  0  0  0  0  0  0  0  0  0  0  0
    0.1681  -30.9849  -14.6771 C   0  0  0  0  0  0  0  0  0  0  0  0
   -3.0319  -29.4849  -14.5771 C   0  0  0  0  0  0  0  0  0  0  0  0
   -3.9319  -29.8849  -15.4771 N   0  0  0  0  0  0  0  0  0  0  0  0
   -1.2319  -29.8849  -12.7771 C   0  0  0  0  0  0  0  0  0  0  0  0
   -3.5319  -29.3849  -13.1771 C   0  0  0  0  0  0  0  0  0  0  0  0
   -3.5319  -29.3849  -11.8771 C   0  0  0  0  0  0  0  0  0  0  0  0
   -2.4319  -29.6849  -12.3771 N   0  0  0  0  0  0  0  0  0  0  0  0
   -0.7319  -30.2849  -17.0771 C   0  0  0  0  0  0  0  0  0  0  0  0
   -0.4319  -30.4849  -11.6771 C   0  0  0  0  0  0  0  0  0  0  0  0
   -1.2319  -30.7849  -10.4771 C   0  0  0  0  0  0  0  0  0  0  0  0
   -1.9319  -29.8849   -9.8771 C   0  0  0  0  0  0  0  0  0  0  0  0
   -2.4319  -30.0849   -8.6771 C   0  0  0  0  0  0  0  0  0  0  0  0
   -1.8319  -30.6849   -7.5771 C   0  0  0  0  0  0  0  0  0  0  0  0
   -2.2319  -30.3849   -6.2771 C   0  0  0  0  0  0  0  0  0  0  0  0
   -3.6319  -30.1849   -6.0771 C   0  0  0  0  0  0  0  0  0  0  0  0
   -4.6319  -30.5849   -6.9771 C   0  0  0  0  0  0  0  0  0  0  0  0
   -5.8319  -29.8849   -7.2771 C   0  0  0  0  0  0  0  0  0  0  0  0
   -5.8319  -30.8849   -6.3771 O   0  0  0  0  0  0  0  0  0  0  0  0
   -3.3319  -30.5849  -16.5771 C   0  0  0  0  0  0  0  0  0  0  0  0
  2  1  1  0
  3  2  1  0
  4  3  1  0
  5  4  1  0
  6  1  2  0
  6  5  1  0
  7  4  1  0
  8  7  1  0
  9  5  2  0
 10  7  2  0
 11 10  1  0
 12  9  1  0
 12 10  1  0
 12 11  1  0
 13  2  1  0
 13  3  1  0
 14  9  1  0
 15 14  1  0
 16 15  2  3
 17 16  1  0
 18 17  1  0
 19 18  1  0
 20 19  1  0
 21 20  1  0
 22 21  1  0
 23 21  1  0
 23 22  1  0
 24  3  1  0
 24  8  2  0
M  END
>  <ID>  (1) 
conformer_0

$$$$
