
     RDKit          3D

 14 17  0  0  0  0  0  0  0  0999 V2000
   -0.8266  -30.2578  -13.8544 C   0  0  0  0  0  0  0  0  0  0  0  0
   -0.5266  -30.8578  -15.0544 C   0  0  0  0  0  0  0  0  0  0  0  0
   -1.5266  -30.9578  -16.0544 C   0  0  0  0  0  0  0  0  0  0  0  0
   -1.3266  -31.5578  -17.2544 C   0  0  0  0  0  0  0  0  0  0  0  0
   -2.7266  -30.2578  -15.5544 C   0  0  0  0  0  0  0  0  0  0  0  0
    0.6734  -31.4578  -15.2544 C   0  0  0  0  0  0  0  0  0  0  0  0
    1.6734  -31.1578  -14.2544 C   0  0  0  0  0  0  0  0  0  0  0  0
    0.0734  -29.8578  -12.9544 C   0  0  0  0  0  0  0  0  0  0  0  0
    1.2734  -30.7578  -12.9544 C   0  0  0  0  0  0  0  0  0  0  0  0
   -3.9266  -30.0578  -15.4544 N   0  0  0  0  0  0  0  0  0  0  0  0
   -2.9266  -29.5578  -14.6544 C   0  0  0  0  0  0  0  0  0  0  0  0
   -0.9266  -31.6578  -18.4544 N   0  0  0  0  0  0  0  0  0  0  0  0
    0.0734  -31.3578  -17.5544 C   0  0  0  0  0  0  0  0  0  0  0  0
    0.7734  -31.7578  -16.5544 N   0  0  0  0  0  0  0  0  0  0  0  0
  2  1  2  0
  3  2  1  0
  4  3  1  0
  5  3  1  0
  6  2  1  0
  7  6  2  0
  8  1  1  0
  9  7  1  0
  9  8  2  0
 10  5  2  0
 11  5  1  0
 11 10  1  0
 12  4  1  0
 13  4  1  0
 13 12  2  0
 14  6  1  0
 14 13  1  0
M  END
>  <ID>  (1) 
conformer_0

$$$$
