
     RDKit          3D

 25 29  0  0  0  0  0  0  0  0999 V2000
   -0.8266  -30.2578  -13.8544 C   0  0  0  0  0  0  0  0  0  0  0  0
   -0.5266  -30.8578  -15.0544 C   0  0  0  0  0  0  0  0  0  0  0  0
   -1.6266  -31.1578  -15.9544 C   0  0  0  0  0  0  0  0  0  0  0  0
   -2.7266  -30.3578  -15.3544 C   0  0  0  0  0  0  0  0  0  0  0  0
   -1.5266  -31.1578  -17.3544 C   0  0  0  0  0  0  0  0  0  0  0  0
    0.7734  -31.4578  -15.3544 C   0  0  0  0  0  0  0  0  0  0  0  0
   -2.2266  -29.7578  -14.0544 N   0  0  0  0  0  0  0  0  0  0  0  0
   -3.2266  -29.5578  -13.0544 C   0  0  0  0  0  0  0  0  0  0  0  0
   -4.0266  -30.0578  -15.1544 N   0  0  0  0  0  0  0  0  0  0  0  0
    1.7734  -31.2578  -14.3544 C   0  0  0  0  0  0  0  0  0  0  0  0
    0.1734  -30.2578  -12.8544 C   0  0  0  0  0  0  0  0  0  0  0  0
    1.1734  -31.1578  -13.0544 C   0  0  0  0  0  0  0  0  0  0  0  0
   -3.3266  -29.5578  -11.6544 C   0  0  0  0  0  0  0  0  0  0  0  0
   -4.3266  -29.5578  -13.9544 N   0  0  0  0  0  0  0  0  0  0  0  0
   -2.3266  -30.6578  -18.3544 N   0  0  0  0  0  0  0  0  0  0  0  0
   -2.7266  -30.0578  -10.4544 C   0  0  0  0  0  0  0  0  0  0  0  0
   -2.5266  -29.1578   -9.3544 C   0  0  0  0  0  0  0  0  0  0  0  0
   -1.4266  -30.6578  -10.8544 C   0  0  0  0  0  0  0  0  0  0  0  0
   -4.1266  -28.9578  -14.9544 N   0  0  0  0  0  0  0  0  0  0  0  0
   -1.7266  -29.3578   -8.1544 C   0  0  0  0  0  0  0  0  0  0  0  0
   -2.4266  -28.9578   -6.9544 N   0  0  0  0  0  0  0  0  0  0  0  0
   -2.7266  -29.9578   -5.9544 C   0  0  0  0  0  0  0  0  0  0  0  0
   -0.6266  -31.8578  -17.8544 O   0  0  0  0  0  0  0  0  0  0  0  0
   -3.6266  -28.2578   -7.3544 C   0  0  0  0  0  0  0  0  0  0  0  0
   -3.8266  -28.5578   -8.9544 C   0  0  0  0  0  0  0  0  0  0  0  0
  2  1  2  0
  3  2  1  0
  4  3  2  0
  5  3  1  0
  6  2  1  0
  7  1  1  0
  7  4  1  0
  8  7  1  0
  9  4  1  0
 10  6  2  0
 11  1  1  0
 12 10  1  0
 12 11  2  0
 13  8  1  0
 14  8  1  0
 14  9  1  0
 15  5  1  0
 16 13  1  0
 17 16  1  0
 18 16  1  0
 19  9  1  0
 19 14  1  0
 20 17  1  0
 21 20  1  0
 22 21  1  0
 23  5  2  0
 24 21  1  0
 25 17  1  0
 25 24  1  0
M  END
>  <ID>  (1) 
conformer_0

$$$$
