
     RDKit          3D

 11 11  0  0  0  0  0  0  0  0999 V2000
   23.5756  -24.0981  -10.8002 C   0  0  0  0  0  0  0  0  0  0  0  0
   24.4542  -23.9531   -9.8244 N   0  0  0  0  0  0  0  0  0  0  0  0
   24.8162  -22.7227   -9.3896 C   0  0  0  0  0  0  0  0  0  0  0  0
   24.6858  -21.6544  -10.1277 C   0  0  0  0  0  0  0  0  0  0  0  0
   23.7980  -21.7199  -11.2139 C   0  0  0  0  0  0  0  0  0  0  0  0
   25.8344  -22.7040   -8.2508 C   0  0  0  0  0  0  0  0  0  0  0  0
   26.0615  -23.7440   -7.3921 N   0  0  0  0  0  0  0  0  0  0  0  0
   23.0353  -25.2024  -11.0717 O   0  0  0  0  0  0  0  0  0  0  0  0
   23.1938  -22.8960  -11.5312 C   0  0  0  0  0  0  0  0  0  0  0  0
   26.3655  -21.5175   -8.0045 O   0  0  0  0  0  0  0  0  0  0  0  0
   22.2781  -23.0342  -12.7160 C   0  0  0  0  0  0  0  0  0  0  0  0
  1  2  1  0
  2  3  1  0
  3  4  2  0
  4  5  1  0
  3  6  1  0
  6  7  1  0
  1  8  2  0
  1  9  1  0
  5  9  2  0
  6 10  2  0
  9 11  1  0
M  END
>  <ID>  (1) 
conformer_0

$$$$
