
     RDKit          3D

  9 10  0  0  0  0  0  0  0  0999 V2000
   25.8074  -23.4652   -7.5855 C   0  0  0  0  0  0  0  0  0  0  0  0
   25.1710  -23.3801   -8.7345 C   0  0  0  0  0  0  0  0  0  0  0  0
   24.8801  -24.0448   -9.6256 N   0  0  0  0  0  0  0  0  0  0  0  0
   26.2160  -22.5793   -6.8848 C   0  0  0  0  0  0  0  0  0  0  0  0
   25.1548  -21.8811   -9.1999 C   0  0  0  0  0  0  0  0  0  0  0  0
   26.1946  -21.2189   -7.1503 C   0  0  0  0  0  0  0  0  0  0  0  0
   24.2008  -23.5464  -10.7123 N   0  0  0  0  0  0  0  0  0  0  0  0
   25.6587  -20.8995   -8.3542 C   0  0  0  0  0  0  0  0  0  0  0  0
   24.3996  -22.1393  -10.3950 C   0  0  0  0  0  0  0  0  0  0  0  0
  1  2  1  0
  2  3  1  0
  1  4  2  0
  2  5  2  0
  4  6  1  0
  3  7  2  0
  5  8  1  0
  6  8  2  0
  5  9  1  0
  7  9  1  0
M  END
>  <ID>  (1) 
conformer_0

$$$$
