
     RDKit          3D

 10 10  0  0  0  0  0  0  0  0999 V2000
   23.5756  -24.0981  -10.8002 C   0  0  0  0  0  0  0  0  0  0  0  0
   24.4542  -23.9531   -9.8244 N   0  0  0  0  0  0  0  0  0  0  0  0
   24.8162  -22.7227   -9.3896 C   0  0  0  0  0  0  0  0  0  0  0  0
   24.6858  -21.6544  -10.1277 C   0  0  0  0  0  0  0  0  0  0  0  0
   23.7980  -21.7199  -11.2139 C   0  0  0  0  0  0  0  0  0  0  0  0
   25.8344  -22.7040   -8.2508 C   0  0  0  0  0  0  0  0  0  0  0  0
   26.0615  -23.7440   -7.3921 N   0  0  0  0  0  0  0  0  0  0  0  0
   23.4281  -20.6819  -11.9726 O   0  0  0  0  0  0  0  0  0  0  0  0
   26.1821  -21.4810   -7.9351 O   0  0  0  0  0  0  0  0  0  0  0  0
   23.3161  -23.0787  -11.5064 N   0  0  0  0  0  0  0  0  0  0  0  0
  1  2  1  0
  2  3  1  0
  3  4  2  0
  4  5  1  0
  3  6  1  0
  6  7  1  0
  5  8  2  0
  6  9  2  0
  1 10  2  0
  5 10  1  0
M  END
>  <ID>  (1) 
conformer_0

$$$$
