
     RDKit          3D

 10 11  0  0  0  0  0  0  0  0999 V2000
   25.8074  -23.4652   -7.5855 C   0  0  0  0  0  0  0  0  0  0  0  0
   25.1710  -23.3801   -8.7345 C   0  0  0  0  0  0  0  0  0  0  0  0
   24.8801  -24.0448   -9.6256 N   0  0  0  0  0  0  0  0  0  0  0  0
   24.0604  -23.4960  -10.5604 C   0  0  0  0  0  0  0  0  0  0  0  0
   23.3248  -24.2252  -11.5121 N   0  0  0  0  0  0  0  0  0  0  0  0
   25.1778  -21.8839   -8.9742 C   0  0  0  0  0  0  0  0  0  0  0  0
   26.3971  -22.5835   -6.7135 C   0  0  0  0  0  0  0  0  0  0  0  0
   26.2681  -21.2621   -6.9900 C   0  0  0  0  0  0  0  0  0  0  0  0
   24.1551  -21.9975  -10.3730 C   0  0  0  0  0  0  0  0  0  0  0  0
   25.5781  -20.9395   -8.2422 C   0  0  0  0  0  0  0  0  0  0  0  0
  1  2  1  0
  2  3  1  0
  3  4  1  0
  4  5  1  0
  2  6  2  0
  1  7  2  0
  7  8  1  0
  4  9  2  0
  6  9  1  0
  6 10  1  0
  8 10  2  0
M  END
>  <ID>  (1) 
conformer_0

$$$$
