
     RDKit          3D

 11 11  0  0  0  0  0  0  0  0999 V2000
   23.2728  -24.5394  -11.4520 O   0  0  0  0  0  0  0  0  0  0  0  0
   23.6482  -23.9908  -10.3871 C   0  0  0  0  0  0  0  0  0  0  0  0
   22.6836  -23.5679   -9.5501 N   0  0  0  0  0  0  0  0  0  0  0  0
   25.0034  -23.6467  -10.1360 O   0  0  0  0  0  0  0  0  0  0  0  0
   23.1316  -22.9475   -8.2884 C   0  0  0  0  0  0  0  0  0  0  0  0
   25.2967  -23.1992   -8.9152 C   0  0  0  0  0  0  0  0  0  0  0  0
   26.6795  -22.6168   -8.7909 O   0  0  0  0  0  0  0  0  0  0  0  0
   24.4104  -22.3881   -8.1431 C   0  0  0  0  0  0  0  0  0  0  0  0
   24.6823  -22.2654   -6.7375 O   0  0  0  0  0  0  0  0  0  0  0  0
   21.3781  -24.0203   -9.6285 C   0  0  0  0  0  0  0  0  0  0  0  0
   22.0744  -21.9371   -7.9783 O   0  0  0  0  0  0  0  0  0  0  0  0
  1  2  2  0
  2  3  1  0
  2  4  1  0
  3  5  1  0
  4  6  1  0
  6  7  1  0
  5  8  1  0
  6  8  1  0
  8  9  1  0
  3 10  1  0
  5 11  1  0
M  END
>  <ID>  (1) 
conformer_0

$$$$
