
     RDKit          3D

  6  5  0  0  0  0  0  0  0  0999 V2000
   24.2107  -23.8464  -10.3007 O   0  0  0  0  0  0  0  0  0  0  0  0
   24.2046  -23.1468   -9.4286 C   0  0  0  0  0  0  0  0  0  0  0  0
   23.2387  -22.2804   -9.1730 O   0  0  0  0  0  0  0  0  0  0  0  0
   25.4299  -23.1178   -8.5361 C   0  0  0  0  0  0  0  0  0  0  0  0
   25.7522  -23.9754   -7.8559 N   0  0  0  0  0  0  0  0  0  0  0  0
   26.1319  -21.9339   -8.5152 O   0  0  0  0  0  0  0  0  0  0  0  0
  1  2  2  0
  2  3  1  0
  2  4  1  0
  4  5  1  0
  4  6  2  0
M  END
>  <ID>  (1) 
conformer_0

$$$$
