
     RDKit          3D

 10 11  0  0  0  0  0  0  0  0999 V2000
   25.8074  -23.4652   -7.5855 C   0  0  0  0  0  0  0  0  0  0  0  0
   25.1710  -23.3801   -8.7345 N   0  0  0  0  0  0  0  0  0  0  0  0
   26.7657  -22.6159   -7.1867 C   0  0  0  0  0  0  0  0  0  0  0  0
   24.2331  -24.1764   -9.2758 C   0  0  0  0  0  0  0  0  0  0  0  0
   23.7318  -23.8021  -10.5160 C   0  0  0  0  0  0  0  0  0  0  0  0
   25.5633  -22.2240   -9.4326 C   0  0  0  0  0  0  0  0  0  0  0  0
   27.0334  -21.4619   -7.8366 C   0  0  0  0  0  0  0  0  0  0  0  0
   24.8300  -22.1020  -10.6385 N   0  0  0  0  0  0  0  0  0  0  0  0
   23.9726  -22.8712  -11.0138 C   0  0  0  0  0  0  0  0  0  0  0  0
   26.3601  -21.2692   -9.0582 C   0  0  0  0  0  0  0  0  0  0  0  0
  1  2  1  0
  1  3  2  0
  2  4  1  0
  4  5  1  0
  2  6  1  0
  3  7  1  0
  6  8  2  0
  5  9  2  0
  8  9  1  0
  6 10  1  0
  7 10  2  0
M  END
>  <ID>  (1) 
conformer_0

$$$$
