
     RDKit          3D

  7  6  0  0  0  0  0  0  0  0999 V2000
   23.4575  -24.5364  -11.3288 O   0  0  0  0  0  0  0  0  0  0  0  0
   23.7861  -23.8897  -10.2885 C   0  0  0  0  0  0  0  0  0  0  0  0
   24.9846  -23.6298   -9.8660 N   0  0  0  0  0  0  0  0  0  0  0  0
   25.1037  -22.8702   -8.6615 C   0  0  0  0  0  0  0  0  0  0  0  0
   22.5711  -23.1923   -9.6969 C   0  0  0  0  0  0  0  0  0  0  0  0
   26.4940  -22.6577   -8.2014 C   0  0  0  0  0  0  0  0  0  0  0  0
   24.3104  -22.3631   -7.8626 O   0  0  0  0  0  0  0  0  0  0  0  0
  1  2  2  0
  2  3  1  0
  3  4  1  0
  2  5  1  0
  4  6  1  0
  4  7  2  0
M  END
>  <ID>  (1) 
conformer_0

$$$$
