
     RDKit          3D

 11 11  0  0  0  0  0  0  0  0999 V2000
   23.2728  -24.5394  -11.4520 O   0  0  0  0  0  0  0  0  0  0  0  0
   23.6482  -23.9908  -10.3871 C   0  0  0  0  0  0  0  0  0  0  0  0
   24.8904  -23.8260   -9.9696 N   0  0  0  0  0  0  0  0  0  0  0  0
   22.5624  -23.3948   -9.5145 C   0  0  0  0  0  0  0  0  0  0  0  0
   25.2779  -23.1825   -8.8659 C   0  0  0  0  0  0  0  0  0  0  0  0
   21.2142  -23.5048   -9.8114 C   0  0  0  0  0  0  0  0  0  0  0  0
   23.0816  -22.6570   -8.3296 C   0  0  0  0  0  0  0  0  0  0  0  0
   20.4316  -23.7296   -8.9074 O   0  0  0  0  0  0  0  0  0  0  0  0
   20.9241  -24.1109  -10.9983 O   0  0  0  0  0  0  0  0  0  0  0  0
   26.6303  -22.9771   -8.5107 N   0  0  0  0  0  0  0  0  0  0  0  0
   24.3083  -22.5371   -8.0379 N   0  0  0  0  0  0  0  0  0  0  0  0
  1  2  2  0
  2  3  1  0
  2  4  1  0
  3  5  2  0
  4  6  1  0
  4  7  2  0
  6  8  1  0
  6  9  2  0
  5 10  1  0
  5 11  1  0
  7 11  1  0
M  END
>  <ID>  (1) 
conformer_0

$$$$
