
     RDKit          3D

 11 11  0  0  0  0  0  0  0  0999 V2000
   24.1556  -24.0551  -10.6238 O   0  0  0  0  0  0  0  0  0  0  0  0
   24.0937  -23.3251   -9.7226 C   0  0  0  0  0  0  0  0  0  0  0  0
   23.0421  -22.5595   -9.5101 O   0  0  0  0  0  0  0  0  0  0  0  0
   25.3475  -22.8964   -9.0049 C   0  0  0  0  0  0  0  0  0  0  0  0
   25.7540  -21.5678   -9.0961 C   0  0  0  0  0  0  0  0  0  0  0  0
   25.2675  -20.6273  -10.0441 C   0  0  0  0  0  0  0  0  0  0  0  0
   26.8402  -21.3275   -8.3175 C   0  0  0  0  0  0  0  0  0  0  0  0
   25.9562  -23.5703   -7.9568 C   0  0  0  0  0  0  0  0  0  0  0  0
   24.6961  -19.6221   -9.6491 O   0  0  0  0  0  0  0  0  0  0  0  0
   25.8944  -20.5785  -11.1774 O   0  0  0  0  0  0  0  0  0  0  0  0
   26.9472  -22.6375   -7.3857 C   0  0  0  0  0  0  0  0  0  0  0  0
  1  2  2  0
  2  3  1  0
  2  4  1  0
  4  5  2  0
  5  6  1  0
  5  7  1  0
  4  8  1  0
  6  9  1  0
  6 10  2  0
  7 11  1  0
  8 11  2  0
M  END
>  <ID>  (1) 
conformer_0

$$$$
