
     RDKit          3D

 10 10  0  0  0  0  0  0  0  0999 V2000
   24.2107  -23.8464  -10.3007 O   0  0  0  0  0  0  0  0  0  0  0  0
   24.7942  -23.3515   -9.4751 C   0  0  0  0  0  0  0  0  0  0  0  0
   25.5020  -23.6775   -8.4776 N   0  0  0  0  0  0  0  0  0  0  0  0
   26.0839  -22.7169   -7.5841 C   0  0  0  0  0  0  0  0  0  0  0  0
   24.8139  -21.7491   -9.6035 C   0  0  0  0  0  0  0  0  0  0  0  0
   24.1096  -21.2027  -10.7662 C   0  0  0  0  0  0  0  0  0  0  0  0
   24.6702  -20.9588  -11.7743 O   0  0  0  0  0  0  0  0  0  0  0  0
   25.8843  -21.5063   -7.9736 C   0  0  0  0  0  0  0  0  0  0  0  0
   22.8615  -21.0721  -10.7401 N   0  0  0  0  0  0  0  0  0  0  0  0
   25.3522  -20.8553   -8.8470 C   0  0  0  0  0  0  0  0  0  0  0  0
  1  2  2  0
  2  3  1  0
  3  4  1  0
  2  5  1  0
  5  6  1  0
  6  7  2  0
  4  8  2  0
  6  9  1  0
  5 10  2  0
  8 10  1  0
M  END
>  <ID>  (1) 
conformer_0

$$$$
