
     RDKit          3D

 10 11  0  0  0  0  0  0  0  0999 V2000
   25.8074  -23.4652   -7.5855 C   0  0  0  0  0  0  0  0  0  0  0  0
   25.1710  -23.3801   -8.7345 C   0  0  0  0  0  0  0  0  0  0  0  0
   24.8801  -24.0448   -9.6256 N   0  0  0  0  0  0  0  0  0  0  0  0
   25.3672  -21.9038   -9.0746 C   0  0  0  0  0  0  0  0  0  0  0  0
   26.3382  -22.6792   -6.6290 C   0  0  0  0  0  0  0  0  0  0  0  0
   24.8317  -21.6406  -10.3494 C   0  0  0  0  0  0  0  0  0  0  0  0
   26.8386  -23.0432   -5.4280 O   0  0  0  0  0  0  0  0  0  0  0  0
   26.3984  -21.3171   -7.0368 C   0  0  0  0  0  0  0  0  0  0  0  0
   24.3944  -23.1892  -10.6430 C   0  0  0  0  0  0  0  0  0  0  0  0
   25.9746  -20.9655   -8.2973 C   0  0  0  0  0  0  0  0  0  0  0  0
  1  2  1  0
  2  3  1  0
  2  4  2  0
  1  5  2  0
  4  6  1  0
  5  7  1  0
  5  8  1  0
  3  9  1  0
  6  9  2  0
  4 10  1  0
  8 10  2  0
M  END
>  <ID>  (1) 
conformer_0

$$$$
