
     RDKit          3D

  9  9  0  0  0  0  0  0  0  0999 V2000
   23.3957  -24.0723  -11.2219 C   0  0  0  0  0  0  0  0  0  0  0  0
   23.7532  -23.6622  -10.0090 C   0  0  0  0  0  0  0  0  0  0  0  0
   22.8504  -23.5311   -8.9644 C   0  0  0  0  0  0  0  0  0  0  0  0
   25.1127  -23.3095   -9.7056 C   0  0  0  0  0  0  0  0  0  0  0  0
   23.3014  -23.0761   -7.6207 C   0  0  0  0  0  0  0  0  0  0  0  0
   25.5150  -22.7360   -8.4679 C   0  0  0  0  0  0  0  0  0  0  0  0
   23.2034  -23.1932  -12.1474 O   0  0  0  0  0  0  0  0  0  0  0  0
   22.9464  -25.2304  -11.4060 O   0  0  0  0  0  0  0  0  0  0  0  0
   24.6077  -22.6774   -7.4183 C   0  0  0  0  0  0  0  0  0  0  0  0
  1  2  1  0
  2  3  2  0
  2  4  1  0
  3  5  1  0
  4  6  2  0
  1  7  1  0
  1  8  2  0
  5  9  2  0
  6  9  1  0
M  END
>  <ID>  (1) 
conformer_0

$$$$
