
     RDKit          3D

  8  7  0  0  0  0  0  0  0  0999 V2000
   24.1556  -24.0551  -10.6238 O   0  0  0  0  0  0  0  0  0  0  0  0
   24.0937  -23.3251   -9.7226 C   0  0  0  0  0  0  0  0  0  0  0  0
   23.0421  -22.5595   -9.5101 N   0  0  0  0  0  0  0  0  0  0  0  0
   25.3403  -22.9543   -8.9385 C   0  0  0  0  0  0  0  0  0  0  0  0
   21.7103  -22.7950  -10.2355 C   0  0  0  0  0  0  0  0  0  0  0  0
   25.7907  -23.6421   -8.0050 N   0  0  0  0  0  0  0  0  0  0  0  0
   22.7723  -21.7403   -8.3322 C   0  0  0  0  0  0  0  0  0  0  0  0
   25.9096  -21.8139   -9.1070 O   0  0  0  0  0  0  0  0  0  0  0  0
  1  2  2  0
  2  3  1  0
  2  4  1  0
  3  5  1  0
  4  6  1  0
  3  7  1  0
  4  8  2  0
M  END
>  <ID>  (1) 
conformer_0

$$$$
