
     RDKit          3D

  9  9  0  0  0  0  0  0  0  0999 V2000
   23.2728  -24.5394  -11.4520 O   0  0  0  0  0  0  0  0  0  0  0  0
   23.4455  -23.6358  -10.6339 C   0  0  0  0  0  0  0  0  0  0  0  0
   22.6279  -22.5696  -10.5767 N   0  0  0  0  0  0  0  0  0  0  0  0
   24.7314  -23.6525   -9.8691 N   0  0  0  0  0  0  0  0  0  0  0  0
   24.8392  -22.6747   -8.9499 C   0  0  0  0  0  0  0  0  0  0  0  0
   21.4372  -22.5544  -11.3413 C   0  0  0  0  0  0  0  0  0  0  0  0
   22.9059  -21.5322   -9.5697 C   0  0  0  0  0  0  0  0  0  0  0  0
   26.0555  -22.7921   -8.1071 N   0  0  0  0  0  0  0  0  0  0  0  0
   24.0345  -21.5681   -8.7524 C   0  0  0  0  0  0  0  0  0  0  0  0
  1  2  2  0
  2  3  1  0
  2  4  1  0
  4  5  2  0
  3  6  1  0
  3  7  1  0
  5  8  1  0
  5  9  1  0
  7  9  2  0
M  END
>  <ID>  (1) 
conformer_0

$$$$
