
     RDKit          3D

 10 11  0  0  0  0  0  0  0  0999 V2000
   23.3957  -24.0723  -11.2219 C   0  0  0  0  0  0  0  0  0  0  0  0
   23.7532  -23.6622  -10.0090 C   0  0  0  0  0  0  0  0  0  0  0  0
   23.3977  -23.4778  -12.1827 C   0  0  0  0  0  0  0  0  0  0  0  0
   23.9083  -22.1822  -12.0836 C   0  0  0  0  0  0  0  0  0  0  0  0
   23.5920  -24.3953   -8.7188 N   0  0  0  0  0  0  0  0  0  0  0  0
   24.4539  -21.6226  -10.9513 C   0  0  0  0  0  0  0  0  0  0  0  0
   24.3396  -22.3694   -9.7322 C   0  0  0  0  0  0  0  0  0  0  0  0
   23.7901  -23.7449   -7.6128 C   0  0  0  0  0  0  0  0  0  0  0  0
   24.7754  -21.8781   -8.5263 C   0  0  0  0  0  0  0  0  0  0  0  0
   24.5059  -22.5455   -7.4964 C   0  0  0  0  0  0  0  0  0  0  0  0
  1  2  1  0
  1  3  2  0
  3  4  1  0
  2  5  1  0
  4  6  2  0
  2  7  2  0
  6  7  1  0
  5  8  2  0
  7  9  1  0
  8 10  1  0
  9 10  2  0
M  END
>  <ID>  (1) 
conformer_0

$$$$
