
     RDKit          3D

 11 12  0  0  0  0  0  0  0  0999 V2000
   23.4575  -24.5364  -11.3288 O   0  0  0  0  0  0  0  0  0  0  0  0
   23.7861  -23.8897  -10.2885 C   0  0  0  0  0  0  0  0  0  0  0  0
   24.9846  -23.6298   -9.8660 N   0  0  0  0  0  0  0  0  0  0  0  0
   22.6318  -23.5568   -9.3556 C   0  0  0  0  0  0  0  0  0  0  0  0
   21.2893  -23.8084   -9.6148 C   0  0  0  0  0  0  0  0  0  0  0  0
   25.1814  -22.8972   -8.7141 C   0  0  0  0  0  0  0  0  0  0  0  0
   20.3949  -23.6116   -8.7050 C   0  0  0  0  0  0  0  0  0  0  0  0
   23.9866  -22.5892   -7.9157 N   0  0  0  0  0  0  0  0  0  0  0  0
   21.2159  -23.0207   -7.4992 C   0  0  0  0  0  0  0  0  0  0  0  0
   22.8641  -23.1309   -8.1615 C   0  0  0  0  0  0  0  0  0  0  0  0
   26.2529  -22.3368   -8.2400 N   0  0  0  0  0  0  0  0  0  0  0  0
  1  2  2  0
  2  3  1  0
  2  4  1  0
  4  5  1  0
  3  6  2  0
  5  7  2  0
  6  8  1  0
  7  9  1  0
  4 10  1  0
  8 10  1  0
  9 10  2  0
  6 11  1  0
M  END
>  <ID>  (1) 
conformer_0

$$$$
