
     RDKit          3D

 10 10  0  0  0  0  0  0  0  0999 V2000
   23.3957  -24.0723  -11.2219 C   0  0  0  0  0  0  0  0  0  0  0  0
   23.7532  -23.6622  -10.0090 C   0  0  0  0  0  0  0  0  0  0  0  0
   22.8504  -23.5311   -8.9644 C   0  0  0  0  0  0  0  0  0  0  0  0
   25.1498  -23.5464   -9.5843 N   0  0  0  0  0  0  0  0  0  0  0  0
   23.3854  -23.3599   -7.5951 C   0  0  0  0  0  0  0  0  0  0  0  0
   22.4475  -25.0199  -11.3720 O   0  0  0  0  0  0  0  0  0  0  0  0
   25.2283  -23.0710   -8.2586 C   0  0  0  0  0  0  0  0  0  0  0  0
   23.8147  -23.5126  -12.2782 O   0  0  0  0  0  0  0  0  0  0  0  0
   24.4571  -23.1328   -7.3046 N   0  0  0  0  0  0  0  0  0  0  0  0
   26.8929  -22.7466   -8.0001 N   0  0  0  0  0  0  0  0  0  0  0  0
  1  2  1  0
  2  3  2  0
  2  4  1  0
  3  5  1  0
  1  6  1  0
  4  7  2  0
  1  8  2  0
  5  9  2  0
  7  9  1  0
  7 10  1  0
M  END
>  <ID>  (1) 
conformer_0

$$$$
