
     RDKit          3D

 10 10  0  0  0  0  0  0  0  0999 V2000
   23.4575  -24.5364  -11.3288 O   0  0  0  0  0  0  0  0  0  0  0  0
   23.7861  -23.8897  -10.2885 C   0  0  0  0  0  0  0  0  0  0  0  0
   22.7396  -23.4392   -9.6036 N   0  0  0  0  0  0  0  0  0  0  0  0
   23.0193  -22.7682   -8.3216 C   0  0  0  0  0  0  0  0  0  0  0  0
   25.0370  -23.3148  -10.0710 N   0  0  0  0  0  0  0  0  0  0  0  0
   21.3630  -23.9463   -9.6995 C   0  0  0  0  0  0  0  0  0  0  0  0
   22.0122  -22.4445   -7.4557 O   0  0  0  0  0  0  0  0  0  0  0  0
   25.1915  -22.5677   -8.9369 C   0  0  0  0  0  0  0  0  0  0  0  0
   24.3051  -22.2328   -8.0098 N   0  0  0  0  0  0  0  0  0  0  0  0
   26.4874  -22.1996   -8.6830 N   0  0  0  0  0  0  0  0  0  0  0  0
  1  2  2  0
  2  3  1  0
  3  4  1  0
  2  5  1  0
  3  6  1  0
  4  7  2  0
  5  8  2  0
  4  9  1  0
  8  9  1  0
  8 10  1  0
M  END
>  <ID>  (1) 
conformer_0

$$$$
