
     RDKit          3D

 10 10  0  0  0  0  0  0  0  0999 V2000
   23.2728  -24.5394  -11.4520 O   0  0  0  0  0  0  0  0  0  0  0  0
   23.6482  -23.9908  -10.3871 C   0  0  0  0  0  0  0  0  0  0  0  0
   22.6836  -23.5679   -9.5501 N   0  0  0  0  0  0  0  0  0  0  0  0
   24.9085  -23.3192  -10.2645 N   0  0  0  0  0  0  0  0  0  0  0  0
   25.2585  -22.6753   -9.1560 C   0  0  0  0  0  0  0  0  0  0  0  0
   24.4739  -22.4559   -8.1766 N   0  0  0  0  0  0  0  0  0  0  0  0
   24.9096  -21.7260   -6.9578 C   0  0  0  0  0  0  0  0  0  0  0  0
   23.1566  -22.8281   -8.3677 C   0  0  0  0  0  0  0  0  0  0  0  0
   22.1526  -22.6388   -7.4199 N   0  0  0  0  0  0  0  0  0  0  0  0
   26.5178  -22.2411   -9.1143 N   0  0  0  0  0  0  0  0  0  0  0  0
  1  2  2  0
  2  3  1  0
  2  4  1  0
  4  5  2  0
  5  6  1  0
  6  7  1  0
  3  8  2  0
  6  8  1  0
  8  9  1  0
  5 10  1  0
M  END
>  <ID>  (1) 
conformer_0

$$$$
