
     RDKit          3D

 10 10  0  0  0  0  0  0  0  0999 V2000
   23.3957  -24.0723  -11.2219 C   0  0  0  0  0  0  0  0  0  0  0  0
   23.7532  -23.6622  -10.0090 C   0  0  0  0  0  0  0  0  0  0  0  0
   22.8504  -23.5311   -8.9644 C   0  0  0  0  0  0  0  0  0  0  0  0
   25.1127  -23.3095   -9.7056 N   0  0  0  0  0  0  0  0  0  0  0  0
   25.1400  -22.8122   -8.3403 C   0  0  0  0  0  0  0  0  0  0  0  0
   24.1264  -22.7724   -7.3923 C   0  0  0  0  0  0  0  0  0  0  0  0
   26.6880  -22.3630   -7.8861 C   0  0  0  0  0  0  0  0  0  0  0  0
   24.1197  -24.1426  -12.2037 O   0  0  0  0  0  0  0  0  0  0  0  0
   22.0592  -24.2750  -11.3589 N   0  0  0  0  0  0  0  0  0  0  0  0
   23.1893  -23.1362   -7.7803 N   0  0  0  0  0  0  0  0  0  0  0  0
  1  2  1  0
  2  3  2  0
  2  4  1  0
  4  5  2  0
  5  6  1  0
  5  7  1  0
  1  8  2  0
  1  9  1  0
  3 10  1  0
  6 10  2  0
M  END
>  <ID>  (1) 
conformer_0

$$$$
