
     RDKit          3D

  9  9  0  0  0  0  0  0  0  0999 V2000
   24.2107  -23.8464  -10.3007 O   0  0  0  0  0  0  0  0  0  0  0  0
   24.7942  -23.3515   -9.4751 C   0  0  0  0  0  0  0  0  0  0  0  0
   25.5020  -23.6775   -8.4776 N   0  0  0  0  0  0  0  0  0  0  0  0
   25.0736  -21.8365   -9.6959 C   0  0  0  0  0  0  0  0  0  0  0  0
   25.4139  -21.1418   -8.7527 C   0  0  0  0  0  0  0  0  0  0  0  0
   24.4558  -21.2106  -10.8523 C   0  0  0  0  0  0  0  0  0  0  0  0
   25.4211  -19.7060   -8.7193 C   0  0  0  0  0  0  0  0  0  0  0  0
   24.9926  -19.0753   -9.8859 C   0  0  0  0  0  0  0  0  0  0  0  0
   24.4585  -19.8454  -10.9272 C   0  0  0  0  0  0  0  0  0  0  0  0
  1  2  2  0
  2  3  1  0
  2  4  1  0
  4  5  2  0
  4  6  1  0
  5  7  1  0
  7  8  2  0
  6  9  2  0
  8  9  1  0
M  END
>  <ID>  (1) 
conformer_0

$$$$
