
     RDKit          3D

  9  9  0  0  0  0  0  0  0  0999 V2000
   24.2107  -23.8464  -10.3007 O   0  0  0  0  0  0  0  0  0  0  0  0
   24.7942  -23.3515   -9.4751 C   0  0  0  0  0  0  0  0  0  0  0  0
   25.9015  -22.5569   -9.4490 N   0  0  0  0  0  0  0  0  0  0  0  0
   24.2502  -23.7255   -7.9846 C   0  0  0  0  0  0  0  0  0  0  0  0
   22.9788  -24.2553   -7.8845 N   0  0  0  0  0  0  0  0  0  0  0  0
   24.9135  -23.2224   -6.9077 C   0  0  0  0  0  0  0  0  0  0  0  0
   24.4936  -23.5447   -5.6987 C   0  0  0  0  0  0  0  0  0  0  0  0
   26.1310  -22.3998   -7.1352 C   0  0  0  0  0  0  0  0  0  0  0  0
   26.5257  -22.0974   -8.3842 C   0  0  0  0  0  0  0  0  0  0  0  0
  1  2  2  0
  2  3  1  0
  2  4  1  0
  4  5  1  0
  4  6  2  0
  6  7  1  0
  6  8  1  0
  3  9  2  0
  8  9  2  0
M  END
>  <ID>  (1) 
conformer_0

$$$$
