
     RDKit          3D

 10 11  0  0  0  0  0  0  0  0999 V2000
   25.8074  -23.4652   -7.5855 C   0  0  0  0  0  0  0  0  0  0  0  0
   25.1710  -23.3801   -8.7345 N   0  0  0  0  0  0  0  0  0  0  0  0
   26.7657  -22.6159   -7.1867 C   0  0  0  0  0  0  0  0  0  0  0  0
   25.5436  -22.1236   -9.2061 C   0  0  0  0  0  0  0  0  0  0  0  0
   24.1940  -24.1254   -9.3296 C   0  0  0  0  0  0  0  0  0  0  0  0
   23.9434  -23.9099  -10.5802 N   0  0  0  0  0  0  0  0  0  0  0  0
   23.4533  -24.7125   -8.6409 O   0  0  0  0  0  0  0  0  0  0  0  0
   26.7636  -21.3978   -8.2059 S   0  0  0  0  0  0  0  0  0  0  0  0
   25.1364  -21.7727  -10.4390 N   0  0  0  0  0  0  0  0  0  0  0  0
   24.2798  -22.6175  -11.1107 C   0  0  0  0  0  0  0  0  0  0  0  0
  1  2  1  0
  1  3  2  0
  2  4  1  0
  2  5  1  0
  5  6  1  0
  5  7  2  0
  3  8  1  0
  4  8  2  0
  4  9  1  0
  6 10  2  0
  9 10  2  0
M  END
>  <ID>  (1) 
conformer_0

$$$$
