
     RDKit          3D

  9  9  0  0  0  0  0  0  0  0999 V2000
   23.5756  -24.0981  -10.8002 C   0  0  0  0  0  0  0  0  0  0  0  0
   24.4542  -23.9531   -9.8244 N   0  0  0  0  0  0  0  0  0  0  0  0
   24.6647  -23.0991   -9.0995 C   0  0  0  0  0  0  0  0  0  0  0  0
   22.8149  -24.9956  -11.0731 O   0  0  0  0  0  0  0  0  0  0  0  0
   24.6400  -21.7516   -9.5734 C   0  0  0  0  0  0  0  0  0  0  0  0
   25.0399  -20.5713   -8.8348 C   0  0  0  0  0  0  0  0  0  0  0  0
   23.6143  -21.4886  -10.4816 C   0  0  0  0  0  0  0  0  0  0  0  0
   23.0485  -22.6275  -11.2418 C   0  0  0  0  0  0  0  0  0  0  0  0
   25.8598  -23.2653   -8.3017 O   0  0  0  0  0  0  0  0  0  0  0  0
  1  2  1  0
  2  3  1  0
  1  4  2  0
  3  5  1  0
  5  6  1  0
  5  7  2  0
  1  8  1  0
  7  8  1  0
  3  9  2  0
M  END
>  <ID>  (1) 
conformer_0

$$$$
