
     RDKit          3D

 10 11  0  0  0  0  0  0  0  0999 V2000
   25.8074  -23.4652   -7.5855 C   0  0  0  0  0  0  0  0  0  0  0  0
   25.1710  -23.3801   -8.7345 C   0  0  0  0  0  0  0  0  0  0  0  0
   24.8801  -24.0448   -9.6256 N   0  0  0  0  0  0  0  0  0  0  0  0
   25.3672  -21.9038   -9.0746 C   0  0  0  0  0  0  0  0  0  0  0  0
   26.3382  -22.6792   -6.6290 C   0  0  0  0  0  0  0  0  0  0  0  0
   25.9212  -21.0037   -8.1722 C   0  0  0  0  0  0  0  0  0  0  0  0
   24.7989  -21.7008  -10.3327 C   0  0  0  0  0  0  0  0  0  0  0  0
   24.2093  -23.6657  -10.7501 N   0  0  0  0  0  0  0  0  0  0  0  0
   26.4526  -21.3717   -6.9853 C   0  0  0  0  0  0  0  0  0  0  0  0
   24.2085  -22.5114  -11.0704 C   0  0  0  0  0  0  0  0  0  0  0  0
  1  2  1  0
  2  3  1  0
  2  4  2  0
  1  5  2  0
  4  6  1  0
  4  7  1  0
  3  8  2  0
  5  9  1  0
  6  9  2  0
  7 10  2  0
  8 10  1  0
M  END
>  <ID>  (1) 
conformer_0

$$$$
