
     RDKit          3D

  7  6  0  0  0  0  0  0  0  0999 V2000
   24.2107  -23.8464  -10.3007 O   0  0  0  0  0  0  0  0  0  0  0  0
   24.2046  -23.1468   -9.4286 C   0  0  0  0  0  0  0  0  0  0  0  0
   25.2850  -23.0690   -8.5430 C   0  0  0  0  0  0  0  0  0  0  0  0
   23.3753  -22.0319   -9.3250 O   0  0  0  0  0  0  0  0  0  0  0  0
   26.0320  -21.9711   -8.3122 C   0  0  0  0  0  0  0  0  0  0  0  0
   25.4939  -20.8268   -8.4418 O   0  0  0  0  0  0  0  0  0  0  0  0
   27.1623  -22.1107   -7.7233 O   0  0  0  0  0  0  0  0  0  0  0  0
  1  2  2  0
  2  3  1  0
  2  4  1  0
  3  5  1  0
  5  6  1  0
  5  7  2  0
M  END
>  <ID>  (1) 
conformer_0

$$$$
