
     RDKit          3D

 10 10  0  0  0  0  0  0  0  0999 V2000
   23.2728  -24.5394  -11.4520 O   0  0  0  0  0  0  0  0  0  0  0  0
   23.6482  -23.9908  -10.3871 C   0  0  0  0  0  0  0  0  0  0  0  0
   22.6836  -23.5679   -9.5501 N   0  0  0  0  0  0  0  0  0  0  0  0
   25.0034  -23.6467  -10.1360 O   0  0  0  0  0  0  0  0  0  0  0  0
   23.1316  -22.9475   -8.2884 C   0  0  0  0  0  0  0  0  0  0  0  0
   24.4643  -22.5445   -8.0280 C   0  0  0  0  0  0  0  0  0  0  0  0
   25.2797  -22.9644   -9.0016 C   0  0  0  0  0  0  0  0  0  0  0  0
   26.6321  -22.6023   -8.9906 O   0  0  0  0  0  0  0  0  0  0  0  0
   21.3672  -23.8900   -9.7222 C   0  0  0  0  0  0  0  0  0  0  0  0
   24.7963  -21.7883   -6.9966 O   0  0  0  0  0  0  0  0  0  0  0  0
  1  2  2  0
  2  3  1  0
  2  4  1  0
  3  5  1  0
  5  6  1  0
  4  7  1  0
  6  7  1  0
  7  8  2  0
  3  9  1  0
  6 10  2  0
M  END
>  <ID>  (1) 
conformer_0

$$$$
