
     RDKit          3D

 11 12  0  0  0  0  0  0  0  0999 V2000
   23.3957  -24.0723  -11.2219 C   0  0  0  0  0  0  0  0  0  0  0  0
   23.7532  -23.6622  -10.0090 C   0  0  0  0  0  0  0  0  0  0  0  0
   22.8504  -23.5311   -8.9644 C   0  0  0  0  0  0  0  0  0  0  0  0
   22.0028  -24.2275  -11.4211 C   0  0  0  0  0  0  0  0  0  0  0  0
   25.1427  -23.4606   -9.5773 C   0  0  0  0  0  0  0  0  0  0  0  0
   21.0137  -24.0604  -10.3807 C   0  0  0  0  0  0  0  0  0  0  0  0
   21.5294  -23.7084   -9.1809 C   0  0  0  0  0  0  0  0  0  0  0  0
   25.4955  -23.0545   -8.3281 C   0  0  0  0  0  0  0  0  0  0  0  0
   26.8081  -22.7687   -7.9656 N   0  0  0  0  0  0  0  0  0  0  0  0
   24.4109  -22.9799   -7.2499 C   0  0  0  0  0  0  0  0  0  0  0  0
   23.1870  -23.1346   -7.6244 C   0  0  0  0  0  0  0  0  0  0  0  0
  1  2  1  0
  2  3  2  0
  1  4  2  0
  2  5  1  0
  4  6  1  0
  3  7  1  0
  6  7  2  0
  5  8  2  0
  8  9  1  0
  8 10  1  0
  3 11  1  0
 10 11  2  0
M  END
>  <ID>  (1) 
conformer_0

$$$$
