
     RDKit          3D

 10 10  0  0  0  0  0  0  0  0999 V2000
   23.2728  -24.5394  -11.4520 O   0  0  0  0  0  0  0  0  0  0  0  0
   23.6482  -23.9908  -10.3871 C   0  0  0  0  0  0  0  0  0  0  0  0
   24.9769  -23.7654  -10.0766 O   0  0  0  0  0  0  0  0  0  0  0  0
   25.1981  -22.6579   -9.3249 C   0  0  0  0  0  0  0  0  0  0  0  0
   22.7461  -23.8254   -9.2258 C   0  0  0  0  0  0  0  0  0  0  0  0
   24.4543  -22.5634   -8.0652 C   0  0  0  0  0  0  0  0  0  0  0  0
   23.0591  -22.6507   -8.3506 O   0  0  0  0  0  0  0  0  0  0  0  0
   25.0585  -23.5323   -7.1456 C   0  0  0  0  0  0  0  0  0  0  0  0
   26.6109  -22.3816   -9.1076 O   0  0  0  0  0  0  0  0  0  0  0  0
   24.5106  -23.6802   -6.0704 O   0  0  0  0  0  0  0  0  0  0  0  0
  1  2  2  0
  2  3  1  0
  3  4  1  0
  2  5  1  0
  4  6  1  0
  5  7  1  0
  6  7  1  0
  6  8  1  0
  4  9  1  0
  8 10  1  0
M  END
>  <ID>  (1) 
conformer_0

$$$$
