
     RDKit          3D

 11 11  0  0  0  0  0  0  0  0999 V2000
   25.9600  -22.8542   -8.2612 C   0  0  0  0  0  0  0  0  0  0  0  0
   25.1746  -23.1938   -9.1430 N   0  0  0  0  0  0  0  0  0  0  0  0
   24.6377  -22.3050   -9.9715 C   0  0  0  0  0  0  0  0  0  0  0  0
   26.3896  -23.6030   -7.2098 N   0  0  0  0  0  0  0  0  0  0  0  0
   23.7331  -22.8581  -10.9826 C   0  0  0  0  0  0  0  0  0  0  0  0
   25.0099  -21.0140  -10.0340 C   0  0  0  0  0  0  0  0  0  0  0  0
   26.4021  -21.4210   -8.0578 C   0  0  0  0  0  0  0  0  0  0  0  0
   27.2663  -21.0512   -7.0263 C   0  0  0  0  0  0  0  0  0  0  0  0
   25.8839  -20.5313   -9.0154 C   0  0  0  0  0  0  0  0  0  0  0  0
   23.6380  -24.1674  -11.3078 O   0  0  0  0  0  0  0  0  0  0  0  0
   22.8805  -22.1105  -11.6860 O   0  0  0  0  0  0  0  0  0  0  0  0
  1  2  1  0
  2  3  2  0
  1  4  1  0
  3  5  1  0
  3  6  1  0
  1  7  2  0
  7  8  1  0
  6  9  2  0
  7  9  1  0
  5 10  1  0
  5 11  2  0
M  END
>  <ID>  (1) 
conformer_0

$$$$
