
     RDKit          3D

  8  8  0  0  0  0  0  0  0  0999 V2000
   24.2107  -23.8464  -10.3007 O   0  0  0  0  0  0  0  0  0  0  0  0
   24.7942  -23.3515   -9.4751 C   0  0  0  0  0  0  0  0  0  0  0  0
   24.0745  -22.6688   -8.5843 N   0  0  0  0  0  0  0  0  0  0  0  0
   24.6438  -22.0993   -7.3638 C   0  0  0  0  0  0  0  0  0  0  0  0
   26.1721  -23.3014   -9.1707 N   0  0  0  0  0  0  0  0  0  0  0  0
   22.5799  -22.6028   -8.6202 C   0  0  0  0  0  0  0  0  0  0  0  0
   26.0109  -22.0054   -7.2295 C   0  0  0  0  0  0  0  0  0  0  0  0
   26.7845  -22.6609   -8.1794 C   0  0  0  0  0  0  0  0  0  0  0  0
  1  2  2  0
  2  3  1  0
  3  4  1  0
  2  5  1  0
  3  6  1  0
  4  7  2  0
  5  8  2  0
  7  8  1  0
M  END
>  <ID>  (1) 
conformer_0

$$$$
