
     RDKit          3D

 11 11  0  0  0  0  0  0  0  0999 V2000
   25.8074  -23.4652   -7.5855 C   0  0  0  0  0  0  0  0  0  0  0  0
   25.1710  -23.3801   -8.7345 N   0  0  0  0  0  0  0  0  0  0  0  0
   25.3382  -22.1291   -9.3201 C   0  0  0  0  0  0  0  0  0  0  0  0
   26.0473  -21.1349   -8.8179 C   0  0  0  0  0  0  0  0  0  0  0  0
   26.5788  -22.5716   -6.9258 C   0  0  0  0  0  0  0  0  0  0  0  0
   27.1550  -22.7392   -5.7192 N   0  0  0  0  0  0  0  0  0  0  0  0
   24.5682  -22.0578  -10.6002 C   0  0  0  0  0  0  0  0  0  0  0  0
   26.7054  -21.2718   -7.5633 C   0  0  0  0  0  0  0  0  0  0  0  0
   23.8606  -23.1137  -11.0409 C   0  0  0  0  0  0  0  0  0  0  0  0
   23.3388  -24.0464  -10.3728 O   0  0  0  0  0  0  0  0  0  0  0  0
   23.4807  -23.0786  -12.2805 O   0  0  0  0  0  0  0  0  0  0  0  0
  1  2  1  0
  2  3  2  0
  3  4  1  0
  1  5  2  0
  5  6  1  0
  3  7  1  0
  4  8  2  0
  5  8  1  0
  7  9  1  0
  9 10  2  0
  9 11  1  0
M  END
>  <ID>  (1) 
conformer_0

$$$$
