
     RDKit          3D

  8  8  0  0  0  0  0  0  0  0999 V2000
   25.8074  -23.4652   -7.5855 C   0  0  0  0  0  0  0  0  0  0  0  0
   25.1710  -23.3801   -8.7345 N   0  0  0  0  0  0  0  0  0  0  0  0
   25.3382  -22.1291   -9.3201 C   0  0  0  0  0  0  0  0  0  0  0  0
   24.7411  -22.0049  -10.6023 N   0  0  0  0  0  0  0  0  0  0  0  0
   26.0358  -21.0610   -8.7868 C   0  0  0  0  0  0  0  0  0  0  0  0
   26.4947  -21.3972   -7.6617 C   0  0  0  0  0  0  0  0  0  0  0  0
   26.4312  -22.6302   -6.9054 N   0  0  0  0  0  0  0  0  0  0  0  0
   26.0300  -19.9483   -9.5173 N   0  0  0  0  0  0  0  0  0  0  0  0
  1  2  1  0
  2  3  2  0
  3  4  1  0
  3  5  1  0
  5  6  2  0
  1  7  2  0
  6  7  1  0
  5  8  1  0
M  END
>  <ID>  (1) 
conformer_0

$$$$
