
     RDKit          3D

 10 11  0  0  0  0  0  0  0  0999 V2000
   25.8074  -23.4652   -7.5855 C   0  0  0  0  0  0  0  0  0  0  0  0
   25.1710  -23.3801   -8.7345 C   0  0  0  0  0  0  0  0  0  0  0  0
   24.8801  -24.0448   -9.6256 N   0  0  0  0  0  0  0  0  0  0  0  0
   26.2160  -22.5793   -6.8848 C   0  0  0  0  0  0  0  0  0  0  0  0
   25.1548  -21.8811   -9.1999 C   0  0  0  0  0  0  0  0  0  0  0  0
   25.6638  -20.9664   -8.3061 C   0  0  0  0  0  0  0  0  0  0  0  0
   26.2375  -21.2193   -7.1239 C   0  0  0  0  0  0  0  0  0  0  0  0
   24.5159  -21.9538  -10.4287 N   0  0  0  0  0  0  0  0  0  0  0  0
   24.3129  -23.2642  -10.6512 C   0  0  0  0  0  0  0  0  0  0  0  0
   23.5656  -23.7490  -11.8317 N   0  0  0  0  0  0  0  0  0  0  0  0
  1  2  1  0
  2  3  1  0
  1  4  2  0
  2  5  2  0
  5  6  1  0
  4  7  1  0
  6  7  2  0
  5  8  1  0
  3  9  2  0
  8  9  1  0
  9 10  1  0
M  END
>  <ID>  (1) 
conformer_0

$$$$
