
     RDKit          3D

  9  8  0  0  0  0  0  0  0  0999 V2000
   23.5756  -24.0981  -10.8002 C   0  0  0  0  0  0  0  0  0  0  0  0
   24.4542  -23.9531   -9.8244 N   0  0  0  0  0  0  0  0  0  0  0  0
   24.8162  -22.7227   -9.3896 C   0  0  0  0  0  0  0  0  0  0  0  0
   23.5792  -23.5288  -11.7596 O   0  0  0  0  0  0  0  0  0  0  0  0
   24.1582  -21.9036   -8.9255 O   0  0  0  0  0  0  0  0  0  0  0  0
   26.3408  -22.6495   -8.8417 C   0  0  0  0  0  0  0  0  0  0  0  0
   26.5373  -22.2419   -7.4768 C   0  0  0  0  0  0  0  0  0  0  0  0
   27.0049  -20.9272   -7.4616 C   0  0  0  0  0  0  0  0  0  0  0  0
   22.7517  -25.2481  -10.5994 N   0  0  0  0  0  0  0  0  0  0  0  0
  1  2  1  0
  2  3  1  0
  1  4  2  0
  3  5  2  0
  3  6  1  0
  6  7  1  0
  7  8  1  0
  1  9  1  0
M  END
>  <ID>  (1) 
conformer_0

$$$$
