
     RDKit          3D

 10 11  0  0  0  0  0  0  0  0999 V2000
   23.5756  -24.0981  -10.8002 C   0  0  0  0  0  0  0  0  0  0  0  0
   24.4542  -23.9531   -9.8244 N   0  0  0  0  0  0  0  0  0  0  0  0
   23.2409  -22.9905  -11.2902 N   0  0  0  0  0  0  0  0  0  0  0  0
   23.7188  -21.8060  -10.9712 C   0  0  0  0  0  0  0  0  0  0  0  0
   24.7522  -22.4557   -9.7029 C   0  0  0  0  0  0  0  0  0  0  0  0
   25.5908  -21.7310   -8.9204 C   0  0  0  0  0  0  0  0  0  0  0  0
   25.6723  -20.4202   -9.1943 N   0  0  0  0  0  0  0  0  0  0  0  0
   23.9633  -20.5217  -11.0238 C   0  0  0  0  0  0  0  0  0  0  0  0
   24.8711  -19.8327  -10.1098 C   0  0  0  0  0  0  0  0  0  0  0  0
   26.4418  -22.3317   -7.9095 C   0  0  0  0  0  0  0  0  0  0  0  0
  1  2  1  0
  1  3  2  0
  3  4  1  0
  2  5  1  0
  4  5  2  0
  5  6  1  0
  6  7  2  0
  4  8  1  0
  7  9  1  0
  8  9  2  0
  6 10  1  0
M  END
>  <ID>  (1) 
conformer_0

$$$$
