
     RDKit          3D

  9  9  0  0  0  0  0  0  0  0999 V2000
   23.4575  -24.5364  -11.3288 O   0  0  0  0  0  0  0  0  0  0  0  0
   23.5595  -23.5923  -10.5282 C   0  0  0  0  0  0  0  0  0  0  0  0
   24.6068  -23.5460   -9.6031 N   0  0  0  0  0  0  0  0  0  0  0  0
   22.5452  -22.5673  -10.4296 C   0  0  0  0  0  0  0  0  0  0  0  0
   24.8646  -22.6426   -8.7956 C   0  0  0  0  0  0  0  0  0  0  0  0
   21.4351  -22.5489  -11.2239 C   0  0  0  0  0  0  0  0  0  0  0  0
   22.9333  -21.6733   -9.5469 C   0  0  0  0  0  0  0  0  0  0  0  0
   23.9859  -21.5812   -8.6143 N   0  0  0  0  0  0  0  0  0  0  0  0
   25.9655  -22.6473   -7.9688 N   0  0  0  0  0  0  0  0  0  0  0  0
  1  2  2  0
  2  3  1  0
  2  4  1  0
  3  5  2  0
  4  6  1  0
  4  7  2  0
  5  8  1  0
  7  8  1  0
  5  9  1  0
M  END
>  <ID>  (1) 
conformer_0

$$$$
