
     RDKit          3D

 10 11  0  0  0  0  0  0  0  0999 V2000
   25.8074  -23.4652   -7.5855 C   0  0  0  0  0  0  0  0  0  0  0  0
   25.1710  -23.3801   -8.7345 C   0  0  0  0  0  0  0  0  0  0  0  0
   24.8801  -24.0448   -9.6256 N   0  0  0  0  0  0  0  0  0  0  0  0
   26.2034  -22.4749   -6.7009 C   0  0  0  0  0  0  0  0  0  0  0  0
   25.0480  -21.8393   -9.0936 C   0  0  0  0  0  0  0  0  0  0  0  0
   25.4949  -20.9609   -8.0700 C   0  0  0  0  0  0  0  0  0  0  0  0
   25.3098  -19.4402   -8.5088 N   0  0  0  0  0  0  0  0  0  0  0  0
   26.0909  -21.1727   -6.9466 C   0  0  0  0  0  0  0  0  0  0  0  0
   24.4161  -21.8655  -10.3309 C   0  0  0  0  0  0  0  0  0  0  0  0
   24.2276  -23.3250  -10.6423 C   0  0  0  0  0  0  0  0  0  0  0  0
  1  2  1  0
  2  3  1  0
  1  4  2  0
  2  5  2  0
  5  6  1  0
  6  7  1  0
  4  8  1  0
  6  8  2  0
  5  9  1  0
  3 10  2  0
  9 10  2  0
M  END
>  <ID>  (1) 
conformer_0

$$$$
