
     RDKit          3D

 10 10  0  0  0  0  0  0  0  0999 V2000
   25.8074  -23.4652   -7.5855 C   0  0  0  0  0  0  0  0  0  0  0  0
   26.3316  -22.4503   -7.3584 C   0  0  0  0  0  0  0  0  0  0  0  0
   25.0398  -23.7454   -8.7681 C   0  0  0  0  0  0  0  0  0  0  0  0
   26.3411  -21.3979   -8.2898 C   0  0  0  0  0  0  0  0  0  0  0  0
   26.9964  -20.1998   -8.0454 O   0  0  0  0  0  0  0  0  0  0  0  0
   24.9920  -22.6164   -9.6522 C   0  0  0  0  0  0  0  0  0  0  0  0
   25.6378  -21.4202   -9.4266 C   0  0  0  0  0  0  0  0  0  0  0  0
   24.1590  -22.8436  -10.7191 N   0  0  0  0  0  0  0  0  0  0  0  0
   23.4353  -23.9708  -10.9586 C   0  0  0  0  0  0  0  0  0  0  0  0
   23.6321  -21.6828  -11.3914 C   0  0  0  0  0  0  0  0  0  0  0  0
  1  2  1  0
  1  3  2  0
  2  4  2  0
  4  5  1  0
  3  6  1  0
  4  7  1  0
  6  7  2  0
  6  8  1  0
  8  9  1  0
  8 10  1  0
M  END
>  <ID>  (1) 
conformer_0

$$$$
