
     RDKit          3D

 10 10  0  0  0  0  0  0  0  0999 V2000
   23.2728  -24.5394  -11.4520 O   0  0  0  0  0  0  0  0  0  0  0  0
   23.6482  -23.9908  -10.3871 C   0  0  0  0  0  0  0  0  0  0  0  0
   24.8904  -23.8260   -9.9696 N   0  0  0  0  0  0  0  0  0  0  0  0
   25.2459  -23.1448   -8.8019 C   0  0  0  0  0  0  0  0  0  0  0  0
   26.5137  -22.9846   -8.3698 O   0  0  0  0  0  0  0  0  0  0  0  0
   22.5296  -23.6215   -9.4074 C   0  0  0  0  0  0  0  0  0  0  0  0
   24.2557  -22.8701   -7.7862 C   0  0  0  0  0  0  0  0  0  0  0  0
   22.8814  -23.0499   -8.1472 C   0  0  0  0  0  0  0  0  0  0  0  0
   26.7424  -21.6546   -7.8119 C   0  0  0  0  0  0  0  0  0  0  0  0
   21.2080  -23.8202   -9.7759 N   0  0  0  0  0  0  0  0  0  0  0  0
  1  2  2  0
  2  3  1  0
  3  4  1  0
  4  5  1  0
  2  6  1  0
  4  7  2  0
  6  8  2  0
  7  8  1  0
  5  9  1  0
  6 10  1  0
M  END
>  <ID>  (1) 
conformer_0

$$$$
