
     RDKit          3D

  8  8  0  0  0  0  0  0  0  0999 V2000
   24.2107  -23.8464  -10.3007 O   0  0  0  0  0  0  0  0  0  0  0  0
   24.7942  -23.3515   -9.4751 C   0  0  0  0  0  0  0  0  0  0  0  0
   24.0745  -22.6688   -8.5843 N   0  0  0  0  0  0  0  0  0  0  0  0
   22.5905  -22.6415   -8.5745 C   0  0  0  0  0  0  0  0  0  0  0  0
   26.1557  -23.3332   -9.0462 N   0  0  0  0  0  0  0  0  0  0  0  0
   22.2064  -21.3487   -8.5296 C   0  0  0  0  0  0  0  0  0  0  0  0
   26.2828  -22.5515   -7.9097 C   0  0  0  0  0  0  0  0  0  0  0  0
   24.9573  -22.0333   -7.4320 C   0  0  0  0  0  0  0  0  0  0  0  0
  1  2  2  0
  2  3  1  0
  3  4  1  0
  2  5  1  0
  4  6  1  0
  5  7  2  0
  3  8  1  0
  7  8  1  0
M  END
>  <ID>  (1) 
conformer_0

$$$$
