
     RDKit          3D

 10 11  0  0  0  0  0  0  0  0999 V2000
   23.4575  -24.5364  -11.3288 O   0  0  0  0  0  0  0  0  0  0  0  0
   23.5595  -23.5923  -10.5282 C   0  0  0  0  0  0  0  0  0  0  0  0
   22.6553  -22.6269  -10.4879 N   0  0  0  0  0  0  0  0  0  0  0  0
   23.0192  -21.7260   -9.4598 C   0  0  0  0  0  0  0  0  0  0  0  0
   24.1791  -22.1090   -8.8519 C   0  0  0  0  0  0  0  0  0  0  0  0
   24.5443  -23.3564   -9.4863 C   0  0  0  0  0  0  0  0  0  0  0  0
   25.6768  -23.9868   -9.1062 N   0  0  0  0  0  0  0  0  0  0  0  0
   21.4131  -22.5050  -11.3126 C   0  0  0  0  0  0  0  0  0  0  0  0
   26.1897  -23.1920   -7.9892 C   0  0  0  0  0  0  0  0  0  0  0  0
   25.0267  -21.6990   -7.6911 C   0  0  0  0  0  0  0  0  0  0  0  0
  1  2  2  0
  2  3  1  0
  3  4  1  0
  4  5  2  0
  2  6  1  0
  5  6  1  0
  6  7  1  0
  3  8  1  0
  7  9  2  0
  5 10  1  0
  9 10  1  0
M  END
>  <ID>  (1) 
conformer_0

$$$$
