
     RDKit          3D

  8  8  0  0  0  0  0  0  0  0999 V2000
   22.7764  -24.7887  -12.2470 C   0  0  0  0  0  0  0  0  0  0  0  0
   23.1122  -23.9699  -11.2771 C   0  0  0  0  0  0  0  0  0  0  0  0
   22.5791  -22.9014  -10.7232 N   0  0  0  0  0  0  0  0  0  0  0  0
   24.4884  -24.0090  -10.8651 N   0  0  0  0  0  0  0  0  0  0  0  0
   23.3398  -22.4806   -9.6654 C   0  0  0  0  0  0  0  0  0  0  0  0
   23.1201  -21.4354   -8.6279 C   0  0  0  0  0  0  0  0  0  0  0  0
   24.5985  -23.1388   -9.7235 C   0  0  0  0  0  0  0  0  0  0  0  0
   25.6452  -22.9351   -8.9206 O   0  0  0  0  0  0  0  0  0  0  0  0
  1  2  1  0
  2  3  2  0
  2  4  1  0
  3  5  1  0
  5  6  1  0
  4  7  1  0
  5  7  1  0
  7  8  2  0
M  END
>  <ID>  (1) 
conformer_0

$$$$
