
     RDKit          3D

 11 11  0  0  0  0  0  0  0  0999 V2000
   24.1556  -24.0551  -10.6238 O   0  0  0  0  0  0  0  0  0  0  0  0
   24.0937  -23.3251   -9.7226 C   0  0  0  0  0  0  0  0  0  0  0  0
   23.0421  -22.5595   -9.5101 O   0  0  0  0  0  0  0  0  0  0  0  0
   25.3475  -22.8964   -9.0049 C   0  0  0  0  0  0  0  0  0  0  0  0
   25.7540  -21.5678   -9.0961 C   0  0  0  0  0  0  0  0  0  0  0  0
   25.2675  -20.6273  -10.0441 C   0  0  0  0  0  0  0  0  0  0  0  0
   26.8402  -21.3275   -8.3175 C   0  0  0  0  0  0  0  0  0  0  0  0
   27.3335  -20.0502   -8.1745 C   0  0  0  0  0  0  0  0  0  0  0  0
   25.9636  -23.7310   -8.1020 C   0  0  0  0  0  0  0  0  0  0  0  0
   27.1198  -22.2661   -7.5822 C   0  0  0  0  0  0  0  0  0  0  0  0
   26.6730  -23.3694   -7.2715 N   0  0  0  0  0  0  0  0  0  0  0  0
  1  2  2  0
  2  3  1  0
  2  4  1  0
  4  5  2  0
  5  6  1  0
  5  7  1  0
  7  8  1  0
  4  9  1  0
  7 10  2  0
  9 11  2  0
 10 11  1  0
M  END
>  <ID>  (1) 
conformer_0

$$$$
