
     RDKit          3D

 10 10  0  0  0  0  0  0  0  0999 V2000
   25.9600  -22.8542   -8.2612 C   0  0  0  0  0  0  0  0  0  0  0  0
   25.1746  -23.1938   -9.1430 N   0  0  0  0  0  0  0  0  0  0  0  0
   26.6524  -21.6483   -8.4126 N   0  0  0  0  0  0  0  0  0  0  0  0
   25.9666  -23.4189   -6.9412 N   0  0  0  0  0  0  0  0  0  0  0  0
   24.8973  -22.5077  -10.2269 C   0  0  0  0  0  0  0  0  0  0  0  0
   26.2046  -20.9862   -9.5700 C   0  0  0  0  0  0  0  0  0  0  0  0
   25.4959  -21.3494  -10.4413 C   0  0  0  0  0  0  0  0  0  0  0  0
   23.9481  -23.0948  -11.2124 N   0  0  0  0  0  0  0  0  0  0  0  0
   23.3373  -24.3531  -11.1236 C   0  0  0  0  0  0  0  0  0  0  0  0
   24.0956  -22.5949  -12.5397 C   0  0  0  0  0  0  0  0  0  0  0  0
  1  2  1  0
  1  3  2  0
  1  4  1  0
  2  5  2  0
  3  6  1  0
  5  7  1  0
  6  7  2  0
  5  8  1  0
  8  9  1  0
  8 10  1  0
M  END
>  <ID>  (1) 
conformer_0

$$$$
