
     RDKit          3D

  9  9  0  0  0  0  0  0  0  0999 V2000
   23.2728  -24.5394  -11.4520 O   0  0  0  0  0  0  0  0  0  0  0  0
   23.6482  -23.9908  -10.3871 C   0  0  0  0  0  0  0  0  0  0  0  0
   22.6836  -23.5679   -9.5501 N   0  0  0  0  0  0  0  0  0  0  0  0
   23.3053  -22.9716   -8.3328 C   0  0  0  0  0  0  0  0  0  0  0  0
   24.9347  -23.4024  -10.3262 N   0  0  0  0  0  0  0  0  0  0  0  0
   25.3956  -22.7853   -9.2489 C   0  0  0  0  0  0  0  0  0  0  0  0
   26.6509  -22.3437   -9.1059 N   0  0  0  0  0  0  0  0  0  0  0  0
   22.3307  -22.6878   -7.2172 O   0  0  0  0  0  0  0  0  0  0  0  0
   24.6299  -22.6045   -8.2368 N   0  0  0  0  0  0  0  0  0  0  0  0
  1  2  2  0
  2  3  1  0
  3  4  1  0
  2  5  1  0
  5  6  2  0
  6  7  1  0
  4  8  2  0
  4  9  1  0
  6  9  1  0
M  END
>  <ID>  (1) 
conformer_0

$$$$
