
     RDKit          3D

  8  8  0  0  0  0  0  0  0  0999 V2000
   22.7764  -24.7887  -12.2470 C   0  0  0  0  0  0  0  0  0  0  0  0
   23.1122  -23.9699  -11.2771 N   0  0  0  0  0  0  0  0  0  0  0  0
   22.6070  -22.7977  -11.0348 C   0  0  0  0  0  0  0  0  0  0  0  0
   22.0778  -24.2279  -13.2087 O   0  0  0  0  0  0  0  0  0  0  0  0
   23.2186  -22.0315  -10.0012 C   0  0  0  0  0  0  0  0  0  0  0  0
   22.7605  -23.9355  -14.2143 C   0  0  0  0  0  0  0  0  0  0  0  0
   24.1712  -24.1865  -10.3064 C   0  0  0  0  0  0  0  0  0  0  0  0
   24.2499  -23.0574   -9.4902 N   0  0  0  0  0  0  0  0  0  0  0  0
  1  2  1  0
  2  3  1  0
  1  4  1  0
  3  5  2  0
  4  6  1  0
  2  7  1  0
  5  8  1  0
  7  8  2  0
M  END
>  <ID>  (1) 
conformer_0

$$$$
