
     RDKit          3D

 10 11  0  0  0  0  0  0  0  0999 V2000
   25.8074  -23.4652   -7.5855 C   0  0  0  0  0  0  0  0  0  0  0  0
   25.1710  -23.3801   -8.7345 N   0  0  0  0  0  0  0  0  0  0  0  0
   24.2361  -24.0014   -9.3229 C   0  0  0  0  0  0  0  0  0  0  0  0
   25.7974  -22.2350   -9.4762 C   0  0  0  0  0  0  0  0  0  0  0  0
   26.8068  -22.5296   -7.1525 C   0  0  0  0  0  0  0  0  0  0  0  0
   23.9370  -23.7864  -10.6258 C   0  0  0  0  0  0  0  0  0  0  0  0
   25.1480  -21.9824  -10.6794 N   0  0  0  0  0  0  0  0  0  0  0  0
   26.6242  -21.3666   -8.9836 N   0  0  0  0  0  0  0  0  0  0  0  0
   27.1603  -21.6674   -7.8435 C   0  0  0  0  0  0  0  0  0  0  0  0
   24.2177  -22.6780  -11.2232 C   0  0  0  0  0  0  0  0  0  0  0  0
  1  2  1  0
  2  3  1  0
  2  4  1  0
  1  5  1  0
  3  6  1  0
  4  7  2  0
  4  8  1  0
  5  9  1  0
  8  9  2  0
  6 10  2  0
  7 10  1  0
M  END
>  <ID>  (1) 
conformer_0

$$$$
