
     RDKit          3D

  9  9  0  0  0  0  0  0  0  0999 V2000
   25.9600  -22.8542   -8.2612 C   0  0  0  0  0  0  0  0  0  0  0  0
   25.1746  -23.1938   -9.1430 N   0  0  0  0  0  0  0  0  0  0  0  0
   25.7149  -22.9813   -7.1008 O   0  0  0  0  0  0  0  0  0  0  0  0
   25.1760  -22.5493  -10.3813 N   0  0  0  0  0  0  0  0  0  0  0  0
   23.8522  -23.7620   -8.9559 C   0  0  0  0  0  0  0  0  0  0  0  0
   26.7559  -21.6348   -8.4781 C   0  0  0  0  0  0  0  0  0  0  0  0
   27.2693  -20.9186   -7.3553 C   0  0  0  0  0  0  0  0  0  0  0  0
   26.0128  -21.3962  -10.1029 C   0  0  0  0  0  0  0  0  0  0  0  0
   26.4129  -20.4506  -10.9254 C   0  0  0  0  0  0  0  0  0  0  0  0
  1  2  1  0
  1  3  2  0
  2  4  1  0
  2  5  1  0
  1  6  1  0
  6  7  1  0
  4  8  2  0
  6  8  1  0
  8  9  1  0
M  END
>  <ID>  (1) 
conformer_0

$$$$
