
     RDKit          3D

 10 11  0  0  0  0  0  0  0  0999 V2000
   25.8074  -23.4652   -7.5855 C   0  0  0  0  0  0  0  0  0  0  0  0
   25.1710  -23.3801   -8.7345 C   0  0  0  0  0  0  0  0  0  0  0  0
   24.8801  -24.0448   -9.6256 N   0  0  0  0  0  0  0  0  0  0  0  0
   26.2034  -22.4749   -6.7009 C   0  0  0  0  0  0  0  0  0  0  0  0
   25.8925  -21.1639   -7.2735 C   0  0  0  0  0  0  0  0  0  0  0  0
   25.4209  -20.8897   -8.4393 C   0  0  0  0  0  0  0  0  0  0  0  0
   24.1096  -23.3469  -10.5800 C   0  0  0  0  0  0  0  0  0  0  0  0
   23.2892  -24.0198  -11.5058 C   0  0  0  0  0  0  0  0  0  0  0  0
   25.0619  -21.9265   -9.1883 C   0  0  0  0  0  0  0  0  0  0  0  0
   24.5355  -21.8837  -10.4047 N   0  0  0  0  0  0  0  0  0  0  0  0
  1  2  1  0
  2  3  1  0
  1  4  2  0
  4  5  1  0
  5  6  2  0
  3  7  1  0
  7  8  1  0
  2  9  2  0
  6  9  1  0
  7 10  2  0
  9 10  1  0
M  END
>  <ID>  (1) 
conformer_0

$$$$
