
     RDKit          3D

 10 11  0  0  0  0  0  0  0  0999 V2000
   23.3957  -24.0723  -11.2219 C   0  0  0  0  0  0  0  0  0  0  0  0
   23.7532  -23.6622  -10.0090 C   0  0  0  0  0  0  0  0  0  0  0  0
   22.8504  -23.5311   -8.9644 C   0  0  0  0  0  0  0  0  0  0  0  0
   22.0028  -24.2275  -11.4211 C   0  0  0  0  0  0  0  0  0  0  0  0
   25.1427  -23.4606   -9.5773 C   0  0  0  0  0  0  0  0  0  0  0  0
   21.0137  -24.0604  -10.3807 C   0  0  0  0  0  0  0  0  0  0  0  0
   21.4883  -23.6607   -9.1573 C   0  0  0  0  0  0  0  0  0  0  0  0
   25.4343  -22.8195   -8.5720 C   0  0  0  0  0  0  0  0  0  0  0  0
   24.5235  -22.6806   -7.4730 C   0  0  0  0  0  0  0  0  0  0  0  0
   23.2043  -22.9864   -7.6739 C   0  0  0  0  0  0  0  0  0  0  0  0
  1  2  1  0
  2  3  2  0
  1  4  2  0
  2  5  1  0
  4  6  1  0
  3  7  1  0
  6  7  2  0
  5  8  2  0
  8  9  1  0
  3 10  1  0
  9 10  2  0
M  END
>  <ID>  (1) 
conformer_0

$$$$
