
     RDKit          3D

  9  9  0  0  0  0  0  0  0  0999 V2000
   23.4575  -24.5364  -11.3288 O   0  0  0  0  0  0  0  0  0  0  0  0
   23.7861  -23.8897  -10.2885 C   0  0  0  0  0  0  0  0  0  0  0  0
   22.7396  -23.4392   -9.6036 N   0  0  0  0  0  0  0  0  0  0  0  0
   25.0298  -23.2812  -10.0918 N   0  0  0  0  0  0  0  0  0  0  0  0
   21.3574  -23.9595   -9.7621 C   0  0  0  0  0  0  0  0  0  0  0  0
   25.2946  -22.5344   -8.9764 C   0  0  0  0  0  0  0  0  0  0  0  0
   26.5588  -22.0902   -8.6573 O   0  0  0  0  0  0  0  0  0  0  0  0
   24.2046  -22.1927   -8.0884 C   0  0  0  0  0  0  0  0  0  0  0  0
   22.9243  -22.6239   -8.2854 C   0  0  0  0  0  0  0  0  0  0  0  0
  1  2  2  0
  2  3  1  0
  2  4  1  0
  3  5  1  0
  4  6  1  0
  6  7  2  0
  6  8  1  0
  3  9  1  0
  8  9  2  0
M  END
>  <ID>  (1) 
conformer_0

$$$$
