
     RDKit          3D

 11 12  0  0  0  0  0  0  0  0999 V2000
   23.5756  -24.0981  -10.8002 C   0  0  0  0  0  0  0  0  0  0  0  0
   24.4542  -23.9531   -9.8244 N   0  0  0  0  0  0  0  0  0  0  0  0
   23.2409  -22.9905  -11.2902 N   0  0  0  0  0  0  0  0  0  0  0  0
   24.7797  -22.6484   -9.7325 C   0  0  0  0  0  0  0  0  0  0  0  0
   24.0330  -21.9954  -10.6678 C   0  0  0  0  0  0  0  0  0  0  0  0
   25.7711  -22.0132   -8.7995 C   0  0  0  0  0  0  0  0  0  0  0  0
   26.4232  -22.7050   -7.8162 C   0  0  0  0  0  0  0  0  0  0  0  0
   24.2084  -20.7644  -11.0041 C   0  0  0  0  0  0  0  0  0  0  0  0
   25.8993  -20.6776   -9.0615 C   0  0  0  0  0  0  0  0  0  0  0  0
   23.5581  -19.9327  -11.8791 O   0  0  0  0  0  0  0  0  0  0  0  0
   25.1703  -20.0019  -10.0360 C   0  0  0  0  0  0  0  0  0  0  0  0
  1  2  1  0
  1  3  2  0
  2  4  1  0
  3  5  1  0
  4  5  2  0
  4  6  1  0
  6  7  1  0
  5  8  1  0
  6  9  2  0
  8 10  1  0
  8 11  2  0
  9 11  1  0
M  END
>  <ID>  (1) 
conformer_0

$$$$
