
     RDKit          3D

 11 11  0  0  0  0  0  0  0  0999 V2000
   25.9600  -22.8542   -8.2612 C   0  0  0  0  0  0  0  0  0  0  0  0
   25.1746  -23.1938   -9.1430 N   0  0  0  0  0  0  0  0  0  0  0  0
   24.6377  -22.3050   -9.9715 C   0  0  0  0  0  0  0  0  0  0  0  0
   26.3896  -23.6030   -7.2098 N   0  0  0  0  0  0  0  0  0  0  0  0
   23.7331  -22.8581  -10.9826 C   0  0  0  0  0  0  0  0  0  0  0  0
   26.2438  -21.3607   -7.9689 C   0  0  0  0  0  0  0  0  0  0  0  0
   27.1348  -20.9689   -6.9899 C   0  0  0  0  0  0  0  0  0  0  0  0
   23.2720  -22.1730  -11.8358 O   0  0  0  0  0  0  0  0  0  0  0  0
   25.6917  -20.5349   -8.9244 C   0  0  0  0  0  0  0  0  0  0  0  0
   24.9998  -20.9744   -9.8561 C   0  0  0  0  0  0  0  0  0  0  0  0
   23.4888  -24.1660  -10.9340 N   0  0  0  0  0  0  0  0  0  0  0  0
  1  2  1  0
  2  3  2  0
  1  4  1  0
  3  5  1  0
  1  6  2  0
  6  7  1  0
  5  8  2  0
  6  9  1  0
  3 10  1  0
  9 10  2  0
  5 11  1  0
M  END
>  <ID>  (1) 
conformer_0

$$$$
