
     RDKit          3D

  9  9  0  0  0  0  0  0  0  0999 V2000
   24.1556  -24.0551  -10.6238 O   0  0  0  0  0  0  0  0  0  0  0  0
   24.5752  -23.4722   -9.6887 C   0  0  0  0  0  0  0  0  0  0  0  0
   23.7119  -22.9129   -8.8796 N   0  0  0  0  0  0  0  0  0  0  0  0
   22.2351  -23.0501   -9.0328 C   0  0  0  0  0  0  0  0  0  0  0  0
   25.9106  -23.2466   -9.3206 N   0  0  0  0  0  0  0  0  0  0  0  0
   24.3403  -22.1749   -7.7092 C   0  0  0  0  0  0  0  0  0  0  0  0
   25.7917  -22.4016   -8.0974 C   0  0  0  0  0  0  0  0  0  0  0  0
   26.9285  -21.8080   -7.5179 C   0  0  0  0  0  0  0  0  0  0  0  0
   24.2377  -20.8537   -7.7393 O   0  0  0  0  0  0  0  0  0  0  0  0
  1  2  2  0
  2  3  1  0
  3  4  1  0
  2  5  1  0
  3  6  1  0
  5  7  2  0
  6  7  1  0
  7  8  1  0
  6  9  1  0
M  END
>  <ID>  (1) 
conformer_0

$$$$
