
     RDKit          3D

  9  9  0  0  0  0  0  0  0  0999 V2000
   23.5756  -24.0981  -10.8002 C   0  0  0  0  0  0  0  0  0  0  0  0
   24.4542  -23.9531   -9.8244 N   0  0  0  0  0  0  0  0  0  0  0  0
   22.9344  -25.2471  -11.0221 O   0  0  0  0  0  0  0  0  0  0  0  0
   23.2511  -22.9489  -11.6076 C   0  0  0  0  0  0  0  0  0  0  0  0
   23.8612  -21.7653  -11.2894 C   0  0  0  0  0  0  0  0  0  0  0  0
   23.6222  -20.6151  -12.0432 N   0  0  0  0  0  0  0  0  0  0  0  0
   24.8761  -22.7570   -9.3876 C   0  0  0  0  0  0  0  0  0  0  0  0
   24.7344  -21.6588  -10.1353 C   0  0  0  0  0  0  0  0  0  0  0  0
   25.7600  -22.8208   -8.2128 C   0  0  0  0  0  0  0  0  0  0  0  0
  1  2  1  0
  1  3  2  0
  1  4  1  0
  4  5  2  0
  5  6  1  0
  2  7  1  0
  5  8  1  0
  7  8  2  0
  7  9  1  0
M  END
>  <ID>  (1) 
conformer_0

$$$$
