
     RDKit          3D

 11 12  0  0  0  0  0  0  0  0999 V2000
   23.4575  -24.5364  -11.3288 O   0  0  0  0  0  0  0  0  0  0  0  0
   23.7861  -23.8897  -10.2885 C   0  0  0  0  0  0  0  0  0  0  0  0
   24.9846  -23.6298   -9.8660 N   0  0  0  0  0  0  0  0  0  0  0  0
   22.6318  -23.5568   -9.3556 C   0  0  0  0  0  0  0  0  0  0  0  0
   25.1700  -22.9099   -8.7116 C   0  0  0  0  0  0  0  0  0  0  0  0
   21.3133  -23.8458   -9.6676 N   0  0  0  0  0  0  0  0  0  0  0  0
   23.9562  -22.5374   -7.9423 N   0  0  0  0  0  0  0  0  0  0  0  0
   22.8398  -22.8892   -8.1888 C   0  0  0  0  0  0  0  0  0  0  0  0
   24.4669  -21.8038   -6.8063 C   0  0  0  0  0  0  0  0  0  0  0  0
   26.4173  -22.4019   -8.1736 C   0  0  0  0  0  0  0  0  0  0  0  0
   25.9168  -21.6390   -6.9103 C   0  0  0  0  0  0  0  0  0  0  0  0
  1  2  2  0
  2  3  1  0
  2  4  1  0
  3  5  2  0
  4  6  1  0
  5  7  1  0
  4  8  2  0
  7  8  1  0
  7  9  1  0
  5 10  1  0
  9 11  1  0
 10 11  1  0
M  END
>  <ID>  (1) 
conformer_0

$$$$
