
     RDKit          3D

 10 10  0  0  0  0  0  0  0  0999 V2000
   24.1556  -24.0551  -10.6238 O   0  0  0  0  0  0  0  0  0  0  0  0
   24.5752  -23.4722   -9.6887 C   0  0  0  0  0  0  0  0  0  0  0  0
   25.7627  -22.7832   -9.4978 O   0  0  0  0  0  0  0  0  0  0  0  0
   25.7265  -22.1968   -8.1945 C   0  0  0  0  0  0  0  0  0  0  0  0
   24.9157  -22.9751   -7.3623 C   0  0  0  0  0  0  0  0  0  0  0  0
   27.2103  -21.9601   -7.8286 C   0  0  0  0  0  0  0  0  0  0  0  0
   23.7875  -23.2228   -8.4978 C   0  0  0  0  0  0  0  0  0  0  0  0
   25.4878  -24.2797   -7.0494 O   0  0  0  0  0  0  0  0  0  0  0  0
   22.8059  -24.2165   -8.0981 O   0  0  0  0  0  0  0  0  0  0  0  0
   27.5600  -20.6609   -8.1520 O   0  0  0  0  0  0  0  0  0  0  0  0
  1  2  2  0
  2  3  1  0
  3  4  1  0
  4  5  1  0
  4  6  1  0
  2  7  1  0
  5  7  1  0
  5  8  1  0
  7  9  1  0
  6 10  1  0
M  END
>  <ID>  (1) 
conformer_0

$$$$
