
     RDKit          3D

  9  9  0  0  0  0  0  0  0  0999 V2000
   24.2107  -23.8464  -10.3007 O   0  0  0  0  0  0  0  0  0  0  0  0
   24.7942  -23.3515   -9.4751 C   0  0  0  0  0  0  0  0  0  0  0  0
   24.0745  -22.6688   -8.5843 N   0  0  0  0  0  0  0  0  0  0  0  0
   22.5905  -22.6415   -8.5745 C   0  0  0  0  0  0  0  0  0  0  0  0
   26.1557  -23.3332   -9.0462 N   0  0  0  0  0  0  0  0  0  0  0  0
   22.0083  -23.7976   -8.3638 N   0  0  0  0  0  0  0  0  0  0  0  0
   25.0704  -21.8666   -7.8136 C   0  0  0  0  0  0  0  0  0  0  0  0
   22.0447  -21.5140   -8.6347 O   0  0  0  0  0  0  0  0  0  0  0  0
   26.2987  -22.4112   -8.0564 C   0  0  0  0  0  0  0  0  0  0  0  0
  1  2  2  0
  2  3  1  0
  3  4  1  0
  2  5  1  0
  4  6  1  0
  3  7  1  0
  4  8  2  0
  5  9  1  0
  7  9  2  0
M  END
>  <ID>  (1) 
conformer_0

$$$$
