
     RDKit          3D

  9  9  0  0  0  0  0  0  0  0999 V2000
   23.2728  -24.5394  -11.4520 O   0  0  0  0  0  0  0  0  0  0  0  0
   23.4455  -23.6358  -10.6339 C   0  0  0  0  0  0  0  0  0  0  0  0
   22.6279  -22.5696  -10.5767 N   0  0  0  0  0  0  0  0  0  0  0  0
   24.7314  -23.6525   -9.8691 N   0  0  0  0  0  0  0  0  0  0  0  0
   24.9369  -22.6795   -8.9494 C   0  0  0  0  0  0  0  0  0  0  0  0
   24.0626  -21.5876   -8.7754 C   0  0  0  0  0  0  0  0  0  0  0  0
   22.9196  -21.5197   -9.5635 C   0  0  0  0  0  0  0  0  0  0  0  0
   21.6441  -22.4234  -11.2761 C   0  0  0  0  0  0  0  0  0  0  0  0
   26.1768  -22.8205   -8.1885 C   0  0  0  0  0  0  0  0  0  0  0  0
  1  2  2  0
  2  3  1  0
  2  4  1  0
  4  5  2  0
  5  6  1  0
  3  7  1  0
  6  7  2  0
  3  8  1  0
  5  9  1  0
M  END
>  <ID>  (1) 
conformer_0

$$$$
