
     RDKit          3D

 10 11  0  0  0  0  0  0  0  0999 V2000
   23.4575  -24.5364  -11.3288 O   0  0  0  0  0  0  0  0  0  0  0  0
   23.7861  -23.8897  -10.2885 C   0  0  0  0  0  0  0  0  0  0  0  0
   24.9846  -23.6298   -9.8660 N   0  0  0  0  0  0  0  0  0  0  0  0
   22.6318  -23.5568   -9.3556 C   0  0  0  0  0  0  0  0  0  0  0  0
   25.1700  -22.9099   -8.7116 C   0  0  0  0  0  0  0  0  0  0  0  0
   22.9489  -22.7864   -8.1765 C   0  0  0  0  0  0  0  0  0  0  0  0
   24.2595  -22.4762   -7.8489 N   0  0  0  0  0  0  0  0  0  0  0  0
   26.6124  -22.4496   -8.2877 C   0  0  0  0  0  0  0  0  0  0  0  0
   26.5144  -21.5124   -7.2455 C   0  0  0  0  0  0  0  0  0  0  0  0
   24.6460  -21.7375   -6.6726 C   0  0  0  0  0  0  0  0  0  0  0  0
  1  2  2  0
  2  3  1  0
  2  4  1  0
  3  5  2  0
  4  6  2  0
  5  7  1  0
  6  7  1  0
  5  8  1  0
  8  9  1  0
  7 10  1  0
  9 10  1  0
M  END
>  <ID>  (1) 
conformer_0

$$$$
