
     RDKit          3D

 10 11  0  0  0  0  0  0  0  0999 V2000
   25.8074  -23.4652   -7.5855 C   0  0  0  0  0  0  0  0  0  0  0  0
   25.1710  -23.3801   -8.7345 N   0  0  0  0  0  0  0  0  0  0  0  0
   24.2361  -24.0014   -9.3229 C   0  0  0  0  0  0  0  0  0  0  0  0
   23.5241  -24.7731   -8.6594 O   0  0  0  0  0  0  0  0  0  0  0  0
   25.7393  -22.1800   -9.4667 C   0  0  0  0  0  0  0  0  0  0  0  0
   23.9389  -23.7287  -10.6646 C   0  0  0  0  0  0  0  0  0  0  0  0
   25.2495  -21.8436  -10.7003 N   0  0  0  0  0  0  0  0  0  0  0  0
   24.3993  -22.7340  -11.2360 C   0  0  0  0  0  0  0  0  0  0  0  0
   26.8414  -22.5291   -7.2809 C   0  0  0  0  0  0  0  0  0  0  0  0
   26.8234  -21.4720   -8.4416 C   0  0  0  0  0  0  0  0  0  0  0  0
  1  2  1  0
  2  3  1  0
  3  4  2  0
  2  5  1  0
  3  6  1  0
  5  7  2  0
  6  8  2  0
  7  8  1  0
  1  9  2  0
  5 10  1  0
  9 10  1  0
M  END
>  <ID>  (1) 
conformer_0

$$$$
