
     RDKit          3D

  8  7  0  0  0  0  0  0  0  0999 V2000
   23.2728  -24.5394  -11.4520 O   0  0  0  0  0  0  0  0  0  0  0  0
   23.6482  -23.9908  -10.3871 C   0  0  0  0  0  0  0  0  0  0  0  0
   24.8904  -23.8260   -9.9696 O   0  0  0  0  0  0  0  0  0  0  0  0
   22.6051  -23.7205   -9.2951 C   0  0  0  0  0  0  0  0  0  0  0  0
   25.0727  -22.7306   -9.2455 C   0  0  0  0  0  0  0  0  0  0  0  0
   26.5205  -22.6143   -8.7613 C   0  0  0  0  0  0  0  0  0  0  0  0
   26.6906  -22.5148   -7.4700 C   0  0  0  0  0  0  0  0  0  0  0  0
   26.8184  -21.2980   -6.9870 O   0  0  0  0  0  0  0  0  0  0  0  0
  1  2  2  0
  2  3  1  0
  2  4  1  0
  3  5  1  0
  5  6  1  0
  6  7  1  0
  7  8  1  0
M  END
>  <ID>  (1) 
conformer_0

$$$$
