
     RDKit          3D

  9  9  0  0  0  0  0  0  0  0999 V2000
   24.1556  -24.0551  -10.6238 O   0  0  0  0  0  0  0  0  0  0  0  0
   24.0937  -23.3251   -9.7226 C   0  0  0  0  0  0  0  0  0  0  0  0
   25.1738  -23.1268   -8.8639 C   0  0  0  0  0  0  0  0  0  0  0  0
   22.8462  -22.9682   -9.1523 N   0  0  0  0  0  0  0  0  0  0  0  0
   22.7210  -22.2374   -7.9564 C   0  0  0  0  0  0  0  0  0  0  0  0
   23.8765  -21.8814   -7.1905 C   0  0  0  0  0  0  0  0  0  0  0  0
   25.1799  -22.4535   -7.8777 C   0  0  0  0  0  0  0  0  0  0  0  0
   26.3632  -22.0705   -7.0804 C   0  0  0  0  0  0  0  0  0  0  0  0
   21.5710  -23.3004   -9.8417 C   0  0  0  0  0  0  0  0  0  0  0  0
  1  2  2  0
  2  3  1  0
  2  4  1  0
  4  5  1  0
  5  6  2  0
  3  7  2  0
  6  7  1  0
  7  8  1  0
  4  9  1  0
M  END
>  <ID>  (1) 
conformer_0

$$$$
