
     RDKit          3D

  9  9  0  0  0  0  0  0  0  0999 V2000
   25.9600  -22.8542   -8.2612 C   0  0  0  0  0  0  0  0  0  0  0  0
   25.1746  -23.1938   -9.1430 N   0  0  0  0  0  0  0  0  0  0  0  0
   25.7149  -22.9813   -7.1008 O   0  0  0  0  0  0  0  0  0  0  0  0
   25.1760  -22.5493  -10.3813 N   0  0  0  0  0  0  0  0  0  0  0  0
   23.8522  -23.7620   -8.9559 C   0  0  0  0  0  0  0  0  0  0  0  0
   27.1211  -22.2166   -8.4265 N   0  0  0  0  0  0  0  0  0  0  0  0
   24.0791  -22.3806  -10.8734 C   0  0  0  0  0  0  0  0  0  0  0  0
   23.7157  -22.0448  -12.2463 C   0  0  0  0  0  0  0  0  0  0  0  0
   23.2019  -23.4224  -10.1511 C   0  0  0  0  0  0  0  0  0  0  0  0
  1  2  1  0
  1  3  2  0
  2  4  1  0
  2  5  1  0
  1  6  1  0
  4  7  2  0
  7  8  1  0
  5  9  2  0
  7  9  1  0
M  END
>  <ID>  (1) 
conformer_0

$$$$
