
     RDKit          3D

 11 12  0  0  0  0  0  0  0  0999 V2000
   25.8074  -23.4652   -7.5855 C   0  0  0  0  0  0  0  0  0  0  0  0
   25.1710  -23.3801   -8.7345 C   0  0  0  0  0  0  0  0  0  0  0  0
   24.1446  -23.9621   -9.1694 N   0  0  0  0  0  0  0  0  0  0  0  0
   25.4494  -22.0839   -9.3003 C   0  0  0  0  0  0  0  0  0  0  0  0
   23.6763  -23.5915  -10.2869 C   0  0  0  0  0  0  0  0  0  0  0  0
   24.6567  -21.9158  -10.4991 C   0  0  0  0  0  0  0  0  0  0  0  0
   26.7910  -22.6137   -7.0460 C   0  0  0  0  0  0  0  0  0  0  0  0
   22.5338  -24.5572  -10.7516 N   0  0  0  0  0  0  0  0  0  0  0  0
   27.0327  -21.4854   -7.7355 C   0  0  0  0  0  0  0  0  0  0  0  0
   23.9148  -22.4853  -10.9191 C   0  0  0  0  0  0  0  0  0  0  0  0
   26.4167  -21.1600   -8.8573 C   0  0  0  0  0  0  0  0  0  0  0  0
  1  2  1  0
  2  3  1  0
  2  4  2  0
  3  5  2  0
  4  6  1  0
  1  7  2  0
  5  8  1  0
  7  9  1  0
  5 10  1  0
  6 10  2  0
  4 11  1  0
  9 11  2  0
M  END
>  <ID>  (1) 
conformer_0

$$$$
