
     RDKit          3D

  9  9  0  0  0  0  0  0  0  0999 V2000
   24.2107  -23.8464  -10.3007 O   0  0  0  0  0  0  0  0  0  0  0  0
   24.7942  -23.3515   -9.4751 C   0  0  0  0  0  0  0  0  0  0  0  0
   25.5020  -23.6775   -8.4776 N   0  0  0  0  0  0  0  0  0  0  0  0
   26.0839  -22.7169   -7.5841 C   0  0  0  0  0  0  0  0  0  0  0  0
   24.8139  -21.7491   -9.6035 C   0  0  0  0  0  0  0  0  0  0  0  0
   24.1096  -21.2027  -10.7662 C   0  0  0  0  0  0  0  0  0  0  0  0
   25.3529  -21.0375   -8.7085 C   0  0  0  0  0  0  0  0  0  0  0  0
   26.0181  -21.6201   -7.5807 N   0  0  0  0  0  0  0  0  0  0  0  0
   26.7488  -23.4965   -6.5222 N   0  0  0  0  0  0  0  0  0  0  0  0
  1  2  2  0
  2  3  1  0
  3  4  1  0
  2  5  1  0
  5  6  1  0
  5  7  2  0
  4  8  2  0
  7  8  1  0
  4  9  1  0
M  END
>  <ID>  (1) 
conformer_0

$$$$
