
     RDKit          3D

 11 12  0  0  0  0  0  0  0  0999 V2000
   25.8074  -23.4652   -7.5855 C   0  0  0  0  0  0  0  0  0  0  0  0
   25.1710  -23.3801   -8.7345 N   0  0  0  0  0  0  0  0  0  0  0  0
   25.3382  -22.1291   -9.3201 C   0  0  0  0  0  0  0  0  0  0  0  0
   24.7411  -22.0049  -10.6023 N   0  0  0  0  0  0  0  0  0  0  0  0
   26.0358  -21.0610   -8.7868 C   0  0  0  0  0  0  0  0  0  0  0  0
   26.5279  -22.5312   -6.8653 N   0  0  0  0  0  0  0  0  0  0  0  0
   24.0542  -23.0392  -11.2379 C   0  0  0  0  0  0  0  0  0  0  0  0
   24.8589  -20.8136  -11.1463 C   0  0  0  0  0  0  0  0  0  0  0  0
   24.3210  -20.5343  -12.3078 O   0  0  0  0  0  0  0  0  0  0  0  0
   26.5287  -21.3305   -7.7256 C   0  0  0  0  0  0  0  0  0  0  0  0
   25.9046  -19.9248   -9.6980 C   0  0  0  0  0  0  0  0  0  0  0  0
  1  2  1  0
  2  3  2  0
  3  4  1  0
  3  5  1  0
  1  6  2  0
  4  7  1  0
  4  8  1  0
  8  9  2  0
  5 10  2  0
  6 10  1  0
  5 11  1  0
  8 11  1  0
M  END
>  <ID>  (1) 
conformer_0

$$$$
