
     RDKit          3D

 10 10  0  0  0  0  0  0  0  0999 V2000
   24.2107  -23.8464  -10.3007 O   0  0  0  0  0  0  0  0  0  0  0  0
   24.2046  -23.1468   -9.4286 C   0  0  0  0  0  0  0  0  0  0  0  0
   23.2387  -22.2804   -9.1730 N   0  0  0  0  0  0  0  0  0  0  0  0
   21.9756  -22.2361   -9.9992 C   0  0  0  0  0  0  0  0  0  0  0  0
   25.3945  -23.0576   -8.4961 C   0  0  0  0  0  0  0  0  0  0  0  0
   23.1816  -21.6642   -7.7801 C   0  0  0  0  0  0  0  0  0  0  0  0
   24.3156  -21.3403   -7.0230 C   0  0  0  0  0  0  0  0  0  0  0  0
   25.2566  -22.5281   -7.1345 C   0  0  0  0  0  0  0  0  0  0  0  0
   24.7501  -23.6305   -6.3814 C   0  0  0  0  0  0  0  0  0  0  0  0
   26.5944  -22.0013   -6.5803 C   0  0  0  0  0  0  0  0  0  0  0  0
  1  2  2  0
  2  3  1  0
  3  4  1  0
  2  5  1  0
  3  6  1  0
  6  7  1  0
  5  8  1  0
  7  8  1  0
  8  9  1  0
  8 10  1  0
M  END
>  <ID>  (1) 
conformer_0

$$$$
