
     RDKit          3D

 10  9  0  0  0  0  0  0  0  0999 V2000
   23.4575  -24.5364  -11.3288 O   0  0  0  0  0  0  0  0  0  0  0  0
   23.5595  -23.5923  -10.5282 C   0  0  0  0  0  0  0  0  0  0  0  0
   24.6068  -23.5460   -9.6031 N   0  0  0  0  0  0  0  0  0  0  0  0
   24.7862  -22.5608   -8.7227 C   0  0  0  0  0  0  0  0  0  0  0  0
   22.8110  -22.4132  -10.8277 C   0  0  0  0  0  0  0  0  0  0  0  0
   21.8506  -22.3473  -11.7693 C   0  0  0  0  0  0  0  0  0  0  0  0
   25.8068  -22.7058   -7.7008 C   0  0  0  0  0  0  0  0  0  0  0  0
   22.0198  -21.8148  -12.7538 O   0  0  0  0  0  0  0  0  0  0  0  0
   24.2256  -21.3947   -8.5940 O   0  0  0  0  0  0  0  0  0  0  0  0
   20.6073  -22.6055  -11.3509 O   0  0  0  0  0  0  0  0  0  0  0  0
  1  2  2  0
  2  3  1  0
  3  4  1  0
  2  5  1  0
  5  6  1  0
  4  7  1  0
  6  8  2  0
  4  9  2  0
  6 10  1  0
M  END
>  <ID>  (1) 
conformer_0

$$$$
