
     RDKit          3D

 10 11  0  0  0  0  0  0  0  0999 V2000
   25.8074  -23.4652   -7.5855 C   0  0  0  0  0  0  0  0  0  0  0  0
   25.1710  -23.3801   -8.7345 C   0  0  0  0  0  0  0  0  0  0  0  0
   24.1446  -23.9621   -9.1694 N   0  0  0  0  0  0  0  0  0  0  0  0
   25.4494  -22.0839   -9.3003 C   0  0  0  0  0  0  0  0  0  0  0  0
   23.6763  -23.5915  -10.2869 C   0  0  0  0  0  0  0  0  0  0  0  0
   26.7614  -22.6704   -7.0096 C   0  0  0  0  0  0  0  0  0  0  0  0
   26.3622  -21.1339   -8.7265 C   0  0  0  0  0  0  0  0  0  0  0  0
   24.6206  -22.0072  -10.4316 S   0  0  0  0  0  0  0  0  0  0  0  0
   26.9980  -21.3739   -7.6102 C   0  0  0  0  0  0  0  0  0  0  0  0
   22.7007  -24.1174  -11.0405 N   0  0  0  0  0  0  0  0  0  0  0  0
  1  2  1  0
  2  3  1  0
  2  4  2  0
  3  5  2  0
  1  6  2  0
  4  7  1  0
  4  8  1  0
  5  8  1  0
  6  9  1  0
  7  9  2  0
  5 10  1  0
M  END
>  <ID>  (1) 
conformer_0

$$$$
