
     RDKit          3D

 10 10  0  0  0  0  0  0  0  0999 V2000
   25.8074  -23.4652   -7.5855 C   0  0  0  0  0  0  0  0  0  0  0  0
   26.3316  -22.4503   -7.3584 C   0  0  0  0  0  0  0  0  0  0  0  0
   25.0398  -23.7454   -8.7681 N   0  0  0  0  0  0  0  0  0  0  0  0
   26.1269  -21.5447   -8.4529 C   0  0  0  0  0  0  0  0  0  0  0  0
   25.1894  -22.5050   -9.3242 C   0  0  0  0  0  0  0  0  0  0  0  0
   24.7369  -22.1710  -10.5874 C   0  0  0  0  0  0  0  0  0  0  0  0
   23.9013  -23.0663  -11.2366 N   0  0  0  0  0  0  0  0  0  0  0  0
   23.3869  -24.2289  -10.7438 C   0  0  0  0  0  0  0  0  0  0  0  0
   23.6967  -22.5963  -12.5485 C   0  0  0  0  0  0  0  0  0  0  0  0
   25.0975  -21.0405  -11.0765 O   0  0  0  0  0  0  0  0  0  0  0  0
  1  2  1  0
  1  3  2  0
  2  4  2  0
  3  5  1  0
  4  5  1  0
  5  6  1  0
  6  7  1  0
  7  8  1  0
  7  9  1  0
  6 10  2  0
M  END
>  <ID>  (1) 
conformer_0

$$$$
