
     RDKit          3D

  7  7  0  0  0  0  0  0  0  0999 V2000
   24.2107  -23.8464  -10.3007 O   0  0  0  0  0  0  0  0  0  0  0  0
   24.7942  -23.3515   -9.4751 C   0  0  0  0  0  0  0  0  0  0  0  0
   24.0745  -22.6688   -8.5843 N   0  0  0  0  0  0  0  0  0  0  0  0
   26.1436  -22.8347   -9.5118 O   0  0  0  0  0  0  0  0  0  0  0  0
   24.6516  -21.9713   -7.4518 C   0  0  0  0  0  0  0  0  0  0  0  0
   22.6013  -22.9307   -8.3990 C   0  0  0  0  0  0  0  0  0  0  0  0
   26.1361  -21.8954   -7.9706 C   0  0  0  0  0  0  0  0  0  0  0  0
  1  2  2  0
  2  3  1  0
  2  4  1  0
  3  5  1  0
  3  6  1  0
  4  7  1  0
  5  7  1  0
M  END
>  <ID>  (1) 
conformer_0

$$$$
