
     RDKit          3D

  8  8  0  0  0  0  0  0  0  0999 V2000
   23.3957  -24.0723  -11.2219 C   0  0  0  0  0  0  0  0  0  0  0  0
   23.7532  -23.6622  -10.0090 C   0  0  0  0  0  0  0  0  0  0  0  0
   22.8504  -23.5311   -8.9644 C   0  0  0  0  0  0  0  0  0  0  0  0
   25.1127  -23.3095   -9.7056 N   0  0  0  0  0  0  0  0  0  0  0  0
   25.4686  -22.8019   -8.4607 C   0  0  0  0  0  0  0  0  0  0  0  0
   26.7885  -22.3773   -8.1557 N   0  0  0  0  0  0  0  0  0  0  0  0
   24.3219  -22.6857   -7.4062 C   0  0  0  0  0  0  0  0  0  0  0  0
   23.1588  -23.0805   -7.6773 C   0  0  0  0  0  0  0  0  0  0  0  0
  1  2  1  0
  2  3  2  0
  2  4  1  0
  4  5  2  0
  5  6  1  0
  5  7  1  0
  3  8  1  0
  7  8  2  0
M  END
>  <ID>  (1) 
conformer_0

$$$$
