
     RDKit          3D

  7  7  0  0  0  0  0  0  0  0999 V2000
   22.7764  -24.7887  -12.2470 C   0  0  0  0  0  0  0  0  0  0  0  0
   23.1122  -23.9699  -11.2771 N   0  0  0  0  0  0  0  0  0  0  0  0
   22.6070  -22.7977  -11.0348 C   0  0  0  0  0  0  0  0  0  0  0  0
   24.3524  -24.1442  -10.7177 N   0  0  0  0  0  0  0  0  0  0  0  0
   24.7178  -23.4089   -9.7577 C   0  0  0  0  0  0  0  0  0  0  0  0
   25.9698  -23.5219   -8.8695 N   0  0  0  0  0  0  0  0  0  0  0  0
   23.7257  -22.0726   -9.5359 S   0  0  0  0  0  0  0  0  0  0  0  0
  1  2  1  0
  2  3  1  0
  2  4  1  0
  4  5  2  0
  5  6  1  0
  3  7  1  0
  5  7  1  0
M  END
>  <ID>  (1) 
conformer_0

$$$$
