
     RDKit          3D

 11 12  0  0  0  0  0  0  0  0999 V2000
   23.5756  -24.0981  -10.8002 C   0  0  0  0  0  0  0  0  0  0  0  0
   24.4542  -23.9531   -9.8244 N   0  0  0  0  0  0  0  0  0  0  0  0
   24.8162  -22.7227   -9.3896 C   0  0  0  0  0  0  0  0  0  0  0  0
   25.9666  -22.6720   -8.4467 C   0  0  0  0  0  0  0  0  0  0  0  0
   23.0625  -25.2159  -11.2551 O   0  0  0  0  0  0  0  0  0  0  0  0
   23.1607  -22.8685  -11.4208 C   0  0  0  0  0  0  0  0  0  0  0  0
   26.4230  -21.3873   -8.2645 C   0  0  0  0  0  0  0  0  0  0  0  0
   26.0436  -20.3213   -8.9161 C   0  0  0  0  0  0  0  0  0  0  0  0
   23.7004  -21.6347  -11.1615 C   0  0  0  0  0  0  0  0  0  0  0  0
   25.1146  -20.4232   -9.8766 C   0  0  0  0  0  0  0  0  0  0  0  0
   24.6268  -21.5693  -10.1121 C   0  0  0  0  0  0  0  0  0  0  0  0
  1  2  1  0
  2  3  1  0
  3  4  1  0
  1  5  2  0
  1  6  1  0
  4  7  2  0
  7  8  1  0
  6  9  2  0
  8 10  2  0
  3 11  2  0
  9 11  1  0
 10 11  1  0
M  END
>  <ID>  (1) 
conformer_0

$$$$
