
     RDKit          3D

 10 11  0  0  0  0  0  0  0  0999 V2000
   25.8074  -23.4652   -7.5855 C   0  0  0  0  0  0  0  0  0  0  0  0
   25.1710  -23.3801   -8.7345 N   0  0  0  0  0  0  0  0  0  0  0  0
   25.3382  -22.1291   -9.3201 C   0  0  0  0  0  0  0  0  0  0  0  0
   24.7411  -22.0049  -10.6023 N   0  0  0  0  0  0  0  0  0  0  0  0
   26.5452  -22.5983   -6.8731 N   0  0  0  0  0  0  0  0  0  0  0  0
   25.8635  -21.1636   -8.7884 C   0  0  0  0  0  0  0  0  0  0  0  0
   24.9283  -20.7267  -11.0084 C   0  0  0  0  0  0  0  0  0  0  0  0
   26.5889  -21.3469   -7.4772 C   0  0  0  0  0  0  0  0  0  0  0  0
   23.9738  -22.9527  -11.3729 C   0  0  0  0  0  0  0  0  0  0  0  0
   25.8215  -19.9455   -9.6793 C   0  0  0  0  0  0  0  0  0  0  0  0
  1  2  1  0
  2  3  2  0
  3  4  1  0
  1  5  2  0
  3  6  1  0
  4  7  1  0
  5  8  1  0
  6  8  2  0
  4  9  1  0
  6 10  1  0
  7 10  2  0
M  END
>  <ID>  (1) 
conformer_0

$$$$
