
     RDKit          3D

  6  6  0  0  0  0  0  0  0  0999 V2000
   22.7764  -24.7887  -12.2470 C   0  0  0  0  0  0  0  0  0  0  0  0
   23.1122  -23.9699  -11.2771 C   0  0  0  0  0  0  0  0  0  0  0  0
   22.5791  -22.9014  -10.7232 N   0  0  0  0  0  0  0  0  0  0  0  0
   21.3572  -22.6114  -11.2239 C   0  0  0  0  0  0  0  0  0  0  0  0
   20.7916  -23.1662  -12.1065 C   0  0  0  0  0  0  0  0  0  0  0  0
   21.4736  -24.4170  -12.7209 C   0  0  0  0  0  0  0  0  0  0  0  0
  1  2  1  0
  2  3  2  0
  3  4  1  0
  4  5  2  0
  1  6  2  0
  5  6  1  0
M  END
>  <ID>  (1) 
conformer_0

$$$$
