
     RDKit          3D

 10 11  0  0  0  0  0  0  0  0999 V2000
   25.8074  -23.4652   -7.5855 C   0  0  0  0  0  0  0  0  0  0  0  0
   25.1710  -23.3801   -8.7345 C   0  0  0  0  0  0  0  0  0  0  0  0
   24.8801  -24.0448   -9.6256 N   0  0  0  0  0  0  0  0  0  0  0  0
   25.3672  -21.9038   -9.0746 C   0  0  0  0  0  0  0  0  0  0  0  0
   26.3382  -22.6792   -6.6290 C   0  0  0  0  0  0  0  0  0  0  0  0
   25.9212  -21.0037   -8.1722 C   0  0  0  0  0  0  0  0  0  0  0  0
   24.7989  -21.7008  -10.3327 C   0  0  0  0  0  0  0  0  0  0  0  0
   26.4303  -21.2600   -7.0427 C   0  0  0  0  0  0  0  0  0  0  0  0
   24.4106  -23.1182  -10.6546 C   0  0  0  0  0  0  0  0  0  0  0  0
   23.5851  -23.5282  -11.7343 N   0  0  0  0  0  0  0  0  0  0  0  0
  1  2  1  0
  2  3  1  0
  2  4  2  0
  1  5  2  0
  4  6  1  0
  4  7  1  0
  5  8  1  0
  6  8  2  0
  3  9  2  0
  7  9  1  0
  9 10  1  0
M  END
>  <ID>  (1) 
conformer_0

$$$$
