
     RDKit          3D

  8  8  0  0  0  0  0  0  0  0999 V2000
   24.2107  -23.8464  -10.3007 O   0  0  0  0  0  0  0  0  0  0  0  0
   24.2046  -23.1468   -9.4286 C   0  0  0  0  0  0  0  0  0  0  0  0
   25.2850  -23.0690   -8.5430 N   0  0  0  0  0  0  0  0  0  0  0  0
   23.3255  -21.9372   -9.3275 C   0  0  0  0  0  0  0  0  0  0  0  0
   23.5476  -21.0934   -8.2324 C   0  0  0  0  0  0  0  0  0  0  0  0
   24.7199  -21.3432   -7.4005 C   0  0  0  0  0  0  0  0  0  0  0  0
   25.4547  -22.1892   -7.5344 C   0  0  0  0  0  0  0  0  0  0  0  0
   22.4914  -21.8359  -10.2601 N   0  0  0  0  0  0  0  0  0  0  0  0
  1  2  2  0
  2  3  1  0
  2  4  1  0
  4  5  2  0
  5  6  1  0
  3  7  2  0
  6  7  2  0
  4  8  1  0
M  END
>  <ID>  (1) 
conformer_0

$$$$
