
     RDKit          3D

  9 10  0  0  0  0  0  0  0  0999 V2000
   25.8074  -23.4652   -7.5855 C   0  0  0  0  0  0  0  0  0  0  0  0
   25.1710  -23.3801   -8.7345 C   0  0  0  0  0  0  0  0  0  0  0  0
   25.3970  -22.1753   -9.3439 C   0  0  0  0  0  0  0  0  0  0  0  0
   26.3988  -22.4808   -7.0118 C   0  0  0  0  0  0  0  0  0  0  0  0
   24.4534  -24.2857   -9.3979 N   0  0  0  0  0  0  0  0  0  0  0  0
   26.0809  -21.0993   -8.8706 C   0  0  0  0  0  0  0  0  0  0  0  0
   26.6686  -21.2628   -7.5869 C   0  0  0  0  0  0  0  0  0  0  0  0
   24.6275  -22.3183  -10.6140 N   0  0  0  0  0  0  0  0  0  0  0  0
   24.1209  -23.5490  -10.5565 C   0  0  0  0  0  0  0  0  0  0  0  0
  1  2  1  0
  2  3  2  0
  1  4  2  0
  2  5  1  0
  3  6  1  0
  4  7  1  0
  6  7  2  0
  3  8  1  0
  5  9  2  0
  8  9  2  0
M  END
>  <ID>  (1) 
conformer_0

$$$$
