
     RDKit          3D

 11 12  0  0  0  0  0  0  0  0999 V2000
   24.1556  -24.0551  -10.6238 O   0  0  0  0  0  0  0  0  0  0  0  0
   24.0937  -23.3251   -9.7226 C   0  0  0  0  0  0  0  0  0  0  0  0
   23.0421  -22.5595   -9.5101 N   0  0  0  0  0  0  0  0  0  0  0  0
   25.3403  -22.9543   -8.9385 C   0  0  0  0  0  0  0  0  0  0  0  0
   21.7103  -22.7950  -10.2355 C   0  0  0  0  0  0  0  0  0  0  0  0
   25.7907  -23.6421   -8.0050 C   0  0  0  0  0  0  0  0  0  0  0  0
   23.1738  -21.4989   -8.4664 C   0  0  0  0  0  0  0  0  0  0  0  0
   24.2184  -20.9057   -7.9171 C   0  0  0  0  0  0  0  0  0  0  0  0
   25.4890  -21.6899   -8.1069 C   0  0  0  0  0  0  0  0  0  0  0  0
   26.8943  -23.2426   -7.3454 N   0  0  0  0  0  0  0  0  0  0  0  0
   26.5480  -21.7970   -7.2775 N   0  0  0  0  0  0  0  0  0  0  0  0
  1  2  2  0
  2  3  1  0
  2  4  1  0
  3  5  1  0
  4  6  1  0
  3  7  1  0
  7  8  2  0
  4  9  2  0
  8  9  1  0
  6 10  2  0
  9 11  1  0
 10 11  1  0
M  END
>  <ID>  (1) 
conformer_0

$$$$
