
     RDKit          3D

  7  7  0  0  0  0  0  0  0  0999 V2000
   25.9600  -22.8542   -8.2612 C   0  0  0  0  0  0  0  0  0  0  0  0
   25.1746  -23.1938   -9.1430 N   0  0  0  0  0  0  0  0  0  0  0  0
   25.7149  -22.9813   -7.1008 O   0  0  0  0  0  0  0  0  0  0  0  0
   25.1760  -22.5493  -10.3813 N   0  0  0  0  0  0  0  0  0  0  0  0
   23.8522  -23.7620   -8.9559 C   0  0  0  0  0  0  0  0  0  0  0  0
   24.2265  -22.9259  -11.1880 C   0  0  0  0  0  0  0  0  0  0  0  0
   23.2929  -23.6759  -10.3187 C   0  0  0  0  0  0  0  0  0  0  0  0
  1  2  1  0
  1  3  2  0
  2  4  1  0
  2  5  1  0
  4  6  2  0
  5  7  2  0
  6  7  1  0
M  END
>  <ID>  (1) 
conformer_0

$$$$
