
     RDKit          3D

 39 44  0  0  0  0  0  0  0  0999 V2000
   11.1325   17.3164   16.2501 C   0  0  0  0  0  0  0  0  0  0  0  0
   12.7652   15.9080   11.8774 C   0  0  0  0  0  0  0  0  0  0  0  0
    9.3057   16.8439   17.8541 C   0  0  0  0  0  0  0  0  0  0  0  0
   14.0941   22.2022   15.5555 O   0  0  0  0  0  0  0  0  0  0  0  0
   12.2172   18.1813   16.1281 N   0  0  0  0  0  0  0  0  0  0  0  0
   10.1524   15.1247   15.3298 C   0  0  0  0  0  0  0  0  0  0  0  0
   10.3163   17.5503   17.3429 N   0  0  0  0  0  0  0  0  0  0  0  0
    9.0848   13.1803   14.8327 N   0  0  0  0  0  0  0  0  0  0  0  0
   10.0117   11.3477   10.2498 C   0  0  0  0  0  0  0  0  0  0  0  0
   10.7159   16.0329   12.7931 O   0  0  0  0  0  0  0  0  0  0  0  0
    9.9864   13.1630   11.7687 C   0  0  0  0  0  0  0  0  0  0  0  0
    9.6199   10.0818    9.9264 F   0  0  0  0  0  0  0  0  0  0  0  0
    8.4680   13.7293   15.9572 C   0  0  0  0  0  0  0  0  0  0  0  0
    8.8041   15.7043   17.3597 C   0  0  0  0  0  0  0  0  0  0  0  0
   14.0683   20.5593   17.3016 C   0  0  0  0  0  0  0  0  0  0  0  0
   12.7511   15.5241   13.5501 O   0  0  0  0  0  0  0  0  0  0  0  0
   11.6290   16.4868   13.9308 C   0  0  0  0  0  0  0  0  0  0  0  0
   11.2960   15.4001   11.5445 C   0  0  0  0  0  0  0  0  0  0  0  0
    8.2471   11.9780   14.3592 C   0  0  0  0  0  0  0  0  0  0  0  0
   10.8128   12.1377    9.4262 C   0  0  0  0  0  0  0  0  0  0  0  0
    8.6476   10.9808   12.1792 N   0  0  0  0  0  0  0  0  0  0  0  0
   10.2338   13.9826   14.5535 N   0  0  0  0  0  0  0  0  0  0  0  0
    7.1858   11.8224   15.4139 C   0  0  0  0  0  0  0  0  0  0  0  0
    9.5359   11.8630   11.4687 C   0  0  0  0  0  0  0  0  0  0  0  0
    8.0873   10.8476   13.3744 C   0  0  0  0  0  0  0  0  0  0  0  0
    7.3720   12.9304   16.3968 C   0  0  0  0  0  0  0  0  0  0  0  0
   15.0586   19.5028   17.6000 O   0  0  0  0  0  0  0  0  0  0  0  0
    9.1278   14.9281   16.3079 C   0  0  0  0  0  0  0  0  0  0  0  0
    7.5270    9.7886   13.6629 O   0  0  0  0  0  0  0  0  0  0  0  0
    9.5192   16.7045   12.6568 O   0  0  0  0  0  0  0  0  0  0  0  0
   12.3135   17.8518   13.5568 C   0  0  0  0  0  0  0  0  0  0  0  0
   11.2249   13.4706    9.7711 C   0  0  0  0  0  0  0  0  0  0  0  0
   10.8281   13.9826   11.0269 C   0  0  0  0  0  0  0  0  0  0  0  0
   14.0579   20.8693   15.8295 C   0  0  0  0  0  0  0  0  0  0  0  0
    5.9869   11.3067   15.1598 O   0  0  0  0  0  0  0  0  0  0  0  0
   12.5337   17.4555   11.9823 N   0  0  0  0  0  0  0  0  0  0  0  0
   13.3954   20.0426   14.7870 C   0  0  0  0  0  0  0  0  0  0  0  0
   12.5478   18.7684   14.8672 C   0  0  0  0  0  0  0  0  0  0  0  0
   10.9336   16.3144   15.2538 C   0  0  0  0  0  0  0  0  0  0  0  0
  1  5  2  0
  1  7  1  0
  1 39  1  0
  2 18  1  0
  2 36  1  0
  3  7  2  0
  3 14  1  0
  4 34  1  0
  5 38  1  0
  6 22  1  0
  6 28  1  0
  6 39  1  0
  8 13  1  0
  8 19  1  0
  8 22  1  0
  9 12  1  0
  9 20  2  0
  9 24  1  0
 10 18  1  0
 10 30  1  0
 11 24  1  0
 11 33  2  0
 13 26  1  0
 13 28  1  0
 14 28  2  0
 15 27  1  0
 15 34  1  0
 16 17  1  0
 17 31  1  0
 17 39  1  0
 18 33  1  0
 19 23  1  0
 19 25  1  0
 20 32  1  0
 21 24  2  0
 21 25  1  0
 23 26  1  0
 23 35  1  0
 25 29  2  0
 31 36  1  0
 31 38  1  0
 32 33  1  0
 34 37  1  0
 37 38  2  3
M  END
>  <ID>  (1) 
conformer_0

$$$$
