
     RDKit          3D

 36 42  0  0  0  0  0  0  0  0999 V2000
   10.9797   13.3350   11.9557 C   0  0  0  0  0  0  0  0  0  0  0  0
    8.4356   15.7927   17.2845 C   0  0  0  0  0  0  0  0  0  0  0  0
    6.9975   18.1346   19.6298 O   0  0  0  0  0  0  0  0  0  0  0  0
    8.8841   13.0201   15.0162 C   0  0  0  0  0  0  0  0  0  0  0  0
   14.9635   20.4497   14.6717 O   0  0  0  0  0  0  0  0  0  0  0  0
    6.9359   10.9088   14.4127 C   0  0  0  0  0  0  0  0  0  0  0  0
    9.3274   11.4782   11.5887 C   0  0  0  0  0  0  0  0  0  0  0  0
   12.1633   14.1136   11.5481 C   0  0  0  0  0  0  0  0  0  0  0  0
    7.8375   17.4974   18.8171 C   0  0  0  0  0  0  0  0  0  0  0  0
   10.4155   16.2804   15.7726 C   0  0  0  0  0  0  0  0  0  0  0  0
    8.8116   11.6949   12.9548 C   0  0  0  0  0  0  0  0  0  0  0  0
    9.1135   18.0426   18.6210 C   0  0  0  0  0  0  0  0  0  0  0  0
    7.5354   16.3308   18.1451 C   0  0  0  0  0  0  0  0  0  0  0  0
   12.5545   15.8014   14.1041 C   0  0  0  0  0  0  0  0  0  0  0  0
   12.7316   14.8889   12.7249 C   0  0  0  0  0  0  0  0  0  0  0  0
   13.2830   17.0917   13.2940 C   0  0  0  0  0  0  0  0  0  0  0  0
   10.5849   13.3300   13.2814 C   0  0  0  0  0  0  0  0  0  0  0  0
   12.4580   17.5700   15.8855 C   0  0  0  0  0  0  0  0  0  0  0  0
    6.8058   11.6762   15.4902 N   0  0  0  0  0  0  0  0  0  0  0  0
    9.4312   12.6485   13.7636 C   0  0  0  0  0  0  0  0  0  0  0  0
   11.6006   16.6394   15.0796 N   0  0  0  0  0  0  0  0  0  0  0  0
    9.6072   16.5250   16.9755 C   0  0  0  0  0  0  0  0  0  0  0  0
    7.7511   10.9444   13.4174 N   0  0  0  0  0  0  0  0  0  0  0  0
   12.5777   18.4962   13.3156 C   0  0  0  0  0  0  0  0  0  0  0  0
   10.4737   12.2755   11.0842 C   0  0  0  0  0  0  0  0  0  0  0  0
    9.4267   14.0392   15.7569 C   0  0  0  0  0  0  0  0  0  0  0  0
    7.6662   12.7046   15.6507 C   0  0  0  0  0  0  0  0  0  0  0  0
    9.9335   17.5471   17.7774 N   0  0  0  0  0  0  0  0  0  0  0  0
   12.7705   19.6439   14.3576 C   0  0  0  0  0  0  0  0  0  0  0  0
   13.4241   21.8370   13.8451 O   0  0  0  0  0  0  0  0  0  0  0  0
   13.4406   16.2070   12.0089 C   0  0  0  0  0  0  0  0  0  0  0  0
   12.3911   19.1891   11.9414 C   0  0  0  0  0  0  0  0  0  0  0  0
    8.4624   14.5613   16.6009 C   0  0  0  0  0  0  0  0  0  0  0  0
   12.6297   19.0779   15.8001 C   0  0  0  0  0  0  0  0  0  0  0  0
   13.8263   20.7178   14.2823 C   0  0  0  0  0  0  0  0  0  0  0  0
    7.4040   13.6498   16.6355 C   0  0  0  0  0  0  0  0  0  0  0  0
  1  8  1  0
  1 17  1  0
  1 25  2  0
  2 13  1  0
  2 22  1  0
  2 33  2  0
  3  9  1  0
  4 20  2  0
  4 26  1  0
  4 27  1  0
  5 35  2  0
  6 19  1  0
  6 23  2  0
  7 11  2  0
  7 25  1  0
  8 15  1  0
  9 12  1  0
  9 13  2  0
 10 21  1  0
 10 22  2  0
 11 20  1  0
 11 23  1  0
 12 28  2  0
 14 15  1  0
 14 16  1  0
 14 21  1  0
 15 31  1  0
 16 24  1  0
 16 31  1  0
 17 20  1  0
 18 21  1  0
 18 34  1  0
 19 27  2  0
 22 28  1  0
 24 29  1  0
 24 32  1  0
 26 33  1  0
 27 36  1  0
 29 34  1  0
 29 35  1  0
 30 35  1  0
 33 36  1  0
M  END
>  <ID>  (1) 
conformer_0

$$$$
