
     RDKit          3D

 33 37  0  0  0  0  0  0  0  0999 V2000
   11.1544   16.8214   11.7572 O   0  0  0  0  0  0  0  0  0  0  0  0
   13.7740   20.1420   15.6286 C   0  0  0  0  0  0  0  0  0  0  0  0
   14.2466   20.6578   17.9205 O   0  0  0  0  0  0  0  0  0  0  0  0
   14.1058   18.5245   15.5865 S   0  0  0  0  0  4  0  0  0  0  0  0
    8.8243   17.1290   18.4084 C   0  0  0  0  0  0  0  0  0  0  0  0
    8.8497   14.6214   15.5109 C   0  0  0  0  0  0  0  0  0  0  0  0
    9.2070   13.1830   13.6687 N   0  0  0  0  0  0  0  0  0  0  0  0
   11.7045   18.4204   16.2939 C   0  0  0  0  0  0  0  0  0  0  0  0
   11.6247   15.3664   11.5420 C   0  0  0  0  0  0  0  0  0  0  0  0
    7.8226   10.9860   13.6793 C   0  0  0  0  0  0  0  0  0  0  0  0
    6.6983   11.5869   15.6086 C   0  0  0  0  0  0  0  0  0  0  0  0
   12.6729   17.6472   15.3558 C   0  0  0  0  0  0  0  0  0  0  0  0
   14.3562   22.2591   16.3150 O   0  0  0  0  0  0  0  0  0  0  0  0
   12.8754   16.9210   13.9629 C   0  0  0  0  0  0  0  0  0  0  0  0
   14.8682   18.2823   14.3289 O   0  0  0  0  0  0  0  0  0  0  0  0
   14.2368   21.0373   16.6906 C   0  0  0  0  0  0  0  0  0  0  0  0
   14.7201   17.9296   16.7518 O   0  0  0  0  0  0  0  0  0  0  0  0
   10.2410   16.4912   16.2524 C   0  0  0  0  0  0  0  0  0  0  0  0
    6.8571   10.6066   14.4940 N   0  0  0  0  0  0  0  0  0  0  0  0
    8.3078   12.2854   14.1234 C   0  0  0  0  0  0  0  0  0  0  0  0
    9.1935   15.7331   16.4702 C   0  0  0  0  0  0  0  0  0  0  0  0
   10.3430   14.6642   11.9355 C   0  0  0  0  0  0  0  0  0  0  0  0
    9.8324   15.4449   13.1454 C   0  0  0  0  0  0  0  0  0  0  0  0
    9.9003   17.9649   18.0322 N   0  0  0  0  0  0  0  0  0  0  0  0
    9.3498   14.4064   14.1758 C   0  0  0  0  0  0  0  0  0  0  0  0
   10.2200   16.7969   12.7806 C   0  0  0  0  0  0  0  0  0  0  0  0
    9.6318   17.8409   13.2576 O   0  0  0  0  0  0  0  0  0  0  0  0
    8.4569   16.0371   17.6631 C   0  0  0  0  0  0  0  0  0  0  0  0
   13.9494   17.8193   13.1808 C   0  0  0  0  0  0  0  0  0  0  0  0
   10.5823   17.6046   16.8865 C   0  0  0  0  0  0  0  0  0  0  0  0
    7.6251   12.5885   15.3307 C   0  0  0  0  0  0  0  0  0  0  0  0
    7.9257   13.7107   15.9915 C   0  0  0  0  0  0  0  0  0  0  0  0
    8.3174   10.3001   12.6789 N   0  0  0  0  0  0  0  0  0  0  0  0
  1  9  1  0
  1 26  1  0
  2  4  1  0
  2 16  1  0
  3 16  2  0
  4 12  1  0
  4 15  1  0
  4 17  1  0
  5 24  2  0
  5 28  1  0
  6 21  1  0
  6 25  1  0
  6 32  1  0
  7 20  2  0
  7 25  1  0
  8 12  1  0
  8 30  1  0
  9 22  1  0
 10 19  1  0
 10 20  1  0
 10 33  2  0
 11 19  1  0
 11 31  1  0
 12 14  1  0
 13 16  1  0
 14 29  1  0
 15 29  1  0
 18 21  1  0
 18 30  2  0
 20 31  1  0
 21 28  2  0
 22 23  1  0
 23 25  2  3
 23 26  1  0
 24 30  1  0
 26 27  2  0
 31 32  2  0
M  END
>  <ID>  (1) 
conformer_0

$$$$
