
     RDKit          3D

 32 36  0  0  0  0  0  0  0  0999 V2000
   11.9593   18.3734   11.5809 N   0  0  0  0  0  0  0  0  0  0  0  0
    9.6995   17.8799   17.9308 O   0  0  0  0  0  0  0  0  0  0  0  0
   11.3293   15.7016   11.7471 C   0  0  0  0  0  0  0  0  0  0  0  0
   11.4299   14.6813   12.9959 C   0  0  0  0  0  0  0  0  0  0  0  0
    9.5720   14.8105   15.9146 C   0  0  0  0  0  0  0  0  0  0  0  0
    8.0657   11.0402   13.4373 C   0  0  0  0  0  0  0  0  0  0  0  0
   11.4022   16.7087   16.3644 N   0  0  0  0  0  0  0  0  0  0  0  0
    7.6092   15.0093   17.3106 C   0  0  0  0  0  0  0  0  0  0  0  0
    9.0034   12.9109   14.7380 C   0  0  0  0  0  0  0  0  0  0  0  0
   10.1007   16.0052   16.5294 C   0  0  0  0  0  0  0  0  0  0  0  0
    9.3189   16.7104   17.4619 C   0  0  0  0  0  0  0  0  0  0  0  0
   11.5005   14.5994   10.8137 N   0  0  0  0  0  0  0  0  0  0  0  0
   13.7754   20.1697   16.4748 C   0  0  0  0  0  0  0  0  0  0  0  0
   10.6584   12.3942   10.9128 C   0  0  0  0  0  0  0  0  0  0  0  0
   11.3732   13.4315   11.9102 C   0  0  0  0  0  0  0  0  0  0  0  0
    6.8650   12.3274   15.8772 C   0  0  0  0  0  0  0  0  0  0  0  0
    8.0762   16.1815   17.8687 C   0  0  0  0  0  0  0  0  0  0  0  0
    8.2876   14.3303   16.3606 C   0  0  0  0  0  0  0  0  0  0  0  0
    7.9438   13.1382   15.6625 C   0  0  0  0  0  0  0  0  0  0  0  0
   12.4053   17.9212   16.1058 C   0  0  0  0  0  0  0  0  0  0  0  0
   11.8156   15.6515   14.0784 O   0  0  0  0  0  0  0  0  0  0  0  0
   11.7123   18.5666   14.4886 S   0  0  0  0  0  0  0  0  0  0  0  0
    6.3968   11.2483   15.2229 C   0  0  0  0  0  0  0  0  0  0  0  0
   13.9906   21.0681   15.6041 O   0  0  0  0  0  0  0  0  0  0  0  0
    6.9295   10.7163   14.1114 N   0  0  0  0  0  0  0  0  0  0  0  0
    8.3409   10.3943   12.1716 C   0  0  0  0  0  0  0  0  0  0  0  0
    8.9672   11.9333   13.8611 N   0  0  0  0  0  0  0  0  0  0  0  0
   10.0062   13.8782   14.9524 C   0  0  0  0  0  0  0  0  0  0  0  0
   12.0042   17.0208   13.6712 C   0  0  0  0  0  0  0  0  0  0  0  0
   13.5154   20.3135   17.7203 O   0  0  0  0  0  0  0  0  0  0  0  0
   13.8189   18.6956   16.0281 C   0  0  0  0  0  0  0  0  0  0  0  0
   11.9579   17.0424   12.1621 C   0  0  0  0  0  0  0  0  0  0  0  0
  1 32  1  0
  2 11  1  0
  3  4  1  0
  3 12  1  0
  3 32  1  0
  4 15  1  0
  4 21  1  0
  5 10  2  0
  5 18  1  0
  5 28  1  0
  6 25  2  0
  6 26  1  0
  6 27  1  0
  7 10  1  0
  7 20  1  0
  8 17  1  0
  8 18  2  0
  9 19  1  0
  9 27  2  0
  9 28  1  0
 10 11  1  0
 11 17  2  0
 12 15  1  0
 13 24  2  0
 13 30  1  0
 13 31  1  0
 14 15  1  0
 16 19  1  0
 16 23  2  0
 18 19  1  0
 20 22  1  0
 20 31  1  0
 21 29  1  0
 22 29  1  0
 23 25  1  0
 29 32  1  0
M  END
>  <ID>  (1) 
conformer_0

$$$$
