
     RDKit          3D

 27 30  0  0  0  0  0  0  0  0999 V2000
   10.5810   13.2645   12.9820 N   0  0  0  0  0  0  0  0  0  0  0  0
   11.0692   16.1705   14.0843 C   0  0  0  0  0  0  0  0  0  0  0  0
   10.0402   16.1839   16.0818 C   0  0  0  0  0  0  0  0  0  0  0  0
   14.3308   19.5560   13.2968 C   0  0  0  0  0  0  0  0  0  0  0  0
   11.1170   18.1772   16.9654 O   0  0  0  0  0  0  0  0  0  0  0  0
    9.2546   16.4899   18.2689 O   0  0  0  0  0  0  0  0  0  0  0  0
   11.2291   15.8812   12.6220 C   0  0  0  0  0  0  0  0  0  0  0  0
    7.5035   12.7550   15.7496 C   0  0  0  0  0  0  0  0  0  0  0  0
    8.6175   11.8646   13.8578 C   0  0  0  0  0  0  0  0  0  0  0  0
   13.7060   20.5086   14.2998 C   0  0  0  0  0  0  0  0  0  0  0  0
   10.1664   15.5865   14.8840 C   0  0  0  0  0  0  0  0  0  0  0  0
    7.3656   13.8767   16.6701 C   0  0  0  0  0  0  0  0  0  0  0  0
    6.6010   10.9663   14.5420 N   0  0  0  0  0  0  0  0  0  0  0  0
    6.4688   11.7975   15.5553 C   0  0  0  0  0  0  0  0  0  0  0  0
   10.9917   17.2849   16.0843 C   0  0  0  0  0  0  0  0  0  0  0  0
    9.5092   11.5665   11.4375 C   0  0  0  0  0  0  0  0  0  0  0  0
   13.4976   18.2715   13.3421 C   0  0  0  0  0  0  0  0  0  0  0  0
   12.9167   21.4535   13.7042 O   0  0  0  0  0  0  0  0  0  0  0  0
   10.9570   14.4684   12.1999 C   0  0  0  0  0  0  0  0  0  0  0  0
   12.9031   18.1927   14.7217 C   0  0  0  0  0  0  0  0  0  0  0  0
    7.8810   15.1671   16.8359 C   0  0  0  0  0  0  0  0  0  0  0  0
    7.5571   10.9866   13.6886 N   0  0  0  0  0  0  0  0  0  0  0  0
   11.7012   17.2423   14.9066 N   0  0  0  0  0  0  0  0  0  0  0  0
    9.7131   12.1290   12.8630 C   0  0  0  0  0  0  0  0  0  0  0  0
   13.1128   19.6115   15.3232 C   0  0  0  0  0  0  0  0  0  0  0  0
    8.6343   12.5789   15.0280 C   0  0  0  0  0  0  0  0  0  0  0  0
    9.0924   15.8847   17.1350 C   0  0  0  0  0  0  0  0  0  0  0  0
  1 19  1  0
  1 24  1  0
  2  7  1  0
  2 11  1  0
  2 23  1  0
  3 11  1  0
  3 15  1  0
  3 27  1  0
  4 10  1  0
  4 17  1  0
  5 15  2  0
  6 27  1  0
  7 19  2  0
  8 12  1  0
  8 14  1  0
  8 26  1  0
  9 22  2  0
  9 24  1  0
  9 26  1  0
 10 18  1  0
 10 25  1  0
 12 21  1  0
 13 14  2  0
 13 22  1  0
 15 23  1  0
 16 24  1  0
 17 20  1  0
 20 23  1  0
 20 25  1  0
 21 27  1  0
M  END
>  <ID>  (1) 
conformer_0

$$$$
