
     RDKit          3D

 44 46  0  0  0  0  0  0  0  0999 V2000
    9.5394   16.7482   16.7737 C   0  0  0  0  0  0  0  0  0  0  0  0
   10.4871   16.4107   13.8592 C   0  0  0  0  0  0  0  0  0  0  0  0
    8.8151   10.3136   11.7834 C   0  0  0  0  0  0  0  0  0  0  0  0
   15.1714   20.3672   16.4862 C   0  0  0  0  0  0  0  0  0  0  0  0
   14.4434   17.2610   17.5128 O   0  0  0  0  0  0  0  0  0  0  0  0
    8.7631   15.5871   16.6344 N   0  0  0  0  0  0  0  0  0  0  0  0
    8.2118    9.2754   11.8767 O   0  0  0  0  0  0  0  0  0  0  0  0
    8.9969   11.0578   12.8340 N   0  0  0  0  0  0  0  0  0  0  0  0
    9.0749   12.5590   14.4807 C   0  0  0  0  0  0  0  0  0  0  0  0
   10.1574   12.1572   10.8319 C   0  0  0  0  0  0  0  0  0  0  0  0
    7.3496   17.1446   18.4994 O   0  0  0  0  0  0  0  0  0  0  0  0
   14.0382   19.3680   16.2042 C   0  0  0  0  0  0  0  0  0  0  0  0
   12.2919   17.2477   12.2352 C   0  0  0  0  0  0  0  0  0  0  0  0
   10.6075   14.2856   16.1392 O   0  0  0  0  0  0  0  0  0  0  0  0
   11.6027   16.0960   12.7851 C   0  0  0  0  0  0  0  0  0  0  0  0
    8.3719   11.5336   13.8915 C   0  0  0  0  0  0  0  0  0  0  0  0
    7.1601   11.1556   14.4299 N   0  0  0  0  0  0  0  0  0  0  0  0
    6.7358   13.9447   16.8592 F   0  0  0  0  0  0  0  0  0  0  0  0
    9.3917   14.4810   16.0567 C   0  0  0  0  0  0  0  0  0  0  0  0
   10.5688   10.2867    7.1411 O   0  0  0  0  0  0  0  0  0  0  0  0
    8.5103   17.6028   18.8330 C   0  0  0  0  0  0  0  0  0  0  0  0
   10.4476   10.7909    8.3343 C   0  0  0  0  0  0  0  0  0  0  0  0
   14.7727   21.6690   15.8597 C   0  0  0  0  0  0  0  0  0  0  0  0
   13.3215   20.0195   15.0136 C   0  0  0  0  0  0  0  0  0  0  0  0
   12.7080   19.7603   12.0324 C   0  0  0  0  0  0  0  0  0  0  0  0
   13.8853   17.0521   12.1139 C   0  0  0  0  0  0  0  0  0  0  0  0
   11.9693   12.6924    7.6986 C   0  0  0  0  0  0  0  0  0  0  0  0
    9.5536   17.6669   17.8649 C   0  0  0  0  0  0  0  0  0  0  0  0
    8.6179   18.5032   19.7953 O   0  0  0  0  0  0  0  0  0  0  0  0
   11.8824   18.5959   12.6313 N   0  0  0  0  0  0  0  0  0  0  0  0
   10.2005   16.9659   15.3982 C   0  0  0  0  0  0  0  0  0  0  0  0
   12.2613   14.6487   12.6785 C   0  0  0  0  0  0  0  0  0  0  0  0
   12.2563   17.5624   16.6150 O   0  0  0  0  0  0  0  0  0  0  0  0
   14.3229   16.9650   15.2437 O   0  0  0  0  0  0  0  0  0  0  0  0
    9.6120   10.2075    9.3560 C   0  0  0  0  0  0  0  0  0  0  0  0
   11.2518   18.0476   15.6639 C   0  0  0  0  0  0  0  0  0  0  0  0
   10.8372   12.8199    9.7681 C   0  0  0  0  0  0  0  0  0  0  0  0
   13.7958   17.7258   16.3804 C   0  0  0  0  0  0  0  0  0  0  0  0
    8.5939   13.3582   15.4501 C   0  0  0  0  0  0  0  0  0  0  0  0
   11.1268   11.9628    8.6194 N   0  0  0  0  0  0  0  0  0  0  0  0
    7.3127   13.0751   15.9214 C   0  0  0  0  0  0  0  0  0  0  0  0
    6.6543   11.9276   15.4699 C   0  0  0  0  0  0  0  0  0  0  0  0
   14.0182   21.3104   14.6276 C   0  0  0  0  0  0  0  0  0  0  0  0
    9.5641   10.8558   10.6242 C   0  0  0  0  0  0  0  0  0  0  0  0
  1  6  1  0
  1 28  1  0
  1 31  1  0
  2 15  1  0
  2 31  1  0
  3  7  2  0
  3  8  1  0
  3 44  1  0
  4 12  1  0
  4 23  1  0
  5 38  1  0
  6 19  1  0
  8 16  2  3
  9 16  1  0
  9 39  2  0
 10 37  1  0
 10 44  1  0
 11 21  2  0
 12 24  1  0
 12 38  1  0
 13 15  1  0
 13 26  1  0
 13 30  1  0
 14 19  2  0
 15 32  1  0
 16 17  1  0
 17 42  2  0
 18 41  1  0
 19 39  1  0
 20 22  2  0
 21 28  1  0
 21 29  1  0
 22 35  1  0
 22 40  1  0
 23 43  1  0
 24 43  1  0
 25 30  1  0
 27 40  1  0
 31 36  1  0
 33 36  1  0
 33 38  1  0
 34 38  1  0
 35 44  2  0
 37 40  1  0
 39 41  1  0
 41 42  1  0
M  END
>  <ID>  (1) 
conformer_0

$$$$
