
     RDKit          3D

 38 40  0  0  0  0  0  0  0  0999 V2000
   13.6054   19.2283   16.4542 C   0  0  0  0  0  0  0  0  0  0  0  0
   14.5615   21.8827   15.6626 O   0  0  0  0  0  0  0  0  0  0  0  0
    8.2198    9.2886   12.3704 C   0  0  0  0  0  0  0  0  0  0  0  0
    7.7237   13.8793   16.3209 C   0  0  0  0  0  0  0  0  0  0  0  0
    7.2284   15.8766   17.5765 C   0  0  0  0  0  0  0  0  0  0  0  0
   10.2179   16.1456   13.7727 C   0  0  0  0  0  0  0  0  0  0  0  0
    6.7677   12.3196   15.8399 N   0  0  0  0  0  0  0  0  0  0  0  0
    9.9472   12.7388   13.9257 O   0  0  0  0  0  0  0  0  0  0  0  0
   12.4821   17.6213   15.1482 C   0  0  0  0  0  0  0  0  0  0  0  0
   10.5613   13.9371   17.3209 F   0  0  0  0  0  0  0  0  0  0  0  0
   12.6328   18.7149   14.1269 C   0  0  0  0  0  0  0  0  0  0  0  0
    7.8805   12.9040   15.4243 C   0  0  0  0  0  0  0  0  0  0  0  0
    9.4486   15.1863   17.4081 C   0  0  0  0  0  0  0  0  0  0  0  0
    7.7308   17.0797   18.1091 N   0  0  0  0  0  0  0  0  0  0  0  0
   13.2198   14.9494   12.4454 C   0  0  0  0  0  0  0  0  0  0  0  0
    6.2931   11.3014   15.1790 C   0  0  0  0  0  0  0  0  0  0  0  0
   13.4532   17.4872   11.7946 C   0  0  0  0  0  0  0  0  0  0  0  0
    8.5696   10.7681   12.3854 C   0  0  0  0  0  0  0  0  0  0  0  0
   13.5355   19.7287   15.0295 C   0  0  0  0  0  0  0  0  0  0  0  0
   11.3887   18.2406   13.2058 C   0  0  0  0  0  0  0  0  0  0  0  0
    6.8718   10.7814   14.1302 N   0  0  0  0  0  0  0  0  0  0  0  0
   10.6280   13.7831   13.7104 C   0  0  0  0  0  0  0  0  0  0  0  0
   12.5417   18.3910   10.9471 O   0  0  0  0  0  0  0  0  0  0  0  0
   12.2878   14.5628   11.2389 C   0  0  0  0  0  0  0  0  0  0  0  0
   13.8532   21.1754   14.8926 C   0  0  0  0  0  0  0  0  0  0  0  0
   12.2880   16.4275   15.6565 O   0  0  0  0  0  0  0  0  0  0  0  0
    8.6329   12.3725   14.3643 C   0  0  0  0  0  0  0  0  0  0  0  0
    8.0137   11.3398   13.6555 C   0  0  0  0  0  0  0  0  0  0  0  0
   10.8189   14.8746   11.5488 C   0  0  0  0  0  0  0  0  0  0  0  0
   13.4258   20.0668   17.4112 O   0  0  0  0  0  0  0  0  0  0  0  0
    9.1356   17.3709   18.2059 C   0  0  0  0  0  0  0  0  0  0  0  0
   12.9343   16.3797   12.7836 C   0  0  0  0  0  0  0  0  0  0  0  0
    8.0857   14.9323   17.1133 C   0  0  0  0  0  0  0  0  0  0  0  0
   11.4712   16.6239   13.1342 C   0  0  0  0  0  0  0  0  0  0  0  0
    9.9579   16.3732   17.8507 C   0  0  0  0  0  0  0  0  0  0  0  0
   14.2988   18.1517   16.7845 O   0  0  0  0  0  0  0  0  0  0  0  0
   10.7899   15.0577   13.0576 N   0  0  0  0  0  0  0  0  0  0  0  0
   13.2787   21.6920   13.8060 O   0  0  0  0  0  0  0  0  0  0  0  0
  1 19  1  0
  1 30  2  0
  1 36  1  0
  2 25  2  0
  3 18  1  0
  4 12  2  0
  4 33  2  0
  5 14  1  0
  5 33  1  0
  6 34  1  0
  6 37  1  0
  7 12  1  0
  7 16  1  0
  8 22  1  0
  8 27  1  0
  9 11  2  0
  9 26  2  0
 10 13  1  0
 11 19  1  0
 11 20  1  0
 12 27  1  0
 13 33  1  0
 13 35  2  0
 14 31  2  0
 15 24  1  0
 15 32  1  0
 16 21  2  0
 17 23  1  0
 17 32  1  0
 18 28  1  0
 19 25  1  0
 20 34  1  0
 21 28  1  0
 22 37  1  0
 24 29  1  0
 25 38  1  0
 27 28  2  0
 29 37  1  0
 31 35  1  0
 32 34  1  0
M  END
>  <ID>  (1) 
conformer_0

$$$$
