
     RDKit          3D

 33 35  0  0  0  0  0  0  0  0999 V2000
   11.6540   15.2499   12.9687 C   0  0  0  0  0  0  0  0  0  0  0  0
   12.8896   15.6867   12.3038 C   0  0  0  0  0  0  0  0  0  0  0  0
    7.6957   12.9537   15.5340 C   0  0  0  0  0  0  0  0  0  0  0  0
    6.4091   11.1411   15.2305 N   0  0  0  0  0  0  0  0  0  0  0  0
    6.6501   12.1708   16.0479 C   0  0  0  0  0  0  0  0  0  0  0  0
   12.5568   17.1909   16.7926 O   0  0  0  0  0  1  0  0  0  0  0  0
    8.0815   12.2216   14.2936 C   0  0  0  0  0  0  0  0  0  0  0  0
    6.9763   17.5042   18.8999 O   0  0  0  0  0  0  0  0  0  0  0  0
    7.5849   14.9924   17.2903 C   0  0  0  0  0  0  0  0  0  0  0  0
    9.2908   14.9425   15.9263 C   0  0  0  0  0  0  0  0  0  0  0  0
   13.6871   18.2456   13.6868 C   0  0  0  0  0  0  0  0  0  0  0  0
   11.3512   18.6632   15.0511 C   0  0  0  0  0  0  0  0  0  0  0  0
   14.7934   17.3264   11.5977 O   0  0  0  0  0  1  0  0  0  0  0  0
   13.3751   17.3133   12.2922 S   0  0  0  0  0  3  0  0  0  0  0  0
    8.3635   16.1716   17.5917 C   0  0  0  0  0  0  0  0  0  0  0  0
   10.7562   13.5783   11.2394 C   0  0  0  0  0  0  0  0  0  0  0  0
    9.0607   12.5690   13.2328 C   0  0  0  0  0  0  0  0  0  0  0  0
   10.3077   17.4887   14.7810 C   0  0  0  0  0  0  0  0  0  0  0  0
   12.7630   19.5727   17.0072 O   0  0  0  0  0  1  0  0  0  0  0  0
    8.1727   17.2697   18.5341 C   0  0  0  0  0  0  0  0  0  0  0  0
    8.1536   14.2434   16.2209 C   0  0  0  0  0  0  0  0  0  0  0  0
    9.9330   12.4906   10.9328 C   0  0  0  0  0  0  0  0  0  0  0  0
    9.0981   11.9781   11.9482 C   0  0  0  0  0  0  0  0  0  0  0  0
   10.8002   14.0935   12.5452 C   0  0  0  0  0  0  0  0  0  0  0  0
   13.2503   15.0295   10.9705 C   0  0  0  0  0  0  0  0  0  0  0  0
    7.2875   11.1333   14.1859 N   0  0  0  0  0  0  0  0  0  0  0  0
   14.0474   18.4819   15.1648 C   0  0  0  0  0  0  0  0  0  0  0  0
    9.4084   16.0631   16.7462 N   0  0  0  0  0  0  0  0  0  0  0  0
   12.3758   18.2191   11.3189 C   0  0  0  0  0  0  0  0  0  0  0  0
    9.1403   18.0579   18.8194 O   0  0  0  0  0  0  0  0  0  0  0  0
   10.9262   16.1624   14.0343 C   0  0  0  0  0  0  0  0  0  0  0  0
    9.9976   13.5109   13.4639 C   0  0  0  0  0  0  0  0  0  0  0  0
   12.6405   18.4780   16.1109 S   0  0  0  0  0  4  0  0  0  0  0  0
  1  2  1  0
  1 24  1  0
  1 31  2  0
  2 14  1  0
  2 25  1  0
  3  5  1  0
  3  7  2  0
  3 21  1  0
  4  5  1  0
  4 26  1  0
  6 33  1  0
  7 17  1  0
  7 26  1  0
  8 20  2  0
  9 15  1  0
  9 21  1  0
 10 21  1  0
 10 28  1  0
 11 27  1  0
 12 18  1  0
 12 33  1  0
 13 14  2  0
 14 29  1  0
 15 20  1  0
 15 28  1  0
 16 22  2  0
 16 24  1  0
 17 23  2  0
 17 32  1  0
 18 31  2  0
 19 33  1  0
 20 30  1  0
 22 23  1  0
 24 32  2  0
 27 33  1  0
M  END
>  <ID>  (1) 
conformer_0

$$$$
