
     RDKit          3D

 34 38  0  0  0  0  0  0  0  0999 V2000
    9.3444   13.4203   14.7098 C   0  0  0  0  0  0  0  0  0  0  0  0
   10.8026   16.7026   11.9911 C   0  0  0  0  0  0  0  0  0  0  0  0
   14.0780   21.8379   14.3185 C   0  0  0  0  0  0  0  0  0  0  0  0
   12.2380   14.7002   12.4472 C   0  0  0  0  0  0  0  0  0  0  0  0
   15.3113   19.2043   16.9267 C   0  0  0  0  0  0  0  0  0  0  0  0
   14.0809   20.6742   15.2896 C   0  0  0  0  0  0  0  0  0  0  0  0
   12.3996   16.9382   13.5666 C   0  0  0  0  0  0  0  0  0  0  0  0
    8.1263   11.5501   14.0311 C   0  0  0  0  0  0  0  0  0  0  0  0
   10.6954   17.4538   16.7486 C   0  0  0  0  0  0  0  0  0  0  0  0
   10.2561   15.4429   15.6927 C   0  0  0  0  0  0  0  0  0  0  0  0
   13.3595   19.4900   14.6564 C   0  0  0  0  0  0  0  0  0  0  0  0
   11.4910   15.8377   13.0433 N   0  0  0  0  0  0  0  0  0  0  0  0
    6.2566   11.7361   15.5891 O   0  0  0  0  0  0  0  0  0  0  0  0
    7.7412   10.4225   13.4588 O   0  0  0  0  0  0  0  0  0  0  0  0
    8.1988   14.4680   16.6077 C   0  0  0  0  0  0  0  0  0  0  0  0
   13.5246   18.1726   15.4173 C   0  0  0  0  0  0  0  0  0  0  0  0
   11.1015   18.6185   16.9798 O   0  0  0  0  0  0  0  0  0  0  0  0
   11.1948   16.5550   15.7421 C   0  0  0  0  0  0  0  0  0  0  0  0
    7.4391   12.2105   15.1442 C   0  0  0  0  0  0  0  0  0  0  0  0
    9.4731   16.8006   17.4378 C   0  0  0  0  0  0  0  0  0  0  0  0
   11.3460   13.4477   12.1947 C   0  0  0  0  0  0  0  0  0  0  0  0
   15.2871   16.8298   16.5802 O   0  0  0  0  0  0  0  0  0  0  0  0
   10.0672   13.8491   11.6535 O   0  0  0  0  0  0  0  0  0  0  0  0
    9.1780   17.7202   18.5242 O   0  0  0  0  0  0  0  0  0  0  0  0
   12.8667   15.1388   11.1550 C   0  0  0  0  0  0  0  0  0  0  0  0
   10.2721   14.3725   14.8643 C   0  0  0  0  0  0  0  0  0  0  0  0
   14.7211   18.0174   16.2312 C   0  0  0  0  0  0  0  0  0  0  0  0
    9.2022   15.5210   16.6430 C   0  0  0  0  0  0  0  0  0  0  0  0
   14.3257   20.4271   16.7625 C   0  0  0  0  0  0  0  0  0  0  0  0
   11.5525   18.0460   12.7765 C   0  0  0  0  0  0  0  0  0  0  0  0
   13.2706   14.3805   13.5024 C   0  0  0  0  0  0  0  0  0  0  0  0
   12.4990   17.0281   15.1201 C   0  0  0  0  0  0  0  0  0  0  0  0
    8.2080   13.4091   15.6081 C   0  0  0  0  0  0  0  0  0  0  0  0
    9.3219   12.3498   13.7793 C   0  0  0  0  0  0  0  0  0  0  0  0
  1 26  1  0
  1 33  2  0
  1 34  1  0
  2 12  1  0
  2 30  1  0
  3  6  1  0
  4 12  1  0
  4 21  1  0
  4 25  1  0
  4 31  1  0
  5 27  1  0
  5 29  1  0
  6 11  1  0
  6 29  1  0
  7 12  1  0
  7 30  1  0
  7 32  1  0
  8 14  1  0
  8 19  2  0
  8 34  1  0
  9 17  2  0
  9 18  1  0
  9 20  1  0
 10 18  1  0
 10 26  2  0
 10 28  1  0
 11 16  1  0
 13 19  1  0
 15 28  2  0
 15 33  1  0
 16 27  1  0
 16 32  1  0
 18 32  1  0
 19 33  1  0
 20 24  1  0
 20 28  1  0
 21 23  1  0
 22 27  1  0
M  END
>  <ID>  (1) 
conformer_0

$$$$
