
     RDKit          3D

 31 35  0  0  0  0  0  0  0  0999 V2000
    9.7111   14.7029   15.1972 C   0  0  0  0  0  0  0  0  0  0  0  0
   11.2961   16.7041   12.3995 C   0  0  0  0  0  0  0  0  0  0  0  0
   12.1938   19.7744   14.1279 O   0  0  0  0  0  0  0  0  0  0  0  0
    6.7610   12.3187   16.1532 C   0  0  0  0  0  0  0  0  0  0  0  0
   11.1096   15.2269   12.5159 C   0  0  0  0  0  0  0  0  0  0  0  0
   10.5000   16.9023   16.3297 C   0  0  0  0  0  0  0  0  0  0  0  0
    9.4589   17.9484   18.2416 C   0  0  0  0  0  0  0  0  0  0  0  0
   13.4606   19.7431   16.9236 C   0  0  0  0  0  0  0  0  0  0  0  0
   10.3585   17.9403   17.2339 C   0  0  0  0  0  0  0  0  0  0  0  0
    8.5846   16.8278   18.4037 N   0  0  0  0  0  0  0  0  0  0  0  0
   11.5876   17.0450   15.4074 N   0  0  0  0  0  0  0  0  0  0  0  0
   10.4953   12.5793   12.1365 C   0  0  0  0  0  0  0  0  0  0  0  0
    8.5147   10.7426   12.6291 O   0  0  0  0  0  0  0  0  0  0  0  0
   11.6465   14.5486   11.4378 C   0  0  0  0  0  0  0  0  0  0  0  0
    9.9497   13.2089   13.2309 C   0  0  0  0  0  0  0  0  0  0  0  0
    9.6008   15.7627   16.3613 C   0  0  0  0  0  0  0  0  0  0  0  0
   14.6783   19.3974   14.8378 C   0  0  0  0  0  0  0  0  0  0  0  0
   11.3689   13.1984   11.2441 C   0  0  0  0  0  0  0  0  0  0  0  0
   14.0303   17.3604   16.2910 C   0  0  0  0  0  0  0  0  0  0  0  0
    8.9090   12.6547   14.0449 C   0  0  0  0  0  0  0  0  0  0  0  0
    8.7394   13.5418   15.1879 C   0  0  0  0  0  0  0  0  0  0  0  0
    9.8677   18.4503   13.2589 N   0  0  0  0  0  0  0  0  0  0  0  0
   10.3699   14.5063   13.5809 C   0  0  0  0  0  0  0  0  0  0  0  0
    8.1729   11.4262   13.6337 C   0  0  0  0  0  0  0  0  0  0  0  0
    7.0417   10.8924   14.2650 N   0  0  0  0  0  0  0  0  0  0  0  0
   13.5624   18.7326   15.7330 C   0  0  0  0  0  0  0  0  0  0  0  0
    7.7177   13.2669   16.0601 C   0  0  0  0  0  0  0  0  0  0  0  0
    6.4202   11.2544   15.3900 C   0  0  0  0  0  0  0  0  0  0  0  0
   11.2602   17.9382   13.1419 C   0  0  0  0  0  0  0  0  0  0  0  0
   12.1021   18.3482   14.6887 C   0  0  0  0  0  0  0  0  0  0  0  0
    8.6792   15.8056   17.4695 C   0  0  0  0  0  0  0  0  0  0  0  0
  1 16  1  0
  1 21  1  0
  1 23  2  0
  2  5  1  0
  2 29  1  0
  3 30  1  0
  4 27  2  0
  4 28  1  0
  5 14  2  0
  5 23  1  0
  6  9  1  0
  6 11  1  0
  6 16  2  0
  7  9  2  0
  7 10  1  0
  8 26  1  0
 10 31  2  0
 11 30  1  0
 12 15  2  0
 12 18  1  0
 13 24  2  0
 14 18  1  0
 15 20  1  0
 15 23  1  0
 16 31  1  0
 17 26  1  0
 19 26  1  0
 20 21  2  0
 20 24  1  0
 21 27  1  0
 22 29  1  0
 24 25  1  0
 25 28  2  0
 26 30  1  0
 29 30  1  0
M  END
>  <ID>  (1) 
conformer_0

$$$$
