
     RDKit          3D

 33 37  0  0  0  0  0  0  0  0999 V2000
    9.2195   12.0160   13.2381 C   0  0  0  0  0  0  0  0  0  0  0  0
   11.6892   17.4334   15.0029 C   0  0  0  0  0  0  0  0  0  0  0  0
    8.5992   11.0047   12.4790 C   0  0  0  0  0  0  0  0  0  0  0  0
   13.3315   19.5055   15.8331 C   0  0  0  0  0  0  0  0  0  0  0  0
   11.0708   13.7178   12.8461 C   0  0  0  0  0  0  0  0  0  0  0  0
   12.2024   17.2287   13.5342 C   0  0  0  0  0  0  0  0  0  0  0  0
   13.8023   19.4540   13.3524 C   0  0  0  0  0  0  0  0  0  0  0  0
    6.2492   11.1403   15.1849 N   0  0  0  0  0  0  0  0  0  0  0  0
    9.7818   12.7638   16.4825 C   0  0  0  0  0  0  0  0  0  0  0  0
   12.2998   18.4257   15.8871 C   0  0  0  0  0  0  0  0  0  0  0  0
   13.6135   17.9119   13.4805 C   0  0  0  0  0  0  0  0  0  0  0  0
   12.4434   13.6604   12.7139 C   0  0  0  0  0  0  0  0  0  0  0  0
    7.3235   11.2267   14.3315 C   0  0  0  0  0  0  0  0  0  0  0  0
   10.2145   16.3530   17.1411 C   0  0  0  0  0  0  0  0  0  0  0  0
   13.5451   21.6516   14.3393 O   0  0  0  0  0  0  0  0  0  0  0  0
   13.7424   20.3187   14.6217 C   0  0  0  0  0  0  0  0  0  0  0  0
    9.5068   15.0868   17.0861 C   0  0  0  0  0  0  0  0  0  0  0  0
   10.7806   15.0508   13.2356 C   0  0  0  0  0  0  0  0  0  0  0  0
    8.4938   12.1642   14.4781 C   0  0  0  0  0  0  0  0  0  0  0  0
   14.4970   17.2440   14.4360 O   0  0  0  0  0  0  0  0  0  0  0  0
   10.4889   16.8007   15.7336 C   0  0  0  0  0  0  0  0  0  0  0  0
    7.7712   13.9870   15.9081 C   0  0  0  0  0  0  0  0  0  0  0  0
    7.4492   10.5384   13.2084 N   0  0  0  0  0  0  0  0  0  0  0  0
   10.2778   12.6545   12.6852 N   0  0  0  0  0  0  0  0  0  0  0  0
    8.6646   12.9573   15.6469 C   0  0  0  0  0  0  0  0  0  0  0  0
   11.4865   18.6988   16.9982 O   0  0  0  0  0  0  0  0  0  0  0  0
   10.0875   18.2924   12.8665 O   0  0  0  0  0  0  0  0  0  0  0  0
   11.9753   15.7850   13.3341 C   0  0  0  0  0  0  0  0  0  0  0  0
   10.2016   13.8542   17.2392 C   0  0  0  0  0  0  0  0  0  0  0  0
    8.1858   15.0772   16.6211 C   0  0  0  0  0  0  0  0  0  0  0  0
   12.9936   14.9162   13.0614 C   0  0  0  0  0  0  0  0  0  0  0  0
   13.4485   20.0893   12.1858 O   0  0  0  0  0  0  0  0  0  0  0  0
   11.4836   17.9636   12.4618 N   0  0  0  0  0  0  0  0  0  0  0  0
  1  3  1  0
  1 19  1  0
  1 24  2  0
  2  6  1  0
  2 10  2  0
  2 21  1  0
  3 23  1  0
  4 10  1  0
  4 16  1  0
  5 12  1  0
  5 18  1  0
  5 24  1  0
  6 11  1  0
  6 28  1  0
  6 33  1  0
  7 11  1  0
  7 16  1  0
  7 32  1  0
  8 13  2  0
  9 25  1  0
  9 29  2  0
 10 26  1  0
 11 20  1  0
 12 31  1  0
 13 19  1  0
 13 23  1  0
 14 17  1  0
 14 21  1  0
 15 16  1  0
 17 29  1  0
 17 30  1  0
 18 28  1  0
 19 25  1  0
 22 25  1  0
 22 30  2  0
 27 33  1  0
 28 31  1  0
M  END
>  <ID>  (1) 
conformer_0

$$$$
