
     RDKit          3D

 33 37  0  0  0  0  0  0  0  0999 V2000
    7.7775   12.6632   15.5964 N   0  0  0  0  0  0  0  0  0  0  0  0
    6.6516   17.7466   19.1846 C   0  0  0  0  0  0  0  0  0  0  0  0
   11.5369   13.5914   12.3091 N   0  0  0  0  0  0  0  0  0  0  0  0
    9.0164   15.7284   17.1312 C   0  0  0  0  0  0  0  0  0  0  0  0
   11.9501   17.3907   12.0201 C   0  0  0  0  0  0  0  0  0  0  0  0
    8.5397   11.7965   13.5048 C   0  0  0  0  0  0  0  0  0  0  0  0
    9.6331   11.4873   11.2275 C   0  0  0  0  0  0  0  0  0  0  0  0
    6.7370   11.8142   15.6637 C   0  0  0  0  0  0  0  0  0  0  0  0
   11.4221   17.7907   13.3829 N   0  0  0  0  0  0  0  0  0  0  0  0
   13.6646   20.5703   14.6707 O   0  0  0  0  0  0  0  0  0  0  0  0
   12.1471   18.7423   14.2336 C   0  0  0  0  0  0  0  0  0  0  0  0
    7.7304   15.7724   17.6835 C   0  0  0  0  0  0  0  0  0  0  0  0
   10.4166   13.1340   13.0057 C   0  0  0  0  0  0  0  0  0  0  0  0
    7.7617   17.1589   18.4890 N   0  0  0  0  0  0  0  0  0  0  0  0
    6.8606   18.3597   20.5474 C   0  0  0  0  0  0  0  0  0  0  0  0
    8.6951   12.7062   14.5681 C   0  0  0  0  0  0  0  0  0  0  0  0
   12.8932   19.9085   13.5412 C   0  0  0  0  0  0  0  0  0  0  0  0
    9.8765   13.5570   14.2474 C   0  0  0  0  0  0  0  0  0  0  0  0
   13.6638   20.1618   17.2284 O   0  0  0  0  0  0  0  0  0  0  0  0
   12.0202   17.9319   16.6210 N   0  0  0  0  0  0  0  0  0  0  0  0
    9.0036   17.7437   18.3200 C   0  0  0  0  0  0  0  0  0  0  0  0
    9.6905   14.5759   16.4695 C   0  0  0  0  0  0  0  0  0  0  0  0
   10.0400   13.5105   17.3403 O   0  0  0  0  0  0  0  0  0  0  0  0
   13.5016   19.9101   15.9290 C   0  0  0  0  0  0  0  0  0  0  0  0
   10.1628   14.5593   15.1525 C   0  0  0  0  0  0  0  0  0  0  0  0
   12.6696   18.6843   15.6429 C   0  0  0  0  0  0  0  0  0  0  0  0
   11.2023   16.0708   11.6458 C   0  0  0  0  0  0  0  0  0  0  0  0
   12.1359   14.8236   11.8115 C   0  0  0  0  0  0  0  0  0  0  0  0
    7.5048   10.9068   13.5813 N   0  0  0  0  0  0  0  0  0  0  0  0
   10.9663   17.2684   16.9285 N   0  0  0  0  0  0  0  0  0  0  0  0
    9.5456   12.0584   12.5574 N   0  0  0  0  0  0  0  0  0  0  0  0
    6.6217   10.9094   14.6115 C   0  0  0  0  0  0  0  0  0  0  0  0
    9.7338   16.9239   17.4452 C   0  0  0  0  0  0  0  0  0  0  0  0
  1  8  2  0
  1 16  1  0
  2 14  1  0
  2 15  1  0
  3 13  1  0
  3 28  1  0
  4 12  1  0
  4 22  1  0
  4 33  1  0
  5  9  1  0
  5 27  1  0
  6 16  2  0
  6 29  1  0
  6 31  1  0
  7 31  1  0
  8 32  1  0
  9 11  1  0
 10 17  1  0
 10 24  1  0
 11 17  1  0
 11 26  1  0
 12 14  1  0
 13 18  2  0
 13 31  1  0
 14 21  1  0
 16 18  1  0
 18 25  1  0
 19 24  2  0
 20 26  1  0
 20 30  1  0
 21 33  1  0
 22 23  1  0
 22 25  1  0
 24 26  1  0
 27 28  1  0
 29 32  2  0
 30 33  1  0
M  END
>  <ID>  (1) 
conformer_0

$$$$
