
     RDKit          3D

 29 34  0  0  0  0  0  0  0  0999 V2000
   11.6184   16.4705   14.9782 C   0  0  0  0  0  0  0  0  0  0  0  0
    8.8697   12.3038   13.7454 C   0  0  0  0  0  0  0  0  0  0  0  0
   11.5059   13.9258   11.6298 C   0  0  0  0  0  0  0  0  0  0  0  0
   12.4177   14.9682   11.6756 C   0  0  0  0  0  0  0  0  0  0  0  0
    8.0308   13.4133   15.7914 C   0  0  0  0  0  0  0  0  0  0  0  0
   10.5675   16.3845   15.9857 C   0  0  0  0  0  0  0  0  0  0  0  0
   13.3009   19.9387   14.9121 N   0  0  0  0  0  0  0  0  0  0  0  0
   13.5423   20.9195   13.9765 C   0  0  0  0  0  0  0  0  0  0  0  0
    9.8201   11.5603   11.5278 C   0  0  0  0  0  0  0  0  0  0  0  0
    8.4099   14.5909   16.5932 C   0  0  0  0  0  0  0  0  0  0  0  0
    8.9304   13.2628   14.7607 C   0  0  0  0  0  0  0  0  0  0  0  0
   11.6490   15.5612   13.8710 C   0  0  0  0  0  0  0  0  0  0  0  0
    7.7881   11.3270   13.9083 C   0  0  0  0  0  0  0  0  0  0  0  0
   12.0699   18.0504   16.5774 O   0  0  0  0  0  0  0  0  0  0  0  0
   13.5846   22.1847   14.3527 N   0  0  0  0  0  0  0  0  0  0  0  0
   10.6837   13.5861   12.7033 C   0  0  0  0  0  0  0  0  0  0  0  0
    9.8931   17.9409   17.6201 O   0  0  0  0  0  0  0  0  0  0  0  0
    9.9196   14.2732   14.8880 C   0  0  0  0  0  0  0  0  0  0  0  0
    9.6053   15.2245   15.9153 C   0  0  0  0  0  0  0  0  0  0  0  0
    6.9826   12.4944   15.8667 C   0  0  0  0  0  0  0  0  0  0  0  0
    7.7069   10.2983   13.0909 O   0  0  0  0  0  0  0  0  0  0  0  0
   12.5069   17.5716   15.2591 C   0  0  0  0  0  0  0  0  0  0  0  0
   13.6678   20.6811   12.5392 C   0  0  0  0  0  0  0  0  0  0  0  0
   12.5223   15.7431   12.8002 C   0  0  0  0  0  0  0  0  0  0  0  0
    9.8280   12.4181   12.6635 C   0  0  0  0  0  0  0  0  0  0  0  0
    6.8645   11.4727   14.9332 C   0  0  0  0  0  0  0  0  0  0  0  0
   10.7827   14.4585   13.7940 C   0  0  0  0  0  0  0  0  0  0  0  0
   10.7834   17.5744   16.8094 C   0  0  0  0  0  0  0  0  0  0  0  0
   13.5547   18.4794   14.7005 C   0  0  0  0  0  0  0  0  0  0  0  0
  1  6  2  0
  1 12  1  0
  1 22  1  0
  2 11  1  0
  2 13  1  0
  2 25  2  0
  3  4  2  0
  3 16  1  0
  4 24  1  0
  5 10  1  0
  5 11  2  0
  5 20  1  0
  6 19  1  0
  6 28  1  0
  7  8  1  0
  7 29  1  0
  8 15  2  0
  8 23  1  0
  9 25  1  0
 10 19  1  0
 11 18  1  0
 12 24  2  0
 12 27  1  0
 13 21  1  0
 13 26  2  0
 14 22  1  0
 14 28  1  0
 16 25  1  0
 16 27  2  0
 17 28  2  0
 18 19  1  0
 18 27  1  0
 20 26  1  0
 22 29  1  0
M  END
>  <ID>  (1) 
conformer_0

$$$$
