
     RDKit          3D

 40 45  0  0  0  0  0  0  0  0999 V2000
   12.2340   16.8959   14.6310 C   0  0  0  0  0  0  0  0  0  0  0  0
    7.6845   15.6100   17.8362 C   0  0  0  0  0  0  0  0  0  0  0  0
   12.5270   14.6335   10.4584 C   0  0  0  0  0  0  0  0  0  0  0  0
   10.4777   17.8014   16.9387 C   0  0  0  0  0  0  0  0  0  0  0  0
    9.3969   12.2654   12.7523 N   0  0  0  0  0  0  0  0  0  0  0  0
   13.7730   20.5103   14.8910 P   0  0  0  0  0  4  0  0  0  0  0  0
   13.7225   21.7120   15.9119 O   0  0  0  0  0  1  0  0  0  0  0  0
   11.3939   15.9715   14.9199 C   0  0  0  0  0  0  0  0  0  0  0  0
    6.9250   11.8270   15.2964 C   0  0  0  0  0  0  0  0  0  0  0  0
   11.3786   18.3875   16.2734 C   0  0  0  0  0  0  0  0  0  0  0  0
    7.1594   12.8866   16.1711 C   0  0  0  0  0  0  0  0  0  0  0  0
    7.7498   10.6790   13.0321 N   0  0  0  0  0  0  0  0  0  0  0  0
   10.4085   15.4656   15.4388 C   0  0  0  0  0  0  0  0  0  0  0  0
    8.5451   16.8011   18.1804 C   0  0  0  0  0  0  0  0  0  0  0  0
   10.3605   13.0467   12.2484 C   0  0  0  0  0  0  0  0  0  0  0  0
   11.8010   13.6750   10.4250 N   0  0  0  0  0  0  0  0  0  0  0  0
    9.5575   16.8801   17.2127 C   0  0  0  0  0  0  0  0  0  0  0  0
    6.9832   17.8762   19.5105 O   0  0  0  0  0  0  0  0  0  0  0  0
    5.9234   10.9771   15.4514 N   0  0  0  0  0  0  0  0  0  0  0  0
    9.4580   10.8499   10.8350 C   0  0  0  0  0  0  0  0  0  0  0  0
   13.2224   16.2375   13.6837 C   0  0  0  0  0  0  0  0  0  0  0  0
   12.1366   18.2345   15.1577 C   0  0  0  0  0  0  0  0  0  0  0  0
   12.5168   19.4517   14.5132 N   0  0  0  0  0  0  0  0  0  0  0  0
    9.2762    9.6023    9.9330 C   0  0  0  0  0  0  0  0  0  0  0  0
   13.0280   15.5511   11.3338 C   0  0  0  0  0  0  0  0  0  0  0  0
    8.1885   13.7640   15.9334 C   0  0  0  0  0  0  0  0  0  0  0  0
    8.9939   18.7084   19.4264 O   0  0  0  0  0  0  0  0  0  0  0  0
   10.8764   12.8420   10.9993 C   0  0  0  0  0  0  0  0  0  0  0  0
    8.8130   11.1407   12.1543 C   0  0  0  0  0  0  0  0  0  0  0  0
   12.7726   15.7433   12.5390 N   0  0  0  0  0  0  0  0  0  0  0  0
   13.9159   21.2625   13.4688 O   0  0  0  0  0  0  0  0  0  0  0  0
    9.0331   13.4921   14.8630 C   0  0  0  0  0  0  0  0  0  0  0  0
    8.3461   14.9306   16.7788 C   0  0  0  0  0  0  0  0  0  0  0  0
   14.3685   15.9690   14.1245 O   0  0  0  0  0  0  0  0  0  0  0  0
    8.1979   17.7701   19.1336 C   0  0  0  0  0  0  0  0  0  0  0  0
    9.4787   15.7161   16.3927 C   0  0  0  0  0  0  0  0  0  0  0  0
    8.7728   12.5353   13.9706 C   0  0  0  0  0  0  0  0  0  0  0  0
    7.7506   11.6440   14.1882 N   0  0  0  0  0  0  0  0  0  0  0  0
   14.8171   19.5618   15.3930 O   0  0  0  0  0  0  0  0  0  0  0  0
   10.3825   11.7386   10.3121 C   0  0  0  0  0  0  0  0  0  0  0  0
  1  8  2  0
  1 21  1  0
  1 22  1  0
  2 14  1  0
  2 33  1  0
  3 16  2  0
  3 25  1  0
  4 10  2  0
  4 17  2  0
  5 15  1  0
  5 29  1  0
  5 37  1  0
  6  7  2  0
  6 23  1  0
  6 31  1  0
  6 39  1  0
  8 13  2  0
  9 11  1  0
  9 19  2  0
  9 38  1  0
 10 22  1  0
 11 26  2  0
 12 29  2  0
 12 38  1  0
 13 36  1  0
 14 17  1  0
 14 35  1  0
 15 28  2  0
 16 28  1  0
 17 36  1  0
 18 35  2  0
 20 24  1  0
 20 29  1  0
 20 40  2  0
 21 30  1  0
 21 34  2  0
 22 23  1  0
 25 30  1  0
 26 32  1  0
 26 33  1  0
 27 35  1  0
 28 40  1  0
 32 37  2  0
 33 36  2  0
 37 38  1  0
M  END
>  <ID>  (1) 
conformer_0

$$$$
