
     RDKit          3D

 44 48  0  0  0  0  0  0  0  0999 V2000
    9.3907   16.6474   17.3439 C   0  0  0  0  0  0  0  0  0  0  0  0
    8.8416   14.1700   15.7215 N   0  0  0  0  0  0  0  0  0  0  0  0
   13.0262   17.9600   13.1646 C   0  0  0  0  0  0  0  0  0  0  0  0
   10.6032   18.5140   17.7977 N   0  0  0  0  0  0  0  0  0  0  0  0
    9.4146   10.6573   10.7892 C   0  0  0  0  0  0  0  0  0  0  0  0
   13.1136   19.3818   12.3006 C   0  0  0  0  0  0  0  0  0  0  0  0
    6.7021   10.6524   14.4220 C   0  0  0  0  0  0  0  0  0  0  0  0
    7.5211   10.5829   13.4312 N   0  0  0  0  0  0  0  0  0  0  0  0
    8.4568   14.3614   17.0968 C   0  0  0  0  0  0  0  0  0  0  0  0
   15.1025   19.6626   16.9445 O   0  0  0  0  0  0  0  0  0  0  0  0
   11.3533   17.8087   16.9138 C   0  0  0  0  0  0  0  0  0  0  0  0
   14.4388   21.7603   14.6781 C   0  0  0  0  0  0  0  0  0  0  0  0
    9.9953   17.5124   13.0207 C   0  0  0  0  0  0  0  0  0  0  0  0
   10.0731    9.3523    7.8921 C   0  0  0  0  0  0  0  0  0  0  0  0
   14.6733   20.3611   14.7397 N   0  0  0  0  0  0  0  0  0  0  0  0
   10.4145   11.0496    9.7062 C   0  0  0  0  0  0  0  0  0  0  0  0
    7.1518   12.4988   15.8367 N   0  0  0  0  0  0  0  0  0  0  0  0
   12.6821   18.2330   16.7519 C   0  0  0  0  0  0  0  0  0  0  0  0
   12.4420   14.5619   12.0848 C   0  0  0  0  0  0  0  0  0  0  0  0
   14.4934   19.5605   15.8391 C   0  0  0  0  0  0  0  0  0  0  0  0
    8.8546   12.5363   14.0211 C   0  0  0  0  0  0  0  0  0  0  0  0
    8.4849   11.4636   13.1972 C   0  0  0  0  0  0  0  0  0  0  0  0
   11.1140   12.8482   11.1126 C   0  0  0  0  0  0  0  0  0  0  0  0
    9.9900   13.1878   13.4357 C   0  0  0  0  0  0  0  0  0  0  0  0
   15.3089   22.5214   15.3178 O   0  0  0  0  0  0  0  0  0  0  0  0
   13.5357   17.8990   14.4512 C   0  0  0  0  0  0  0  0  0  0  0  0
   11.2056   12.1985    9.9337 N   0  0  0  0  0  0  0  0  0  0  0  0
   10.5678   16.6539   16.5522 C   0  0  0  0  0  0  0  0  0  0  0  0
    6.4657   11.4111   15.4729 C   0  0  0  0  0  0  0  0  0  0  0  0
   10.9500   17.1900   11.8991 C   0  0  0  0  0  0  0  0  0  0  0  0
   13.4198   22.1953   14.0296 O   0  0  0  0  0  0  0  0  0  0  0  0
   11.1111   10.2793    8.4093 C   0  0  0  0  0  0  0  0  0  0  0  0
   12.3019   16.9007   12.5195 C   0  0  0  0  0  0  0  0  0  0  0  0
   12.7044   15.5972   12.7717 C   0  0  0  0  0  0  0  0  0  0  0  0
    8.7144   18.1998   19.1760 O   0  0  0  0  0  0  0  0  0  0  0  0
    8.2494   15.7282   17.4377 C   0  0  0  0  0  0  0  0  0  0  0  0
    9.4938   17.8470   18.1268 C   0  0  0  0  0  0  0  0  0  0  0  0
    9.3046   11.4317   12.0313 C   0  0  0  0  0  0  0  0  0  0  0  0
   13.8034   15.1319   14.0206 S   0  0  0  0  0  0  0  0  0  0  0  0
   13.5773   18.4464   15.7064 C   0  0  0  0  0  0  0  0  0  0  0  0
    7.1403   16.1637   17.9089 O   0  0  0  0  0  0  0  0  0  0  0  0
   10.2144   12.5494   12.1877 C   0  0  0  0  0  0  0  0  0  0  0  0
   11.9999   13.9431   11.1691 C   0  0  0  0  0  0  0  0  0  0  0  0
    8.2525   13.0472   15.1958 C   0  0  0  0  0  0  0  0  0  0  0  0
  1 28  1  0
  1 36  1  0
  1 37  1  0
  2  9  1  0
  2 44  2  0
  3  6  1  0
  3 26  1  0
  3 33  1  0
  4 11  1  0
  4 37  1  0
  5 16  2  0
  5 38  1  0
  7  8  2  0
  7 29  1  0
  8 22  1  0
  9 36  1  0
 10 20  2  0
 11 18  1  0
 11 28  1  0
 12 15  1  0
 12 25  2  0
 12 31  1  0
 13 30  1  0
 14 32  1  0
 15 20  1  0
 16 27  1  0
 16 32  1  0
 17 29  2  0
 17 44  1  0
 18 40  1  0
 19 34  2  0
 19 43  2  0
 20 40  1  0
 21 22  2  0
 21 24  1  0
 21 44  1  0
 22 38  1  0
 23 27  2  0
 23 42  1  0
 23 43  1  0
 24 42  1  0
 26 40  1  0
 30 33  1  0
 33 34  1  0
 34 39  1  0
 35 37  2  0
 36 41  2  0
 38 42  2  0
M  END
>  <ID>  (1) 
conformer_0

$$$$
