
     RDKit          3D

 34 39  0  0  0  0  0  0  0  0999 V2000
    7.5045   15.0173   17.3761 C   0  0  0  0  0  0  0  0  0  0  0  0
   10.5889   14.3986   13.7373 C   0  0  0  0  0  0  0  0  0  0  0  0
    9.4406   13.6059   14.6092 C   0  0  0  0  0  0  0  0  0  0  0  0
    6.0185   11.0980   15.0227 O   0  0  0  0  0  0  0  0  0  0  0  0
    8.0968   11.6924   14.0330 C   0  0  0  0  0  0  0  0  0  0  0  0
   11.4228   14.4877   11.0847 C   0  0  0  0  0  0  0  0  0  0  0  0
    7.9556   10.5531   13.2815 O   0  0  0  0  0  0  0  0  0  0  0  0
   11.6636   18.2433   15.9177 C   0  0  0  0  0  0  0  0  0  0  0  0
   11.3620   15.5774   13.2929 C   0  0  0  0  0  0  0  0  0  0  0  0
   14.2462   20.8112   15.7711 P   0  0  0  0  0  4  0  0  0  0  0  0
   12.2550   18.0772   11.9875 C   0  0  0  0  0  0  0  0  0  0  0  0
   15.7131   20.9819   15.5671 O   0  0  0  0  0  1  0  0  0  0  0  0
    7.1013   11.9441   15.0594 C   0  0  0  0  0  0  0  0  0  0  0  0
   10.2876   13.3462   12.9216 C   0  0  0  0  0  0  0  0  0  0  0  0
   12.2898   19.1196   14.8819 C   0  0  0  0  0  0  0  0  0  0  0  0
   11.7000   16.8349   15.4991 C   0  0  0  0  0  0  0  0  0  0  0  0
    7.7478   13.9206   16.4289 C   0  0  0  0  0  0  0  0  0  0  0  0
   11.8111   16.7984   13.9902 C   0  0  0  0  0  0  0  0  0  0  0  0
   12.6689   19.1655   11.2538 N   0  0  0  0  0  0  0  0  0  0  0  0
    9.3634   16.4413   16.3965 C   0  0  0  0  0  0  0  0  0  0  0  0
   13.8667   19.1052   15.1518 C   0  0  0  0  0  0  0  0  0  0  0  0
   11.6685   15.6292   11.8974 C   0  0  0  0  0  0  0  0  0  0  0  0
   10.6833   15.8862   15.9826 C   0  0  0  0  0  0  0  0  0  0  0  0
    7.1339   12.9059   16.0076 C   0  0  0  0  0  0  0  0  0  0  0  0
   10.7839   13.3249   11.6342 C   0  0  0  0  0  0  0  0  0  0  0  0
   13.6430   22.2046   15.1923 O   0  0  0  0  0  0  0  0  0  0  0  0
    9.2397   12.5734   13.7512 C   0  0  0  0  0  0  0  0  0  0  0  0
   14.2586   17.9250   15.8845 O   0  0  0  0  0  0  0  0  0  0  0  0
    8.7883   13.9024   15.6842 C   0  0  0  0  0  0  0  0  0  0  0  0
   12.0698   18.2479   13.4898 C   0  0  0  0  0  0  0  0  0  0  0  0
   13.7789   20.7287   17.3151 O   0  0  0  0  0  0  0  0  0  0  0  0
   11.3428   18.5934   17.0524 O   0  0  0  0  0  0  0  0  0  0  0  0
   12.1165   16.8277   11.4068 N   0  0  0  0  0  0  0  0  0  0  0  0
    8.7206   15.8510   17.6005 C   0  0  0  0  0  0  0  0  0  0  0  0
  1 17  1  0
  1 34  1  0
  2  3  1  0
  2  9  1  0
  2 14  2  0
  3 27  2  0
  3 29  1  0
  4 13  1  0
  5  7  1  0
  5 13  2  0
  5 27  1  0
  6 22  1  0
  6 25  2  0
  8 15  1  0
  8 16  1  0
  8 32  2  0
  9 18  1  0
  9 22  1  0
 10 12  2  0
 10 21  1  0
 10 26  1  0
 10 31  1  0
 11 19  2  0
 11 30  1  0
 11 33  1  0
 13 24  1  0
 14 25  1  0
 14 27  1  0
 15 21  1  0
 15 30  1  0
 16 18  1  0
 16 23  1  0
 17 24  2  0
 17 29  1  0
 18 30  1  0
 20 23  1  0
 20 34  1  0
 21 28  1  0
 22 33  2  0
M  END
>  <ID>  (1) 
conformer_0

$$$$
