
     RDKit          3D

 44 48  0  0  0  0  0  0  0  0999 V2000
   10.0022   12.5068   10.1465 C   0  0  0  0  0  0  0  0  0  0  0  0
    6.2263   11.3494   15.7248 O   0  0  0  0  0  0  0  0  0  0  0  0
   11.8270   16.9478   16.8558 C   0  0  0  0  0  0  0  0  0  0  0  0
   13.0997   20.1988   13.6855 C   0  0  0  0  0  0  0  0  0  0  0  0
   10.5509   16.2777   16.5253 C   0  0  0  0  0  0  0  0  0  0  0  0
   11.8662   18.3243   16.9411 O   0  0  0  0  0  0  0  0  0  0  0  0
   10.4766   15.9647   15.0757 C   0  0  0  0  0  0  0  0  0  0  0  0
    8.1737   16.1506   17.6512 C   0  0  0  0  0  0  0  0  0  0  0  0
    7.2214   16.8245   18.3347 O   0  0  0  0  0  0  0  0  0  0  0  0
   11.3511   13.5393   10.4252 C   0  0  0  0  0  0  0  0  0  0  0  0
   11.4908   15.8845   12.1840 C   0  0  0  0  0  0  0  0  0  0  0  0
   14.4558   17.9042   15.9011 O   0  0  0  0  0  1  0  0  0  0  0  0
    7.2648   10.6250   13.7045 O   0  0  0  0  0  0  0  0  0  0  0  0
   12.7315   21.4194   13.4531 O   0  0  0  0  0  0  0  0  0  0  0  0
    6.8085   18.3869   19.9964 O   0  0  0  0  0  0  0  0  0  0  0  0
   14.1764   16.3061   10.1628 O   0  0  0  0  0  0  0  0  0  0  0  0
   14.4758   19.8358   14.1382 C   0  0  0  0  0  0  0  0  0  0  0  0
   13.7061   21.0069   16.2789 O   0  0  0  0  0  0  0  0  0  0  0  0
    7.6418   17.6944   19.3305 C   0  0  0  0  0  0  0  0  0  0  0  0
   12.0551   19.2009   13.6618 C   0  0  0  0  0  0  0  0  0  0  0  0
   11.9735   18.2803   12.4427 C   0  0  0  0  0  0  0  0  0  0  0  0
   10.5408   17.1224   14.1092 C   0  0  0  0  0  0  0  0  0  0  0  0
   14.4735   19.5594   16.0425 P   0  0  0  0  0  4  0  0  0  0  0  0
   11.0567   17.1260   12.7507 N   0  0  0  0  0  0  0  0  0  0  0  0
   12.9498   15.6183   12.1143 C   0  0  0  0  0  0  0  0  0  0  0  0
    7.1223   11.4111   14.8129 C   0  0  0  0  0  0  0  0  0  0  0  0
   12.5255   14.4840    9.9781 N   0  0  0  0  0  0  0  0  0  0  0  0
    9.4307   16.7343   17.3553 C   0  0  0  0  0  0  0  0  0  0  0  0
    8.6706   14.5080   16.0016 C   0  0  0  0  0  0  0  0  0  0  0  0
   13.4990   15.2433   10.7631 C   0  0  0  0  0  0  0  0  0  0  0  0
   13.7396   15.8258   13.1261 O   0  0  0  0  0  0  0  0  0  0  0  0
    7.8323   15.0925   16.9297 O   0  0  0  0  0  0  0  0  0  0  0  0
   11.4047   13.3916   12.0393 C   0  0  0  0  0  0  0  0  0  0  0  0
    9.6974   17.8520   18.1797 C   0  0  0  0  0  0  0  0  0  0  0  0
    8.9079   12.0625   13.7025 C   0  0  0  0  0  0  0  0  0  0  0  0
    9.4013   11.0714   10.5904 C   0  0  0  0  0  0  0  0  0  0  0  0
   15.3112   19.5467   17.4710 O   0  0  0  0  0  0  0  0  0  0  0  0
    8.6802   10.4837   11.6815 C   0  0  0  0  0  0  0  0  0  0  0  0
    8.2195   13.1897   15.8382 N   0  0  0  0  0  0  0  0  0  0  0  0
    8.9889   17.9481   19.3329 N   0  0  0  0  0  0  0  0  0  0  0  0
    8.3454   11.0509   12.9591 C   0  0  0  0  0  0  0  0  0  0  0  0
    8.1913   12.3554   14.8114 C   0  0  0  0  0  0  0  0  0  0  0  0
    9.4825   14.9313   14.8910 C   0  0  0  0  0  0  0  0  0  0  0  0
   10.6653   14.6708   12.5373 C   0  0  0  0  0  0  0  0  0  0  0  0
  1 10  1  0
  1 36  1  0
  2 26  2  0
  3  5  1  0
  3  6  1  0
  4 14  1  0
  4 17  1  0
  4 20  1  0
  5  7  1  0
  5 28  1  0
  7 22  1  0
  7 43  1  0
  8  9  1  0
  8 28  1  0
  8 32  1  0
  9 19  1  0
 10 27  2  0
 10 33  1  0
 11 24  1  0
 11 25  1  0
 11 44  1  0
 12 23  2  0
 13 26  1  0
 13 41  1  0
 15 19  2  0
 16 30  1  0
 17 23  1  0
 18 23  1  0
 19 40  1  0
 20 21  1  0
 21 24  1  0
 22 24  1  0
 23 37  1  0
 25 30  1  0
 25 31  1  0
 26 42  1  0
 27 30  1  0
 28 34  1  0
 29 32  1  0
 29 39  1  0
 29 43  1  0
 33 44  1  0
 34 40  1  0
 35 41  1  0
 35 42  1  0
 36 38  2  0
 38 41  1  0
 39 42  1  0
M  END
>  <ID>  (1) 
conformer_0

$$$$
