
     RDKit          3D

 27 31  0  0  0  0  0  0  0  0999 V2000
   12.2550   17.1403   13.7076 N   0  0  0  0  0  0  0  0  0  0  0  0
    8.6502   11.5111   13.1966 C   0  0  0  0  0  0  0  0  0  0  0  0
    9.8317   14.9092   15.4935 C   0  0  0  0  0  0  0  0  0  0  0  0
   11.9921   17.0565   12.2610 C   0  0  0  0  0  0  0  0  0  0  0  0
    9.4802   16.9747   17.4499 C   0  0  0  0  0  0  0  0  0  0  0  0
   12.5458   19.3415   12.8081 C   0  0  0  0  0  0  0  0  0  0  0  0
    7.4506   16.2197   18.1152 O   0  0  0  0  0  0  0  0  0  0  0  0
    8.7482   14.9183   16.4286 C   0  0  0  0  0  0  0  0  0  0  0  0
   12.8793   20.7270   13.1092 N   0  0  0  0  0  0  0  0  0  0  0  0
    7.7806   17.4086   18.9061 C   0  0  0  0  0  0  0  0  0  0  0  0
    6.8883   11.2886   14.7667 O   0  0  0  0  0  0  0  0  0  0  0  0
   10.5980   16.9133   16.6177 C   0  0  0  0  0  0  0  0  0  0  0  0
    8.4773   13.0676   15.0658 C   0  0  0  0  0  0  0  0  0  0  0  0
    9.6341   13.7669   14.6177 N   0  0  0  0  0  0  0  0  0  0  0  0
   12.0551   16.0151   14.7543 C   0  0  0  0  0  0  0  0  0  0  0  0
    7.9648   13.7297   16.2349 C   0  0  0  0  0  0  0  0  0  0  0  0
   10.2705   13.2998   13.4926 C   0  0  0  0  0  0  0  0  0  0  0  0
    8.5309   15.9681   17.3205 C   0  0  0  0  0  0  0  0  0  0  0  0
   10.7853   15.9373   15.6182 C   0  0  0  0  0  0  0  0  0  0  0  0
   12.1376   18.3560   11.7734 N   0  0  0  0  0  0  0  0  0  0  0  0
   12.6050   18.5243   14.0491 C   0  0  0  0  0  0  0  0  0  0  0  0
    7.9826   11.9431   14.3752 C   0  0  0  0  0  0  0  0  0  0  0  0
   13.0635   19.0687   15.3512 C   0  0  0  0  0  0  0  0  0  0  0  0
   12.0183   15.5839   11.8215 C   0  0  0  0  0  0  0  0  0  0  0  0
    9.8147   12.2191   12.7864 C   0  0  0  0  0  0  0  0  0  0  0  0
    9.1224   17.8433   18.3871 O   0  0  0  0  0  0  0  0  0  0  0  0
    8.1485   10.4867   12.4981 O   0  0  0  0  0  0  0  0  0  0  0  0
  1  4  1  0
  1 15  1  0
  1 21  1  0
  2 22  1  0
  2 25  2  0
  2 27  1  0
  3  8  2  0
  3 14  1  0
  3 19  1  0
  4 20  2  0
  4 24  1  0
  5 12  1  0
  5 18  2  0
  5 26  1  0
  6  9  2  0
  6 20  1  0
  6 21  1  0
  7 10  1  0
  7 18  1  0
  8 16  1  0
  8 18  1  0
 10 26  1  0
 11 22  1  0
 12 19  2  0
 13 14  1  0
 13 16  1  0
 13 22  2  0
 14 17  1  0
 15 19  1  0
 17 25  1  0
 21 23  1  0
M  END
>  <ID>  (1) 
conformer_0

$$$$
