
     RDKit          3D

 37 40  0  0  0  0  0  0  0  0999 V2000
    7.7949   10.9972   13.6309 C   0  0  0  0  0  0  0  0  0  0  0  0
    8.3281   12.9631   15.1331 C   0  0  0  0  0  0  0  0  0  0  0  0
   14.1898   15.8963   14.1571 C   0  0  0  0  0  0  0  0  0  0  0  0
    8.8097   16.5997   17.7491 C   0  0  0  0  0  0  0  0  0  0  0  0
    6.7753   10.6301   14.3753 N   0  0  0  0  0  0  0  0  0  0  0  0
    7.7324   15.7074   17.6868 C   0  0  0  0  0  0  0  0  0  0  0  0
   12.1310   15.2996   12.4398 C   0  0  0  0  0  0  0  0  0  0  0  0
   14.0188   22.1818   17.3978 O   0  0  0  0  0  1  0  0  0  0  0  0
   10.4186   13.5616   13.0797 C   0  0  0  0  0  0  0  0  0  0  0  0
    9.6249   12.4997   12.9134 C   0  0  0  0  0  0  0  0  0  0  0  0
   11.0969   15.4323   15.1589 N   0  0  0  0  0  0  0  0  0  0  0  0
   11.5233   16.6391   14.4018 C   0  0  0  0  0  0  0  0  0  0  0  0
    8.5878   12.1224   13.8914 C   0  0  0  0  0  0  0  0  0  0  0  0
   10.0561   16.9694   12.4706 C   0  0  0  0  0  0  0  0  0  0  0  0
   11.5194   13.4005   10.9956 C   0  0  0  0  0  0  0  0  0  0  0  0
    8.7683   14.3008   15.9099 C   0  0  0  0  0  0  0  0  0  0  0  0
    9.8486   11.8061   11.6995 C   0  0  0  0  0  0  0  0  0  0  0  0
    7.2398   12.3556   15.8322 C   0  0  0  0  0  0  0  0  0  0  0  0
   16.1305   21.0467   16.8709 O   0  0  0  0  0  0  0  0  0  0  0  0
    7.7999   14.6650   16.8480 C   0  0  0  0  0  0  0  0  0  0  0  0
   13.1082   19.5874   14.1160 C   0  0  0  0  0  0  0  0  0  0  0  0
   11.3319   14.0628   12.1959 C   0  0  0  0  0  0  0  0  0  0  0  0
   14.6272   17.4357   16.7941 O   0  0  0  0  0  0  0  0  0  0  0  0
    8.8572   17.6578   18.4691 O   0  0  0  0  0  0  0  0  0  0  0  0
    9.9375   15.3477   16.0080 C   0  0  0  0  0  0  0  0  0  0  0  0
    9.8545   16.2929   16.9440 N   0  0  0  0  0  0  0  0  0  0  0  0
   15.0409   20.2746   18.9419 O   0  0  0  0  0  0  0  0  0  0  0  0
    9.3881   17.9766   13.1590 O   0  0  0  0  0  0  0  0  0  0  0  0
   13.0157   16.9511   14.3819 C   0  0  0  0  0  0  0  0  0  0  0  0
    6.4602   11.3076   15.5217 C   0  0  0  0  0  0  0  0  0  0  0  0
   14.7975   20.7413   17.4464 P   0  0  0  0  0  4  0  0  0  0  0  0
   13.5462   18.2558   14.7575 N   0  0  0  0  0  0  0  0  0  0  0  0
   11.2128   16.3461   12.9787 N   0  0  0  0  0  0  0  0  0  0  0  0
   13.6610   19.7769   16.8534 C   0  0  0  0  0  0  0  0  0  0  0  0
   10.7572   12.2484   10.7482 C   0  0  0  0  0  0  0  0  0  0  0  0
   12.2615   18.1914   16.7720 O   0  0  0  0  0  0  0  0  0  0  0  0
   13.5971   18.3545   16.3279 C   0  0  0  0  0  0  0  0  0  0  0  0
  1  5  2  0
  1 13  1  0
  2 13  2  0
  2 16  1  0
  2 18  1  0
  3 29  1  0
  4  6  1  0
  4 24  2  0
  4 26  1  0
  5 30  1  0
  6 20  2  0
  7 22  1  0
  7 33  1  0
  8 31  2  0
  9 10  2  0
  9 22  1  0
 10 13  1  0
 10 17  1  0
 11 12  1  0
 11 25  1  0
 12 29  1  0
 12 33  1  0
 14 28  1  0
 14 33  1  0
 15 22  2  0
 15 35  1  0
 16 20  1  0
 16 25  1  0
 17 35  2  0
 18 30  2  0
 19 31  1  0
 21 32  1  0
 23 37  1  0
 25 26  2  0
 27 31  1  0
 29 32  1  0
 31 34  1  0
 32 37  1  0
 34 37  1  0
 36 37  1  0
M  END
>  <ID>  (1) 
conformer_0

$$$$
