
     RDKit          3D

 23 25  0  0  0  0  0  0  0  0999 V2000
   12.3013   18.8998   12.4153 C   0  0  0  0  0  0  0  0  0  0  0  0
   12.9142   19.6348   16.0367 N   0  0  0  0  0  0  0  0  0  0  0  0
   10.2843   17.8210   17.1584 O   0  0  0  0  0  0  0  0  0  0  0  0
    9.8130   16.0234   15.7125 C   0  0  0  0  0  0  0  0  0  0  0  0
    9.6133   13.9185   14.4099 C   0  0  0  0  0  0  0  0  0  0  0  0
    7.7344   10.2788   13.6667 F   0  0  0  0  0  0  0  0  0  0  0  0
   12.6321   19.3246   17.3012 O   0  0  0  0  0  0  0  0  0  0  0  0
    8.0749   12.2059   15.0217 C   0  0  0  0  0  0  0  0  0  0  0  0
   10.8868   15.7804   13.6101 N   0  0  0  0  0  0  0  0  0  0  0  0
   10.5309   17.2324   15.9798 C   0  0  0  0  0  0  0  0  0  0  0  0
    7.1514   11.7277   15.9368 F   0  0  0  0  0  0  0  0  0  0  0  0
   11.6683   17.6304   12.4261 C   0  0  0  0  0  0  0  0  0  0  0  0
   11.3988   17.7548   14.9044 C   0  0  0  0  0  0  0  0  0  0  0  0
    8.6733   13.3909   15.2583 C   0  0  0  0  0  0  0  0  0  0  0  0
   13.9699   20.6811   15.9030 C   0  0  0  0  0  0  0  0  0  0  0  0
   12.6635   19.4887   13.6564 C   0  0  0  0  0  0  0  0  0  0  0  0
    8.7119   15.7927   16.5038 O   0  0  0  0  0  0  0  0  0  0  0  0
   12.2783   18.9163   14.9327 C   0  0  0  0  0  0  0  0  0  0  0  0
    9.3923   11.9169   13.0491 C   0  0  0  0  0  0  0  0  0  0  0  0
   10.1332   15.2518   14.6012 C   0  0  0  0  0  0  0  0  0  0  0  0
    8.3882   11.4426   13.9049 C   0  0  0  0  0  0  0  0  0  0  0  0
   10.0227   13.1550   13.3118 C   0  0  0  0  0  0  0  0  0  0  0  0
   11.3028   17.0569   13.6789 C   0  0  0  0  0  0  0  0  0  0  0  0
  1 12  1  0
  1 16  2  0
  2  7  1  0
  2 15  1  0
  2 18  1  0
  3 10  1  0
  4 10  1  0
  4 17  1  0
  4 20  1  0
  5 14  1  0
  5 20  1  0
  5 22  2  0
  6 21  1  0
  8 11  1  0
  8 14  2  0
  8 21  1  0
  9 20  2  0
  9 23  1  0
 10 13  2  0
 12 23  2  0
 13 18  1  0
 13 23  1  0
 16 18  1  0
 19 21  2  0
 19 22  1  0
M  END
>  <ID>  (1) 
conformer_0

$$$$
