
     RDKit          3D

 44 50  0  0  0  0  0  0  0  0999 V2000
   11.0458   16.7567   13.8156 C   0  0  0  0  0  0  0  0  0  0  0  0
   11.9727   15.7400   13.0717 C   0  0  0  0  0  0  0  0  0  0  0  0
   12.7390   18.6489   14.5120 C   0  0  0  0  0  0  0  0  0  0  0  0
    9.7314   16.8715   13.0416 C   0  0  0  0  0  0  0  0  0  0  0  0
    9.8444   10.3705    9.5879 C   0  0  0  0  0  0  0  0  0  0  0  0
   10.8080   12.5286   10.0333 C   0  0  0  0  0  0  0  0  0  0  0  0
   13.4012   16.2129   13.4218 C   0  0  0  0  0  0  0  0  0  0  0  0
    8.6522   16.3686   17.7995 C   0  0  0  0  0  0  0  0  0  0  0  0
    9.2544   10.3796   10.8526 C   0  0  0  0  0  0  0  0  0  0  0  0
    7.9837   18.7870   20.1790 N   0  0  0  0  0  0  0  0  0  0  0  0
   14.3735   22.4465   16.1911 C   0  0  0  0  0  0  0  0  0  0  0  0
    9.7564   17.1247   17.6874 N   0  0  0  0  0  0  0  0  0  0  0  0
   11.3578   14.6307   12.1114 C   0  0  0  0  0  0  0  0  0  0  0  0
    7.4134   11.6726   14.8251 C   0  0  0  0  0  0  0  0  0  0  0  0
    7.4749    9.8939   13.3064 O   0  0  0  0  0  0  0  0  0  0  0  0
    9.4811   12.1858   16.0638 C   0  0  0  0  0  0  0  0  0  0  0  0
    9.7340   14.5452   16.5135 C   0  0  0  0  0  0  0  0  0  0  0  0
    5.8493   12.8037   15.9681 C   0  0  0  0  0  0  0  0  0  0  0  0
   14.1589   21.1490   16.9011 C   0  0  0  0  0  0  0  0  0  0  0  0
   11.5917   13.6901    9.6561 C   0  0  0  0  0  0  0  0  0  0  0  0
    6.3664   16.9562   18.7956 C   0  0  0  0  0  0  0  0  0  0  0  0
    9.4179   11.4295   11.7180 C   0  0  0  0  0  0  0  0  0  0  0  0
    8.5769   15.0701   17.2089 C   0  0  0  0  0  0  0  0  0  0  0  0
    6.1272   11.7601   15.1397 N   0  0  0  0  0  0  0  0  0  0  0  0
    7.1338   13.3132   16.3231 C   0  0  0  0  0  0  0  0  0  0  0  0
   10.4487   13.5861   12.2225 O   0  0  0  0  0  0  0  0  0  0  0  0
   12.0703   14.5610   10.7724 C   0  0  0  0  0  0  0  0  0  0  0  0
    7.3520   14.4125   17.0980 C   0  0  0  0  0  0  0  0  0  0  0  0
   14.3483   15.8381   12.6885 O   0  0  0  0  0  0  0  0  0  0  0  0
    8.4127   18.0452   19.1381 C   0  0  0  0  0  0  0  0  0  0  0  0
   10.6116   11.4584    9.1743 C   0  0  0  0  0  0  0  0  0  0  0  0
    8.1536   12.5848   15.6141 C   0  0  0  0  0  0  0  0  0  0  0  0
    9.6254   18.1591   18.5792 N   0  0  0  0  0  0  0  0  0  0  0  0
    8.8907   11.5819   12.9432 N   0  0  0  0  0  0  0  0  0  0  0  0
   11.2944   18.1557   14.4311 C   0  0  0  0  0  0  0  0  0  0  0  0
    5.7638   17.7598   19.7850 C   0  0  0  0  0  0  0  0  0  0  0  0
   13.3921   20.0053   14.8193 C   0  0  0  0  0  0  0  0  0  0  0  0
   13.5590   17.4733   14.1397 O   0  0  0  0  0  0  0  0  0  0  0  0
    7.9285   10.9889   13.6366 C   0  0  0  0  0  0  0  0  0  0  0  0
    7.7289   17.0180   18.5857 N   0  0  0  0  0  0  0  0  0  0  0  0
   10.2346   12.5247   11.2992 C   0  0  0  0  0  0  0  0  0  0  0  0
    6.7268   18.5135   20.6883 C   0  0  0  0  0  0  0  0  0  0  0  0
   10.2464   13.1870   16.8082 C   0  0  0  0  0  0  0  0  0  0  0  0
   13.6359   20.0226   16.2833 O   0  0  0  0  0  0  0  0  0  0  0  0
  1  2  1  0
  1  4  1  0
  1 35  1  0
  2  7  1  0
  2 13  1  0
  3 35  2  0
  3 37  1  0
  3 38  1  0
  5  9  2  0
  5 31  1  0
  6 20  1  0
  6 31  1  0
  6 41  2  0
  7 29  2  0
  7 38  1  0
  8 12  2  0
  8 23  1  0
  8 40  1  0
  9 22  1  0
 10 30  2  0
 10 42  1  0
 11 19  1  0
 12 33  1  0
 13 26  1  0
 13 27  2  0
 14 24  1  0
 14 32  1  0
 14 39  1  0
 15 39  2  0
 16 32  1  0
 16 43  1  0
 17 23  1  0
 17 43  1  0
 18 24  1  0
 18 25  1  0
 19 44  1  0
 20 27  1  0
 21 36  2  0
 21 40  1  0
 22 34  2  3
 22 41  1  0
 23 28  1  0
 25 28  2  0
 25 32  1  0
 26 41  1  0
 30 33  1  0
 30 40  1  0
 34 39  1  0
 36 42  1  0
 37 44  1  0
M  END
>  <ID>  (1) 
conformer_0

$$$$
