
     RDKit          3D

 36 39  0  0  0  0  0  0  0  0999 V2000
   11.5338   15.7146   13.8216 C   0  0  0  0  0  0  0  0  0  0  0  0
   12.0791   18.2546   16.2810 O   0  0  0  0  0  0  0  0  0  0  0  0
   13.3963   19.1476   16.2118 P   0  0  0  0  0  4  0  0  0  0  0  0
    7.1679   12.4407   15.6429 C   0  0  0  0  0  0  0  0  0  0  0  0
    9.8182    9.9291    9.6566 C   0  0  0  0  0  0  0  0  0  0  0  0
   13.4111   22.4456   13.8416 O   0  0  0  0  0  1  0  0  0  0  0  0
   14.3249   20.4501   12.4542 O   0  0  0  0  0  0  0  0  0  0  0  0
   13.4132   20.2054   17.3628 O   0  0  0  0  0  1  0  0  0  0  0  0
    8.2893   15.6320   17.9394 O   0  0  0  0  0  0  0  0  0  0  0  0
   10.6978   13.2629   11.1186 C   0  0  0  0  0  0  0  0  0  0  0  0
    8.3061   12.3541   14.8415 C   0  0  0  0  0  0  0  0  0  0  0  0
   13.2354   19.9862   14.7764 N   0  0  0  0  0  0  0  0  0  0  0  0
    6.3152   11.4101   15.2365 C   0  0  0  0  0  0  0  0  0  0  0  0
    9.1383   14.9347   17.2308 C   0  0  0  0  0  0  0  0  0  0  0  0
   11.2146   17.2801   13.2705 C   0  0  0  0  0  0  0  0  0  0  0  0
   14.6070   18.2193   16.1839 O   0  0  0  0  0  0  0  0  0  0  0  0
   10.3909   15.9791   16.3742 C   0  0  0  0  0  0  0  0  0  0  0  0
   10.6114   11.8135   11.2237 C   0  0  0  0  0  0  0  0  0  0  0  0
   11.4493   17.7000   14.9569 C   0  0  0  0  0  0  0  0  0  0  0  0
   11.2746   16.2066   15.2945 N   0  0  0  0  0  0  0  0  0  0  0  0
   11.0024   14.6679   11.5831 C   0  0  0  0  0  0  0  0  0  0  0  0
    8.5520   10.4898   11.6510 C   0  0  0  0  0  0  0  0  0  0  0  0
    8.0032   11.3083   13.8522 C   0  0  0  0  0  0  0  0  0  0  0  0
   10.6533   14.8350   17.2197 C   0  0  0  0  0  0  0  0  0  0  0  0
    9.9875   17.2940   17.0430 C   0  0  0  0  0  0  0  0  0  0  0  0
   11.9894   17.4802   12.0874 O   0  0  0  0  0  0  0  0  0  0  0  0
   12.0161   14.8119   12.6891 C   0  0  0  0  0  0  0  0  0  0  0  0
    8.7839   11.0174   12.8556 N   0  0  0  0  0  0  0  0  0  0  0  0
   15.4394   21.2233   14.7117 O   0  0  0  0  0  0  0  0  0  0  0  0
    9.2383   13.3268   15.2963 C   0  0  0  0  0  0  0  0  0  0  0  0
    8.5510   14.0271   16.3306 N   0  0  0  0  0  0  0  0  0  0  0  0
    6.8280   10.7819   14.1623 N   0  0  0  0  0  0  0  0  0  0  0  0
    9.1231   18.0297   16.1972 O   0  0  0  0  0  0  0  0  0  0  0  0
    7.2466   13.5549   16.5317 C   0  0  0  0  0  0  0  0  0  0  0  0
   14.1238   21.0427   13.9186 P   0  0  0  0  0  4  0  0  0  0  0  0
    9.4815   11.0835   10.5849 C   0  0  0  0  0  0  0  0  0  0  0  0
  1 15  1  0
  1 20  1  0
  1 27  1  0
  2  3  1  0
  2 19  1  0
  3  8  2  0
  3 12  1  0
  3 16  1  0
  4 11  1  0
  4 13  1  0
  4 34  1  0
  5 36  1  0
  6 35  2  0
  7 35  1  0
  9 14  2  0
 10 18  2  0
 10 21  2  0
 11 23  2  0
 11 30  1  0
 12 35  1  0
 13 32  1  0
 14 24  1  0
 14 31  1  0
 15 19  1  0
 15 26  1  0
 17 20  1  0
 17 24  1  0
 17 25  1  0
 18 36  1  0
 19 20  1  0
 21 27  1  0
 22 28  1  0
 22 36  1  0
 23 28  1  0
 23 32  1  0
 25 33  1  0
 29 35  1  0
 30 31  1  0
 31 34  1  0
M  END
>  <ID>  (1) 
conformer_0

$$$$
