
     RDKit          3D

 41 46  0  0  0  0  0  0  0  0999 V2000
   14.5370   20.0633   15.5036 C   0  0  0  0  0  0  0  0  0  0  0  0
    8.4547   15.5722   16.4539 C   0  0  0  0  0  0  0  0  0  0  0  0
   10.2333   12.8391   11.8379 C   0  0  0  0  0  0  0  0  0  0  0  0
   14.4684   21.2774   16.4959 C   0  0  0  0  0  0  0  0  0  0  0  0
   13.1064   18.8779   13.5283 C   0  0  0  0  0  0  0  0  0  0  0  0
   10.6580   17.9482   13.2155 C   0  0  0  0  0  0  0  0  0  0  0  0
    6.9021   12.3611   16.3253 C   0  0  0  0  0  0  0  0  0  0  0  0
   10.2804   14.4421   14.4233 C   0  0  0  0  0  0  0  0  0  0  0  0
   12.9395   17.4822   14.2942 C   0  0  0  0  0  0  0  0  0  0  0  0
    9.5956   13.3660   16.4874 C   0  0  0  0  0  0  0  0  0  0  0  0
    9.4693   17.3129   17.9344 C   0  0  0  0  0  0  0  0  0  0  0  0
   11.7839   18.9431   12.7688 N   0  0  0  0  0  0  0  0  0  0  0  0
   15.2450   17.9718   16.6758 O   0  0  0  0  0  0  0  0  0  0  0  0
   10.4246   12.0136   10.7200 C   0  0  0  0  0  0  0  0  0  0  0  0
    6.2366   18.2965   19.5296 F   0  0  0  0  0  0  0  0  0  0  0  0
   14.3992   18.8861   16.4247 C   0  0  0  0  0  0  0  0  0  0  0  0
   12.4167   17.8471   15.7205 C   0  0  0  0  0  0  0  0  0  0  0  0
   13.3940   20.0593   14.4834 C   0  0  0  0  0  0  0  0  0  0  0  0
    9.0470   18.0467   19.0056 N   0  0  0  0  0  0  0  0  0  0  0  0
    7.5823   11.0115   13.6465 C   0  0  0  0  0  0  0  0  0  0  0  0
    7.2064   18.0952   20.4191 O   0  0  0  0  0  0  0  0  0  0  0  0
    7.6859   17.6612   19.2617 C   0  0  0  0  0  0  0  0  0  0  0  0
    6.7269   10.9128   14.5059 N   0  0  0  0  0  0  0  0  0  0  0  0
   13.0386   18.6679   16.6762 O   0  0  0  0  0  0  0  0  0  0  0  0
   10.9871   16.4203   13.1294 C   0  0  0  0  0  0  0  0  0  0  0  0
   11.3964   17.1434   16.3701 N   0  0  0  0  0  0  0  0  0  0  0  0
    9.6498   10.8157   10.6820 C   0  0  0  0  0  0  0  0  0  0  0  0
   10.5671   17.7072   17.2072 C   0  0  0  0  0  0  0  0  0  0  0  0
    9.4967   14.8052   15.7404 C   0  0  0  0  0  0  0  0  0  0  0  0
   10.5991   14.9384   12.9704 C   0  0  0  0  0  0  0  0  0  0  0  0
   10.8926   14.0751   11.9324 O   0  0  0  0  0  0  0  0  0  0  0  0
    8.5310   16.3201   17.6283 C   0  0  0  0  0  0  0  0  0  0  0  0
   13.1590   21.2921   13.9248 O   0  0  0  0  0  0  0  0  0  0  0  0
    8.5966   11.3646   12.7616 C   0  0  0  0  0  0  0  0  0  0  0  0
    8.7603   10.4942   11.6580 C   0  0  0  0  0  0  0  0  0  0  0  0
    9.3689   12.4595   12.8067 C   0  0  0  0  0  0  0  0  0  0  0  0
   12.5762   16.4810   13.0903 C   0  0  0  0  0  0  0  0  0  0  0  0
    6.3279   11.4064   15.5728 N   0  0  0  0  0  0  0  0  0  0  0  0
    7.4628   16.5472   18.4354 N   0  0  0  0  0  0  0  0  0  0  0  0
   12.7044   16.6781   11.5475 O   0  0  0  0  0  0  0  0  0  0  0  0
    8.2722   12.7692   16.1911 C   0  0  0  0  0  0  0  0  0  0  0  0
  1  4  1  0
  1 16  1  0
  1 18  1  0
  2 29  1  0
  2 32  1  0
  3 14  1  0
  3 31  1  0
  3 36  2  0
  5  9  1  0
  5 12  1  0
  5 18  1  0
  6 12  1  0
  6 25  1  0
  7 38  1  0
  7 41  1  0
  8 29  1  0
  8 30  1  0
  9 17  1  0
  9 37  1  0
 10 29  1  0
 10 41  1  0
 11 19  1  0
 11 28  1  0
 11 32  2  0
 13 16  2  0
 14 27  2  0
 15 21  1  0
 16 24  1  0
 17 24  1  0
 17 26  1  0
 18 33  1  0
 19 22  2  0
 20 23  1  0
 20 34  1  0
 21 22  1  0
 22 39  1  0
 23 38  2  0
 25 30  1  0
 25 37  1  0
 26 28  2  0
 27 35  1  0
 30 31  1  0
 32 39  1  0
 34 35  2  0
 34 36  1  0
 37 40  1  0
M  END
>  <ID>  (1) 
conformer_0

$$$$
