
     RDKit          3D

 28 32  0  0  0  0  0  0  0  0999 V2000
   12.7369   18.5560   15.3503 C   0  0  0  0  0  0  0  0  0  0  0  0
    8.1053   10.5079   12.7082 N   0  0  0  0  0  0  0  0  0  0  0  0
    7.0071   13.2886   16.3769 O   0  0  0  0  0  0  0  0  0  0  0  0
    8.4815   16.8065   18.1886 C   0  0  0  0  0  0  0  0  0  0  0  0
   10.0738   13.1361   11.1206 C   0  0  0  0  0  0  0  0  0  0  0  0
   12.6421   19.7203   14.5496 O   0  0  0  0  0  0  0  0  0  0  0  0
    9.5425   13.3831   13.6395 C   0  0  0  0  0  0  0  0  0  0  0  0
    8.9503   11.3825   12.1930 C   0  0  0  0  0  0  0  0  0  0  0  0
   10.5947   15.4867   14.9037 C   0  0  0  0  0  0  0  0  0  0  0  0
   13.1079   16.6826   13.5971 C   0  0  0  0  0  0  0  0  0  0  0  0
   12.7306   18.7930   16.6529 O   0  0  0  0  0  0  0  0  0  0  0  0
    8.6747   15.0993   16.3718 C   0  0  0  0  0  0  0  0  0  0  0  0
    9.5138   12.5990   12.4048 C   0  0  0  0  0  0  0  0  0  0  0  0
    8.4959   13.0304   14.6151 C   0  0  0  0  0  0  0  0  0  0  0  0
   10.1502   16.9229   16.8374 C   0  0  0  0  0  0  0  0  0  0  0  0
    6.7425   12.0313   15.7077 N   0  0  0  0  0  0  0  0  0  0  0  0
    7.6602   11.8781   14.5849 C   0  0  0  0  0  0  0  0  0  0  0  0
   12.7063   15.4798   12.9759 C   0  0  0  0  0  0  0  0  0  0  0  0
    9.5989   17.4663   17.8451 N   0  0  0  0  0  0  0  0  0  0  0  0
   11.4961   16.4369   14.9241 C   0  0  0  0  0  0  0  0  0  0  0  0
    8.0131   15.6639   17.5068 C   0  0  0  0  0  0  0  0  0  0  0  0
   13.7778   20.7398   14.6160 C   0  0  0  0  0  0  0  0  0  0  0  0
   10.5490   14.4533   13.8972 C   0  0  0  0  0  0  0  0  0  0  0  0
   11.6923   14.5845   13.0261 C   0  0  0  0  0  0  0  0  0  0  0  0
   12.4235   17.2873   14.7001 C   0  0  0  0  0  0  0  0  0  0  0  0
    7.4724   10.7345   13.8433 N   0  0  0  0  0  0  0  0  0  0  0  0
    8.1773   13.8828   15.7357 C   0  0  0  0  0  0  0  0  0  0  0  0
    9.8396   15.8458   16.0136 C   0  0  0  0  0  0  0  0  0  0  0  0
  1  6  1  0
  1 11  2  0
  1 25  1  0
  2  8  2  0
  2 26  1  0
  3 16  1  0
  3 27  1  0
  4 19  1  0
  4 21  2  0
  5 13  1  0
  6 22  1  0
  7 13  1  0
  7 14  1  0
  7 23  2  0
  8 13  1  0
  9 20  2  0
  9 23  1  0
  9 28  1  0
 10 18  1  0
 10 25  1  0
 12 21  1  0
 12 27  1  0
 12 28  1  0
 14 17  1  0
 14 27  2  0
 15 19  1  0
 15 28  2  0
 16 17  1  0
 17 26  2  0
 18 24  2  0
 20 25  2  0
 23 24  1  0
M  END
>  <ID>  (1) 
conformer_0

$$$$
