
     RDKit          3D

 37 41  0  0  0  0  0  0  0  0999 V2000
    6.9031   16.6370   18.3993 N   0  0  0  0  0  0  0  0  0  0  0  0
    8.6348   17.9623   19.0533 N   0  0  0  0  0  0  0  0  0  0  0  0
    9.0395   17.0650   18.0316 C   0  0  0  0  0  0  0  0  0  0  0  0
    9.2765   14.6116   15.8667 C   0  0  0  0  0  0  0  0  0  0  0  0
    7.3088   17.6811   19.2927 C   0  0  0  0  0  0  0  0  0  0  0  0
   13.9702   20.8527   16.0368 O   0  0  0  0  0  0  0  0  0  0  0  0
   10.5382   15.2733   15.9453 C   0  0  0  0  0  0  0  0  0  0  0  0
    9.4688   12.9995   13.8749 C   0  0  0  0  0  0  0  0  0  0  0  0
   13.5181   19.5641   13.7496 C   0  0  0  0  0  0  0  0  0  0  0  0
   14.3248   17.0213   16.4838 O   0  0  0  0  0  0  0  0  0  0  0  0
    8.3445   11.1975   12.7398 N   0  0  0  0  0  0  0  0  0  0  0  0
   13.0278   15.8827   13.9813 C   0  0  0  0  0  0  0  0  0  0  0  0
   10.6151   14.3900   11.5934 O   0  0  0  0  0  0  0  0  0  0  0  0
    6.4759   18.2914   20.3217 C   0  0  0  0  0  0  0  0  0  0  0  0
   10.0600   12.8873   11.5294 C   0  0  0  0  0  0  0  0  0  0  0  0
   12.4620   15.1373   12.9969 C   0  0  0  0  0  0  0  0  0  0  0  0
    7.4267   11.0226   13.7336 N   0  0  0  0  0  0  0  0  0  0  0  0
    7.0580   11.7324   14.8956 C   0  0  0  0  0  0  0  0  0  0  0  0
   11.9260   18.0643   12.4229 C   0  0  0  0  0  0  0  0  0  0  0  0
   13.1846   17.5201   15.9242 C   0  0  0  0  0  0  0  0  0  0  0  0
    9.2641   12.2628   12.7816 C   0  0  0  0  0  0  0  0  0  0  0  0
   13.5028   20.6335   14.7910 C   0  0  0  0  0  0  0  0  0  0  0  0
    8.1571   14.9111   16.8040 C   0  0  0  0  0  0  0  0  0  0  0  0
   13.0260   17.1730   14.4579 C   0  0  0  0  0  0  0  0  0  0  0  0
   11.2800   16.9551   11.7996 C   0  0  0  0  0  0  0  0  0  0  0  0
   12.7616   18.2372   13.5397 C   0  0  0  0  0  0  0  0  0  0  0  0
   10.9514   16.3522   16.7152 N   0  0  0  0  0  0  0  0  0  0  0  0
    7.9850   16.0950   17.6773 C   0  0  0  0  0  0  0  0  0  0  0  0
   11.4521   15.5538   12.0365 C   0  0  0  0  0  0  0  0  0  0  0  0
    5.9805   11.3027   15.5095 O   0  0  0  0  0  0  0  0  0  0  0  0
   12.8067   13.8479   12.9747 O   0  0  0  0  0  0  0  0  0  0  0  0
   13.1539   21.7804   14.1775 O   0  0  0  0  0  0  0  0  0  0  0  0
   10.2662   17.1713   17.5214 N   0  0  0  0  0  0  0  0  0  0  0  0
   12.4547   18.3928   16.6398 N   0  0  0  0  0  0  0  0  0  0  0  0
    8.9300   13.4878   14.9998 C   0  0  0  0  0  0  0  0  0  0  0  0
    7.6833   12.9093   15.4976 C   0  0  0  0  0  0  0  0  0  0  0  0
    7.2471   13.7726   16.6577 C   0  0  0  0  0  0  0  0  0  0  0  0
  1  5  2  0
  1 28  1  0
  2  3  1  0
  2  5  1  0
  3 28  1  0
  3 33  2  0
  4  7  1  0
  4 23  1  0
  4 35  1  0
  5 14  1  0
  6 22  2  0
  7 27  2  0
  8 21  1  0
  8 35  1  0
  9 22  1  0
  9 26  1  0
 10 20  2  0
 11 17  2  0
 11 21  1  0
 12 16  2  0
 12 24  1  0
 13 15  1  0
 13 29  1  0
 15 21  1  0
 16 29  1  0
 16 31  1  0
 17 18  1  0
 18 30  2  0
 18 36  1  0
 19 25  1  0
 19 26  2  0
 20 24  1  0
 20 34  1  0
 22 32  1  0
 23 28  1  0
 23 37  1  0
 24 26  1  0
 25 29  2  0
 27 33  1  0
 35 36  2  0
 36 37  1  0
M  END
>  <ID>  (1) 
conformer_0

$$$$
