
     RDKit          3D

 28 31  0  0  0  0  0  0  0  0999 V2000
    9.9368   17.3574   17.4943 C   0  0  0  0  0  0  0  0  0  0  0  0
   11.1243   16.2710   14.4935 C   0  0  0  0  0  0  0  0  0  0  0  0
    7.8092   16.4732   18.2976 C   0  0  0  0  0  0  0  0  0  0  0  0
   11.4503   15.0870   12.7147 C   0  0  0  0  0  0  0  0  0  0  0  0
    9.8692   12.0386   10.6997 C   0  0  0  0  0  0  0  0  0  0  0  0
    8.8742   17.4025   18.3863 C   0  0  0  0  0  0  0  0  0  0  0  0
    8.2130   11.3371   13.3819 C   0  0  0  0  0  0  0  0  0  0  0  0
   11.4516   19.0002   12.9588 O   0  0  0  0  0  0  0  0  0  0  0  0
   13.0349   17.2632   13.2652 C   0  0  0  0  0  0  0  0  0  0  0  0
   12.6280   18.7932   13.7432 C   0  0  0  0  0  0  0  0  0  0  0  0
   13.0031   20.1538   14.1536 O   0  0  0  0  0  0  0  0  0  0  0  0
    8.9590   12.5142   13.8195 C   0  0  0  0  0  0  0  0  0  0  0  0
    9.8416   13.2133   12.9667 C   0  0  0  0  0  0  0  0  0  0  0  0
    8.6846   12.8755   15.1405 N   0  0  0  0  0  0  0  0  0  0  0  0
   13.4283   17.8663   14.6493 C   0  0  0  0  0  0  0  0  0  0  0  0
   10.1649   12.8804   11.6591 C   0  0  0  0  0  0  0  0  0  0  0  0
    9.9581   16.4634   16.6088 C   0  0  0  0  0  0  0  0  0  0  0  0
    8.3118   10.8323   12.1305 N   0  0  0  0  0  0  0  0  0  0  0  0
    7.6152   15.4403   17.5345 C   0  0  0  0  0  0  0  0  0  0  0  0
    9.4249   15.3905   15.8899 C   0  0  0  0  0  0  0  0  0  0  0  0
   10.4357   14.4084   13.4708 C   0  0  0  0  0  0  0  0  0  0  0  0
   11.8755   16.2587   13.4313 C   0  0  0  0  0  0  0  0  0  0  0  0
    7.3980   10.7856   14.2489 O   0  0  0  0  0  0  0  0  0  0  0  0
    8.2536   14.8322   16.4924 C   0  0  0  0  0  0  0  0  0  0  0  0
    7.7822   13.5235   16.0019 C   0  0  0  0  0  0  0  0  0  0  0  0
    8.9247   10.9900   10.9656 C   0  0  0  0  0  0  0  0  0  0  0  0
    8.8456   18.3412   19.3278 O   0  0  0  0  0  0  0  0  0  0  0  0
   10.2028   15.1989   14.6500 C   0  0  0  0  0  0  0  0  0  0  0  0
  1  6  1  0
  1 17  2  0
  2 22  2  0
  2 28  1  0
  3  6  1  0
  3 19  2  0
  4 21  1  0
  4 22  1  0
  5 16  2  0
  5 26  1  0
  6 27  1  0
  7 12  1  0
  7 18  1  0
  7 23  2  0
  8 10  2  0
  9 15  1  0
  9 22  1  0
 10 11  1  0
 10 15  1  0
 12 13  2  0
 12 14  1  0
 13 16  1  0
 13 21  1  0
 14 25  1  0
 17 20  1  0
 18 26  2  0
 19 24  1  0
 20 24  1  0
 20 28  2  0
 21 28  1  0
 24 25  1  0
M  END
>  <ID>  (1) 
conformer_0

$$$$
