
     RDKit          3D

 43 47  0  0  0  0  0  0  0  0999 V2000
   12.2539   18.6361   13.7726 C   0  0  0  0  0  0  0  0  0  0  0  0
    7.0527   11.9722   15.4836 C   0  0  0  0  0  0  0  0  0  0  0  0
    8.6889   12.0395   13.4204 N   0  0  0  0  0  0  0  0  0  0  0  0
   13.9754   20.5600   13.2339 C   0  0  0  0  0  0  0  0  0  0  0  0
    9.0694   15.0623   16.2310 N   0  0  0  0  0  0  0  0  0  0  0  0
    9.9779   17.9658   13.6282 N   0  0  0  0  0  0  0  0  0  0  0  0
    9.9852   11.9047   11.0494 C   0  0  0  0  0  0  0  0  0  0  0  0
    9.4880   13.0173   13.2445 C   0  0  0  0  0  0  0  0  0  0  0  0
    9.1694   16.3662   16.4995 C   0  0  0  0  0  0  0  0  0  0  0  0
    8.8183   12.9643   14.2851 C   0  0  0  0  0  0  0  0  0  0  0  0
   11.1891   13.9605   11.5794 C   0  0  0  0  0  0  0  0  0  0  0  0
   13.5915   21.7758   13.5896 O   0  0  0  0  0  0  0  0  0  0  0  0
   11.1458   17.5379   14.4944 C   0  0  0  0  0  0  0  0  0  0  0  0
   13.6568   19.7530   12.0967 O   0  0  0  0  0  0  0  0  0  0  0  0
   10.0347   13.0954   11.9331 C   0  0  0  0  0  0  0  0  0  0  0  0
   10.7821   15.3412   11.4245 O   0  0  0  0  0  0  0  0  0  0  0  0
   14.1037   20.1968   15.6788 O   0  0  0  0  0  0  0  0  0  0  0  0
    9.4002    9.7668   10.0124 C   0  0  0  0  0  0  0  0  0  0  0  0
   11.5078   13.4729   10.0623 C   0  0  0  0  0  0  0  0  0  0  0  0
    8.5346   16.7099   17.7552 C   0  0  0  0  0  0  0  0  0  0  0  0
   14.4205   19.6374   14.4016 C   0  0  0  0  0  0  0  0  0  0  0  0
    9.2941   10.6986   11.0279 C   0  0  0  0  0  0  0  0  0  0  0  0
    8.0534   13.0331   15.4058 C   0  0  0  0  0  0  0  0  0  0  0  0
    7.7891   11.0558   13.5143 C   0  0  0  0  0  0  0  0  0  0  0  0
    7.8743   18.1306   19.5764 C   0  0  0  0  0  0  0  0  0  0  0  0
   12.1086   13.8648   12.8625 C   0  0  0  0  0  0  0  0  0  0  0  0
   13.6500   18.3003   14.2140 C   0  0  0  0  0  0  0  0  0  0  0  0
    8.2223   19.1847   20.2727 O   0  0  0  0  0  0  0  0  0  0  0  0
   11.2353   17.4309   16.9159 O   0  0  0  0  0  0  0  0  0  0  0  0
    8.8850   17.8174   18.5299 C   0  0  0  0  0  0  0  0  0  0  0  0
    7.5226   15.9153   18.1427 N   0  0  0  0  0  0  0  0  0  0  0  0
    6.5730   17.9091   19.5298 O   0  0  0  0  0  0  0  0  0  0  0  0
   10.2825   17.1973   15.9854 C   0  0  0  0  0  0  0  0  0  0  0  0
   10.2735   10.0436    8.9111 C   0  0  0  0  0  0  0  0  0  0  0  0
    6.9546   11.0215   14.5191 N   0  0  0  0  0  0  0  0  0  0  0  0
   14.3264   17.1712   13.7736 O   0  0  0  0  0  0  0  0  0  0  0  0
   12.1274   15.1321   13.6899 C   0  0  0  0  0  0  0  0  0  0  0  0
   12.3990   18.9932   12.2626 C   0  0  0  0  0  0  0  0  0  0  0  0
   11.9770   16.3008   14.5154 O   0  0  0  0  0  0  0  0  0  0  0  0
    8.1662   14.0391   16.4179 C   0  0  0  0  0  0  0  0  0  0  0  0
   10.9633   11.2391    8.9084 C   0  0  0  0  0  0  0  0  0  0  0  0
   10.8364   12.1454    9.9388 C   0  0  0  0  0  0  0  0  0  0  0  0
    6.3052   11.9519   16.4558 O   0  0  0  0  0  0  0  0  0  0  0  0
  1 13  1  0
  1 27  1  0
  1 38  1  0
  2 23  1  0
  2 35  1  0
  2 43  2  0
  3 10  1  0
  3 24  1  0
  4 12  2  0
  4 14  1  0
  4 21  1  0
  5  9  1  0
  5 40  1  0
  6 13  1  0
  7 15  1  0
  7 22  2  0
  7 42  1  0
  8 10  2  0
  8 15  2  0
  9 20  1  0
  9 33  1  0
 10 23  1  0
 11 15  1  0
 11 16  1  0
 11 19  1  0
 11 26  1  0
 13 33  1  0
 13 39  1  0
 14 38  1  0
 17 21  1  0
 18 22  1  0
 18 34  2  0
 19 42  1  0
 20 30  1  0
 20 31  1  0
 21 27  1  0
 23 40  2  0
 24 35  2  0
 25 28  2  0
 25 30  1  0
 25 32  1  0
 26 37  1  0
 27 36  1  0
 29 33  1  0
 34 41  1  0
 37 39  1  0
 41 42  2  0
M  END
>  <ID>  (1) 
conformer_0

$$$$
