
     RDKit          3D

 34 38  0  0  0  0  0  0  0  0999 V2000
   10.4181   13.0331   12.0402 C   0  0  0  0  0  0  0  0  0  0  0  0
   11.7660   14.8522   11.0998 C   0  0  0  0  0  0  0  0  0  0  0  0
    8.9036   12.4888   13.8827 C   0  0  0  0  0  0  0  0  0  0  0  0
   13.1818   18.6752   15.4673 O   0  0  0  0  0  0  0  0  0  0  0  0
   11.1171   13.6584   11.1494 C   0  0  0  0  0  0  0  0  0  0  0  0
   11.8232   16.4716   14.8800 C   0  0  0  0  0  0  0  0  0  0  0  0
   10.1870   16.7666   16.7985 C   0  0  0  0  0  0  0  0  0  0  0  0
    7.9993   15.4183   17.4605 N   0  0  0  0  0  0  0  0  0  0  0  0
   13.3936   20.4161   17.3883 O   0  0  0  0  0  1  0  0  0  0  0  0
   12.6774   19.6937   14.2921 C   0  0  0  0  0  0  0  0  0  0  0  0
   12.4453   17.5049   15.9939 C   0  0  0  0  0  0  0  0  0  0  0  0
    7.8747   12.5061   14.9396 C   0  0  0  0  0  3  0  0  0  0  0  0
    9.9437   13.3183   13.3079 C   0  0  0  0  0  0  0  0  0  0  0  0
   13.8352   21.1545   12.4714 O   0  0  0  0  0  1  0  0  0  0  0  0
    5.8906   11.1543   15.3429 O   0  0  0  0  0  0  0  0  0  0  0  0
   13.7868   21.0829   14.0198 P   0  0  0  0  0  4  0  0  0  0  0  0
   14.2153   19.5169   16.4534 P   0  0  0  0  0  4  0  0  0  0  0  0
    7.4226   10.6729   13.7119 N   0  0  0  0  0  0  0  0  0  0  0  0
   11.2485   17.8964   16.8632 O   0  0  0  0  0  0  0  0  0  0  0  0
   13.6577   22.5933   14.4837 O   0  0  0  0  0  0  0  0  0  0  0  0
   11.4076   15.4445   13.4193 C   0  0  0  0  0  0  0  0  0  0  0  0
    8.5662   17.4261   18.3169 O   0  0  0  0  0  0  0  0  0  0  0  0
   14.9276   20.5070   15.2320 O   0  0  0  0  0  0  0  0  0  0  0  0
   15.1031   18.5997   17.1602 O   0  0  0  0  0  0  0  0  0  0  0  0
    8.6451   11.3064   13.1956 N   0  0  0  0  0  0  0  0  0  0  0  0
    7.4466   13.3063   16.1763 S   0  0  0  0  0  3  0  0  0  0  0  0
    8.0837   14.4454   16.5400 C   0  0  0  0  0  0  0  0  0  0  0  0
    8.9124   16.5398   17.5275 C   0  0  0  0  0  0  0  0  0  0  0  0
   10.5169   14.5366   13.8523 C   0  0  0  0  0  0  0  0  0  0  0  0
   11.9441   15.7343   12.2107 C   0  0  0  0  0  0  0  0  0  0  0  0
   10.6598   16.0469   15.6494 C   0  0  0  0  0  0  0  0  0  0  0  0
    8.9968   14.5148   15.7497 N   0  0  0  0  0  0  0  0  0  0  0  0
    6.9736   11.4154   14.7106 C   0  0  0  0  0  0  0  0  0  0  0  0
    9.9896   14.9268   15.1364 C   0  0  0  0  0  0  0  0  0  0  0  0
  1  5  2  0
  1 13  1  0
  2  5  1  0
  2 30  2  0
  3 12  1  0
  3 13  2  0
  3 25  1  0
  4 11  1  0
  4 17  1  0
  6 11  1  0
  6 31  1  0
  7 19  1  0
  7 28  1  0
  7 31  1  0
  8 27  2  0
  8 28  1  0
  9 17  2  0
 10 16  1  0
 11 19  1  0
 12 26  2  0
 12 33  1  0
 13 29  1  0
 14 16  2  0
 15 33  2  0
 16 20  1  0
 16 23  1  0
 17 23  1  0
 17 24  1  0
 18 25  1  0
 18 33  1  0
 21 29  2  0
 21 30  1  0
 22 28  2  0
 26 27  1  0
 27 32  1  0
 29 34  1  0
 31 34  2  0
 32 34  1  0
M  END
>  <ID>  (1) 
conformer_0

$$$$
