
     RDKit          3D

 39 44  0  0  0  0  0  0  0  0999 V2000
   10.7029   12.9353   10.8019 C   0  0  0  0  0  0  0  0  0  0  0  0
    9.0876   18.3858   19.1660 C   0  0  0  0  0  0  0  0  0  0  0  0
   15.1257   20.8947   13.5513 C   0  0  0  0  0  0  0  0  0  0  0  0
    7.1377   13.6139   16.5147 C   0  0  0  0  0  0  0  0  0  0  0  0
    9.8949   11.8203   10.2674 C   0  0  0  0  0  0  0  0  0  0  0  0
   13.0422   15.5586   13.1618 C   0  0  0  0  0  0  0  0  0  0  0  0
    9.3094   11.1858   11.4572 C   0  0  0  0  0  0  0  0  0  0  0  0
    8.6526   10.0002   11.6044 C   0  0  0  0  0  0  0  0  0  0  0  0
   12.0477   16.6329   15.5860 C   0  0  0  0  0  0  0  0  0  0  0  0
   12.4745   17.9656   15.9791 C   0  0  0  0  0  0  0  0  0  0  0  0
    7.7973   18.4647   19.6217 N   0  0  0  0  0  0  0  0  0  0  0  0
   13.7541   20.7726   15.5441 N   0  0  0  0  0  0  0  0  0  0  0  0
    8.7001   11.8443   13.6860 C   0  0  0  0  0  0  0  0  0  0  0  0
   11.5892   18.9032   15.9117 O   0  0  0  0  0  0  0  0  0  0  0  0
   13.8543   22.7164   14.2869 O   0  0  0  0  0  0  0  0  0  0  0  0
    8.8190   15.5438   16.8758 C   0  0  0  0  0  0  0  0  0  0  0  0
   10.0356   15.4693   16.2468 C   0  0  0  0  0  0  0  0  0  0  0  0
   14.2424   19.7100   16.4327 C   0  0  0  0  0  0  0  0  0  0  0  0
   12.1496   14.6942   12.3047 C   0  0  0  0  0  0  0  0  0  0  0  0
   12.4377   16.1255   14.2696 C   0  0  0  0  0  0  0  0  0  0  0  0
    7.5143   12.5820   15.6086 N   0  0  0  0  0  0  0  0  0  0  0  0
   11.2665   13.8419   12.9096 C   0  0  0  0  0  0  0  0  0  0  0  0
    7.7350   10.7914   13.5877 C   0  0  0  0  0  0  0  0  0  0  0  0
    9.5318   11.9796   12.5632 N   0  0  0  0  0  0  0  0  0  0  0  0
    7.8598   14.5692   16.6938 C   0  0  0  0  0  0  0  0  0  0  0  0
    8.4954   16.5876   17.8227 C   0  0  0  0  0  0  0  0  0  0  0  0
    9.4243   17.4693   18.3130 N   0  0  0  0  0  0  0  0  0  0  0  0
    6.7244   10.6829   14.5056 N   0  0  0  0  0  0  0  0  0  0  0  0
   11.0395   16.1372   16.2061 N   0  0  0  0  0  0  0  0  0  0  0  0
    7.2337   16.6339   18.2095 N   0  0  0  0  0  0  0  0  0  0  0  0
    7.8088    9.8858   12.5881 N   0  0  0  0  0  0  0  0  0  0  0  0
    6.6323   11.5342   15.4385 C   0  0  0  0  0  0  0  0  0  0  0  0
   14.2539   21.5263   14.5129 C   0  0  0  0  0  0  0  0  0  0  0  0
    8.6804   12.6635   14.8339 C   0  0  0  0  0  0  0  0  0  0  0  0
   13.9098   18.1947   16.2011 C   0  0  0  0  0  0  0  0  0  0  0  0
    6.9262   17.5875   19.0936 C   0  0  0  0  0  0  0  0  0  0  0  0
   12.2062   14.7610   10.9553 N   0  0  0  0  0  0  0  0  0  0  0  0
   10.5251   12.9770   12.1857 C   0  0  0  0  0  0  0  0  0  0  0  0
   11.4473   13.8567   10.1581 N   0  0  0  0  0  0  0  0  0  0  0  0
  1  5  1  0
  1 38  2  0
  1 39  1  0
  2 11  2  0
  2 27  1  0
  3 33  1  0
  4 21  1  0
  4 25  2  0
  5  7  1  0
  6 19  1  0
  6 20  2  0
  7  8  1  0
  7 24  1  0
  8 31  2  0
  9 10  1  0
  9 20  2  0
  9 29  1  0
 10 14  1  0
 10 35  1  0
 11 36  1  0
 12 18  1  0
 12 33  1  0
 13 23  2  0
 13 24  1  0
 13 34  1  0
 15 33  2  0
 16 17  1  0
 16 25  2  0
 16 26  1  0
 17 29  1  0
 18 35  1  0
 19 22  2  0
 19 37  1  0
 21 32  1  0
 21 34  1  0
 22 38  1  0
 23 28  1  0
 23 31  1  0
 24 38  1  0
 26 27  2  0
 26 30  1  0
 28 32  2  0
 30 36  2  0
 37 39  2  0
M  END
>  <ID>  (1) 
conformer_0

$$$$
