
     RDKit          3D

 31 36  0  0  0  0  0  0  0  0999 V2000
   12.5119   18.8808   14.9616 C   0  0  0  0  0  0  0  0  0  0  0  0
   13.6315   21.5381   14.3120 O   0  0  0  0  0  0  0  0  0  0  0  0
   14.1314   20.2804   16.3099 C   0  0  0  0  0  0  0  0  0  0  0  0
    6.8090   11.1508   14.9834 N   0  0  0  0  0  0  0  0  0  0  0  0
   10.7741   16.7228   15.8928 C   0  0  0  0  0  0  0  0  0  0  0  0
    9.6223   12.0018   11.4318 C   0  0  0  0  0  0  0  0  0  0  0  0
    8.9157   15.1199   17.0553 C   0  0  0  0  0  0  0  0  0  0  0  0
    7.2099   12.2072   15.5905 C   0  0  0  0  0  0  0  0  0  0  0  0
    9.7804   10.0201    9.7601 C   0  0  0  0  0  0  0  0  0  0  0  0
   13.4512   19.2376   17.0583 O   0  0  0  0  0  0  0  0  0  0  0  0
    8.0573   13.2781   15.6574 C   0  0  0  0  0  0  0  0  0  0  0  0
    9.5692   14.9930   14.8219 C   0  0  0  0  0  0  0  0  0  0  0  0
   11.7044   18.0065   14.0678 C   0  0  0  0  0  0  0  0  0  0  0  0
    9.2471   13.1885   13.5186 C   0  0  0  0  0  0  0  0  0  0  0  0
   11.7610   18.4924   12.4740 Cl  0  0  0  0  0  0  0  0  0  0  0  0
    8.9435   13.8070   14.6594 C   0  0  0  0  0  0  0  0  0  0  0  0
   10.9204   16.9049   14.4811 C   0  0  0  0  0  0  0  0  0  0  0  0
   11.5639   17.4895   16.7436 C   0  0  0  0  0  0  0  0  0  0  0  0
   10.1708   15.7886   13.8030 C   0  0  0  0  0  0  0  0  0  0  0  0
   10.0655   15.7224   12.5223 O   0  0  0  0  0  0  0  0  0  0  0  0
    9.2675   10.7050   11.0201 C   0  0  0  0  0  0  0  0  0  0  0  0
    8.1854   11.0362   12.9657 C   0  0  0  0  0  0  0  0  0  0  0  0
   10.2693   13.0158   10.5665 C   0  0  0  0  0  0  0  0  0  0  0  0
    8.0931   14.0088   16.8342 C   0  0  0  0  0  0  0  0  0  0  0  0
    8.3649   10.1315   11.9423 N   0  0  0  0  0  0  0  0  0  0  0  0
    9.0629   12.1993   12.7005 C   0  0  0  0  0  0  0  0  0  0  0  0
   12.4677   18.5066   16.2849 C   0  0  0  0  0  0  0  0  0  0  0  0
   15.2629   20.9672   16.9509 C   0  0  0  0  0  0  0  0  0  0  0  0
    9.7771   15.6402   16.0763 N   0  0  0  0  0  0  0  0  0  0  0  0
   13.5475   20.1146   14.8533 C   0  0  0  0  0  0  0  0  0  0  0  0
    7.2593   10.6764   13.8890 N   0  0  0  0  0  0  0  0  0  0  0  0
  1 13  1  0
  1 27  2  0
  1 30  1  0
  2 30  1  0
  3 10  1  0
  3 28  1  0
  3 30  1  0
  4  8  2  0
  4 31  1  0
  5 17  1  0
  5 18  2  0
  5 29  1  0
  6 21  1  0
  6 23  1  0
  6 26  1  0
  7 24  2  0
  7 29  1  0
  8 11  1  0
  9 21  1  0
 10 27  1  0
 11 16  2  0
 11 24  1  0
 12 16  1  0
 12 19  2  0
 12 29  1  0
 13 15  1  0
 13 17  2  0
 14 16  1  0
 14 26  2  0
 17 19  1  0
 18 27  1  0
 19 20  1  0
 21 25  1  0
 22 25  1  0
 22 26  1  0
 22 31  2  0
M  END
>  <ID>  (1) 
conformer_0

$$$$
