
     RDKit          3D

 30 31  0  0  0  0  0  0  0  0999 V2000
    7.4117   11.2921   14.4660 C   0  0  0  0  0  0  0  0  0  0  0  0
   13.4700   19.4161   15.7011 C   0  0  0  0  0  0  0  0  0  0  0  0
   13.0945   21.0181   13.8991 N   0  0  0  0  0  0  0  0  0  0  0  0
   10.2717   13.8595   13.8788 C   0  0  0  0  0  0  0  0  0  0  0  0
   12.7943   19.3622   16.8993 O   0  0  0  0  0  0  0  0  0  0  0  0
   13.5067   16.1716   14.5802 C   0  0  0  0  0  0  0  0  0  0  0  0
    7.5822   15.5281   17.6797 C   0  0  0  0  0  0  0  0  0  0  0  0
    8.6081   14.4100   15.8605 N   0  0  0  0  0  0  0  0  0  0  0  0
   11.5125   13.6184   11.8708 C   0  0  0  0  0  0  0  0  0  0  0  0
    9.7305   18.3748   18.1326 O   0  0  0  0  0  0  0  0  0  0  0  0
   12.3650   19.0099   12.9277 N   0  0  0  0  0  0  0  0  0  0  0  0
   10.7499   12.5257   11.5356 C   0  0  0  0  0  0  0  0  0  0  0  0
    9.4438   12.8118   13.5840 C   0  0  0  0  0  0  0  0  0  0  0  0
    8.3520   12.4454   14.4484 C   0  0  0  0  0  0  0  0  0  0  0  0
    6.4824   11.3568   15.5078 S   0  0  0  0  0  0  0  0  0  0  0  0
   12.1820   16.9489   14.1561 C   0  0  0  0  0  0  0  0  0  0  0  0
    9.0772   17.3964   17.7172 C   0  0  0  0  0  0  0  0  0  0  0  0
    9.7241   12.1276   12.3808 C   0  0  0  0  0  0  0  0  0  0  0  0
    9.0333   11.0835   11.9108 O   0  0  0  0  0  0  0  0  0  0  0  0
   11.2462   14.2309   13.0569 C   0  0  0  0  0  0  0  0  0  0  0  0
   11.4605   17.1758   11.6880 N   0  0  0  0  0  0  0  0  0  0  0  0
    8.1385   13.3102   15.5074 C   0  0  0  0  0  0  0  0  0  0  0  0
   12.1837   17.5644   12.8420 C   0  0  0  0  0  0  0  0  0  0  0  0
   10.0183   16.9461   15.3899 C   0  0  0  0  0  0  0  0  0  0  0  0
    8.4767   15.4509   16.6329 C   0  0  0  0  0  0  0  0  0  0  0  0
    7.3156   10.3124   13.7739 O   0  0  0  0  0  0  0  0  0  0  0  0
   12.8689   19.5810   14.2426 C   0  0  0  0  0  0  0  0  0  0  0  0
   11.3542   17.4293   15.2569 C   0  0  0  0  0  0  0  0  0  0  0  0
    7.9492   16.7736   18.3950 O   0  0  0  0  0  0  0  0  0  0  0  0
    9.3066   16.6008   16.5566 C   0  0  0  0  0  0  0  0  0  0  0  0
  1 14  1  0
  1 15  1  0
  1 26  2  0
  2  5  1  0
  2 27  1  0
  3 27  2  0
  4 13  1  0
  4 20  2  0
  6 16  1  0
  7 25  1  0
  7 29  1  0
  8 22  2  3
  8 25  1  0
  9 12  1  0
  9 20  1  0
 10 17  2  0
 11 23  1  0
 11 27  1  0
 12 18  2  0
 13 14  2  3
 13 18  1  0
 14 22  1  0
 16 23  1  0
 16 28  1  0
 17 29  1  0
 17 30  1  0
 18 19  1  0
 21 23  2  0
 24 28  1  0
 24 30  1  0
 25 30  1  0
M  END
>  <ID>  (1) 
conformer_0

$$$$
