
     RDKit          3D

 23 25  0  0  0  0  0  0  0  0999 V2000
    9.6914   16.2144   16.6172 C   0  0  0  0  0  0  0  0  0  0  0  0
   13.1614   20.4053   13.7440 C   0  0  0  0  0  0  0  0  0  0  0  0
   10.8757   15.6345   14.6789 C   0  0  0  0  0  0  0  0  0  0  0  0
   13.2423   18.9970   14.4376 C   0  0  0  0  0  0  0  0  0  0  0  0
   11.6116   17.5778   15.8516 C   0  0  0  0  0  0  0  0  0  0  0  0
   12.6489   18.7543   15.8468 C   0  0  0  0  0  0  0  0  0  0  0  0
    7.7490   13.8452   16.2177 C   0  0  0  0  0  0  0  0  0  0  0  0
    6.9189   11.7245   15.1875 C   0  0  0  0  0  0  0  0  0  0  0  0
    9.8236   15.2740   15.5381 C   0  0  0  0  0  0  0  0  0  0  0  0
   12.6956   20.3436   12.5096 O   0  0  0  0  0  0  0  0  0  0  0  0
   11.7268   16.6725   14.8321 C   0  0  0  0  0  0  0  0  0  0  0  0
   10.0314   11.9299   12.2379 N   0  0  0  0  0  0  0  0  0  0  0  0
    9.0497   12.9291   14.2531 C   0  0  0  0  0  0  0  0  0  0  0  0
    7.1301   12.3862   16.4189 O   0  0  0  0  0  0  0  0  0  0  0  0
    5.8692   11.1101   14.9273 O   0  0  0  0  0  0  0  0  0  0  0  0
    8.9631   14.0342   15.2988 C   0  0  0  0  0  0  0  0  0  0  0  0
    7.9823   11.0171   13.0752 C   0  0  0  0  0  0  0  0  0  0  0  0
   13.3979   21.5460   14.1921 O   0  0  0  0  0  0  0  0  0  0  0  0
   10.5538   17.3524   16.7880 C   0  0  0  0  0  0  0  0  0  0  0  0
    8.0062   11.8995   14.1698 C   0  0  0  0  0  0  0  0  0  0  0  0
    8.9694   11.0506   12.1324 C   0  0  0  0  0  0  0  0  0  0  0  0
   10.1426   12.7934   13.2707 C   0  0  0  0  0  0  0  0  0  0  0  0
   11.6394   13.5476   13.2449 Cl  0  0  0  0  0  0  0  0  0  0  0  0
  1  9  2  0
  1 19  1  0
  2  4  1  0
  2 10  2  0
  2 18  1  0
  3  9  1  0
  3 11  2  0
  4  6  1  0
  5  6  1  0
  5 11  1  0
  5 19  2  0
  7 14  1  0
  7 16  1  0
  8 14  1  0
  8 15  2  0
  8 20  1  0
  9 16  1  0
 12 21  1  0
 12 22  2  0
 13 16  1  0
 13 20  2  0
 13 22  1  0
 17 20  1  0
 17 21  2  0
 22 23  1  0
M  END
>  <ID>  (1) 
conformer_0

$$$$
