
     RDKit          3D

 46 54  0  0  0  0  0  0  0  0999 V2000
    8.0252   10.1012   12.7079 C   0  0  0  0  0  0  0  0  0  0  0  0
    6.3424   11.6729   16.2582 O   0  0  0  0  0  0  0  0  0  0  0  0
   12.0120   14.7526   12.7862 C   0  0  0  0  0  0  0  0  0  0  0  0
   13.1544   18.8192   15.0670 C   0  0  0  0  0  0  0  0  0  0  0  0
    9.1652   17.9300   18.1643 C   0  0  0  0  0  0  0  0  0  0  0  0
   15.2175   16.7938   11.2905 O   0  0  0  0  0  0  0  0  0  0  0  0
    9.5140   10.6896   10.6581 C   0  0  0  0  0  0  0  0  0  0  0  0
   10.3694   13.3009   12.0932 C   0  0  0  0  0  0  0  0  0  0  0  0
   14.5973   20.5892   13.7791 S   0  0  0  0  0  4  0  0  0  0  0  0
    7.4074   16.3137   18.2815 N   0  0  0  0  0  0  0  0  0  0  0  0
   10.7964   18.2999   15.1804 C   0  0  0  0  0  0  0  0  0  0  0  0
   14.1616   21.3961   17.7724 C   0  0  0  0  0  0  0  0  0  0  0  0
    9.5274   15.0922   15.6127 N   0  0  0  0  0  0  0  0  0  0  0  0
   11.0284   13.9223   10.9331 O   0  0  0  0  0  0  0  0  0  0  0  0
    7.9056   15.5516   17.3165 C   0  0  0  0  0  0  0  0  0  0  0  0
   14.5414   21.2952   15.3653 C   0  0  0  0  0  0  0  0  0  0  0  0
    8.8668   12.5350   13.9606 C   0  0  0  0  0  0  0  0  0  0  0  0
    8.8980   13.8597   15.1548 C   0  0  0  0  0  0  0  0  0  0  0  0
   15.8583   20.7514   13.1752 O   0  0  0  0  0  1  0  0  0  0  0  0
   14.7320   22.7008   15.8125 C   0  0  0  0  0  0  0  0  0  0  0  0
   11.8733   18.9396   14.5137 N   0  0  0  0  0  0  0  0  0  0  0  0
   12.8587   15.4356   13.6245 C   0  0  0  0  0  0  0  0  0  0  0  0
   10.9094   17.6744   16.4607 C   0  0  0  0  0  0  0  0  0  0  0  0
    7.4383   10.4988   13.8538 O   0  0  0  0  0  0  0  0  0  0  0  0
    9.0725   15.9699   16.6260 C   0  0  0  0  0  0  0  0  0  0  0  0
   14.3620   20.5133   16.5965 C   0  0  0  0  0  0  0  0  0  0  0  0
   14.0837   16.2262   11.7300 C   0  0  0  0  0  0  0  0  0  0  0  0
    7.8418   11.6664   14.4200 C   0  0  0  0  0  0  0  0  0  0  0  0
   13.4557   21.1409   12.9448 O   0  0  0  0  0  1  0  0  0  0  0  0
   14.5040   22.7404   17.2565 O   0  0  0  0  0  0  0  0  0  0  0  0
    7.2575   12.2048   15.5907 C   0  0  0  0  0  0  0  0  0  0  0  0
   14.3378   18.7709   14.0449 C   0  0  0  0  0  0  0  0  0  0  0  0
    8.6093   18.2593   19.0647 N   0  0  0  0  0  0  0  0  0  0  0  0
    7.8239   13.4925   15.9665 C   0  0  0  0  0  0  0  0  0  0  0  0
    9.6681   17.2196   17.1084 C   0  0  0  0  0  0  0  0  0  0  0  0
    8.0352   17.4275   18.7251 C   0  0  0  0  0  0  0  0  0  0  0  0
    9.4211   12.1954   12.6536 C   0  0  0  0  0  0  0  0  0  0  0  0
    9.6935   18.1997   14.3638 O   0  0  0  0  0  0  0  0  0  0  0  0
    8.8182   11.0655   11.9392 C   0  0  0  0  0  0  0  0  0  0  0  0
   14.6084   17.2928   13.8257 C   0  0  0  0  0  0  0  0  0  0  0  0
   10.9454   13.9966   13.1648 N   0  0  0  0  0  0  0  0  0  0  0  0
    7.3431   14.2866   17.0074 N   0  0  0  0  0  0  0  0  0  0  0  0
   12.1665   14.7734   11.4397 C   0  0  0  0  0  0  0  0  0  0  0  0
   13.3758   19.3342   16.4517 C   0  0  0  0  0  0  0  0  0  0  0  0
   13.7948   16.3016   13.0813 C   0  0  0  0  0  0  0  0  0  0  0  0
   13.2410   15.5285   10.8748 C   0  0  0  0  0  0  0  0  0  0  0  0
  1 24  1  0
  1 39  1  0
  2 31  2  0
  3 22  1  0
  3 41  1  0
  3 43  2  0
  4 21  1  0
  4 32  1  0
  4 44  1  0
  5 33  1  0
  5 35  1  0
  6 27  1  0
  7 39  1  0
  8 14  1  0
  8 37  1  0
  8 41  1  0
  9 16  1  0
  9 19  1  0
  9 29  1  0
  9 32  1  0
 10 15  2  0
 10 36  1  0
 11 21  1  0
 11 23  1  0
 11 38  2  0
 12 26  1  0
 12 30  1  0
 13 18  2  0
 13 25  1  0
 14 43  1  0
 15 25  1  0
 15 42  1  0
 16 20  1  0
 16 26  1  0
 17 18  1  0
 17 28  2  0
 17 37  1  0
 18 34  1  0
 20 30  1  0
 22 45  1  0
 23 35  1  0
 24 28  1  0
 25 35  2  0
 26 44  1  0
 27 45  1  0
 27 46  2  0
 28 31  1  0
 31 34  1  0
 32 40  1  0
 33 36  1  0
 34 42  2  0
 37 39  1  0
 40 45  1  0
 43 46  1  0
M  END
>  <ID>  (1) 
conformer_0

$$$$
