
     RDKit          3D

 31 35  0  0  0  0  0  0  0  0999 V2000
   13.4181   18.5157   16.4147 C   0  0  0  0  0  0  0  0  0  0  0  0
   11.2319   14.8069   12.3805 C   0  0  0  0  0  0  0  0  0  0  0  0
    9.8466   11.0765   11.0654 C   0  0  0  0  0  0  0  0  0  0  0  0
   14.4684   22.1463   16.6819 C   0  0  0  0  0  0  0  0  0  0  0  0
    9.9305   14.6617   14.4930 C   0  0  0  0  0  0  0  0  0  0  0  0
   13.8479   19.8099   17.1274 C   0  0  0  0  0  0  0  0  0  0  0  0
   10.4241   16.5056   16.0611 C   0  0  0  0  0  0  0  0  0  0  0  0
   10.8659   15.3536   13.6276 C   0  0  0  0  0  0  0  0  0  0  0  0
    9.7833   12.8924   12.8558 C   0  0  0  0  0  0  0  0  0  0  0  0
   10.7141   13.5812   12.0704 C   0  0  0  0  0  0  0  0  0  0  0  0
   14.0984   22.1825   18.1147 C   0  0  0  0  0  0  0  0  0  0  0  0
    9.2652   13.4257   14.1589 C   0  0  0  0  0  0  0  0  0  0  0  0
    9.0149   16.8215   18.0475 C   0  0  0  0  0  0  0  0  0  0  0  0
    8.2352   10.9398   12.8554 C   0  0  0  0  0  0  0  0  0  0  0  0
    7.1564   11.9650   15.3469 C   0  0  0  0  0  0  0  0  0  0  0  0
   12.2575   18.6733   12.3002 C   0  0  0  0  0  0  0  0  0  0  0  0
    9.2581   11.6356   12.3377 C   0  0  0  0  0  0  0  0  0  0  0  0
   14.2912   20.8317   16.0537 C   0  0  0  0  0  0  0  0  0  0  0  0
    9.6909   15.3586   15.7151 C   0  0  0  0  0  0  0  0  0  0  0  0
    7.3345   10.5080   13.5326 N   0  0  0  0  0  0  0  0  0  0  0  0
    9.9092   18.1115   12.9111 O   0  0  0  0  0  0  0  0  0  0  0  0
   12.3021   18.2809   15.5052 N   0  0  0  0  0  0  0  0  0  0  0  0
    8.6660   14.9213   16.5858 C   0  0  0  0  0  0  0  0  0  0  0  0
    8.3323   15.6686   17.7119 C   0  0  0  0  0  0  0  0  0  0  0  0
   10.0367   17.2107   17.2296 C   0  0  0  0  0  0  0  0  0  0  0  0
    8.0156   13.7555   16.3050 C   0  0  0  0  0  0  0  0  0  0  0  0
    8.2001   12.9812   15.1457 C   0  0  0  0  0  0  0  0  0  0  0  0
   11.3080   17.6856   12.8069 C   0  0  0  0  0  0  0  0  0  0  0  0
   11.5667   17.0873   15.3043 C   0  0  0  0  0  0  0  0  0  0  0  0
    6.7488   10.9297   14.6645 C   0  0  0  0  0  0  0  0  0  0  0  0
   11.5373   16.6325   13.8870 C   0  0  0  0  0  0  0  0  0  0  0  0
  1  6  1  0
  1 22  1  0
  2  8  1  0
  2 10  2  0
  3 17  1  0
  4 11  1  0
  4 18  1  0
  5  8  2  0
  5 12  1  0
  5 19  1  0
  6 18  1  0
  7 19  2  0
  7 25  1  0
  7 29  1  0
  8 31  1  0
  9 10  1  0
  9 12  1  0
  9 17  2  0
 12 27  2  0
 13 24  1  0
 13 25  2  0
 14 17  1  0
 14 20  1  0
 15 27  1  0
 15 30  2  0
 16 28  1  0
 19 23  1  0
 20 30  1  0
 21 28  1  0
 22 29  1  0
 23 24  1  0
 23 26  2  0
 26 27  1  0
 28 31  1  0
 29 31  1  0
M  END
>  <ID>  (1) 
conformer_0

$$$$
