
     RDKit          3D

 29 32  0  0  0  0  0  0  0  0999 V2000
    8.8384   16.8988   17.9637 C   0  0  0  0  0  0  0  0  0  0  0  0
    7.8457   10.9457   13.2593 N   0  0  0  0  0  0  0  0  0  0  0  0
   13.1432   21.9183   13.3765 O   0  0  0  0  0  0  0  0  0  0  0  0
    9.5401   15.8669   15.8847 C   0  0  0  0  0  0  0  0  0  0  0  0
   13.8837   20.3802   15.0336 C   0  0  0  0  0  0  0  0  0  0  0  0
   13.5374   18.9723   15.6103 C   0  0  0  0  0  0  0  0  0  0  0  0
    7.6250   16.4407   17.8327 O   0  0  0  0  0  0  0  0  0  0  0  0
    9.7049   16.9505   16.8220 C   0  0  0  0  0  0  0  0  0  0  0  0
    6.8235   11.6755   15.4046 N   0  0  0  0  0  0  0  0  0  0  0  0
   10.1957   15.4549   14.6106 C   0  0  0  0  0  0  0  0  0  0  0  0
    9.7528   12.2509   12.5468 C   0  0  0  0  0  0  0  0  0  0  0  0
   12.1772   15.7613   13.0791 N   0  0  0  0  0  0  0  0  0  0  0  0
    8.5845   12.8006   14.5423 N   0  0  0  0  0  0  0  0  0  0  0  0
   13.5567   16.1247   13.0585 C   0  0  0  0  0  0  0  0  0  0  0  0
    7.0778   12.8704   16.3040 C   0  0  0  0  0  0  0  0  0  0  0  0
   11.1311   16.5466   12.3338 C   0  0  0  0  0  0  0  0  0  0  0  0
    9.1183   17.7255   18.9627 O   0  0  0  0  0  0  0  0  0  0  0  0
    8.2085   13.5577   15.7323 C   0  0  0  0  0  0  0  0  0  0  0  0
    8.6568   14.7810   16.3445 C   0  0  0  0  0  0  0  0  0  0  0  0
   14.2012   16.5089   14.3547 C   0  0  0  0  0  0  0  0  0  0  0  0
    9.6298   13.0700   13.6385 C   0  0  0  0  0  0  0  0  0  0  0  0
   10.7121   17.7911   16.7932 O   0  0  0  0  0  0  0  0  0  0  0  0
    7.7318   11.7329   14.3411 C   0  0  0  0  0  0  0  0  0  0  0  0
   14.4521   17.8941   14.9880 C   0  0  0  0  0  0  0  0  0  0  0  0
   11.8650   14.3270   13.1525 C   0  0  0  0  0  0  0  0  0  0  0  0
    8.8066   11.2114   12.4104 C   0  0  0  0  0  0  0  0  0  0  0  0
    8.0542   15.1510   17.6067 C   0  0  0  0  0  0  0  0  0  0  0  0
   13.2788   20.5114   13.6035 C   0  0  0  0  0  0  0  0  0  0  0  0
   10.5609   14.1962   13.8287 C   0  0  0  0  0  0  0  0  0  0  0  0
  1  7  1  0
  1  8  1  0
  1 17  2  0
  2 23  1  0
  2 26  2  0
  3 28  1  0
  4  8  1  0
  4 10  1  0
  4 19  1  0
  5  6  1  0
  5 28  1  0
  6 24  1  0
  7 27  1  0
  8 22  1  0
  9 15  1  0
  9 23  2  0
 10 29  1  0
 11 21  2  0
 11 26  1  0
 12 14  1  0
 12 16  1  0
 12 25  1  0
 13 18  1  0
 13 21  1  0
 13 23  1  0
 14 20  1  0
 15 18  1  0
 18 19  2  0
 19 27  1  0
 20 24  1  0
 21 29  1  0
 25 29  1  0
M  END
>  <ID>  (1) 
conformer_0

$$$$
