
     RDKit          3D

 37 40  0  0  0  0  0  0  0  0999 V2000
   11.2706   15.4322   12.5007 C   0  0  0  0  0  0  0  0  0  0  0  0
   10.2605   16.8115   17.0735 C   0  0  0  0  0  0  0  0  0  0  0  0
    7.1559   17.2063   18.9291 O   0  0  0  0  0  0  0  0  0  0  0  0
    9.9651   15.5040   16.3970 C   0  0  0  0  0  0  0  0  0  0  0  0
   11.4994   17.4962   16.8644 O   0  0  0  0  0  0  0  0  0  0  0  0
    8.1324   13.5987   15.8885 C   0  0  0  0  0  0  0  0  0  0  0  0
   10.6867   16.1207   13.2070 N   0  0  0  0  0  0  0  0  0  0  0  0
   13.7669   20.2530   14.8035 C   0  0  0  0  0  0  0  0  0  0  0  0
   10.5654   12.8365   11.9814 C   0  0  0  0  0  0  0  0  0  0  0  0
    9.8823   11.6090   11.8267 N   0  0  0  0  0  0  0  0  0  0  0  0
    7.1695   10.8149   14.2853 C   0  0  0  0  0  0  0  0  0  0  0  0
    7.8038   15.3743   17.5330 C   0  0  0  0  0  0  0  0  0  0  0  0
    9.1036   12.6337   13.6520 C   0  0  0  0  0  0  0  0  0  0  0  0
   12.8565   19.0992   14.7623 C   0  0  0  0  0  0  0  0  0  0  0  0
   13.0005   16.3852   15.1777 O   0  0  0  0  0  1  0  0  0  0  0  0
   10.4310   14.9002   13.1719 C   0  0  0  0  0  0  0  0  0  0  0  0
    9.2997   17.3439   17.9202 C   0  0  0  0  0  0  0  0  0  0  0  0
    8.8740   12.8685   14.9825 C   0  0  0  0  0  0  0  0  0  0  0  0
   13.6091   22.5038   14.2244 O   0  0  0  0  0  0  0  0  0  0  0  0
   13.9560   20.7118   16.0854 O   0  0  0  0  0  0  0  0  0  0  0  0
   12.9385   17.7174   15.9201 P   0  0  0  0  0  4  0  0  0  0  0  0
    6.8553   11.6087   15.4620 N   0  0  0  0  0  0  0  0  0  0  0  0
   13.5638   21.3008   13.7870 C   0  0  0  0  0  0  0  0  0  0  0  0
   10.0375   13.5378   13.0217 C   0  0  0  0  0  0  0  0  0  0  0  0
   11.5735   13.4032   11.2276 C   0  0  0  0  0  0  0  0  0  0  0  0
   14.1821   17.9178   16.7332 O   0  0  0  0  0  0  0  0  0  0  0  0
    7.9461   10.6535   13.1877 N   0  0  0  0  0  0  0  0  0  0  0  0
    9.8981   17.2415   13.2874 C   0  0  0  0  0  0  0  0  0  0  0  0
    8.9334   17.3618   12.4491 O   0  0  0  0  0  0  0  0  0  0  0  0
    9.9032   18.2579   14.1863 N   0  0  0  0  0  0  0  0  0  0  0  0
    8.6637   14.8003   16.5243 C   0  0  0  0  0  0  0  0  0  0  0  0
    8.9378   11.4817   12.8251 C   0  0  0  0  0  0  0  0  0  0  0  0
    9.4814   18.4609   18.5832 O   0  0  0  0  0  0  0  0  0  0  0  0
   13.1228   21.0430   12.5949 O   0  0  0  0  0  0  0  0  0  0  0  0
   12.0028   14.7722   11.5087 C   0  0  0  0  0  0  0  0  0  0  0  0
    8.1253   16.5697   18.2454 C   0  0  0  0  0  0  0  0  0  0  0  0
    6.9744   12.8376   16.3197 C   0  0  0  0  0  0  0  0  0  0  0  0
  1  7  1  0
  1 16  2  0
  1 35  1  0
  2  4  1  0
  2  5  1  0
  2 17  2  0
  3 36  1  0
  4 31  1  0
  5 21  1  0
  6 18  1  0
  6 31  2  3
  6 37  1  0
  7 28  1  0
  8 14  1  0
  8 20  1  0
  8 23  1  0
  9 10  1  0
  9 24  2  0
  9 25  1  0
 10 32  1  0
 11 22  2  0
 11 27  1  0
 12 31  1  0
 12 36  2  0
 13 18  1  0
 13 24  1  0
 13 32  1  0
 14 21  1  0
 15 21  2  0
 16 24  1  0
 17 33  1  0
 17 36  1  0
 19 23  2  0
 21 26  1  0
 22 37  1  0
 23 34  1  0
 25 35  2  0
 27 32  2  0
 28 29  2  0
 28 30  1  0
M  END
>  <ID>  (1) 
conformer_0

$$$$
