
     RDKit          3D

 26 26  0  0  0  0  0  0  0  0999 V2000
   12.8204   19.5531   14.8467 O   0  0  0  0  0  0  0  0  0  0  0  0
    9.8170   16.8299   16.2838 C   0  0  0  0  0  0  0  0  0  0  0  0
    6.3478   11.5189   16.2750 N   0  0  0  0  0  0  0  0  0  0  0  0
    9.0090   17.4521   18.6854 O   0  0  0  0  0  0  0  0  0  0  0  0
    7.7358   11.1743   13.8376 N   0  0  0  0  0  0  0  0  0  0  0  0
    8.8904   14.6950   16.3093 C   0  0  0  0  0  0  0  0  0  0  0  0
    8.0591   12.1349   14.7581 C   0  0  0  0  0  0  0  0  0  0  0  0
    8.4059   11.0104   12.7128 C   0  0  0  0  0  0  0  0  0  0  0  0
    7.3643   12.2343   15.9915 C   0  0  0  0  0  0  0  0  0  0  0  0
    9.8391   12.8310   13.2585 C   0  0  0  0  0  0  0  0  0  0  0  0
   12.7808   19.5098   17.2420 O   0  0  0  0  0  0  0  0  0  0  0  0
    9.2692   14.0428   15.3068 C   0  0  0  0  0  0  0  0  0  0  0  0
    9.5217   11.8151   12.3980 C   0  0  0  0  0  0  0  0  0  0  0  0
    9.0771   15.9278   16.8901 C   0  0  0  0  0  0  0  0  0  0  0  0
   12.4974   16.0261   13.9560 C   0  0  0  0  0  0  0  0  0  0  0  0
   12.7336   18.5979   16.0675 S   0  0  0  0  0  4  0  0  0  0  0  0
   13.8692   17.5895   16.2228 O   0  0  0  0  0  0  0  0  0  0  0  0
    8.4362   16.3540   18.1508 C   0  0  0  0  0  0  0  0  0  0  0  0
    9.1302   13.0466   14.4104 C   0  0  0  0  0  0  0  0  0  0  0  0
   10.2956   17.3264   15.2227 C   0  0  0  0  0  0  0  0  0  0  0  0
   11.9131   16.8919   11.6652 C   0  0  0  0  0  0  0  0  0  0  0  0
   11.8620   17.2178   13.1463 C   0  0  0  0  0  0  0  0  0  0  0  0
   10.8292   15.7837   11.3855 C   0  0  0  0  0  0  0  0  0  0  0  0
   12.6577   14.6190   13.2393 C   0  0  0  0  0  0  0  0  0  0  0  0
   11.4369   17.7653   15.8778 N   0  0  0  0  0  0  0  0  0  0  0  0
   10.3523   17.6269   13.6523 C   0  0  0  0  0  0  0  0  0  0  0  0
  1 16  1  0
  2 14  1  0
  2 20  1  0
  3  9  2  0
  4 18  1  0
  5  7  1  0
  5  8  2  0
  6 12  1  0
  6 14  2  3
  7  9  1  0
  7 19  1  0
  8 13  1  0
 10 13  2  0
 10 19  1  0
 11 16  1  0
 12 19  2  3
 14 18  1  0
 15 22  1  0
 15 24  1  0
 16 17  1  0
 16 25  1  0
 20 25  1  0
 20 26  1  0
 21 22  1  0
 21 23  1  0
 22 26  1  0
M  END
>  <ID>  (1) 
conformer_0

$$$$
