
     RDKit          3D

 26 29  0  0  0  0  0  0  0  0999 V2000
   10.2144   12.4392   11.4052 C   0  0  0  0  0  0  0  0  0  0  0  0
    7.5063   12.2986   15.4684 C   0  0  0  0  0  0  0  0  0  0  0  0
   13.7818   20.6579   15.3848 C   0  0  0  0  0  0  0  0  0  0  0  0
    8.2251   11.1408   13.1492 C   0  0  0  0  0  0  0  0  0  0  0  0
   13.0113   19.3382   17.1665 C   0  0  0  0  0  0  0  0  0  0  0  0
    9.5714   14.9804   16.1457 C   0  0  0  0  0  0  0  0  0  0  0  0
   11.8678   17.8613   13.8314 C   0  0  0  0  0  0  0  0  0  0  0  0
   10.2587   14.3529   12.7768 C   0  0  0  0  0  0  0  0  0  0  0  0
    7.2360   10.6061   13.8563 N   0  0  0  0  0  0  0  0  0  0  0  0
    9.4779   13.6365   15.6343 N   0  0  0  0  0  0  0  0  0  0  0  0
    7.0014   13.1194   16.6170 C   0  0  0  0  0  0  0  0  0  0  0  0
    8.9208   12.3072   13.5042 C   0  0  0  0  0  0  0  0  0  0  0  0
   11.0626   14.9815   11.8466 C   0  0  0  0  0  0  0  0  0  0  0  0
    6.8514   11.1820   15.0342 C   0  0  0  0  0  0  0  0  0  0  0  0
    9.8458   15.1750   13.8080 O   0  0  0  0  0  0  0  0  0  0  0  0
   11.3710   14.4006   10.6515 C   0  0  0  0  0  0  0  0  0  0  0  0
   12.3905   18.7821   14.9239 C   0  0  0  0  0  0  0  0  0  0  0  0
    8.6565   12.7879   14.8173 C   0  0  0  0  0  0  0  0  0  0  0  0
    9.8723   17.2825   15.1607 C   0  0  0  0  0  0  0  0  0  0  0  0
   10.9331   13.0788   10.4389 C   0  0  0  0  0  0  0  0  0  0  0  0
   10.2977   17.8756   13.8042 N   0  0  0  0  0  0  0  0  0  0  0  0
   10.2021   15.7858   15.0099 C   0  0  0  0  0  0  0  0  0  0  0  0
   13.7634   20.4133   16.7077 C   0  0  0  0  0  0  0  0  0  0  0  0
    9.8117   13.0219   12.5977 C   0  0  0  0  0  0  0  0  0  0  0  0
   12.3421   18.5094   16.3080 C   0  0  0  0  0  0  0  0  0  0  0  0
   13.0703   19.8931   14.4921 N   0  0  0  0  0  0  0  0  0  0  0  0
  1 20  2  0
  1 24  1  0
  2 11  1  0
  2 14  2  0
  2 18  1  0
  3 23  2  0
  3 26  1  0
  4  9  2  0
  4 12  1  0
  5 23  1  0
  5 25  2  0
  6 10  1  0
  6 22  1  0
  7 17  1  0
  7 21  1  0
  8 13  1  0
  8 15  1  0
  8 24  2  0
  9 14  1  0
 10 18  1  0
 12 18  1  0
 12 24  1  0
 13 16  2  0
 15 22  1  0
 16 20  1  0
 17 25  1  0
 17 26  2  0
 19 21  1  0
 19 22  1  0
M  END
>  <ID>  (1) 
conformer_0

$$$$
