
     RDKit          3D

 41 47  0  0  0  0  0  0  0  0999 V2000
    8.6779   12.6352   14.3736 N   0  0  0  0  0  0  0  0  0  0  0  0
   10.4599   13.3904   12.5894 C   0  0  0  0  0  0  0  0  0  0  0  0
    9.1722   15.4770   16.7575 C   0  0  0  0  0  0  0  0  0  0  0  0
   12.2487   16.6064   12.0934 C   0  0  0  0  0  0  0  0  0  0  0  0
    6.6264   18.8161   21.5443 N   0  0  0  0  0  0  0  0  0  0  0  0
    8.6728   16.6937   17.7347 C   0  0  0  0  0  0  0  0  0  0  0  0
   12.3366   14.4821   11.2492 C   0  0  0  0  0  0  0  0  0  0  0  0
    9.2537   10.5828   10.5325 N   0  0  0  0  0  0  0  0  0  0  0  0
   13.9239   22.2647   14.6754 O   0  0  0  0  0  0  0  0  0  0  0  0
   10.5069   16.1760   14.0160 C   0  0  0  0  0  0  0  0  0  0  0  0
   10.0812   16.0618   15.5832 C   0  0  0  0  0  0  0  0  0  0  0  0
    8.9165   18.2292   19.4436 N   0  0  0  0  0  0  0  0  0  0  0  0
    7.5970   17.8190   19.4546 C   0  0  0  0  0  0  0  0  0  0  0  0
   13.6786   19.9158   16.5191 C   0  0  0  0  0  0  0  0  0  0  0  0
   11.3355   14.4948   12.2394 C   0  0  0  0  0  0  0  0  0  0  0  0
   10.3185   11.1181    9.7571 C   0  0  0  0  0  0  0  0  0  0  0  0
   10.3129   17.7554   13.8214 C   0  0  0  0  0  0  0  0  0  0  0  0
    7.8924   11.4121   13.8838 O   0  0  0  0  0  0  0  0  0  0  0  0
   10.0665   14.8725   14.5786 N   0  0  0  0  0  0  0  0  0  0  0  0
    7.4821   16.9047   18.3802 C   0  0  0  0  0  0  0  0  0  0  0  0
   10.0322   14.7242   17.6039 O   0  0  0  0  0  0  0  0  0  0  0  0
   11.8253   18.2118   15.9116 C   0  0  0  0  0  0  0  0  0  0  0  0
   10.1644   12.3440   11.6538 C   0  0  0  0  0  0  0  0  0  0  0  0
    9.1674   11.3444   11.7148 C   0  0  0  0  0  0  0  0  0  0  0  0
   11.3211   15.7397   12.8095 C   0  0  0  0  0  0  0  0  0  0  0  0
    8.2062   14.4502   16.0573 O   0  0  0  0  0  0  0  0  0  0  0  0
    9.5273   17.5742   18.3462 O   0  0  0  0  0  0  0  0  0  0  0  0
    9.0182   12.1583   16.7916 C   0  0  0  0  0  0  0  0  0  0  0  0
    6.8172   12.4075   16.0729 C   0  0  0  0  0  0  0  0  0  0  0  0
    8.1846   12.9737   15.7949 C   0  0  0  0  0  0  0  0  0  0  0  0
   12.6949   18.8564   16.7783 O   0  0  0  0  0  0  0  0  0  0  0  0
   13.0409   20.9784   13.0711 O   0  0  0  0  0  0  0  0  0  0  0  0
    6.5852   18.1354   20.3675 C   0  0  0  0  0  0  0  0  0  0  0  0
   13.7318   21.1405   14.1551 C   0  0  0  0  0  0  0  0  0  0  0  0
   11.3290   16.8216   16.2543 C   0  0  0  0  0  0  0  0  0  0  0  0
   14.1021   19.9137   15.0263 C   0  0  0  0  0  0  0  0  0  0  0  0
   12.9037   15.7907   11.1408 C   0  0  0  0  0  0  0  0  0  0  0  0
   11.1317   18.6402   14.7433 O   0  0  0  0  0  0  0  0  0  0  0  0
    9.7353   13.5791   13.8827 C   0  0  0  0  0  0  0  0  0  0  0  0
    8.1860   10.9682   12.6417 C   0  0  0  0  0  0  0  0  0  0  0  0
   10.8543   12.1673   10.4663 C   0  0  0  0  0  0  0  0  0  0  0  0
  1 18  1  0
  1 30  1  0
  1 39  1  0
  2 15  1  0
  2 23  2  0
  2 39  1  0
  3  6  1  0
  3 11  1  0
  3 21  1  0
  3 26  1  0
  4 25  1  0
  4 37  1  0
  5 33  1  0
  6 20  1  0
  6 27  1  0
  7 15  1  0
  7 37  1  0
  8 16  1  0
  8 24  1  0
  9 34  2  0
 10 17  1  0
 10 19  1  0
 10 25  1  0
 11 19  1  0
 11 35  1  0
 12 13  1  0
 12 27  1  0
 13 20  1  0
 13 33  2  3
 14 31  1  0
 14 36  1  0
 15 25  2  0
 16 41  1  0
 17 38  1  0
 18 40  1  0
 19 39  1  0
 22 31  1  0
 22 35  2  0
 22 38  1  0
 23 24  1  0
 23 41  1  0
 24 40  2  0
 26 30  1  0
 28 30  1  0
 29 30  1  0
 32 34  1  0
 34 36  1  0
M  END
>  <ID>  (1) 
conformer_0

$$$$
