
     RDKit          3D

 30 32  0  0  0  0  0  0  0  0999 V2000
   11.8841   14.5610   12.5245 C   0  0  0  0  0  0  0  0  0  0  0  0
    8.1019   11.3502   13.8551 N   0  0  0  0  0  0  0  0  0  0  0  0
    8.6416   14.2784   15.9684 C   0  0  0  0  0  0  0  0  0  0  0  0
    9.4461   17.0424   17.3360 C   0  0  0  0  0  0  0  0  0  0  0  0
   10.2771   17.1112   16.2521 C   0  0  0  0  0  0  0  0  0  0  0  0
   13.0706   22.2207   14.0251 O   0  0  0  0  0  0  0  0  0  0  0  0
   11.0773   16.3704   14.1346 N   0  0  0  0  0  0  0  0  0  0  0  0
   10.0395   12.5037   14.0746 O   0  0  0  0  0  0  0  0  0  0  0  0
   13.3186   21.0506   13.5264 C   0  0  0  0  0  0  0  0  0  0  0  0
    6.9324   12.4850   16.0081 C   0  0  0  0  0  0  0  0  0  0  0  0
   10.8357   15.4731   11.8848 C   0  0  0  0  0  0  0  0  0  0  0  0
    8.8487   17.1725   18.2551 O   0  0  0  0  0  0  0  0  0  0  0  0
   14.6028   17.4095   16.4840 O   0  0  0  0  0  0  0  0  0  0  0  0
   10.4049   16.6269   12.8420 C   0  0  0  0  0  0  0  0  0  0  0  0
    6.2673   11.4962   15.3051 C   0  0  0  0  0  0  0  0  0  0  0  0
   12.7397   18.1120   13.8619 C   0  0  0  0  0  0  0  0  0  0  0  0
    9.5985   14.9436   15.3089 C   0  0  0  0  0  0  0  0  0  0  0  0
   14.1393   20.1900   14.3986 C   0  0  0  0  0  0  0  0  0  0  0  0
   13.6474   18.8442   14.8099 C   0  0  0  0  0  0  0  0  0  0  0  0
   12.5058   16.5903   14.2182 C   0  0  0  0  0  0  0  0  0  0  0  0
   12.9149   20.8219   12.3115 O   0  0  0  0  0  0  0  0  0  0  0  0
    8.1077   13.0021   15.4893 C   0  0  0  0  0  0  0  0  0  0  0  0
    6.9402   10.9368   14.2941 N   0  0  0  0  0  0  0  0  0  0  0  0
    8.8650   12.3369   14.4485 C   0  0  0  0  0  0  0  0  0  0  0  0
   10.2863   16.1054   15.2934 C   0  0  0  0  0  0  0  0  0  0  0  0
    8.6738   16.1897   17.5673 C   0  0  0  0  0  0  0  0  0  0  0  0
   12.9818   15.3007   13.3582 C   0  0  0  0  0  0  0  0  0  0  0  0
   13.2040   19.0616   17.0353 O   0  0  0  0  0  0  0  0  0  0  0  0
    8.2473   15.0217   17.0821 C   0  0  0  0  0  0  0  0  0  0  0  0
   13.8254   18.4225   16.2039 C   0  0  0  0  0  0  0  0  0  0  0  0
  1 11  1  0
  1 27  1  0
  2 23  1  0
  2 24  1  0
  3 17  2  0
  3 22  1  0
  3 29  1  0
  4  5  1  0
  4 12  2  0
  4 26  1  0
  5 25  2  0
  6  9  2  0
  7 14  1  0
  7 20  1  0
  7 25  1  0
  8 24  2  0
  9 18  1  0
  9 21  1  0
 10 15  1  0
 10 22  1  0
 11 14  1  0
 13 30  2  0
 15 23  2  0
 16 19  1  0
 16 20  1  0
 17 25  1  0
 18 19  1  0
 19 30  1  0
 20 27  1  0
 22 24  1  0
 26 29  2  0
 28 30  1  0
M  END
>  <ID>  (1) 
conformer_0

$$$$
