
     RDKit          3D

 28 32  0  0  0  0  0  0  0  0999 V2000
    8.6184   10.8828   12.6081 C   0  0  0  0  0  0  0  0  0  0  0  0
    9.4088   11.9018   12.9145 N   0  0  0  0  0  0  0  0  0  0  0  0
    7.6143   10.3974   13.3647 C   0  0  0  0  0  0  0  0  0  0  0  0
   11.6089   16.7732   15.0523 C   0  0  0  0  0  0  0  0  0  0  0  0
    6.9578   10.8136   14.3800 N   0  0  0  0  0  0  0  0  0  0  0  0
   13.7402   21.8053   14.1423 C   0  0  0  0  0  0  0  0  0  0  0  0
   11.7605   17.6534   11.5972 O   0  0  0  0  0  0  0  0  0  0  0  0
   13.8706   20.9931   17.0886 N   0  0  0  0  0  0  0  0  0  0  0  0
   11.6484   17.9234   12.9978 C   0  0  0  0  0  0  0  0  0  0  0  0
   12.7855   17.6733   15.1194 C   0  0  0  0  0  0  0  0  0  0  0  0
   13.7941   19.4062   13.6657 O   0  0  0  0  0  0  0  0  0  0  0  0
    8.2936   12.6695   14.9561 C   0  0  0  0  0  0  0  0  0  0  0  0
   13.0364   18.1359   13.6515 C   0  0  0  0  0  0  0  0  0  0  0  0
   10.0277   13.8346   14.1372 N   0  0  0  0  0  0  0  0  0  0  0  0
    8.5122   13.7606   15.7990 C   0  0  0  0  0  0  0  0  0  0  0  0
   12.0813   18.7633   17.1775 O   0  0  0  0  0  0  0  0  0  0  0  0
    7.2626   11.8157   15.1574 C   0  0  0  0  0  0  0  0  0  0  0  0
    8.8835   15.5264   17.2131 C   0  0  0  0  0  0  0  0  0  0  0  0
    9.6136   14.4780   15.2655 C   0  0  0  0  0  0  0  0  0  0  0  0
   13.7971   19.9538   16.0688 C   0  0  0  0  0  0  0  0  0  0  0  0
    8.0313   14.3548   16.9175 C   0  0  0  0  0  0  0  0  0  0  0  0
    9.2316   12.7388   13.9493 C   0  0  0  0  0  0  0  0  0  0  0  0
    9.8129   15.5992   16.1600 C   0  0  0  0  0  0  0  0  0  0  0  0
   10.9297   16.3419   16.1626 N   0  0  0  0  0  0  0  0  0  0  0  0
   13.0450   18.6529   16.1761 C   0  0  0  0  0  0  0  0  0  0  0  0
   13.0072   18.4028   11.0601 C   0  0  0  0  0  0  0  0  0  0  0  0
   11.0791   16.7862   13.7544 O   0  0  0  0  0  0  0  0  0  0  0  0
   13.9763   20.4350   14.6771 C   0  0  0  0  0  0  0  0  0  0  0  0
  1  2  2  0
  1  3  1  0
  2 22  1  0
  3  5  2  0
  4 10  1  0
  4 24  1  0
  4 27  1  0
  5 17  1  0
  6 28  1  0
  7  9  1  0
  7 26  1  0
  8 20  1  0
  9 13  1  0
  9 27  1  0
 10 13  1  0
 10 25  1  0
 11 13  1  0
 11 28  1  0
 12 15  1  0
 12 17  2  0
 12 22  1  0
 14 19  1  0
 14 22  2  0
 15 19  2  0
 15 21  1  0
 16 25  1  0
 18 21  1  0
 18 23  1  0
 19 23  1  0
 20 25  1  0
 20 28  1  0
 23 24  1  0
M  END
>  <ID>  (1) 
conformer_0

$$$$
