
     RDKit          3D

 44 49  0  0  0  0  0  0  0  0999 V2000
   11.4365   16.1026   15.9714 C   0  0  0  0  0  0  0  0  0  0  0  0
   12.1656   13.7336   12.8166 O   0  0  0  0  0  0  0  0  0  0  0  0
    9.3456   17.7264   18.4362 N   0  0  0  0  0  0  0  0  0  0  0  0
   14.1080   22.2796   16.5416 O   0  0  0  0  0  1  0  0  0  0  0  0
   11.0078   14.9826   11.4046 O   0  0  0  0  0  0  0  0  0  0  0  0
    7.2369   10.6707   14.0424 N   0  0  0  0  0  0  0  0  0  0  0  0
    7.5620   18.3827   19.9360 O   0  0  0  0  0  0  0  0  0  0  0  0
    5.7838   18.4281   21.8255 C   0  0  0  0  0  0  0  0  0  0  0  0
    7.6866   15.6707   17.6086 C   0  0  0  0  0  0  0  0  0  0  0  0
   12.7332   16.9058   11.7777 C   0  0  0  0  0  0  0  0  0  0  0  0
   14.7006   19.9807   15.6927 O   0  0  0  0  0  0  0  0  0  0  0  0
   11.1637   13.8110   12.0825 C   0  0  0  0  0  0  0  0  0  0  0  0
    8.0902   17.5755   18.9593 C   0  0  0  0  0  0  0  0  0  0  0  0
   10.7822   15.0415   15.6245 C   0  0  0  0  0  0  0  0  0  0  0  0
   15.3226   21.3466   16.2533 P   0  0  0  0  0  4  0  0  0  0  0  0
    6.1920   18.1707   20.3715 C   0  0  0  0  0  0  0  0  0  0  0  0
    7.6461   11.7179   14.7598 C   0  0  0  0  0  0  0  0  0  0  0  0
   11.5834   18.1410   13.4401 O   0  0  0  0  0  0  0  0  0  0  0  0
    9.3072   12.3814   13.1560 C   0  0  0  0  0  0  0  0  0  0  0  0
   15.0808   17.7564   16.8238 O   0  0  0  0  0  1  0  0  0  0  0  0
    8.8041   13.5822   15.5552 C   0  0  0  0  0  0  0  0  0  0  0  0
   10.7091   17.0501   13.0674 C   0  0  0  0  0  0  0  0  0  0  0  0
   12.9516   18.0953   15.5374 O   0  0  0  0  0  0  0  0  0  0  0  0
   16.2734   21.9967   15.2262 O   0  0  0  0  0  0  0  0  0  0  0  0
   10.2090   12.8136   12.1772 N   0  0  0  0  0  0  0  0  0  0  0  0
   11.9143   18.3010   16.7073 C   0  0  0  0  0  0  0  0  0  0  0  0
    7.0217   12.0943   16.0204 N   0  0  0  0  0  0  0  0  0  0  0  0
   14.2382   18.6907   16.1666 P   0  0  0  0  0  4  0  0  0  0  0  0
    9.7297   16.9314   17.4159 C   0  0  0  0  0  0  0  0  0  0  0  0
   16.1556   21.0292   17.5249 O   0  0  0  0  0  0  0  0  0  0  0  0
   11.2357   16.3416   11.8890 C   0  0  0  0  0  0  0  0  0  0  0  0
   12.9512   17.8194   13.0264 C   0  0  0  0  0  0  0  0  0  0  0  0
    9.4689   14.8059   16.0619 C   0  0  0  0  0  0  0  0  0  0  0  0
   13.6436   17.3200   14.2953 C   0  0  0  0  0  0  0  0  0  0  0  0
   10.9714   17.1373   16.7537 N   0  0  0  0  0  0  0  0  0  0  0  0
    7.2466   16.5912   18.5022 C   0  0  0  0  0  0  0  0  0  0  0  0
   12.4919   18.0743   10.7960 O   0  0  0  0  0  0  0  0  0  0  0  0
    8.8212   11.2661   12.4516 N   0  0  0  0  0  0  0  0  0  0  0  0
    9.6569   11.5853   11.3152 C   0  0  0  0  0  0  0  0  0  0  0  0
    7.8606   10.4658   12.8980 C   0  0  0  0  0  0  0  0  0  0  0  0
    7.7507   13.1853   16.5809 C   0  0  0  0  0  0  0  0  0  0  0  0
    8.9446   15.7945   17.0277 C   0  0  0  0  0  0  0  0  0  0  0  0
    9.4208   17.3081   13.0428 O   0  0  0  0  0  0  0  0  0  0  0  0
    8.7007   12.6244   14.4294 C   0  0  0  0  0  0  0  0  0  0  0  0
  1 14  2  0
  1 35  1  0
  2 12  2  0
  3 13  1  0
  3 29  2  0
  4 15  2  0
  5 12  1  0
  5 31  1  0
  6 17  1  0
  6 40  2  0
  7 13  1  0
  7 16  1  0
  8 16  1  0
  9 36  2  0
  9 42  1  0
 10 31  1  0
 10 32  1  0
 10 37  1  0
 11 15  1  0
 11 28  1  0
 12 25  1  0
 13 36  1  0
 14 33  1  0
 15 24  1  0
 15 30  1  0
 17 27  1  0
 17 44  2  0
 18 22  1  0
 18 32  1  0
 19 25  1  0
 19 38  1  0
 19 44  1  0
 20 28  2  0
 21 33  1  0
 21 41  1  0
 21 44  1  0
 22 31  1  0
 22 43  1  0
 23 26  1  0
 23 28  1  0
 25 39  1  0
 26 35  1  0
 27 41  1  0
 29 35  1  0
 29 42  1  0
 32 34  1  0
 33 42  2  0
 38 39  1  0
 38 40  1  0
M  END
>  <ID>  (1) 
conformer_0

$$$$
