
     RDKit          3D

 26 29  0  0  0  0  0  0  0  0999 V2000
    9.3230   13.5785   14.5760 C   0  0  0  0  0  0  0  0  0  0  0  0
   10.4509   17.1582   15.0268 C   0  0  0  0  0  0  0  0  0  0  0  0
    7.5071   13.6847   16.4596 C   0  0  0  0  0  0  0  0  0  0  0  0
   11.4667   17.2588   14.0508 C   0  0  0  0  0  0  0  0  0  0  0  0
    9.9891   11.6499   11.4646 C   0  0  0  0  0  0  0  0  0  0  0  0
   11.7932   16.0768   13.3751 C   0  0  0  0  0  0  0  0  0  0  0  0
   11.1616   14.8614   13.6245 C   0  0  0  0  0  0  0  0  0  0  0  0
   12.2209   18.8329   12.2532 C   0  0  0  0  0  0  0  0  0  0  0  0
   10.0728   14.8104   14.5480 C   0  0  0  0  0  0  0  0  0  0  0  0
   10.5097   11.8116   10.2599 O   0  0  0  0  0  0  0  0  0  0  0  0
    8.0139   14.9146   17.1223 C   0  0  0  0  0  0  0  0  0  0  0  0
    8.1748   13.1973   15.2722 N   0  0  0  0  0  0  0  0  0  0  0  0
   10.5839   12.6677   12.4778 C   0  0  0  0  0  0  0  0  0  0  0  0
   13.9787   20.8057   16.0471 C   0  0  0  0  0  0  0  0  0  0  0  0
    9.5339   12.6623   13.5193 C   0  0  0  0  0  0  0  0  0  0  0  0
   11.6108   13.6601   12.8888 C   0  0  0  0  0  0  0  0  0  0  0  0
   14.4151   18.2774   16.3685 C   0  0  0  0  0  0  0  0  0  0  0  0
    8.3827   11.7095   13.4406 C   0  0  0  0  0  0  0  0  0  0  0  0
   12.2970   19.1816   16.7500 O   0  0  0  0  0  0  0  0  0  0  0  0
    7.6510   11.9909   14.7350 C   0  0  0  0  0  0  0  0  0  0  0  0
    8.7378   11.0689   12.0502 C   0  0  0  0  0  0  0  0  0  0  0  0
   12.1400   18.5419   13.6969 C   0  0  0  0  0  0  0  0  0  0  0  0
   13.0825   19.1066   14.5098 N   0  0  0  0  0  0  0  0  0  0  0  0
    9.8151   15.9575   15.2531 C   0  0  0  0  0  0  0  0  0  0  0  0
   13.3569   19.3951   15.9196 C   0  0  0  0  0  0  0  0  0  0  0  0
    6.7705   11.3976   15.3795 O   0  0  0  0  0  0  0  0  0  0  0  0
  1  9  1  0
  1 12  1  0
  1 15  2  0
  2  4  2  0
  2 24  1  0
  3 11  1  0
  3 12  1  0
  4  6  1  0
  4 22  1  0
  5 10  1  0
  5 13  1  0
  5 21  1  0
  6  7  2  0
  7  9  1  0
  7 16  1  0
  8 22  1  0
  9 24  2  0
 12 20  1  0
 13 15  1  0
 13 16  1  0
 14 25  1  0
 15 18  1  0
 17 25  1  0
 18 20  1  0
 18 21  1  0
 19 25  1  0
 20 26  2  0
 22 23  1  0
 23 25  1  0
M  END
>  <ID>  (1) 
conformer_0

$$$$
