
     RDKit          3D

 31 34  0  0  0  0  0  0  0  0999 V2000
    7.0067   10.8586   14.1175 N   0  0  0  0  0  0  0  0  0  0  0  0
   13.2444   19.4124   17.2231 O   0  0  0  0  0  0  0  0  0  0  0  0
    6.4326   11.3420   15.1933 C   0  0  0  0  0  0  0  0  0  0  0  0
   13.4098   19.6753   15.9977 C   0  0  0  0  0  0  0  0  0  0  0  0
   11.2756   13.2443   11.5916 O   0  0  0  0  0  0  0  0  0  0  0  0
   12.3075   16.7462   11.7556 C   0  0  0  0  0  0  0  0  0  0  0  0
   10.1491   15.9127   16.2518 C   0  0  0  0  0  0  0  0  0  0  0  0
   12.8173   19.8424   13.5205 C   0  0  0  0  0  0  0  0  0  0  0  0
    9.0624   12.0996   13.6417 N   0  0  0  0  0  0  0  0  0  0  0  0
    8.3700   10.1274   12.1042 C   0  0  0  0  0  0  0  0  0  0  0  0
   12.0675   16.9496   13.0629 C   0  0  0  0  0  0  0  0  0  0  0  0
   11.5190   16.0507   13.9867 C   0  0  0  0  0  0  0  0  0  0  0  0
    8.0689   13.0566   15.6675 C   0  0  0  0  0  0  0  0  0  0  0  0
   12.1213   19.6246   12.2026 O   0  0  0  0  0  0  0  0  0  0  0  0
   11.3694   14.7580   13.4754 C   0  0  0  0  0  0  0  0  0  0  0  0
    8.9112   12.8218   14.6510 C   0  0  0  0  0  0  0  0  0  0  0  0
    9.3701   11.1162   11.1009 C   0  0  0  0  0  0  0  0  0  0  0  0
   13.3267   21.3458   13.3149 C   0  0  0  0  0  0  0  0  0  0  0  0
    9.8807   16.8010   17.2608 N   0  0  0  0  0  0  0  0  0  0  0  0
    6.8893   12.3527   15.9551 C   0  0  0  0  0  0  0  0  0  0  0  0
   11.4505   17.8133   15.8263 C   0  0  0  0  0  0  0  0  0  0  0  0
   11.1077   16.5145   15.3390 C   0  0  0  0  0  0  0  0  0  0  0  0
   10.5015   12.2118   11.2887 C   0  0  0  0  0  0  0  0  0  0  0  0
    8.1161   11.1213   13.3905 C   0  0  0  0  0  0  0  0  0  0  0  0
   12.0367   15.4590   11.2487 C   0  0  0  0  0  0  0  0  0  0  0  0
   12.4284   18.8460   14.9257 C   0  0  0  0  0  0  0  0  0  0  0  0
   14.1700   20.6712   15.6799 O   0  0  0  0  0  0  0  0  0  0  0  0
    9.5370   14.7695   16.2742 N   0  0  0  0  0  0  0  0  0  0  0  0
    8.4452   14.1104   16.5645 N   0  0  0  0  0  0  0  0  0  0  0  0
   11.5558   14.4805   12.1369 C   0  0  0  0  0  0  0  0  0  0  0  0
   10.6380   17.9329   17.0104 C   0  0  0  0  0  0  0  0  0  0  0  0
  1  3  2  0
  1 24  1  0
  2  4  2  0
  3 20  1  0
  4 26  1  0
  4 27  1  0
  5 23  1  0
  5 30  1  0
  6 11  2  0
  6 25  1  0
  7 19  1  0
  7 22  2  0
  7 28  1  0
  8 14  1  0
  8 18  1  0
  8 26  1  0
  9 16  2  0
  9 24  1  0
 10 17  1  0
 10 24  1  0
 11 12  1  0
 12 15  1  0
 12 22  1  0
 13 16  1  0
 13 20  2  0
 13 29  1  0
 15 30  2  0
 17 23  1  0
 19 31  1  0
 21 22  1  0
 21 26  1  0
 21 31  1  0
 25 30  1  0
 28 29  1  0
M  END
>  <ID>  (1) 
conformer_0

$$$$
