
     RDKit          3D

 42 46  0  0  0  0  0  0  0  0999 V2000
    8.0768   14.3027   16.3344 C   0  0  0  0  0  0  0  0  0  0  0  0
   13.4234   20.5077   11.5510 C   0  0  0  0  0  0  0  0  0  0  0  0
    7.2301   10.4979   13.6670 N   0  0  0  0  0  0  0  0  0  0  0  0
    5.2341   18.1085   21.5041 C   0  0  0  0  0  0  0  0  0  0  0  0
   12.7006   18.7521   16.8031 O   0  0  0  0  0  0  0  0  0  0  0  0
   15.1103   17.7366   16.9162 O   0  0  0  0  0  0  0  0  0  0  0  0
    9.6138   17.3547   17.4172 C   0  0  0  0  0  0  0  0  0  0  0  0
   11.7943   18.3211   12.2026 C   0  0  0  0  0  0  0  0  0  0  0  0
    9.8482   11.8488   11.2840 C   0  0  0  0  0  0  0  0  0  0  0  0
   11.1603   17.0412   12.7159 O   0  0  0  0  0  0  0  0  0  0  0  0
   10.5869   12.4449   10.1223 C   0  0  0  0  0  0  0  0  0  0  0  0
   12.2885   19.1463   13.4133 C   0  0  0  0  0  0  0  0  0  0  0  0
    8.1378   12.3697   14.5560 C   0  0  0  0  0  0  0  0  0  0  0  0
   10.6326   17.2501   16.6219 C   0  0  0  0  0  0  0  0  0  0  0  0
   12.9699   17.7414   15.8068 C   0  0  0  0  0  0  0  0  0  0  0  0
   14.9280   16.0683   15.3534 C   0  0  0  0  0  0  0  0  0  0  0  0
   12.1026   15.0984   13.9533 C   0  0  0  0  0  0  0  0  0  0  0  0
   11.4803   16.5513   14.1040 C   0  0  0  0  0  0  0  0  0  0  0  0
   12.9501   21.4183   13.6764 O   0  0  0  0  0  0  0  0  0  0  0  0
    8.8622   12.1105   13.3507 C   0  0  0  0  0  0  0  0  0  0  0  0
   10.6779   13.6043   12.6625 N   0  0  0  0  0  0  0  0  0  0  0  0
    7.3203   18.5925   20.2285 O   0  0  0  0  0  0  0  0  0  0  0  0
   10.8492   14.1990   13.9073 C   0  0  0  0  0  0  0  0  0  0  0  0
    9.8412   12.5744   12.4794 C   0  0  0  0  0  0  0  0  0  0  0  0
   10.3115   10.3013    8.8618 C   0  0  0  0  0  0  0  0  0  0  0  0
    7.4503   16.8865   18.4148 C   0  0  0  0  0  0  0  0  0  0  0  0
    8.2363   10.8775   12.7330 C   0  0  0  0  0  0  0  0  0  0  0  0
    7.9261   13.1970   15.5962 C   0  0  0  0  0  0  0  0  0  0  0  0
    6.6358   18.5483   21.5126 C   0  0  0  0  0  0  0  0  0  0  0  0
   13.2648   18.3930   14.3944 C   0  0  0  0  0  0  0  0  0  0  0  0
   10.9538   11.6980    8.9380 C   0  0  0  0  0  0  0  0  0  0  0  0
    7.1256   11.3206   14.6630 C   0  0  0  0  0  0  0  0  0  0  0  0
    8.4396   15.3691   16.7760 N   0  0  0  0  0  0  0  0  0  0  0  0
    8.4542   16.5331   17.5713 C   0  0  0  0  0  0  0  0  0  0  0  0
   14.2579   17.0178   16.2529 C   0  0  0  0  0  0  0  0  0  0  0  0
    8.9252   10.7318   11.4439 C   0  0  0  0  0  0  0  0  0  0  0  0
   13.0493   20.3879   12.9265 C   0  0  0  0  0  0  0  0  0  0  0  0
    6.2144   11.3056   15.6574 N   0  0  0  0  0  0  0  0  0  0  0  0
    6.9866   17.6672   19.2442 C   0  0  0  0  0  0  0  0  0  0  0  0
    9.2062   14.9348   16.0057 C   0  0  0  0  0  0  0  0  0  0  0  0
   11.5644   17.0502   15.5337 N   0  0  0  0  0  0  0  0  0  0  0  0
   10.1511   14.4136   15.1029 C   0  0  0  0  0  0  0  0  0  0  0  0
  1 28  3  0
  1 33  1  0
  2 37  1  0
  3 27  1  0
  3 32  1  0
  4 29  1  0
  5 15  1  0
  6 35  1  0
  7 14  1  0
  7 34  1  0
  8 10  1  0
  8 12  1  0
  9 11  1  0
  9 24  1  0
  9 36  1  0
 10 18  1  0
 11 31  1  0
 12 30  1  0
 12 37  1  0
 13 20  2  0
 13 28  1  0
 13 32  1  0
 14 41  1  0
 15 30  1  0
 15 35  1  0
 15 41  1  0
 16 35  1  0
 17 18  1  0
 17 23  1  0
 18 41  1  0
 19 37  2  0
 20 24  1  0
 20 27  1  0
 21 23  1  0
 21 24  2  0
 22 29  1  0
 22 39  1  0
 23 42  1  0
 25 31  1  0
 26 34  2  3
 26 39  1  0
 27 36  1  0
 32 38  2  0
 33 34  1  0
 33 40  1  0
 40 42  3  0
M  END
>  <ID>  (1) 
conformer_0

$$$$
