
     RDKit          3D

 33 37  0  0  0  0  0  0  0  0999 V2000
    8.2304   14.4970   16.4013 C   0  0  0  0  0  0  0  0  0  0  0  0
    9.7533   18.0649   17.9298 O   0  0  0  0  0  0  0  0  0  0  0  0
    8.9782   13.3772   14.4493 C   0  0  0  0  0  0  0  0  0  0  0  0
   10.2353   12.6146   11.0517 C   0  0  0  0  0  0  0  0  0  0  0  0
   12.9138   19.1888   16.8193 C   0  0  0  0  0  0  0  0  0  0  0  0
    9.1422   12.6870   13.2654 N   0  0  0  0  0  0  0  0  0  0  0  0
   10.5011   14.5792   12.5000 C   0  0  0  0  0  0  0  0  0  0  0  0
   11.5750   16.1322   14.1505 C   0  0  0  0  0  0  0  0  0  0  0  0
   13.9241   20.8069   15.2412 C   0  0  0  0  0  0  0  0  0  0  0  0
    6.9211   11.1702   14.8341 C   0  0  0  0  0  0  0  0  0  0  0  0
   13.0036   16.0462   13.7075 C   0  0  0  0  0  0  0  0  0  0  0  0
    9.6572   11.3381   10.8350 C   0  0  0  0  0  0  0  0  0  0  0  0
   13.4341   21.1159   14.0810 O   0  0  0  0  0  0  0  0  0  0  0  0
    9.8040   14.4984   14.7343 N   0  0  0  0  0  0  0  0  0  0  0  0
    9.2736   16.9292   17.5193 C   0  0  0  0  0  0  0  0  0  0  0  0
    7.1916   12.2102   15.6868 C   0  0  0  0  0  0  0  0  0  0  0  0
    8.8002   10.8083   11.7847 C   0  0  0  0  0  0  0  0  0  0  0  0
    7.4885   10.9013   13.7141 N   0  0  0  0  0  0  0  0  0  0  0  0
   14.3789   21.6056   16.1058 O   0  0  0  0  0  0  0  0  0  0  0  0
    9.4132   15.1428   15.9245 C   0  0  0  0  0  0  0  0  0  0  0  0
    9.9251   10.5335    9.5232 C   0  0  0  0  0  0  0  0  0  0  0  0
    8.4714   11.4722   12.9634 C   0  0  0  0  0  0  0  0  0  0  0  0
   13.7934   19.3218   15.6615 C   0  0  0  0  0  0  0  0  0  0  0  0
   13.8186   16.9167   14.7092 C   0  0  0  0  0  0  0  0  0  0  0  0
    8.0627   16.3827   17.9530 N   0  0  0  0  0  0  0  0  0  0  0  0
   13.5099   18.4073   14.4609 C   0  0  0  0  0  0  0  0  0  0  0  0
   10.6406   15.0134   13.8396 C   0  0  0  0  0  0  0  0  0  0  0  0
    9.9571   16.2220   16.5531 C   0  0  0  0  0  0  0  0  0  0  0  0
    9.9864   13.2726   12.2505 C   0  0  0  0  0  0  0  0  0  0  0  0
   11.0479   13.2398    9.9211 C   0  0  0  0  0  0  0  0  0  0  0  0
   10.6987   15.5752   11.5148 O   0  0  0  0  0  0  0  0  0  0  0  0
    8.0537   13.2616   15.5254 C   0  0  0  0  0  0  0  0  0  0  0  0
    7.5784   15.1770   17.4211 C   0  0  0  0  0  0  0  0  0  0  0  0
  1 20  1  0
  1 32  1  0
  1 33  2  0
  2 15  2  0
  3  6  1  0
  3 14  1  0
  3 32  1  0
  4 12  2  0
  4 29  1  0
  4 30  1  0
  5 23  1  0
  6 22  1  0
  6 29  1  0
  7 27  1  0
  7 29  1  0
  7 31  1  0
  8 11  1  0
  8 27  1  0
  9 13  2  0
  9 19  1  0
  9 23  1  0
 10 16  1  0
 10 18  2  0
 11 24  1  0
 12 17  1  0
 12 21  1  0
 14 20  1  0
 14 27  1  0
 15 25  1  0
 15 28  1  0
 16 32  2  0
 17 22  2  0
 18 22  1  0
 20 28  2  0
 23 26  1  0
 24 26  1  0
 25 33  1  0
M  END
>  <ID>  (1) 
conformer_0

$$$$
