
     RDKit          3D

 39 44  0  0  0  0  0  0  0  0999 V2000
    8.1973   12.5158   15.8369 C   0  0  0  0  0  0  0  0  0  0  0  0
    6.9183   11.8211   15.8452 C   0  0  0  0  0  0  0  0  0  0  0  0
    9.7248   14.4492   16.0925 N   0  0  0  0  0  0  0  0  0  0  0  0
   13.4966   15.2905   12.3628 O   0  0  0  0  0  0  0  0  0  0  0  0
   11.3078   16.0797   15.8889 C   0  0  0  0  0  0  0  0  0  0  0  0
    9.1225   10.7730   11.3912 C   0  0  0  0  0  0  0  0  0  0  0  0
   11.4291   15.8991   13.2590 C   0  0  0  0  0  0  0  0  0  0  0  0
   10.1443   12.8086   12.1254 C   0  0  0  0  0  0  0  0  0  0  0  0
    6.6943   10.9955   14.8093 N   0  0  0  0  0  0  0  0  0  0  0  0
   11.4698   16.6690   14.5684 C   0  0  0  0  0  0  0  0  0  0  0  0
    7.0362   16.4442   18.2771 C   0  0  0  0  0  0  0  0  0  0  0  0
    7.9638   15.8311   17.5477 C   0  0  0  0  0  0  0  0  0  0  0  0
    7.3323   17.5198   19.0161 C   0  0  0  0  0  0  0  0  0  0  0  0
   12.7726   18.5358   15.9422 C   0  0  0  0  0  0  0  0  0  0  0  0
   13.4492   19.7635   15.8989 C   0  0  0  0  0  0  0  0  0  0  0  0
    9.2697   11.7536   12.3409 C   0  0  0  0  0  0  0  0  0  0  0  0
    8.7585   12.4150   14.5859 N   0  0  0  0  0  0  0  0  0  0  0  0
   12.2106   18.8055   13.6048 C   0  0  0  0  0  0  0  0  0  0  0  0
   11.6408   14.4826   11.2107 N   0  0  0  0  0  0  0  0  0  0  0  0
   12.2741   14.9415   12.3579 C   0  0  0  0  0  0  0  0  0  0  0  0
    9.2199   13.3376   16.6711 C   0  0  0  0  0  0  0  0  0  0  0  0
    7.4197   10.8255   13.7847 N   0  0  0  0  0  0  0  0  0  0  0  0
   11.0466   16.9077   12.1982 N   0  0  0  0  0  0  0  0  0  0  0  0
   13.5745   20.4900   14.6907 C   0  0  0  0  0  0  0  0  0  0  0  0
    9.6241   10.5771   10.1896 C   0  0  0  0  0  0  0  0  0  0  0  0
    9.6038   17.4747   18.2268 N   0  0  0  0  0  0  0  0  0  0  0  0
   11.0370   12.5626    9.8773 C   0  0  0  0  0  0  0  0  0  0  0  0
   12.8855   20.0221   13.5641 C   0  0  0  0  0  0  0  0  0  0  0  0
    9.7273   12.8445   17.6448 O   0  0  0  0  0  0  0  0  0  0  0  0
   14.3142   22.6861   15.4971 C   0  0  0  0  0  0  0  0  0  0  0  0
   10.9342   13.2699   11.0833 C   0  0  0  0  0  0  0  0  0  0  0  0
   11.5813   18.2656   12.3615 C   0  0  0  0  0  0  0  0  0  0  0  0
   12.1647   18.0304   14.7687 C   0  0  0  0  0  0  0  0  0  0  0  0
   10.2295   15.6545   16.6289 C   0  0  0  0  0  0  0  0  0  0  0  0
    8.6113   18.0596   18.9645 N   0  0  0  0  0  0  0  0  0  0  0  0
   10.4951   11.3954    9.4965 C   0  0  0  0  0  0  0  0  0  0  0  0
    9.2689   16.3329   17.4883 C   0  0  0  0  0  0  0  0  0  0  0  0
   14.4272   21.6540   14.4918 C   0  0  0  0  0  0  0  0  0  0  0  0
    8.4559   11.6339   13.5682 C   0  0  0  0  0  0  0  0  0  0  0  0
  1  2  1  0
  1 17  1  0
  1 21  1  0
  2  9  2  0
  3 21  1  0
  3 34  1  0
  4 20  2  0
  5 10  1  0
  5 34  1  0
  6 16  1  0
  6 25  2  0
  7 10  1  0
  7 20  1  0
  7 23  1  0
  8 16  2  0
  8 31  1  0
  9 22  1  0
 10 33  1  0
 11 12  2  0
 11 13  1  0
 12 37  1  0
 13 35  2  0
 14 15  1  0
 14 33  2  0
 15 24  2  0
 16 39  1  0
 17 39  2  0
 18 28  2  0
 18 32  1  0
 18 33  1  0
 19 20  1  0
 19 31  1  0
 21 29  2  0
 22 39  1  0
 23 32  2  0
 24 28  1  0
 24 38  1  0
 25 36  1  0
 26 35  1  0
 26 37  2  0
 27 31  1  0
 27 36  2  0
 30 38  1  0
 34 37  1  0
M  END
>  <ID>  (1) 
conformer_0

$$$$
