
     RDKit          3D

 42 46  0  0  0  0  0  0  0  0999 V2000
    9.3235   16.3825   17.0547 C   0  0  0  0  0  0  0  0  0  0  0  0
   10.7016   14.8545   14.0887 C   0  0  0  0  0  0  0  0  0  0  0  0
   13.8899   20.5277   16.3558 C   0  0  0  0  0  0  0  0  0  0  0  0
   10.8392   18.2142   17.1646 O   0  0  0  0  0  0  0  0  0  0  0  0
    7.1928   10.9254   14.0931 N   0  0  0  0  0  0  0  0  0  0  0  0
   13.6174   16.0616   12.2900 C   0  0  0  0  0  0  0  0  0  0  0  0
   12.8691   18.2299   11.2310 N   0  0  0  0  0  0  0  0  0  0  0  0
    7.3667   15.2530   17.4370 C   0  0  0  0  0  0  0  0  0  0  0  0
    8.2301   11.7254   13.6998 C   0  0  0  0  0  0  0  0  0  0  0  0
   13.7327   21.0661   13.8435 C   0  0  0  0  0  0  0  0  0  0  0  0
   14.1945   16.0499   13.7512 C   0  0  0  0  0  0  0  0  0  0  0  0
    9.2724   15.2583   16.0947 C   0  0  0  0  0  0  0  0  0  0  0  0
    6.4712   11.2306   15.2165 C   0  0  0  0  0  0  0  0  0  0  0  0
    8.9443    9.7775   10.5199 C   0  0  0  0  0  0  0  0  0  0  0  0
    8.9074   11.3305   12.4253 C   0  0  0  0  0  0  0  0  0  0  0  0
    7.9828   17.3372   18.9068 C   0  0  0  0  0  0  0  0  0  0  0  0
   11.1852   16.1801   12.0352 C   0  0  0  0  0  0  0  0  0  0  0  0
   13.4188   20.6251   12.4148 C   0  0  0  0  0  0  0  0  0  0  0  0
   12.7354   19.2516   12.3134 C   0  0  0  0  0  0  0  0  0  0  0  0
    7.7432   13.1923   15.6269 C   0  0  0  0  0  0  0  0  0  0  0  0
   10.4298   13.1316   12.6410 N   0  0  0  0  0  0  0  0  0  0  0  0
   10.6924   14.1216   13.2020 C   0  0  0  0  0  0  0  0  0  0  0  0
   14.0457   17.1998   11.3598 C   0  0  0  0  0  0  0  0  0  0  0  0
   10.6366   12.0042   10.6994 C   0  0  0  0  0  0  0  0  0  0  0  0
   14.2044   20.1958   14.9164 C   0  0  0  0  0  0  0  0  0  0  0  0
    6.7492   12.3317   15.9663 C   0  0  0  0  0  0  0  0  0  0  0  0
   12.2451   15.7458   12.2962 N   0  0  0  0  0  0  0  0  0  0  0  0
    9.8327   10.1168    9.5153 C   0  0  0  0  0  0  0  0  0  0  0  0
   11.2494   15.2814   12.9619 C   0  0  0  0  0  0  0  0  0  0  0  0
    6.7617   17.6681   19.3457 O   0  0  0  0  0  0  0  0  0  0  0  0
    8.0491   14.4856   16.3519 C   0  0  0  0  0  0  0  0  0  0  0  0
   11.4242   16.2942   15.9737 C   0  0  0  0  0  0  0  0  0  0  0  0
    6.6444   18.2743   20.7484 C   0  0  0  0  0  0  0  0  0  0  0  0
    8.1704   16.3937   17.8576 C   0  0  0  0  0  0  0  0  0  0  0  0
    8.5557   10.2415   11.6424 C   0  0  0  0  0  0  0  0  0  0  0  0
   13.2935   22.2609   14.0957 N   0  0  0  0  0  0  0  0  0  0  0  0
    8.9315   18.1244   19.2832 O   0  0  0  0  0  0  0  0  0  0  0  0
    8.4573   12.7443   14.5231 N   0  0  0  0  0  0  0  0  0  0  0  0
   10.6600   11.2644    9.6585 C   0  0  0  0  0  0  0  0  0  0  0  0
   10.5426   17.0611   16.8818 C   0  0  0  0  0  0  0  0  0  0  0  0
   10.4382   15.3287   15.3388 C   0  0  0  0  0  0  0  0  0  0  0  0
   10.0193   12.1619   11.8981 C   0  0  0  0  0  0  0  0  0  0  0  0
  1 12  1  0
  1 34  2  0
  1 40  1  0
  2 22  2  0
  2 41  2  0
  3 25  1  0
  4 40  2  0
  5  9  2  0
  5 13  1  0
  6 11  1  0
  6 23  1  0
  6 27  1  0
  7 19  1  0
  7 23  1  0
  8 31  1  0
  8 34  1  0
  9 15  1  0
  9 38  1  0
 10 18  1  0
 10 25  1  0
 10 36  2  0
 12 31  2  0
 12 41  1  0
 13 26  2  0
 14 28  1  0
 14 35  2  0
 15 35  1  0
 15 42  2  0
 16 30  1  0
 16 34  1  0
 16 37  2  0
 17 27  1  0
 17 29  1  0
 18 19  1  0
 20 26  1  0
 20 31  1  0
 20 38  2  0
 21 22  1  0
 21 42  1  0
 22 29  1  0
 24 39  2  0
 24 42  1  0
 28 39  1  0
 30 33  1  0
 32 40  1  0
 32 41  1  0
M  END
>  <ID>  (1) 
conformer_0

$$$$
