
     RDKit          3D

 36 41  0  0  0  0  0  0  0  0999 V2000
   10.2420   15.9957   15.6608 C   0  0  0  0  0  0  0  0  0  0  0  0
   13.9705   18.9483   10.4854 C   0  0  0  0  0  0  0  0  0  0  0  0
   12.5426   19.3597   13.3289 C   0  0  0  0  0  0  0  0  0  0  0  0
   10.4148   16.9499   16.5241 C   0  0  0  0  0  0  0  0  0  0  0  0
   10.8812   14.7354   13.8687 C   0  0  0  0  0  0  0  0  0  0  0  0
    8.2029   15.8129   17.6632 C   0  0  0  0  0  0  0  0  0  0  0  0
   15.0564   16.1448   10.2558 C   0  0  0  0  0  0  0  0  0  0  0  0
    6.2245   11.4423   15.7346 N   0  0  0  0  0  0  0  0  0  0  0  0
   11.6484   18.0891   13.1455 C   0  0  0  0  0  0  0  0  0  0  0  0
   12.3657   20.0412   14.4418 O   0  0  0  0  0  0  0  0  0  0  0  0
    9.9347   17.5629   17.5770 C   0  0  0  0  0  0  0  0  0  0  0  0
   11.3828   13.1070   12.1481 C   0  0  0  0  0  0  0  0  0  0  0  0
    8.3207   17.5806   19.1986 O   0  0  0  0  0  0  0  0  0  0  0  0
   13.9783   18.9146   12.9207 C   0  0  0  0  0  0  0  0  0  0  0  0
   11.6120   14.2230   12.8598 C   0  0  0  0  0  0  0  0  0  0  0  0
   15.5200   18.9022   10.1399 C   0  0  0  0  0  0  0  0  0  0  0  0
    8.1091   13.8687   16.1091 C   0  0  0  0  0  0  0  0  0  0  0  0
    9.1105   12.9231   14.1634 C   0  0  0  0  0  0  0  0  0  0  0  0
    7.3441   10.7493   13.8420 N   0  0  0  0  0  0  0  0  0  0  0  0
    9.2760   14.7880   15.6601 C   0  0  0  0  0  0  0  0  0  0  0  0
    8.4122   10.2580   11.8501 O   0  0  0  0  0  0  0  0  0  0  0  0
   12.3564   17.4037   11.8423 C   0  0  0  0  0  0  0  0  0  0  0  0
    9.3117   12.0408   13.1038 C   0  0  0  0  0  0  0  0  0  0  0  0
    8.3951   14.8846   16.6647 C   0  0  0  0  0  0  0  0  0  0  0  0
   15.8205   17.4048   10.1543 N   0  0  0  0  0  0  0  0  0  0  0  0
    8.8167   16.9779   18.1489 C   0  0  0  0  0  0  0  0  0  0  0  0
   11.7868   17.1079   14.2167 N   0  0  0  0  0  0  0  0  0  0  0  0
    8.0717   12.7256   15.1231 N   0  0  0  0  0  0  0  0  0  0  0  0
   11.0546   16.0079   14.4893 C   0  0  0  0  0  0  0  0  0  0  0  0
   13.0827   16.9740   14.9319 C   0  0  0  0  0  0  0  0  0  0  0  0
    7.1959   11.6072   14.9042 C   0  0  0  0  0  0  0  0  0  0  0  0
   10.3890   12.1966   12.2476 C   0  0  0  0  0  0  0  0  0  0  0  0
    8.3624   10.9804   12.9011 C   0  0  0  0  0  0  0  0  0  0  0  0
   13.8191   17.9518   11.7059 C   0  0  0  0  0  0  0  0  0  0  0  0
    9.8146   14.0855   14.4590 C   0  0  0  0  0  0  0  0  0  0  0  0
   16.8567   17.1336    9.1077 C   0  0  0  0  0  0  0  0  0  0  0  0
  1  4  2  0
  1 20  1  0
  1 29  1  0
  2 16  1  0
  2 34  1  0
  3  9  1  0
  3 10  1  0
  3 14  1  0
  4 11  1  0
  5 15  1  0
  5 29  1  0
  5 35  2  0
  6 24  1  0
  6 26  1  0
  7 25  1  0
  8 31  2  0
  9 22  1  0
  9 27  1  0
 11 26  2  0
 12 15  2  0
 12 32  1  0
 13 26  1  0
 14 34  1  0
 16 25  1  0
 17 24  1  0
 17 28  1  0
 18 23  1  0
 18 28  1  0
 18 35  1  0
 19 31  1  0
 19 33  1  0
 20 24  2  0
 20 35  1  0
 21 33  2  0
 22 34  1  0
 23 32  2  0
 23 33  1  0
 25 36  1  0
 27 29  1  0
 27 30  1  0
 28 31  1  0
M  END
>  <ID>  (1) 
conformer_0

$$$$
