
     RDKit          3D

 34 38  0  0  0  0  0  0  0  0999 V2000
   15.0334   18.2327   16.9399 F   0  0  0  0  0  0  0  0  0  0  0  0
    6.9759   12.0616   15.5271 C   0  0  0  0  0  0  0  0  0  0  0  0
   10.7216   16.1793   11.7295 C   0  0  0  0  0  0  0  0  0  0  0  0
   12.1824   17.9666   12.6466 C   0  0  0  0  0  0  0  0  0  0  0  0
    8.2952   14.1121   16.0094 C   0  0  0  0  0  0  0  0  0  0  0  0
   13.3013   21.5363   13.8459 O   0  0  0  0  0  0  0  0  0  0  0  0
    7.9088   15.8166   17.7292 C   0  0  0  0  0  0  0  0  0  0  0  0
   11.9122   15.3491   12.1183 N   0  0  0  0  0  0  0  0  0  0  0  0
   13.8796   19.4449   15.0130 C   0  0  0  0  0  0  0  0  0  0  0  0
   12.6958   15.6079   13.3509 C   0  0  0  0  0  0  0  0  0  0  0  0
    9.0907   11.7935   13.2468 C   0  0  0  0  0  0  0  0  0  0  0  0
   10.4411   13.3556   11.6591 C   0  0  0  0  0  0  0  0  0  0  0  0
   13.2008   17.8734   14.9281 C   0  0  0  0  0  0  0  0  0  0  0  0
   13.9178   21.0850   14.8460 C   0  0  0  0  0  0  0  0  0  0  0  0
    9.4888   14.7212   15.5887 C   0  0  0  0  0  0  0  0  0  0  0  0
    8.9274   12.6414   14.2691 N   0  0  0  0  0  0  0  0  0  0  0  0
    6.6386   10.9845   14.8158 C   0  0  0  0  0  0  0  0  0  0  0  0
    9.0239   17.7239   18.5373 O   0  0  0  0  0  0  0  0  0  0  0  0
    7.1799   10.4333   13.7352 N   0  0  0  0  0  0  0  0  0  0  0  0
   10.8339   17.8581   16.5490 O   0  0  0  0  0  0  0  0  0  0  0  0
   14.2170   21.8000   15.8327 O   0  0  0  0  0  0  0  0  0  0  0  0
   10.7145   17.4784   12.5994 C   0  0  0  0  0  0  0  0  0  0  0  0
   10.2643   12.0007   12.3096 C   0  0  0  0  0  0  0  0  0  0  0  0
   12.7924   18.9415   17.0254 O   0  0  0  0  0  0  0  0  0  0  0  0
   10.1273   15.7382   15.8207 C   0  0  0  0  0  0  0  0  0  0  0  0
    7.6071   14.7110   17.0329 C   0  0  0  0  0  0  0  0  0  0  0  0
   12.2047   17.8727   16.1490 C   0  0  0  0  0  0  0  0  0  0  0  0
   12.9510   17.0474   13.6179 N   0  0  0  0  0  0  0  0  0  0  0  0
    9.9958   16.7890   16.6694 C   0  0  0  0  0  0  0  0  0  0  0  0
   11.8340   13.9367   11.6732 C   0  0  0  0  0  0  0  0  0  0  0  0
   14.1353   19.3355   16.5851 C   0  0  0  0  0  0  0  0  0  0  0  0
    8.9585   16.7761   17.6657 C   0  0  0  0  0  0  0  0  0  0  0  0
    8.2034   10.7464   13.0496 C   0  0  0  0  0  0  0  0  0  0  0  0
    8.0382   12.9031   15.2387 C   0  0  0  0  0  0  0  0  0  0  0  0
  1 31  1  0
  2 17  2  0
  2 34  1  0
  3  8  1  0
  3 22  1  0
  4 22  1  0
  4 28  1  0
  5 15  1  0
  5 26  2  0
  5 34  1  0
  6 14  2  0
  7 26  1  0
  7 32  2  0
  8 10  1  0
  8 30  1  0
  9 13  1  0
  9 14  1  0
  9 31  1  0
 10 28  1  0
 11 16  2  0
 11 23  1  0
 11 33  1  0
 12 23  1  0
 12 30  1  0
 13 27  1  0
 13 28  1  0
 14 21  1  0
 15 25  2  0
 16 34  1  0
 17 19  1  0
 18 32  1  0
 19 33  2  0
 20 27  1  0
 20 29  1  0
 24 27  1  0
 24 31  1  0
 25 29  1  0
 29 32  1  0
M  END
>  <ID>  (1) 
conformer_0

$$$$
