
     RDKit          3D

 28 30  0  0  0  0  0  0  0  0999 V2000
   13.1901   19.0910   16.0083 C   0  0  0  0  0  0  0  0  0  0  0  0
   10.0309   15.9537   16.3328 C   0  0  0  0  0  0  0  0  0  0  0  0
    8.8533   12.8215   14.4141 C   0  0  0  0  0  0  0  0  0  0  0  0
    9.0144   10.4726   11.1387 C   0  0  0  0  0  0  0  0  0  0  0  0
    9.4948   14.7814   15.6783 C   0  0  0  0  0  0  0  0  0  0  0  0
    8.1005   16.0937   17.8195 C   0  0  0  0  0  0  0  0  0  0  0  0
   13.0521   16.2880   12.2337 C   0  0  0  0  0  0  0  0  0  0  0  0
   12.7773   15.0276   11.4304 C   0  0  0  0  0  0  0  0  0  0  0  0
   11.9326   17.8839   13.8396 C   0  0  0  0  0  0  0  0  0  0  0  0
    8.2719   14.2554   16.1818 C   0  0  0  0  0  0  0  0  0  0  0  0
   11.9558   18.1294   15.4225 C   0  0  0  0  0  0  0  0  0  0  0  0
   14.3949   18.1054   16.3511 C   0  0  0  0  0  0  0  0  0  0  0  0
    9.3396   16.5944   17.3664 C   0  0  0  0  0  0  0  0  0  0  0  0
    6.8244   11.0593   14.7364 C   0  0  0  0  0  0  0  0  0  0  0  0
   12.8555   19.6877   17.2155 O   0  0  0  0  0  0  0  0  0  0  0  0
    7.9154   12.9975   15.4684 C   0  0  0  0  0  0  0  0  0  0  0  0
   12.1837   16.3555   13.4238 O   0  0  0  0  0  0  0  0  0  0  0  0
    7.6163   14.9134   17.2105 C   0  0  0  0  0  0  0  0  0  0  0  0
   10.4258   17.7927   13.3196 C   0  0  0  0  0  0  0  0  0  0  0  0
   13.5268   20.0758   15.0569 O   0  0  0  0  0  0  0  0  0  0  0  0
   10.9737   13.7889   13.9701 O   0  0  0  0  0  0  0  0  0  0  0  0
   10.6834   16.4081   12.6779 O   0  0  0  0  0  0  0  0  0  0  0  0
    9.8754   13.8473   14.5802 N   0  0  0  0  0  0  0  0  0  0  0  0
    7.5956   10.8753   13.6614 N   0  0  0  0  0  0  0  0  0  0  0  0
    9.5759   11.6814   12.1025 S   0  0  0  0  0  0  0  0  0  0  0  0
    8.6094   11.7901   13.4709 C   0  0  0  0  0  0  0  0  0  0  0  0
   11.3786   16.6823   15.9849 C   0  0  0  0  0  0  0  0  0  0  0  0
    6.9722   12.0627   15.6354 N   0  0  0  0  0  0  0  0  0  0  0  0
  1 11  1  0
  1 12  1  0
  1 15  1  0
  1 20  1  0
  2  5  1  0
  2 13  2  0
  2 27  1  0
  3 16  2  0
  3 23  1  0
  3 26  1  0
  4 25  1  0
  5 10  1  0
  5 23  1  0
  6 13  1  0
  6 18  1  0
  7  8  1  0
  7 17  1  0
  9 11  1  0
  9 17  1  0
  9 19  1  0
 10 16  1  0
 10 18  2  0
 11 27  1  0
 14 24  1  0
 14 28  2  0
 16 28  1  0
 19 22  1  0
 21 23  1  0
 24 26  2  0
 25 26  1  0
M  END
>  <ID>  (1) 
conformer_0

$$$$
