
     RDKit          3D

 34 38  0  0  0  0  0  0  0  0999 V2000
    8.3457   16.1647   17.5841 C   0  0  0  0  0  0  0  0  0  0  0  0
   12.6635   17.5179   15.8953 C   0  0  0  0  0  0  0  0  0  0  0  0
    9.4995   16.5711   16.9158 C   0  0  0  0  0  0  0  0  0  0  0  0
   14.2814   21.5083   14.9668 C   0  0  0  0  0  0  0  0  0  0  0  0
   13.4763   19.3658   14.3484 C   0  0  0  0  0  0  0  0  0  0  0  0
   11.7625   15.8782   14.1091 N   0  0  0  0  0  0  0  0  0  0  0  0
    9.8151   15.6532   15.8663 C   0  0  0  0  0  0  0  0  0  0  0  0
   13.1474   16.0666   12.0555 C   0  0  0  0  0  0  0  0  0  0  0  0
   11.5384   17.0935   14.8470 C   0  0  0  0  0  0  0  0  0  0  0  0
   10.1025   17.6536   17.3638 O   0  0  0  0  0  0  0  0  0  0  0  0
   13.0474   18.2357   10.7624 O   0  0  0  0  0  0  0  0  0  0  0  0
   10.8450   15.0245   11.9605 C   0  0  0  0  0  0  0  0  0  0  0  0
    6.9669   10.6246   14.2831 N   0  0  0  0  0  0  0  0  0  0  0  0
    8.9310   13.4560   15.1224 C   0  0  0  0  0  0  0  0  0  0  0  0
    7.7956   16.8254   18.5420 F   0  0  0  0  0  0  0  0  0  0  0  0
    7.9608   14.9378   16.9999 C   0  0  0  0  0  0  0  0  0  0  0  0
    8.4517   12.2849   14.4885 C   0  0  0  0  0  0  0  0  0  0  0  0
   11.7037   16.1350   12.6453 C   0  0  0  0  0  0  0  0  0  0  0  0
   10.8043   15.7806   14.9390 C   0  0  0  0  0  0  0  0  0  0  0  0
   13.8267   17.2907   11.5712 C   0  0  0  0  0  0  0  0  0  0  0  0
   13.6685   19.8298   16.6905 C   0  0  0  0  0  0  0  0  0  0  0  0
   11.3434   13.6098   12.3910 C   0  0  0  0  0  0  0  0  0  0  0  0
   10.7338   12.3308   11.9218 C   0  0  0  0  0  0  0  0  0  0  0  0
   11.0710   17.4277   12.5317 N   0  0  0  0  0  0  0  0  0  0  0  0
    8.8631   14.5958   15.9470 C   0  0  0  0  0  0  0  0  0  0  0  0
   10.8570   18.0306   13.8970 C   0  0  0  0  0  0  0  0  0  0  0  0
    7.3014   11.6252   15.0441 C   0  0  0  0  0  0  0  0  0  0  0  0
    6.6778   11.9696   16.1400 N   0  0  0  0  0  0  0  0  0  0  0  0
    8.7430   11.5170   13.3248 C   0  0  0  0  0  0  0  0  0  0  0  0
   13.3039   18.9571   15.6451 C   0  0  0  0  0  0  0  0  0  0  0  0
    7.7695   10.4712   13.2966 C   0  0  0  0  0  0  0  0  0  0  0  0
    9.5030   11.7782   12.2194 C   0  0  0  0  0  0  0  0  0  0  0  0
   13.9189   20.5903   13.9521 C   0  0  0  0  0  0  0  0  0  0  0  0
   14.1630   21.1012   16.3143 C   0  0  0  0  0  0  0  0  0  0  0  0
  1  3  2  0
  1 15  1  0
  1 16  1  0
  2  9  1  0
  2 30  1  0
  3  7  1  0
  3 10  1  0
  4 33  2  0
  4 34  1  0
  5 30  2  0
  5 33  1  0
  6  9  1  0
  6 18  1  0
  6 19  1  0
  7 19  1  0
  7 25  1  0
  8 18  1  0
  8 20  1  0
  9 26  1  0
 11 20  1  0
 12 18  1  0
 12 22  1  0
 13 27  1  0
 13 31  1  0
 14 17  2  0
 14 25  2  0
 16 25  1  0
 17 27  1  0
 17 29  1  0
 18 24  1  0
 21 30  1  0
 21 34  2  0
 22 23  1  0
 23 32  1  0
 24 26  1  0
 27 28  2  0
 29 31  1  0
 29 32  1  0
M  END
>  <ID>  (1) 
conformer_0

$$$$
