
     RDKit          3D

 42 48  0  0  0  0  0  0  0  0999 V2000
    8.5681   14.3411   15.6940 C   0  0  0  0  0  0  0  0  0  0  0  0
   11.4116   14.1400   12.1290 C   0  0  0  0  0  0  0  0  0  0  0  0
    9.5158   16.3467   16.8516 C   0  0  0  0  0  0  0  0  0  0  0  0
   10.7264   15.4842   12.2957 C   0  0  0  0  0  0  0  0  0  0  0  0
    7.3426   15.5635   17.4651 N   0  0  0  0  0  0  0  0  0  0  0  0
   13.6035   19.6313   14.6173 O   0  0  0  0  0  0  0  0  0  0  0  0
   15.5643   21.1693   15.4020 O   0  0  0  0  0  1  0  0  0  0  0  0
   10.5974   16.2620   15.9511 N   0  0  0  0  0  0  0  0  0  0  0  0
   11.9617   16.3889   16.5225 C   0  0  0  0  0  0  0  0  0  0  0  0
   14.1599   18.3659   14.9163 C   0  0  0  0  0  0  0  0  0  0  0  0
   12.4816   14.4055   11.0092 C   0  0  0  0  0  0  0  0  0  0  0  0
   14.0638   21.0653   15.2989 P   0  0  0  0  0  4  0  0  0  0  0  0
   13.5057   21.0729   16.7875 O   0  0  0  0  0  0  0  0  0  0  0  0
    6.9243   10.9539   14.4617 N   0  0  0  0  0  0  0  0  0  0  0  0
    8.4381   15.4134   16.6559 C   0  0  0  0  0  0  0  0  0  0  0  0
   10.1572   11.8968   11.8430 C   0  0  0  0  0  0  0  0  0  0  0  0
   13.3405   15.5560   11.2846 C   0  0  0  0  0  0  0  0  0  0  0  0
    6.9732   11.8462   15.5665 C   0  0  0  0  0  0  0  0  0  0  0  0
   13.3699   16.2851   12.6138 N   0  0  0  0  0  0  0  0  0  0  0  0
   12.3131   18.2914   11.9402 O   0  0  0  0  0  0  0  0  0  0  0  0
   10.0265   17.6792   12.9810 C   0  0  0  0  0  0  0  0  0  0  0  0
   10.3729   15.7622   14.6584 N   0  0  0  0  0  0  0  0  0  0  0  0
    7.9114   12.9714   15.3293 C   0  0  0  0  0  0  0  0  0  0  0  0
   12.2823   17.2138   12.7396 C   0  0  0  0  0  0  0  0  0  0  0  0
    9.6102   13.4021   13.7457 C   0  0  0  0  0  0  0  0  0  0  0  0
    9.5817   14.5552   14.6529 C   0  0  0  0  0  0  0  0  0  0  0  0
   14.6010   18.1866   16.2130 O   0  0  0  0  0  0  0  0  0  0  0  0
    7.2803   16.5487   18.3652 C   0  0  0  0  0  0  0  0  0  0  0  0
    8.3308   18.3031   19.5606 O   0  0  0  0  0  0  0  0  0  0  0  0
   10.5042   13.0645   12.6653 C   0  0  0  0  0  0  0  0  0  0  0  0
    9.7413   18.5525   14.0460 O   0  0  0  0  0  0  0  0  0  0  0  0
    6.4958   11.6570   16.6786 O   0  0  0  0  0  0  0  0  0  0  0  0
   13.4314   22.2027   14.3529 O   0  0  0  0  0  0  0  0  0  0  0  0
    7.9129   11.3628   13.5711 C   0  0  0  0  0  0  0  0  0  0  0  0
    8.3528   17.3807   18.5973 C   0  0  0  0  0  0  0  0  0  0  0  0
    8.1054   10.6940   12.4475 N   0  0  0  0  0  0  0  0  0  0  0  0
    8.5268   12.5301   14.1058 C   0  0  0  0  0  0  0  0  0  0  0  0
    9.4337   17.2514   17.8420 N   0  0  0  0  0  0  0  0  0  0  0  0
   11.0179   16.5187   13.4111 C   0  0  0  0  0  0  0  0  0  0  0  0
   14.1943   17.0879   14.0290 C   0  0  0  0  0  0  0  0  0  0  0  0
    9.0901   11.0042   11.5245 C   0  0  0  0  0  0  0  0  0  0  0  0
   14.4725   15.9192   10.4093 C   0  0  0  0  0  0  0  0  0  0  0  0
  1 15  1  0
  1 23  2  0
  1 26  1  0
  2  4  1  0
  2 11  1  0
  2 30  1  0
  3  8  1  0
  3 15  1  0
  3 38  2  0
  4 39  1  0
  5 15  1  0
  5 28  2  0
  6 10  1  0
  6 12  1  0
  7 12  2  0
  8  9  1  0
  8 22  1  0
 10 27  2  0
 10 40  1  0
 11 17  1  0
 12 13  1  0
 12 33  1  0
 14 18  1  0
 14 34  1  0
 16 30  1  0
 16 41  1  0
 17 19  1  0
 17 42  1  0
 18 23  1  0
 18 32  2  0
 19 24  1  0
 19 40  1  0
 20 24  2  0
 21 31  1  0
 21 39  1  0
 22 26  1  0
 22 39  1  0
 23 37  1  0
 24 39  1  0
 25 26  1  0
 25 30  1  0
 25 37  2  0
 28 35  1  0
 29 35  2  0
 34 36  2  0
 34 37  1  0
 35 38  1  0
 36 41  1  0
M  END
>  <ID>  (1) 
conformer_0

$$$$
