
     RDKit          3D

 46 51  0  0  0  0  0  0  0  0999 V2000
    9.5363   16.6070   17.1154 C   0  0  0  0  0  0  0  0  0  0  0  0
   14.5254   21.5708   15.7401 C   0  0  0  0  0  0  0  0  0  0  0  0
    8.1041   18.4641   20.0394 C   0  0  0  0  0  0  0  0  0  0  0  0
   10.4689   12.8648   12.4450 C   0  0  0  0  0  0  0  0  0  0  0  0
    9.0150   18.0668   19.1133 N   0  0  0  0  0  0  0  0  0  0  0  0
    6.7856   11.6946   15.6839 N   0  0  0  0  0  0  0  0  0  0  0  0
   14.2591   20.4152   14.7978 C   0  0  0  0  0  0  0  0  0  0  0  0
    8.8004   12.9487   15.0618 C   0  0  0  0  0  0  0  0  0  0  0  0
    5.7762   18.6580   20.7157 O   0  0  0  0  0  0  0  0  0  0  0  0
    8.6298   17.1363   18.0728 C   0  0  0  0  0  0  0  0  0  0  0  0
   10.8113   11.9377   10.3139 C   0  0  0  0  0  0  0  0  0  0  0  0
    9.9409   12.7392   17.4500 C   0  0  0  0  0  0  0  0  0  0  0  0
    6.6372   11.1385   14.4521 N   0  0  0  0  0  0  0  0  0  0  0  0
    6.4934   12.9048   16.1403 C   0  0  0  0  0  0  0  0  0  0  0  0
    7.2892   16.7961   18.0157 C   0  0  0  0  0  0  0  0  0  0  0  0
    8.6553   12.2675   17.2688 N   0  0  0  0  0  0  0  0  0  0  0  0
    6.6854   18.1222   19.9397 C   0  0  0  0  0  0  0  0  0  0  0  0
    6.3828   17.3021   18.8814 C   0  0  0  0  0  0  0  0  0  0  0  0
   12.0121   17.6422   14.6120 N   0  0  0  0  0  0  0  0  0  0  0  0
    9.9058   17.9676   14.3881 O   0  0  0  0  0  0  0  0  0  0  0  0
   10.0999   11.9808   11.5346 C   0  0  0  0  0  0  0  0  0  0  0  0
    7.5976   11.0373   13.5200 C   0  0  0  0  0  0  0  0  0  0  0  0
    8.0002   12.4085   16.0355 C   0  0  0  0  0  0  0  0  0  0  0  0
   10.8203   17.0224   14.9139 C   0  0  0  0  0  0  0  0  0  0  0  0
   14.3298   22.8466   14.8785 C   0  0  0  0  0  0  0  0  0  0  0  0
    9.0854   10.9805   11.5216 C   0  0  0  0  0  0  0  0  0  0  0  0
   10.2925   10.8809    9.5751 C   0  0  0  0  0  0  0  0  0  0  0  0
   13.0576   14.8807   11.9683 O   0  0  0  0  0  0  0  0  0  0  0  0
   10.6056   14.4187   14.2581 C   0  0  0  0  0  0  0  0  0  0  0  0
   12.4911   18.4604   10.8823 N   0  0  0  0  0  0  0  0  0  0  0  0
   12.1803   14.3441   12.4606 C   0  0  0  0  0  0  0  0  0  0  0  0
   14.5931   18.7889   14.6085 C   0  0  0  0  0  0  0  0  0  0  0  0
   14.0948   17.6521   13.3470 C   0  0  0  0  0  0  0  0  0  0  0  0
   10.0228   13.5125   15.2237 C   0  0  0  0  0  0  0  0  0  0  0  0
    9.2090   10.2344   10.3121 C   0  0  0  0  0  0  0  0  0  0  0  0
    8.0993   10.7219   12.4274 N   0  0  0  0  0  0  0  0  0  0  0  0
   12.5180   17.8904   13.2355 C   0  0  0  0  0  0  0  0  0  0  0  0
   10.6240   13.3615   16.4584 N   0  0  0  0  0  0  0  0  0  0  0  0
   13.1435   20.4064   12.3813 C   0  0  0  0  0  0  0  0  0  0  0  0
   11.1167   13.8547   13.0293 N   0  0  0  0  0  0  0  0  0  0  0  0
   13.6838   21.0209   13.6435 N   0  0  0  0  0  0  0  0  0  0  0  0
   12.3632   19.1022   12.2258 C   0  0  0  0  0  0  0  0  0  0  0  0
   10.6658   17.1084   16.4962 C   0  0  0  0  0  0  0  0  0  0  0  0
   10.7330   15.7712   14.4416 C   0  0  0  0  0  0  0  0  0  0  0  0
   11.7899   17.2973   17.0701 O   0  0  0  0  0  0  0  0  0  0  0  0
   14.1885   22.3834   13.5284 C   0  0  0  0  0  0  0  0  0  0  0  0
  1 10  1  0
  1 43  1  0
  2  7  1  0
  2 25  1  0
  3  5  2  0
  3 17  1  0
  4 21  1  0
  4 40  1  0
  5 10  1  0
  6 13  1  0
  6 14  1  0
  6 23  1  0
  7 32  2  0
  7 41  1  0
  8 23  2  0
  8 34  1  0
  9 17  1  0
 10 15  2  0
 11 21  1  0
 11 27  1  0
 12 16  1  0
 12 38  2  0
 13 22  1  0
 15 18  1  0
 16 23  1  0
 17 18  2  0
 19 24  1  0
 19 37  1  0
 20 24  1  0
 21 26  2  0
 22 36  1  0
 24 43  1  0
 24 44  1  0
 25 46  1  0
 26 35  1  0
 26 36  1  0
 27 35  1  0
 28 31  1  0
 29 34  1  0
 29 40  1  0
 29 44  1  0
 30 42  1  0
 31 40  1  0
 32 33  1  0
 33 37  1  0
 34 38  1  0
 37 42  1  0
 39 41  1  0
 39 42  1  0
 41 46  1  0
 43 45  2  0
M  END
>  <ID>  (1) 
conformer_0

$$$$
