
     RDKit          3D

 36 41  0  0  0  0  0  0  0  0999 V2000
    9.2834   13.3187   14.6614 N   0  0  0  0  0  0  0  0  0  0  0  0
   10.1348   17.8420   17.3318 C   0  0  0  0  0  0  0  0  0  0  0  0
   10.4561   13.6458   14.0023 C   0  0  0  0  0  0  0  0  0  0  0  0
   10.4465   16.2190   15.5538 C   0  0  0  0  0  0  0  0  0  0  0  0
    8.4196   10.5398   12.5558 C   0  0  0  0  0  0  0  0  0  0  0  0
    6.8535   10.7122   14.2988 N   0  0  0  0  0  0  0  0  0  0  0  0
   10.6618   17.3747   16.2063 C   0  0  0  0  0  0  0  0  0  0  0  0
   11.0678   18.0700   12.8511 C   0  0  0  0  0  0  0  0  0  0  0  0
   11.8626   17.4475   13.9036 N   0  0  0  0  0  0  0  0  0  0  0  0
    8.8297   13.9951   15.7938 C   0  0  0  0  0  0  0  0  0  0  0  0
    8.5798   17.4105   19.0012 O   0  0  0  0  0  0  0  0  0  0  0  0
   11.5512   14.1807   11.7777 C   0  0  0  0  0  0  0  0  0  0  0  0
    9.9256   12.4914   12.0557 C   0  0  0  0  0  0  0  0  0  0  0  0
   11.2984   16.0512   14.2922 C   0  0  0  0  0  0  0  0  0  0  0  0
    7.4683   11.7963   14.7898 C   0  0  0  0  0  0  0  0  0  0  0  0
   11.3456   13.6780   10.5086 C   0  0  0  0  0  0  0  0  0  0  0  0
   12.7480   18.3718   14.5562 N   0  0  0  0  0  0  0  0  0  0  0  0
    9.1735   17.0033   17.9019 C   0  0  0  0  0  0  0  0  0  0  0  0
   14.4122   22.3692   15.1333 C   0  0  0  0  0  0  0  0  0  0  0  0
   10.3518   12.5643   10.6954 C   0  0  0  0  0  0  0  0  0  0  0  0
   10.6748   13.4850   12.6393 C   0  0  0  0  0  0  0  0  0  0  0  0
    9.3864   15.3152   16.1843 C   0  0  0  0  0  0  0  0  0  0  0  0
   13.2436   18.8193   15.8251 C   0  0  0  0  0  0  0  0  0  0  0  0
    7.8366   13.3479   16.5990 C   0  0  0  0  0  0  0  0  0  0  0  0
    7.3781   10.1286   13.2713 N   0  0  0  0  0  0  0  0  0  0  0  0
   12.5045   15.1734   12.1936 C   0  0  0  0  0  0  0  0  0  0  0  0
   14.2890   20.8654   14.8593 C   0  0  0  0  0  0  0  0  0  0  0  0
    8.5811   12.2725   14.1138 C   0  0  0  0  0  0  0  0  0  0  0  0
   13.6133   20.1712   15.8803 N   0  0  0  0  0  0  0  0  0  0  0  0
   13.6042   18.0372   16.7173 O   0  0  0  0  0  0  0  0  0  0  0  0
    7.0126   12.4316   15.9625 C   0  0  0  0  0  0  0  0  0  0  0  0
   12.5334   15.1819   13.8008 C   0  0  0  0  0  0  0  0  0  0  0  0
    8.9925   11.7583   12.8472 C   0  0  0  0  0  0  0  0  0  0  0  0
   14.7537   20.4234   13.7122 O   0  0  0  0  0  0  0  0  0  0  0  0
   13.4406   23.0728   14.4481 O   0  0  0  0  0  0  0  0  0  0  0  0
    8.8357   15.8090   17.3285 C   0  0  0  0  0  0  0  0  0  0  0  0
  1  3  1  0
  1 10  1  0
  1 28  1  0
  2  7  1  0
  2 18  1  0
  3 21  1  0
  4  7  2  0
  4 14  1  0
  4 22  1  0
  5 25  2  0
  5 33  1  0
  6 15  2  0
  6 25  1  0
  8  9  1  0
  9 14  1  0
  9 17  1  0
 10 22  2  0
 10 24  1  0
 11 18  1  0
 12 16  1  0
 12 21  1  0
 12 26  1  0
 13 20  1  0
 13 21  2  0
 13 33  1  0
 14 32  1  0
 15 28  1  0
 15 31  1  0
 16 20  1  0
 17 23  1  0
 18 36  2  0
 19 27  1  0
 19 35  1  0
 22 36  1  0
 23 29  1  0
 23 30  2  0
 24 31  1  0
 26 32  1  0
 27 29  1  0
 27 34  2  0
 28 33  1  0
M  END
>  <ID>  (1) 
conformer_0

$$$$
