
     RDKit          3D

 42 47  0  0  0  0  0  0  0  0999 V2000
   14.3574   18.2645   15.0649 O   0  0  0  0  0  0  0  0  0  0  0  0
    9.2834   15.7462   16.9733 C   0  0  0  0  0  0  0  0  0  0  0  0
   13.1875   21.8178   13.4814 O   0  0  0  0  0  0  0  0  0  0  0  0
    9.4926   17.9148   18.1470 O   0  0  0  0  0  0  0  0  0  0  0  0
    8.4545   10.5821   12.0102 C   0  0  0  0  0  0  0  0  0  0  0  0
    8.9028   15.2456   15.5032 C   0  0  0  0  0  0  0  0  0  0  0  0
   13.3544   20.6163   17.5996 O   0  0  0  0  0  0  0  0  0  0  0  0
   15.1053   18.1102   17.2797 O   0  0  0  0  0  0  0  0  0  0  0  0
   14.3697   20.6115   15.1271 C   0  0  0  0  0  0  0  0  0  0  0  0
   12.6102   17.9788   16.7350 C   0  0  0  0  0  0  0  0  0  0  0  0
   14.0169   18.5787   16.4586 C   0  0  0  0  0  0  0  0  0  0  0  0
   14.1165   21.8928   14.5992 O   0  0  0  0  0  0  0  0  0  0  0  0
    8.9082   15.9006   14.5554 O   0  0  0  0  0  0  0  0  0  0  0  0
    7.4117   14.2657   16.9669 C   0  0  0  0  0  0  0  0  0  0  0  0
    7.9224   15.4021   17.6122 C   0  0  0  0  0  0  0  0  0  0  0  0
    9.6789   12.6273   12.1820 C   0  0  0  0  0  0  0  0  0  0  0  0
    7.1696   11.9403   15.1213 C   0  0  0  0  0  0  0  0  0  0  0  0
   10.3345   14.6200   17.4268 C   0  0  0  0  0  0  0  0  0  0  0  0
   12.2072   13.7510   13.3041 C   0  0  0  0  0  0  0  0  0  0  0  0
   14.1829   19.4568   14.2066 C   0  0  0  0  0  0  0  0  0  0  0  0
   11.9039   15.6543   11.6896 C   0  0  0  0  0  0  0  0  0  0  0  0
    9.8799   17.0954   17.2878 C   0  0  0  0  0  0  0  0  0  0  0  0
    7.2196   16.4937   18.2400 C   0  0  0  0  0  0  0  0  0  0  0  0
    8.1350   13.0251   14.7370 C   0  0  0  0  0  0  0  0  0  0  0  0
   10.6757   13.3374   11.4257 C   0  0  0  0  0  0  0  0  0  0  0  0
    9.3469   11.5003   11.3379 N   0  0  0  0  0  0  0  0  0  0  0  0
   14.1160   20.1391   16.5309 C   0  0  0  0  0  0  0  0  0  0  0  0
    8.1884   14.1188   15.7067 N   0  0  0  0  0  0  0  0  0  0  0  0
    7.1880   10.9161   14.1749 N   0  0  0  0  0  0  0  0  0  0  0  0
   10.7676   12.7749   10.0856 C   0  0  0  0  0  0  0  0  0  0  0  0
   14.1276   15.7782   12.6008 O   0  0  0  0  0  0  0  0  0  0  0  0
   11.6500   18.3552   12.9738 C   0  0  0  0  0  0  0  0  0  0  0  0
    8.0744   11.2139   13.2344 C   0  0  0  0  0  0  0  0  0  0  0  0
    8.7996   12.5114   13.4056 C   0  0  0  0  0  0  0  0  0  0  0  0
   10.7155   16.5654   11.6387 N   0  0  0  0  0  0  0  0  0  0  0  0
   13.0150   16.2364   12.5308 C   0  0  0  0  0  0  0  0  0  0  0  0
    9.8974   11.6177   10.0671 C   0  0  0  0  0  0  0  0  0  0  0  0
   12.7475   17.3979   13.2477 N   0  0  0  0  0  0  0  0  0  0  0  0
   10.3780   17.4869   12.7781 C   0  0  0  0  0  0  0  0  0  0  0  0
   11.1555   17.3562   16.7891 O   0  0  0  0  0  0  0  0  0  0  0  0
   11.7010   14.1998   11.8874 C   0  0  0  0  0  0  0  0  0  0  0  0
    6.3586   11.8657   16.1548 N   0  0  0  0  0  0  0  0  0  0  0  0
  1 11  1  0
  1 20  1  0
  2  6  1  0
  2 15  1  0
  2 18  1  0
  2 22  1  0
  3 12  1  0
  4 22  2  0
  5 26  1  0
  5 33  1  0
  6 13  2  0
  6 28  1  0
  7 27  1  0
  8 11  1  0
  9 12  1  0
  9 20  1  0
  9 27  1  0
 10 11  1  0
 10 40  1  0
 11 27  1  0
 14 15  1  0
 14 28  1  0
 15 23  1  0
 16 25  1  0
 16 26  1  0
 16 34  1  0
 17 24  1  0
 17 29  1  0
 17 42  2  0
 19 41  1  0
 21 35  1  0
 21 36  1  0
 21 41  1  0
 22 40  1  0
 24 28  1  0
 24 34  1  0
 25 30  1  0
 25 41  1  0
 26 37  1  0
 29 33  1  0
 30 37  1  0
 31 36  2  0
 32 38  1  0
 32 39  1  0
 33 34  2  0
 35 39  1  0
 36 38  1  0
M  END
>  <ID>  (1) 
conformer_0

$$$$
