
     RDKit          3D

 31 34  0  0  0  0  0  0  0  0999 V2000
    8.9319   17.2500   18.3828 C   0  0  0  0  0  0  0  0  0  0  0  0
    9.1042   14.3731   15.6758 N   0  0  0  0  0  0  0  0  0  0  0  0
   12.4041   16.8678   14.7193 C   0  0  0  0  0  0  0  0  0  0  0  0
   13.5160   19.7728   12.6641 N   0  0  0  0  0  0  0  0  0  0  0  0
    8.4676   12.4037   14.4288 C   0  0  0  0  0  0  0  0  0  0  0  0
   12.8694   20.1178   14.8556 O   0  0  0  0  0  0  0  0  0  0  0  0
    8.7030   11.4951   13.4090 C   0  0  0  0  0  0  0  0  0  0  0  0
   10.2620   13.9000   13.7621 C   0  0  0  0  0  0  0  0  0  0  0  0
    7.6843   16.4867   17.9737 C   0  0  0  0  0  0  0  0  0  0  0  0
   12.3782   17.1465   16.0412 O   0  0  0  0  0  0  0  0  0  0  0  0
   12.4361   15.4138   12.7284 C   0  0  0  0  0  0  0  0  0  0  0  0
   13.2574   17.8111   13.9582 C   0  0  0  0  0  0  0  0  0  0  0  0
   14.0374   17.4697   12.6928 C   0  0  0  0  0  0  0  0  0  0  0  0
    6.8054   10.2409   13.9977 C   0  0  0  0  0  0  0  0  0  0  0  0
    6.5490   11.0839   15.0712 C   0  0  0  0  0  0  0  0  0  0  0  0
   11.3930   13.4801   11.6048 C   0  0  0  0  0  0  0  0  0  0  0  0
   11.8841   15.7464   13.8879 C   0  0  0  0  0  0  0  0  0  0  0  0
    9.7450   16.5801   16.0982 O   0  0  0  0  0  0  0  0  0  0  0  0
    7.3867   12.2094   15.2816 C   0  0  0  0  0  0  0  0  0  0  0  0
    7.8915   10.4215   13.1888 C   0  0  0  0  0  0  0  0  0  0  0  0
   12.8208   20.7883   12.0807 N   0  0  0  0  0  0  0  0  0  0  0  0
   13.8359   18.6515   11.7158 C   0  0  0  0  0  0  0  0  0  0  0  0
   10.0811   16.7803   17.4382 C   0  0  0  0  0  0  0  0  0  0  0  0
   10.7456   15.0520   14.3401 C   0  0  0  0  0  0  0  0  0  0  0  0
    9.2415   13.5099   14.6548 N   0  0  0  0  0  0  0  0  0  0  0  0
    9.8981   15.3588   15.4377 C   0  0  0  0  0  0  0  0  0  0  0  0
   10.5253   13.2455   12.6204 C   0  0  0  0  0  0  0  0  0  0  0  0
    8.9823   18.6395   18.4187 O   0  0  0  0  0  0  0  0  0  0  0  0
    9.1161   16.8386   19.7221 O   0  0  0  0  0  0  0  0  0  0  0  0
   12.2802   14.5574   11.7002 C   0  0  0  0  0  0  0  0  0  0  0  0
   12.9734   19.2660   13.9068 C   0  0  0  0  0  0  0  0  0  0  0  0
  1  9  1  0
  1 23  1  0
  1 28  1  0
  1 29  1  0
  2 25  1  0
  2 26  1  0
  3 10  1  0
  3 12  1  0
  3 17  1  0
  4 21  1  0
  4 22  1  0
  4 31  1  0
  5  7  2  0
  5 19  1  0
  5 25  1  0
  6 31  2  0
  7 20  1  0
  8 24  1  0
  8 25  1  0
  8 27  2  0
 11 17  2  0
 11 30  1  0
 12 13  1  0
 12 31  1  0
 13 22  1  0
 14 15  1  0
 14 20  2  0
 15 19  2  0
 16 27  1  0
 16 30  2  0
 17 24  1  0
 18 23  1  0
 18 26  1  0
 24 26  1  0
M  END
>  <ID>  (1) 
conformer_0

$$$$
