
     RDKit          3D

 29 33  0  0  0  0  0  0  0  0999 V2000
    8.7813   14.8492   16.0049 C   0  0  0  0  0  0  0  0  0  0  0  0
    9.2953   13.4867   13.9913 C   0  0  0  0  0  0  0  0  0  0  0  0
   11.8511   18.9037   13.6228 O   0  0  0  0  0  0  0  0  0  0  0  0
   12.1787   18.3676   16.6235 C   0  0  0  0  0  0  0  0  0  0  0  0
    9.8711   15.6727   15.6836 C   0  0  0  0  0  0  0  0  0  0  0  0
   10.4437   15.5348   14.4471 N   0  0  0  0  0  0  0  0  0  0  0  0
    8.9232   12.2045   13.4242 C   0  0  0  0  0  0  0  0  0  0  0  0
   13.8055   21.0798   15.5075 O   0  0  0  0  0  1  0  0  0  0  0  0
   12.5456   17.6789   14.2305 C   0  0  0  0  0  0  0  0  0  0  0  0
   10.1526   14.5068   13.5927 C   0  0  0  0  0  0  0  0  0  0  0  0
   13.0635   15.6745   12.4022 O   0  0  0  0  0  0  0  0  0  0  0  0
    7.6351   12.5373   15.2630 C   0  0  0  0  0  0  0  0  0  0  0  0
    6.6874   12.3421   16.1838 O   0  0  0  0  0  0  0  0  0  0  0  0
   11.2867   13.7176   11.5331 N   0  0  0  0  0  0  0  0  0  0  0  0
   10.3758   16.5979   16.6182 C   0  0  0  0  0  0  0  0  0  0  0  0
    7.8388   11.5710   14.1906 C   0  0  0  0  0  0  0  0  0  0  0  0
    9.4916   11.5852   12.4331 O   0  0  0  0  0  0  0  0  0  0  0  0
    8.4024   16.3234   17.9271 C   0  0  0  0  0  0  0  0  0  0  0  0
    9.5838   17.0363   17.6692 C   0  0  0  0  0  0  0  0  0  0  0  0
   11.6121   16.0496   12.4172 C   0  0  0  0  0  0  0  0  0  0  0  0
   14.0554   19.9606   16.0452 P   0  0  0  0  0  4  0  0  0  0  0  0
    7.1947   10.4462   14.0559 O   0  0  0  0  0  0  0  0  0  0  0  0
   13.3055   18.5351   15.4838 C   0  0  0  0  0  0  0  0  0  0  0  0
   14.7695   19.8062   17.1165 O   0  0  0  0  0  0  0  0  0  0  0  0
   11.4306   16.5763   13.8783 C   0  0  0  0  0  0  0  0  0  0  0  0
   11.6952   17.0503   16.6129 O   0  0  0  0  0  0  0  0  0  0  0  0
    8.5069   13.6951   15.2064 C   0  0  0  0  0  0  0  0  0  0  0  0
   10.7823   14.7816   12.2819 C   0  0  0  0  0  0  0  0  0  0  0  0
    8.0284   15.2568   17.1476 C   0  0  0  0  0  0  0  0  0  0  0  0
  1  5  1  0
  1 27  2  0
  1 29  1  0
  2  7  2  0
  2 10  1  0
  2 27  1  0
  3  9  1  0
  4 23  1  0
  4 26  1  0
  5  6  1  0
  5 15  1  0
  6 10  1  0
  6 25  1  0
  7 16  1  0
  7 17  1  0
  8 21  2  0
  9 23  1  0
  9 25  1  0
 10 28  1  0
 11 20  1  0
 12 13  1  0
 12 16  2  0
 12 27  1  0
 14 28  1  0
 15 19  2  0
 15 26  1  0
 16 22  1  0
 18 19  1  0
 18 29  2  0
 20 25  1  0
 20 28  1  0
 21 23  1  0
 21 24  1  0
M  END
>  <ID>  (1) 
conformer_0

$$$$
