
     RDKit          3D

 34 37  0  0  0  0  0  0  0  0999 V2000
   11.3953   14.7106   13.8145 C   0  0  0  0  0  0  0  0  0  0  0  0
    7.7175   10.2112   13.0697 N   0  0  0  0  0  0  0  0  0  0  0  0
   10.9414   14.0809   12.4635 C   0  0  0  0  0  0  0  0  0  0  0  0
   14.3079   20.5945   14.6776 C   0  0  0  0  0  0  0  0  0  0  0  0
    9.7587   18.1894   13.2456 O   0  0  0  0  0  0  0  0  0  0  0  0
   11.4491   16.7065   15.4778 C   0  0  0  0  0  0  0  0  0  0  0  0
   13.8156   17.4934   14.5316 C   0  0  0  0  0  0  0  0  0  0  0  0
    7.0711   10.5756   14.1200 N   0  0  0  0  0  0  0  0  0  0  0  0
   11.4588   14.7206   11.3429 C   0  0  0  0  0  0  0  0  0  0  0  0
   12.7538   18.7855   16.2700 C   0  0  0  0  0  0  0  0  0  0  0  0
   13.3311   21.4898   14.2224 O   0  0  0  0  0  0  0  0  0  0  0  0
   11.1318   16.2847   13.9731 C   0  0  0  0  0  0  0  0  0  0  0  0
    8.5363   12.4779   14.4810 C   0  0  0  0  0  0  0  0  0  0  0  0
    8.5513   15.4545   17.1053 C   0  0  0  0  0  0  0  0  0  0  0  0
    8.9584   13.5104   15.4875 C   0  0  0  0  0  0  0  0  0  0  0  0
   10.1024   12.9022   12.2946 C   0  0  0  0  0  0  0  0  0  0  0  0
   11.3277   14.2060   10.0721 C   0  0  0  0  0  0  0  0  0  0  0  0
   10.1613   12.4200   10.9850 C   0  0  0  0  0  0  0  0  0  0  0  0
    6.6280   12.1396   15.9011 N   0  0  0  0  0  0  0  0  0  0  0  0
   11.1390   17.6247   13.1630 C   0  0  0  0  0  0  0  0  0  0  0  0
    9.4520   16.7556   17.1009 C   0  0  0  0  0  0  0  0  0  0  0  0
   10.7564   16.6554   16.6635 O   0  0  0  0  0  0  0  0  0  0  0  0
    9.1348   12.1387   13.1665 C   0  0  0  0  0  0  0  0  0  0  0  0
    7.4200   11.7001   14.8247 C   0  0  0  0  0  0  0  0  0  0  0  0
   12.6066   17.5824   15.4246 N   0  0  0  0  0  0  0  0  0  0  0  0
   13.8454   19.8060   15.9038 C   0  0  0  0  0  0  0  0  0  0  0  0
    8.9095   18.3532   18.9830 O   0  0  0  0  0  0  0  0  0  0  0  0
    8.0726   14.0422   16.4804 C   0  0  0  0  0  0  0  0  0  0  0  0
   14.0374   20.6321   16.9999 O   0  0  0  0  0  0  0  0  0  0  0  0
   10.6933   12.9808    9.9111 N   0  0  0  0  0  0  0  0  0  0  0  0
    6.7756   13.3986   16.4777 C   0  0  0  0  0  0  0  0  0  0  0  0
    9.4156   17.4144   18.3297 N   0  0  0  0  0  0  0  0  0  0  0  0
    7.4494   15.8352   17.8816 O   0  0  0  0  0  0  0  0  0  0  0  0
    8.6600   10.9605   12.6133 C   0  0  0  0  0  0  0  0  0  0  0  0
  1  3  1  0
  1 12  1  0
  2  8  1  0
  2 34  2  0
  3  9  1  0
  3 16  1  0
  4 11  1  0
  4 26  1  0
  5 20  1  0
  6 12  1  0
  6 22  1  0
  6 25  1  0
  7 25  1  0
  8 24  2  0
  9 17  2  0
 10 25  1  0
 10 26  1  0
 12 20  1  0
 13 15  1  0
 13 23  1  0
 13 24  1  0
 14 21  1  0
 14 28  1  0
 14 33  1  0
 15 28  2  0
 16 18  1  0
 16 23  2  0
 17 30  1  0
 18 30  2  0
 19 24  1  0
 19 31  1  0
 21 22  1  0
 21 32  1  0
 23 34  1  0
 26 29  1  0
 27 32  1  0
 28 31  1  0
M  END
>  <ID>  (1) 
conformer_0

$$$$
