
     RDKit          3D

 31 36  0  0  0  0  0  0  0  0999 V2000
    9.0085   12.5865   13.6791 C   0  0  0  0  0  0  0  0  0  0  0  0
   10.2627   17.5074   17.0413 C   0  0  0  0  0  0  0  0  0  0  0  0
    9.6261   18.0519   18.0965 C   0  0  0  0  0  0  0  0  0  0  0  0
    8.3666   14.4921   16.4819 C   0  0  0  0  0  0  0  0  0  0  0  0
    8.2241   13.5234   15.7420 C   0  0  0  0  0  0  0  0  0  0  0  0
   13.7884   21.6092   13.7693 C   0  0  0  0  0  0  0  0  0  0  0  0
   12.9341   18.8910   14.6499 C   0  0  0  0  0  0  0  0  0  0  0  0
    8.7747   15.6583   16.9032 C   0  0  0  0  0  0  0  0  0  0  0  0
   10.0006   13.0369   12.7402 C   0  0  0  0  0  0  0  0  0  0  0  0
   12.9980   18.7614   13.0913 C   0  0  0  0  0  0  0  0  0  0  0  0
    8.5043   17.3858   18.5829 C   0  0  0  0  0  0  0  0  0  0  0  0
    9.0495   13.6299   14.7142 C   0  0  0  0  0  0  0  0  0  0  0  0
   11.3150   16.7081   13.0627 C   0  0  0  0  0  0  0  0  0  0  0  0
   10.5643   14.2863   13.1314 C   0  0  0  0  0  0  0  0  0  0  0  0
   12.6004   15.2775   11.6425 O   0  0  0  0  0  0  0  0  0  0  0  0
    9.8647   16.3385   16.3297 C   0  0  0  0  0  0  0  0  0  0  0  0
    7.3326   12.5129   15.9517 C   0  0  0  0  0  0  0  0  0  0  0  0
    7.9834   10.5476   13.0061 O   0  0  0  0  0  0  0  0  0  0  0  0
   12.2718   17.6928   15.2706 C   0  0  0  0  0  0  0  0  0  0  0  0
   14.3769   20.9000   14.9803 C   0  0  0  0  0  0  0  0  0  0  0  0
    7.8265   17.9014   19.6076 O   0  0  0  0  0  0  0  0  0  0  0  0
   10.3920   12.4009   11.4697 C   0  0  0  0  0  0  0  0  0  0  0  0
    7.2100   11.4882   14.9910 C   0  0  0  0  0  0  0  0  0  0  0  0
   10.3938   15.7879   15.1323 N   0  0  0  0  0  0  0  0  0  0  0  0
   13.5085   19.8782   15.7046 C   0  0  0  0  0  0  0  0  0  0  0  0
   11.3639   15.3164   12.4442 C   0  0  0  0  0  0  0  0  0  0  0  0
   12.0068   17.8440   12.3006 C   0  0  0  0  0  0  0  0  0  0  0  0
   11.4440   16.6490   14.5427 C   0  0  0  0  0  0  0  0  0  0  0  0
    9.9889   14.6362   14.4238 N   0  0  0  0  0  0  0  0  0  0  0  0
    8.1011   16.2064   17.9897 C   0  0  0  0  0  0  0  0  0  0  0  0
    8.0408   11.5089   13.8946 C   0  0  0  0  0  0  0  0  0  0  0  0
  1  9  1  0
  1 12  2  0
  1 31  1  0
  2  3  2  0
  2 16  1  0
  3 11  1  0
  4  5  2  0
  4  8  2  0
  5 12  1  0
  5 17  1  0
  6 20  1  0
  7 10  1  0
  7 19  2  0
  7 25  1  0
  8 16  1  0
  8 30  1  0
  9 14  2  0
  9 22  1  0
 10 27  1  0
 11 21  1  0
 11 30  2  0
 12 29  1  0
 13 26  1  0
 13 27  1  0
 13 28  1  0
 14 26  1  0
 14 29  1  0
 15 26  1  0
 16 24  1  0
 17 23  1  0
 18 31  1  0
 19 28  1  0
 20 25  1  0
 23 31  2  0
 24 28  1  0
 24 29  1  0
M  END
>  <ID>  (1) 
conformer_0

$$$$
