
     RDKit          3D

 28 29  0  0  0  0  0  0  0  0999 V2000
   14.1543   17.2688   16.6396 O   0  0  0  0  0  1  0  0  0  0  0  0
   10.1957   13.7418   13.9094 N   0  0  0  0  0  0  0  0  0  0  0  0
    7.2575   11.6921   15.0354 C   0  0  0  0  0  0  0  0  0  0  0  0
   15.2807   19.1746   15.2691 O   0  0  0  0  0  0  0  0  0  0  0  0
    9.9279   12.1185   11.9586 C   0  0  0  0  0  0  0  0  0  0  0  0
    9.5787   14.8813   16.4435 C   0  0  0  0  0  0  0  0  0  0  0  0
   10.2931   17.6379   16.5648 C   0  0  0  0  0  0  0  0  0  0  0  0
   12.9009   20.8386   14.0609 O   0  0  0  0  0  0  0  0  0  0  0  0
   10.5355   11.9425   10.7400 N   0  0  0  0  0  0  0  0  0  0  0  0
    8.2159   11.4069   13.3420 C   0  0  0  0  0  0  0  0  0  0  0  0
    9.5711   16.9436   17.6087 C   0  0  0  0  0  0  0  0  0  0  0  0
   13.3724   18.8926   12.7085 C   0  0  0  0  0  0  0  0  0  0  0  0
    8.9439   13.8094   15.8798 N   0  0  0  0  0  0  0  0  0  0  0  0
   13.5240   19.7888   17.0970 O   0  0  0  0  0  0  0  0  0  0  0  0
    8.4029   12.2875   14.3438 C   0  0  0  0  0  0  0  0  0  0  0  0
   11.5394   18.0245   16.2272 O   0  0  0  0  0  0  0  0  0  0  0  0
   12.9318   19.5524   13.9628 C   0  0  0  0  0  0  0  0  0  0  0  0
    7.0359   10.8222   14.0970 N   0  0  0  0  0  0  0  0  0  0  0  0
   10.8479   15.1256   16.2902 O   0  0  0  0  0  0  0  0  0  0  0  0
    8.8434   11.2223   12.1853 C   0  0  0  0  0  0  0  0  0  0  0  0
    8.6838   15.8298   17.0876 C   0  0  0  0  0  0  0  0  0  0  0  0
   14.2850   18.7361   16.3142 P   0  0  0  0  0  4  0  0  0  0  0  0
    9.0250   17.5360   18.6937 O   0  0  0  0  0  0  0  0  0  0  0  0
   11.9220   18.6819   14.8548 P   0  0  0  0  0  4  0  0  0  0  0  0
    9.1990   13.3052   14.7012 C   0  0  0  0  0  0  0  0  0  0  0  0
   10.3872   13.1370   12.7725 C   0  0  0  0  0  0  0  0  0  0  0  0
    6.6413   11.9108   16.1440 N   0  0  0  0  0  0  0  0  0  0  0  0
   10.6508   18.4703   13.9769 O   0  0  0  0  0  1  0  0  0  0  0  0
  1 22  2  0
  2 25  1  0
  2 26  2  0
  3 15  1  0
  3 18  1  0
  3 27  2  0
  4 22  1  0
  5  9  1  0
  5 20  1  0
  5 26  1  0
  6 13  1  0
  6 19  2  0
  6 21  1  0
  7 11  1  0
  7 16  1  0
  8 17  1  0
 10 15  2  0
 10 18  1  0
 10 20  1  0
 11 21  1  0
 11 23  1  0
 12 17  1  0
 13 25  2  3
 14 22  1  0
 15 25  1  0
 16 24  1  0
 17 24  1  0
 22 24  1  0
 24 28  2  0
M  END
>  <ID>  (1) 
conformer_0

$$$$
