
     RDKit          3D

 44 48  0  0  0  0  0  0  0  0999 V2000
    7.8569   17.5579   18.9547 C   0  0  0  0  0  0  0  0  0  0  0  0
   12.2702   14.7773   10.7257 C   0  0  0  0  0  0  0  0  0  0  0  0
    8.4319   12.8746   15.6918 C   0  0  0  0  0  0  0  0  0  0  0  0
   10.3106   14.0425   13.8090 C   0  0  0  0  0  0  0  0  0  0  0  0
    8.1796   15.9019   17.2482 C   0  0  0  0  0  0  0  0  0  0  0  0
    9.4267   16.4106   16.9111 C   0  0  0  0  0  0  0  0  0  0  0  0
    9.7804   10.3338    9.7763 C   0  0  0  0  0  0  0  0  0  0  0  0
   14.1905   17.9915   14.3149 O   0  0  0  0  0  0  0  0  0  0  0  0
    9.0503   12.5992   14.7202 C   0  0  0  0  0  0  0  0  0  0  0  0
    7.3401   12.2180   16.0019 N   0  0  0  0  0  0  0  0  0  0  0  0
   12.7414   17.7916   14.0792 C   0  0  0  0  0  0  0  0  0  0  0  0
    6.8533   11.5191   14.8896 C   0  0  0  0  0  0  0  0  0  0  0  0
   12.4942   15.8995   11.5114 C   0  0  0  0  0  0  0  0  0  0  0  0
   10.3224   17.7895   13.5264 O   0  0  0  0  0  0  0  0  0  0  0  0
   10.5218   11.1012    8.8762 C   0  0  0  0  0  0  0  0  0  0  0  0
   11.0666   12.3123    9.2871 C   0  0  0  0  0  0  0  0  0  0  0  0
   13.4727   22.6527   14.2445 O   0  0  0  0  0  0  0  0  0  0  0  0
   10.8783   12.7572   10.6107 C   0  0  0  0  0  0  0  0  0  0  0  0
   14.2806   21.3443   12.6037 O   0  0  0  0  0  0  0  0  0  0  0  0
   13.0808   17.2986   16.4796 O   0  0  0  0  0  0  0  0  0  0  0  0
    9.4878   13.6120   15.8949 C   0  0  0  0  0  0  0  0  0  0  0  0
   11.0700   14.5915   12.6835 C   0  0  0  0  0  0  0  0  0  0  0  0
    9.1438   18.0227   18.6823 C   0  0  0  0  0  0  0  0  0  0  0  0
   13.6494   21.5052   13.6869 C   0  0  0  0  0  0  0  0  0  0  0  0
    7.5632   11.2169   13.7892 N   0  0  0  0  0  0  0  0  0  0  0  0
   10.0730   14.6446   15.0895 C   0  0  0  0  0  0  0  0  0  0  0  0
   11.6767   15.7964   12.6719 C   0  0  0  0  0  0  0  0  0  0  0  0
    5.9184   18.0630   20.1993 C   0  0  0  0  0  0  0  0  0  0  0  0
    8.7286   11.7611   13.5723 C   0  0  0  0  0  0  0  0  0  0  0  0
   10.2009   13.4173   17.0632 O   0  0  0  0  0  0  0  0  0  0  0  0
   14.8831   16.2765   15.6851 O   0  0  0  0  0  0  0  0  0  0  0  0
    9.5668   10.8010   11.0335 C   0  0  0  0  0  0  0  0  0  0  0  0
   11.3575   13.9508   11.3379 C   0  0  0  0  0  0  0  0  0  0  0  0
   10.3216   15.9599   15.8220 C   0  0  0  0  0  0  0  0  0  0  0  0
   13.8048   17.1221   15.3989 C   0  0  0  0  0  0  0  0  0  0  0  0
    5.6428   11.1481   14.9331 N   0  0  0  0  0  0  0  0  0  0  0  0
   13.0229   20.3361   14.4362 C   0  0  0  0  0  0  0  0  0  0  0  0
   10.1075   11.9098   11.3435 C   0  0  0  0  0  0  0  0  0  0  0  0
    7.1856   18.2127   19.8959 O   0  0  0  0  0  0  0  0  0  0  0  0
   11.5230   16.9154   13.6169 C   0  0  0  0  0  0  0  0  0  0  0  0
    7.3722   16.4487   18.2238 C   0  0  0  0  0  0  0  0  0  0  0  0
    9.8935   17.5000   17.6903 C   0  0  0  0  0  0  0  0  0  0  0  0
    9.5353   12.8034   13.7018 C   0  0  0  0  0  0  0  0  0  0  0  0
   12.4143   19.2888   13.4721 C   0  0  0  0  0  0  0  0  0  0  0  0
  1 23  2  0
  1 39  1  0
  1 41  1  0
  2 13  1  0
  2 33  1  0
  3  9  2  0
  3 10  1  0
  3 21  1  0
  4 22  1  0
  4 26  1  0
  4 43  1  0
  5  6  1  0
  5 41  2  0
  6 34  1  0
  6 42  2  0
  7 15  2  0
  7 32  1  0
  8 11  1  0
  8 35  1  0
  9 43  2  0
 10 12  1  0
 11 40  1  0
 11 44  1  0
 12 25  1  0
 12 36  2  0
 13 27  1  0
 14 40  1  0
 15 16  1  0
 16 18  2  0
 17 24  2  0
 18 33  1  0
 18 38  1  0
 19 24  1  0
 20 35  2  0
 21 26  1  0
 21 30  1  0
 22 27  2  0
 22 33  1  0
 23 42  1  0
 24 37  1  0
 25 29  1  0
 26 34  1  0
 27 40  1  0
 28 39  1  0
 29 43  1  0
 31 35  1  0
 32 38  2  0
 37 44  1  0
M  END
>  <ID>  (1) 
conformer_0

$$$$
