
     RDKit          3D

 52 57  0  0  0  0  0  0  0  0999 V2000
    9.0972   11.7993   12.7137 C   0  0  0  0  0  0  0  0  0  0  0  0
    5.9829   12.0717   16.3004 O   0  0  0  0  0  0  0  0  0  0  0  0
   12.3543   15.4348   13.4659 C   0  0  0  0  0  0  0  0  0  0  0  0
    7.6176   14.6132   15.2962 O   0  0  0  0  0  0  0  0  0  0  0  0
   10.2444   12.5110   12.1360 C   0  0  0  0  0  0  0  0  0  0  0  0
   14.1161   16.9987   13.2987 O   0  0  0  0  0  0  0  0  0  0  0  0
    7.1035   10.5301   14.1570 C   0  0  0  0  0  0  0  0  0  0  0  0
   11.4957   14.7864   12.2846 C   0  0  0  0  0  0  0  0  0  0  0  0
   12.6198   17.1194   13.3840 C   0  0  0  0  0  0  0  0  0  0  0  0
    9.8732   11.8413   16.3487 O   0  0  0  0  0  0  0  0  0  0  0  0
    9.9269   12.0334   18.7292 C   0  0  0  0  0  0  0  0  0  0  0  0
    9.1521   16.4271   17.6514 O   0  0  0  0  0  0  0  0  0  0  0  0
   10.4156   12.4741   10.7391 C   0  0  0  0  0  0  0  0  0  0  0  0
    9.6103   16.1822   12.8350 O   0  0  0  0  0  0  0  0  0  0  0  0
    7.0934   18.0129   19.1578 O   0  0  0  0  0  0  0  0  0  0  0  0
   11.6030   17.9818   15.8863 O   0  0  0  0  0  0  0  0  0  0  0  0
   16.3303   21.6909   16.0035 O   0  0  0  0  0  0  0  0  0  0  0  0
   13.2361   20.8328   11.8359 O   0  0  0  0  0  0  0  0  0  0  0  0
   13.8102   18.9359   16.2815 C   0  0  0  0  0  0  0  0  0  0  0  0
    7.1367   12.4021   15.8636 C   0  0  0  0  0  0  0  0  0  0  0  0
   10.8274   18.4278   12.5099 O   0  0  0  0  0  0  0  0  0  0  0  0
    7.7281   13.6453   16.2809 C   0  0  0  0  0  0  0  0  0  0  0  0
    9.0218   19.3522   19.2696 O   0  0  0  0  0  0  0  0  0  0  0  0
   13.6322   20.2742   14.0527 C   0  0  0  0  0  0  0  0  0  0  0  0
   14.2321   22.2009   17.0440 C   0  0  0  0  0  0  0  0  0  0  0  0
   12.8091   18.8528   13.9086 C   0  0  0  0  0  0  0  0  0  0  0  0
   14.3907   17.6703   16.6429 O   0  0  0  0  0  0  0  0  0  0  0  0
   15.0798   21.3998   15.9561 C   0  0  0  0  0  0  0  0  0  0  0  0
    9.8169   13.9903   17.4854 C   0  0  0  0  0  0  0  0  0  0  0  0
   13.9039   16.0042   10.3645 C   0  0  0  0  0  0  0  0  0  0  0  0
   14.7327   20.0791   16.6989 C   0  0  0  0  0  0  0  0  0  0  0  0
   11.7741   17.3725   12.0420 C   0  0  0  0  0  0  0  0  0  0  0  0
   13.1781   14.7518   10.3066 C   0  0  0  0  0  0  0  0  0  0  0  0
    7.9949   15.5195   17.7577 C   0  0  0  0  0  0  0  0  0  0  0  0
   10.9337   14.6528   17.1980 O   0  0  0  0  0  0  0  0  0  0  0  0
   12.7321   18.5433   11.4020 C   0  0  0  0  0  0  0  0  0  0  0  0
   14.4311   21.3402   14.7137 O   0  0  0  0  0  0  0  0  0  0  0  0
    8.4520   12.3108   13.7518 N   0  0  0  0  0  0  0  0  0  0  0  0
    7.5505   11.7467   14.5885 C   0  0  0  0  0  0  0  0  0  0  0  0
    8.3644   18.2324   19.0941 C   0  0  0  0  0  0  0  0  0  0  0  0
   13.0731   19.5607   12.5841 C   0  0  0  0  0  0  0  0  0  0  0  0
   10.1541   12.5143   17.4252 C   0  0  0  0  0  0  0  0  0  0  0  0
   10.7325   16.1173   11.9127 C   0  0  0  0  0  0  0  0  0  0  0  0
    8.5669   10.5528   12.3566 C   0  0  0  0  0  0  0  0  0  0  0  0
   11.5339   13.1059   10.3581 N   0  0  0  0  0  0  0  0  0  0  0  0
    8.3188   14.0783   17.5860 C   0  0  0  0  0  0  0  0  0  0  0  0
   12.0117   14.2705   10.9661 C   0  0  0  0  0  0  0  0  0  0  0  0
   10.8688   13.5706   12.9329 C   0  0  0  0  0  0  0  0  0  0  0  0
    9.3094   17.0782   18.8665 C   0  0  0  0  0  0  0  0  0  0  0  0
    7.6058    9.9709   13.0709 N   0  0  0  0  0  0  0  0  0  0  0  0
   13.8682   20.8640   17.7471 O   0  0  0  0  0  0  0  0  0  0  0  0
   12.5703   18.7442   15.4560 C   0  0  0  0  0  0  0  0  0  0  0  0
  1  5  1  0
  1 38  2  0
  1 44  1  0
  2 20  2  0
  3  8  1  0
  3  9  1  0
  4 22  1  0
  5 13  1  0
  5 48  1  0
  6  9  1  0
  7 39  1  0
  7 50  2  0
  8 43  1  0
  8 47  1  0
  8 48  1  0
  9 26  1  0
  9 32  1  0
 10 42  1  0
 11 42  1  0
 12 34  1  0
 12 49  1  0
 13 45  1  0
 14 43  1  0
 15 40  2  0
 16 52  1  0
 17 28  1  0
 18 41  1  0
 19 27  1  0
 19 31  1  0
 19 52  1  0
 20 22  1  0
 20 39  1  0
 21 32  1  0
 22 46  1  0
 23 40  1  0
 24 26  1  0
 24 37  1  0
 25 28  1  0
 25 51  1  0
 26 41  1  0
 26 52  1  0
 28 31  1  0
 28 37  1  0
 29 35  1  0
 29 42  1  0
 29 46  1  0
 30 33  1  0
 31 51  1  0
 32 36  1  0
 32 43  1  0
 33 47  1  0
 34 46  1  0
 36 41  1  0
 38 39  1  0
 40 49  1  0
 44 50  1  0
 45 47  2  0
M  END
>  <ID>  (1) 
conformer_0

$$$$
