
     RDKit          3D

 31 34  0  0  0  0  0  0  0  0999 V2000
    8.6134   13.3920   15.0374 C   0  0  0  0  0  0  0  0  0  0  0  0
   12.6013   17.2968   12.0547 C   0  0  0  0  0  0  0  0  0  0  0  0
    6.4938   11.8916   15.8049 O   0  0  0  0  0  0  0  0  0  0  0  0
   13.7764   16.2978   13.8792 C   0  0  0  0  0  0  0  0  0  0  0  0
   11.6288   17.9216   11.1979 O   0  0  0  0  0  0  0  0  0  0  0  0
    8.1439   10.5563   12.9588 N   0  0  0  0  0  0  0  0  0  0  0  0
    9.2965   16.6991   17.3482 C   0  0  0  0  0  0  0  0  0  0  0  0
   10.9769   16.3725   13.6638 C   0  0  0  0  0  0  0  0  0  0  0  0
    9.6624   18.4002   12.8550 O   0  0  0  0  0  0  0  0  0  0  0  0
   10.0582   11.9539   12.4564 C   0  0  0  0  0  0  0  0  0  0  0  0
   10.0761   16.3091   16.2714 C   0  0  0  0  0  0  0  0  0  0  0  0
   10.9309   12.9346   12.5753 C   0  0  0  0  0  0  0  0  0  0  0  0
    8.1757   15.9330   17.6504 C   0  0  0  0  0  0  0  0  0  0  0  0
   14.3125   19.6487   17.7263 O   0  0  0  0  0  1  0  0  0  0  0  0
    9.7887   15.2794   15.4351 C   0  0  0  0  0  0  0  0  0  0  0  0
   14.6209   18.0578   15.6509 C   0  0  0  0  0  0  0  0  0  0  0  0
    7.1032   10.5357   13.9571 N   0  0  0  0  0  0  0  0  0  0  0  0
    9.8769   17.0707   13.0501 C   0  0  0  0  0  0  0  0  0  0  0  0
   10.5175   15.0365   14.1820 C   0  0  0  0  0  0  0  0  0  0  0  0
    8.9351   11.6462   13.2109 C   0  0  0  0  0  0  0  0  0  0  0  0
    7.2437   11.5837   14.7858 C   0  0  0  0  0  0  0  0  0  0  0  0
   12.3312   16.1193   13.1484 C   0  0  0  0  0  0  0  0  0  0  0  0
   13.5581   19.1942   16.4765 P   0  0  0  0  0  4  0  0  0  0  0  0
   13.3353   20.3717   15.4178 O   0  0  0  0  0  0  0  0  0  0  0  0
    8.4278   12.3406   14.3210 C   0  0  0  0  0  0  0  0  0  0  0  0
    8.7002   14.4592   15.8000 C   0  0  0  0  0  0  0  0  0  0  0  0
   12.3462   14.6490   12.8934 N   0  0  0  0  0  0  0  0  0  0  0  0
   12.1563   18.6207   16.8591 O   0  0  0  0  0  0  0  0  0  0  0  0
    7.8859   14.8060   16.8944 C   0  0  0  0  0  0  0  0  0  0  0  0
   13.8143   16.7561   15.3282 C   0  0  0  0  0  0  0  0  0  0  0  0
   11.1837   14.1046   13.3106 C   0  0  0  0  0  0  0  0  0  0  0  0
  1 25  2  0
  1 26  2  0
  2  5  1  0
  2 22  1  0
  3 21  2  0
  4 22  1  0
  4 30  1  0
  6 17  1  0
  6 20  1  0
  7 11  1  0
  7 13  2  0
  8 18  1  0
  8 19  1  0
  8 22  1  0
  9 18  1  0
 10 12  2  0
 10 20  1  0
 11 15  2  0
 12 31  1  0
 13 29  1  0
 14 23  2  0
 15 19  1  0
 15 26  1  0
 16 23  1  0
 16 30  1  0
 17 21  1  0
 19 31  1  0
 20 25  1  0
 21 25  1  0
 22 27  1  0
 23 24  1  0
 23 28  1  0
 26 29  1  0
 27 31  1  0
M  END
>  <ID>  (1) 
conformer_0

$$$$
