
     RDKit          3D

 37 39  0  0  0  0  0  0  0  0999 V2000
   10.3633   17.2112   12.7128 C   0  0  0  0  0  0  0  0  0  0  0  0
    8.6156   12.5862   14.6049 C   0  0  0  0  0  0  0  0  0  0  0  0
   12.5683   14.7567   13.5117 C   0  0  0  0  0  0  0  0  0  0  0  0
   11.9328   17.1187   12.6129 C   0  0  0  0  0  0  0  0  0  0  0  0
    8.8789   17.8370   19.1492 C   0  0  0  0  0  0  0  0  0  0  0  0
    9.1951   13.6343   15.3695 N   0  0  0  0  0  0  0  0  0  0  0  0
    6.7548   10.9298   14.6407 C   0  0  0  0  0  0  0  0  0  0  0  0
    9.3727   12.3582   13.4499 C   0  0  0  0  0  0  0  0  0  0  0  0
    8.2539   18.5189   20.1137 C   0  0  0  0  0  0  0  0  0  0  0  0
   14.6311   16.6873   16.4838 O   0  0  0  0  0  0  0  0  0  0  0  0
    7.1613   10.3642   13.5930 N   0  0  0  0  0  0  0  0  0  0  0  0
   13.1534   19.0369   11.0985 C   0  0  0  0  0  0  0  0  0  0  0  0
   13.3866   20.8003   13.1644 C   0  0  0  0  0  0  0  0  0  0  0  0
   14.1353   17.1028   15.3788 C   0  0  0  0  0  0  0  0  0  0  0  0
    8.3344   14.5625   15.7177 C   0  0  0  0  0  0  0  0  0  0  0  0
   12.4254   16.1789   13.6489 N   0  0  0  0  0  0  0  0  0  0  0  0
   11.2504   17.1655   16.9696 C   0  0  0  0  0  0  0  0  0  0  0  0
   13.2065   21.6838   14.2479 O   0  0  0  0  0  0  0  0  0  0  0  0
    9.1562   11.2718   12.5589 C   0  0  0  0  0  0  0  0  0  0  0  0
   10.0016   16.5096   16.9401 C   0  0  0  0  0  0  0  0  0  0  0  0
    6.7360   16.8627   18.4865 C   0  0  0  0  0  0  0  0  0  0  0  0
   12.6586   18.4771   12.4262 C   0  0  0  0  0  0  0  0  0  0  0  0
   10.4408   13.2486   13.2163 C   0  0  0  0  0  0  0  0  0  0  0  0
    8.0684   14.9618   17.0842 C   0  0  0  0  0  0  0  0  0  0  0  0
    6.8879   18.4083   20.2753 C   0  0  0  0  0  0  0  0  0  0  0  0
   12.3089   14.2237   12.1042 C   0  0  0  0  0  0  0  0  0  0  0  0
   11.4375   12.9346   12.2770 C   0  0  0  0  0  0  0  0  0  0  0  0
    6.1537   17.6048   19.4501 C   0  0  0  0  0  0  0  0  0  0  0  0
    8.0984   10.5636   12.8610 C   0  0  0  0  0  0  0  0  0  0  0  0
    7.3973   12.0435   15.1984 C   0  0  0  0  0  0  0  0  0  0  0  0
   11.6806   17.6209   15.5774 C   0  0  0  0  0  0  0  0  0  0  0  0
    8.7230   16.2234   17.3619 C   0  0  0  0  0  0  0  0  0  0  0  0
   14.7240   17.9307   14.7296 O   0  0  0  0  0  0  0  0  0  0  0  0
    6.8344   12.5232   16.2793 O   0  0  0  0  0  0  0  0  0  0  0  0
   12.5076   19.6458   13.3127 O   0  0  0  0  0  0  0  0  0  0  0  0
   12.7217   16.6395   15.0080 C   0  0  0  0  0  0  0  0  0  0  0  0
    8.0906   16.9874   18.3534 C   0  0  0  0  0  0  0  0  0  0  0  0
  1  4  1  0
  2  6  1  0
  2  8  2  0
  2 30  1  0
  3 16  1  0
  3 26  1  0
  4 16  1  0
  4 22  1  0
  5  9  2  0
  5 37  1  0
  6 15  1  0
  7 11  1  0
  7 30  2  0
  8 19  1  0
  8 23  1  0
  9 25  1  0
 10 14  2  0
 11 29  2  0
 12 22  1  0
 13 18  1  0
 13 35  1  0
 14 33  1  0
 14 36  1  0
 15 24  1  0
 16 36  1  0
 17 20  1  0
 17 31  1  0
 19 29  1  0
 20 32  1  0
 21 28  2  0
 21 37  1  0
 22 35  1  0
 23 27  1  0
 24 32  1  0
 25 28  1  0
 26 27  1  0
 30 34  1  0
 31 36  1  0
 32 37  1  0
M  END
>  <ID>  (1) 
conformer_0

$$$$
