
     RDKit          3D

 24 25  0  0  0  0  0  0  0  0999 V2000
    9.3845   14.6792   14.7519 C   0  0  0  0  0  0  0  0  0  0  0  0
    8.1814   12.4878   14.6145 C   0  0  0  0  0  0  0  0  0  0  0  0
    9.8313   13.1520   12.9590 C   0  0  0  0  0  0  0  0  0  0  0  0
    9.7610   16.0899   15.2706 C   0  0  0  0  0  0  0  0  0  0  0  0
    9.9438   18.1046   13.1124 O   0  0  0  0  0  0  0  0  0  0  0  0
   10.6072   12.7670   11.7951 C   0  0  0  0  0  0  0  0  0  0  0  0
   11.3954   17.6209   16.1831 C   0  0  0  0  0  0  0  0  0  0  0  0
    7.1857   11.4571   15.0150 C   0  0  0  0  0  0  0  0  0  0  0  0
    6.9641   10.4896   14.2464 O   0  0  0  0  0  0  0  0  0  0  0  0
    6.5123   11.5657   16.1641 N   0  0  0  0  0  0  0  0  0  0  0  0
   10.4104   17.7952   17.1473 O   0  0  0  0  0  0  0  0  0  0  0  0
   13.3669   19.8663   15.6043 P   0  0  0  0  0  4  0  0  0  0  0  0
    8.9460   12.2351   13.4711 C   0  0  0  0  0  0  0  0  0  0  0  0
    7.9273   14.1343   16.6847 C   0  0  0  0  0  0  0  0  0  0  0  0
   10.7241   15.7319   13.0399 C   0  0  0  0  0  0  0  0  0  0  0  0
   10.8999   16.2688   11.7161 O   0  0  0  0  0  0  0  0  0  0  0  0
    9.9696   16.8865   13.8800 C   0  0  0  0  0  0  0  0  0  0  0  0
   12.5331   20.3214   14.3186 O   0  0  0  0  0  1  0  0  0  0  0  0
   10.0090   14.4313   13.5222 C   0  0  0  0  0  0  0  0  0  0  0  0
    8.5102   13.7412   15.2858 C   0  0  0  0  0  0  0  0  0  0  0  0
   11.2577   16.2660   15.6583 O   0  0  0  0  0  0  0  0  0  0  0  0
   13.7211   21.1015   16.5537 O   0  0  0  0  0  0  0  0  0  0  0  0
   14.8622   19.2344   15.0521 C   0  0  0  0  0  0  0  0  0  0  0  0
   12.5096   18.6318   16.3324 O   0  0  0  0  0  0  0  0  0  0  0  0
  1  4  1  0
  1 19  1  0
  1 20  2  0
  2  8  1  0
  2 13  1  0
  2 20  1  0
  3  6  1  0
  3 13  2  0
  3 19  1  0
  4 17  1  0
  4 21  1  0
  5 17  1  0
  7 11  2  0
  7 21  1  0
  7 24  1  0
  8  9  2  0
  8 10  1  0
 12 18  2  0
 12 22  1  0
 12 23  1  0
 12 24  1  0
 14 20  1  0
 15 16  1  0
 15 17  1  0
 15 19  1  0
M  END
>  <ID>  (1) 
conformer_0

$$$$
