
     RDKit          3D

 30 33  0  0  0  0  0  0  0  0999 V2000
   11.5692   17.7641   11.1484 N   0  0  0  0  0  0  0  0  0  0  0  0
   14.7465   18.8286   14.9963 C   0  0  0  0  0  0  0  0  0  0  0  0
   12.5378   18.3854   15.7213 C   0  0  0  0  0  0  0  0  0  0  0  0
    9.7559   16.6369   16.6239 C   0  0  0  0  0  0  0  0  0  0  0  0
    7.4262   12.3308   15.5130 C   0  0  0  0  0  0  0  0  0  0  0  0
   10.8243   14.1224   11.1338 C   0  0  0  0  0  0  0  0  0  0  0  0
   13.7547   19.1674   16.0907 C   0  0  0  0  0  0  0  0  0  0  0  0
   12.5658   18.0481   14.2676 C   0  0  0  0  0  0  0  0  0  0  0  0
    9.5823   12.6260   12.5468 C   0  0  0  0  0  0  0  0  0  0  0  0
   10.8080   13.2461   10.0653 C   0  0  0  0  0  0  0  0  0  0  0  0
   13.4849   19.6815   17.4398 N   0  0  0  0  0  0  0  0  0  0  0  0
   11.6423   15.6759   13.2219 C   0  0  0  0  0  0  0  0  0  0  0  0
   10.2319   11.9686   10.2724 C   0  0  0  0  0  0  0  0  0  0  0  0
   10.2380   16.1993   15.4419 C   0  0  0  0  0  0  0  0  0  0  0  0
   10.8973   18.0580   12.4821 C   0  0  0  0  0  0  0  0  0  0  0  0
    8.8997   14.2585   15.4051 C   0  0  0  0  0  0  0  0  0  0  0  0
    7.0378   11.1906   14.9368 C   0  0  0  0  0  0  0  0  0  0  0  0
    8.1118   16.4146   18.3893 C   0  0  0  0  0  0  0  0  0  0  0  0
    9.6278   11.6676   11.5115 C   0  0  0  0  0  0  0  0  0  0  0  0
   10.2066   17.7181   17.2158 O   0  0  0  0  0  0  0  0  0  0  0  0
   14.0451   17.9532   13.9498 C   0  0  0  0  0  0  0  0  0  0  0  0
    9.8830   15.0839   14.7645 C   0  0  0  0  0  0  0  0  0  0  0  0
    8.4341   13.0249   14.8266 C   0  0  0  0  0  0  0  0  0  0  0  0
   10.2923   13.8307   12.3850 C   0  0  0  0  0  0  0  0  0  0  0  0
    7.6267   10.8326   13.8843 C   0  0  0  0  0  0  0  0  0  0  0  0
    8.3982   14.7194   16.6455 C   0  0  0  0  0  0  0  0  0  0  0  0
    8.8493   12.4338   13.6754 N   0  0  0  0  0  0  0  0  0  0  0  0
   11.5768   17.1792   13.5063 C   0  0  0  0  0  0  0  0  0  0  0  0
   10.4778   14.7410   13.4992 N   0  0  0  0  0  0  0  0  0  0  0  0
    8.7608   15.9022   17.2300 C   0  0  0  0  0  0  0  0  0  0  0  0
  1 15  1  0
  2  7  1  0
  2 21  1  0
  3  7  1  0
  3  8  1  0
  4 14  2  0
  4 20  1  0
  4 30  1  0
  5 17  1  0
  5 23  1  0
  6 10  1  0
  6 24  2  0
  7 11  1  0
  8 21  1  0
  8 28  1  0
  9 19  2  0
  9 24  1  0
  9 27  1  0
 10 13  2  0
 12 28  1  0
 12 29  1  0
 13 19  1  0
 14 22  1  0
 15 28  1  0
 16 22  2  0
 16 23  1  0
 16 26  1  0
 17 25  2  0
 18 30  1  0
 22 29  1  0
 23 27  2  0
 24 29  1  0
 26 30  2  0
M  END
>  <ID>  (1) 
conformer_0

$$$$
