
     RDKit          3D

 28 30  0  0  0  0  0  0  0  0999 V2000
    8.6034   12.2866   14.0386 C   0  0  0  0  0  0  0  0  0  0  0  0
    7.6359   11.9466   16.2219 F   0  0  0  0  0  0  0  0  0  0  0  0
   12.1545   18.5055   13.6180 C   0  0  0  0  0  0  0  0  0  0  0  0
    8.2213   12.7024   15.3080 C   0  0  0  0  0  0  0  0  0  0  0  0
    8.6406   17.2840   17.3419 O   0  0  0  0  0  1  0  0  0  0  0  0
   11.5005   17.7599   14.6670 C   0  0  0  0  0  0  0  0  0  0  0  0
    8.3010   10.1068   12.7767 C   0  0  0  0  0  0  0  0  0  0  0  0
   14.6044   22.2197   15.5354 C   0  0  0  0  0  0  0  0  0  0  0  0
   10.7812   16.5352   14.5537 C   0  0  0  0  0  0  0  0  0  0  0  0
    9.9919   15.9932   15.5960 C   0  0  0  0  0  0  0  0  0  0  0  0
    7.8342   10.9982   13.6555 C   0  0  0  0  0  0  0  0  0  0  0  0
    9.8841   14.4170   13.9191 C   0  0  0  0  0  0  0  0  0  0  0  0
   14.9672   19.6587   13.3783 C   0  0  0  0  0  0  0  0  0  0  0  0
   10.6625   15.5392   13.4137 C   0  0  0  0  0  0  0  0  0  0  0  0
    9.4085   14.7794   15.1943 C   0  0  0  0  0  0  0  0  0  0  0  0
   10.8544   17.9143   17.0521 C   0  0  0  0  0  0  0  0  0  0  0  0
   10.8850   15.5875   12.1482 O   0  0  0  0  0  0  0  0  0  0  0  0
    6.6892   10.7495   14.2799 O   0  0  0  0  0  0  0  0  0  0  0  0
    9.8916   16.7258   17.0523 S   0  0  0  0  0  4  0  0  0  0  0  0
   14.0658   21.8600   14.1448 C   0  0  0  0  0  0  0  0  0  0  0  0
   11.5291   18.3265   15.9477 C   0  0  0  0  0  0  0  0  0  0  0  0
   12.5209   19.8225   13.9970 N   0  0  0  0  0  0  0  0  0  0  0  0
    9.5594   13.1610   13.3642 C   0  0  0  0  0  0  0  0  0  0  0  0
    7.7148   14.3996   16.9538 C   0  0  0  0  0  0  0  0  0  0  0  0
   12.1083   18.1654   12.1704 C   0  0  0  0  0  0  0  0  0  0  0  0
   13.8420   20.2937   14.2620 C   0  0  0  0  0  0  0  0  0  0  0  0
    8.4953   13.9655   15.7755 C   0  0  0  0  0  0  0  0  0  0  0  0
   10.1537   15.7407   18.0367 O   0  0  0  0  0  1  0  0  0  0  0  0
  1  4  1  0
  1 11  1  0
  1 23  2  0
  2  4  1  0
  3  6  1  0
  3 22  1  0
  3 25  1  0
  4 27  1  0
  5 19  1  0
  6  9  2  0
  6 21  1  0
  7 11  2  0
  8 20  1  0
  9 10  1  0
  9 14  1  0
 10 15  1  0
 10 19  1  0
 11 18  1  0
 12 14  1  0
 12 15  1  0
 12 23  1  0
 13 26  1  0
 14 17  1  0
 15 27  2  0
 16 19  1  0
 16 21  2  0
 19 28  1  0
 20 26  1  0
 22 26  1  0
 24 27  1  0
M  END
>  <ID>  (1) 
conformer_0

$$$$
