
     RDKit          3D

 44 49  0  0  0  0  0  0  0  0999 V2000
    8.3863   12.2218   14.3197 C   0  0  0  0  0  0  0  0  0  0  0  0
    7.0158   12.6924   16.1702 C   0  0  0  0  0  0  0  0  0  0  0  0
   11.5297   16.3534   15.0442 C   0  0  0  0  0  0  0  0  0  0  0  0
   12.0294   17.6785   11.6901 C   0  0  0  0  0  0  0  0  0  0  0  0
    9.8783   12.4018   11.6604 C   0  0  0  0  0  0  0  0  0  0  0  0
    8.9659   16.7428   17.8127 C   0  0  0  0  0  0  0  0  0  0  0  0
   13.1842   18.9306   13.6960 C   0  0  0  0  0  0  0  0  0  0  0  0
    8.1105   13.4827   16.2888 C   0  0  0  0  0  0  0  0  0  0  0  0
    9.1054   11.3690   12.0232 C   0  0  0  0  0  0  0  0  0  0  0  0
   12.6984   20.0809   13.1059 O   0  0  0  0  0  0  0  0  0  0  0  0
    8.2746   15.5005   17.6618 C   0  0  0  0  0  0  0  0  0  0  0  0
    8.3063   11.3340   13.2207 C   0  0  0  0  0  0  0  0  0  0  0  0
    9.5965   10.0887    9.9565 C   0  0  0  0  0  0  0  0  0  0  0  0
   14.6651   21.3697   16.4062 C   0  0  0  0  0  0  0  0  0  0  0  0
    9.0827   10.3300   11.1021 C   0  0  0  0  0  0  0  0  0  0  0  0
    9.8043   14.7581   15.6295 C   0  0  0  0  0  0  0  0  0  0  0  0
   14.5151   19.9848   15.7897 C   0  0  0  0  0  0  0  0  0  0  0  0
   14.0538   21.3888   17.8352 C   0  0  0  0  0  0  0  0  0  0  0  0
   10.6611   12.7632   10.6047 C   0  0  0  0  0  0  0  0  0  0  0  0
   10.4456   10.8165    9.1150 C   0  0  0  0  0  0  0  0  0  0  0  0
    7.2400   11.8519   15.1093 C   0  0  0  0  0  0  0  0  0  0  0  0
   11.2296   17.8858   12.8271 O   0  0  0  0  0  0  0  0  0  0  0  0
    9.1266   13.2894   14.9605 C   0  0  0  0  0  0  0  0  0  0  0  0
   14.5043   18.7445   17.1068 S   0  0  0  0  0  0  0  0  0  0  0  0
    6.6605   10.8078   14.5429 N   0  0  0  0  0  0  0  0  0  0  0  0
   14.3626   16.0451   14.2741 C   0  0  0  0  0  0  0  0  0  0  0  0
   12.0551   15.4490   13.8962 C   0  0  0  0  0  0  0  0  0  0  0  0
    8.4892   17.7196   18.7478 C   0  0  0  0  0  0  0  0  0  0  0  0
   10.4457   16.0805   15.9043 C   0  0  0  0  0  0  0  0  0  0  0  0
   10.0503   16.9810   16.9338 C   0  0  0  0  0  0  0  0  0  0  0  0
   14.4382   23.7264   16.6556 O   0  0  0  0  0  0  0  0  0  0  0  0
   10.8844   12.0468    9.4519 C   0  0  0  0  0  0  0  0  0  0  0  0
   14.4105   19.1359   14.5045 C   0  0  0  0  0  0  0  0  0  0  0  0
   13.2888   16.3109   13.2687 C   0  0  0  0  0  0  0  0  0  0  0  0
   12.6202   17.6651   13.0294 C   0  0  0  0  0  0  0  0  0  0  0  0
   14.3865   22.7018   15.8075 C   0  0  0  0  0  0  0  0  0  0  0  0
    7.2530   17.6430   19.1552 O   0  0  0  0  0  0  0  0  0  0  0  0
   10.8537   15.0895   11.3061 C   0  0  0  0  0  0  0  0  0  0  0  0
   11.3086   15.3701   12.6479 O   0  0  0  0  0  0  0  0  0  0  0  0
    7.2994   10.4634   13.4193 N   0  0  0  0  0  0  0  0  0  0  0  0
   13.8172   22.8017   14.6790 O   0  0  0  0  0  0  0  0  0  0  0  0
   11.3327   14.0028   10.6250 N   0  0  0  0  0  0  0  0  0  0  0  0
    9.2055   18.7361   19.0200 O   0  0  0  0  0  0  0  0  0  0  0  0
    8.6408   14.7206   16.5653 C   0  0  0  0  0  0  0  0  0  0  0  0
  1 12  1  0
  1 21  2  0
  1 23  1  0
  2  8  1  0
  2 21  1  0
  3 27  1  0
  3 29  2  0
  4 22  1  0
  4 35  1  0
  5  9  2  0
  5 19  1  0
  6 11  1  0
  6 28  1  0
  6 30  2  0
  7 10  1  0
  7 33  1  0
  7 35  1  0
  8 23  2  0
  8 44  1  0
  9 12  1  0
  9 15  1  0
 11 44  2  0
 12 40  1  0
 13 15  2  0
 13 20  1  0
 14 17  1  0
 14 18  1  0
 14 36  1  0
 16 23  1  0
 16 29  1  0
 16 44  1  0
 17 24  1  0
 17 33  1  0
 19 32  1  0
 19 42  1  0
 20 32  2  0
 21 25  1  0
 25 40  1  0
 26 34  1  0
 27 34  1  0
 27 39  1  0
 28 37  2  0
 28 43  1  0
 29 30  1  0
 31 36  2  0
 34 35  1  0
 36 41  1  0
 38 39  1  0
 38 42  1  0
M  END
>  <ID>  (1) 
conformer_0

$$$$
