
     RDKit          3D

 30 33  0  0  0  0  0  0  0  0999 V2000
    9.9717   16.5184   14.3401 C   0  0  0  0  0  0  0  0  0  0  0  0
    9.6347   13.2179   13.6818 C   0  0  0  0  0  0  0  0  0  0  0  0
   10.5123   14.1614   13.6795 C   0  0  0  0  0  0  0  0  0  0  0  0
    9.0176   16.5854   13.0392 N   0  0  0  0  0  0  0  0  0  0  0  0
   13.5723   16.3910   13.5556 C   0  0  0  0  0  0  0  0  0  0  0  0
    6.9214   11.2804   14.9476 N   0  0  0  0  0  0  0  0  0  0  0  0
   10.7405   12.4536   11.7248 C   0  0  0  0  0  0  0  0  0  0  0  0
    9.3330   16.9938   17.8741 C   0  0  0  0  0  0  0  0  0  0  0  0
    8.6110   12.9408   14.6265 C   0  0  0  0  0  0  0  0  0  0  0  0
   13.0737   20.2400   13.3285 C   0  0  0  0  0  0  0  0  0  0  0  0
   11.4791   18.2727   13.3261 C   0  0  0  0  0  0  0  0  0  0  0  0
    9.0949   17.1962   19.2487 O   0  0  0  0  0  0  0  0  0  0  0  0
   12.2386   15.8851   13.3311 C   0  0  0  0  0  0  0  0  0  0  0  0
    8.5043   11.2831   12.9770 C   0  0  0  0  0  0  0  0  0  0  0  0
    7.8969   11.7716   14.2162 C   0  0  0  0  0  0  0  0  0  0  0  0
   14.9675   18.2647   14.1157 F   0  0  0  0  0  0  0  0  0  0  0  0
    8.2066   13.5475   15.7539 C   0  0  0  0  0  0  0  0  0  0  0  0
   10.4144   15.9809   15.8010 C   0  0  0  0  0  0  0  0  0  0  0  0
    8.0889   16.6521   17.2698 O   0  0  0  0  0  0  0  0  0  0  0  0
   12.7529   18.7660   13.4321 C   0  0  0  0  0  0  0  0  0  0  0  0
   11.2923   16.9313   13.6182 C   0  0  0  0  0  0  0  0  0  0  0  0
   10.3374   15.7448   17.4352 C   0  0  0  0  0  0  0  0  0  0  0  0
   13.7727   17.8226   13.6898 C   0  0  0  0  0  0  0  0  0  0  0  0
   11.6686   13.5611   11.8748 C   0  0  0  0  0  0  0  0  0  0  0  0
   10.0476   18.0928   17.3973 O   0  0  0  0  0  0  0  0  0  0  0  0
    8.1100   10.2805   12.4085 O   0  0  0  0  0  0  0  0  0  0  0  0
    7.1899   13.0581   16.5261 C   0  0  0  0  0  0  0  0  0  0  0  0
   11.5659   14.5569   12.9564 C   0  0  0  0  0  0  0  0  0  0  0  0
    9.7011   12.2445   12.6362 C   0  0  0  0  0  0  0  0  0  0  0  0
    6.5354   11.8964   16.1078 C   0  0  0  0  0  0  0  0  0  0  0  0
  1  4  1  0
  1 18  1  0
  1 21  1  0
  2  3  2  0
  2  9  1  0
  2 29  1  0
  3 28  1  0
  5 13  2  0
  5 23  1  0
  6 15  1  0
  6 30  2  0
  7 24  1  0
  7 29  2  0
  8 12  1  0
  8 19  1  0
  8 22  1  0
  8 25  1  0
  9 15  2  0
  9 17  1  0
 10 20  1  0
 11 20  1  0
 11 21  1  0
 13 21  1  0
 13 28  1  0
 14 15  1  0
 14 26  2  0
 14 29  1  0
 16 23  1  0
 17 27  2  0
 18 22  1  0
 20 23  2  0
 24 28  2  0
 27 30  1  0
M  END
>  <ID>  (1) 
conformer_0

$$$$
