
     RDKit          3D

 27 28  0  0  0  0  0  0  0  0999 V2000
   11.6737   15.2496   12.6974 C   0  0  0  0  0  0  0  0  0  0  0  0
    7.0591   11.7625   15.2078 C   0  0  0  0  0  0  0  0  0  0  0  0
    6.2751   11.7931   16.2773 N   0  0  0  0  0  0  0  0  0  0  0  0
   10.0934   14.7212   14.9637 C   0  0  0  0  0  0  0  0  0  0  0  0
   11.1192   17.1133   11.2998 N   0  0  0  0  0  0  0  0  0  0  0  0
   12.3455   17.1537   15.0355 N   0  0  0  0  0  0  0  0  0  0  0  0
    9.0263   11.9361   12.8864 C   0  0  0  0  0  0  0  0  0  0  0  0
   13.7362   20.8749   14.4291 C   0  0  0  0  0  0  0  0  0  0  0  0
   10.5941   16.8588   16.7504 C   0  0  0  0  0  0  0  0  0  0  0  0
   12.9776   21.5503   13.3760 N   0  0  0  0  0  0  0  0  0  0  0  0
    9.0430   12.8131   13.9551 C   0  0  0  0  0  0  0  0  0  0  0  0
   10.7802   16.4624   12.5492 C   0  0  0  0  0  0  0  0  0  0  0  0
   11.7516   17.8849   16.0774 C   0  0  0  0  0  0  0  0  0  0  0  0
    9.5357   15.8059   16.9791 O   0  0  0  0  0  0  0  0  0  0  0  0
    8.3455   13.7515   16.0954 C   0  0  0  0  0  0  0  0  0  0  0  0
   13.2995   16.2218   14.5176 C   0  0  0  0  0  0  0  0  0  0  0  0
    9.9172   12.0356   11.8393 C   0  0  0  0  0  0  0  0  0  0  0  0
    8.6575   16.2999   17.9744 C   0  0  0  0  0  0  0  0  0  0  0  0
   10.0301   13.8622   13.9135 C   0  0  0  0  0  0  0  0  0  0  0  0
   12.5399   19.2907   15.9352 O   0  0  0  0  0  0  0  0  0  0  0  0
   10.8734   13.0785   11.8018 C   0  0  0  0  0  0  0  0  0  0  0  0
   13.0114   15.3288   13.3271 C   0  0  0  0  0  0  0  0  0  0  0  0
    6.8311   10.8451   14.3844 O   0  0  0  0  0  0  0  0  0  0  0  0
    9.3232   14.7650   16.0374 C   0  0  0  0  0  0  0  0  0  0  0  0
   13.0344   19.5744   14.5932 C   0  0  0  0  0  0  0  0  0  0  0  0
   10.8891   14.0061   12.8083 C   0  0  0  0  0  0  0  0  0  0  0  0
    8.1558   12.7661   15.0685 C   0  0  0  0  0  0  0  0  0  0  0  0
  1 12  1  0
  1 22  1  0
  1 26  1  0
  2  3  1  0
  2 23  2  0
  2 27  1  0
  4 19  2  0
  4 24  1  0
  5 12  1  0
  6 13  1  0
  6 16  1  0
  7 11  1  0
  7 17  2  0
  8 10  1  0
  8 25  1  0
  9 13  1  0
 11 19  1  0
 11 27  2  0
 13 20  1  0
 14 18  1  0
 14 24  1  0
 15 24  2  0
 15 27  1  0
 16 22  2  3
 17 21  1  0
 19 26  1  0
 20 25  1  0
 21 26  2  0
M  END
>  <ID>  (1) 
conformer_0

$$$$
