
     RDKit          3D

 31 34  0  0  0  0  0  0  0  0999 V2000
   10.3719   12.9675   12.6773 C   0  0  0  0  0  0  0  0  0  0  0  0
    9.4978   15.1817   16.8782 C   0  0  0  0  0  0  0  0  0  0  0  0
   13.2049   19.1586   13.3649 C   0  0  0  0  0  0  0  0  0  0  0  0
   13.3429   20.0632   15.6820 C   0  0  0  0  0  0  0  0  0  0  0  0
   11.9606   14.0949   11.2377 C   0  0  0  0  0  0  0  0  0  0  0  0
   11.0356   15.1548   13.1831 C   0  0  0  0  0  0  0  0  0  0  0  0
    7.5387   12.7747   15.7280 C   0  0  0  0  0  0  0  0  0  0  0  0
    6.5382   11.8338   15.7359 C   0  0  0  0  0  0  0  0  0  0  0  0
   12.9086   18.8464   14.9204 C   0  0  0  0  0  0  0  0  0  0  0  0
    9.5485   11.8467   12.8504 N   0  0  0  0  0  0  0  0  0  0  0  0
    7.5347   10.8484   13.8295 N   0  0  0  0  0  0  0  0  0  0  0  0
   12.1097   18.2661   11.2018 O   0  0  0  0  0  0  0  0  0  0  0  0
    8.5583   11.8258   13.7919 C   0  0  0  0  0  0  0  0  0  0  0  0
   13.6514   17.5997   15.3856 O   0  0  0  0  0  0  0  0  0  0  0  0
   13.8794   17.0936   12.1822 F   0  0  0  0  0  0  0  0  0  0  0  0
   11.4576   18.2890   14.7712 C   0  0  0  0  0  0  0  0  0  0  0  0
   11.8267   15.2046   12.0520 C   0  0  0  0  0  0  0  0  0  0  0  0
    8.5243   12.8273   14.7737 C   0  0  0  0  0  0  0  0  0  0  0  0
   11.2246   12.9678   11.5606 C   0  0  0  0  0  0  0  0  0  0  0  0
   12.5767   17.9116   12.5501 C   0  0  0  0  0  0  0  0  0  0  0  0
   10.0353   17.6008   16.8528 C   0  0  0  0  0  0  0  0  0  0  0  0
   13.8446   22.3970   15.3303 O   0  0  0  0  0  0  0  0  0  0  0  0
    9.6553   14.6315   15.7826 N   0  0  0  0  0  0  0  0  0  0  0  0
   11.2070   17.7333   13.3598 C   0  0  0  0  0  0  0  0  0  0  0  0
   10.3276   14.0559   13.5552 C   0  0  0  0  0  0  0  0  0  0  0  0
    6.5413   10.9023   14.7543 N   0  0  0  0  0  0  0  0  0  0  0  0
   14.1664   21.0981   14.9866 C   0  0  0  0  0  0  0  0  0  0  0  0
    9.6198   16.4659   17.4099 C   0  0  0  0  0  0  0  0  0  0  0  0
   10.5786   18.1410   15.8158 C   0  0  0  0  0  0  0  0  0  0  0  0
   13.3062   20.1960   17.0132 O   0  0  0  0  0  0  0  0  0  0  0  0
    9.5105   13.8899   14.7189 C   0  0  0  0  0  0  0  0  0  0  0  0
  1 10  1  0
  1 19  2  0
  1 25  1  0
  2 23  1  0
  2 28  2  3
  3  9  1  0
  3 20  1  0
  4  9  1  0
  4 27  1  0
  4 30  1  0
  5 17  2  0
  5 19  1  0
  6 17  1  0
  6 25  2  0
  7  8  1  0
  7 18  2  0
  8 26  2  0
  9 14  1  0
  9 16  1  0
 10 13  2  0
 11 13  1  0
 11 26  1  0
 12 20  1  0
 13 18  1  0
 15 20  1  0
 16 24  1  0
 16 29  2  0
 18 31  1  0
 20 24  1  0
 21 28  1  0
 21 29  2  0
 22 27  1  0
 23 31  1  0
 25 31  1  0
M  END
>  <ID>  (1) 
conformer_0

$$$$
