
     RDKit          3D

 33 37  0  0  0  0  0  0  0  0999 V2000
   12.9140   20.9148   12.3090 O   0  0  0  0  0  0  0  0  0  0  0  0
   13.4155   20.9884   13.5201 C   0  0  0  0  0  0  0  0  0  0  0  0
   10.4318   15.1642   11.3032 C   0  0  0  0  0  0  0  0  0  0  0  0
    9.2469   10.9993   10.8464 C   0  0  0  0  0  0  0  0  0  0  0  0
   13.8115   19.6554   14.0982 C   0  0  0  0  0  0  0  0  0  0  0  0
   11.3364   15.5333   13.9880 C   0  0  0  0  0  0  0  0  0  0  0  0
   12.7329   17.4917   14.5899 C   0  0  0  0  0  0  0  0  0  0  0  0
   13.8196   16.8330   14.0094 C   0  0  0  0  0  0  0  0  0  0  0  0
    6.9127   12.5539   15.9505 C   0  0  0  0  0  0  0  0  0  0  0  0
   13.6281   22.0653   14.0968 O   0  0  0  0  0  0  0  0  0  0  0  0
   10.4752   17.5444   15.1137 O   0  0  0  0  0  0  0  0  0  0  0  0
   11.2548   12.8923   10.6797 C   0  0  0  0  0  0  0  0  0  0  0  0
    9.6314   12.8464   12.2155 C   0  0  0  0  0  0  0  0  0  0  0  0
    9.4636   15.3363   15.3309 C   0  0  0  0  0  0  0  0  0  0  0  0
    9.7881   16.6135   15.8595 C   0  0  0  0  0  0  0  0  0  0  0  0
    9.8303   18.0705   17.6792 O   0  0  0  0  0  0  0  0  0  0  0  0
   13.6681   15.6257   13.3459 C   0  0  0  0  0  0  0  0  0  0  0  0
   11.4829   16.8264   14.5831 C   0  0  0  0  0  0  0  0  0  0  0  0
    8.4764   16.1911   17.8560 C   0  0  0  0  0  0  0  0  0  0  0  0
    8.5771   12.7193   14.4067 C   0  0  0  0  0  0  0  0  0  0  0  0
    8.8797   11.4495   12.3323 C   0  0  0  0  0  0  0  0  0  0  0  0
   10.1863   11.9765   10.0365 C   0  0  0  0  0  0  0  0  0  0  0  0
    8.1465   11.6734   13.6868 C   0  0  0  0  0  0  0  0  0  0  0  0
    6.4758   11.4229   15.3165 C   0  0  0  0  0  0  0  0  0  0  0  0
    7.0916   10.9777   14.1813 N   0  0  0  0  0  0  0  0  0  0  0  0
   10.1331   14.8965   14.2178 O   0  0  0  0  0  0  0  0  0  0  0  0
    9.3707   17.0270   17.1648 C   0  0  0  0  0  0  0  0  0  0  0  0
   12.8653   18.9392   15.0779 C   0  0  0  0  0  0  0  0  0  0  0  0
    8.0750   15.0248   17.2782 C   0  0  0  0  0  0  0  0  0  0  0  0
   12.4537   14.9500   13.3311 C   0  0  0  0  0  0  0  0  0  0  0  0
    8.0100   13.2820   15.4529 C   0  0  0  0  0  0  0  0  0  0  0  0
    8.4899   14.5386   16.0215 C   0  0  0  0  0  0  0  0  0  0  0  0
   10.7284   13.7421   11.8401 C   0  0  0  0  0  0  0  0  0  0  0  0
  1  2  2  0
  2  5  1  0
  2 10  1  0
  3 33  1  0
  4 21  1  0
  4 22  1  0
  5 28  1  0
  6 18  2  0
  6 26  1  0
  6 30  1  0
  7  8  2  0
  7 18  1  0
  7 28  1  0
  8 17  1  0
  9 24  2  0
  9 31  1  0
 11 15  1  0
 11 18  1  0
 12 22  1  0
 12 33  1  0
 13 21  1  0
 13 33  1  0
 14 15  1  0
 14 26  1  0
 14 32  2  0
 15 27  1  0
 16 27  2  0
 17 30  2  0
 19 27  1  0
 19 29  2  0
 20 23  1  0
 20 31  2  0
 21 23  1  0
 23 25  2  0
 24 25  1  0
 29 32  1  0
 31 32  1  0
M  END
>  <ID>  (1) 
conformer_0

$$$$
