
     RDKit          3D

 36 39  0  0  0  0  0  0  0  0999 V2000
    7.6712   11.5889   14.5166 C   0  0  0  0  0  0  0  0  0  0  0  0
   13.1286   16.1497   12.9502 C   0  0  0  0  0  0  0  0  0  0  0  0
   15.3055   21.3309   15.4966 O   0  0  0  0  0  1  0  0  0  0  0  0
   13.5525   16.5546   14.3418 O   0  0  0  0  0  0  0  0  0  0  0  0
   11.4308   13.2942   10.9591 C   0  0  0  0  0  0  0  0  0  0  0  0
    9.3310   11.9325   12.7198 C   0  0  0  0  0  0  0  0  0  0  0  0
   10.9959   16.3339   13.7056 N   0  0  0  0  0  0  0  0  0  0  0  0
    7.1946   13.0932   16.0795 C   0  0  0  0  0  0  0  0  0  0  0  0
    9.6742   11.6361   11.4003 C   0  0  0  0  0  0  0  0  0  0  0  0
    8.1666   12.6445   15.2213 C   0  0  0  0  0  0  0  0  0  0  0  0
   13.2801   18.0481   16.1656 C   0  0  0  0  0  0  0  0  0  0  0  0
    6.4935   11.2801   14.9767 N   0  0  0  0  0  0  0  0  0  0  0  0
   14.2401   18.7375   15.2409 C   0  0  0  0  0  0  0  0  0  0  0  0
   11.3263   14.9610   14.2733 C   0  0  0  0  0  0  0  0  0  0  0  0
   11.8492   17.0793   12.8748 C   0  0  0  0  0  0  0  0  0  0  0  0
    8.9267   17.2607   18.0287 N   0  0  0  0  0  0  0  0  0  0  0  0
    9.9453   12.9249   13.4015 C   0  0  0  0  0  0  0  0  0  0  0  0
   10.6033   12.2938   10.6344 C   0  0  0  0  0  0  0  0  0  0  0  0
   12.7442   14.9607   12.1850 O   0  0  0  0  0  0  0  0  0  0  0  0
   10.1253   16.6635   16.2114 N   0  0  0  0  0  0  0  0  0  0  0  0
   14.0257   20.5821   15.6082 P   0  0  0  0  0  4  0  0  0  0  0  0
   13.4792   20.6969   17.0420 O   0  0  0  0  0  0  0  0  0  0  0  0
    7.3567   14.2578   16.6785 N   0  0  0  0  0  0  0  0  0  0  0  0
    8.2362   15.3339   16.8191 C   0  0  0  0  0  0  0  0  0  0  0  0
    6.1153   12.1861   15.9196 C   0  0  0  0  0  0  0  0  0  0  0  0
    9.3237   15.6388   15.9784 N   0  0  0  0  0  0  0  0  0  0  0  0
    7.8450    9.9935   12.8326 O   0  0  0  0  0  0  0  0  0  0  0  0
   11.6719   14.0083   12.0754 C   0  0  0  0  0  0  0  0  0  0  0  0
   11.6279   17.3004   11.5192 O   0  0  0  0  0  0  0  0  0  0  0  0
   13.0453   21.0283   14.4793 O   0  0  0  0  0  0  0  0  0  0  0  0
    8.0795   16.2247   17.8455 C   0  0  0  0  0  0  0  0  0  0  0  0
   13.1851   17.9530   14.6925 C   0  0  0  0  0  0  0  0  0  0  0  0
   10.0071   17.5362   17.2017 C   0  0  0  0  0  0  0  0  0  0  0  0
   10.9307   13.8860   13.2757 C   0  0  0  0  0  0  0  0  0  0  0  0
    8.6693   18.0521   19.1135 O   0  0  0  0  0  0  0  0  0  0  0  0
    8.2491   11.0743   13.2970 C   0  0  0  0  0  0  0  0  0  0  0  0
  1 10  1  0
  1 12  1  0
  1 36  1  0
  2  4  1  0
  2 15  1  0
  2 19  1  0
  3 21  2  0
  4 32  1  0
  5 18  1  0
  5 28  2  0
  6  9  1  0
  6 17  2  0
  6 36  1  0
  7 14  1  0
  7 15  1  0
  8 10  1  0
  8 23  2  3
  8 25  1  0
  9 18  2  0
 11 32  1  0
 12 25  1  0
 13 21  1  0
 13 32  1  0
 14 34  1  0
 15 29  1  0
 16 31  1  0
 16 33  1  0
 16 35  1  0
 17 34  1  0
 19 28  1  0
 20 26  2  0
 20 33  1  0
 21 22  1  0
 21 30  1  0
 23 24  1  0
 24 26  1  0
 24 31  2  0
 27 36  2  0
 28 34  1  0
M  END
>  <ID>  (1) 
conformer_0

$$$$
