
     RDKit          3D

 36 43  0  0  0  0  0  0  0  0999 V2000
    8.9104   13.1746   15.1059 C   0  0  0  0  0  0  0  0  0  0  0  0
    9.5376   16.2785   16.9540 C   0  0  0  0  0  0  0  0  0  0  0  0
    9.9254   14.2351   15.6095 C   0  0  0  0  0  0  0  0  0  0  0  0
   12.3267   15.1927   12.1270 C   0  0  0  0  0  0  0  0  0  0  0  0
   12.1281   13.7996   12.7382 C   0  0  0  0  0  0  0  0  0  0  0  0
    7.7006   13.1869   15.9304 N   0  0  0  0  0  0  0  0  0  0  0  0
    9.0776   15.0248   16.4554 C   0  0  0  0  0  0  0  0  0  0  0  0
   10.7146   16.4830   16.2314 C   0  0  0  0  0  0  0  0  0  0  0  0
   13.8901   17.7355   17.0500 O   0  0  0  0  0  0  0  0  0  0  0  0
    7.0236   15.2003   17.5219 C   0  0  0  0  0  0  0  0  0  0  0  0
    8.7584   16.9153   17.8419 C   0  0  0  0  0  0  0  0  0  0  0  0
   12.6158   19.5899   17.0881 O   0  0  0  0  0  0  0  0  0  0  0  0
   12.4200   18.9813   12.4354 C   0  0  0  0  0  0  0  0  0  0  0  0
    7.4867   16.4132   18.1028 C   0  0  0  0  0  0  0  0  0  0  0  0
    6.8559   12.0268   15.7119 C   0  0  0  0  0  0  0  0  0  0  0  0
    6.9679   11.1764   14.6411 N   0  0  0  0  0  0  0  0  0  0  0  0
   12.4914   18.1207   15.0901 C   0  0  0  0  0  0  0  0  0  0  0  0
   13.3189   16.9037   14.4921 C   0  0  0  0  0  0  0  0  0  0  0  0
    7.9573   11.4169   13.7290 C   0  0  0  0  0  0  0  0  0  0  0  0
   13.1905   16.1177   13.0987 C   0  0  0  0  0  0  0  0  0  0  0  0
   14.3503   19.7478   15.5068 C   0  0  0  0  0  0  0  0  0  0  0  0
   11.0022   13.0938   12.1610 N   0  0  0  0  0  0  0  0  0  0  0  0
   11.2115   17.6301   15.5828 O   0  0  0  0  0  0  0  0  0  0  0  0
    8.2277   10.8677   12.4503 N   0  0  0  0  0  0  0  0  0  0  0  0
    7.8225   14.4859   16.7056 C   0  0  0  0  0  0  0  0  0  0  0  0
    9.8214   12.5331   12.8482 C   0  0  0  0  0  0  0  0  0  0  0  0
   12.4811   19.2364   13.9609 C   0  0  0  0  0  0  0  0  0  0  0  0
   11.0028   12.6442   10.8644 C   0  0  0  0  0  0  0  0  0  0  0  0
   13.7315   20.1164   14.1565 N   0  0  0  0  0  0  0  0  0  0  0  0
   11.1416   15.1806   15.7201 C   0  0  0  0  0  0  0  0  0  0  0  0
    9.9878   11.6692   10.7261 N   0  0  0  0  0  0  0  0  0  0  0  0
    9.2055   17.9945   18.4403 F   0  0  0  0  0  0  0  0  0  0  0  0
   13.3392   18.7933   16.2901 C   0  0  0  0  0  0  0  0  0  0  0  0
    9.3090   11.5939   11.9382 C   0  0  0  0  0  0  0  0  0  0  0  0
   12.4227   20.3314   11.7601 N   0  0  0  0  0  0  0  0  0  0  0  0
    8.9181   12.4377   13.9775 C   0  0  0  0  0  0  0  0  0  0  0  0
  1  3  1  0
  1  6  1  0
  1 36  1  0
  2  7  1  0
  2  8  1  0
  2 11  2  0
  3  7  2  0
  3 30  1  0
  4  5  1  0
  4 20  1  0
  5 22  1  0
  6 15  1  0
  6 25  1  0
  7 25  1  0
  8 23  1  0
  8 30  1  0
  9 33  1  0
 10 14  1  0
 10 25  2  0
 11 14  1  0
 11 32  1  0
 12 33  1  0
 13 27  1  0
 13 35  1  0
 15 16  2  0
 16 19  1  0
 17 18  1  0
 17 23  1  0
 17 27  1  0
 17 33  1  0
 18 20  1  0
 19 24  1  0
 19 36  2  0
 21 29  1  0
 21 33  1  0
 22 26  1  0
 22 28  1  0
 24 34  1  0
 26 34  2  0
 26 36  1  0
 27 29  1  0
 28 31  1  0
 31 34  1  0
M  END
>  <ID>  (1) 
conformer_0

$$$$
