
     RDKit          3D

 34 37  0  0  0  0  0  0  0  0999 V2000
    9.6077   14.4687   16.0130 C   0  0  0  0  0  0  0  0  0  0  0  0
    9.4344   11.3431   12.1523 C   0  0  0  0  0  0  0  0  0  0  0  0
    8.7126   12.4065   17.6145 O   0  0  0  0  0  0  0  0  0  0  0  0
   11.1482   16.2548   16.2369 C   0  0  0  0  0  0  0  0  0  0  0  0
    5.6558   10.8960   14.8506 N   0  0  0  0  0  0  0  0  0  0  0  0
   12.4502   16.0838   12.2168 C   0  0  0  0  0  0  0  0  0  0  0  0
   12.0863   18.3773   16.2836 C   0  0  0  0  0  0  0  0  0  0  0  0
   11.9318   14.9393   12.7797 C   0  0  0  0  0  0  0  0  0  0  0  0
   14.3533   17.7665   15.5087 C   0  0  0  0  0  0  0  0  0  0  0  0
    7.3499   11.7465   15.9410 C   0  0  0  0  0  0  0  0  0  0  0  0
   13.9185   16.2107   12.0933 C   0  0  0  0  0  0  0  0  0  0  0  0
   10.6384   14.8549   13.2049 C   0  0  0  0  0  0  0  0  0  0  0  0
   10.1420   17.0434   12.3110 C   0  0  0  0  0  0  0  0  0  0  0  0
    9.1434   13.2815   15.4096 C   0  0  0  0  0  0  0  0  0  0  0  0
    7.5009   11.2437   13.6018 N   0  0  0  0  0  0  0  0  0  0  0  0
    8.3673   12.4928   16.4070 C   0  0  0  0  0  0  0  0  0  0  0  0
   10.8177   15.1197   15.8525 C   0  0  0  0  0  0  0  0  0  0  0  0
    8.8327   15.1385   17.0212 C   0  0  0  0  0  0  0  0  0  0  0  0
   11.5430   17.2008   11.9259 C   0  0  0  0  0  0  0  0  0  0  0  0
   10.9420   17.5417   16.7599 C   0  0  0  0  0  0  0  0  0  0  0  0
   14.5777   16.0071   13.1818 O   0  0  0  0  0  0  0  0  0  0  0  0
    6.8547   11.3260   14.7895 C   0  0  0  0  0  0  0  0  0  0  0  0
    9.7274   17.4636   17.5945 C   0  0  0  0  0  0  0  0  0  0  0  0
   10.2256   13.6093   13.6704 C   0  0  0  0  0  0  0  0  0  0  0  0
   13.5341   19.9975   15.2546 C   0  0  0  0  0  0  0  0  0  0  0  0
   14.5869   19.0787   15.0584 C   0  0  0  0  0  0  0  0  0  0  0  0
    9.2820   12.8157   14.1392 C   0  0  0  0  0  0  0  0  0  0  0  0
    8.7140   11.8062   13.3557 C   0  0  0  0  0  0  0  0  0  0  0  0
    9.7384   15.9139   12.9617 C   0  0  0  0  0  0  0  0  0  0  0  0
   14.4108   16.2994   10.9208 O   0  0  0  0  0  0  0  0  0  0  0  0
    8.8917   16.3332   17.5708 C   0  0  0  0  0  0  0  0  0  0  0  0
   12.2965   19.6557   15.8137 C   0  0  0  0  0  0  0  0  0  0  0  0
   13.2147   17.5206   16.0762 N   0  0  0  0  0  0  0  0  0  0  0  0
    9.4263   18.4290   18.3582 O   0  0  0  0  0  0  0  0  0  0  0  0
  1 14  1  0
  1 17  1  0
  1 18  1  0
  2 28  1  0
  3 16  2  0
  4 17  2  0
  4 20  2  0
  5 22  2  0
  6  8  2  0
  6 11  1  0
  6 19  1  0
  7 20  1  0
  7 32  1  0
  7 33  2  0
  8 12  1  0
  9 26  2  0
  9 33  1  0
 10 16  1  0
 10 22  1  0
 11 21  2  0
 11 30  1  0
 12 24  2  3
 12 29  1  0
 13 19  1  0
 13 29  2  0
 14 16  1  0
 14 27  2  0
 15 22  1  0
 15 28  1  0
 18 31  2  0
 20 23  1  0
 23 31  1  0
 23 34  2  0
 24 27  1  0
 25 26  1  0
 25 32  2  0
 27 28  1  0
M  END
>  <ID>  (1) 
conformer_0

$$$$
