
     RDKit          3D

 33 37  0  0  0  0  0  0  0  0999 V2000
    8.8059   15.7287   16.8342 C   0  0  0  0  0  0  0  0  0  0  0  0
    8.7844   13.9784   15.3296 C   0  0  0  0  0  3  0  0  0  0  0  0
    7.7844   13.7284   16.1507 C   0  0  0  0  0  0  0  0  0  0  0  0
   12.5250   15.2624   13.7919 C   0  0  0  0  0  0  0  0  0  0  0  0
   11.6213   17.3759   14.7589 C   0  0  0  0  0  0  0  0  0  0  0  0
    7.9393   16.4033   18.0757 S   0  0  0  0  0  0  0  0  0  0  0  0
   10.8952   17.6554   16.1519 C   0  0  0  0  0  0  0  0  0  0  0  0
    8.1802   12.0209   14.0201 C   0  0  0  0  0  0  0  0  0  0  0  0
   14.7060   21.0688   16.9020 O   0  0  0  0  0  0  0  0  0  0  0  0
   11.0120   13.7313   12.7386 C   0  0  0  0  0  0  0  0  0  0  0  0
    6.9157   12.6049   16.0169 C   0  0  0  0  0  0  0  0  0  0  0  0
   13.9342   21.9713   15.0165 O   0  0  0  0  0  0  0  0  0  0  0  0
   12.6344   16.3747   14.6133 C   0  0  0  0  0  0  0  0  0  0  0  0
    9.0204   13.1041   14.1924 C   0  0  0  0  0  0  0  0  0  0  0  0
    8.4288   14.6057   16.3040 C   0  0  0  0  0  0  0  0  0  0  0  0
   14.4564   19.6486   14.9921 C   0  0  0  0  0  0  0  0  0  0  0  0
   13.5714   18.6785   15.8405 C   0  0  0  0  0  0  0  0  0  0  0  0
    9.9435   13.0677   13.1340 C   0  0  0  0  0  0  0  0  0  0  0  0
    6.3611   10.7282   14.7025 O   0  0  0  0  0  0  0  0  0  0  0  0
   10.1010   13.2425    9.9638 C   0  0  0  0  0  0  0  0  0  0  0  0
    9.6481   11.9147   12.1739 N   0  0  0  0  0  0  0  0  0  0  0  0
   10.4878   16.1380   12.8757 C   0  0  0  0  0  0  0  0  0  0  0  0
   14.3794   21.0327   15.6946 C   0  0  0  0  0  0  0  0  0  0  0  0
    7.1107   11.7664   14.9429 C   0  0  0  0  0  0  0  0  0  0  0  0
   10.6107   17.2821   13.6951 C   0  0  0  0  0  0  0  0  0  0  0  0
   10.6125   12.1767   11.0313 C   0  0  0  0  0  0  0  0  0  0  0  0
    8.1328   10.1186   12.5593 O   0  0  0  0  0  0  0  0  0  0  0  0
    8.5462   11.2144   12.8717 C   0  0  0  0  0  0  0  0  0  0  0  0
   12.0720   18.7691   15.3668 C   0  0  0  0  0  0  0  0  0  0  0  0
   11.7130   13.0554   11.6853 C   0  0  0  0  0  0  0  0  0  0  0  0
   10.7017   18.3322   17.2338 O   0  0  0  0  0  0  0  0  0  0  0  0
    9.8342   16.5247   16.3261 N   0  0  0  0  0  0  0  0  0  0  0  0
   11.3519   15.0223   13.1007 C   0  0  0  0  0  0  0  0  0  0  0  0
  1  6  2  0
  1 15  1  0
  1 32  1  0
  2 14  2  0
  2 15  1  0
  3 11  2  0
  3 15  2  0
  4 13  2  0
  4 33  1  0
  5  7  1  0
  5 13  1  0
  5 25  1  0
  5 29  1  0
  7 31  2  0
  7 32  1  0
  8 14  1  0
  8 24  2  0
  8 28  1  0
  9 23  2  0
 10 18  1  0
 10 30  1  0
 10 33  1  0
 11 24  1  0
 12 23  1  0
 14 18  1  0
 16 17  1  0
 16 23  1  0
 17 29  1  0
 18 21  1  0
 19 24  1  0
 20 26  1  0
 21 26  1  0
 21 28  1  0
 22 25  2  0
 22 33  1  0
 26 30  1  0
 27 28  2  0
M  END
>  <ID>  (1) 
conformer_0

$$$$
