
     RDKit          3D

 29 33  0  0  0  0  0  0  0  0999 V2000
   12.2366   15.8186   13.4637 C   0  0  0  0  0  0  0  0  0  0  0  0
    9.7689   13.7514   13.4785 C   0  0  0  0  0  0  0  0  0  0  0  0
   12.2796   18.2066   14.8984 C   0  0  0  0  0  0  0  0  0  0  0  0
   11.0263   13.6480   11.3352 C   0  0  0  0  0  0  0  0  0  0  0  0
    9.5437   11.8568   11.8812 C   0  0  0  0  0  0  0  0  0  0  0  0
   10.4901   12.4118   11.0320 C   0  0  0  0  0  0  0  0  0  0  0  0
    8.4706   16.3591   17.8940 C   0  0  0  0  0  0  0  0  0  0  0  0
   11.5710   18.6889   17.1103 O   0  0  0  0  0  0  0  0  0  0  0  0
   14.1890   17.3341   16.5237 O   0  0  0  0  0  0  0  0  0  0  0  0
   11.1040   17.8005   13.7634 C   0  0  0  0  0  0  0  0  0  0  0  0
    8.3039   13.5633   15.4732 C   0  0  0  0  0  0  0  0  0  0  0  0
    8.9466   10.7076   11.4699 N   0  0  0  0  0  0  0  0  0  0  0  0
    9.3844   14.3323   14.8022 C   0  0  0  0  0  0  0  0  0  0  0  0
    9.5157   17.2385   17.6386 C   0  0  0  0  0  0  0  0  0  0  0  0
    8.5370   15.3395   16.8967 C   0  0  0  0  0  0  0  0  0  0  0  0
    7.5478   10.4985   13.7777 O   0  0  0  0  0  0  0  0  0  0  0  0
    7.8206   14.1769   16.6995 C   0  0  0  0  0  0  0  0  0  0  0  0
    9.1588   12.4633   13.1241 C   0  0  0  0  0  0  0  0  0  0  0  0
   13.7782   18.4247   15.6091 C   0  0  0  0  0  0  0  0  0  0  0  0
   11.4771   17.6550   16.1685 C   0  0  0  0  0  0  0  0  0  0  0  0
   10.6282   14.3504   12.4937 C   0  0  0  0  0  0  0  0  0  0  0  0
    8.0866   11.6568   13.9610 C   0  0  0  0  0  0  0  0  0  0  0  0
   10.2804   16.7807   16.4325 C   0  0  0  0  0  0  0  0  0  0  0  0
    9.6136   15.5582   15.8633 C   0  0  0  0  0  0  0  0  0  0  0  0
    6.6083   11.9383   15.7535 N   0  0  0  0  0  0  0  0  0  0  0  0
   11.0531   15.7677   12.5430 C   0  0  0  0  0  0  0  0  0  0  0  0
   12.3296   19.6599   14.2945 O   0  0  0  0  0  0  0  0  0  0  0  0
    7.6947   12.3658   15.0961 N   0  0  0  0  0  0  0  0  0  0  0  0
   10.9598   16.3304   13.8122 N   0  0  0  0  0  0  0  0  0  0  0  0
  1 29  1  0
  2 13  1  0
  2 18  2  0
  2 21  1  0
  3 10  1  0
  3 19  1  0
  3 20  1  0
  3 27  1  0
  4  6  1  0
  4 21  2  0
  5  6  2  0
  5 12  1  0
  5 18  1  0
  7 14  1  0
  7 15  1  0
  8 20  1  0
  9 19  1  0
 10 29  1  0
 11 13  2  0
 11 17  1  0
 11 28  1  0
 13 24  1  0
 14 23  1  0
 15 17  1  0
 15 24  2  0
 16 22  2  0
 18 22  1  0
 20 23  1  0
 21 26  1  0
 22 28  1  0
 23 24  1  0
 25 28  1  0
 26 29  1  0
M  END
>  <ID>  (1) 
conformer_0

$$$$
