
     RDKit          3D

 32 34  0  0  0  0  0  0  0  0999 V2000
    7.3587   16.2523   18.2701 O   0  0  0  0  0  0  0  0  0  0  0  0
    8.1424   10.3080   12.5632 N   0  0  0  0  0  0  0  0  0  0  0  0
    8.3916   16.0294   17.4172 C   0  0  0  0  0  0  0  0  0  0  0  0
   13.2502   19.4941   16.9324 O   0  0  0  0  0  0  0  0  0  0  0  0
    9.1043   12.2420   13.5621 C   0  0  0  0  0  0  0  0  0  0  0  0
    9.4114   18.0102   18.3080 O   0  0  0  0  0  0  0  0  0  0  0  0
   11.1168   13.4111   12.9900 C   0  0  0  0  0  0  0  0  0  0  0  0
    9.1037   11.3046   12.5489 C   0  0  0  0  0  0  0  0  0  0  0  0
    9.3785   17.0366   17.4174 C   0  0  0  0  0  0  0  0  0  0  0  0
   13.0977   14.5806   12.2909 C   0  0  0  0  0  0  0  0  0  0  0  0
   10.4861   15.8443   15.6665 C   0  0  0  0  0  0  0  0  0  0  0  0
    7.1840   10.2965   13.5570 N   0  0  0  0  0  0  0  0  0  0  0  0
    8.4601   14.9276   16.5551 C   0  0  0  0  0  0  0  0  0  0  0  0
    8.1371   12.1562   14.5130 C   0  0  0  0  0  0  0  0  0  0  0  0
    9.5238   14.8627   15.6388 C   0  0  0  0  0  0  0  0  0  0  0  0
   13.0071   19.6076   15.6954 C   0  0  0  0  0  0  0  0  0  0  0  0
   11.6047   16.1834   11.5311 C   0  0  0  0  0  0  0  0  0  0  0  0
    6.1748   11.3185   15.5211 N   0  0  0  0  0  0  0  0  0  0  0  0
   12.7529   15.9092   12.1547 N   0  0  0  0  0  0  0  0  0  0  0  0
   10.0651   13.2597   13.7132 N   0  0  0  0  0  0  0  0  0  0  0  0
   11.7544   18.7715   13.6148 C   0  0  0  0  0  0  0  0  0  0  0  0
   11.1826   18.0945   16.1825 O   0  0  0  0  0  0  0  0  0  0  0  0
   12.8275   18.3572   12.4004 C   0  0  0  0  0  0  0  0  0  0  0  0
    7.1720   11.2497   14.4989 C   0  0  0  0  0  0  0  0  0  0  0  0
   11.9523   18.6099   15.1562 C   0  0  0  0  0  0  0  0  0  0  0  0
   12.2273   13.5817   12.5234 C   0  0  0  0  0  0  0  0  0  0  0  0
   13.5455   17.0239   12.6948 C   0  0  0  0  0  0  0  0  0  0  0  0
   10.3834   16.5943   11.4695 F   0  0  0  0  0  0  0  0  0  0  0  0
    9.7348   13.9615   14.7186 C   0  0  0  0  0  0  0  0  0  0  0  0
   14.0118   16.5664   14.1988 C   0  0  0  0  0  0  0  0  0  0  0  0
   13.3414   20.5377   14.8991 O   0  0  0  0  0  0  0  0  0  0  0  0
   10.3767   16.9651   16.4214 C   0  0  0  0  0  0  0  0  0  0  0  0
  1  3  1  0
  2  8  2  0
  2 12  1  0
  3  9  2  0
  3 13  1  0
  4 16  2  0
  5  8  1  0
  5 14  2  0
  5 20  1  0
  6  9  1  0
  7 20  1  0
  7 26  1  0
  9 32  1  0
 10 19  1  0
 10 26  1  0
 11 15  2  0
 11 32  1  0
 12 24  1  0
 13 15  1  0
 14 24  1  0
 15 29  1  0
 16 25  1  0
 16 31  1  0
 17 19  1  0
 17 28  1  0
 18 24  2  0
 19 27  1  0
 20 29  1  0
 21 23  1  0
 21 25  1  0
 22 25  1  0
 22 32  1  0
 23 27  1  0
 27 30  1  0
M  END
>  <ID>  (1) 
conformer_0

$$$$
