
     RDKit          3D

 33 38  0  0  0  0  0  0  0  0999 V2000
   13.6305   19.8028   16.5659 C   0  0  0  0  0  0  0  0  0  0  0  0
    9.8892   12.6999   12.6816 C   0  0  0  0  0  0  0  0  0  0  0  0
    9.1555   17.8184   18.3818 C   0  0  0  0  0  0  0  0  0  0  0  0
    9.7878   12.6185   11.2764 C   0  0  0  0  0  0  0  0  0  0  0  0
    7.3262   16.2576   18.0948 C   0  0  0  0  0  0  0  0  0  0  0  0
    9.8204   16.5162   13.5727 C   0  0  0  0  0  0  0  0  0  0  0  0
   12.8345   18.9776   14.4433 C   0  0  0  0  0  0  0  0  0  0  0  0
    7.8959   11.2097   13.7667 C   0  0  0  0  0  0  0  0  0  0  0  0
   13.7268   20.2773   14.2338 C   0  0  0  0  0  0  0  0  0  0  0  0
    7.6972   13.2177   15.6861 C   0  0  0  0  0  0  0  0  0  0  0  0
   10.6958   13.2622   10.3908 C   0  0  0  0  0  0  0  0  0  0  0  0
   10.6143   15.8739   14.7389 C   0  0  0  0  0  0  0  0  0  0  0  0
    7.8626   17.3702   18.7023 N   0  0  0  0  0  0  0  0  0  0  0  0
   12.5834   17.3028   16.1889 C   0  0  0  0  0  0  0  0  0  0  0  0
   11.7670   17.9153   14.0922 N   0  0  0  0  0  0  0  0  0  0  0  0
    8.0017   15.4954   17.1796 C   0  0  0  0  0  0  0  0  0  0  0  0
    9.2984   15.9948   16.8373 C   0  0  0  0  0  0  0  0  0  0  0  0
    9.9691   15.2938   15.8469 N   0  0  0  0  0  0  0  0  0  0  0  0
    8.6898   13.1857   14.7719 C   0  0  0  0  0  0  0  0  0  0  0  0
   11.9688   13.9520   12.2872 C   0  0  0  0  0  0  0  0  0  0  0  0
    8.8498   12.3392   13.6902 C   0  0  0  0  0  0  0  0  0  0  0  0
    9.8154   17.0971   17.5077 C   0  0  0  0  0  0  0  0  0  0  0  0
   14.2246   20.7694   15.5760 C   0  0  0  0  0  0  0  0  0  0  0  0
   11.0677   13.3335   13.1066 C   0  0  0  0  0  0  0  0  0  0  0  0
    6.8063   12.1582   15.6901 C   0  0  0  0  0  0  0  0  0  0  0  0
   14.5969   22.2127   15.4026 C   0  0  0  0  0  0  0  0  0  0  0  0
    7.5820   14.3054   16.6174 N   0  0  0  0  0  0  0  0  0  0  0  0
    6.9232   11.1937   14.7023 N   0  0  0  0  0  0  0  0  0  0  0  0
   10.6941   17.7021   13.0480 C   0  0  0  0  0  0  0  0  0  0  0  0
   11.6913   16.8469   15.0930 C   0  0  0  0  0  0  0  0  0  0  0  0
   11.8187   13.9856   10.9011 C   0  0  0  0  0  0  0  0  0  0  0  0
   13.2608   18.5658   15.8574 C   0  0  0  0  0  0  0  0  0  0  0  0
    7.9839   10.2248   12.9085 O   0  0  0  0  0  0  0  0  0  0  0  0
  1 23  1  0
  1 32  1  0
  2  4  2  0
  2 21  1  0
  2 24  1  0
  3 13  2  0
  3 22  1  0
  4 11  1  0
  5 13  1  0
  5 16  2  0
  6 12  1  0
  6 29  1  0
  7  9  1  0
  7 15  1  0
  7 32  1  0
  8 21  1  0
  8 28  1  0
  8 33  2  0
  9 23  1  0
 10 19  2  0
 10 25  1  0
 10 27  1  0
 11 31  2  0
 12 18  1  0
 12 30  1  0
 14 30  1  0
 14 32  1  0
 15 29  1  0
 15 30  1  0
 16 17  1  0
 16 27  1  0
 17 18  1  0
 17 22  2  0
 19 21  1  0
 20 24  2  0
 20 31  1  0
 23 26  1  0
 25 28  2  0
M  END
>  <ID>  (1) 
conformer_0

$$$$
