
     RDKit          3D

 43 47  0  0  0  0  0  0  0  0999 V2000
   14.0084   18.8023   16.1338 C   0  0  0  0  0  0  0  0  0  0  0  0
   13.6488   16.5227   14.0238 O   0  0  0  0  0  0  0  0  0  0  0  0
   11.3722   14.5301   12.1670 C   0  0  0  0  0  0  0  0  0  0  0  0
   10.5328   16.7944   12.3521 C   0  0  0  0  0  0  0  0  0  0  0  0
   11.9226   16.1341   12.5618 N   0  0  0  0  0  0  0  0  0  0  0  0
    9.3173   11.3371   11.5184 C   0  0  0  0  0  0  0  0  0  0  0  0
   14.7485   19.5080   15.0130 C   0  0  0  0  0  0  0  0  0  0  0  0
   12.7510   18.9029   16.7193 O   0  0  0  0  0  0  0  0  0  0  0  0
    9.4481   17.5046   18.2928 C   0  0  0  0  0  0  0  0  0  0  0  0
   12.4718   17.0778   13.6854 C   0  0  0  0  0  0  0  0  0  0  0  0
   13.7805   20.8855   14.4789 P   0  0  0  0  0  4  0  0  0  0  0  0
    7.7804   10.7355   13.2145 N   0  0  0  0  0  0  0  0  0  0  0  0
    6.9353   10.7421   14.1851 N   0  0  0  0  0  0  0  0  0  0  0  0
    9.6177   12.8442   16.9153 O   0  0  0  0  0  0  0  0  0  0  0  0
   11.5804   13.7337    9.5828 C   0  0  0  0  0  0  0  0  0  0  0  0
    8.6468   16.5518   17.7258 C   0  0  0  0  0  0  0  0  0  0  0  0
   12.3863   19.9501   14.3236 O   0  0  0  0  0  0  0  0  0  0  0  0
   10.2008   12.4120   11.1161 C   0  0  0  0  0  0  0  0  0  0  0  0
    6.5958   18.1292   19.9103 C   0  0  0  0  0  0  0  0  0  0  0  0
    9.0659   10.2568   10.8220 N   0  0  0  0  0  0  0  0  0  0  0  0
    8.6039   13.3219   16.3711 C   0  0  0  0  0  0  0  0  0  0  0  0
   10.0457   16.8083   13.8749 C   0  0  0  0  0  0  0  0  0  0  0  0
    6.0530   11.8413   16.0131 N   0  0  0  0  0  0  0  0  0  0  0  0
    7.6408   18.2099   19.7061 C   0  0  0  0  0  0  0  0  0  0  0  0
    7.0189   11.6962   15.1731 C   0  0  0  0  0  0  0  0  0  0  0  0
   13.8973   21.9232   15.6508 O   0  0  0  0  0  1  0  0  0  0  0  0
   10.7758   12.5494    9.8114 C   0  0  0  0  0  0  0  0  0  0  0  0
    8.1070   14.5488   16.6718 N   0  0  0  0  0  0  0  0  0  0  0  0
    9.4986   12.8127   13.2871 C   0  0  0  0  0  0  0  0  0  0  0  0
    8.0034   12.5311   15.3456 O   0  0  0  0  0  0  0  0  0  0  0  0
   10.2124   15.3414   16.2326 N   0  0  0  0  0  0  0  0  0  0  0  0
    9.0751   15.5408   16.7874 C   0  0  0  0  0  0  0  0  0  0  0  0
   10.5781   11.7001    8.8506 O   0  0  0  0  0  0  0  0  0  0  0  0
   11.3818   15.9678   15.8320 C   0  0  0  0  0  0  0  0  0  0  0  0
   12.0281   14.5159   10.7489 C   0  0  0  0  0  0  0  0  0  0  0  0
    8.9849   18.2909   19.3047 N   0  0  0  0  0  0  0  0  0  0  0  0
    8.7620   11.6024   12.8352 C   0  0  0  0  0  0  0  0  0  0  0  0
   11.3203   16.9299   14.6961 C   0  0  0  0  0  0  0  0  0  0  0  0
    6.8050   17.2709   19.0044 C   0  0  0  0  0  0  0  0  0  0  0  0
   13.8998   21.6100   13.0948 O   0  0  0  0  0  0  0  0  0  0  0  0
    7.3281   16.5068   18.0772 C   0  0  0  0  0  0  0  0  0  0  0  0
   10.3742   13.2882   12.2453 C   0  0  0  0  0  0  0  0  0  0  0  0
   12.5393   18.6774   13.4401 C   0  0  0  0  0  0  0  0  0  0  0  0
  1  7  1  0
  1  8  1  0
  2 10  1  0
  3  5  1  0
  3 35  1  0
  3 42  1  0
  4  5  1  0
  4 22  1  0
  5 10  1  0
  6 18  1  0
  6 20  2  0
  6 37  1  0
  7 11  1  0
  9 16  1  0
  9 36  2  0
 10 38  1  0
 10 43  1  0
 11 17  1  0
 11 26  2  0
 11 40  1  0
 12 13  1  0
 12 37  2  0
 13 25  1  0
 14 21  2  0
 15 27  1  0
 15 35  1  0
 16 32  2  3
 16 41  1  0
 17 43  1  0
 18 27  2  0
 18 42  1  0
 19 24  1  0
 19 39  1  0
 21 28  1  0
 21 30  1  0
 22 38  1  0
 23 25  2  0
 24 36  1  0
 25 30  1  0
 27 33  1  0
 28 32  1  0
 29 37  1  0
 29 42  1  0
 31 32  1  0
 31 34  1  0
 34 38  1  0
 39 41  1  0
M  END
>  <ID>  (1) 
conformer_0

$$$$
