
     RDKit          3D

 29 32  0  0  0  0  0  0  0  0999 V2000
   13.3635   19.0592   12.2296 C   0  0  0  0  0  0  0  0  0  0  0  0
   10.5692   15.3933   14.5849 C   0  0  0  0  0  0  0  0  0  0  0  0
   10.2039   13.8928   12.0454 C   0  0  0  0  0  0  0  0  0  0  0  0
    6.5014   11.7689   15.9776 N   0  0  0  0  0  0  0  0  0  0  0  0
   10.4595   17.2177   16.8027 C   0  0  0  0  0  0  0  0  0  0  0  0
   11.4870   17.3284   15.8505 C   0  0  0  0  0  0  0  0  0  0  0  0
   12.7045   19.0887   17.0461 O   0  0  0  0  0  0  0  0  0  0  0  0
    7.4128   11.0001   13.9860 N   0  0  0  0  0  0  0  0  0  0  0  0
    8.5365   14.1293   15.8474 C   0  0  0  0  0  0  0  0  0  0  0  0
   12.3039   14.9111   11.2427 F   0  0  0  0  0  0  0  0  0  0  0  0
   13.8277   17.6116   12.5932 C   0  0  0  0  0  0  0  0  0  0  0  0
   10.1185   12.4478   12.0352 N   0  0  0  0  0  0  0  0  0  0  0  0
   10.7427   14.6828   13.1973 C   0  0  0  0  0  0  0  0  0  0  0  0
    8.2897   10.9784   12.9916 C   0  0  0  0  0  0  0  0  0  0  0  0
    9.4927   16.2509   16.6647 C   0  0  0  0  0  0  0  0  0  0  0  0
   12.9747   14.0554   13.1539 F   0  0  0  0  0  0  0  0  0  0  0  0
    9.2425   11.9817   12.9874 C   0  0  0  0  0  0  0  0  0  0  0  0
   12.4409   18.4769   15.9558 C   0  0  0  0  0  0  0  0  0  0  0  0
   12.8684   16.3870   12.7184 C   0  0  0  0  0  0  0  0  0  0  0  0
   13.0570   19.7968   13.5342 C   0  0  0  0  0  0  0  0  0  0  0  0
   12.9461   21.0891   13.3643 O   0  0  0  0  0  0  0  0  0  0  0  0
    8.3472   12.9448   15.0371 C   0  0  0  0  0  0  0  0  0  0  0  0
   12.1781   15.0329   12.6393 C   0  0  0  0  0  0  0  0  0  0  0  0
   12.9916   19.0059   14.7282 N   0  0  0  0  0  0  0  0  0  0  0  0
    9.1638   12.8456   13.9674 N   0  0  0  0  0  0  0  0  0  0  0  0
   11.4956   16.3626   14.8510 C   0  0  0  0  0  0  0  0  0  0  0  0
    7.3789   11.8530   14.9939 C   0  0  0  0  0  0  0  0  0  0  0  0
    8.3786   16.3398   17.6014 C   0  0  0  0  0  0  0  0  0  0  0  0
    9.5237   15.2293   15.6738 C   0  0  0  0  0  0  0  0  0  0  0  0
  1 11  1  0
  1 20  1  0
  2 13  1  0
  2 26  2  0
  2 29  1  0
  3 12  1  0
  3 13  1  0
  4 27  2  0
  5  6  1  0
  5 15  2  0
  6 18  1  0
  6 26  1  0
  7 18  2  0
  8 14  2  0
  8 27  1  0
  9 22  2  0
  9 29  1  0
 10 23  1  0
 11 19  1  0
 12 17  1  0
 13 23  1  0
 14 17  1  0
 15 28  1  0
 15 29  1  0
 16 23  1  0
 17 25  2  0
 18 24  1  0
 19 23  1  0
 20 21  2  0
 20 24  1  0
 22 25  1  0
 22 27  1  0
M  END
>  <ID>  (1) 
conformer_0

$$$$
