
     RDKit          3D

 46 51  0  0  0  0  0  0  0  0999 V2000
   13.2094   16.8443   14.0324 C   0  0  0  0  0  0  0  0  0  0  0  0
    8.1768   12.1637   14.5017 C   0  0  0  0  0  0  0  0  0  0  0  0
    9.3564   18.5641   13.5556 O   0  0  0  0  0  0  0  0  0  0  0  0
   10.2694   12.4515   12.9146 C   0  0  0  0  0  0  0  0  0  0  0  0
    7.4320   10.3210   13.3580 N   0  0  0  0  0  0  0  0  0  0  0  0
   12.6360   16.6613   12.6119 C   0  0  0  0  0  0  0  0  0  0  0  0
    6.2868   11.2237   15.3353 N   0  0  0  0  0  0  0  0  0  0  0  0
    7.2345   11.1442   14.3783 C   0  0  0  0  0  0  0  0  0  0  0  0
    7.6611   12.9847   15.6945 C   0  0  0  0  0  0  0  0  0  0  0  0
    6.7501   16.8481   18.5633 C   0  0  0  0  0  0  0  0  0  0  0  0
    6.1409   18.3629   20.2925 N   0  0  0  0  0  0  0  0  0  0  0  0
    7.6922   16.2447   17.8036 C   0  0  0  0  0  0  0  0  0  0  0  0
    9.3949   17.5788   18.7939 N   0  0  0  0  0  0  0  0  0  0  0  0
   12.2222   17.9550   11.9247 C   0  0  0  0  0  0  0  0  0  0  0  0
    8.2876   14.2540   16.2005 C   0  0  0  0  0  0  0  0  0  0  0  0
    8.4636   18.1241   19.6007 N   0  0  0  0  0  0  0  0  0  0  0  0
   11.4170   15.7338   12.7156 C   0  0  0  0  0  0  0  0  0  0  0  0
   10.4751   13.6760   17.2629 O   0  0  0  0  0  0  0  0  0  0  0  0
   11.0862   13.3998   13.6479 C   0  0  0  0  0  0  0  0  0  0  0  0
   12.4802   17.4659   15.2037 C   0  0  0  0  0  0  0  0  0  0  0  0
   10.3301   16.9984   16.0048 C   0  0  0  0  0  0  0  0  0  0  0  0
   11.0167   17.5834   14.8853 C   0  0  0  0  0  0  0  0  0  0  0  0
   13.7264   16.0755   11.7841 O   0  0  0  0  0  0  0  0  0  0  0  0
    8.5425   10.7182   12.7280 C   0  0  0  0  0  0  0  0  0  0  0  0
    7.4784   15.1793   16.8980 N   0  0  0  0  0  0  0  0  0  0  0  0
   13.8830   20.9566   15.8903 N   0  0  0  0  0  0  0  0  0  0  0  0
    9.8727   15.9917   16.9769 O   0  0  0  0  0  0  0  0  0  0  0  0
   12.8063   18.4992   10.8501 O   0  0  0  0  0  0  0  0  0  0  0  0
   14.5452   18.5905   15.7934 C   0  0  0  0  0  0  0  0  0  0  0  0
    7.0927   17.7972   19.5010 C   0  0  0  0  0  0  0  0  0  0  0  0
   14.2594   16.0054   14.4346 O   0  0  0  0  0  0  0  0  0  0  0  0
   13.2977   17.7939   16.3799 C   0  0  0  0  0  0  0  0  0  0  0  0
   14.5546   19.8832   16.4576 C   0  0  0  0  0  0  0  0  0  0  0  0
   15.2782   19.9073   17.4913 O   0  0  0  0  0  0  0  0  0  0  0  0
   15.5007   22.6776   16.6258 C   0  0  0  0  0  0  0  0  0  0  0  0
   13.8848   23.0141   14.8579 O   0  0  0  0  0  0  0  0  0  0  0  0
   14.3886   22.2777   15.7959 C   0  0  0  0  0  0  0  0  0  0  0  0
   11.9682   14.2369   12.7602 C   0  0  0  0  0  0  0  0  0  0  0  0
    9.0774   11.8496   13.3991 N   0  0  0  0  0  0  0  0  0  0  0  0
   11.2674   14.7996   11.6563 C   0  0  0  0  0  0  0  0  0  0  0  0
    9.0175   16.6488   17.9192 C   0  0  0  0  0  0  0  0  0  0  0  0
    9.8138   14.5493   16.3001 C   0  0  0  0  0  0  0  0  0  0  0  0
   10.5115   14.0988   14.8622 O   0  0  0  0  0  0  0  0  0  0  0  0
   10.6145   18.3250   13.7230 C   0  0  0  0  0  0  0  0  0  0  0  0
   11.4907   18.9362   12.7408 N   0  0  0  0  0  0  0  0  0  0  0  0
    6.5819   12.3539   16.1432 C   0  0  0  0  0  0  0  0  0  0  0  0
  1  6  1  0
  1 20  1  0
  1 31  1  0
  2  8  2  0
  2  9  1  0
  2 39  1  0
  3 44  2  0
  4 19  1  0
  4 39  1  0
  5  8  1  0
  5 24  1  0
  6 14  1  0
  6 17  1  0
  6 23  1  0
  7  8  1  0
  7 46  1  0
  9 15  1  0
  9 46  1  0
 10 12  2  0
 10 30  1  0
 11 30  2  0
 12 25  1  0
 12 41  1  0
 13 16  1  0
 13 41  2  0
 14 28  2  0
 14 45  1  0
 15 25  1  0
 15 42  1  0
 16 30  1  0
 17 40  1  0
 18 42  1  0
 19 38  1  0
 19 43  1  0
 20 22  1  0
 20 32  1  0
 21 22  1  0
 21 27  1  0
 22 44  1  0
 24 39  1  0
 26 33  1  0
 26 37  1  0
 27 41  1  0
 29 32  1  0
 29 33  1  0
 33 34  2  0
 35 37  1  0
 36 37  2  0
 38 40  1  0
 42 43  1  0
 44 45  1  0
M  END
>  <ID>  (1) 
conformer_0

$$$$
