
     RDKit          3D

 28 33  0  0  0  0  0  0  0  0999 V2000
    8.0483   14.0688   16.1836 C   0  0  0  0  0  0  0  0  0  0  0  0
    9.7785   15.9675   15.8803 C   0  0  0  0  0  0  0  0  0  0  0  0
   13.6851   20.9217   13.7541 C   0  0  0  0  0  0  0  0  0  0  0  0
    7.4770   14.8008   17.2417 C   0  0  0  0  0  0  0  0  0  0  0  0
   10.7178   15.7429   13.6164 C   0  0  0  0  0  0  0  0  0  0  0  0
    9.5419   13.9315   14.3814 N   0  0  0  0  0  0  0  0  0  0  0  0
    7.5594   12.7934   15.7837 C   0  0  0  0  0  0  0  0  0  0  0  0
   11.4510   17.7110   15.2103 C   0  0  0  0  0  0  0  0  0  0  0  0
    8.1951   16.9589   18.4411 C   0  0  0  0  0  0  0  0  0  0  0  0
    7.6142   15.8609   17.9234 C   0  0  0  0  0  0  0  0  0  0  0  0
    9.2884   17.6102   18.0500 N   0  0  0  0  0  0  0  0  0  0  0  0
    9.3624   12.1125   12.6743 C   0  0  0  0  0  0  0  0  0  0  0  0
   10.6702   16.4336   14.8702 C   0  0  0  0  0  0  0  0  0  0  0  0
    7.9700   12.1014   14.6074 C   0  0  0  0  0  0  0  0  0  0  0  0
   11.0605   17.9939   16.5248 N   0  0  0  0  0  0  0  0  0  0  0  0
    8.7428   10.9534   12.1962 C   0  0  0  0  0  0  0  0  0  0  0  0
   12.3721   18.7827   14.4047 N   0  0  0  0  0  0  0  0  0  0  0  0
    7.8007   10.3532   12.9834 C   0  0  0  0  0  0  0  0  0  0  0  0
    7.4166   10.9191   14.1406 N   0  0  0  0  0  0  0  0  0  0  0  0
   10.7597   16.5891   12.0654 Cl  0  0  0  0  0  0  0  0  0  0  0  0
   13.1790   22.1623   13.9439 O   0  0  0  0  0  0  0  0  0  0  0  0
   13.3809   19.8731   14.8426 C   0  0  0  0  0  0  0  0  0  0  0  0
    9.1362   14.6654   15.4887 C   0  0  0  0  0  0  0  0  0  0  0  0
   10.5177   14.4291   13.5256 N   0  0  0  0  0  0  0  0  0  0  0  0
    9.9745   17.1457   16.9042 C   0  0  0  0  0  0  0  0  0  0  0  0
   12.5897   18.9318   12.8877 C   0  0  0  0  0  0  0  0  0  0  0  0
   13.1655   20.3092   12.4517 C   0  0  0  0  0  0  0  0  0  0  0  0
    8.9816   12.7147   13.8788 C   0  0  0  0  0  0  0  0  0  0  0  0
  1  4  1  0
  1  7  1  0
  1 23  2  0
  2 13  1  0
  2 23  1  0
  2 25  1  0
  3 21  1  0
  3 22  1  0
  3 27  1  0
  4 10  2  0
  5 13  1  0
  5 20  1  0
  5 24  1  0
  6 23  1  0
  6 24  1  0
  6 28  1  0
  7 14  1  0
  8 13  2  0
  8 15  1  0
  8 17  1  0
  9 10  2  0
  9 11  1  0
 11 25  2  0
 12 16  1  0
 12 28  2  0
 14 19  2  0
 14 28  1  0
 15 25  1  0
 16 18  2  0
 17 22  1  0
 17 26  1  0
 18 19  1  0
 26 27  1  0
M  END
>  <ID>  (1) 
conformer_0

$$$$
