
     RDKit          3D

 12 11  0  0  0  0  0  0  0  0999 V2000
   -2.7128   74.2166    4.5828 O   0  0  0  0  0  0  0  0  0  0  0  0
   -3.2159   75.5535    4.6402 C   0  0  0  0  0  0  0  0  0  0  0  0
   -5.4017   76.7966    4.9334 O   0  0  0  0  0  0  0  0  0  0  0  0
   -5.3158   74.2408    4.0925 C   0  0  0  0  0  0  0  0  0  0  0  0
   -5.1455   73.5018    5.2149 O   0  0  0  0  0  0  0  0  0  0  0  0
   -1.9014   76.2847    6.8133 C   0  0  0  0  0  0  0  0  0  0  0  0
   -6.6524   74.3333    3.6540 N   0  0  0  0  0  0  0  0  0  0  0  0
   -2.2068   77.5798    7.7474 C   0  0  0  0  0  0  0  0  0  0  0  0
   -3.1669   76.2140    6.0316 C   0  0  0  0  0  0  0  0  0  0  0  0
   -4.6757   76.2371    2.8148 O   0  0  0  0  0  0  0  0  0  0  0  0
   -3.7739   77.3556    8.0614 C   0  0  0  0  0  0  0  0  0  0  0  0
   -4.7575   75.7505    4.1631 C   0  0  0  0  0  0  0  0  0  0  0  0
  1  2  1  0
  2  9  1  0
  2 12  1  0
  3 12  1  0
  4  5  1  0
  4  7  1  0
  4 12  1  0
  6  8  1  0
  6  9  1  0
  8 11  1  0
 10 12  1  0
M  END
>  <ID>  (1) 
conformer_0

$$$$
