
     RDKit          3D

  5  4  0  0  0  0  0  0  0  0999 V2000
   -4.2308   76.4544    5.8313 C   0  0  0  0  0  0  0  0  0  0  0  0
   -5.1270   76.2931    4.6810 O   0  0  0  0  0  0  0  0  0  0  0  0
   -4.8041   74.9282    3.9946 C   0  0  0  0  0  0  0  0  0  0  0  0
   -4.3983   74.0177    5.0775 C   0  0  0  0  0  0  0  0  0  0  0  0
   -4.7756   76.1605    7.0477 N   0  0  0  0  0  0  0  0  0  0  0  0
  1  2  1  0
  1  5  1  0
  2  3  1  0
  3  4  1  0
M  END
>  <ID>  (1) 
conformer_0

$$$$
