
     RDKit          3D

 28 30  0  0  0  0  0  0  0  0999 V2000
    0.7996   75.3080    6.3659 O   0  0  0  0  0  0  0  0  0  0  0  0
   -4.2514   78.5355    7.1702 N   0  0  0  0  0  0  0  0  0  0  0  0
   -4.9414   76.2554    2.8075 O   0  0  0  0  0  0  0  0  0  0  0  0
   -2.6372   75.8719    5.3749 O   0  0  0  0  0  0  0  0  0  0  0  0
   -0.5077   78.6951    7.1162 C   0  0  0  0  0  0  0  0  0  0  0  0
    1.2349   77.0867    8.0623 C   0  0  0  0  0  0  0  0  0  0  0  0
   -1.0316   75.9931    7.5610 C   0  0  0  0  0  0  0  0  0  0  0  0
   -4.3872   73.8529    4.6910 C   0  0  0  0  0  0  0  0  0  0  0  0
   -5.6866   73.8513    4.2999 O   0  0  0  0  0  0  0  0  0  0  0  0
   -2.5990   79.5507    6.1251 C   0  0  0  0  0  0  0  0  0  0  0  0
    0.4821   75.8945    7.5529 C   0  0  0  0  0  0  0  0  0  0  0  0
   -2.9554   81.8921    5.7412 C   0  0  0  0  0  0  0  0  0  0  0  0
   -5.4361   76.9805    4.8808 O   0  0  0  0  0  0  0  0  0  0  0  0
   -0.8688   82.6969    5.8155 O   0  0  0  0  0  0  0  0  0  0  0  0
   -1.9945   80.7999    5.9057 C   0  0  0  0  0  0  0  0  0  0  0  0
   -3.0706   77.9327    7.7299 C   0  0  0  0  0  0  0  0  0  0  0  0
   -1.5797   76.6213    6.2444 C   0  0  0  0  0  0  0  0  0  0  0  0
   -1.9934   78.2430    6.7276 C   0  0  0  0  0  0  0  0  0  0  0  0
   -2.1394   82.9768    5.0932 C   0  0  0  0  0  0  0  0  0  0  0  0
   -5.6487   78.1589    7.6280 C   0  0  0  0  0  0  0  0  0  0  0  0
   -0.7526   81.2735    5.3807 C   0  0  0  0  0  0  0  0  0  0  0  0
   -3.6932   72.9168    5.5277 C   0  0  0  0  0  0  0  0  0  0  0  0
   -5.3226   77.2156    8.9220 C   0  0  0  0  0  0  0  0  0  0  0  0
    0.2890   78.2433    8.2893 C   0  0  0  0  0  0  0  0  0  0  0  0
    2.4358   77.2891    7.5643 O   0  0  0  0  0  0  0  0  0  0  0  0
   -3.9258   79.5955    6.4453 N   0  0  0  0  0  0  0  0  0  0  0  0
   -4.7894   76.2584    4.0766 C   0  0  0  0  0  0  0  0  0  0  0  0
   -3.7446   75.2500    4.5353 C   0  0  0  0  0  0  0  0  0  0  0  0
  1 11  1  0
  2 16  1  0
  2 20  1  0
  2 26  1  0
  3 27  2  0
  4 17  1  0
  4 28  1  0
  5 18  1  0
  5 24  1  0
  6 11  1  0
  6 24  1  0
  6 25  1  0
  7 11  1  0
  7 17  1  0
  8  9  1  0
  8 22  1  0
  8 28  1  0
 10 15  1  0
 10 18  1  0
 10 26  1  0
 12 15  1  0
 12 19  1  0
 13 27  1  0
 14 19  1  0
 14 21  1  0
 15 21  1  0
 16 18  1  0
 17 18  1  0
 20 23  1  0
 27 28  1  0
M  END
>  <ID>  (1) 
conformer_0

$$$$
