
     RDKit          3D

  9  9  0  0  0  0  0  0  0  0999 V2000
   -4.2108   77.0735    7.4048 C   0  0  0  0  0  0  0  0  0  0  0  0
   -3.1112   78.1581    7.4713 N   0  0  0  0  0  0  0  0  0  0  0  0
   -5.1005   75.9630    2.8216 O   0  0  0  0  0  0  0  0  0  0  0  0
   -4.2878   74.5259    4.5245 C   0  0  0  0  0  0  0  0  0  0  0  0
   -4.9574   76.7352    5.1063 O   0  0  0  0  0  0  0  0  0  0  0  0
   -4.1373   76.2673    6.1917 C   0  0  0  0  0  0  0  0  0  0  0  0
   -3.8873   74.8708    6.0018 C   0  0  0  0  0  0  0  0  0  0  0  0
   -5.1910   73.5157    4.1532 O   0  0  0  0  0  0  0  0  0  0  0  0
   -4.8475   75.8665    4.0708 C   0  0  0  0  0  0  0  0  0  0  0  0
  1  2  1  0
  1  6  1  0
  3  9  2  0
  4  7  1  0
  4  8  1  0
  4  9  1  0
  5  6  1  0
  5  9  1  0
  6  7  1  0
M  END
>  <ID>  (1) 
conformer_0

$$$$
