
     RDKit          3D

 20 21  0  0  0  0  0  0  0  0999 V2000
   -0.8853   77.4758    6.4981 C   0  0  0  0  0  0  0  0  0  0  0  0
   -3.8551   74.0504    5.2165 C   0  0  0  0  0  0  0  0  0  0  0  0
   -1.8098   78.4361    6.4610 N   0  0  0  0  0  0  0  0  0  0  0  0
    0.9762   75.4274    6.7961 C   0  0  0  0  0  0  0  0  0  0  0  0
   -6.5602   75.0461    3.6580 O   0  0  0  0  0  0  0  0  0  0  0  0
   -0.3464   75.1338    6.8176 C   0  0  0  0  0  0  0  0  0  0  0  0
   -5.4911   75.7576    3.4802 C   0  0  0  0  0  0  0  0  0  0  0  0
    0.4749   77.7399    6.4389 C   0  0  0  0  0  0  0  0  0  0  0  0
   -3.5921   79.7738    6.9853 O   0  0  0  0  0  0  0  0  0  0  0  0
   -4.1055   77.5121    6.7802 N   0  0  0  0  0  0  0  0  0  0  0  0
   -1.2960   76.1428    6.5886 C   0  0  0  0  0  0  0  0  0  0  0  0
   -4.6150   72.9001    4.7064 O   0  0  0  0  0  0  0  0  0  0  0  0
   -2.5740   75.8313    6.4259 C   0  0  0  0  0  0  0  0  0  0  0  0
   -3.8341   76.2188    6.3284 C   0  0  0  0  0  0  0  0  0  0  0  0
   -5.3847   77.5870    7.4392 O   0  0  0  0  0  0  0  0  0  0  0  0
   -5.3103   77.0202    3.3221 O   0  0  0  0  0  0  0  0  0  0  0  0
   -3.1049   78.5550    6.7534 C   0  0  0  0  0  0  0  0  0  0  0  0
   -4.2627   75.1336    4.2173 C   0  0  0  0  0  0  0  0  0  0  0  0
    1.3980   76.7162    6.5901 C   0  0  0  0  0  0  0  0  0  0  0  0
   -4.7833   75.2002    5.7013 C   0  0  0  0  0  0  0  0  0  0  0  0
  1  3  1  0
  1  8  2  0
  1 11  1  0
  2 12  1  0
  2 18  1  0
  2 20  1  0
  3 17  1  0
  4  6  2  0
  4 19  1  0
  5  7  2  0
  6 11  1  0
  7 16  1  0
  7 18  1  0
  8 19  1  0
  9 17  2  0
 10 14  1  0
 10 15  1  0
 10 17  1  0
 11 13  2  0
 13 14  1  0
 14 20  1  0
M  END
>  <ID>  (1) 
conformer_0

$$$$
