
     RDKit          3D

 11 11  0  0  0  0  0  0  0  0999 V2000
   -4.5270   76.7162    4.3702 C   0  0  0  0  0  0  0  0  0  0  0  0
   -2.9760   78.2031    7.5529 C   0  0  0  0  0  0  0  0  0  0  0  0
   -4.0040   77.8139    5.3682 C   0  0  0  0  0  0  0  0  0  0  0  0
   -4.1932   75.7323    6.5018 O   0  0  0  0  0  0  0  0  0  0  0  0
   -4.9580   76.3721    3.0313 O   0  0  0  0  0  0  0  0  0  0  0  0
   -5.9540   74.2197    4.0332 O   0  0  0  0  0  0  0  0  0  0  0  0
   -4.6516   74.0911    4.5869 C   0  0  0  0  0  0  0  0  0  0  0  0
   -4.0889   75.4132    5.0656 C   0  0  0  0  0  0  0  0  0  0  0  0
   -4.0942   73.2668    5.7529 C   0  0  0  0  0  0  0  0  0  0  0  0
   -3.5370   77.0365    6.6967 C   0  0  0  0  0  0  0  0  0  0  0  0
   -5.1363   78.5733    5.8615 O   0  0  0  0  0  0  0  0  0  0  0  0
  1  3  1  0
  1  5  1  0
  1  8  1  0
  2 10  1  0
  3 10  1  0
  3 11  1  0
  4  8  1  0
  4 10  1  0
  6  7  1  0
  7  8  1  0
  7  9  1  0
M  END
>  <ID>  (1) 
conformer_0

$$$$
