
     RDKit          3D

 35 39  0  0  0  0  0  0  0  0999 V2000
   -0.0067   82.6317    5.6737 O   0  0  0  0  0  0  0  0  0  0  0  0
   -1.4726   75.6443    5.7386 C   0  0  0  0  0  0  0  0  0  0  0  0
   -5.3827   78.2644    6.6888 C   0  0  0  0  0  0  0  0  0  0  0  0
    2.9846   76.8445    7.3448 O   0  0  0  0  0  0  0  0  0  0  0  0
   -4.5792   79.0669    7.5810 C   0  0  0  0  0  0  0  0  0  0  0  0
   -3.3231   79.3860    7.0638 N   0  0  0  0  0  0  0  0  0  0  0  0
   -3.9251   74.1519    4.9786 C   0  0  0  0  0  0  0  0  0  0  0  0
   -5.5443   75.8905    5.7583 C   0  0  0  0  0  0  0  0  0  0  0  0
    1.1043   79.3424    7.5986 O   0  0  0  0  0  0  0  0  0  0  0  0
   -6.1282   74.2987    3.5846 O   0  0  0  0  0  0  0  0  0  0  0  0
   -0.2134   77.8788    6.2600 C   0  0  0  0  0  0  0  0  0  0  0  0
   -4.7739   74.7025    3.7651 C   0  0  0  0  0  0  0  0  0  0  0  0
   -4.8734   77.5146    9.2590 C   0  0  0  0  0  0  0  0  0  0  0  0
   -4.7176   77.2650   10.6115 C   0  0  0  0  0  0  0  0  0  0  0  0
   -3.3892   81.2710    5.8397 C   0  0  0  0  0  0  0  0  0  0  0  0
   -2.5470   83.3255    5.3824 O   0  0  0  0  0  0  0  0  0  0  0  0
   -3.2271   79.9050    5.9285 C   0  0  0  0  0  0  0  0  0  0  0  0
    1.1195   76.1134    8.2640 O   0  0  0  0  0  0  0  0  0  0  0  0
   -2.2577   82.0488    5.4167 C   0  0  0  0  0  0  0  0  0  0  0  0
   -5.0391   76.5441    8.1721 C   0  0  0  0  0  0  0  0  0  0  0  0
   -4.7924   76.2028    4.3994 C   0  0  0  0  0  0  0  0  0  0  0  0
   -4.6627   78.8625    8.9949 N   0  0  0  0  0  0  0  0  0  0  0  0
    1.7808   76.9409    7.5552 C   0  0  0  0  0  0  0  0  0  0  0  0
   -5.5884   77.0899    3.6411 O   0  0  0  0  0  0  0  0  0  0  0  0
   -4.8126   74.5521    6.2023 C   0  0  0  0  0  0  0  0  0  0  0  0
   -0.9543   79.0729    6.0618 C   0  0  0  0  0  0  0  0  0  0  0  0
   -0.7786   76.6122    6.3789 O   0  0  0  0  0  0  0  0  0  0  0  0
   -0.9034   81.5484    5.5340 C   0  0  0  0  0  0  0  0  0  0  0  0
    0.9986   80.4927    6.7031 C   0  0  0  0  0  0  0  0  0  0  0  0
    1.1020   78.1206    6.9011 C   0  0  0  0  0  0  0  0  0  0  0  0
   -0.1762   80.2677    5.7999 C   0  0  0  0  0  0  0  0  0  0  0  0
   -5.1684   76.8970    6.8232 N   0  0  0  0  0  0  0  0  0  0  0  0
   -5.7989   73.5411    6.2484 O   0  0  0  0  0  0  0  0  0  0  0  0
   -2.7068   75.0665    5.0137 C   0  0  0  0  0  0  0  0  0  0  0  0
   -2.3138   79.2889    6.3733 C   0  0  0  0  0  0  0  0  0  0  0  0
  1 28  1  0
  2 27  1  0
  2 34  1  0
  3  5  1  0
  3 32  1  0
  4 23  2  0
  5  6  2  0
  5 22  1  0
  6 35  1  0
  7 12  1  0
  7 25  1  0
  7 34  1  0
  8 21  1  0
  8 25  1  0
  8 32  1  0
  9 29  1  0
  9 30  1  0
 10 12  1  0
 11 26  1  0
 11 27  1  0
 11 30  1  0
 12 21  1  0
 13 14  1  0
 13 20  2  0
 13 22  1  0
 15 17  1  0
 15 19  1  0
 16 19  1  0
 17 35  1  0
 18 23  1  0
 19 28  1  0
 20 32  1  0
 21 24  1  0
 23 30  1  0
 25 33  1  0
 26 31  1  0
 26 35  1  0
 28 31  1  0
 29 31  1  0
M  END
>  <ID>  (1) 
conformer_0

$$$$
