
     RDKit          3D

 27 29  0  0  0  0  0  0  0  0999 V2000
   -2.5281   77.7851    8.1088 C   0  0  0  0  0  0  0  0  0  0  0  0
   -4.0430   74.1516    3.9684 C   0  0  0  0  0  0  0  0  0  0  0  0
   -5.2952   75.0229    4.3057 C   0  0  0  0  0  0  0  0  0  0  0  0
   -1.6529   78.8928    7.9516 C   0  0  0  0  0  0  0  0  0  0  0  0
   -2.1639   74.8712    5.4555 C   0  0  0  0  0  0  0  0  0  0  0  0
   -5.0875   76.6924    2.6353 O   0  0  0  0  0  0  0  0  0  0  0  0
   -4.6242   77.5860    4.7813 C   0  0  0  0  0  0  0  0  0  0  0  0
   -4.8031   78.1239    9.1698 C   0  0  0  0  0  0  0  0  0  0  0  0
    1.3060   79.4880    5.4981 C   0  0  0  0  0  0  0  0  0  0  0  0
   -3.1924   78.9190    7.5227 C   0  0  0  0  0  0  0  0  0  0  0  0
   -6.4953   74.5168    3.7486 O   0  0  0  0  0  0  0  0  0  0  0  0
   -5.6950   78.6236    6.8960 C   0  0  0  0  0  0  0  0  0  0  0  0
   -4.2403   73.2006    6.1314 N   0  0  0  0  0  0  0  0  0  0  0  0
    0.7494   80.2521    7.7632 C   0  0  0  0  0  0  0  0  0  0  0  0
    0.1597   79.7714    6.4094 C   0  0  0  0  0  0  0  0  0  0  0  0
   -3.1766   73.7687    5.2382 C   0  0  0  0  0  0  0  0  0  0  0  0
   -4.7538   76.4082    6.9792 C   0  0  0  0  0  0  0  0  0  0  0  0
   -4.6225   79.0869    7.9928 C   0  0  0  0  0  0  0  0  0  0  0  0
   -5.1857   77.5017    6.1298 C   0  0  0  0  0  0  0  0  0  0  0  0
   -4.8977   76.6901    8.5185 C   0  0  0  0  0  0  0  0  0  0  0  0
   -0.8896   75.0195    6.2166 C   0  0  0  0  0  0  0  0  0  0  0  0
    0.1438   77.2599    6.8256 C   0  0  0  0  0  0  0  0  0  0  0  0
   -2.0556   76.4384    7.9778 C   0  0  0  0  0  0  0  0  0  0  0  0
   -0.6781   78.5665    6.7409 C   0  0  0  0  0  0  0  0  0  0  0  0
   -5.2647   76.4920    3.9474 C   0  0  0  0  0  0  0  0  0  0  0  0
   -0.7858   76.1256    7.2511 C   0  0  0  0  0  0  0  0  0  0  0  0
   -5.0206   80.3475    8.2968 O   0  0  0  0  0  0  0  0  0  0  0  0
  1  4  1  0
  1 10  1  0
  1 23  1  0
  2  3  1  0
  2 16  1  0
  3 11  1  0
  3 25  1  0
  4 24  1  0
  5 16  1  0
  5 21  1  0
  6 25  1  0
  7 19  1  0
  7 25  1  0
  8 18  1  0
  8 20  1  0
  9 15  1  0
 10 18  1  0
 12 18  1  0
 12 19  1  0
 13 16  1  0
 14 15  1  0
 15 24  1  0
 17 19  1  0
 17 20  1  0
 18 27  1  0
 21 26  1  0
 22 24  1  0
 22 26  1  0
 23 26  1  0
M  END
>  <ID>  (1) 
conformer_0

$$$$
