
     RDKit          3D

 10  9  0  0  0  0  0  0  0  0999 V2000
   -6.1807   75.1767    3.4873 N   0  0  0  0  0  0  0  0  0  0  0  0
   -4.3194   78.5637    6.0724 O   0  0  0  0  0  0  0  0  0  0  0  0
   -3.5848   77.5388    8.0797 C   0  0  0  0  0  0  0  0  0  0  0  0
   -4.0375   73.7743    4.3476 C   0  0  0  0  0  0  0  0  0  0  0  0
   -5.3824   76.2885    3.9710 C   0  0  0  0  0  0  0  0  0  0  0  0
   -4.6414   73.4603    5.6557 C   0  0  0  0  0  0  0  0  0  0  0  0
   -4.3112   77.5576    6.8226 C   0  0  0  0  0  0  0  0  0  0  0  0
   -3.3913   75.1559    4.5123 C   0  0  0  0  0  0  0  0  0  0  0  0
   -4.6451   76.2669    6.3113 N   0  0  0  0  0  0  0  0  0  0  0  0
   -4.4276   76.0686    4.9804 N   0  0  0  0  0  0  0  0  0  0  0  0
  1  5  1  0
  2  7  2  0
  3  7  1  0
  4  6  1  0
  4  8  1  0
  5 10  1  0
  7  9  1  0
  8 10  1  0
  9 10  1  0
M  END
>  <ID>  (1) 
conformer_0

$$$$
