
     RDKit          3D

 13 13  0  0  0  0  0  0  0  0999 V2000
   -5.1718   73.6444    5.6462 O   0  0  0  0  0  0  0  0  0  0  0  0
   -1.7980   76.6314    7.2255 C   0  0  0  0  0  0  0  0  0  0  0  0
   -4.3975   78.3625    6.2058 C   0  0  0  0  0  0  0  0  0  0  0  0
   -2.5725   76.2478    5.9966 C   0  0  0  0  0  0  0  0  0  0  0  0
   -2.3374   78.0190    7.6792 C   0  0  0  0  0  0  0  0  0  0  0  0
   -4.2794   74.5872    5.0376 C   0  0  0  0  0  0  0  0  0  0  0  0
   -4.8139   77.1197    5.3726 C   0  0  0  0  0  0  0  0  0  0  0  0
   -3.8909   77.9150    7.6253 C   0  0  0  0  0  0  0  0  0  0  0  0
   -4.9194   74.8770    3.6720 C   0  0  0  0  0  0  0  0  0  0  0  0
   -4.0992   75.8515    5.9715 C   0  0  0  0  0  0  0  0  0  0  0  0
   -2.9128   73.8184    5.0257 C   0  0  0  0  0  0  0  0  0  0  0  0
   -6.2052   75.5989    3.6838 N   0  0  0  0  0  0  0  0  0  0  0  0
   -4.2735   77.3642    4.0355 O   0  0  0  0  0  0  0  0  0  0  0  0
  1  6  1  0
  2  4  1  0
  2  5  1  0
  3  7  1  0
  3  8  1  0
  4 10  1  0
  5  8  1  0
  6  9  1  0
  6 10  1  0
  6 11  1  0
  7 10  1  0
  7 13  1  0
  9 12  1  0
M  END
>  <ID>  (1) 
conformer_0

$$$$
