
     RDKit          3D

  8  7  0  0  0  0  0  0  0  0999 V2000
   -3.3487   74.1481    4.6537 O   0  0  0  0  0  0  0  0  0  0  0  0
   -3.3445   76.7508    5.1469 C   0  0  0  0  0  0  0  0  0  0  0  0
   -4.4855   74.6605    4.3035 C   0  0  0  0  0  0  0  0  0  0  0  0
   -4.6389   76.2027    4.4299 C   0  0  0  0  0  0  0  0  0  0  0  0
   -3.8415   77.7687    6.2236 C   0  0  0  0  0  0  0  0  0  0  0  0
   -5.0814   77.1818    6.7950 O   0  0  0  0  0  0  0  0  0  0  0  0
   -5.5941   76.5827    3.4121 O   0  0  0  0  0  0  0  0  0  0  0  0
   -5.5954   74.0824    3.9616 O   0  0  0  0  0  0  0  0  0  0  0  0
  1  3  2  0
  2  4  1  0
  2  5  1  0
  3  4  1  0
  3  8  1  0
  4  7  1  0
  5  6  1  0
M  END
>  <ID>  (1) 
conformer_0

$$$$
