
     RDKit          3D

 18 19  0  0  0  0  0  0  0  0999 V2000
   -3.1175   76.9089    7.1139 C   0  0  0  0  0  0  0  0  0  0  0  0
   -3.9597   79.3926    6.8359 C   0  0  0  0  0  0  0  0  0  0  0  0
   -2.0620   77.9025    7.7923 C   0  0  0  0  0  0  0  0  0  0  0  0
   -3.3151   76.5312    5.6829 O   0  0  0  0  0  0  0  0  0  0  0  0
    0.1312   78.4198    7.0301 C   0  0  0  0  0  0  0  0  0  0  0  0
   -5.7063   74.5863    4.1207 N   0  0  0  0  0  0  0  0  0  0  0  0
   -4.5439   77.1678    7.7194 C   0  0  0  0  0  0  0  0  0  0  0  0
   -5.1595   76.7412    3.0978 O   0  0  0  0  0  0  0  0  0  0  0  0
   -5.1120   75.8342    4.0162 C   0  0  0  0  0  0  0  0  0  0  0  0
    0.5385   78.0199    5.7434 O   0  0  0  0  0  0  0  0  0  0  0  0
   -4.6105   78.6152    7.9525 O   0  0  0  0  0  0  0  0  0  0  0  0
   -0.9682   80.2417    5.9025 C   0  0  0  0  0  0  0  0  0  0  0  0
   -4.9393   73.6111    4.8482 C   0  0  0  0  0  0  0  0  0  0  0  0
   -3.7502   75.6915    4.6046 C   0  0  0  0  0  0  0  0  0  0  0  0
   -3.5750   74.2112    4.9181 C   0  0  0  0  0  0  0  0  0  0  0  0
   -2.6628   79.1243    5.8550 C   0  0  0  0  0  0  0  0  0  0  0  0
   -1.3723   78.9550    6.7766 C   0  0  0  0  0  0  0  0  0  0  0  0
    0.0985   80.8926    6.3926 O   0  0  0  0  0  0  0  0  0  0  0  0
  1  3  1  0
  1  4  1  0
  1  7  1  0
  2 11  1  0
  2 16  1  0
  3 17  1  0
  4 14  1  0
  5 10  1  0
  5 17  1  0
  6  9  1  0
  6 13  1  0
  7 11  1  0
  8  9  2  0
  9 14  1  0
 12 17  1  0
 12 18  1  0
 13 15  1  0
 14 15  1  0
 16 17  1  0
M  END
>  <ID>  (1) 
conformer_0

$$$$
