
     RDKit          3D

 18 18  0  0  0  0  0  0  0  0999 V2000
   -4.4456   73.5682    4.5314 C   0  0  0  0  0  0  0  0  0  0  0  0
   -4.8673   76.6528    2.7817 O   0  0  0  0  0  0  0  0  0  0  0  0
   -2.8992   76.0499    4.7616 C   0  0  0  0  0  0  0  0  0  0  0  0
   -0.6273   79.9484    6.3941 N   0  0  0  0  0  0  0  0  0  0  0  0
   -0.5743   75.7906    7.6114 O   0  0  0  0  0  0  0  0  0  0  0  0
   -3.0804   73.9533    5.2525 C   0  0  0  0  0  0  0  0  0  0  0  0
   -6.4264   75.2820    3.6260 O   0  0  0  0  0  0  0  0  0  0  0  0
   -5.3497   76.0206    3.7772 C   0  0  0  0  0  0  0  0  0  0  0  0
   -0.5058   78.6171    6.7079 C   0  0  0  0  0  0  0  0  0  0  0  0
   -3.0334   79.7154    6.2739 C   0  0  0  0  0  0  0  0  0  0  0  0
   -1.4108   76.2893    6.8095 C   0  0  0  0  0  0  0  0  0  0  0  0
   -5.6320   73.4830    5.3375 O   0  0  0  0  0  0  0  0  0  0  0  0
   -4.4356   76.1602    5.0452 C   0  0  0  0  0  0  0  0  0  0  0  0
   -2.8488   78.3671    6.6163 C   0  0  0  0  0  0  0  0  0  0  0  0
   -1.5969   77.7481    6.7268 C   0  0  0  0  0  0  0  0  0  0  0  0
   -4.7137   75.8778    6.4331 N   0  0  0  0  0  0  0  0  0  0  0  0
   -1.8744   80.5294    6.1613 C   0  0  0  0  0  0  0  0  0  0  0  0
   -2.1541   75.2394    5.8966 C   0  0  0  0  0  0  0  0  0  0  0  0
  1  6  1  0
  1 12  1  0
  2  8  2  0
  3 13  1  0
  3 18  1  0
  4  9  2  0
  4 17  1  0
  5 11  2  0
  6 18  1  0
  7  8  1  0
  8 13  1  0
  9 15  1  0
 10 14  1  0
 10 17  2  0
 11 15  1  0
 11 18  1  0
 13 16  1  0
 14 15  2  0
M  END
>  <ID>  (1) 
conformer_0

$$$$
