
     RDKit          3D

  7  6  0  0  0  0  0  0  0  0999 V2000
   -4.0832   77.1156    7.4801 C   0  0  0  0  0  0  0  0  0  0  0  0
   -4.9846   73.2863    4.9150 O   0  0  0  0  0  0  0  0  0  0  0  0
   -4.1971   77.8321    6.1264 C   0  0  0  0  0  0  0  0  0  0  0  0
   -4.5898   76.9125    5.0025 C   0  0  0  0  0  0  0  0  0  0  0  0
   -4.1848   75.4327    5.3891 C   0  0  0  0  0  0  0  0  0  0  0  0
   -4.8284   74.4896    4.3854 C   0  0  0  0  0  0  0  0  0  0  0  0
   -5.8399   75.0533    3.7419 O   0  0  0  0  0  0  0  0  0  0  0  0
  1  3  1  0
  2  6  1  0
  3  4  1  0
  4  5  1  0
  5  6  1  0
  6  7  1  0
M  END
>  <ID>  (1) 
conformer_0

$$$$
