
     RDKit          3D

  6  5  0  0  0  0  0  0  0  0999 V2000
   -4.1674   76.7572    6.6185 C   0  0  0  0  0  0  0  0  0  0  0  0
   -4.1222   75.1651    3.6844 O   0  0  0  0  0  0  0  0  0  0  0  0
   -4.9780   75.8681    3.8578 C   0  0  0  0  0  0  0  0  0  0  0  0
   -4.5705   77.5504    5.4507 C   0  0  0  0  0  0  0  0  0  0  0  0
   -5.2370   76.5167    7.5519 N   0  0  0  0  0  0  0  0  0  0  0  0
   -5.5062   76.7907    4.6005 O   0  0  0  0  0  0  0  0  0  0  0  0
  1  4  1  0
  1  5  1  0
  2  3  2  0
  3  6  1  0
  4  6  1  0
M  END
>  <ID>  (1) 
conformer_0

$$$$
