
     RDKit          3D

 10 11  0  0  0  0  0  0  0  0999 V2000
   -4.0727   74.5692    4.2814 C   0  0  0  0  0  0  0  0  0  0  0  0
   -3.3957   76.0678    6.3608 C   0  0  0  0  0  0  0  0  0  0  0  0
   -4.0100   78.4071    6.9234 C   0  0  0  0  0  0  0  0  0  0  0  0
   -3.0126   74.6728    5.5423 C   0  0  0  0  0  0  0  0  0  0  0  0
   -4.4707   78.0517    5.5802 C   0  0  0  0  0  0  0  0  0  0  0  0
   -3.5392   77.0820    7.5273 C   0  0  0  0  0  0  0  0  0  0  0  0
   -4.6107   76.5945    5.4975 N   0  0  0  0  0  0  0  0  0  0  0  0
   -5.0802   73.5885    4.6293 N   0  0  0  0  0  0  0  0  0  0  0  0
   -4.7106   75.9773    4.2579 C   0  0  0  0  0  0  0  0  0  0  0  0
   -5.3580   76.3591    3.2318 O   0  0  0  0  0  0  0  0  0  0  0  0
  1  4  1  0
  1  8  1  0
  1  9  1  0
  2  4  1  0
  2  6  1  0
  2  7  1  0
  3  5  1  0
  3  6  1  0
  5  7  1  0
  7  9  1  0
  9 10  2  0
M  END
>  <ID>  (1) 
conformer_0

$$$$
