
     RDKit          3D

 11 10  0  0  0  0  0  0  0  0999 V2000
   -4.4668   73.5320    5.1242 O   0  0  0  0  0  0  0  0  0  0  0  0
   -4.9957   74.2921    4.1722 C   0  0  0  0  0  0  0  0  0  0  0  0
   -4.9898   77.0404    6.0858 O   0  0  0  0  0  0  0  0  0  0  0  0
   -2.2830   77.6699    6.8794 C   0  0  0  0  0  0  0  0  0  0  0  0
   -3.9540   76.1377    5.6050 C   0  0  0  0  0  0  0  0  0  0  0  0
   -1.4415   76.0158    5.3854 O   0  0  0  0  0  0  0  0  0  0  0  0
   -2.1531   78.9355    6.7142 O   0  0  0  0  0  0  0  0  0  0  0  0
   -1.5716   76.9652    7.8404 N   0  0  0  0  0  0  0  0  0  0  0  0
   -2.5430   76.8398    5.6326 C   0  0  0  0  0  0  0  0  0  0  0  0
   -6.2252   74.4512    3.7321 O   0  0  0  0  0  0  0  0  0  0  0  0
   -4.3046   75.6397    4.1874 C   0  0  0  0  0  0  0  0  0  0  0  0
  1  2  2  0
  2 10  1  0
  2 11  1  0
  3  5  1  0
  4  7  2  0
  4  8  1  0
  4  9  1  0
  5  9  1  0
  5 11  1  0
  6  9  1  0
M  END
>  <ID>  (1) 
conformer_0

$$$$
