
     RDKit          3D

 21 24  0  0  0  0  0  0  0  0999 V2000
   -3.9528   75.6564    5.1511 C   0  0  0  0  0  0  0  0  0  0  0  0
    1.3604   79.0664    9.3012 C   0  0  0  0  0  0  0  0  0  0  0  0
   -4.1231   78.2225    7.7710 C   0  0  0  0  0  0  0  0  0  0  0  0
   -3.9930   74.2408    5.7226 C   0  0  0  0  0  0  0  0  0  0  0  0
   -6.8413   74.3630    3.5945 O   0  0  0  0  0  0  0  0  0  0  0  0
   -1.9868   76.8527    6.2237 C   0  0  0  0  0  0  0  0  0  0  0  0
   -4.8940   77.4319    8.9229 C   0  0  0  0  0  0  0  0  0  0  0  0
    0.5895   76.8856    6.3703 C   0  0  0  0  0  0  0  0  0  0  0  0
   -2.4379   76.0412    4.9368 C   0  0  0  0  0  0  0  0  0  0  0  0
   -4.8510   75.6555    3.8806 C   0  0  0  0  0  0  0  0  0  0  0  0
   -4.4516   76.6239    6.1968 N   0  0  0  0  0  0  0  0  0  0  0  0
    1.5967   77.4521    7.4055 C   0  0  0  0  0  0  0  0  0  0  0  0
    1.7735   76.3773    8.5116 C   0  0  0  0  0  0  0  0  0  0  0  0
   -3.2445   77.0416    7.1044 C   0  0  0  0  0  0  0  0  0  0  0  0
   -5.1482   73.6347    5.1174 N   0  0  0  0  0  0  0  0  0  0  0  0
   -0.6630   78.0124    8.0804 C   0  0  0  0  0  0  0  0  0  0  0  0
   -5.4624   74.2395    3.8630 C   0  0  0  0  0  0  0  0  0  0  0  0
   -0.7285   76.9041    7.0409 C   0  0  0  0  0  0  0  0  0  0  0  0
   -5.2073   77.9328    6.5185 C   0  0  0  0  0  0  0  0  0  0  0  0
   -5.6872   76.7982    3.7852 O   0  0  0  0  0  0  0  0  0  0  0  0
    0.7220   78.6035    8.0354 C   0  0  0  0  0  0  0  0  0  0  0  0
  1  4  1  0
  1  9  1  0
  1 10  1  0
  1 11  1  0
  2 21  1  0
  3  7  1  0
  3 14  1  0
  3 19  1  0
  4 15  1  0
  5 17  1  0
  6  9  1  0
  6 14  1  0
  6 18  1  0
  8 12  1  0
  8 18  1  0
 10 17  1  0
 10 20  1  0
 11 14  1  0
 11 19  1  0
 12 13  1  0
 12 21  1  0
 15 17  1  0
 16 18  1  0
 16 21  1  0
M  END
>  <ID>  (1) 
conformer_0

$$$$
