
     RDKit          3D

 20 22  0  0  0  0  0  0  0  0999 V2000
    1.2654   79.0937    8.5314 C   0  0  0  0  0  0  0  0  0  0  0  0
    0.6392   78.0579    9.1998 C   0  0  0  0  0  0  0  0  0  0  0  0
   -4.2911   77.9922    7.8955 C   0  0  0  0  0  0  0  0  0  0  0  0
   -6.7479   74.1677    3.8973 O   0  0  0  0  0  0  0  0  0  0  0  0
   -4.0651   75.9587    4.9106 C   0  0  0  0  0  0  0  0  0  0  0  0
   -2.0987   74.8474    5.6555 C   0  0  0  0  0  0  0  0  0  0  0  0
   -5.9972   76.6357    3.5579 O   0  0  0  0  0  0  0  0  0  0  0  0
   -2.7871   78.1655    7.7355 O   0  0  0  0  0  0  0  0  0  0  0  0
   -0.5959   77.5859    8.7632 C   0  0  0  0  0  0  0  0  0  0  0  0
   -0.5681   79.1814    6.9951 C   0  0  0  0  0  0  0  0  0  0  0  0
   -1.4686   76.2962    5.8218 C   0  0  0  0  0  0  0  0  0  0  0  0
   -2.4386   77.2357    6.6831 C   0  0  0  0  0  0  0  0  0  0  0  0
   -3.5233   74.6297    5.2930 N   0  0  0  0  0  0  0  0  0  0  0  0
   -4.5249   73.6516    4.8796 C   0  0  0  0  0  0  0  0  0  0  0  0
   -4.8427   77.6982    6.5094 C   0  0  0  0  0  0  0  0  0  0  0  0
   -3.7661   76.8664    6.0215 N   0  0  0  0  0  0  0  0  0  0  0  0
   -5.3460   74.2372    3.7727 C   0  0  0  0  0  0  0  0  0  0  0  0
   -1.2773   78.1782    7.6696 C   0  0  0  0  0  0  0  0  0  0  0  0
   -4.9736   75.7255    3.7440 C   0  0  0  0  0  0  0  0  0  0  0  0
    0.6563   79.6678    7.4274 C   0  0  0  0  0  0  0  0  0  0  0  0
  1  2  1  0
  1 20  2  0
  2  9  2  0
  3 15  1  0
  4 17  1  0
  5 13  1  0
  5 16  1  0
  5 19  1  0
  6 11  1  0
  6 13  1  0
  7 19  1  0
  8 12  1  0
  8 18  1  0
  9 18  1  0
 10 18  1  0
 10 20  1  0
 11 12  1  0
 12 16  1  0
 13 14  1  0
 14 17  1  0
 15 16  1  0
 17 19  1  0
M  END
>  <ID>  (1) 
conformer_0

$$$$
