
     RDKit          3D

 10  9  0  0  0  0  0  0  0  0999 V2000
   -5.2386   73.9172    5.3639 O   0  0  0  0  0  0  0  0  0  0  0  0
   -3.1900   76.6787    6.1949 C   0  0  0  0  0  0  0  0  0  0  0  0
   -5.4656   77.3261    5.4452 O   0  0  0  0  0  0  0  0  0  0  0  0
   -4.9293   76.4004    3.0434 O   0  0  0  0  0  0  0  0  0  0  0  0
   -4.2151   79.1650    7.1418 C   0  0  0  0  0  0  0  0  0  0  0  0
   -4.7230   74.1973    4.0862 C   0  0  0  0  0  0  0  0  0  0  0  0
   -3.8809   73.6074    5.2465 C   0  0  0  0  0  0  0  0  0  0  0  0
   -3.1445   77.8133    7.5263 S   0  0  0  0  0  0  0  0  0  0  0  0
   -4.5061   76.3021    5.4828 C   0  0  0  0  0  0  0  0  0  0  0  0
   -4.2961   75.7177    4.0985 C   0  0  0  0  0  0  0  0  0  0  0  0
  1  6  1  0
  1  7  1  0
  2  8  1  0
  2  9  1  0
  3  9  1  0
  4 10  1  0
  5  8  1  0
  6 10  1  0
  9 10  1  0
M  END
>  <ID>  (1) 
conformer_0

$$$$
