
     RDKit          3D

 13 12  0  0  0  0  0  0  0  0999 V2000
   -5.4185   75.7969    3.6676 C   0  0  0  0  0  0  0  0  0  0  0  0
   -4.1481   75.0815    4.1128 C   0  0  0  0  0  0  0  0  0  0  0  0
   -3.4877   79.5107    6.5575 O   0  0  0  0  0  0  0  0  0  0  0  0
   -5.7660   73.5970    5.0201 O   0  0  0  0  0  0  0  0  0  0  0  0
   -5.0431   77.0359    3.0327 O   0  0  0  0  0  0  0  0  0  0  0  0
   -3.4811   78.0899    6.7479 C   0  0  0  0  0  0  0  0  0  0  0  0
   -2.0290   77.5954    6.9260 C   0  0  0  0  0  0  0  0  0  0  0  0
   -4.1598   77.3770    5.4662 C   0  0  0  0  0  0  0  0  0  0  0  0
   -4.4062   73.6901    4.7416 C   0  0  0  0  0  0  0  0  0  0  0  0
   -3.2028   73.3848    5.6057 C   0  0  0  0  0  0  0  0  0  0  0  0
   -3.4476   76.0272    5.1631 C   0  0  0  0  0  0  0  0  0  0  0  0
   -5.6034   77.5624    5.5968 O   0  0  0  0  0  0  0  0  0  0  0  0
   -4.3369   77.7274    7.9949 C   0  0  0  0  0  0  0  0  0  0  0  0
  1  2  1  0
  1  5  1  0
  2  9  1  0
  2 11  1  0
  3  6  1  0
  4  9  1  0
  6  7  1  0
  6  8  1  0
  6 13  1  0
  8 11  1  0
  8 12  1  0
  9 10  1  0
M  END
>  <ID>  (1) 
conformer_0

$$$$
