
     RDKit          3D

  9  8  0  0  0  0  0  0  0  0999 V2000
   -3.5633   77.4201    6.6957 C   0  0  0  0  0  0  0  0  0  0  0  0
   -4.5229   76.4947    3.6604 O   0  0  0  0  0  0  0  0  0  0  0  0
   -3.1724   75.3359    5.5406 O   0  0  0  0  0  0  0  0  0  0  0  0
   -4.6846   74.1570    4.2460 C   0  0  0  0  0  0  0  0  0  0  0  0
   -4.0912   77.6269    8.1485 C   0  0  0  0  0  0  0  0  0  0  0  0
   -4.5901   79.0130    8.1247 O   0  0  0  0  0  0  0  0  0  0  0  0
   -4.3883   75.7253    4.8819 C   0  0  0  0  0  0  0  0  0  0  0  0
   -4.8612   76.9779    5.8718 C   0  0  0  0  0  0  0  0  0  0  0  0
   -4.8357   73.3178    5.3816 O   0  0  0  0  0  0  0  0  0  0  0  0
  1  5  1  0
  1  8  1  0
  2  7  1  0
  3  7  1  0
  4  7  1  0
  4  9  1  0
  5  6  1  0
  7  8  1  0
M  END
>  <ID>  (1) 
conformer_0

$$$$
