
     RDKit          3D

 12 11  0  0  0  0  0  0  0  0999 V2000
   -4.5763   74.0755    4.5057 C   0  0  0  0  0  0  0  0  0  0  0  0
   -5.2369   73.6241    5.6695 O   0  0  0  0  0  0  0  0  0  0  0  0
   -3.1760   74.5643    4.8900 C   0  0  0  0  0  0  0  0  0  0  0  0
   -2.9408   75.9037    5.6671 C   0  0  0  0  0  0  0  0  0  0  0  0
   -6.6480   74.7501    3.6474 O   0  0  0  0  0  0  0  0  0  0  0  0
   -1.3770   75.9111    6.7362 S   0  0  0  0  0  0  0  0  0  0  0  0
   -4.8788   76.0293    3.0485 O   0  0  0  0  0  0  0  0  0  0  0  0
   -3.3094   78.0968    6.8396 C   0  0  0  0  0  0  0  0  0  0  0  0
   -5.4115   75.1027    3.7208 C   0  0  0  0  0  0  0  0  0  0  0  0
   -4.0241   76.8227    6.2492 C   0  0  0  0  0  0  0  0  0  0  0  0
   -5.2890   77.1240    5.6529 N   0  0  0  0  0  0  0  0  0  0  0  0
   -3.2694   79.0978    5.8300 O   0  0  0  0  0  0  0  0  0  0  0  0
  1  2  1  0
  1  3  1  0
  1  9  1  0
  3  4  1  0
  4  6  1  0
  4 10  1  0
  5  9  2  0
  7  9  1  0
  8 10  1  0
  8 12  1  0
 10 11  1  0
M  END
>  <ID>  (1) 
conformer_0

$$$$
