
     RDKit          3D

  5  4  0  0  0  0  0  0  0  0999 V2000
   -4.6405   75.3700    4.3788 C   0  0  0  0  0  0  0  0  0  0  0  0
   -3.9594   75.9290    5.5420 C   0  0  0  0  0  0  0  0  0  0  0  0
   -4.9916   76.2017    3.4469 O   0  0  0  0  0  0  0  0  0  0  0  0
   -4.4155   75.2791    6.7259 O   0  0  0  0  0  0  0  0  0  0  0  0
   -5.0796   74.1625    4.4791 O   0  0  0  0  0  0  0  0  0  0  0  0
  1  2  1  0
  1  3  2  0
  1  5  1  0
  2  4  1  0
M  END
>  <ID>  (1) 
conformer_0

$$$$
