
     RDKit          3D

  8  7  0  0  0  0  0  0  0  0999 V2000
   -4.7366   77.0162    6.3552 C   0  0  0  0  0  0  0  0  0  0  0  0
   -5.5048   77.6416    5.6397 O   0  0  0  0  0  0  0  0  0  0  0  0
   -5.0510   74.8128    5.1660 N   0  0  0  0  0  0  0  0  0  0  0  0
   -4.9028   76.1767    3.1971 O   0  0  0  0  0  0  0  0  0  0  0  0
   -4.8190   74.8920    3.7405 C   0  0  0  0  0  0  0  0  0  0  0  0
   -4.9239   73.4705    5.5650 O   0  0  0  0  0  0  0  0  0  0  0  0
   -4.0855   75.7382    5.8952 C   0  0  0  0  0  0  0  0  0  0  0  0
   -4.4611   77.3418    7.7794 C   0  0  0  0  0  0  0  0  0  0  0  0
  1  2  2  0
  1  7  1  0
  1  8  1  0
  3  5  1  0
  3  6  1  0
  3  7  1  0
  4  5  1  0
M  END
>  <ID>  (1) 
conformer_0

$$$$
