
     RDKit          3D

 20 21  0  0  0  0  0  0  0  0999 V2000
   -1.7544   77.9537    7.8654 C   0  0  0  0  0  0  0  0  0  0  0  0
   -4.3692   77.5779    5.1476 S   0  0  0  0  0  0  0  0  0  0  0  0
   -2.7610   74.3340    5.6507 C   0  0  0  0  0  0  0  0  0  0  0  0
   -5.0030   75.0835    4.6842 C   0  0  0  0  0  0  0  0  0  0  0  0
   -4.5880   77.5424    8.9174 O   0  0  0  0  0  0  0  0  0  0  0  0
   -3.9093   73.9365    4.7177 C   0  0  0  0  0  0  0  0  0  0  0  0
   -3.7761   77.1023    6.5258 C   0  0  0  0  0  0  0  0  0  0  0  0
   -6.0977   74.5979    3.8776 N   0  0  0  0  0  0  0  0  0  0  0  0
   -4.5343   72.8274    5.3344 O   0  0  0  0  0  0  0  0  0  0  0  0
   -2.9873   79.4659    6.3144 C   0  0  0  0  0  0  0  0  0  0  0  0
   -3.0894   78.3061    7.2238 C   0  0  0  0  0  0  0  0  0  0  0  0
   -4.2444   80.2721    6.3596 C   0  0  0  0  0  0  0  0  0  0  0  0
   -5.0178   76.7469    2.9856 O   0  0  0  0  0  0  0  0  0  0  0  0
   -4.5577   76.4399    4.1796 C   0  0  0  0  0  0  0  0  0  0  0  0
   -4.2503   78.7691    8.1460 C   0  0  0  0  0  0  0  0  0  0  0  0
   -1.6937   76.5457    5.2085 C   0  0  0  0  0  0  0  0  0  0  0  0
   -2.9165   75.8390    6.1903 C   0  0  0  0  0  0  0  0  0  0  0  0
   -1.9507   79.8872    5.6277 O   0  0  0  0  0  0  0  0  0  0  0  0
   -5.1686   79.2645    7.0816 O   0  0  0  0  0  0  0  0  0  0  0  0
   -3.8351   81.6345    6.6117 O   0  0  0  0  0  0  0  0  0  0  0  0
  1 11  1  0
  2  7  1  0
  2 14  1  0
  3  6  1  0
  3 17  1  0
  4  6  1  0
  4  8  1  0
  4 14  1  0
  5 15  1  0
  6  9  1  0
  7 11  1  0
  7 17  1  0
 10 11  1  0
 10 12  1  0
 10 18  1  0
 11 15  1  0
 12 19  1  0
 12 20  1  0
 13 14  2  0
 15 19  1  0
 16 17  1  0
M  END
>  <ID>  (1) 
conformer_0

$$$$
