
     RDKit          3D

  6  5  0  0  0  0  0  0  0  0999 V2000
   -5.5244   77.2151    4.8171 O   0  0  0  0  0  0  0  0  0  0  0  0
   -3.9733   75.4896    6.3884 O   0  0  0  0  0  0  0  0  0  0  0  0
   -4.8003   73.8884    4.9342 N   0  0  0  0  0  0  0  0  0  0  0  0
   -4.4444   75.1539    5.2639 C   0  0  0  0  0  0  0  0  0  0  0  0
   -4.9784   76.1487    4.3512 C   0  0  0  0  0  0  0  0  0  0  0  0
   -4.8313   75.9242    3.0877 O   0  0  0  0  0  0  0  0  0  0  0  0
  1  5  2  0
  2  4  2  0
  3  4  1  0
  4  5  1  0
  5  6  1  0
M  END
>  <ID>  (1) 
conformer_0

$$$$
