
     RDKit          3D

 11 10  0  0  0  0  0  0  0  0999 V2000
   -3.4050   74.7419    5.8432 O   0  0  0  0  0  0  0  0  0  0  0  0
   -4.7440   77.6368    7.4639 C   0  0  0  0  0  0  0  0  0  0  0  0
   -4.7168   76.5474    3.2761 O   0  0  0  0  0  0  0  0  0  0  0  0
   -6.5354   74.8267    3.6336 O   0  0  0  0  0  0  0  0  0  0  0  0
   -3.9170   73.8738    4.7683 C   0  0  0  0  0  0  0  0  0  0  0  0
   -3.6078   76.1848    5.4610 C   0  0  0  0  0  0  0  0  0  0  0  0
   -6.1486   78.2971    7.4023 O   0  0  0  0  0  0  0  0  0  0  0  0
   -5.4024   77.8191    5.0257 O   0  0  0  0  0  0  0  0  0  0  0  0
   -3.4704   76.9547    6.8153 C   0  0  0  0  0  0  0  0  0  0  0  0
   -4.8699   76.6448    4.6436 C   0  0  0  0  0  0  0  0  0  0  0  0
   -5.2781   74.1221    4.0830 C   0  0  0  0  0  0  0  0  0  0  0  0
  1  5  1  0
  1  6  1  0
  2  7  1  0
  2  9  1  0
  3 10  1  0
  4 11  2  0
  5 11  2  0
  6  9  1  0
  6 10  1  0
  8 10  1  0
M  END
>  <ID>  (1) 
conformer_0

$$$$
