
     RDKit          3D

  9  8  0  0  0  0  0  0  0  0999 V2000
   -5.9259   75.0367    3.6350 O   0  0  0  0  0  0  0  0  0  0  0  0
   -3.9787   76.9884    5.5877 C   0  0  0  0  0  0  0  0  0  0  0  0
   -4.3118   73.5646    4.6685 C   0  0  0  0  0  0  0  0  0  0  0  0
   -4.6734   75.0284    4.3049 C   0  0  0  0  0  0  0  0  0  0  0  0
   -5.0327   76.8951    7.9124 C   0  0  0  0  0  0  0  0  0  0  0  0
   -4.2359   77.7455    6.8987 C   0  0  0  0  0  0  0  0  0  0  0  0
   -4.9876   73.2319    5.8861 O   0  0  0  0  0  0  0  0  0  0  0  0
   -4.7349   75.7253    5.6130 N   0  0  0  0  0  0  0  0  0  0  0  0
   -4.5315   77.7309    4.4765 N   0  0  0  0  0  0  0  0  0  0  0  0
  1  4  1  0
  2  6  1  0
  2  8  1  0
  2  9  1  0
  3  4  1  0
  3  7  1  0
  4  8  1  0
  5  6  1  0
M  END
>  <ID>  (1) 
conformer_0

$$$$
