
     RDKit          3D

  9  9  0  0  0  0  0  0  0  0999 V2000
   -5.3376   76.8088    3.4217 O   0  0  0  0  0  0  0  0  0  0  0  0
   -5.0234   76.8873    6.1591 N   0  0  0  0  0  0  0  0  0  0  0  0
   -3.2673   77.2474    7.7054 C   0  0  0  0  0  0  0  0  0  0  0  0
   -2.7135   76.5475    6.4482 C   0  0  0  0  0  0  0  0  0  0  0  0
   -4.7317   77.3898    7.4769 C   0  0  0  0  0  0  0  0  0  0  0  0
   -3.8287   74.8105    5.0935 O   0  0  0  0  0  0  0  0  0  0  0  0
   -4.8580   74.4886    4.1193 C   0  0  0  0  0  0  0  0  0  0  0  0
   -3.8594   76.2467    5.5303 C   0  0  0  0  0  0  0  0  0  0  0  0
   -5.7430   75.6240    4.0137 N   0  0  0  0  0  0  0  0  0  0  0  0
  1  9  1  0
  2  5  1  0
  2  8  1  0
  3  4  1  0
  3  5  1  0
  4  8  1  0
  6  7  1  0
  6  8  1  0
  7  9  1  0
M  END
>  <ID>  (1) 
conformer_0

$$$$
