
     RDKit          3D

  8  7  0  0  0  0  0  0  0  0999 V2000
   -4.6747   76.0029    4.3070 C   0  0  0  0  0  0  0  0  0  0  0  0
   -5.8894   76.2825    3.6402 O   0  0  0  0  0  0  0  0  0  0  0  0
   -4.0256   77.9708    5.7903 C   0  0  0  0  0  0  0  0  0  0  0  0
   -5.6669   73.7938    4.3382 O   0  0  0  0  0  0  0  0  0  0  0  0
   -4.6836   76.5605    5.7140 C   0  0  0  0  0  0  0  0  0  0  0  0
   -3.2774   78.0502    7.1280 C   0  0  0  0  0  0  0  0  0  0  0  0
   -4.1163   77.2976    8.1890 C   0  0  0  0  0  0  0  0  0  0  0  0
   -4.4250   74.4950    4.3355 C   0  0  0  0  0  0  0  0  0  0  0  0
  1  2  1  0
  1  5  1  0
  1  8  1  0
  3  5  1  0
  3  6  1  0
  4  8  1  0
  6  7  1  0
M  END
>  <ID>  (1) 
conformer_0

$$$$
