
     RDKit          3D

 31 34  0  0  0  0  0  0  0  0999 V2000
    0.5058   81.1224    6.1495 C   0  0  0  0  0  0  0  0  0  0  0  0
   -4.6956   76.3008    4.3170 C   0  0  0  0  0  0  0  0  0  0  0  0
   -4.4830   79.2568    6.9964 C   0  0  0  0  0  0  0  0  0  0  0  0
   -1.5745   79.9203    5.8320 C   0  0  0  0  0  0  0  0  0  0  0  0
    0.1576   74.8326    7.1609 N   0  0  0  0  0  0  0  0  0  0  0  0
   -4.4052   75.3361    5.4489 C   0  0  0  0  0  0  0  0  0  0  0  0
   -1.4384   82.2695    5.2100 C   0  0  0  0  0  0  0  0  0  0  0  0
   -3.0684   77.7082    5.5278 C   0  0  0  0  0  0  0  0  0  0  0  0
   -5.9023   76.9649    4.2322 O   0  0  0  0  0  0  0  0  0  0  0  0
   -5.5041   74.4135    3.5259 C   0  0  0  0  0  0  0  0  0  0  0  0
   -3.7559   77.1773    7.9397 C   0  0  0  0  0  0  0  0  0  0  0  0
   -2.8751   75.1830    5.1907 C   0  0  0  0  0  0  0  0  0  0  0  0
    1.1846   76.6929    6.0483 C   0  0  0  0  0  0  0  0  0  0  0  0
   -2.3558   78.7617    5.9503 N   0  0  0  0  0  0  0  0  0  0  0  0
   -5.6629   78.3130    8.8900 C   0  0  0  0  0  0  0  0  0  0  0  0
   -0.2194   79.9749    6.2535 C   0  0  0  0  0  0  0  0  0  0  0  0
   -2.2147   76.5126    5.4725 C   0  0  0  0  0  0  0  0  0  0  0  0
   -5.1234   74.0510    4.9688 C   0  0  0  0  0  0  0  0  0  0  0  0
   -5.5092   79.3307    7.9351 C   0  0  0  0  0  0  0  0  0  0  0  0
    1.3191   74.1638    7.0640 C   0  0  0  0  0  0  0  0  0  0  0  0
    2.4321   74.7255    6.4686 C   0  0  0  0  0  0  0  0  0  0  0  0
   -0.0779   82.3021    5.6559 C   0  0  0  0  0  0  0  0  0  0  0  0
   -4.7639   77.2252    8.8599 C   0  0  0  0  0  0  0  0  0  0  0  0
   -2.1292   81.0906    5.2831 C   0  0  0  0  0  0  0  0  0  0  0  0
   -6.9067   74.6049    3.4931 O   0  0  0  0  0  0  0  0  0  0  0  0
    0.0703   76.0870    6.5891 C   0  0  0  0  0  0  0  0  0  0  0  0
   -4.4596   75.4503    3.1673 O   0  0  0  0  0  0  0  0  0  0  0  0
   -3.6022   78.1235    6.8549 C   0  0  0  0  0  0  0  0  0  0  0  0
   -4.5409   73.0203    5.7339 O   0  0  0  0  0  0  0  0  0  0  0  0
   -1.2087   76.7029    6.5232 O   0  0  0  0  0  0  0  0  0  0  0  0
    2.3578   76.0267    5.9930 C   0  0  0  0  0  0  0  0  0  0  0  0
  1 16  2  0
  1 22  1  0
  2  6  1  0
  2  9  1  0
  2 27  1  0
  3 19  2  0
  3 28  1  0
  4 14  1  0
  4 16  1  0
  4 24  1  0
  5 20  2  0
  5 26  1  0
  6 12  1  0
  6 18  1  0
  7 22  1  0
  7 24  2  0
  8 14  1  0
  8 17  1  0
  8 28  1  0
 10 18  1  0
 10 25  1  0
 10 27  1  0
 11 23  2  0
 11 28  1  0
 12 17  1  0
 13 26  1  0
 13 31  2  0
 15 19  1  0
 15 23  1  0
 17 30  1  0
 18 29  1  0
 20 21  1  0
 21 31  1  0
 26 30  1  0
M  END
>  <ID>  (1) 
conformer_0

$$$$
