
     RDKit          3D

  7  6  0  0  0  0  0  0  0  0999 V2000
   -4.9869   74.9078    4.0079 C   0  0  0  0  0  0  0  0  0  0  0  0
   -3.3524   75.8240    5.5715 C   0  0  0  0  0  0  0  0  0  0  0  0
   -4.3077   77.0171    5.8877 C   0  0  0  0  0  0  0  0  0  0  0  0
   -3.4687   77.8664    7.4776 S   0  0  0  0  0  0  0  0  0  0  0  0
   -5.6437   75.9804    3.7570 O   0  0  0  0  0  0  0  0  0  0  0  0
   -3.5305   74.9964    4.3594 C   0  0  0  0  0  0  0  0  0  0  0  0
   -5.4877   73.8037    4.4419 O   0  0  0  0  0  0  0  0  0  0  0  0
  1  5  2  0
  1  6  1  0
  1  7  1  0
  2  3  1  0
  2  6  1  0
  3  4  1  0
M  END
>  <ID>  (1) 
conformer_0

$$$$
