
     RDKit          3D

  6  5  0  0  0  0  0  0  0  0999 V2000
   -4.3600   76.2226    5.6394 C   0  0  0  0  0  0  0  0  0  0  0  0
   -5.0475   73.6116    5.5183 O   0  0  0  0  0  0  0  0  0  0  0  0
   -3.5687   75.3185    4.6173 C   0  0  0  0  0  0  0  0  0  0  0  0
   -5.1704   77.1527    4.9003 O   0  0  0  0  0  0  0  0  0  0  0  0
   -3.6546   73.8379    5.1392 C   0  0  0  0  0  0  0  0  0  0  0  0
   -4.2379   75.2745    3.3508 O   0  0  0  0  0  0  0  0  0  0  0  0
  1  3  1  0
  1  4  1  0
  2  5  1  0
  3  5  1  0
  3  6  1  0
M  END
>  <ID>  (1) 
conformer_0

$$$$
