
     RDKit          3D

 11 10  0  0  0  0  0  0  0  0999 V2000
   -5.1614   76.0924    3.0928 O   0  0  0  0  0  0  0  0  0  0  0  0
   -1.4290   78.0872    7.1801 C   0  0  0  0  0  0  0  0  0  0  0  0
   -3.8744   74.3275    4.8989 C   0  0  0  0  0  0  0  0  0  0  0  0
   -0.1090   77.4060    7.2771 C   0  0  0  0  0  0  0  0  0  0  0  0
   -2.2209   77.7699    8.2995 O   0  0  0  0  0  0  0  0  0  0  0  0
   -3.8987   75.7888    5.4106 C   0  0  0  0  0  0  0  0  0  0  0  0
   -5.2277   74.0486    4.4387 N   0  0  0  0  0  0  0  0  0  0  0  0
   -5.0270   76.5349    5.8186 N   0  0  0  0  0  0  0  0  0  0  0  0
   -2.5581   76.1819    6.0670 C   0  0  0  0  0  0  0  0  0  0  0  0
   -2.2002   77.6929    5.9669 C   0  0  0  0  0  0  0  0  0  0  0  0
   -5.7512   75.0747    3.7134 C   0  0  0  0  0  0  0  0  0  0  0  0
  1 11  1  0
  2  4  1  0
  2  5  1  0
  2 10  1  0
  3  6  1  0
  3  7  1  0
  6  8  1  0
  6  9  1  0
  7 11  1  0
  9 10  1  0
M  END
>  <ID>  (1) 
conformer_0

$$$$
