
     RDKit          3D

  8  7  0  0  0  0  0  0  0  0999 V2000
   -4.9143   75.9656    3.1107 O   0  0  0  0  0  0  0  0  0  0  0  0
   -4.6455   74.9739    6.5005 O   0  0  0  0  0  0  0  0  0  0  0  0
   -3.1552   77.2552    7.0372 O   0  0  0  0  0  0  0  0  0  0  0  0
   -5.5188   74.1364    4.3045 N   0  0  0  0  0  0  0  0  0  0  0  0
   -5.3915   77.7368    6.5415 O   0  0  0  0  0  0  0  0  0  0  0  0
   -4.2544   75.8600    5.4597 C   0  0  0  0  0  0  0  0  0  0  0  0
   -4.9351   75.3503    4.1954 C   0  0  0  0  0  0  0  0  0  0  0  0
   -4.2075   77.2781    6.0925 C   0  0  0  0  0  0  0  0  0  0  0  0
  1  7  2  0
  2  6  1  0
  3  8  1  0
  4  7  1  0
  5  8  1  0
  6  7  1  0
  6  8  1  0
M  END
>  <ID>  (1) 
conformer_0

$$$$
