
     RDKit          3D

 12 11  0  0  0  0  0  0  0  0999 V2000
   -4.1545   75.4867    4.8270 C   0  0  0  0  0  0  0  0  0  0  0  0
   -5.8950   73.9870    4.0597 O   0  0  0  0  0  0  0  0  0  0  0  0
   -4.7075   74.0347    4.7021 C   0  0  0  0  0  0  0  0  0  0  0  0
   -4.0160   75.9335    6.2884 C   0  0  0  0  0  0  0  0  0  0  0  0
   -2.8389   75.5631    4.2662 O   0  0  0  0  0  0  0  0  0  0  0  0
   -3.3567   77.3838    6.2099 C   0  0  0  0  0  0  0  0  0  0  0  0
   -2.0142   77.9803    8.0952 O   0  0  0  0  0  0  0  0  0  0  0  0
   -5.0083   76.2618    2.6970 O   0  0  0  0  0  0  0  0  0  0  0  0
   -4.2042   73.2589    5.6880 O   0  0  0  0  0  0  0  0  0  0  0  0
   -3.2621   77.9155    7.6273 C   0  0  0  0  0  0  0  0  0  0  0  0
   -4.4760   77.6083    8.4009 C   0  0  0  0  0  0  0  0  0  0  0  0
   -5.0974   76.4707    4.1263 C   0  0  0  0  0  0  0  0  0  0  0  0
  1  3  1  0
  1  4  1  0
  1  5  1  0
  1 12  1  0
  2  3  2  0
  3  9  1  0
  4  6  1  0
  6 10  1  0
  7 10  1  0
  8 12  1  0
 10 11  1  0
M  END
>  <ID>  (1) 
conformer_0

$$$$
