
     RDKit          3D

  8  7  0  0  0  0  0  0  0  0999 V2000
   -3.9567   75.4154    5.8170 C   0  0  0  0  0  0  0  0  0  0  0  0
   -4.5133   74.1892    6.2813 O   0  0  0  0  0  0  0  0  0  0  0  0
   -3.7100   74.3952    3.6965 O   0  0  0  0  0  0  0  0  0  0  0  0
   -5.4248   77.4512    6.1744 O   0  0  0  0  0  0  0  0  0  0  0  0
   -4.3411   75.4050    4.3033 C   0  0  0  0  0  0  0  0  0  0  0  0
   -4.5150   76.6053    6.6888 C   0  0  0  0  0  0  0  0  0  0  0  0
   -3.3952   77.3005    7.4855 C   0  0  0  0  0  0  0  0  0  0  0  0
   -5.4913   75.8954    3.9982 O   0  0  0  0  0  0  0  0  0  0  0  0
  1  2  1  0
  1  5  1  0
  1  6  1  0
  3  5  2  0
  4  6  1  0
  5  8  1  0
  6  7  1  0
M  END
>  <ID>  (1) 
conformer_0

$$$$
