
     RDKit          3D

 11 11  0  0  0  0  0  0  0  0999 V2000
   -4.8088   77.0993    5.6275 C   0  0  0  0  0  0  0  0  0  0  0  0
   -2.8010   75.6667    4.9243 C   0  0  0  0  0  0  0  0  0  0  0  0
   -6.4265   74.9559    3.7908 O   0  0  0  0  0  0  0  0  0  0  0  0
   -5.0721   75.2167    3.8859 C   0  0  0  0  0  0  0  0  0  0  0  0
   -2.0524   75.6979    6.3297 C   0  0  0  0  0  0  0  0  0  0  0  0
   -4.6106   74.7587    6.3222 O   0  0  0  0  0  0  0  0  0  0  0  0
   -4.5153   73.7486    3.9602 C   0  0  0  0  0  0  0  0  0  0  0  0
   -2.7669   76.8935    7.1306 C   0  0  0  0  0  0  0  0  0  0  0  0
   -4.3736   75.6903    5.2762 C   0  0  0  0  0  0  0  0  0  0  0  0
   -3.4987   77.8755    6.1109 C   0  0  0  0  0  0  0  0  0  0  0  0
   -4.8384   76.3245    3.0076 O   0  0  0  0  0  0  0  0  0  0  0  0
  1  9  1  0
  1 10  1  0
  2  5  1  0
  2  9  1  0
  3  4  1  0
  4  7  1  0
  4  9  1  0
  4 11  1  0
  5  8  1  0
  6  9  1  0
  8 10  1  0
M  END
>  <ID>  (1) 
conformer_0

$$$$
