
     RDKit          3D

 11 11  0  0  0  0  0  0  0  0999 V2000
   -3.5072   75.7516    5.5652 C   0  0  0  0  0  0  0  0  0  0  0  0
   -2.4341   75.6245    6.4237 N   0  0  0  0  0  0  0  0  0  0  0  0
   -2.1638   76.9016    7.1548 C   0  0  0  0  0  0  0  0  0  0  0  0
   -4.6235   77.6285    6.8408 C   0  0  0  0  0  0  0  0  0  0  0  0
   -4.7970   75.7744    2.8537 O   0  0  0  0  0  0  0  0  0  0  0  0
   -3.6395   74.7848    4.5734 N   0  0  0  0  0  0  0  0  0  0  0  0
   -4.7567   74.9547    3.7826 C   0  0  0  0  0  0  0  0  0  0  0  0
   -5.7533   74.1650    4.0915 N   0  0  0  0  0  0  0  0  0  0  0  0
   -4.5193   76.8491    5.4607 C   0  0  0  0  0  0  0  0  0  0  0  0
   -3.5165   77.2487    7.8605 C   0  0  0  0  0  0  0  0  0  0  0  0
   -5.7861   77.2359    4.7702 N   0  0  0  0  0  0  0  0  0  0  0  0
  1  2  2  0
  1  6  1  0
  1  9  1  0
  2  3  1  0
  3 10  1  0
  4  9  1  0
  4 10  1  0
  5  7  2  0
  6  7  1  0
  7  8  1  0
  9 11  1  0
M  END
>  <ID>  (1) 
conformer_0

$$$$
