
     RDKit          3D

  6  6  0  0  0  0  0  0  0  0999 V2000
   -5.1866   74.9202    3.6975 O   0  0  0  0  0  0  0  0  0  0  0  0
   -5.1172   76.9186    5.0902 O   0  0  0  0  0  0  0  0  0  0  0  0
   -4.5472   77.1667    6.4211 C   0  0  0  0  0  0  0  0  0  0  0  0
   -3.6151   76.1375    6.6446 O   0  0  0  0  0  0  0  0  0  0  0  0
   -4.4794   75.7606    4.5059 C   0  0  0  0  0  0  0  0  0  0  0  0
   -3.7585   75.0663    5.5854 C   0  0  0  0  0  0  0  0  0  0  0  0
  1  5  1  0
  2  3  1  0
  2  5  1  0
  3  4  1  0
  4  6  1  0
  5  6  1  0
M  END
>  <ID>  (1) 
conformer_0

$$$$
