
     RDKit          3D

  8  7  0  0  0  0  0  0  0  0999 V2000
   -5.7886   74.2823    3.9063 O   0  0  0  0  0  0  0  0  0  0  0  0
   -5.1889   77.5265    7.1653 O   0  0  0  0  0  0  0  0  0  0  0  0
   -4.9591   75.3364    5.7956 N   0  0  0  0  0  0  0  0  0  0  0  0
   -3.7587   76.2281    5.6592 C   0  0  0  0  0  0  0  0  0  0  0  0
   -3.7414   76.7420    4.3987 O   0  0  0  0  0  0  0  0  0  0  0  0
   -3.6366   73.7517    4.7689 O   0  0  0  0  0  0  0  0  0  0  0  0
   -3.7849   77.1476    6.8906 C   0  0  0  0  0  0  0  0  0  0  0  0
   -4.8136   74.3175    4.7450 C   0  0  0  0  0  0  0  0  0  0  0  0
  1  8  2  0
  2  7  1  0
  3  4  1  0
  3  8  1  0
  4  5  1  0
  4  7  1  0
  6  8  1  0
M  END
>  <ID>  (1) 
conformer_0

$$$$
