
     RDKit          3D

 17 18  0  0  0  0  0  0  0  0999 V2000
   -3.8021   78.0841    7.7748 O   0  0  0  0  0  0  0  0  0  0  0  0
   -5.4427   75.9580    3.9996 C   0  0  0  0  0  0  0  0  0  0  0  0
   -0.8939   79.1556    6.3031 C   0  0  0  0  0  0  0  0  0  0  0  0
   -3.2037   75.1809    5.3727 O   0  0  0  0  0  0  0  0  0  0  0  0
   -4.7933   76.9317    5.0729 C   0  0  0  0  0  0  0  0  0  0  0  0
   -4.1811   75.8975    6.1392 C   0  0  0  0  0  0  0  0  0  0  0  0
   -3.7224   77.6458    4.4809 O   0  0  0  0  0  0  0  0  0  0  0  0
   -3.6849   74.1889    4.3207 C   0  0  0  0  0  0  0  0  0  0  0  0
   -0.4298   78.0656    8.3348 C   0  0  0  0  0  0  0  0  0  0  0  0
   -1.4724   78.3998    7.3961 C   0  0  0  0  0  0  0  0  0  0  0  0
   -2.8709   76.3441    6.6412 N   0  0  0  0  0  0  0  0  0  0  0  0
   -5.7094   73.6319    5.3012 O   0  0  0  0  0  0  0  0  0  0  0  0
    0.3830   79.7511    6.8312 C   0  0  0  0  0  0  0  0  0  0  0  0
   -2.7139   77.6320    7.2632 C   0  0  0  0  0  0  0  0  0  0  0  0
   -5.0073   76.3570    2.6887 O   0  0  0  0  0  0  0  0  0  0  0  0
   -5.2129   74.4178    4.1961 C   0  0  0  0  0  0  0  0  0  0  0  0
    0.7170   78.9816    8.0728 C   0  0  0  0  0  0  0  0  0  0  0  0
  1 14  2  0
  2  5  1  0
  2 15  1  0
  2 16  1  0
  3 10  1  0
  3 13  1  0
  4  6  1  0
  4  8  1  0
  5  6  1  0
  5  7  1  0
  6 11  1  0
  8 16  1  0
  9 10  1  0
  9 17  1  0
 10 14  1  0
 11 14  1  0
 12 16  1  0
 13 17  1  0
M  END
>  <ID>  (1) 
conformer_0

$$$$
