
     RDKit          3D

 12 13  0  0  0  0  0  0  0  0999 V2000
   -4.2872   77.8437    5.4649 C   0  0  0  0  0  0  0  0  0  0  0  0
   -4.4932   76.3118    5.3713 C   0  0  0  0  0  0  0  0  0  0  0  0
   -4.1938   77.3838    7.9239 C   0  0  0  0  0  0  0  0  0  0  0  0
   -5.3019   74.4335    4.2165 N   0  0  0  0  0  0  0  0  0  0  0  0
   -3.5165   78.1917    6.7453 C   0  0  0  0  0  0  0  0  0  0  0  0
   -2.0700   77.7807    6.5847 C   0  0  0  0  0  0  0  0  0  0  0  0
   -3.0960   74.2949    4.9849 C   0  0  0  0  0  0  0  0  0  0  0  0
   -5.1596   76.5653    3.1441 O   0  0  0  0  0  0  0  0  0  0  0  0
   -1.9680   76.5275    5.7032 C   0  0  0  0  0  0  0  0  0  0  0  0
   -3.1828   75.6232    5.6734 C   0  0  0  0  0  0  0  0  0  0  0  0
   -5.0671   75.7864    4.1367 C   0  0  0  0  0  0  0  0  0  0  0  0
   -4.4352   73.6622    5.0659 C   0  0  0  0  0  0  0  0  0  0  0  0
  1  2  1  0
  1  5  1  0
  2 10  1  0
  2 11  1  0
  3  5  1  0
  4 11  1  0
  4 12  1  0
  5  6  1  0
  6  9  1  0
  7 10  1  0
  7 12  1  0
  8 11  2  0
  9 10  1  0
M  END
>  <ID>  (1) 
conformer_0

$$$$
