
     RDKit          3D

 11 11  0  0  0  0  0  0  0  0999 V2000
   -5.1963   76.2730    2.9810 O   0  0  0  0  0  0  0  0  0  0  0  0
   -2.6159   78.0372    7.4345 C   0  0  0  0  0  0  0  0  0  0  0  0
   -3.4765   74.7028    5.0399 C   0  0  0  0  0  0  0  0  0  0  0  0
   -5.2450   75.4936    3.9505 C   0  0  0  0  0  0  0  0  0  0  0  0
   -1.2958   77.7229    8.1996 C   0  0  0  0  0  0  0  0  0  0  0  0
   -5.4173   74.1341    3.9473 N   0  0  0  0  0  0  0  0  0  0  0  0
   -4.5202   75.7700    5.0532 N   0  0  0  0  0  0  0  0  0  0  0  0
   -3.7874   77.6001    8.3728 C   0  0  0  0  0  0  0  0  0  0  0  0
   -4.2666   73.5152    4.5839 C   0  0  0  0  0  0  0  0  0  0  0  0
   -2.7474   77.0821    6.2289 C   0  0  0  0  0  0  0  0  0  0  0  0
   -4.2946   77.0624    5.7538 C   0  0  0  0  0  0  0  0  0  0  0  0
  1  4  2  0
  2  5  1  0
  2  8  1  0
  2 10  1  0
  3  7  1  0
  3  9  1  0
  4  6  1  0
  4  7  1  0
  6  9  1  0
  7 11  1  0
 10 11  1  0
M  END
>  <ID>  (1) 
conformer_0

$$$$
