
     RDKit          3D

  7  6  0  0  0  0  0  0  0  0999 V2000
   -3.9389   74.8245    5.1554 C   0  0  0  0  0  0  0  0  0  0  0  0
   -3.3865   77.9268    7.5101 C   0  0  0  0  0  0  0  0  0  0  0  0
   -4.0136   76.0708    6.0013 C   0  0  0  0  0  0  0  0  0  0  0  0
   -5.8981   74.0864    3.9556 O   0  0  0  0  0  0  0  0  0  0  0  0
   -2.9884   77.1112    6.2327 C   0  0  0  0  0  0  0  0  0  0  0  0
   -5.2299   76.6698    5.9130 O   0  0  0  0  0  0  0  0  0  0  0  0
   -4.8010   74.9930    3.8959 C   0  0  0  0  0  0  0  0  0  0  0  0
  1  3  1  0
  1  7  1  0
  2  5  1  0
  3  5  1  0
  3  6  1  0
  4  7  1  0
M  END
>  <ID>  (1) 
conformer_0

$$$$
