
     RDKit          3D

  6  5  0  0  0  0  0  0  0  0999 V2000
   -5.1684   75.2562    3.4106 O   0  0  0  0  0  0  0  0  0  0  0  0
   -4.7245   75.6279    6.5447 N   0  0  0  0  0  0  0  0  0  0  0  0
   -4.7865   77.0193    7.0225 C   0  0  0  0  0  0  0  0  0  0  0  0
   -5.0383   73.5141    4.8490 O   0  0  0  0  0  0  0  0  0  0  0  0
   -4.6858   74.6266    4.4013 C   0  0  0  0  0  0  0  0  0  0  0  0
   -3.8996   75.4770    5.3611 C   0  0  0  0  0  0  0  0  0  0  0  0
  1  5  2  0
  2  3  1  0
  2  6  1  0
  4  5  1  0
  5  6  1  0
M  END
>  <ID>  (1) 
conformer_0

$$$$
