
     RDKit          3D

 10 10  0  0  0  0  0  0  0  0999 V2000
   -3.7084   74.6770    5.4384 C   0  0  0  0  0  0  0  0  0  0  0  0
   -5.2273   75.9148    4.2452 C   0  0  0  0  0  0  0  0  0  0  0  0
   -4.5499   75.9580    5.4862 N   0  0  0  0  0  0  0  0  0  0  0  0
   -5.5462   74.6227    3.9691 N   0  0  0  0  0  0  0  0  0  0  0  0
   -4.5332   73.7344    4.5759 C   0  0  0  0  0  0  0  0  0  0  0  0
   -2.4104   77.0563    6.4044 C   0  0  0  0  0  0  0  0  0  0  0  0
   -3.9405   77.0973    6.1478 C   0  0  0  0  0  0  0  0  0  0  0  0
   -4.3838   78.3891    5.8566 O   0  0  0  0  0  0  0  0  0  0  0  0
   -5.8619   76.9143    3.8231 O   0  0  0  0  0  0  0  0  0  0  0  0
   -2.0529   78.1474    7.4523 C   0  0  0  0  0  0  0  0  0  0  0  0
  1  3  1  0
  1  5  1  0
  2  3  1  0
  2  4  1  0
  2  9  2  0
  3  7  1  0
  4  5  1  0
  6  7  1  0
  6 10  1  0
  7  8  2  0
M  END
>  <ID>  (1) 
conformer_0

$$$$
