
     RDKit          3D

 13 13  0  0  0  0  0  0  0  0999 V2000
   -4.2228   77.0964    5.5971 C   0  0  0  0  0  0  0  0  0  0  0  0
   -3.8118   77.6419    7.0353 C   0  0  0  0  0  0  0  0  0  0  0  0
   -4.7818   76.6642    3.1173 O   0  0  0  0  0  0  0  0  0  0  0  0
   -2.2910   77.5482    7.2591 C   0  0  0  0  0  0  0  0  0  0  0  0
   -3.4959   73.9900    3.9851 O   0  0  0  0  0  0  0  0  0  0  0  0
   -5.4240   75.5474    3.7456 C   0  0  0  0  0  0  0  0  0  0  0  0
   -5.3434   73.7164    5.3428 O   0  0  0  0  0  0  0  0  0  0  0  0
   -4.4706   76.7873    8.0203 O   0  0  0  0  0  0  0  0  0  0  0  0
   -3.9143   75.5475    5.7512 C   0  0  0  0  0  0  0  0  0  0  0  0
   -4.5620   74.6602    4.6390 C   0  0  0  0  0  0  0  0  0  0  0  0
   -1.7299   76.7809    6.0662 C   0  0  0  0  0  0  0  0  0  0  0  0
   -2.5164   75.4888    6.0608 O   0  0  0  0  0  0  0  0  0  0  0  0
   -5.5693   77.5838    5.3987 O   0  0  0  0  0  0  0  0  0  0  0  0
  1  2  1  0
  1  9  1  0
  1 13  1  0
  2  4  1  0
  2  8  1  0
  3  6  1  0
  4 11  1  0
  5 10  1  0
  6 10  1  0
  7 10  1  0
  9 10  1  0
  9 12  1  0
 11 12  1  0
M  END
>  <ID>  (1) 
conformer_0

$$$$
