
     RDKit          3D

  8  7  0  0  0  0  0  0  0  0999 V2000
   -5.3507   73.5664    5.2630 O   0  0  0  0  0  0  0  0  0  0  0  0
   -5.3714   78.2439    6.5873 O   0  0  0  0  0  0  0  0  0  0  0  0
   -4.8789   75.6108    4.0582 C   0  0  0  0  0  0  0  0  0  0  0  0
   -4.2822   77.5269    7.2215 C   0  0  0  0  0  0  0  0  0  0  0  0
   -4.1894   76.5141    5.0046 C   0  0  0  0  0  0  0  0  0  0  0  0
   -4.2453   76.1517    6.5274 C   0  0  0  0  0  0  0  0  0  0  0  0
   -6.1232   75.9617    3.6968 O   0  0  0  0  0  0  0  0  0  0  0  0
   -4.5919   74.1590    4.2398 C   0  0  0  0  0  0  0  0  0  0  0  0
  1  8  1  0
  2  4  1  0
  3  5  1  0
  3  7  1  0
  3  8  1  0
  4  6  1  0
  5  6  1  0
M  END
>  <ID>  (1) 
conformer_0

$$$$
