
     RDKit          3D

 19 21  0  0  0  0  0  0  0  0999 V2000
   -4.2859   77.0521    8.2534 N   0  0  0  0  0  0  0  0  0  0  0  0
   -2.0213   77.9203    8.1718 C   0  0  0  0  0  0  0  0  0  0  0  0
   -4.8536   76.2766    4.4030 C   0  0  0  0  0  0  0  0  0  0  0  0
   -3.6119   78.4465    5.4172 C   0  0  0  0  0  0  0  0  0  0  0  0
   -3.2429   74.5751    5.1494 C   0  0  0  0  0  0  0  0  0  0  0  0
    0.1918   78.5647    7.8478 F   0  0  0  0  0  0  0  0  0  0  0  0
   -6.5769   74.6571    3.6822 O   0  0  0  0  0  0  0  0  0  0  0  0
   -3.1685   77.2052    6.0556 C   0  0  0  0  0  0  0  0  0  0  0  0
   -4.4854   73.8210    4.6620 C   0  0  0  0  0  0  0  0  0  0  0  0
   -5.2443   73.3684    5.7545 O   0  0  0  0  0  0  0  0  0  0  0  0
   -4.9807   77.0374    3.1627 O   0  0  0  0  0  0  0  0  0  0  0  0
   -2.9873   79.5924    6.1288 C   0  0  0  0  0  0  0  0  0  0  0  0
   -1.0082   78.2669    7.1310 C   0  0  0  0  0  0  0  0  0  0  0  0
   -2.0690   76.5420    5.7283 N   0  0  0  0  0  0  0  0  0  0  0  0
   -3.4344   76.0997    5.0475 C   0  0  0  0  0  0  0  0  0  0  0  0
   -3.1987   77.4393    7.5439 C   0  0  0  0  0  0  0  0  0  0  0  0
   -0.8205   77.0516    6.2288 C   0  0  0  0  0  0  0  0  0  0  0  0
   -1.5147   79.4130    6.2827 C   0  0  0  0  0  0  0  0  0  0  0  0
   -5.2676   74.8448    3.8887 C   0  0  0  0  0  0  0  0  0  0  0  0
  1 16  1  0
  2 13  1  0
  2 16  1  0
  3 11  1  0
  3 15  1  0
  3 19  1  0
  4  8  1  0
  4 12  1  0
  5  9  1  0
  5 15  1  0
  6 13  1  0
  7 19  1  0
  8 14  1  0
  8 15  1  0
  8 16  1  0
  9 10  1  0
  9 19  1  0
 12 18  1  0
 13 17  1  0
 13 18  1  0
 14 17  1  0
M  END
>  <ID>  (1) 
conformer_0

$$$$
