
     RDKit          3D

  8  8  0  0  0  0  0  0  0  0999 V2000
   -4.2786   74.1001    5.8966 N   0  0  0  0  0  0  0  0  0  0  0  0
   -5.5267   76.8602    4.3018 O   0  0  0  0  0  0  0  0  0  0  0  0
   -4.8997   73.5596    4.8110 C   0  0  0  0  0  0  0  0  0  0  0  0
   -3.2126   74.9850    5.5710 C   0  0  0  0  0  0  0  0  0  0  0  0
   -4.9778   75.7212    3.9570 C   0  0  0  0  0  0  0  0  0  0  0  0
   -3.1407   76.1631    6.5993 C   0  0  0  0  0  0  0  0  0  0  0  0
   -3.5342   75.5413    4.1624 C   0  0  0  0  0  0  0  0  0  0  0  0
   -5.6452   74.5351    4.1228 N   0  0  0  0  0  0  0  0  0  0  0  0
  1  3  1  0
  1  4  1  0
  2  5  2  0
  3  8  1  0
  4  6  1  0
  4  7  1  0
  5  7  1  0
  5  8  1  0
M  END
>  <ID>  (1) 
conformer_0

$$$$
