
     RDKit          3D

 13 13  0  0  0  0  0  0  0  0999 V2000
   -4.8236   73.4676    5.4897 O   0  0  0  0  0  0  0  0  0  0  0  0
   -3.9867   78.4878    7.9115 O   0  0  0  0  0  0  0  0  0  0  0  0
   -5.1356   74.0061    4.2795 C   0  0  0  0  0  0  0  0  0  0  0  0
   -2.7063   77.8403    7.7366 C   0  0  0  0  0  0  0  0  0  0  0  0
   -1.4173   76.5173    5.9455 C   0  0  0  0  0  0  0  0  0  0  0  0
   -2.4564   77.7632    6.2047 C   0  0  0  0  0  0  0  0  0  0  0  0
   -3.9433   75.8977    5.4034 C   0  0  0  0  0  0  0  0  0  0  0  0
   -4.5763   75.4603    4.0567 C   0  0  0  0  0  0  0  0  0  0  0  0
   -6.4788   74.0968    3.9670 N   0  0  0  0  0  0  0  0  0  0  0  0
   -4.8634   78.2230    5.3911 O   0  0  0  0  0  0  0  0  0  0  0  0
   -2.4747   75.2594    5.4722 C   0  0  0  0  0  0  0  0  0  0  0  0
   -3.7855   77.4179    5.5221 C   0  0  0  0  0  0  0  0  0  0  0  0
   -5.2359   76.4869    3.3823 O   0  0  0  0  0  0  0  0  0  0  0  0
  1  3  1  0
  2  4  1  0
  3  8  1  0
  3  9  1  0
  4  6  1  0
  5  6  1  0
  5 11  1  0
  6 12  1  0
  7  8  1  0
  7 11  1  0
  7 12  1  0
  8 13  1  0
 10 12  1  0
M  END
>  <ID>  (1) 
conformer_0

$$$$
