
     RDKit          3D

 11 10  0  0  0  0  0  0  0  0999 V2000
   -3.4933   76.9098    8.3060 O   0  0  0  0  0  0  0  0  0  0  0  0
   -3.1018   77.4563    6.9725 C   0  0  0  0  0  0  0  0  0  0  0  0
   -3.1844   75.6327    5.4110 O   0  0  0  0  0  0  0  0  0  0  0  0
   -3.9571   76.7428    5.9555 C   0  0  0  0  0  0  0  0  0  0  0  0
   -4.9656   76.7676    3.1261 O   0  0  0  0  0  0  0  0  0  0  0  0
   -4.1588   73.5825    4.7010 C   0  0  0  0  0  0  0  0  0  0  0  0
   -5.2001   75.7012    3.8740 C   0  0  0  0  0  0  0  0  0  0  0  0
   -6.2192   74.8615    3.6958 O   0  0  0  0  0  0  0  0  0  0  0  0
   -5.2049   77.3845    5.8332 O   0  0  0  0  0  0  0  0  0  0  0  0
   -5.1687   73.6596    5.7418 O   0  0  0  0  0  0  0  0  0  0  0  0
   -3.8405   75.0107    4.2189 C   0  0  0  0  0  0  0  0  0  0  0  0
  1  2  1  0
  2  4  1  0
  3  4  1  0
  3 11  1  0
  4  9  2  0
  5  7  2  0
  6 10  1  0
  6 11  1  0
  7  8  1  0
  7 11  1  0
M  END
>  <ID>  (1) 
conformer_0

$$$$
