
     RDKit          3D

  7  6  0  0  0  0  0  0  0  0999 V2000
   -5.5019   77.0118    4.5691 O   0  0  0  0  0  0  0  0  0  0  0  0
   -3.3796   76.1022    6.1496 C   0  0  0  0  0  0  0  0  0  0  0  0
   -4.3570   76.2077    4.8809 C   0  0  0  0  0  0  0  0  0  0  0  0
   -4.6504   74.7278    4.4616 C   0  0  0  0  0  0  0  0  0  0  0  0
   -3.9501   76.9375    7.1917 O   0  0  0  0  0  0  0  0  0  0  0  0
   -5.8255   74.6378    3.7614 O   0  0  0  0  0  0  0  0  0  0  0  0
   -4.5785   73.9220    5.5865 O   0  0  0  0  0  0  0  0  0  0  0  0
  1  3  1  0
  2  3  1  0
  2  5  1  0
  3  4  1  0
  4  6  1  0
  4  7  1  0
M  END
>  <ID>  (1) 
conformer_0

$$$$
