
     RDKit          3D

 12 11  0  0  0  0  0  0  0  0999 V2000
   -6.5366   75.9874    3.7431 O   0  0  0  0  0  0  0  0  0  0  0  0
   -2.9274   78.6643    7.2358 O   0  0  0  0  0  0  0  0  0  0  0  0
   -5.8034   73.6001    4.9390 O   0  0  0  0  0  0  0  0  0  0  0  0
   -4.8416   74.3113    4.2359 C   0  0  0  0  0  0  0  0  0  0  0  0
   -3.3979   73.1559    5.8769 O   0  0  0  0  0  0  0  0  0  0  0  0
   -4.5879   76.6040    5.9498 O   0  0  0  0  0  0  0  0  0  0  0  0
   -3.4903   74.2978    4.9921 C   0  0  0  0  0  0  0  0  0  0  0  0
   -3.4796   77.4603    7.7694 C   0  0  0  0  0  0  0  0  0  0  0  0
   -3.3156   76.3694    6.6281 C   0  0  0  0  0  0  0  0  0  0  0  0
   -5.3278   75.6561    3.6354 C   0  0  0  0  0  0  0  0  0  0  0  0
   -4.4806   76.4949    3.2008 O   0  0  0  0  0  0  0  0  0  0  0  0
   -2.5193   75.3888    5.6293 C   0  0  0  0  0  0  0  0  0  0  0  0
  1 10  2  0
  2  8  1  0
  3  4  1  0
  4  7  1  0
  4 10  1  0
  5  7  1  0
  6  9  1  0
  7 12  1  0
  8  9  1  0
  9 12  1  0
 10 11  1  0
M  END
>  <ID>  (1) 
conformer_0

$$$$
