
     RDKit          3D

  9  8  0  0  0  0  0  0  0  0999 V2000
   -2.5877   76.5028    6.6655 S   0  0  0  0  0  0  0  0  0  0  0  0
   -4.4067   77.7326    5.3566 C   0  0  0  0  0  0  0  0  0  0  0  0
   -6.1086   74.3655    3.7079 O   0  0  0  0  0  0  0  0  0  0  0  0
   -5.5972   76.5513    3.4660 N   0  0  0  0  0  0  0  0  0  0  0  0
   -4.1364   76.2132    5.8061 C   0  0  0  0  0  0  0  0  0  0  0  0
   -3.1148   77.8515    7.7440 C   0  0  0  0  0  0  0  0  0  0  0  0
   -5.2618   75.3266    3.7824 C   0  0  0  0  0  0  0  0  0  0  0  0
   -4.1386   73.6029    5.2061 C   0  0  0  0  0  0  0  0  0  0  0  0
   -4.1334   75.0938    4.7547 C   0  0  0  0  0  0  0  0  0  0  0  0
  1  5  1  0
  1  6  1  0
  2  5  1  0
  3  7  2  0
  4  7  1  0
  5  9  1  0
  7  9  1  0
  8  9  1  0
M  END
>  <ID>  (1) 
conformer_0

$$$$
