
     RDKit          3D

 14 15  0  0  0  0  0  0  0  0999 V2000
   -4.0959   79.0152    6.5631 C   0  0  0  0  0  0  0  0  0  0  0  0
   -4.4260   76.6332    5.7001 C   0  0  0  0  0  0  0  0  0  0  0  0
   -2.6076   75.3219    5.7350 C   0  0  0  0  0  0  0  0  0  0  0  0
   -4.6537   78.2192    7.7598 C   0  0  0  0  0  0  0  0  0  0  0  0
   -3.7532   77.0005    7.9614 C   0  0  0  0  0  0  0  0  0  0  0  0
   -5.7736   76.5381    3.5339 O   0  0  0  0  0  0  0  0  0  0  0  0
   -4.4174   78.1654    5.3268 C   0  0  0  0  0  0  0  0  0  0  0  0
   -4.0330   73.5592    5.0166 C   0  0  0  0  0  0  0  0  0  0  0  0
   -5.3361   75.3231    3.8242 C   0  0  0  0  0  0  0  0  0  0  0  0
   -3.1407   76.5806    6.5846 N   0  0  0  0  0  0  0  0  0  0  0  0
   -2.0188   77.6535    6.4138 C   0  0  0  0  0  0  0  0  0  0  0  0
   -2.5748   79.0346    6.7484 C   0  0  0  0  0  0  0  0  0  0  0  0
   -6.1034   74.3241    3.7451 O   0  0  0  0  0  0  0  0  0  0  0  0
   -4.1262   75.1974    4.8816 C   0  0  0  0  0  0  0  0  0  0  0  0
  1  4  1  0
  1  7  1  0
  1 12  1  0
  2  7  1  0
  2 10  1  0
  2 14  1  0
  3 14  1  0
  4  5  1  0
  5 10  1  0
  6  9  2  0
  8 14  1  0
  9 13  1  0
  9 14  1  0
 10 11  1  0
 11 12  1  0
M  END
>  <ID>  (1) 
conformer_0

$$$$
