
     RDKit          3D

 10 10  0  0  0  0  0  0  0  0999 V2000
   -4.9674   75.7101    3.4163 O   0  0  0  0  0  0  0  0  0  0  0  0
   -4.7309   73.8714    5.1801 O   0  0  0  0  0  0  0  0  0  0  0  0
   -2.1770   76.4169    6.6067 C   0  0  0  0  0  0  0  0  0  0  0  0
   -6.2041   76.2920    3.6690 O   0  0  0  0  0  0  0  0  0  0  0  0
   -3.7623   74.8369    5.3594 C   0  0  0  0  0  0  0  0  0  0  0  0
   -4.0394   76.0249    4.4673 C   0  0  0  0  0  0  0  0  0  0  0  0
   -4.2358   77.5053    6.5725 O   0  0  0  0  0  0  0  0  0  0  0  0
   -3.1006   75.2441    6.5542 N   0  0  0  0  0  0  0  0  0  0  0  0
   -4.2487   77.3262    5.1453 C   0  0  0  0  0  0  0  0  0  0  0  0
   -2.9769   77.5687    7.2104 C   0  0  0  0  0  0  0  0  0  0  0  0
  1  4  1  0
  1  6  1  0
  2  5  2  0
  3  8  1  0
  3 10  1  0
  5  6  1  0
  5  8  1  0
  6  9  1  0
  7  9  1  0
  7 10  1  0
M  END
>  <ID>  (1) 
conformer_0

$$$$
