
     RDKit          3D

  9  8  0  0  0  0  0  0  0  0999 V2000
   -4.1666   77.3221    6.7292 C   0  0  0  0  0  0  0  0  0  0  0  0
   -4.9168   74.6437    3.6530 C   0  0  0  0  0  0  0  0  0  0  0  0
   -4.4163   76.3282    5.5329 C   0  0  0  0  0  0  0  0  0  0  0  0
   -5.4705   76.9540    4.7394 O   0  0  0  0  0  0  0  0  0  0  0  0
   -5.2892   77.1569    7.8286 C   0  0  0  0  0  0  0  0  0  0  0  0
   -2.8018   77.0966    7.4355 C   0  0  0  0  0  0  0  0  0  0  0  0
   -3.3428   75.1852    5.5329 C   0  0  0  0  0  0  0  0  0  0  0  0
   -3.9592   73.9929    4.6397 C   0  0  0  0  0  0  0  0  0  0  0  0
   -6.2185   74.3195    3.9963 O   0  0  0  0  0  0  0  0  0  0  0  0
  1  3  1  0
  1  5  1  0
  1  6  1  0
  2  8  1  0
  2  9  1  0
  3  4  1  0
  3  7  1  0
  7  8  1  0
M  END
>  <ID>  (1) 
conformer_0

$$$$
