
     RDKit          3D

 23 23  0  0  0  0  0  0  0  0999 V2000
   -4.2629   77.1322    3.2742 O   0  0  0  0  0  0  0  0  0  0  0  0
    2.1772   78.2355    7.3228 C   0  0  0  0  0  0  0  0  0  0  0  0
   -4.2460   74.3826    4.5326 C   0  0  0  0  0  0  0  0  0  0  0  0
   -4.1002   77.5074    7.0965 C   0  0  0  0  0  0  0  0  0  0  0  0
   -4.2036   77.0762    5.6702 C   0  0  0  0  0  0  0  0  0  0  0  0
    0.7719   78.6187    7.1179 C   0  0  0  0  0  0  0  0  0  0  0  0
   -2.8617   78.3162    7.4163 C   0  0  0  0  0  0  0  0  0  0  0  0
   -6.4232   74.8779    3.7053 O   0  0  0  0  0  0  0  0  0  0  0  0
   -2.9194   76.4464    5.3335 O   0  0  0  0  0  0  0  0  0  0  0  0
   -4.6193   73.1976    5.1425 O   0  0  0  0  0  0  0  0  0  0  0  0
    1.6162   75.8143    7.6171 C   0  0  0  0  0  0  0  0  0  0  0  0
   -0.6790   75.0891    6.9879 C   0  0  0  0  0  0  0  0  0  0  0  0
   -5.1130   76.8248    4.4092 C   0  0  0  0  0  0  0  0  0  0  0  0
    0.2808   76.2354    7.3945 C   0  0  0  0  0  0  0  0  0  0  0  0
    2.9146   79.3487    7.8926 C   0  0  0  0  0  0  0  0  0  0  0  0
   -2.9653   75.0234    4.9308 C   0  0  0  0  0  0  0  0  0  0  0  0
   -0.1879   77.6046    7.6240 C   0  0  0  0  0  0  0  0  0  0  0  0
   -4.7677   76.2647    6.7494 O   0  0  0  0  0  0  0  0  0  0  0  0
    2.5113   76.9540    7.8802 C   0  0  0  0  0  0  0  0  0  0  0  0
   -1.5724   77.7083    7.0610 C   0  0  0  0  0  0  0  0  0  0  0  0
    3.6869   76.6945    8.2386 O   0  0  0  0  0  0  0  0  0  0  0  0
   -5.3870   75.3226    4.3653 C   0  0  0  0  0  0  0  0  0  0  0  0
   -1.7718   77.2577    5.6093 C   0  0  0  0  0  0  0  0  0  0  0  0
  1 13  1  0
  2  6  1  0
  2 15  1  0
  2 19  1  0
  3 10  1  0
  3 16  1  0
  3 22  1  0
  4  7  1  0
  4 18  1  0
  5  9  1  0
  5 13  1  0
  6 17  1  0
  7 20  1  0
  8 22  1  0
  9 23  1  0
 11 14  1  0
 11 19  1  0
 12 14  1  0
 13 22  1  0
 14 17  1  0
 17 20  1  0
 19 21  2  0
 20 23  1  0
M  END
>  <ID>  (1) 
conformer_0

$$$$
