
     RDKit          3D

 12 12  0  0  0  0  0  0  0  0999 V2000
   -5.0640   76.4506    4.1979 C   0  0  0  0  0  0  0  0  0  0  0  0
   -3.1283   77.2567    6.6416 C   0  0  0  0  0  0  0  0  0  0  0  0
   -1.4328   77.7237    8.1887 O   0  0  0  0  0  0  0  0  0  0  0  0
   -5.5156   77.6124    4.4118 O   0  0  0  0  0  0  0  0  0  0  0  0
   -3.1027   75.3079    5.2781 C   0  0  0  0  0  0  0  0  0  0  0  0
   -4.8202   73.4098    5.1013 O   0  0  0  0  0  0  0  0  0  0  0  0
   -4.7286   75.8822    3.1320 O   0  0  0  0  0  0  0  0  0  0  0  0
   -2.2845   78.3056    7.1638 C   0  0  0  0  0  0  0  0  0  0  0  0
   -4.5997   75.8171    5.5243 C   0  0  0  0  0  0  0  0  0  0  0  0
   -3.3987   73.8420    4.8021 C   0  0  0  0  0  0  0  0  0  0  0  0
   -2.3196   76.1641    6.1809 O   0  0  0  0  0  0  0  0  0  0  0  0
   -4.4859   76.8605    6.5429 O   0  0  0  0  0  0  0  0  0  0  0  0
  1  4  2  0
  1  7  1  0
  1  9  1  0
  2  8  1  0
  2 11  1  0
  2 12  1  0
  3  8  1  0
  5  9  1  0
  5 10  1  0
  5 11  1  0
  6 10  1  0
  9 12  1  0
M  END
>  <ID>  (1) 
conformer_0

$$$$
