
     RDKit          3D

  8  7  0  0  0  0  0  0  0  0999 V2000
   -5.1434   75.7531    4.1486 C   0  0  0  0  0  0  0  0  0  0  0  0
   -4.8719   76.1105    2.8327 O   0  0  0  0  0  0  0  0  0  0  0  0
   -3.8776   75.5325    4.9982 C   0  0  0  0  0  0  0  0  0  0  0  0
   -2.6980   75.8425    4.3065 O   0  0  0  0  0  0  0  0  0  0  0  0
   -4.0878   76.2927    6.2743 O   0  0  0  0  0  0  0  0  0  0  0  0
   -3.5098   77.6844    6.2247 C   0  0  0  0  0  0  0  0  0  0  0  0
   -5.1991   73.6051    5.6999 O   0  0  0  0  0  0  0  0  0  0  0  0
   -3.8668   74.0181    5.3120 C   0  0  0  0  0  0  0  0  0  0  0  0
  1  2  1  0
  1  3  1  0
  3  4  1  0
  3  5  1  0
  3  8  1  0
  5  6  1  0
  7  8  1  0
M  END
>  <ID>  (1) 
conformer_0

$$$$
