
     RDKit          3D

 10  9  0  0  0  0  0  0  0  0999 V2000
   -4.6882   75.6731    4.2872 C   0  0  0  0  0  0  0  0  0  0  0  0
   -2.9495   76.6654    5.8209 C   0  0  0  0  0  0  0  0  0  0  0  0
   -4.6052   74.7084    5.3345 O   0  0  0  0  0  0  0  0  0  0  0  0
   -3.6008   73.6349    5.0919 C   0  0  0  0  0  0  0  0  0  0  0  0
   -4.1201   77.0581    4.9306 C   0  0  0  0  0  0  0  0  0  0  0  0
   -5.0364   76.1149    2.9579 O   0  0  0  0  0  0  0  0  0  0  0  0
   -2.3893   75.5583    6.4562 O   0  0  0  0  0  0  0  0  0  0  0  0
   -2.1284   77.9615    7.7315 C   0  0  0  0  0  0  0  0  0  0  0  0
   -2.1378   77.8927    6.2085 C   0  0  0  0  0  0  0  0  0  0  0  0
   -5.2681   77.7060    5.4139 O   0  0  0  0  0  0  0  0  0  0  0  0
  1  3  1  0
  1  5  1  0
  1  6  2  0
  2  5  1  0
  2  7  1  0
  2  9  1  0
  3  4  1  0
  5 10  1  0
  8  9  1  0
M  END
>  <ID>  (1) 
conformer_0

$$$$
