
     RDKit          3D

 11 11  0  0  0  0  0  0  0  0999 V2000
   -4.3970   77.4954    5.8235 N   0  0  0  0  0  0  0  0  0  0  0  0
   -2.6936   79.0336    6.0055 O   0  0  0  0  0  0  0  0  0  0  0  0
   -3.4264   78.2405    6.6304 C   0  0  0  0  0  0  0  0  0  0  0  0
   -3.8318   76.2855    5.1368 C   0  0  0  0  0  0  0  0  0  0  0  0
   -3.1684   77.5628    7.8998 C   0  0  0  0  0  0  0  0  0  0  0  0
   -4.7384   75.7333    4.0895 C   0  0  0  0  0  0  0  0  0  0  0  0
   -3.8454   73.9050    5.3607 C   0  0  0  0  0  0  0  0  0  0  0  0
   -5.7465   76.4190    3.5518 O   0  0  0  0  0  0  0  0  0  0  0  0
   -4.7416   74.2045    4.1682 C   0  0  0  0  0  0  0  0  0  0  0  0
   -6.0489   73.7700    4.3745 O   0  0  0  0  0  0  0  0  0  0  0  0
   -3.6611   75.2064    6.0751 O   0  0  0  0  0  0  0  0  0  0  0  0
  1  3  1  0
  1  4  1  0
  2  3  2  0
  3  5  1  0
  4  6  1  0
  4 11  1  0
  6  8  1  0
  6  9  1  0
  7  9  1  0
  7 11  1  0
  9 10  1  0
M  END
>  <ID>  (1) 
conformer_0

$$$$
