
     RDKit          3D

  8  7  0  0  0  0  0  0  0  0999 V2000
   -4.7894   77.2227    8.1463 C   0  0  0  0  0  0  0  0  0  0  0  0
   -2.8670   74.2729    5.2962 S   0  0  0  0  0  0  0  0  0  0  0  0
   -5.8280   74.1455    4.0081 O   0  0  0  0  0  0  0  0  0  0  0  0
   -4.5604   76.8700    5.6011 C   0  0  0  0  0  0  0  0  0  0  0  0
   -4.9795   75.1169    3.8848 C   0  0  0  0  0  0  0  0  0  0  0  0
   -3.6889   77.1995    6.9464 C   0  0  0  0  0  0  0  0  0  0  0  0
   -4.2071   75.4380    5.1292 C   0  0  0  0  0  0  0  0  0  0  0  0
   -4.9969   76.0239    2.9921 O   0  0  0  0  0  0  0  0  0  0  0  0
  1  6  1  0
  2  7  1  0
  3  5  2  0
  4  6  1  0
  4  7  1  0
  5  7  1  0
  5  8  1  0
M  END
>  <ID>  (1) 
conformer_0

$$$$
