
     RDKit          3D

  7  6  0  0  0  0  0  0  0  0999 V2000
   -4.3805   74.2696    4.1792 C   0  0  0  0  0  0  0  0  0  0  0  0
   -4.8296   77.0270    4.9526 C   0  0  0  0  0  0  0  0  0  0  0  0
   -2.9632   76.8686    6.8631 S   0  0  0  0  0  0  0  0  0  0  0  0
   -3.4706   74.9301    5.1705 C   0  0  0  0  0  0  0  0  0  0  0  0
   -5.4494   73.7040    4.8266 O   0  0  0  0  0  0  0  0  0  0  0  0
   -5.7633   76.5617    4.0064 O   0  0  0  0  0  0  0  0  0  0  0  0
   -4.1231   76.1753    5.8787 C   0  0  0  0  0  0  0  0  0  0  0  0
  1  4  1  0
  1  5  1  0
  2  6  1  0
  2  7  1  0
  3  7  1  0
  4  7  1  0
M  END
>  <ID>  (1) 
conformer_0

$$$$
