
     RDKit          3D

 19 20  0  0  0  0  0  0  0  0999 V2000
   -2.1845   76.6366    6.7402 N   0  0  0  0  0  0  0  0  0  0  0  0
   -3.4259   76.9946    7.4844 C   0  0  0  0  0  0  0  0  0  0  0  0
   -0.0740   77.6593    7.5987 C   0  0  0  0  0  0  0  0  0  0  0  0
   -0.0073   76.1975    5.7303 C   0  0  0  0  0  0  0  0  0  0  0  0
    1.2828   77.9205    7.4669 C   0  0  0  0  0  0  0  0  0  0  0  0
    1.9890   77.2966    6.4575 C   0  0  0  0  0  0  0  0  0  0  0  0
   -6.3969   74.3124    3.7330 O   0  0  0  0  0  0  0  0  0  0  0  0
   -4.7316   73.7356    5.4339 C   0  0  0  0  0  0  0  0  0  0  0  0
   -4.5046   75.6886    3.8626 C   0  0  0  0  0  0  0  0  0  0  0  0
   -5.0991   76.4571    2.9042 O   0  0  0  0  0  0  0  0  0  0  0  0
   -3.9926   77.8928    4.8383 O   0  0  0  0  0  0  0  0  0  0  0  0
   -4.1053   76.4987    5.1116 C   0  0  0  0  0  0  0  0  0  0  0  0
   -5.0458   74.3058    4.1133 C   0  0  0  0  0  0  0  0  0  0  0  0
   -2.7533   79.3219    7.0916 O   0  0  0  0  0  0  0  0  0  0  0  0
    1.3455   76.4270    5.5898 C   0  0  0  0  0  0  0  0  0  0  0  0
   -3.7487   78.5145    7.6337 C   0  0  0  0  0  0  0  0  0  0  0  0
   -0.7299   76.8274    6.7120 C   0  0  0  0  0  0  0  0  0  0  0  0
   -2.6510   75.9590    5.5109 C   0  0  0  0  0  0  0  0  0  0  0  0
   -4.6629   76.4539    6.6458 C   0  0  0  0  0  0  0  0  0  0  0  0
  1  2  1  0
  1 17  1  0
  1 18  1  0
  2 16  1  0
  2 19  1  0
  3  5  2  0
  3 17  1  0
  4 15  1  0
  4 17  2  0
  5  6  1  0
  6 15  2  0
  7 13  1  0
  8 13  1  0
  9 10  1  0
  9 12  1  0
  9 13  1  0
 11 12  1  0
 12 18  1  0
 12 19  1  0
 14 16  1  0
M  END
>  <ID>  (1) 
conformer_0

$$$$
