
     RDKit          3D

  9  8  0  0  0  0  0  0  0  0999 V2000
   -3.9552   77.1746    8.4361 O   0  0  0  0  0  0  0  0  0  0  0  0
   -3.3820   74.3367    3.7566 O   0  0  0  0  0  0  0  0  0  0  0  0
   -4.2514   74.3180    4.6914 C   0  0  0  0  0  0  0  0  0  0  0  0
   -4.5108   73.3565    5.4955 O   0  0  0  0  0  0  0  0  0  0  0  0
   -4.8796   76.6058    4.0028 C   0  0  0  0  0  0  0  0  0  0  0  0
   -6.2776   76.4677    3.6210 O   0  0  0  0  0  0  0  0  0  0  0  0
   -3.7511   76.4253    6.1467 C   0  0  0  0  0  0  0  0  0  0  0  0
   -4.7551   77.2363    7.1650 C   0  0  0  0  0  0  0  0  0  0  0  0
   -4.6596   75.6758    5.1737 C   0  0  0  0  0  0  0  0  0  0  0  0
  1  8  1  0
  2  3  2  0
  3  4  1  0
  3  9  1  0
  5  6  1  0
  5  9  1  0
  7  8  1  0
  7  9  1  0
M  END
>  <ID>  (1) 
conformer_0

$$$$
