
     RDKit          3D

  7  6  0  0  0  0  0  0  0  0999 V2000
   -2.5168   75.3227    4.6975 O   0  0  0  0  0  0  0  0  0  0  0  0
   -4.8202   74.8188    4.3129 C   0  0  0  0  0  0  0  0  0  0  0  0
   -3.7925   75.9591    4.8295 C   0  0  0  0  0  0  0  0  0  0  0  0
   -4.4362   73.5634    5.0273 C   0  0  0  0  0  0  0  0  0  0  0  0
   -4.0293   76.1587    6.2978 C   0  0  0  0  0  0  0  0  0  0  0  0
   -3.9969   77.0829    4.1192 O   0  0  0  0  0  0  0  0  0  0  0  0
   -5.9174   75.4631    3.7573 O   0  0  0  0  0  0  0  0  0  0  0  0
  1  3  1  0
  2  3  1  0
  2  4  1  0
  2  7  1  0
  3  5  1  0
  3  6  1  0
M  END
>  <ID>  (1) 
conformer_0

$$$$
