
     RDKit          3D

 11 10  0  0  0  0  0  0  0  0999 V2000
   -6.2158   74.1005    3.9764 N   0  0  0  0  0  0  0  0  0  0  0  0
   -3.5299   75.8545    5.7823 C   0  0  0  0  0  0  0  0  0  0  0  0
   -3.0017   79.0589    7.3934 O   0  0  0  0  0  0  0  0  0  0  0  0
   -4.0172   77.1086    6.5234 C   0  0  0  0  0  0  0  0  0  0  0  0
   -4.8936   73.9873    4.6508 C   0  0  0  0  0  0  0  0  0  0  0  0
   -4.9685   77.9295    5.9303 O   0  0  0  0  0  0  0  0  0  0  0  0
   -4.2322   75.4222    4.4785 C   0  0  0  0  0  0  0  0  0  0  0  0
   -1.6377   76.9913    7.4418 C   0  0  0  0  0  0  0  0  0  0  0  0
   -2.9250   77.7257    7.3666 C   0  0  0  0  0  0  0  0  0  0  0  0
   -3.2241   75.1457    3.4918 O   0  0  0  0  0  0  0  0  0  0  0  0
   -5.3937   76.2098    3.9014 C   0  0  0  0  0  0  0  0  0  0  0  0
  1  5  1  0
  2  4  1  0
  2  7  1  0
  3  9  1  0
  4  6  1  0
  4  9  1  0
  5  7  1  0
  7 10  1  0
  7 11  1  0
  8  9  1  0
M  END
>  <ID>  (1) 
conformer_0

$$$$
