
     RDKit          3D

 14 14  0  0  0  0  0  0  0  0999 V2000
   -5.4467   73.7663    4.2747 O   0  0  0  0  0  0  0  0  0  0  0  0
   -3.7417   78.4765    7.5509 C   0  0  0  0  0  0  0  0  0  0  0  0
   -4.0178   75.5420    5.0858 C   0  0  0  0  0  0  0  0  0  0  0  0
   -1.0283   77.5250    7.3513 C   0  0  0  0  0  0  0  0  0  0  0  0
   -3.5056   77.2130    6.8002 C   0  0  0  0  0  0  0  0  0  0  0  0
   -3.9141   73.2365    5.8569 O   0  0  0  0  0  0  0  0  0  0  0  0
   -2.4589   75.5195    5.4937 C   0  0  0  0  0  0  0  0  0  0  0  0
   -4.6472   76.1257    3.8247 C   0  0  0  0  0  0  0  0  0  0  0  0
   -5.5646   77.7250    5.7150 N   0  0  0  0  0  0  0  0  0  0  0  0
   -6.0328   76.4506    3.6812 O   0  0  0  0  0  0  0  0  0  0  0  0
   -2.1422   76.8688    6.3094 C   0  0  0  0  0  0  0  0  0  0  0  0
   -1.0458   74.4759    6.2824 Cl  0  0  0  0  0  0  0  0  0  0  0  0
   -4.4455   76.8856    5.7122 C   0  0  0  0  0  0  0  0  0  0  0  0
   -4.4090   74.0225    4.9617 C   0  0  0  0  0  0  0  0  0  0  0  0
  1 14  2  0
  2  5  1  0
  3  7  1  0
  3  8  1  0
  3 13  1  0
  3 14  1  0
  4 11  1  0
  5 11  1  0
  5 13  1  0
  6 14  1  0
  7 11  1  0
  7 12  1  0
  8 10  1  0
  9 13  1  0
M  END
>  <ID>  (1) 
conformer_0

$$$$
