
     RDKit          3D

 19 19  0  0  0  0  0  0  0  0999 V2000
   -2.1745   77.8559    6.0383 C   0  0  0  0  0  0  0  0  0  0  0  0
   -4.6228   73.7173    4.6166 C   0  0  0  0  0  0  0  0  0  0  0  0
    0.7521   80.0718    6.9044 C   0  0  0  0  0  0  0  0  0  0  0  0
   -0.7638   75.3050    6.6456 C   0  0  0  0  0  0  0  0  0  0  0  0
   -4.6365   77.6537    5.5639 C   0  0  0  0  0  0  0  0  0  0  0  0
   -3.7300   74.8663    5.1069 C   0  0  0  0  0  0  0  0  0  0  0  0
   -5.7443   75.9800    4.2679 N   0  0  0  0  0  0  0  0  0  0  0  0
    1.1921   78.5920    6.9561 C   0  0  0  0  0  0  0  0  0  0  0  0
   -1.8030   76.4041    6.0490 C   0  0  0  0  0  0  0  0  0  0  0  0
   -4.7174   76.0731    5.4167 C   0  0  0  0  0  0  0  0  0  0  0  0
   -0.3264   77.6935    8.7378 C   0  0  0  0  0  0  0  0  0  0  0  0
   -5.4236   76.9546    3.2807 O   0  0  0  0  0  0  0  0  0  0  0  0
   -5.8643   73.6257    5.3007 N   0  0  0  0  0  0  0  0  0  0  0  0
   -3.6937   79.5794    6.6168 O   0  0  0  0  0  0  0  0  0  0  0  0
   -0.6208   79.9607    6.3130 C   0  0  0  0  0  0  0  0  0  0  0  0
   -0.0403   77.8909    7.2478 C   0  0  0  0  0  0  0  0  0  0  0  0
   -1.1381   78.6412    6.6199 N   0  0  0  0  0  0  0  0  0  0  0  0
   -2.8280   75.1737    4.0777 O   0  0  0  0  0  0  0  0  0  0  0  0
   -3.5612   78.1399    6.5309 C   0  0  0  0  0  0  0  0  0  0  0  0
  1  9  1  0
  1 17  1  0
  1 19  1  0
  2  6  1  0
  2 13  1  0
  3  8  1  0
  3 15  1  0
  4  9  1  0
  5 10  1  0
  5 19  1  0
  6 10  1  0
  6 18  1  0
  7 10  1  0
  7 12  1  0
  8 16  1  0
 11 16  1  0
 14 19  1  0
 15 17  1  0
 16 17  1  0
M  END
>  <ID>  (1) 
conformer_0

$$$$
