
     RDKit          3D

  6  5  0  0  0  0  0  0  0  0999 V2000
   -4.8171   76.7585    4.8662 C   0  0  0  0  0  0  0  0  0  0  0  0
   -3.9489   74.3636    4.8432 C   0  0  0  0  0  0  0  0  0  0  0  0
   -3.8223   75.7807    5.3758 C   0  0  0  0  0  0  0  0  0  0  0  0
   -5.8099   76.2296    3.9299 O   0  0  0  0  0  0  0  0  0  0  0  0
   -3.1509   75.9198    6.4946 O   0  0  0  0  0  0  0  0  0  0  0  0
   -5.2202   73.7608    5.0323 O   0  0  0  0  0  0  0  0  0  0  0  0
  1  3  1  0
  1  4  1  0
  2  3  1  0
  2  6  1  0
  3  5  1  0
M  END
>  <ID>  (1) 
conformer_0

$$$$
