
     RDKit          3D

 14 15  0  0  0  0  0  0  0  0999 V2000
   -1.3758   76.9753    6.3233 C   0  0  0  0  0  0  0  0  0  0  0  0
   -2.2025   79.0719    7.1548 C   0  0  0  0  0  0  0  0  0  0  0  0
   -3.5213   78.6492    6.9747 C   0  0  0  0  0  0  0  0  0  0  0  0
   -3.1168   75.4532    5.0463 C   0  0  0  0  0  0  0  0  0  0  0  0
   -1.1383   78.2362    6.8443 C   0  0  0  0  0  0  0  0  0  0  0  0
   -4.5372   76.9020    3.7451 O   0  0  0  0  0  0  0  0  0  0  0  0
   -3.7411   77.4105    6.4164 C   0  0  0  0  0  0  0  0  0  0  0  0
   -4.4995   73.4860    4.7850 C   0  0  0  0  0  0  0  0  0  0  0  0
   -6.4192   74.7886    3.6326 N   0  0  0  0  0  0  0  0  0  0  0  0
   -4.5034   75.7913    4.5540 C   0  0  0  0  0  0  0  0  0  0  0  0
   -5.0617   74.5471    3.9254 C   0  0  0  0  0  0  0  0  0  0  0  0
   -0.2197   76.0616    6.1980 C   0  0  0  0  0  0  0  0  0  0  0  0
   -3.1440   73.9736    5.1890 C   0  0  0  0  0  0  0  0  0  0  0  0
   -2.7047   76.5868    5.9719 C   0  0  0  0  0  0  0  0  0  0  0  0
  1  5  2  0
  1 12  1  0
  1 14  1  0
  2  3  1  0
  2  5  1  0
  3  7  2  0
  4 10  1  0
  4 13  1  0
  4 14  1  0
  6 10  1  0
  7 14  1  0
  8 11  1  0
  8 13  1  0
  9 11  1  0
 10 11  1  0
M  END
>  <ID>  (1) 
conformer_0

$$$$
