
     RDKit          3D

  8  7  0  0  0  0  0  0  0  0999 V2000
   -2.7691   75.3414    4.5986 O   0  0  0  0  0  0  0  0  0  0  0  0
   -5.1520   76.2065    3.4647 C   0  0  0  0  0  0  0  0  0  0  0  0
   -4.6281   76.7934    4.7372 C   0  0  0  0  0  0  0  0  0  0  0  0
   -3.8565   75.5354    5.5128 C   0  0  0  0  0  0  0  0  0  0  0  0
   -5.3859   73.6795    4.4980 N   0  0  0  0  0  0  0  0  0  0  0  0
   -6.4970   75.8952    3.5900 O   0  0  0  0  0  0  0  0  0  0  0  0
   -3.7694   76.0466    6.9650 C   0  0  0  0  0  0  0  0  0  0  0  0
   -4.5952   74.1942    5.5350 C   0  0  0  0  0  0  0  0  0  0  0  0
  1  4  1  0
  2  3  1  0
  2  6  1  0
  3  4  1  0
  4  7  1  0
  4  8  1  0
  5  8  1  0
M  END
>  <ID>  (1) 
conformer_0

$$$$
