
     RDKit          3D

  9  9  0  0  0  0  0  0  0  0999 V2000
   -5.1659   73.5909    4.9995 O   0  0  0  0  0  0  0  0  0  0  0  0
   -3.8654   76.3302    6.2463 C   0  0  0  0  0  0  0  0  0  0  0  0
   -4.7427   76.9779    5.1693 C   0  0  0  0  0  0  0  0  0  0  0  0
   -5.1650   75.8603    4.2084 C   0  0  0  0  0  0  0  0  0  0  0  0
   -3.4376   75.0482    5.6916 O   0  0  0  0  0  0  0  0  0  0  0  0
   -4.2972   74.6187    4.5564 C   0  0  0  0  0  0  0  0  0  0  0  0
   -4.8922   76.2655    2.8978 O   0  0  0  0  0  0  0  0  0  0  0  0
   -3.0412   78.4758    6.9092 O   0  0  0  0  0  0  0  0  0  0  0  0
   -2.7904   77.0496    6.9581 C   0  0  0  0  0  0  0  0  0  0  0  0
  1  6  1  0
  2  3  1  0
  2  5  1  0
  2  9  1  0
  3  4  1  0
  4  6  1  0
  4  7  1  0
  5  6  1  0
  8  9  1  0
M  END
>  <ID>  (1) 
conformer_0

$$$$
