
     RDKit          3D

 13 12  0  0  0  0  0  0  0  0999 V2000
   -3.2842   78.5036    6.4319 C   0  0  0  0  0  0  0  0  0  0  0  0
   -3.0031   77.1001    5.8216 C   0  0  0  0  0  0  0  0  0  0  0  0
   -4.5524   75.3648    4.6059 C   0  0  0  0  0  0  0  0  0  0  0  0
   -3.9660   78.1972    7.8068 C   0  0  0  0  0  0  0  0  0  0  0  0
   -5.3521   73.2148    5.2281 N   0  0  0  0  0  0  0  0  0  0  0  0
   -2.0601   75.6775    5.6769 C   0  0  0  0  0  0  0  0  0  0  0  0
   -4.3115   76.8603    4.8793 C   0  0  0  0  0  0  0  0  0  0  0  0
   -6.3718   76.3007    3.4099 O   0  0  0  0  0  0  0  0  0  0  0  0
   -3.1096   77.2001    8.4632 O   0  0  0  0  0  0  0  0  0  0  0  0
   -4.1013   73.9100    4.9330 C   0  0  0  0  0  0  0  0  0  0  0  0
   -2.1583   79.2594    6.6463 O   0  0  0  0  0  0  0  0  0  0  0  0
   -5.5825   75.1619    3.4922 C   0  0  0  0  0  0  0  0  0  0  0  0
   -5.4782   77.5089    5.4492 O   0  0  0  0  0  0  0  0  0  0  0  0
  1  2  1  0
  1  4  1  0
  1 11  1  0
  2  6  1  0
  2  7  1  0
  3  7  1  0
  3 10  1  0
  3 12  1  0
  4  9  1  0
  5 10  1  0
  7 13  1  0
  8 12  1  0
M  END
>  <ID>  (1) 
conformer_0

$$$$
