
     RDKit          3D

 12 11  0  0  0  0  0  0  0  0999 V2000
   -1.8989   75.4119    5.7418 C   0  0  0  0  0  0  0  0  0  0  0  0
   -4.0422   74.8651    4.0164 C   0  0  0  0  0  0  0  0  0  0  0  0
   -5.2365   75.6375    3.6864 C   0  0  0  0  0  0  0  0  0  0  0  0
   -3.3539   75.0841    6.4193 C   0  0  0  0  0  0  0  0  0  0  0  0
   -4.8393   73.2768    5.6366 N   0  0  0  0  0  0  0  0  0  0  0  0
   -3.9962   74.2105    5.3418 C   0  0  0  0  0  0  0  0  0  0  0  0
   -1.8198   77.2702    7.6081 C   0  0  0  0  0  0  0  0  0  0  0  0
   -4.1764   76.4083    6.5524 C   0  0  0  0  0  0  0  0  0  0  0  0
   -5.1892   76.8081    3.2286 O   0  0  0  0  0  0  0  0  0  0  0  0
   -5.0060   77.6379    5.8208 C   0  0  0  0  0  0  0  0  0  0  0  0
   -1.1464   76.3508    6.6431 C   0  0  0  0  0  0  0  0  0  0  0  0
   -6.3380   74.9102    3.6498 N   0  0  0  0  0  0  0  0  0  0  0  0
  1  4  1  0
  1 11  1  0
  2  3  1  0
  2  6  1  0
  3  9  2  0
  3 12  1  0
  4  6  1  0
  4  8  1  0
  5  6  2  0
  7 11  1  0
  8 10  1  0
M  END
>  <ID>  (1) 
conformer_0

$$$$
