
     RDKit          3D

 14 15  0  0  0  0  0  0  0  0999 V2000
   -3.1523   74.9942    5.0259 C   0  0  0  0  0  0  0  0  0  0  0  0
   -3.3975   77.8573    5.6180 C   0  0  0  0  0  0  0  0  0  0  0  0
   -3.2224   79.8760    6.7634 C   0  0  0  0  0  0  0  0  0  0  0  0
   -3.0762   79.1826    5.6430 N   0  0  0  0  0  0  0  0  0  0  0  0
   -3.6524   79.2995    7.9022 C   0  0  0  0  0  0  0  0  0  0  0  0
   -5.8281   76.9039    3.4887 O   0  0  0  0  0  0  0  0  0  0  0  0
   -3.9322   77.9282    7.9348 C   0  0  0  0  0  0  0  0  0  0  0  0
   -5.1274   75.8260    3.8281 C   0  0  0  0  0  0  0  0  0  0  0  0
   -5.5618   74.5207    3.7404 C   0  0  0  0  0  0  0  0  0  0  0  0
   -3.8578   76.0201    4.4764 C   0  0  0  0  0  0  0  0  0  0  0  0
   -4.7609   73.5026    4.2777 C   0  0  0  0  0  0  0  0  0  0  0  0
   -3.3809   77.2720    4.3938 N   0  0  0  0  0  0  0  0  0  0  0  0
   -3.7559   77.2161    6.7916 C   0  0  0  0  0  0  0  0  0  0  0  0
   -3.5652   73.7083    4.9244 C   0  0  0  0  0  0  0  0  0  0  0  0
  1 10  2  0
  1 14  1  0
  2  4  1  0
  2 12  1  0
  2 13  2  0
  3  4  2  0
  3  5  1  0
  5  7  2  0
  6  8  1  0
  7 13  1  0
  8  9  2  0
  8 10  1  0
  9 11  1  0
 10 12  1  0
 11 14  2  0
M  END
>  <ID>  (1) 
conformer_0

$$$$
