
     RDKit          3D

  6  5  0  0  0  0  0  0  0  0999 V2000
   -4.3913   77.2372    7.8687 C   0  0  0  0  0  0  0  0  0  0  0  0
   -4.6411   75.6368    6.0551 N   0  0  0  0  0  0  0  0  0  0  0  0
   -5.5724   75.4498    3.8878 N   0  0  0  0  0  0  0  0  0  0  0  0
   -4.4969   75.1727    4.7339 C   0  0  0  0  0  0  0  0  0  0  0  0
   -4.0953   73.7285    4.7239 C   0  0  0  0  0  0  0  0  0  0  0  0
   -3.9461   76.9095    6.3616 C   0  0  0  0  0  0  0  0  0  0  0  0
  1  6  1  0
  2  4  1  0
  2  6  1  0
  3  4  1  0
  4  5  1  0
M  END
>  <ID>  (1) 
conformer_0

$$$$
