
     RDKit          3D

 31 34  0  0  0  0  0  0  0  0999 V2000
   -5.3483   76.5779    7.9409 O   0  0  0  0  0  0  0  0  0  0  0  0
   -3.0345   77.6815    8.2237 N   0  0  0  0  0  0  0  0  0  0  0  0
    2.2351   77.8141    6.9656 O   0  0  0  0  0  0  0  0  0  0  0  0
   -0.4233   78.0853    7.9769 C   0  0  0  0  0  0  0  0  0  0  0  0
   -2.2306   74.8145    5.6567 C   0  0  0  0  0  0  0  0  0  0  0  0
   -2.7467   79.6281    6.5324 C   0  0  0  0  0  0  0  0  0  0  0  0
   -5.3521   77.2241    4.2981 O   0  0  0  0  0  0  0  0  0  0  0  0
   -3.1463   73.5219    5.6880 N   0  0  0  0  0  0  0  0  0  0  0  0
    0.7940   78.1774    6.9737 C   0  0  0  0  0  0  0  0  0  0  0  0
   -5.1526   78.8977    7.9765 C   0  0  0  0  0  0  0  0  0  0  0  0
   -4.5021   77.5421    8.4921 C   0  0  0  0  0  0  0  0  0  0  0  0
   -4.8119   80.8740    6.8198 O   0  0  0  0  0  0  0  0  0  0  0  0
    0.7979   79.5894    6.7455 O   0  0  0  0  0  0  0  0  0  0  0  0
    0.6168   81.3763    5.4299 C   0  0  0  0  0  0  0  0  0  0  0  0
   -0.2849   76.0661    6.2620 O   0  0  0  0  0  0  0  0  0  0  0  0
   -1.6146   76.1174    6.8471 C   0  0  0  0  0  0  0  0  0  0  0  0
   -1.5885   80.4960    5.9673 C   0  0  0  0  0  0  0  0  0  0  0  0
   -5.1179   75.9730    4.0160 C   0  0  0  0  0  0  0  0  0  0  0  0
    0.3080   77.3095    5.7719 C   0  0  0  0  0  0  0  0  0  0  0  0
   -1.7395   77.5195    7.5466 C   0  0  0  0  0  0  0  0  0  0  0  0
   -5.4633   73.7802    4.5949 N   0  0  0  0  0  0  0  0  0  0  0  0
   -6.0337   75.0146    3.9345 N   0  0  0  0  0  0  0  0  0  0  0  0
   -2.0984   81.5284    5.2011 C   0  0  0  0  0  0  0  0  0  0  0  0
   -4.2126   73.9054    4.8505 C   0  0  0  0  0  0  0  0  0  0  0  0
   -4.0982   79.6753    7.1415 C   0  0  0  0  0  0  0  0  0  0  0  0
   -3.7401   75.3943    4.6143 C   0  0  0  0  0  0  0  0  0  0  0  0
   -0.0902   80.4480    6.0870 C   0  0  0  0  0  0  0  0  0  0  0  0
   -4.4444   77.2468    9.8133 O   0  0  0  0  0  0  0  0  0  0  0  0
   -1.3404   82.4445    4.5248 C   0  0  0  0  0  0  0  0  0  0  0  0
   -2.8250   76.4954    4.4962 O   0  0  0  0  0  0  0  0  0  0  0  0
    0.0598   82.3593    4.6512 C   0  0  0  0  0  0  0  0  0  0  0  0
  1 11  1  0
  2 11  1  0
  2 20  1  0
  3  9  1  0
  4  9  1  0
  4 20  1  0
  5  8  1  0
  5 16  1  0
  6 17  1  0
  6 25  1  0
  7 18  2  0
  8 24  2  3
  9 13  1  0
  9 19  1  0
 10 11  1  0
 10 25  1  0
 11 28  1  0
 12 25  1  0
 13 27  1  0
 14 27  2  0
 14 31  1  0
 15 16  1  0
 15 19  1  0
 16 20  1  0
 17 23  1  0
 17 27  1  0
 18 22  1  0
 18 26  1  0
 21 22  1  0
 21 24  1  0
 23 29  2  0
 24 26  1  0
 26 30  1  0
 29 31  1  0
M  END
>  <ID>  (1) 
conformer_0

$$$$
