
     RDKit          3D

 10  9  0  0  0  0  0  0  0  0999 V2000
   -3.8613   78.4623    6.9242 O   0  0  0  0  0  0  0  0  0  0  0  0
   -3.5379   75.1259    5.4405 C   0  0  0  0  0  0  0  0  0  0  0  0
   -5.1884   76.7239    4.4398 C   0  0  0  0  0  0  0  0  0  0  0  0
   -2.6420   75.4582    4.3879 O   0  0  0  0  0  0  0  0  0  0  0  0
   -5.7764   74.1147    4.2670 O   0  0  0  0  0  0  0  0  0  0  0  0
   -4.4830   74.0005    4.9280 C   0  0  0  0  0  0  0  0  0  0  0  0
   -4.8078   76.3229    3.1322 O   0  0  0  0  0  0  0  0  0  0  0  0
   -3.7118   77.1936    6.7978 C   0  0  0  0  0  0  0  0  0  0  0  0
   -2.8395   76.4753    7.4679 O   0  0  0  0  0  0  0  0  0  0  0  0
   -4.4884   76.4171    5.7684 C   0  0  0  0  0  0  0  0  0  0  0  0
  1  8  2  0
  2  4  1  0
  2  6  1  0
  2 10  1  0
  3  7  1  0
  3 10  1  0
  5  6  1  0
  8  9  1  0
  8 10  1  0
M  END
>  <ID>  (1) 
conformer_0

$$$$
