
     RDKit          3D

  6  5  0  0  0  0  0  0  0  0999 V2000
   -5.0758   74.8354    3.7954 C   0  0  0  0  0  0  0  0  0  0  0  0
   -3.1215   74.1083    5.1289 C   0  0  0  0  0  0  0  0  0  0  0  0
   -4.3585   74.9936    5.0842 C   0  0  0  0  0  0  0  0  0  0  0  0
   -4.1350   76.4686    5.3997 C   0  0  0  0  0  0  0  0  0  0  0  0
   -3.3167   76.7149    6.5848 C   0  0  0  0  0  0  0  0  0  0  0  0
   -5.2858   77.2178    5.1666 N   0  0  0  0  0  0  0  0  0  0  0  0
  1  3  1  0
  2  3  1  0
  3  4  1  0
  4  5  1  0
  4  6  1  0
M  END
>  <ID>  (1) 
conformer_0

$$$$
