
     RDKit          3D

  9  8  0  0  0  0  0  0  0  0999 V2000
   -3.8075   76.6281    6.4165 N   0  0  0  0  0  0  0  0  0  0  0  0
   -3.4367   75.5369    5.3657 C   0  0  0  0  0  0  0  0  0  0  0  0
   -5.0812   77.2728    6.0682 C   0  0  0  0  0  0  0  0  0  0  0  0
   -1.7501   77.3473    7.5264 C   0  0  0  0  0  0  0  0  0  0  0  0
   -4.4206   74.9449    4.4293 C   0  0  0  0  0  0  0  0  0  0  0  0
   -6.0770   76.5347    3.6645 O   0  0  0  0  0  0  0  0  0  0  0  0
   -4.9174   75.7505    3.4219 O   0  0  0  0  0  0  0  0  0  0  0  0
   -5.0183   73.8186    4.6987 O   0  0  0  0  0  0  0  0  0  0  0  0
   -3.2427   77.6639    7.4673 C   0  0  0  0  0  0  0  0  0  0  0  0
  1  2  1  0
  1  3  1  0
  1  9  1  0
  2  5  1  0
  4  9  1  0
  5  7  1  0
  5  8  2  0
  6  7  1  0
M  END
>  <ID>  (1) 
conformer_0

$$$$
