
     RDKit          3D

 24 26  0  0  0  0  0  0  0  0999 V2000
    1.9129   75.9461    5.4364 C   0  0  0  0  0  0  0  0  0  0  0  0
   -4.2884   75.5220    5.2829 C   0  0  0  0  0  0  0  0  0  0  0  0
   -3.8765   73.9453    5.0929 C   0  0  0  0  0  0  0  0  0  0  0  0
   -5.2308   73.4225    5.1437 O   0  0  0  0  0  0  0  0  0  0  0  0
    0.7084   76.1129    6.0385 C   0  0  0  0  0  0  0  0  0  0  0  0
   -2.2027   75.2544    6.4737 O   0  0  0  0  0  0  0  0  0  0  0  0
   -4.9404   79.7213    7.1138 C   0  0  0  0  0  0  0  0  0  0  0  0
   -4.1915   77.4730    8.1848 C   0  0  0  0  0  0  0  0  0  0  0  0
   -2.3059   78.1542    6.6551 C   0  0  0  0  0  0  0  0  0  0  0  0
    0.8836   78.5141    5.8073 C   0  0  0  0  0  0  0  0  0  0  0  0
   -3.6789   80.1319    6.4642 C   0  0  0  0  0  0  0  0  0  0  0  0
    3.7256   76.9780    4.3540 F   0  0  0  0  0  0  0  0  0  0  0  0
    2.0624   78.3746    5.2282 C   0  0  0  0  0  0  0  0  0  0  0  0
   -3.3323   77.3118    6.9436 C   0  0  0  0  0  0  0  0  0  0  0  0
    0.1428   77.3957    6.1225 C   0  0  0  0  0  0  0  0  0  0  0  0
   -5.9169   74.2423    4.1319 N   0  0  0  0  0  0  0  0  0  0  0  0
   -1.1325   77.6294    6.4733 C   0  0  0  0  0  0  0  0  0  0  0  0
   -2.5135   79.4729    6.4458 N   0  0  0  0  0  0  0  0  0  0  0  0
   -5.1045   78.6532    8.1549 C   0  0  0  0  0  0  0  0  0  0  0  0
   -3.3110   75.9819    6.3723 C   0  0  0  0  0  0  0  0  0  0  0  0
   -4.6075   75.8052    2.8949 O   0  0  0  0  0  0  0  0  0  0  0  0
   -6.0898   76.7192    4.1959 O   0  0  0  0  0  0  0  0  0  0  0  0
   -5.2834   75.5987    4.0143 C   0  0  0  0  0  0  0  0  0  0  0  0
    2.5589   77.0978    5.0049 C   0  0  0  0  0  0  0  0  0  0  0  0
  1  5  1  0
  1 24  2  0
  2  3  1  0
  2 20  1  0
  2 23  1  0
  3  4  1  0
  4 16  1  0
  5 15  1  0
  6 20  1  0
  7 11  1  0
  7 19  1  0
  8 14  1  0
  8 19  1  0
  9 14  1  0
  9 17  2  0
  9 18  1  0
 10 13  2  0
 10 15  1  0
 11 18  1  0
 12 24  1  0
 13 24  1  0
 14 20  1  0
 15 17  2  0
 16 23  1  0
 21 23  1  0
 22 23  1  0
M  END
>  <ID>  (1) 
conformer_0

$$$$
