
     RDKit          3D

  8  7  0  0  0  0  0  0  0  0999 V2000
   -4.6936   76.3188    6.9928 O   0  0  0  0  0  0  0  0  0  0  0  0
   -5.8184   76.0339    3.7682 O   0  0  0  0  0  0  0  0  0  0  0  0
   -4.5729   76.2615    4.4365 C   0  0  0  0  0  0  0  0  0  0  0  0
   -4.8669   78.1946    5.7960 O   0  0  0  0  0  0  0  0  0  0  0  0
   -3.5226   75.0905    4.6550 C   0  0  0  0  0  0  0  0  0  0  0  0
   -4.7892   76.9037    5.8187 C   0  0  0  0  0  0  0  0  0  0  0  0
   -4.4279   74.1281    5.4614 C   0  0  0  0  0  0  0  0  0  0  0  0
   -5.2871   73.5786    4.3961 O   0  0  0  0  0  0  0  0  0  0  0  0
  1  6  2  0
  2  3  1  0
  3  5  1  0
  3  6  1  0
  4  6  1  0
  5  7  1  0
  7  8  1  0
M  END
>  <ID>  (1) 
conformer_0

$$$$
