
     RDKit          3D

 22 23  0  0  0  0  0  0  0  0999 V2000
   -5.1121   74.7884    3.8554 C   0  0  0  0  0  0  0  0  0  0  0  0
   -4.5069   73.2647    5.6147 O   0  0  0  0  0  0  0  0  0  0  0  0
   -3.0722   76.3907    6.9078 N   0  0  0  0  0  0  0  0  0  0  0  0
    0.9490   77.4669    7.6352 C   0  0  0  0  0  0  0  0  0  0  0  0
   -1.2223   78.1298    6.8917 N   0  0  0  0  0  0  0  0  0  0  0  0
    1.9657   76.4386    7.9533 C   0  0  0  0  0  0  0  0  0  0  0  0
   -5.8688   76.9537    3.1219 O   0  0  0  0  0  0  0  0  0  0  0  0
   -2.4954   78.6620    7.1935 C   0  0  0  0  0  0  0  0  0  0  0  0
   -3.0177   76.7264    5.3522 C   0  0  0  0  0  0  0  0  0  0  0  0
    2.9507   76.8246    8.8557 O   0  0  0  0  0  0  0  0  0  0  0  0
   -6.3643   74.2406    3.8713 O   0  0  0  0  0  0  0  0  0  0  0  0
    0.6407   78.5822    8.5867 C   0  0  0  0  0  0  0  0  0  0  0  0
   -2.8472   75.2963    4.7330 C   0  0  0  0  0  0  0  0  0  0  0  0
   -5.1992   76.3171    4.0313 C   0  0  0  0  0  0  0  0  0  0  0  0
    3.0134   78.2937    8.9854 C   0  0  0  0  0  0  0  0  0  0  0  0
   -4.3096   77.6139    8.4413 O   0  0  0  0  0  0  0  0  0  0  0  0
    1.6747   78.6378    9.6235 C   0  0  0  0  0  0  0  0  0  0  0  0
   -4.5033   77.1291    5.0515 C   0  0  0  0  0  0  0  0  0  0  0  0
   -0.3369   75.2752    6.8056 C   0  0  0  0  0  0  0  0  0  0  0  0
   -0.4374   76.9492    7.1572 C   0  0  0  0  0  0  0  0  0  0  0  0
   -3.4405   77.6000    7.5439 C   0  0  0  0  0  0  0  0  0  0  0  0
   -4.1178   74.4673    5.0869 C   0  0  0  0  0  0  0  0  0  0  0  0
  1 11  1  0
  1 14  1  0
  1 22  1  0
  2 22  1  0
  3  9  1  0
  3 21  1  0
  4  6  1  0
  4 12  1  0
  4 20  1  0
  5  8  1  0
  5 20  1  0
  6 10  1  0
  7 14  1  0
  8 21  1  0
  9 13  1  0
  9 18  1  0
 10 15  1  0
 12 17  1  0
 13 22  1  0
 14 18  1  0
 15 17  1  0
 16 21  2  0
 19 20  1  0
M  END
>  <ID>  (1) 
conformer_0

$$$$
