
     RDKit          3D

 11 10  0  0  0  0  0  0  0  0999 V2000
   -5.1135   75.9730    3.8854 C   0  0  0  0  0  0  0  0  0  0  0  0
   -2.2838   77.5137    7.1103 C   0  0  0  0  0  0  0  0  0  0  0  0
   -3.0353   77.6555    4.7732 O   0  0  0  0  0  0  0  0  0  0  0  0
   -4.8112   73.8161    5.0977 F   0  0  0  0  0  0  0  0  0  0  0  0
   -4.9334   75.9729    2.6059 O   0  0  0  0  0  0  0  0  0  0  0  0
   -3.5103   77.5136    8.2262 S   0  0  0  0  0  0  0  0  0  0  0  0
   -4.1841   75.0848    4.7011 C   0  0  0  0  0  0  0  0  0  0  0  0
   -3.0371   74.7254    3.9652 O   0  0  0  0  0  0  0  0  0  0  0  0
   -2.6775   76.7857    5.8326 C   0  0  0  0  0  0  0  0  0  0  0  0
   -5.6989   77.0274    4.4187 O   0  0  0  0  0  0  0  0  0  0  0  0
   -3.8455   75.8027    6.0479 C   0  0  0  0  0  0  0  0  0  0  0  0
  1  5  2  0
  1  7  1  0
  1 10  1  0
  2  6  1  0
  2  9  1  0
  3  9  1  0
  4  7  1  0
  7  8  1  0
  7 11  1  0
  9 11  1  0
M  END
>  <ID>  (1) 
conformer_0

$$$$
