
     RDKit          3D

  7  6  0  0  0  0  0  0  0  0999 V2000
   -3.3266   75.3567    5.4873 C   0  0  0  0  0  0  0  0  0  0  0  0
   -5.6577   76.5446    4.1700 O   0  0  0  0  0  0  0  0  0  0  0  0
   -3.7978   76.6669    6.2119 C   0  0  0  0  0  0  0  0  0  0  0  0
   -4.9806   73.5538    5.3445 O   0  0  0  0  0  0  0  0  0  0  0  0
   -5.1020   75.2903    3.7189 C   0  0  0  0  0  0  0  0  0  0  0  0
   -4.2892   74.5332    4.6853 C   0  0  0  0  0  0  0  0  0  0  0  0
   -2.7467   77.1972    7.2600 C   0  0  0  0  0  0  0  0  0  0  0  0
  1  3  1  0
  1  6  1  0
  2  5  1  0
  3  7  1  0
  4  6  1  0
  5  6  1  0
M  END
>  <ID>  (1) 
conformer_0

$$$$
