
     RDKit          3D

 23 23  0  0  0  0  0  0  0  0999 V2000
    2.5015   77.7459    6.8446 C   0  0  0  0  0  0  0  0  0  0  0  0
   -4.7588   78.1522    6.6553 C   0  0  0  0  0  0  0  0  0  0  0  0
   -1.2931   78.1227    7.7282 C   0  0  0  0  0  0  0  0  0  0  0  0
   -3.8938   73.1163    5.7257 O   0  0  0  0  0  0  0  0  0  0  0  0
   -5.3338   74.4042    4.3390 N   0  0  0  0  0  0  0  0  0  0  0  0
    1.0803   79.7451    7.2816 C   0  0  0  0  0  0  0  0  0  0  0  0
   -1.8765   74.8779    5.4698 C   0  0  0  0  0  0  0  0  0  0  0  0
   -4.9315   77.3636    9.0334 C   0  0  0  0  0  0  0  0  0  0  0  0
   -4.7229   79.8483    8.3112 O   0  0  0  0  0  0  0  0  0  0  0  0
   -0.1017   76.2404    6.5240 C   0  0  0  0  0  0  0  0  0  0  0  0
   -4.2523   76.7048    6.6537 O   0  0  0  0  0  0  0  0  0  0  0  0
   -0.0251   77.5447    7.1805 C   0  0  0  0  0  0  0  0  0  0  0  0
   -3.2282   75.2759    4.8642 C   0  0  0  0  0  0  0  0  0  0  0  0
    1.2515   78.2417    7.5745 C   0  0  0  0  0  0  0  0  0  0  0  0
   -4.8527   78.5293    8.0861 C   0  0  0  0  0  0  0  0  0  0  0  0
   -4.8361   76.7059    3.0705 O   0  0  0  0  0  0  0  0  0  0  0  0
   -5.3226   76.7633    4.5146 C   0  0  0  0  0  0  0  0  0  0  0  0
    1.4602   77.9905    8.9850 O   0  0  0  0  0  0  0  0  0  0  0  0
   -4.1966   74.1321    5.0397 C   0  0  0  0  0  0  0  0  0  0  0  0
   -3.9753   76.5553    5.2072 C   0  0  0  0  0  0  0  0  0  0  0  0
    0.9299   75.5039    6.3151 O   0  0  0  0  0  0  0  0  0  0  0  0
   -5.3645   75.5590    3.5133 C   0  0  0  0  0  0  0  0  0  0  0  0
   -1.4297   75.5939    6.6685 C   0  0  0  0  0  0  0  0  0  0  0  0
  1 14  1  0
  2 11  1  0
  2 15  1  0
  3 12  1  0
  4 19  2  0
  5 19  1  0
  5 22  1  0
  6 14  1  0
  7 13  1  0
  7 23  1  0
  8 15  1  0
  9 15  1  0
 10 12  1  0
 10 21  2  0
 10 23  1  0
 11 20  1  0
 12 14  1  0
 13 19  1  0
 13 20  1  0
 14 18  1  0
 16 22  1  0
 17 20  1  0
 17 22  1  0
M  END
>  <ID>  (1) 
conformer_0

$$$$
