
     RDKit          3D

 11 11  0  0  0  0  0  0  0  0999 V2000
   -2.0489   75.4907    5.9024 C   0  0  0  0  0  0  0  0  0  0  0  0
   -6.3273   74.6532    3.6905 O   0  0  0  0  0  0  0  0  0  0  0  0
   -3.3981   75.8242    5.6687 C   0  0  0  0  0  0  0  0  0  0  0  0
   -5.3742   76.7735    3.6268 O   0  0  0  0  0  0  0  0  0  0  0  0
   -4.2627   73.4914    5.2508 C   0  0  0  0  0  0  0  0  0  0  0  0
   -5.3850   75.5143    3.9480 C   0  0  0  0  0  0  0  0  0  0  0  0
   -1.8621   77.2352    7.5162 C   0  0  0  0  0  0  0  0  0  0  0  0
   -3.9607   76.8922    6.3634 C   0  0  0  0  0  0  0  0  0  0  0  0
   -4.2137   74.9560    4.6901 C   0  0  0  0  0  0  0  0  0  0  0  0
   -1.2899   76.1997    6.8197 C   0  0  0  0  0  0  0  0  0  0  0  0
   -3.1906   77.5851    7.2930 C   0  0  0  0  0  0  0  0  0  0  0  0
  1  3  2  0
  1 10  1  0
  2  6  2  0
  3  8  1  0
  3  9  1  0
  4  6  1  0
  5  9  1  0
  6  9  1  0
  7 10  2  0
  7 11  1  0
  8 11  2  0
M  END
>  <ID>  (1) 
conformer_0

$$$$
