
     RDKit          3D

 13 13  0  0  0  0  0  0  0  0999 V2000
   -4.3904   75.2654    4.5167 C   0  0  0  0  0  0  0  0  0  0  0  0
   -5.5297   76.1310    3.9866 C   0  0  0  0  0  0  0  0  0  0  0  0
   -2.3532   75.9004    5.6915 C   0  0  0  0  0  0  0  0  0  0  0  0
   -3.8431   75.7607    5.7929 N   0  0  0  0  0  0  0  0  0  0  0  0
   -2.3884   77.8109    7.3510 C   0  0  0  0  0  0  0  0  0  0  0  0
   -3.8992   77.4601    7.6506 C   0  0  0  0  0  0  0  0  0  0  0  0
   -4.5208   73.7728    4.5366 C   0  0  0  0  0  0  0  0  0  0  0  0
   -1.6559   76.6155    6.8176 C   0  0  0  0  0  0  0  0  0  0  0  0
   -4.9415   76.8276    2.8904 O   0  0  0  0  0  0  0  0  0  0  0  0
   -4.6098   76.8279    6.4137 C   0  0  0  0  0  0  0  0  0  0  0  0
   -0.3765   76.3039    7.5730 C   0  0  0  0  0  0  0  0  0  0  0  0
   -5.4778   73.4223    5.5504 O   0  0  0  0  0  0  0  0  0  0  0  0
   -5.5382   77.8280    5.9248 O   0  0  0  0  0  0  0  0  0  0  0  0
  1  2  1  0
  1  4  1  0
  1  7  1  0
  2  9  1  0
  3  4  1  0
  3  8  1  0
  4 10  1  0
  5  6  1  0
  5  8  1  0
  6 10  1  0
  7 12  1  0
  8 11  1  0
 10 13  2  0
M  END
>  <ID>  (1) 
conformer_0

$$$$
