
     RDKit          3D

 20 23  0  0  0  0  0  0  0  0999 V2000
   -5.0611   77.1876    4.3028 C   0  0  0  0  0  0  0  0  0  0  0  0
   -0.3904   78.6196    7.6384 C   0  0  0  0  0  0  0  0  0  0  0  0
   -1.4188   76.9019    6.5486 C   0  0  0  0  0  0  0  0  0  0  0  0
   -4.7494   75.8670    4.9187 C   0  0  0  0  0  0  0  0  0  0  0  0
   -1.4249   77.5477    7.8601 C   0  0  0  0  0  0  0  0  0  0  0  0
   -3.4057   75.6361    5.5537 C   0  0  0  0  0  0  0  0  0  0  0  0
   -2.6836   76.9220    5.8691 C   0  0  0  0  0  0  0  0  0  0  0  0
   -3.1381   74.1286    5.3271 C   0  0  0  0  0  0  0  0  0  0  0  0
   -4.4930   73.4963    4.8488 C   0  0  0  0  0  0  0  0  0  0  0  0
   -2.6341   79.1151    6.7231 C   0  0  0  0  0  0  0  0  0  0  0  0
   -5.1493   76.9761    2.8597 O   0  0  0  0  0  0  0  0  0  0  0  0
   -3.2258   78.1763    5.7880 N   0  0  0  0  0  0  0  0  0  0  0  0
    0.6352   77.6568    8.0491 C   0  0  0  0  0  0  0  0  0  0  0  0
   -2.6361   78.3174    8.0397 C   0  0  0  0  0  0  0  0  0  0  0  0
   -0.1967   76.3457    6.2017 C   0  0  0  0  0  0  0  0  0  0  0  0
   -6.3849   74.7327    3.5387 O   0  0  0  0  0  0  0  0  0  0  0  0
    0.7980   76.5367    7.1934 C   0  0  0  0  0  0  0  0  0  0  0  0
   -5.5626   73.3741    5.8198 O   0  0  0  0  0  0  0  0  0  0  0  0
   -5.0116   74.6744    3.9098 C   0  0  0  0  0  0  0  0  0  0  0  0
   -1.1544   79.4206    6.5665 C   0  0  0  0  0  0  0  0  0  0  0  0
  1  4  1  0
  1 11  1  0
  2  5  1  0
  2 13  1  0
  2 20  1  0
  3  5  1  0
  3  7  1  0
  3 15  1  0
  4  6  1  0
  4 19  1  0
  5 14  1  0
  6  7  1  0
  6  8  1  0
  7 12  1  0
  8  9  1  0
  9 18  1  0
  9 19  1  0
 10 12  1  0
 10 14  1  0
 10 20  1  0
 13 17  2  0
 15 17  1  0
 16 19  1  0
M  END
>  <ID>  (1) 
conformer_0

$$$$
