
     RDKit          3D

 12 13  0  0  0  0  0  0  0  0999 V2000
   -5.1335   76.4893    4.8741 C   0  0  0  0  0  0  0  0  0  0  0  0
   -3.9349   76.7301    5.7446 C   0  0  0  0  0  0  0  0  0  0  0  0
   -4.8648   75.8129    2.6729 O   0  0  0  0  0  0  0  0  0  0  0  0
   -3.9698   77.9620    6.3913 C   0  0  0  0  0  0  0  0  0  0  0  0
   -6.3753   74.5272    3.8728 O   0  0  0  0  0  0  0  0  0  0  0  0
   -2.8683   75.8616    5.9692 C   0  0  0  0  0  0  0  0  0  0  0  0
   -2.9305   78.2773    7.2705 C   0  0  0  0  0  0  0  0  0  0  0  0
   -4.1179   74.0998    4.5805 C   0  0  0  0  0  0  0  0  0  0  0  0
   -2.7614   74.4492    5.3350 C   0  0  0  0  0  0  0  0  0  0  0  0
   -1.8170   76.2072    6.8509 C   0  0  0  0  0  0  0  0  0  0  0  0
   -5.1173   75.2303    3.9119 C   0  0  0  0  0  0  0  0  0  0  0  0
   -1.8738   77.4189    7.4851 C   0  0  0  0  0  0  0  0  0  0  0  0
  1  2  1  0
  1 11  1  0
  2  4  1  0
  2  6  2  0
  3 11  1  0
  4  7  2  0
  5 11  1  0
  6  9  1  0
  6 10  1  0
  7 12  1  0
  8  9  1  0
  8 11  1  0
 10 12  2  0
M  END
>  <ID>  (1) 
conformer_0

$$$$
