
     RDKit          3D

  8  7  0  0  0  0  0  0  0  0999 V2000
   -3.9295   77.0627    7.6682 O   0  0  0  0  0  0  0  0  0  0  0  0
   -3.7032   76.1527    6.5348 C   0  0  0  0  0  0  0  0  0  0  0  0
   -4.8695   76.4989    5.5072 C   0  0  0  0  0  0  0  0  0  0  0  0
   -5.1173   76.2412    3.0959 O   0  0  0  0  0  0  0  0  0  0  0  0
   -5.0498   77.8526    5.3430 O   0  0  0  0  0  0  0  0  0  0  0  0
   -5.5621   73.7790    4.8821 O   0  0  0  0  0  0  0  0  0  0  0  0
   -4.3239   74.3222    4.3695 C   0  0  0  0  0  0  0  0  0  0  0  0
   -4.4543   75.8004    4.1736 C   0  0  0  0  0  0  0  0  0  0  0  0
  1  2  1  0
  2  3  1  0
  3  5  1  0
  3  8  1  0
  4  8  1  0
  6  7  1  0
  7  8  1  0
M  END
>  <ID>  (1) 
conformer_0

$$$$
