
     RDKit          3D

  8  7  0  0  0  0  0  0  0  0999 V2000
   -4.3836   73.9997    4.5686 C   0  0  0  0  0  0  0  0  0  0  0  0
   -4.8541   73.4315    5.7672 O   0  0  0  0  0  0  0  0  0  0  0  0
   -3.6112   76.1366    5.5930 C   0  0  0  0  0  0  0  0  0  0  0  0
   -4.9504   76.0748    3.3176 O   0  0  0  0  0  0  0  0  0  0  0  0
   -5.3674   75.0079    3.9047 C   0  0  0  0  0  0  0  0  0  0  0  0
   -4.9268   76.0065    6.2927 O   0  0  0  0  0  0  0  0  0  0  0  0
   -3.0650   74.8315    4.8610 C   0  0  0  0  0  0  0  0  0  0  0  0
   -6.5547   74.5243    3.7621 O   0  0  0  0  0  0  0  0  0  0  0  0
  1  2  1  0
  1  5  1  0
  1  7  1  0
  3  6  1  0
  3  7  1  0
  4  5  2  0
  5  8  1  0
M  END
>  <ID>  (1) 
conformer_0

$$$$
