
     RDKit          3D

 10 10  0  0  0  0  0  0  0  0999 V2000
  -16.9068   16.2353  -26.4051 C   0  0  0  0  0  0  0  0  0  0  0  0
  -18.0455   15.8831  -26.8358 C   0  0  0  0  0  0  0  0  0  0  0  0
  -17.0847   17.6831  -25.7773 C   0  0  0  0  0  0  0  0  0  0  0  0
  -18.0455   14.5447  -27.5967 C   0  0  0  0  0  0  0  0  0  0  0  0
  -15.8564   18.1990  -25.1307 C   0  0  0  0  0  0  0  0  0  0  0  0
  -19.1088   16.5216  -26.9787 C   0  0  0  0  0  0  0  0  0  0  0  0
  -18.2491   18.2360  -25.7680 C   0  0  0  0  0  0  0  0  0  0  0  0
  -20.3853   15.9308  -27.5737 C   0  0  0  0  0  0  0  0  0  0  0  0
  -19.3274   17.7482  -26.3199 C   0  0  0  0  0  0  0  0  0  0  0  0
  -20.7769   16.5213  -28.5701 O   0  0  0  0  0  0  0  0  0  0  0  0
  1  2  1  0
  1  3  2  0
  2  4  1  0
  3  5  1  0
  2  6  2  0
  3  7  1  0
  6  8  1  0
  6  9  1  0
  7  9  2  0
  8 10  1  0
M  END
>  <ID>  (1) 
conformer_0

$$$$
