
     RDKit          3D

 11 12  0  0  0  0  0  0  0  0999 V2000
  -16.9068   16.2353  -26.4051 C   0  0  0  0  0  0  0  0  0  0  0  0
  -17.4096   17.0712  -25.5153 C   0  0  0  0  0  0  0  0  0  0  0  0
  -17.8172   15.7472  -27.3101 C   0  0  0  0  0  0  0  0  0  0  0  0
  -18.7880   17.4335  -25.4867 C   0  0  0  0  0  0  0  0  0  0  0  0
  -19.2606   18.3119  -24.4216 C   0  0  0  0  0  0  0  0  0  0  0  0
  -17.3340   14.8006  -28.3488 O   0  0  0  0  0  0  0  0  0  0  0  0
  -20.4681   18.1257  -23.9836 C   0  0  0  0  0  0  0  0  0  0  0  0
  -21.1410   17.4594  -25.0598 O   0  0  0  0  0  0  0  0  0  0  0  0
  -19.1578   15.8799  -27.2121 C   0  0  0  0  0  0  0  0  0  0  0  0
  -19.5943   16.7372  -26.2395 C   0  0  0  0  0  0  0  0  0  0  0  0
  -20.9232   16.8070  -26.0265 C   0  0  0  0  0  0  0  0  0  0  0  0
  1  2  2  0
  1  3  1  0
  2  4  1  0
  4  5  1  0
  3  6  1  0
  5  7  2  0
  7  8  1  0
  3  9  2  0
  4 10  2  0
  9 10  1  0
  8 11  1  0
 10 11  1  0
M  END
>  <ID>  (1) 
conformer_0

$$$$
