
     RDKit          3D

 10 10  0  0  0  0  0  0  0  0999 V2000
  -16.9068   16.2353  -26.4051 C   0  0  0  0  0  0  0  0  0  0  0  0
  -17.4096   17.0712  -25.5153 C   0  0  0  0  0  0  0  0  0  0  0  0
  -15.5883   15.9503  -26.4691 C   0  0  0  0  0  0  0  0  0  0  0  0
  -16.6532   17.6143  -24.5147 C   0  0  0  0  0  0  0  0  0  0  0  0
  -18.8256   17.3322  -25.5648 C   0  0  0  0  0  0  0  0  0  0  0  0
  -17.8470   15.7681  -27.1954 C   0  0  0  0  0  0  0  0  0  0  0  0
  -17.4058   14.7929  -28.3643 C   0  0  0  0  0  0  0  0  0  0  0  0
  -19.3082   16.4571  -26.7546 S   0  0  0  0  0  0  0  0  0  0  0  0
  -19.6423   18.0702  -24.6394 C   0  0  0  0  0  0  0  0  0  0  0  0
  -18.2750   14.8641  -29.4222 O   0  0  0  0  0  0  0  0  0  0  0  0
  1  2  1  0
  1  3  1  0
  2  4  1  0
  2  5  2  0
  1  6  2  0
  6  7  1  0
  5  8  1  0
  6  8  1  0
  5  9  1  0
  7 10  1  0
M  END
>  <ID>  (1) 
conformer_0

$$$$
