
     RDKit          3D

 11 12  0  0  0  0  0  0  0  0999 V2000
  -16.9068   16.2353  -26.4051 C   0  0  0  0  0  0  0  0  0  0  0  0
  -18.0455   15.8831  -26.8358 C   0  0  0  0  0  0  0  0  0  0  0  0
  -15.8694   15.9585  -26.7364 C   0  0  0  0  0  0  0  0  0  0  0  0
  -19.3970   16.3003  -26.5081 C   0  0  0  0  0  0  0  0  0  0  0  0
  -18.0774   15.2893  -28.0571 C   0  0  0  0  0  0  0  0  0  0  0  0
  -19.3378   15.0345  -28.7618 O   0  0  0  0  0  0  0  0  0  0  0  0
  -15.6695   15.1516  -28.0801 C   0  0  0  0  0  0  0  0  0  0  0  0
  -20.1626   16.1088  -28.5862 C   0  0  0  0  0  0  0  0  0  0  0  0
  -19.5670   16.9766  -25.2922 O   0  0  0  0  0  0  0  0  0  0  0  0
  -20.5430   15.9966  -27.0734 C   0  0  0  0  0  0  0  0  0  0  0  0
  -16.9121   14.6982  -28.5740 C   0  0  0  0  0  0  0  0  0  0  0  0
  1  2  1  0
  1  3  2  0
  2  4  1  0
  2  5  2  0
  5  6  1  0
  3  7  1  0
  6  8  1  0
  4  9  2  0
  4 10  1  0
  8 10  1  0
  5 11  1  0
  7 11  2  0
M  END
>  <ID>  (1) 
conformer_0

$$$$
