
     RDKit          3D

  9  9  0  0  0  0  0  0  0  0999 V2000
  -16.9068   16.2353  -26.4051 C   0  0  0  0  0  0  0  0  0  0  0  0
  -18.0455   15.8831  -26.8358 C   0  0  0  0  0  0  0  0  0  0  0  0
  -19.2118   16.6704  -26.8048 C   0  0  0  0  0  0  0  0  0  0  0  0
  -19.5148   17.0825  -25.6278 C   0  0  0  0  0  0  0  0  0  0  0  0
  -18.3783   17.7785  -24.9032 C   0  0  0  0  0  0  0  0  0  0  0  0
  -17.0982   16.9453  -25.0448 C   0  0  0  0  0  0  0  0  0  0  0  0
  -15.7466   15.5034  -26.3717 O   0  0  0  0  0  0  0  0  0  0  0  0
  -20.3227   16.2425  -27.7255 C   0  0  0  0  0  0  0  0  0  0  0  0
  -20.3573   16.6707  -28.7529 O   0  0  0  0  0  0  0  0  0  0  0  0
  1  2  1  0
  2  3  1  0
  3  4  1  0
  4  5  1  0
  1  6  1  0
  5  6  1  0
  1  7  1  0
  3  8  1  0
  8  9  1  0
M  END
>  <ID>  (1) 
conformer_0

$$$$
