
     RDKit          3D

 12 12  0  0  0  0  0  0  0  0999 V2000
  -16.9068   16.2353  -26.4051 C   0  0  0  0  0  0  0  0  0  0  0  0
  -18.0455   15.8831  -26.8358 C   0  0  0  0  0  0  0  0  0  0  0  0
  -19.2118   16.6704  -26.8048 C   0  0  0  0  0  0  0  0  0  0  0  0
  -20.5381   16.1304  -27.2518 C   0  0  0  0  0  0  0  0  0  0  0  0
  -19.2741   17.8513  -26.2469 C   0  0  0  0  0  0  0  0  0  0  0  0
  -20.3673   18.6482  -26.0297 O   0  0  0  0  0  0  0  0  0  0  0  0
  -20.6512   15.9923  -28.5950 N   0  0  0  0  0  0  0  0  0  0  0  0
  -21.9310   16.0618  -29.2039 C   0  0  0  0  0  0  0  0  0  0  0  0
  -21.9090   15.9479  -30.6812 C   0  0  0  0  0  0  0  0  0  0  0  0
  -18.1783   18.3432  -25.8408 C   0  0  0  0  0  0  0  0  0  0  0  0
  -16.8347   17.6182  -25.8446 C   0  0  0  0  0  0  0  0  0  0  0  0
  -22.9653   16.1188  -28.6266 O   0  0  0  0  0  0  0  0  0  0  0  0
  1  2  1  0
  2  3  2  0
  3  4  1  0
  3  5  1  0
  5  6  1  0
  4  7  1  0
  7  8  1  0
  8  9  1  0
  5 10  2  0
  1 11  2  0
 10 11  1  0
  8 12  2  0
M  END
>  <ID>  (1) 
conformer_0

$$$$
