
     RDKit          3D

  8  8  0  0  0  0  0  0  0  0999 V2000
  -16.9068   16.2353  -26.4051 C   0  0  0  0  0  0  0  0  0  0  0  0
  -18.0455   15.8831  -26.8358 C   0  0  0  0  0  0  0  0  0  0  0  0
  -17.0825   17.3309  -25.5123 C   0  0  0  0  0  0  0  0  0  0  0  0
  -18.0129   14.7257  -27.9029 C   0  0  0  0  0  0  0  0  0  0  0  0
  -15.9004   17.9278  -24.8502 N   0  0  0  0  0  0  0  0  0  0  0  0
  -19.2929   16.3703  -26.5573 C   0  0  0  0  0  0  0  0  0  0  0  0
  -18.3725   17.8060  -25.1296 C   0  0  0  0  0  0  0  0  0  0  0  0
  -19.3484   17.3754  -25.5958 C   0  0  0  0  0  0  0  0  0  0  0  0
  1  2  1  0
  1  3  2  0
  2  4  1  0
  3  5  1  0
  2  6  2  0
  3  7  1  0
  6  8  1  0
  7  8  2  0
M  END
>  <ID>  (1) 
conformer_0

$$$$
