
     RDKit          3D

 12 13  0  0  0  0  0  0  0  0999 V2000
  -16.9068   16.2353  -26.4051 C   0  0  0  0  0  0  0  0  0  0  0  0
  -18.0455   15.8831  -26.8358 C   0  0  0  0  0  0  0  0  0  0  0  0
  -19.2118   16.6704  -26.8048 C   0  0  0  0  0  0  0  0  0  0  0  0
  -15.7325   15.7548  -26.5900 C   0  0  0  0  0  0  0  0  0  0  0  0
  -19.6032   17.0722  -25.6345 C   0  0  0  0  0  0  0  0  0  0  0  0
  -19.9833   16.8264  -27.9041 C   0  0  0  0  0  0  0  0  0  0  0  0
  -18.0606   14.6850  -27.5634 C   0  0  0  0  0  0  0  0  0  0  0  0
  -21.2736   17.5332  -27.8042 C   0  0  0  0  0  0  0  0  0  0  0  0
  -16.6998   14.0481  -27.7711 C   0  0  0  0  0  0  0  0  0  0  0  0
  -15.6555   14.6418  -27.2260 C   0  0  0  0  0  0  0  0  0  0  0  0
  -20.8489   17.8318  -25.4653 C   0  0  0  0  0  0  0  0  0  0  0  0
  -21.5915   18.0145  -26.6554 C   0  0  0  0  0  0  0  0  0  0  0  0
  1  2  1  0
  2  3  1  0
  1  4  2  0
  3  5  1  0
  3  6  2  0
  2  7  2  0
  6  8  1  0
  7  9  1  0
  4 10  1  0
  9 10  2  0
  5 11  2  0
  8 12  2  0
 11 12  1  0
M  END
>  <ID>  (1) 
conformer_0

$$$$
