
     RDKit          3D

  9  9  0  0  0  0  0  0  0  0999 V2000
  -16.9068   16.2353  -26.4051 C   0  0  0  0  0  0  0  0  0  0  0  0
  -17.4096   17.0712  -25.5153 C   0  0  0  0  0  0  0  0  0  0  0  0
  -16.6580   17.7067  -24.4586 C   0  0  0  0  0  0  0  0  0  0  0  0
  -17.8101   15.9206  -27.3089 C   0  0  0  0  0  0  0  0  0  0  0  0
  -19.1268   16.3840  -27.0646 C   0  0  0  0  0  0  0  0  0  0  0  0
  -18.9664   17.2282  -25.8672 C   0  0  0  0  0  0  0  0  0  0  0  0
  -20.3318   16.1435  -27.6429 C   0  0  0  0  0  0  0  0  0  0  0  0
  -20.2488   15.4242  -28.8526 N   0  0  0  0  0  0  0  0  0  0  0  0
  -21.5263   16.2437  -26.8402 C   0  0  0  0  0  0  0  0  0  0  0  0
  1  2  1  0
  2  3  1  0
  1  4  2  0
  4  5  1  0
  2  6  2  0
  5  6  1  0
  5  7  2  3
  7  8  1  0
  7  9  1  0
M  END
>  <ID>  (1) 
conformer_0

$$$$
