
     RDKit          3D

 11 11  0  0  0  0  0  0  0  0999 V2000
  -16.9068   16.2353  -26.4051 C   0  0  0  0  0  0  0  0  0  0  0  0
  -17.4096   17.0712  -25.5153 C   0  0  0  0  0  0  0  0  0  0  0  0
  -17.8381   15.9665  -27.3496 C   0  0  0  0  0  0  0  0  0  0  0  0
  -18.7148   17.4563  -25.3323 C   0  0  0  0  0  0  0  0  0  0  0  0
  -19.5629   17.1359  -26.1104 C   0  0  0  0  0  0  0  0  0  0  0  0
  -19.2294   16.2296  -27.1875 C   0  0  0  0  0  0  0  0  0  0  0  0
  -17.5148   15.0096  -28.4147 C   0  0  0  0  0  0  0  0  0  0  0  0
  -16.5041   14.2007  -28.3499 O   0  0  0  0  0  0  0  0  0  0  0  0
  -18.1760   15.0731  -29.5357 N   0  0  0  0  0  0  0  0  0  0  0  0
  -19.0552   18.3560  -24.2087 O   0  0  0  0  0  0  0  0  0  0  0  0
  -20.1874   18.1077  -23.5243 C   0  0  0  0  0  0  0  0  0  0  0  0
  1  2  2  0
  1  3  1  0
  2  4  1  0
  4  5  2  0
  3  6  2  0
  5  6  1  0
  3  7  1  0
  7  8  2  0
  7  9  1  0
  4 10  1  0
 10 11  1  0
M  END
>  <ID>  (1) 
conformer_0

$$$$
