
     RDKit          3D

 11 12  0  0  0  0  0  0  0  0999 V2000
  -16.9068   16.2353  -26.4051 C   0  0  0  0  0  0  0  0  0  0  0  0
  -17.4096   17.0712  -25.5153 C   0  0  0  0  0  0  0  0  0  0  0  0
  -17.8381   15.9665  -27.3496 C   0  0  0  0  0  0  0  0  0  0  0  0
  -17.4032   15.0095  -28.4685 C   0  0  0  0  0  0  0  0  0  0  0  0
  -19.1501   16.3240  -27.3190 C   0  0  0  0  0  0  0  0  0  0  0  0
  -20.1303   15.7999  -28.2776 C   0  0  0  0  0  0  0  0  0  0  0  0
  -19.7144   15.8361  -29.5889 C   0  0  0  0  0  0  0  0  0  0  0  0
  -19.3714   17.1158  -26.1829 C   0  0  0  0  0  0  0  0  0  0  0  0
  -18.4822   15.0048  -29.5908 N   0  0  0  0  0  0  0  0  0  0  0  0
  -18.5736   17.4676  -25.2531 C   0  0  0  0  0  0  0  0  0  0  0  0
  -20.4992   15.3318  -30.5680 O   0  0  0  0  0  0  0  0  0  0  0  0
  1  2  2  0
  1  3  1  0
  3  4  1  0
  3  5  2  0
  5  6  1  0
  6  7  1  0
  5  8  1  0
  4  9  2  0
  7  9  1  0
  2 10  1  0
  8 10  2  0
  7 11  1  0
M  END
>  <ID>  (1) 
conformer_0

$$$$
