
     RDKit          3D

 10 10  0  0  0  0  0  0  0  0999 V2000
  -16.9068   16.2353  -26.4051 C   0  0  0  0  0  0  0  0  0  0  0  0
  -17.4096   17.0712  -25.5153 C   0  0  0  0  0  0  0  0  0  0  0  0
  -17.8327   15.6977  -27.2851 C   0  0  0  0  0  0  0  0  0  0  0  0
  -18.6025   17.5272  -25.3984 C   0  0  0  0  0  0  0  0  0  0  0  0
  -19.1638   16.0607  -27.2289 C   0  0  0  0  0  0  0  0  0  0  0  0
  -19.0227   18.4380  -24.3547 C   0  0  0  0  0  0  0  0  0  0  0  0
  -18.2884   18.8370  -23.4633 O   0  0  0  0  0  0  0  0  0  0  0  0
  -20.1977   18.9997  -24.6088 N   0  0  0  0  0  0  0  0  0  0  0  0
  -19.5578   16.9389  -26.2286 C   0  0  0  0  0  0  0  0  0  0  0  0
  -15.5662   15.9177  -26.5536 N   0  0  0  0  0  0  0  0  0  0  0  0
  1  2  1  0
  1  3  2  0
  2  4  2  0
  3  5  1  0
  4  6  1  0
  6  7  2  0
  6  8  1  0
  4  9  1  0
  5  9  2  0
  1 10  1  0
M  END
>  <ID>  (1) 
conformer_0

$$$$
