
     RDKit          3D

 10 11  0  0  0  0  0  0  0  0999 V2000
  -16.9068   16.2353  -26.4051 C   0  0  0  0  0  0  0  0  0  0  0  0
  -17.4096   17.0712  -25.5153 C   0  0  0  0  0  0  0  0  0  0  0  0
  -18.5425   17.5652  -25.6472 C   0  0  0  0  0  0  0  0  0  0  0  0
  -17.6818   15.9078  -27.3656 C   0  0  0  0  0  0  0  0  0  0  0  0
  -19.1321   18.5549  -24.5678 C   0  0  0  0  0  0  0  0  0  0  0  0
  -19.0004   16.2778  -27.5452 C   0  0  0  0  0  0  0  0  0  0  0  0
  -20.3843   18.5104  -24.4390 C   0  0  0  0  0  0  0  0  0  0  0  0
  -19.5449   17.2362  -26.4773 C   0  0  0  0  0  0  0  0  0  0  0  0
  -20.8246   17.6183  -26.3356 C   0  0  0  0  0  0  0  0  0  0  0  0
  -21.2182   18.1596  -25.4052 N   0  0  0  0  0  0  0  0  0  0  0  0
  1  2  1  0
  2  3  2  0
  1  4  2  0
  3  5  1  0
  4  6  1  0
  5  7  2  0
  3  8  1  0
  6  8  2  0
  8  9  1  0
  7 10  1  0
  9 10  2  0
M  END
>  <ID>  (1) 
conformer_0

$$$$
