
     RDKit          3D

  9  9  0  0  0  0  0  0  0  0999 V2000
  -16.9068   16.2353  -26.4051 C   0  0  0  0  0  0  0  0  0  0  0  0
  -18.0455   15.8831  -26.8358 C   0  0  0  0  0  0  0  0  0  0  0  0
  -19.2743   16.3063  -26.3599 C   0  0  0  0  0  0  0  0  0  0  0  0
  -19.2393   17.2481  -25.4059 C   0  0  0  0  0  0  0  0  0  0  0  0
  -18.0018   17.6976  -24.9875 C   0  0  0  0  0  0  0  0  0  0  0  0
  -17.9504   18.7927  -23.9502 C   0  0  0  0  0  0  0  0  0  0  0  0
  -17.9064   14.9789  -27.8158 O   0  0  0  0  0  0  0  0  0  0  0  0
  -16.8038   17.2671  -25.4427 C   0  0  0  0  0  0  0  0  0  0  0  0
  -15.6113   15.9383  -27.0000 C   0  0  0  0  0  0  0  0  0  0  0  0
  1  2  1  0
  2  3  1  0
  3  4  2  0
  4  5  1  0
  5  6  1  0
  2  7  2  0
  1  8  1  0
  5  8  2  0
  1  9  1  0
M  END
>  <ID>  (1) 
conformer_0

$$$$
