
     RDKit          3D

 10 10  0  0  0  0  0  0  0  0999 V2000
  -16.9068   16.2353  -26.4051 C   0  0  0  0  0  0  0  0  0  0  0  0
  -17.4096   17.0712  -25.5153 C   0  0  0  0  0  0  0  0  0  0  0  0
  -18.7587   17.3660  -25.4291 C   0  0  0  0  0  0  0  0  0  0  0  0
  -19.2999   18.1786  -24.3492 C   0  0  0  0  0  0  0  0  0  0  0  0
  -18.0928   15.7490  -27.2484 C   0  0  0  0  0  0  0  0  0  0  0  0
  -19.7236   16.8605  -26.1358 C   0  0  0  0  0  0  0  0  0  0  0  0
  -17.6335   14.8053  -28.3843 C   0  0  0  0  0  0  0  0  0  0  0  0
  -21.0849   17.1263  -25.9206 C   0  0  0  0  0  0  0  0  0  0  0  0
  -19.2322   16.0073  -27.0534 C   0  0  0  0  0  0  0  0  0  0  0  0
  -15.6562   15.9917  -26.6573 O   0  0  0  0  0  0  0  0  0  0  0  0
  1  2  2  0
  2  3  1  0
  3  4  1  0
  1  5  1  0
  3  6  2  0
  5  7  1  0
  6  8  1  0
  5  9  2  0
  6  9  1  0
  1 10  1  0
M  END
>  <ID>  (1) 
conformer_0

$$$$
