
     RDKit          3D

 11 11  0  0  0  0  0  0  0  0999 V2000
  -16.9068   16.2353  -26.4051 C   0  0  0  0  0  0  0  0  0  0  0  0
  -18.0455   15.8831  -26.8358 C   0  0  0  0  0  0  0  0  0  0  0  0
  -19.2118   16.6704  -26.8048 C   0  0  0  0  0  0  0  0  0  0  0  0
  -19.2473   17.7863  -25.9775 C   0  0  0  0  0  0  0  0  0  0  0  0
  -20.4218   16.1272  -27.4647 C   0  0  0  0  0  0  0  0  0  0  0  0
  -20.3756   16.0001  -28.7854 N   0  0  0  0  0  0  0  0  0  0  0  0
  -18.0108   18.1855  -25.3470 C   0  0  0  0  0  0  0  0  0  0  0  0
  -21.6826   16.4543  -27.0474 N   0  0  0  0  0  0  0  0  0  0  0  0
  -16.8322   17.4299  -25.5324 C   0  0  0  0  0  0  0  0  0  0  0  0
  -21.7389   15.7636  -29.0915 N   0  0  0  0  0  0  0  0  0  0  0  0
  -22.1545   15.2903  -30.4167 O   0  0  0  0  0  0  0  0  0  0  0  0
  1  2  1  0
  2  3  2  0
  3  4  1  0
  3  5  1  0
  5  6  1  0
  4  7  2  0
  5  8  2  0
  1  9  2  0
  7  9  1  0
  6 10  2  3
 10 11  1  0
M  END
>  <ID>  (1) 
conformer_0

$$$$
