
     RDKit          3D

 10 10  0  0  0  0  0  0  0  0999 V2000
  -16.9068   16.2353  -26.4051 C   0  0  0  0  0  0  0  0  0  0  0  0
  -17.4096   17.0712  -25.5153 C   0  0  0  0  0  0  0  0  0  0  0  0
  -17.8381   15.9665  -27.3496 C   0  0  0  0  0  0  0  0  0  0  0  0
  -18.7148   17.4563  -25.3323 C   0  0  0  0  0  0  0  0  0  0  0  0
  -19.1412   18.2917  -24.2395 C   0  0  0  0  0  0  0  0  0  0  0  0
  -19.1768   16.1896  -27.3042 C   0  0  0  0  0  0  0  0  0  0  0  0
  -18.4629   18.4167  -23.2062 O   0  0  0  0  0  0  0  0  0  0  0  0
  -20.4433   18.5060  -24.2194 O   0  0  0  0  0  0  0  0  0  0  0  0
  -19.6479   17.0067  -26.2102 C   0  0  0  0  0  0  0  0  0  0  0  0
  -17.4290   15.1699  -28.4933 O   0  0  0  0  0  0  0  0  0  0  0  0
  1  2  2  0
  1  3  1  0
  2  4  1  0
  4  5  1  0
  3  6  2  0
  5  7  2  0
  5  8  1  0
  4  9  2  0
  6  9  1  0
  3 10  1  0
M  END
>  <ID>  (1) 
conformer_0

$$$$
