
     RDKit          3D

  9  9  0  0  0  0  0  0  0  0999 V2000
  -16.9068   16.2353  -26.4051 C   0  0  0  0  0  0  0  0  0  0  0  0
  -17.4096   17.0712  -25.5153 C   0  0  0  0  0  0  0  0  0  0  0  0
  -18.6696   17.5621  -25.6686 C   0  0  0  0  0  0  0  0  0  0  0  0
  -17.7418   15.8129  -27.4054 C   0  0  0  0  0  0  0  0  0  0  0  0
  -18.8699   16.0698  -27.6299 C   0  0  0  0  0  0  0  0  0  0  0  0
  -19.2057   18.4656  -24.6776 C   0  0  0  0  0  0  0  0  0  0  0  0
  -19.5407   17.0271  -26.6927 C   0  0  0  0  0  0  0  0  0  0  0  0
  -15.5296   15.8520  -26.3582 N   0  0  0  0  0  0  0  0  0  0  0  0
  -20.9979   17.5118  -26.7255 C   0  0  0  0  0  0  0  0  0  0  0  0
  1  2  2  0
  2  3  1  0
  1  4  1  0
  4  5  2  0
  3  6  1  0
  3  7  2  0
  5  7  1  0
  1  8  1  0
  7  9  1  0
M  END
>  <ID>  (1) 
conformer_0

$$$$
