
     RDKit          3D

 11 11  0  0  0  0  0  0  0  0999 V2000
  -16.9068   16.2353  -26.4051 C   0  0  0  0  0  0  0  0  0  0  0  0
  -17.4096   17.0712  -25.5153 C   0  0  0  0  0  0  0  0  0  0  0  0
  -17.8172   15.7472  -27.3101 C   0  0  0  0  0  0  0  0  0  0  0  0
  -17.3313   14.8580  -28.3641 C   0  0  0  0  0  0  0  0  0  0  0  0
  -18.9942   16.1449  -27.3052 C   0  0  0  0  0  0  0  0  0  0  0  0
  -19.5987   16.9410  -26.3280 C   0  0  0  0  0  0  0  0  0  0  0  0
  -20.9789   17.3081  -26.2168 C   0  0  0  0  0  0  0  0  0  0  0  0
  -21.7452   17.1372  -26.9822 O   0  0  0  0  0  0  0  0  0  0  0  0
  -21.2906   17.9317  -25.0807 N   0  0  0  0  0  0  0  0  0  0  0  0
  -16.4450   17.6421  -24.4465 C   0  0  0  0  0  0  0  0  0  0  0  0
  -18.6688   17.4792  -25.3948 C   0  0  0  0  0  0  0  0  0  0  0  0
  1  2  2  0
  1  3  1  0
  3  4  1  0
  3  5  2  0
  5  6  1  0
  6  7  1  0
  7  8  2  0
  7  9  1  0
  2 10  1  0
  2 11  1  0
  6 11  2  0
M  END
>  <ID>  (1) 
conformer_0

$$$$
