
     RDKit          3D

 12 13  0  0  0  0  0  0  0  0999 V2000
  -16.9068   16.2353  -26.4051 C   0  0  0  0  0  0  0  0  0  0  0  0
  -17.4096   17.0712  -25.5153 C   0  0  0  0  0  0  0  0  0  0  0  0
  -15.6026   15.9190  -26.4320 C   0  0  0  0  0  0  0  0  0  0  0  0
  -17.9065   16.0734  -27.3866 C   0  0  0  0  0  0  0  0  0  0  0  0
  -19.2199   16.3242  -27.4004 C   0  0  0  0  0  0  0  0  0  0  0  0
  -19.5633   17.1134  -26.2409 C   0  0  0  0  0  0  0  0  0  0  0  0
  -20.2036   15.8765  -28.4060 C   0  0  0  0  0  0  0  0  0  0  0  0
  -20.0057   15.7248  -29.6058 N   0  0  0  0  0  0  0  0  0  0  0  0
  -18.7216   17.5291  -25.3396 C   0  0  0  0  0  0  0  0  0  0  0  0
  -21.5184   15.7331  -28.0554 C   0  0  0  0  0  0  0  0  0  0  0  0
  -22.1540   15.5677  -29.3733 N   0  0  0  0  0  0  0  0  0  0  0  0
  -21.1635   15.5430  -30.2385 N   0  0  0  0  0  0  0  0  0  0  0  0
  1  2  2  0
  1  3  1  0
  1  4  1  0
  4  5  2  0
  5  6  1  0
  5  7  1  0
  7  8  2  0
  2  9  1  0
  6  9  2  0
  7 10  1  0
 10 11  2  0
  8 12  1  0
 11 12  1  0
M  END
>  <ID>  (1) 
conformer_0

$$$$
