
     RDKit          3D

 11 12  0  0  0  0  0  0  0  0999 V2000
  -16.9068   16.2353  -26.4051 C   0  0  0  0  0  0  0  0  0  0  0  0
  -17.4096   17.0712  -25.5153 C   0  0  0  0  0  0  0  0  0  0  0  0
  -17.8172   15.7472  -27.3101 C   0  0  0  0  0  0  0  0  0  0  0  0
  -19.1518   15.9867  -27.3029 C   0  0  0  0  0  0  0  0  0  0  0  0
  -20.0778   15.3736  -28.2108 O   0  0  0  0  0  0  0  0  0  0  0  0
  -19.6312   16.9058  -26.3254 C   0  0  0  0  0  0  0  0  0  0  0  0
  -18.7443   17.4076  -25.3853 C   0  0  0  0  0  0  0  0  0  0  0  0
  -20.9805   17.1552  -26.2149 O   0  0  0  0  0  0  0  0  0  0  0  0
  -15.5374   15.9706  -26.5713 C   0  0  0  0  0  0  0  0  0  0  0  0
  -21.6403   17.2924  -27.3721 C   0  0  0  0  0  0  0  0  0  0  0  0
  -21.4142   15.9256  -28.2119 C   0  0  0  0  0  0  0  0  0  0  0  0
  1  2  2  0
  1  3  1  0
  3  4  2  0
  4  5  1  0
  4  6  1  0
  2  7  1  0
  6  7  2  0
  6  8  1  0
  1  9  1  0
  8 10  1  0
  5 11  1  0
 10 11  1  0
M  END
>  <ID>  (1) 
conformer_0

$$$$
