
     RDKit          3D

 11 12  0  0  0  0  0  0  0  0999 V2000
  -16.9068   16.2353  -26.4051 C   0  0  0  0  0  0  0  0  0  0  0  0
  -17.4096   17.0712  -25.5153 C   0  0  0  0  0  0  0  0  0  0  0  0
  -18.6696   17.5621  -25.6686 C   0  0  0  0  0  0  0  0  0  0  0  0
  -19.2708   18.4307  -24.5962 C   0  0  0  0  0  0  0  0  0  0  0  0
  -20.5934   18.4817  -24.5217 C   0  0  0  0  0  0  0  0  0  0  0  0
  -21.3497   17.9681  -25.5643 C   0  0  0  0  0  0  0  0  0  0  0  0
  -20.8553   17.2331  -26.5933 C   0  0  0  0  0  0  0  0  0  0  0  0
  -19.4981   16.9722  -26.5305 C   0  0  0  0  0  0  0  0  0  0  0  0
  -17.7836   15.7821  -27.4255 C   0  0  0  0  0  0  0  0  0  0  0  0
  -19.0398   16.1031  -27.4880 C   0  0  0  0  0  0  0  0  0  0  0  0
  -15.5476   15.9182  -26.4284 N   0  0  0  0  0  0  0  0  0  0  0  0
  1  2  2  0
  2  3  1  0
  3  4  1  0
  4  5  2  0
  5  6  1  0
  6  7  2  0
  3  8  2  0
  7  8  1  0
  1  9  1  0
  8 10  1  0
  9 10  2  0
  1 11  1  0
M  END
>  <ID>  (1) 
conformer_0

$$$$
