
     RDKit          3D

 11 11  0  0  0  0  0  0  0  0999 V2000
  -16.9068   16.2353  -26.4051 C   0  0  0  0  0  0  0  0  0  0  0  0
  -17.4096   17.0712  -25.5153 C   0  0  0  0  0  0  0  0  0  0  0  0
  -15.6026   15.9190  -26.4320 C   0  0  0  0  0  0  0  0  0  0  0  0
  -16.6019   17.5920  -24.4502 C   0  0  0  0  0  0  0  0  0  0  0  0
  -18.8025   17.2548  -25.4497 C   0  0  0  0  0  0  0  0  0  0  0  0
  -19.5498   18.0057  -24.5044 C   0  0  0  0  0  0  0  0  0  0  0  0
  -17.7897   15.9626  -27.5411 C   0  0  0  0  0  0  0  0  0  0  0  0
  -17.3508   15.1735  -28.6450 C   0  0  0  0  0  0  0  0  0  0  0  0
  -19.4644   16.8366  -26.4433 C   0  0  0  0  0  0  0  0  0  0  0  0
  -19.0214   16.0399  -27.5027 C   0  0  0  0  0  0  0  0  0  0  0  0
  -19.9705   15.7102  -28.2634 O   0  0  0  0  0  0  0  0  0  0  0  0
  1  2  2  0
  1  3  1  0
  2  4  1  0
  2  5  1  0
  5  6  1  0
  1  7  1  0
  7  8  1  0
  5  9  2  0
  7 10  2  0
  9 10  1  0
 10 11  1  0
M  END
>  <ID>  (1) 
conformer_0

$$$$
