
     RDKit          3D

 10 10  0  0  0  0  0  0  0  0999 V2000
  -16.9068   16.2353  -26.4051 C   0  0  0  0  0  0  0  0  0  0  0  0
  -18.0455   15.8831  -26.8358 C   0  0  0  0  0  0  0  0  0  0  0  0
  -17.0825   17.3309  -25.5123 C   0  0  0  0  0  0  0  0  0  0  0  0
  -19.1693   16.4060  -26.7418 C   0  0  0  0  0  0  0  0  0  0  0  0
  -20.4844   15.8418  -27.3375 C   0  0  0  0  0  0  0  0  0  0  0  0
  -19.6096   17.2812  -25.8656 C   0  0  0  0  0  0  0  0  0  0  0  0
  -18.3904   17.8398  -25.1463 C   0  0  0  0  0  0  0  0  0  0  0  0
  -15.5752   15.8542  -26.7599 C   0  0  0  0  0  0  0  0  0  0  0  0
  -20.7323   17.8036  -25.4214 C   0  0  0  0  0  0  0  0  0  0  0  0
  -20.3660   15.4402  -28.6232 O   0  0  0  0  0  0  0  0  0  0  0  0
  1  2  1  0
  1  3  2  0
  2  4  2  0
  4  5  1  0
  4  6  1  0
  3  7  1  0
  6  7  2  0
  1  8  1  0
  6  9  1  0
  5 10  1  0
M  END
>  <ID>  (1) 
conformer_0

$$$$
