
     RDKit          3D

  9  9  0  0  0  0  0  0  0  0999 V2000
  -16.9068   16.2353  -26.4051 C   0  0  0  0  0  0  0  0  0  0  0  0
  -18.0455   15.8831  -26.8358 C   0  0  0  0  0  0  0  0  0  0  0  0
  -17.0825   17.3309  -25.5123 C   0  0  0  0  0  0  0  0  0  0  0  0
  -15.9257   17.8957  -24.8127 N   0  0  0  0  0  0  0  0  0  0  0  0
  -19.3316   16.2944  -26.6609 C   0  0  0  0  0  0  0  0  0  0  0  0
  -18.3187   17.8412  -25.1082 C   0  0  0  0  0  0  0  0  0  0  0  0
  -18.4087   18.8848  -24.1663 O   0  0  0  0  0  0  0  0  0  0  0  0
  -19.5035   17.4035  -25.6456 C   0  0  0  0  0  0  0  0  0  0  0  0
  -17.9204   14.6393  -28.0856 C   0  0  0  0  0  0  0  0  0  0  0  0
  1  2  1  0
  1  3  2  0
  3  4  1  0
  2  5  2  0
  3  6  1  0
  6  7  1  0
  5  8  1  0
  6  8  2  0
  2  9  1  0
M  END
>  <ID>  (1) 
conformer_0

$$$$
