
     RDKit          3D

  9  9  0  0  0  0  0  0  0  0999 V2000
  -16.9068   16.2353  -26.4051 C   0  0  0  0  0  0  0  0  0  0  0  0
  -17.4096   17.0712  -25.5153 C   0  0  0  0  0  0  0  0  0  0  0  0
  -16.6580   17.7067  -24.4586 C   0  0  0  0  0  0  0  0  0  0  0  0
  -18.8136   17.2343  -25.4775 C   0  0  0  0  0  0  0  0  0  0  0  0
  -15.6124   16.0364  -26.5797 O   0  0  0  0  0  0  0  0  0  0  0  0
  -17.7284   15.6751  -27.2841 C   0  0  0  0  0  0  0  0  0  0  0  0
  -19.6739   16.6786  -26.3002 C   0  0  0  0  0  0  0  0  0  0  0  0
  -21.0972   16.8530  -26.2772 C   0  0  0  0  0  0  0  0  0  0  0  0
  -19.1282   15.8215  -27.2549 C   0  0  0  0  0  0  0  0  0  0  0  0
  1  2  1  0
  2  3  1  0
  2  4  2  0
  1  5  1  0
  1  6  2  0
  4  7  1  0
  7  8  1  0
  6  9  1  0
  7  9  2  0
M  END
>  <ID>  (1) 
conformer_0

$$$$
