
     RDKit          3D

 11 12  0  0  0  0  0  0  0  0999 V2000
  -16.9068   16.2353  -26.4051 C   0  0  0  0  0  0  0  0  0  0  0  0
  -17.4096   17.0712  -25.5153 C   0  0  0  0  0  0  0  0  0  0  0  0
  -18.8004   17.3056  -25.4316 C   0  0  0  0  0  0  0  0  0  0  0  0
  -19.3636   18.1336  -24.3631 C   0  0  0  0  0  0  0  0  0  0  0  0
  -19.7153   16.9535  -26.3545 C   0  0  0  0  0  0  0  0  0  0  0  0
  -17.8661   15.7391  -27.4241 C   0  0  0  0  0  0  0  0  0  0  0  0
  -20.6746   18.1431  -24.1416 C   0  0  0  0  0  0  0  0  0  0  0  0
  -15.5309   15.9875  -26.6600 C   0  0  0  0  0  0  0  0  0  0  0  0
  -19.2854   16.2598  -27.2625 C   0  0  0  0  0  0  0  0  0  0  0  0
  -21.0813   17.1558  -26.1638 C   0  0  0  0  0  0  0  0  0  0  0  0
  -21.5433   17.8591  -25.0880 N   0  0  0  0  0  0  0  0  0  0  0  0
  1  2  1  0
  2  3  2  0
  3  4  1  0
  3  5  1  0
  1  6  2  0
  4  7  2  0
  1  8  1  0
  5  9  2  0
  6  9  1  0
  5 10  1  0
  7 11  1  0
 10 11  2  0
M  END
>  <ID>  (1) 
conformer_0

$$$$
