
     RDKit          3D

 12 13  0  0  0  0  0  0  0  0999 V2000
  -16.9068   16.2353  -26.4051 C   0  0  0  0  0  0  0  0  0  0  0  0
  -17.4096   17.0712  -25.5153 C   0  0  0  0  0  0  0  0  0  0  0  0
  -16.6580   17.7067  -24.4586 C   0  0  0  0  0  0  0  0  0  0  0  0
  -18.7907   17.2470  -25.3628 C   0  0  0  0  0  0  0  0  0  0  0  0
  -15.6404   16.0368  -26.6186 O   0  0  0  0  0  0  0  0  0  0  0  0
  -19.2441   18.0796  -24.2879 C   0  0  0  0  0  0  0  0  0  0  0  0
  -17.7865   15.6273  -27.2524 C   0  0  0  0  0  0  0  0  0  0  0  0
  -17.1329   18.4875  -23.4805 C   0  0  0  0  0  0  0  0  0  0  0  0
  -19.5111   16.6296  -26.3261 C   0  0  0  0  0  0  0  0  0  0  0  0
  -17.2365   14.7616  -28.3174 O   0  0  0  0  0  0  0  0  0  0  0  0
  -18.4735   18.7127  -23.4236 C   0  0  0  0  0  0  0  0  0  0  0  0
  -19.1343   15.8391  -27.2545 C   0  0  0  0  0  0  0  0  0  0  0  0
  1  2  1  0
  2  3  1  0
  2  4  2  0
  1  5  1  0
  4  6  1  0
  1  7  2  0
  3  8  2  0
  4  9  1  0
  7 10  1  0
  6 11  2  0
  8 11  1  0
  7 12  1  0
  9 12  2  0
M  END
>  <ID>  (1) 
conformer_0

$$$$
