
     RDKit          3D

 10 11  0  0  0  0  0  0  0  0999 V2000
  -16.9068   16.2353  -26.4051 C   0  0  0  0  0  0  0  0  0  0  0  0
  -18.0455   15.8831  -26.8358 C   0  0  0  0  0  0  0  0  0  0  0  0
  -19.2743   16.3063  -26.3599 C   0  0  0  0  0  0  0  0  0  0  0  0
  -15.7183   15.9006  -26.8185 C   0  0  0  0  0  0  0  0  0  0  0  0
  -19.2467   17.1234  -25.3009 C   0  0  0  0  0  0  0  0  0  0  0  0
  -18.0571   17.5780  -24.7436 C   0  0  0  0  0  0  0  0  0  0  0  0
  -18.1670   15.2055  -27.9451 C   0  0  0  0  0  0  0  0  0  0  0  0
  -16.9444   17.2292  -25.2771 C   0  0  0  0  0  0  0  0  0  0  0  0
  -15.6935   15.0459  -27.9891 C   0  0  0  0  0  0  0  0  0  0  0  0
  -16.9486   14.7956  -28.5869 C   0  0  0  0  0  0  0  0  0  0  0  0
  1  2  1  0
  2  3  1  0
  1  4  2  0
  3  5  1  0
  5  6  2  0
  2  7  2  0
  1  8  1  0
  6  8  1  0
  4  9  1  0
  7 10  1  0
  9 10  2  0
M  END
>  <ID>  (1) 
conformer_0

$$$$
