
     RDKit          3D

 10 10  0  0  0  0  0  0  0  0999 V2000
  -16.9068   16.2353  -26.4051 C   0  0  0  0  0  0  0  0  0  0  0  0
  -17.4096   17.0712  -25.5153 C   0  0  0  0  0  0  0  0  0  0  0  0
  -16.6580   17.7067  -24.4586 C   0  0  0  0  0  0  0  0  0  0  0  0
  -17.8101   15.9206  -27.3089 C   0  0  0  0  0  0  0  0  0  0  0  0
  -19.1268   16.3840  -27.0646 C   0  0  0  0  0  0  0  0  0  0  0  0
  -18.9664   17.2282  -25.8672 C   0  0  0  0  0  0  0  0  0  0  0  0
  -17.6857   15.0769  -28.5799 C   0  0  0  0  0  0  0  0  0  0  0  0
  -20.3902   16.1835  -27.5663 C   0  0  0  0  0  0  0  0  0  0  0  0
  -19.8219   17.8320  -25.0295 C   0  0  0  0  0  0  0  0  0  0  0  0
  -15.4981   15.9523  -26.5529 C   0  0  0  0  0  0  0  0  0  0  0  0
  1  2  1  0
  2  3  1  0
  1  4  2  0
  4  5  1  0
  2  6  1  0
  5  6  2  0
  4  7  1  0
  5  8  1  0
  6  9  1  0
  1 10  1  0
M  END
>  <ID>  (1) 
conformer_0

$$$$
