
     RDKit          3D

 11 12  0  0  0  0  0  0  0  0999 V2000
  -16.9068   16.2353  -26.4051 C   0  0  0  0  0  0  0  0  0  0  0  0
  -18.0455   15.8831  -26.8358 C   0  0  0  0  0  0  0  0  0  0  0  0
  -19.2118   16.6704  -26.8048 C   0  0  0  0  0  0  0  0  0  0  0  0
  -19.1300   17.7810  -26.2331 C   0  0  0  0  0  0  0  0  0  0  0  0
  -15.7128   15.5349  -26.5108 C   0  0  0  0  0  0  0  0  0  0  0  0
  -20.5347   16.1084  -27.2381 C   0  0  0  0  0  0  0  0  0  0  0  0
  -20.3212   18.6551  -25.9730 C   0  0  0  0  0  0  0  0  0  0  0  0
  -21.7202   16.8593  -26.9191 C   0  0  0  0  0  0  0  0  0  0  0  0
  -16.8261   17.4760  -25.8992 C   0  0  0  0  0  0  0  0  0  0  0  0
  -18.0112   18.3138  -25.6392 C   0  0  0  0  0  0  0  0  0  0  0  0
  -21.5874   18.1059  -26.3936 C   0  0  0  0  0  0  0  0  0  0  0  0
  1  2  1  0
  2  3  2  0
  3  4  1  0
  1  5  1  0
  3  6  1  0
  4  7  1  0
  6  8  2  0
  1  9  2  0
  4 10  2  0
  9 10  1  0
  7 11  2  0
  8 11  1  0
M  END
>  <ID>  (1) 
conformer_0

$$$$
