
     RDKit          3D

 11 12  0  0  0  0  0  0  0  0999 V2000
  -16.9068   16.2353  -26.4051 C   0  0  0  0  0  0  0  0  0  0  0  0
  -17.4096   17.0712  -25.5153 C   0  0  0  0  0  0  0  0  0  0  0  0
  -18.8004   17.3056  -25.4316 C   0  0  0  0  0  0  0  0  0  0  0  0
  -17.7735   15.7408  -27.3457 C   0  0  0  0  0  0  0  0  0  0  0  0
  -19.3010   18.1868  -24.3624 C   0  0  0  0  0  0  0  0  0  0  0  0
  -19.5856   16.7721  -26.3268 C   0  0  0  0  0  0  0  0  0  0  0  0
  -19.0928   15.9999  -27.2150 C   0  0  0  0  0  0  0  0  0  0  0  0
  -15.5149   16.0444  -26.5474 N   0  0  0  0  0  0  0  0  0  0  0  0
  -20.5422   18.1576  -23.9807 C   0  0  0  0  0  0  0  0  0  0  0  0
  -21.1120   17.0611  -26.0366 C   0  0  0  0  0  0  0  0  0  0  0  0
  -21.4525   17.7756  -24.9841 N   0  0  0  0  0  0  0  0  0  0  0  0
  1  2  1  0
  2  3  2  0
  1  4  2  0
  3  5  1  0
  3  6  1  0
  4  7  1  0
  6  7  2  0
  1  8  1  0
  5  9  2  0
  6 10  1  0
  9 11  1  0
 10 11  2  0
M  END
>  <ID>  (1) 
conformer_0

$$$$
