
     RDKit          3D

  9  9  0  0  0  0  0  0  0  0999 V2000
  -16.9068   16.2353  -26.4051 C   0  0  0  0  0  0  0  0  0  0  0  0
  -17.4096   17.0712  -25.5153 C   0  0  0  0  0  0  0  0  0  0  0  0
  -15.5883   15.9503  -26.4691 C   0  0  0  0  0  0  0  0  0  0  0  0
  -18.7784   17.4268  -25.3443 C   0  0  0  0  0  0  0  0  0  0  0  0
  -17.8937   15.6819  -27.1805 C   0  0  0  0  0  0  0  0  0  0  0  0
  -19.6267   16.7512  -26.2615 C   0  0  0  0  0  0  0  0  0  0  0  0
  -19.1935   15.8850  -27.1615 C   0  0  0  0  0  0  0  0  0  0  0  0
  -21.0068   17.0882  -26.1532 O   0  0  0  0  0  0  0  0  0  0  0  0
  -21.3869   18.2807  -26.0144 C   0  0  0  0  0  0  0  0  0  0  0  0
  1  2  1  0
  1  3  1  0
  2  4  2  0
  1  5  2  0
  4  6  1  0
  5  7  1  0
  6  7  2  0
  6  8  1  0
  8  9  1  0
M  END
>  <ID>  (1) 
conformer_0

$$$$
