
     RDKit          3D

  9  9  0  0  0  0  0  0  0  0999 V2000
  -16.9068   16.2353  -26.4051 C   0  0  0  0  0  0  0  0  0  0  0  0
  -17.4096   17.0712  -25.5153 C   0  0  0  0  0  0  0  0  0  0  0  0
  -15.6026   15.9190  -26.4320 C   0  0  0  0  0  0  0  0  0  0  0  0
  -18.8143   17.5072  -25.5128 C   0  0  0  0  0  0  0  0  0  0  0  0
  -19.6700   16.9633  -26.3454 C   0  0  0  0  0  0  0  0  0  0  0  0
  -19.2404   16.0397  -27.2812 C   0  0  0  0  0  0  0  0  0  0  0  0
  -20.1494   15.4629  -28.1983 O   0  0  0  0  0  0  0  0  0  0  0  0
  -21.3186   16.0842  -28.3250 C   0  0  0  0  0  0  0  0  0  0  0  0
  -17.8448   15.6890  -27.3309 C   0  0  0  0  0  0  0  0  0  0  0  0
  1  2  2  0
  1  3  1  0
  2  4  1  0
  4  5  2  0
  5  6  1  0
  6  7  1  0
  7  8  1  0
  1  9  1  0
  6  9  2  0
M  END
>  <ID>  (1) 
conformer_0

$$$$
