
     RDKit          3D

 12 13  0  0  0  0  0  0  0  0999 V2000
  -16.9068   16.2353  -26.4051 C   0  0  0  0  0  0  0  0  0  0  0  0
  -17.4096   17.0712  -25.5153 C   0  0  0  0  0  0  0  0  0  0  0  0
  -17.8381   15.9665  -27.3496 C   0  0  0  0  0  0  0  0  0  0  0  0
  -18.9887   16.2468  -27.3616 C   0  0  0  0  0  0  0  0  0  0  0  0
  -19.5616   17.0275  -26.3626 C   0  0  0  0  0  0  0  0  0  0  0  0
  -20.0359   15.7237  -28.4585 C   0  0  0  0  0  0  0  0  0  0  0  0
  -20.9534   17.3850  -26.2818 C   0  0  0  0  0  0  0  0  0  0  0  0
  -21.8223   16.8450  -27.2426 C   0  0  0  0  0  0  0  0  0  0  0  0
  -19.5982   15.1452  -29.4801 O   0  0  0  0  0  0  0  0  0  0  0  0
  -21.3176   16.1728  -28.3985 C   0  0  0  0  0  0  0  0  0  0  0  0
  -16.5358   17.5619  -24.3652 N   0  0  0  0  0  0  0  0  0  0  0  0
  -18.7611   17.5018  -25.3236 C   0  0  0  0  0  0  0  0  0  0  0  0
  1  2  2  0
  1  3  1  0
  3  4  2  0
  4  5  1  0
  4  6  1  0
  5  7  1  0
  7  8  2  0
  6  9  1  0
  6 10  2  0
  8 10  1  0
  2 11  1  0
  2 12  1  0
  5 12  2  0
M  END
>  <ID>  (1) 
conformer_0

$$$$
