
     RDKit          3D

 12 13  0  0  0  0  0  0  0  0999 V2000
  -16.9068   16.2353  -26.4051 C   0  0  0  0  0  0  0  0  0  0  0  0
  -17.4096   17.0712  -25.5153 C   0  0  0  0  0  0  0  0  0  0  0  0
  -17.8381   15.9665  -27.3496 C   0  0  0  0  0  0  0  0  0  0  0  0
  -18.7148   17.4563  -25.3323 C   0  0  0  0  0  0  0  0  0  0  0  0
  -17.4214   15.0312  -28.4687 C   0  0  0  0  0  0  0  0  0  0  0  0
  -19.5365   17.1244  -26.0716 C   0  0  0  0  0  0  0  0  0  0  0  0
  -18.2007   15.2374  -29.5818 C   0  0  0  0  0  0  0  0  0  0  0  0
  -19.1583   16.2885  -27.2329 C   0  0  0  0  0  0  0  0  0  0  0  0
  -17.8636   14.5570  -30.8056 C   0  0  0  0  0  0  0  0  0  0  0  0
  -18.7798   14.9384  -31.6778 C   0  0  0  0  0  0  0  0  0  0  0  0
  -19.6524   15.8633  -31.1885 C   0  0  0  0  0  0  0  0  0  0  0  0
  -19.2442   16.0369  -29.8171 C   0  0  0  0  0  0  0  0  0  0  0  0
  1  2  2  0
  1  3  1  0
  2  4  1  0
  3  5  1  0
  4  6  2  0
  5  7  2  3
  3  8  2  0
  6  8  1  0
  7  9  1  0
  9 10  2  0
 10 11  1  0
  7 12  1  0
 11 12  2  0
M  END
>  <ID>  (1) 
conformer_0

$$$$
