
     RDKit          3D

 10 10  0  0  0  0  0  0  0  0999 V2000
  -16.9068   16.2353  -26.4051 C   0  0  0  0  0  0  0  0  0  0  0  0
  -17.4096   17.0712  -25.5153 C   0  0  0  0  0  0  0  0  0  0  0  0
  -17.8381   15.9665  -27.3496 C   0  0  0  0  0  0  0  0  0  0  0  0
  -16.5629   17.5928  -24.3653 C   0  0  0  0  0  0  0  0  0  0  0  0
  -18.7034   17.6092  -25.6779 C   0  0  0  0  0  0  0  0  0  0  0  0
  -17.3970   14.9197  -28.4669 O   0  0  0  0  0  0  0  0  0  0  0  0
  -19.5516   17.2228  -26.5299 C   0  0  0  0  0  0  0  0  0  0  0  0
  -19.0995   16.2868  -27.5173 C   0  0  0  0  0  0  0  0  0  0  0  0
  -19.8380   15.9233  -28.3595 O   0  0  0  0  0  0  0  0  0  0  0  0
  -21.0089   16.3373  -28.7110 C   0  0  0  0  0  0  0  0  0  0  0  0
  1  2  2  0
  1  3  1  0
  2  4  1  0
  2  5  1  0
  3  6  1  0
  5  7  2  0
  3  8  2  0
  7  8  1  0
  8  9  1  0
  9 10  1  0
M  END
>  <ID>  (1) 
conformer_0

$$$$
