
     RDKit          3D

 12 13  0  0  0  0  0  0  0  0999 V2000
  -16.9068   16.2353  -26.4051 C   0  0  0  0  0  0  0  0  0  0  0  0
  -17.4096   17.0712  -25.5153 C   0  0  0  0  0  0  0  0  0  0  0  0
  -15.5883   15.9503  -26.4691 C   0  0  0  0  0  0  0  0  0  0  0  0
  -17.7004   15.5662  -27.1969 C   0  0  0  0  0  0  0  0  0  0  0  0
  -16.6906   17.7486  -24.5342 C   0  0  0  0  0  0  0  0  0  0  0  0
  -17.4611   14.5694  -28.1270 C   0  0  0  0  0  0  0  0  0  0  0  0
  -16.0160   14.3378  -28.3298 C   0  0  0  0  0  0  0  0  0  0  0  0
  -18.6331   17.4024  -25.2378 C   0  0  0  0  0  0  0  0  0  0  0  0
  -19.8510   16.9239  -25.9109 C   0  0  0  0  0  0  0  0  0  0  0  0
  -15.1205   15.1111  -27.4168 C   0  0  0  0  0  0  0  0  0  0  0  0
  -19.1163   18.4012  -24.3316 C   0  0  0  0  0  0  0  0  0  0  0  0
  -17.8695   18.7836  -23.6918 C   0  0  0  0  0  0  0  0  0  0  0  0
  1  2  1  0
  1  3  1  0
  1  4  2  0
  2  5  1  0
  4  6  1  0
  6  7  2  0
  2  8  2  0
  8  9  1  0
  3 10  2  0
  7 10  1  0
  8 11  1  0
  5 12  2  0
 11 12  2  0
M  END
>  <ID>  (1) 
conformer_0

$$$$
