
     RDKit          3D

 11 12  0  0  0  0  0  0  0  0999 V2000
  -16.9068   16.2353  -26.4051 C   0  0  0  0  0  0  0  0  0  0  0  0
  -18.0455   15.8831  -26.8358 C   0  0  0  0  0  0  0  0  0  0  0  0
  -15.8694   15.9585  -26.7364 C   0  0  0  0  0  0  0  0  0  0  0  0
  -18.0281   15.1057  -28.0687 C   0  0  0  0  0  0  0  0  0  0  0  0
  -19.2785   14.7793  -28.7042 O   0  0  0  0  0  0  0  0  0  0  0  0
  -20.0562   15.8724  -28.7310 C   0  0  0  0  0  0  0  0  0  0  0  0
  -20.6968   16.2107  -27.7753 C   0  0  0  0  0  0  0  0  0  0  0  0
  -15.8187   14.9759  -27.9692 C   0  0  0  0  0  0  0  0  0  0  0  0
  -16.9249   14.6576  -28.4883 C   0  0  0  0  0  0  0  0  0  0  0  0
  -19.3070   16.3001  -26.1757 C   0  0  0  0  0  0  0  0  0  0  0  0
  -20.3126   16.4834  -26.7030 C   0  0  0  0  0  0  0  0  0  0  0  0
  1  2  1  0
  1  3  2  0
  2  4  2  0
  4  5  1  0
  5  6  1  0
  6  7  2  0
  3  8  1  0
  4  9  1  0
  8  9  2  0
  2 10  1  0
  7 11  1  0
 10 11  2  0
M  END
>  <ID>  (1) 
conformer_0

$$$$
