
     RDKit          3D

  9  9  0  0  0  0  0  0  0  0999 V2000
  -16.9068   16.2353  -26.4051 C   0  0  0  0  0  0  0  0  0  0  0  0
  -17.4096   17.0712  -25.5153 C   0  0  0  0  0  0  0  0  0  0  0  0
  -18.8004   17.3056  -25.4316 C   0  0  0  0  0  0  0  0  0  0  0  0
  -15.5655   16.0822  -26.5117 N   0  0  0  0  0  0  0  0  0  0  0  0
  -19.5180   16.6452  -26.4378 C   0  0  0  0  0  0  0  0  0  0  0  0
  -21.0112   16.8359  -26.3471 C   0  0  0  0  0  0  0  0  0  0  0  0
  -17.5998   15.5499  -27.4437 C   0  0  0  0  0  0  0  0  0  0  0  0
  -17.1032   14.7671  -28.3974 O   0  0  0  0  0  0  0  0  0  0  0  0
  -19.1032   15.8415  -27.3927 C   0  0  0  0  0  0  0  0  0  0  0  0
  1  2  1  0
  2  3  2  0
  1  4  1  0
  3  5  1  0
  5  6  1  0
  1  7  2  0
  7  8  1  0
  5  9  2  0
  7  9  1  0
M  END
>  <ID>  (1) 
conformer_0

$$$$
