
     RDKit          3D

 12 12  0  0  0  0  0  0  0  0999 V2000
  -16.9068   16.2353  -26.4051 C   0  0  0  0  0  0  0  0  0  0  0  0
  -18.0455   15.8831  -26.8358 C   0  0  0  0  0  0  0  0  0  0  0  0
  -19.2118   16.6704  -26.8048 C   0  0  0  0  0  0  0  0  0  0  0  0
  -20.5381   16.1304  -27.2518 C   0  0  0  0  0  0  0  0  0  0  0  0
  -19.2741   17.8513  -26.2469 C   0  0  0  0  0  0  0  0  0  0  0  0
  -16.8617   17.5783  -25.7640 C   0  0  0  0  0  0  0  0  0  0  0  0
  -15.6377   18.0780  -25.1994 C   0  0  0  0  0  0  0  0  0  0  0  0
  -20.8397   16.1383  -28.4192 C   0  0  0  0  0  0  0  0  0  0  0  0
  -20.3694   18.6657  -26.1129 O   0  0  0  0  0  0  0  0  0  0  0  0
  -20.0688   16.0016  -29.3611 O   0  0  0  0  0  0  0  0  0  0  0  0
  -22.1169   15.8363  -28.7205 O   0  0  0  0  0  0  0  0  0  0  0  0
  -18.0049   18.3351  -25.6610 C   0  0  0  0  0  0  0  0  0  0  0  0
  1  2  1  0
  2  3  2  0
  3  4  1  0
  3  5  1  0
  1  6  2  0
  6  7  1  0
  4  8  1  0
  5  9  1  0
  8 10  1  0
  8 11  2  0
  5 12  2  0
  6 12  1  0
M  END
>  <ID>  (1) 
conformer_0

$$$$
