
     RDKit          3D

 10 10  0  0  0  0  0  0  0  0999 V2000
  -16.9068   16.2353  -26.4051 C   0  0  0  0  0  0  0  0  0  0  0  0
  -17.4096   17.0712  -25.5153 C   0  0  0  0  0  0  0  0  0  0  0  0
  -17.8327   15.6977  -27.2851 C   0  0  0  0  0  0  0  0  0  0  0  0
  -18.6025   17.5272  -25.3984 C   0  0  0  0  0  0  0  0  0  0  0  0
  -19.5629   16.9821  -26.2219 C   0  0  0  0  0  0  0  0  0  0  0  0
  -20.9594   17.3080  -26.1334 C   0  0  0  0  0  0  0  0  0  0  0  0
  -19.1700   16.0393  -27.2124 C   0  0  0  0  0  0  0  0  0  0  0  0
  -21.2901   18.1604  -25.2906 O   0  0  0  0  0  0  0  0  0  0  0  0
  -21.8474   16.7820  -26.8660 O   0  0  0  0  0  0  0  0  0  0  0  0
  -15.5239   15.9185  -26.7059 C   0  0  0  0  0  0  0  0  0  0  0  0
  1  2  1  0
  1  3  2  0
  2  4  2  0
  4  5  1  0
  5  6  1  0
  3  7  1  0
  5  7  2  0
  6  8  2  0
  6  9  1  0
  1 10  1  0
M  END
>  <ID>  (1) 
conformer_0

$$$$
