
     RDKit          3D

 10 10  0  0  0  0  0  0  0  0999 V2000
  -16.9068   16.2353  -26.4051 C   0  0  0  0  0  0  0  0  0  0  0  0
  -17.4096   17.0712  -25.5153 C   0  0  0  0  0  0  0  0  0  0  0  0
  -18.8004   17.3056  -25.4316 C   0  0  0  0  0  0  0  0  0  0  0  0
  -17.7735   15.7408  -27.3457 C   0  0  0  0  0  0  0  0  0  0  0  0
  -19.3010   18.1868  -24.3624 C   0  0  0  0  0  0  0  0  0  0  0  0
  -19.5856   16.7721  -26.3268 C   0  0  0  0  0  0  0  0  0  0  0  0
  -21.0105   17.0146  -26.2832 C   0  0  0  0  0  0  0  0  0  0  0  0
  -17.2412   14.8153  -28.4001 O   0  0  0  0  0  0  0  0  0  0  0  0
  -19.1044   15.8886  -27.3746 C   0  0  0  0  0  0  0  0  0  0  0  0
  -15.5063   16.0325  -26.6171 O   0  0  0  0  0  0  0  0  0  0  0  0
  1  2  1  0
  2  3  2  0
  1  4  2  0
  3  5  1  0
  3  6  1  0
  6  7  1  0
  4  8  1  0
  4  9  1  0
  6  9  2  0
  1 10  1  0
M  END
>  <ID>  (1) 
conformer_0

$$$$
