
     RDKit          3D

  9  9  0  0  0  0  0  0  0  0999 V2000
  -16.9068   16.2353  -26.4051 C   0  0  0  0  0  0  0  0  0  0  0  0
  -18.0455   15.8831  -26.8358 C   0  0  0  0  0  0  0  0  0  0  0  0
  -15.8694   15.9585  -26.7364 C   0  0  0  0  0  0  0  0  0  0  0  0
  -17.0853   17.2568  -25.4009 C   0  0  0  0  0  0  0  0  0  0  0  0
  -19.3765   16.2538  -26.5762 C   0  0  0  0  0  0  0  0  0  0  0  0
  -15.9702   17.8158  -24.8381 N   0  0  0  0  0  0  0  0  0  0  0  0
  -19.2620   17.3549  -25.5007 C   0  0  0  0  0  0  0  0  0  0  0  0
  -18.2476   17.7392  -24.9613 C   0  0  0  0  0  0  0  0  0  0  0  0
  -20.7667   17.8471  -24.9948 C   0  0  0  0  0  0  0  0  0  0  0  0
  1  2  1  0
  1  3  1  0
  1  4  2  0
  2  5  2  0
  4  6  1  0
  5  7  1  0
  4  8  1  0
  7  8  2  0
  7  9  1  0
M  END
>  <ID>  (1) 
conformer_0

$$$$
