
     RDKit          3D

 11 11  0  0  0  0  0  0  0  0999 V2000
  -16.9068   16.2353  -26.4051 C   0  0  0  0  0  0  0  0  0  0  0  0
  -18.0455   15.8831  -26.8358 C   0  0  0  0  0  0  0  0  0  0  0  0
  -19.2118   16.6704  -26.8048 C   0  0  0  0  0  0  0  0  0  0  0  0
  -19.2473   17.7863  -25.9775 C   0  0  0  0  0  0  0  0  0  0  0  0
  -20.4218   16.1272  -27.4647 C   0  0  0  0  0  0  0  0  0  0  0  0
  -20.3756   16.0001  -28.7854 N   0  0  0  0  0  0  0  0  0  0  0  0
  -19.3369   15.6755  -29.4575 O   0  0  0  0  0  0  0  0  0  0  0  0
  -16.8356   17.4292  -25.5404 C   0  0  0  0  0  0  0  0  0  0  0  0
  -18.0094   18.1430  -25.3312 C   0  0  0  0  0  0  0  0  0  0  0  0
  -21.6622   15.6612  -29.2640 N   0  0  0  0  0  0  0  0  0  0  0  0
  -21.9883   15.9880  -30.5563 C   0  0  0  0  0  0  0  0  0  0  0  0
  1  2  1  0
  2  3  2  0
  3  4  1  0
  3  5  1  0
  5  6  1  0
  6  7  1  0
  1  8  2  0
  4  9  2  0
  8  9  1  0
  6 10  1  0
 10 11  1  0
M  END
>  <ID>  (1) 
conformer_0

$$$$
