
     RDKit          3D

 12 13  0  0  0  0  0  0  0  0999 V2000
  -16.9068   16.2353  -26.4051 C   0  0  0  0  0  0  0  0  0  0  0  0
  -18.0455   15.8831  -26.8358 C   0  0  0  0  0  0  0  0  0  0  0  0
  -19.2743   16.3063  -26.3599 C   0  0  0  0  0  0  0  0  0  0  0  0
  -15.7183   15.9006  -26.8185 C   0  0  0  0  0  0  0  0  0  0  0  0
  -18.0200   15.0270  -28.0007 C   0  0  0  0  0  0  0  0  0  0  0  0
  -19.2476   14.7264  -28.6043 O   0  0  0  0  0  0  0  0  0  0  0  0
  -16.7927   14.6696  -28.6201 C   0  0  0  0  0  0  0  0  0  0  0  0
  -14.4227   16.2918  -26.2762 O   0  0  0  0  0  0  0  0  0  0  0  0
  -20.4500   15.8437  -26.8512 C   0  0  0  0  0  0  0  0  0  0  0  0
  -20.3448   15.3000  -28.2015 C   0  0  0  0  0  0  0  0  0  0  0  0
  -15.6176   15.0732  -27.9980 C   0  0  0  0  0  0  0  0  0  0  0  0
  -21.3777   15.1254  -28.6245 O   0  0  0  0  0  0  0  0  0  0  0  0
  1  2  1  0
  2  3  1  0
  1  4  2  0
  2  5  2  0
  5  6  1  0
  5  7  1  0
  4  8  1  0
  3  9  2  0
  6 10  1  0
  9 10  1  0
  4 11  1  0
  7 11  2  0
 10 12  2  0
M  END
>  <ID>  (1) 
conformer_0

$$$$
