
     RDKit          3D

  8  8  0  0  0  0  0  0  0  0999 V2000
  -16.9068   16.2353  -26.4051 C   0  0  0  0  0  0  0  0  0  0  0  0
  -17.4096   17.0712  -25.5153 C   0  0  0  0  0  0  0  0  0  0  0  0
  -18.8004   17.3056  -25.4316 C   0  0  0  0  0  0  0  0  0  0  0  0
  -15.5655   16.0822  -26.5117 N   0  0  0  0  0  0  0  0  0  0  0  0
  -19.5180   16.6452  -26.4378 C   0  0  0  0  0  0  0  0  0  0  0  0
  -17.5870   15.5497  -27.4951 C   0  0  0  0  0  0  0  0  0  0  0  0
  -19.0456   15.8011  -27.3520 C   0  0  0  0  0  0  0  0  0  0  0  0
  -21.1608   16.8738  -26.3202 C   0  0  0  0  0  0  0  0  0  0  0  0
  1  2  1  0
  2  3  2  0
  1  4  1  0
  3  5  1  0
  1  6  2  0
  5  7  2  0
  6  7  1  0
  5  8  1  0
M  END
>  <ID>  (1) 
conformer_0

$$$$
