
     RDKit          3D

 11 12  0  0  0  0  0  0  0  0999 V2000
  -16.9068   16.2353  -26.4051 C   0  0  0  0  0  0  0  0  0  0  0  0
  -17.4096   17.0712  -25.5153 C   0  0  0  0  0  0  0  0  0  0  0  0
  -17.8327   15.6977  -27.2851 C   0  0  0  0  0  0  0  0  0  0  0  0
  -19.1278   15.9766  -27.3105 C   0  0  0  0  0  0  0  0  0  0  0  0
  -16.5367   17.7131  -24.5398 C   0  0  0  0  0  0  0  0  0  0  0  0
  -20.0690   15.3633  -28.1888 O   0  0  0  0  0  0  0  0  0  0  0  0
  -19.6483   16.8665  -26.3032 C   0  0  0  0  0  0  0  0  0  0  0  0
  -18.7562   17.3663  -25.3895 C   0  0  0  0  0  0  0  0  0  0  0  0
  -21.1236   17.1270  -26.1844 C   0  0  0  0  0  0  0  0  0  0  0  0
  -20.9840   16.1369  -28.5923 C   0  0  0  0  0  0  0  0  0  0  0  0
  -21.9284   16.5826  -27.4051 C   0  0  0  0  0  0  0  0  0  0  0  0
  1  2  1  0
  1  3  2  0
  3  4  1  0
  2  5  1  0
  4  6  1  0
  4  7  2  0
  2  8  2  0
  7  8  1  0
  7  9  1  0
  6 10  1  0
  9 11  1  0
 10 11  1  0
M  END
>  <ID>  (1) 
conformer_0

$$$$
