
     RDKit          3D

 11 11  0  0  0  0  0  0  0  0999 V2000
  -16.9068   16.2353  -26.4051 C   0  0  0  0  0  0  0  0  0  0  0  0
  -18.0455   15.8831  -26.8358 C   0  0  0  0  0  0  0  0  0  0  0  0
  -15.8694   15.9585  -26.7364 C   0  0  0  0  0  0  0  0  0  0  0  0
  -19.3970   16.3003  -26.5081 C   0  0  0  0  0  0  0  0  0  0  0  0
  -18.0774   15.2893  -28.0571 C   0  0  0  0  0  0  0  0  0  0  0  0
  -15.6890   15.1569  -28.0353 C   0  0  0  0  0  0  0  0  0  0  0  0
  -20.5336   15.8220  -27.1082 C   0  0  0  0  0  0  0  0  0  0  0  0
  -21.8502   16.4112  -26.8275 C   0  0  0  0  0  0  0  0  0  0  0  0
  -16.7961   14.9190  -28.6667 C   0  0  0  0  0  0  0  0  0  0  0  0
  -22.7066   15.8364  -27.7034 C   0  0  0  0  0  0  0  0  0  0  0  0
  -24.0560   16.3163  -27.8418 C   0  0  0  0  0  0  0  0  0  0  0  0
  1  2  1  0
  1  3  2  0
  2  4  1  0
  2  5  2  0
  3  6  1  0
  4  7  2  3
  7  8  1  0
  5  9  1  0
  6  9  2  0
  8 10  2  3
 10 11  1  0
M  END
>  <ID>  (1) 
conformer_0

$$$$
