
     RDKit          3D

 10 10  0  0  0  0  0  0  0  0999 V2000
  -16.9068   16.2353  -26.4051 C   0  0  0  0  0  0  0  0  0  0  0  0
  -17.4096   17.0712  -25.5153 C   0  0  0  0  0  0  0  0  0  0  0  0
  -18.5425   17.5652  -25.6472 C   0  0  0  0  0  0  0  0  0  0  0  0
  -19.2043   18.4474  -24.5582 C   0  0  0  0  0  0  0  0  0  0  0  0
  -15.6205   15.7803  -26.4707 C   0  0  0  0  0  0  0  0  0  0  0  0
  -17.8366   15.8555  -27.4050 C   0  0  0  0  0  0  0  0  0  0  0  0
  -19.6021   17.0900  -26.4589 C   0  0  0  0  0  0  0  0  0  0  0  0
  -17.4307   14.8520  -28.4520 C   0  0  0  0  0  0  0  0  0  0  0  0
  -20.9269   17.5033  -26.4942 C   0  0  0  0  0  0  0  0  0  0  0  0
  -19.1737   16.2582  -27.4442 C   0  0  0  0  0  0  0  0  0  0  0  0
  1  2  1  0
  2  3  2  0
  3  4  1  0
  1  5  1  0
  1  6  2  0
  3  7  1  0
  6  8  1  0
  7  9  1  0
  6 10  1  0
  7 10  2  0
M  END
>  <ID>  (1) 
conformer_0

$$$$
