
     RDKit          3D

 10 10  0  0  0  0  0  0  0  0999 V2000
  -16.9068   16.2353  -26.4051 C   0  0  0  0  0  0  0  0  0  0  0  0
  -17.4096   17.0712  -25.5153 C   0  0  0  0  0  0  0  0  0  0  0  0
  -15.6026   15.9190  -26.4320 C   0  0  0  0  0  0  0  0  0  0  0  0
  -17.9344   15.7783  -27.3070 C   0  0  0  0  0  0  0  0  0  0  0  0
  -19.1307   16.2336  -27.1679 C   0  0  0  0  0  0  0  0  0  0  0  0
  -18.7985   17.4638  -25.4853 C   0  0  0  0  0  0  0  0  0  0  0  0
  -19.5579   17.0268  -26.1923 C   0  0  0  0  0  0  0  0  0  0  0  0
  -20.0216   15.8056  -28.2571 C   0  0  0  0  0  0  0  0  0  0  0  0
  -19.7868   15.5927  -29.4051 O   0  0  0  0  0  0  0  0  0  0  0  0
  -21.3503   15.7020  -27.9022 N   0  0  0  0  0  0  0  0  0  0  0  0
  1  2  2  0
  1  3  1  0
  1  4  1  0
  4  5  2  0
  2  6  1  0
  5  7  1  0
  6  7  2  0
  5  8  1  0
  8  9  2  0
  8 10  1  0
M  END
>  <ID>  (1) 
conformer_0

$$$$
