
     RDKit          3D

 10 11  0  0  0  0  0  0  0  0999 V2000
  -16.9068   16.2353  -26.4051 C   0  0  0  0  0  0  0  0  0  0  0  0
  -17.4096   17.0712  -25.5153 C   0  0  0  0  0  0  0  0  0  0  0  0
  -18.7587   17.3660  -25.4291 C   0  0  0  0  0  0  0  0  0  0  0  0
  -19.2999   18.1786  -24.3492 C   0  0  0  0  0  0  0  0  0  0  0  0
  -20.6513   18.2277  -24.1850 C   0  0  0  0  0  0  0  0  0  0  0  0
  -18.1698   15.7522  -27.2192 C   0  0  0  0  0  0  0  0  0  0  0  0
  -19.9248   17.0522  -26.1379 C   0  0  0  0  0  0  0  0  0  0  0  0
  -19.3840   16.0554  -27.1855 C   0  0  0  0  0  0  0  0  0  0  0  0
  -15.7051   15.9257  -26.6630 C   0  0  0  0  0  0  0  0  0  0  0  0
  -21.0621   17.4120  -25.6433 S   0  0  0  0  0  0  0  0  0  0  0  0
  1  2  2  0
  2  3  1  0
  3  4  1  0
  4  5  2  0
  1  6  1  0
  3  7  2  0
  6  8  2  0
  7  8  1  0
  1  9  1  0
  5 10  1  0
  7 10  1  0
M  END
>  <ID>  (1) 
conformer_0

$$$$
