
     RDKit          3D

 11 11  0  0  0  0  0  0  0  0999 V2000
  -16.9068   16.2353  -26.4051 C   0  0  0  0  0  0  0  0  0  0  0  0
  -17.4096   17.0712  -25.5153 C   0  0  0  0  0  0  0  0  0  0  0  0
  -15.5883   15.9503  -26.4691 C   0  0  0  0  0  0  0  0  0  0  0  0
  -16.6532   17.6143  -24.5147 C   0  0  0  0  0  0  0  0  0  0  0  0
  -18.8256   17.3322  -25.5648 C   0  0  0  0  0  0  0  0  0  0  0  0
  -17.8470   15.7681  -27.1954 C   0  0  0  0  0  0  0  0  0  0  0  0
  -19.6897   16.7910  -26.3835 C   0  0  0  0  0  0  0  0  0  0  0  0
  -17.3395   14.8139  -28.3244 C   0  0  0  0  0  0  0  0  0  0  0  0
  -19.1470   15.9379  -27.2951 C   0  0  0  0  0  0  0  0  0  0  0  0
  -20.9422   17.0967  -26.3712 O   0  0  0  0  0  0  0  0  0  0  0  0
  -21.6508   17.2634  -27.5080 C   0  0  0  0  0  0  0  0  0  0  0  0
  1  2  1  0
  1  3  1  0
  2  4  1  0
  2  5  2  0
  1  6  2  0
  5  7  1  0
  6  8  1  0
  6  9  1  0
  7  9  2  0
  7 10  1  0
 10 11  1  0
M  END
>  <ID>  (1) 
conformer_0

$$$$
