
     RDKit          3D

  9  9  0  0  0  0  0  0  0  0999 V2000
  -16.9068   16.2353  -26.4051 C   0  0  0  0  0  0  0  0  0  0  0  0
  -17.4096   17.0712  -25.5153 C   0  0  0  0  0  0  0  0  0  0  0  0
  -18.5425   17.5652  -25.6472 C   0  0  0  0  0  0  0  0  0  0  0  0
  -19.2043   18.4474  -24.5582 C   0  0  0  0  0  0  0  0  0  0  0  0
  -15.6205   15.7803  -26.4707 C   0  0  0  0  0  0  0  0  0  0  0  0
  -19.3790   17.0314  -26.6184 C   0  0  0  0  0  0  0  0  0  0  0  0
  -17.7675   15.8452  -27.3458 C   0  0  0  0  0  0  0  0  0  0  0  0
  -19.0341   16.1659  -27.4623 C   0  0  0  0  0  0  0  0  0  0  0  0
  -20.8999   17.5742  -26.4934 C   0  0  0  0  0  0  0  0  0  0  0  0
  1  2  1  0
  2  3  2  0
  3  4  1  0
  1  5  1  0
  3  6  1  0
  1  7  2  0
  6  8  2  0
  7  8  1  0
  6  9  1  0
M  END
>  <ID>  (1) 
conformer_0

$$$$
