
     RDKit          3D

 10 10  0  0  0  0  0  0  0  0999 V2000
  -16.9068   16.2353  -26.4051 C   0  0  0  0  0  0  0  0  0  0  0  0
  -17.4096   17.0712  -25.5153 C   0  0  0  0  0  0  0  0  0  0  0  0
  -17.8327   15.6977  -27.2851 C   0  0  0  0  0  0  0  0  0  0  0  0
  -18.6025   17.5272  -25.3984 C   0  0  0  0  0  0  0  0  0  0  0  0
  -19.5629   16.9821  -26.2219 C   0  0  0  0  0  0  0  0  0  0  0  0
  -20.9594   17.3080  -26.1334 C   0  0  0  0  0  0  0  0  0  0  0  0
  -21.4038   17.9947  -25.1754 O   0  0  0  0  0  0  0  0  0  0  0  0
  -21.8280   16.8909  -26.9577 O   0  0  0  0  0  0  0  0  0  0  0  0
  -19.1288   16.0234  -27.1911 C   0  0  0  0  0  0  0  0  0  0  0  0
  -15.5756   15.8909  -26.5461 N   0  0  0  0  0  0  0  0  0  0  0  0
  1  2  1  0
  1  3  2  0
  2  4  2  0
  4  5  1  0
  5  6  1  0
  6  7  1  0
  6  8  2  0
  3  9  1  0
  5  9  2  0
  1 10  1  0
M  END
>  <ID>  (1) 
conformer_0

$$$$
