
     RDKit          3D

  8  8  0  0  0  0  0  0  0  0999 V2000
  -16.9068   16.2353  -26.4051 C   0  0  0  0  0  0  0  0  0  0  0  0
  -18.0455   15.8831  -26.8358 C   0  0  0  0  0  0  0  0  0  0  0  0
  -15.8694   15.9585  -26.7364 C   0  0  0  0  0  0  0  0  0  0  0  0
  -17.0853   17.2568  -25.4009 C   0  0  0  0  0  0  0  0  0  0  0  0
  -19.2092   16.4030  -26.5930 C   0  0  0  0  0  0  0  0  0  0  0  0
  -18.4765   17.6702  -25.1116 C   0  0  0  0  0  0  0  0  0  0  0  0
  -19.4014   17.2923  -25.5927 C   0  0  0  0  0  0  0  0  0  0  0  0
  -15.5411   14.7273  -27.2631 N   0  0  0  0  0  0  0  0  0  0  0  0
  1  2  1  0
  1  3  1  0
  1  4  2  0
  2  5  2  0
  4  6  1  0
  5  7  1  0
  6  7  2  0
  3  8  2  0
M  END
>  <ID>  (1) 
conformer_0

$$$$
