
     RDKit          3D

  8  8  0  0  0  0  0  0  0  0999 V2000
  -16.9068   16.2353  -26.4051 C   0  0  0  0  0  0  0  0  0  0  0  0
  -17.4096   17.0712  -25.5153 C   0  0  0  0  0  0  0  0  0  0  0  0
  -17.8381   15.9665  -27.3496 C   0  0  0  0  0  0  0  0  0  0  0  0
  -16.5629   17.5928  -24.3653 C   0  0  0  0  0  0  0  0  0  0  0  0
  -18.7540   17.4101  -25.4076 C   0  0  0  0  0  0  0  0  0  0  0  0
  -19.6441   16.9803  -26.2876 C   0  0  0  0  0  0  0  0  0  0  0  0
  -17.4408   15.0242  -28.5106 C   0  0  0  0  0  0  0  0  0  0  0  0
  -19.1898   16.1549  -27.2942 C   0  0  0  0  0  0  0  0  0  0  0  0
  1  2  2  0
  1  3  1  0
  2  4  1  0
  2  5  1  0
  5  6  2  0
  3  7  1  0
  3  8  2  0
  6  8  1  0
M  END
>  <ID>  (1) 
conformer_0

$$$$
