
     RDKit          3D

 11 11  0  0  0  0  0  0  0  0999 V2000
  -16.9068   16.2353  -26.4051 C   0  0  0  0  0  0  0  0  0  0  0  0
  -18.0455   15.8831  -26.8358 C   0  0  0  0  0  0  0  0  0  0  0  0
  -17.0847   17.6831  -25.7773 C   0  0  0  0  0  0  0  0  0  0  0  0
  -18.0455   14.5447  -27.5967 C   0  0  0  0  0  0  0  0  0  0  0  0
  -18.1849   18.2827  -25.5851 C   0  0  0  0  0  0  0  0  0  0  0  0
  -19.3556   17.7463  -26.0992 C   0  0  0  0  0  0  0  0  0  0  0  0
  -20.6207   18.4100  -25.8828 C   0  0  0  0  0  0  0  0  0  0  0  0
  -20.9138   19.0075  -24.8589 O   0  0  0  0  0  0  0  0  0  0  0  0
  -19.2759   16.5095  -26.7299 C   0  0  0  0  0  0  0  0  0  0  0  0
  -15.6936   15.8358  -26.5581 O   0  0  0  0  0  0  0  0  0  0  0  0
  -21.5872   17.9867  -26.5522 O   0  0  0  0  0  0  0  0  0  0  0  0
  1  2  1  0
  1  3  2  0
  2  4  1  0
  3  5  1  0
  5  6  2  0
  6  7  1  0
  7  8  1  0
  2  9  2  0
  6  9  1  0
  1 10  1  0
  7 11  2  0
M  END
>  <ID>  (1) 
conformer_0

$$$$
