
     RDKit          3D

 11 11  0  0  0  0  0  0  0  0999 V2000
  -16.9068   16.2353  -26.4051 C   0  0  0  0  0  0  0  0  0  0  0  0
  -18.0455   15.8831  -26.8358 C   0  0  0  0  0  0  0  0  0  0  0  0
  -19.2118   16.6704  -26.8048 C   0  0  0  0  0  0  0  0  0  0  0  0
  -20.5381   16.1304  -27.2518 C   0  0  0  0  0  0  0  0  0  0  0  0
  -19.2741   17.8513  -26.2469 C   0  0  0  0  0  0  0  0  0  0  0  0
  -20.3673   18.6482  -26.0297 O   0  0  0  0  0  0  0  0  0  0  0  0
  -15.6832   15.5817  -26.5384 C   0  0  0  0  0  0  0  0  0  0  0  0
  -16.8658   17.5635  -25.7555 C   0  0  0  0  0  0  0  0  0  0  0  0
  -21.4507   15.8139  -26.7081 O   0  0  0  0  0  0  0  0  0  0  0  0
  -18.0925   18.4204  -25.6070 C   0  0  0  0  0  0  0  0  0  0  0  0
  -20.8380   16.2093  -28.5690 O   0  0  0  0  0  0  0  0  0  0  0  0
  1  2  1  0
  2  3  2  0
  3  4  1  0
  3  5  1  0
  5  6  1  0
  1  7  1  0
  1  8  2  0
  4  9  1  0
  5 10  2  0
  8 10  1  0
  4 11  2  0
M  END
>  <ID>  (1) 
conformer_0

$$$$
