
     RDKit          3D

 10 11  0  0  0  0  0  0  0  0999 V2000
  -16.9068   16.2353  -26.4051 C   0  0  0  0  0  0  0  0  0  0  0  0
  -17.4096   17.0712  -25.5153 C   0  0  0  0  0  0  0  0  0  0  0  0
  -18.5425   17.5652  -25.6472 C   0  0  0  0  0  0  0  0  0  0  0  0
  -19.2043   18.4474  -24.5582 C   0  0  0  0  0  0  0  0  0  0  0  0
  -17.7723   15.7870  -27.4037 C   0  0  0  0  0  0  0  0  0  0  0  0
  -20.4899   18.2797  -24.4060 C   0  0  0  0  0  0  0  0  0  0  0  0
  -21.3126   17.8548  -25.4494 C   0  0  0  0  0  0  0  0  0  0  0  0
  -19.5851   17.4521  -26.6827 C   0  0  0  0  0  0  0  0  0  0  0  0
  -20.8109   17.4766  -26.5036 C   0  0  0  0  0  0  0  0  0  0  0  0
  -19.0297   16.3626  -27.5788 C   0  0  0  0  0  0  0  0  0  0  0  0
  1  2  1  0
  2  3  2  0
  3  4  1  0
  1  5  2  0
  4  6  2  0
  6  7  1  0
  3  8  1  0
  7  9  2  0
  8  9  1  0
  5 10  1  0
  8 10  2  0
M  END
>  <ID>  (1) 
conformer_0

$$$$
