
     RDKit          3D

  9  9  0  0  0  0  0  0  0  0999 V2000
  -16.9068   16.2353  -26.4051 C   0  0  0  0  0  0  0  0  0  0  0  0
  -18.0455   15.8831  -26.8358 C   0  0  0  0  0  0  0  0  0  0  0  0
  -15.8694   15.9585  -26.7364 C   0  0  0  0  0  0  0  0  0  0  0  0
  -15.7939   15.0273  -27.8451 C   0  0  0  0  0  0  0  0  0  0  0  0
  -17.9412   15.0846  -27.9307 C   0  0  0  0  0  0  0  0  0  0  0  0
  -16.7114   14.6641  -28.3712 C   0  0  0  0  0  0  0  0  0  0  0  0
  -17.0342   17.2975  -25.1207 C   0  0  0  0  0  0  0  0  0  0  0  0
  -16.3101   17.5220  -24.3182 N   0  0  0  0  0  0  0  0  0  0  0  0
  -18.4132   17.6531  -24.8152 N   0  0  0  0  0  0  0  0  0  0  0  0
  1  2  1  0
  1  3  2  0
  3  4  1  0
  2  5  2  0
  4  6  2  0
  5  6  1  0
  1  7  1  0
  7  8  2  0
  7  9  1  0
M  END
>  <ID>  (1) 
conformer_0

$$$$
