
     RDKit          3D

  9  9  0  0  0  0  0  0  0  0999 V2000
  -16.9068   16.2353  -26.4051 C   0  0  0  0  0  0  0  0  0  0  0  0
  -17.4096   17.0712  -25.5153 C   0  0  0  0  0  0  0  0  0  0  0  0
  -17.8327   15.6977  -27.2851 C   0  0  0  0  0  0  0  0  0  0  0  0
  -18.6025   17.5272  -25.3984 C   0  0  0  0  0  0  0  0  0  0  0  0
  -19.2067   16.1038  -27.2420 C   0  0  0  0  0  0  0  0  0  0  0  0
  -19.5644   17.0293  -26.2158 C   0  0  0  0  0  0  0  0  0  0  0  0
  -15.5987   15.8546  -26.5846 N   0  0  0  0  0  0  0  0  0  0  0  0
  -21.1433   17.4700  -26.0469 C   0  0  0  0  0  0  0  0  0  0  0  0
  -21.8636   17.2701  -27.0863 N   0  0  0  0  0  0  0  0  0  0  0  0
  1  2  1  0
  1  3  2  0
  2  4  2  0
  3  5  1  0
  4  6  1  0
  5  6  2  0
  1  7  1  0
  6  8  1  0
  8  9  2  0
M  END
>  <ID>  (1) 
conformer_0

$$$$
