
     RDKit          3D

 11 12  0  0  0  0  0  0  0  0999 V2000
  -16.9068   16.2353  -26.4051 C   0  0  0  0  0  0  0  0  0  0  0  0
  -17.4096   17.0712  -25.5153 C   0  0  0  0  0  0  0  0  0  0  0  0
  -16.6638   17.6405  -24.4425 C   0  0  0  0  0  0  0  0  0  0  0  0
  -18.8099   17.2952  -25.4577 C   0  0  0  0  0  0  0  0  0  0  0  0
  -17.8015   15.7441  -27.4107 C   0  0  0  0  0  0  0  0  0  0  0  0
  -19.3173   18.1149  -24.3971 C   0  0  0  0  0  0  0  0  0  0  0  0
  -17.3230   14.8963  -28.4835 C   0  0  0  0  0  0  0  0  0  0  0  0
  -19.1495   15.9989  -27.3409 C   0  0  0  0  0  0  0  0  0  0  0  0
  -20.7112   18.3910  -24.2669 C   0  0  0  0  0  0  0  0  0  0  0  0
  -17.5543   18.4642  -23.7053 C   0  0  0  0  0  0  0  0  0  0  0  0
  -19.6242   16.7451  -26.3267 C   0  0  0  0  0  0  0  0  0  0  0  0
  1  2  2  0
  2  3  1  0
  2  4  1  0
  1  5  1  0
  4  6  1  0
  5  7  1  0
  5  8  2  0
  6  9  1  0
  3 10  2  0
  6 10  1  0
  4 11  2  0
  8 11  1  0
M  END
>  <ID>  (1) 
conformer_0

$$$$
