
     RDKit          3D

  7  7  0  0  0  0  0  0  0  0999 V2000
  -16.9068   16.2353  -26.4051 C   0  0  0  0  0  0  0  0  0  0  0  0
  -18.0455   15.8831  -26.8358 C   0  0  0  0  0  0  0  0  0  0  0  0
  -17.0847   17.6831  -25.7773 C   0  0  0  0  0  0  0  0  0  0  0  0
  -18.0455   14.5447  -27.5967 C   0  0  0  0  0  0  0  0  0  0  0  0
  -18.4213   18.0931  -25.8235 C   0  0  0  0  0  0  0  0  0  0  0  0
  -19.1511   16.5656  -26.7636 C   0  0  0  0  0  0  0  0  0  0  0  0
  -19.2300   17.6494  -26.1716 C   0  0  0  0  0  0  0  0  0  0  0  0
  1  2  1  0
  1  3  2  0
  2  4  1  0
  3  5  1  0
  2  6  2  0
  5  7  2  0
  6  7  1  0
M  END
>  <ID>  (1) 
conformer_0

$$$$
