
     RDKit          3D

 11 12  0  0  0  0  0  0  0  0999 V2000
  -16.9068   16.2353  -26.4051 C   0  0  0  0  0  0  0  0  0  0  0  0
  -18.0455   15.8831  -26.8358 C   0  0  0  0  0  0  0  0  0  0  0  0
  -19.2743   16.3063  -26.3599 C   0  0  0  0  0  0  0  0  0  0  0  0
  -19.2393   17.2481  -25.4059 C   0  0  0  0  0  0  0  0  0  0  0  0
  -16.9924   17.2800  -25.3805 C   0  0  0  0  0  0  0  0  0  0  0  0
  -18.1702   17.5736  -24.7653 C   0  0  0  0  0  0  0  0  0  0  0  0
  -20.4792   15.9450  -26.9506 C   0  0  0  0  0  0  0  0  0  0  0  0
  -18.1746   15.0905  -27.7800 C   0  0  0  0  0  0  0  0  0  0  0  0
  -19.2529   14.7926  -28.5533 C   0  0  0  0  0  0  0  0  0  0  0  0
  -15.7479   15.9567  -26.7426 O   0  0  0  0  0  0  0  0  0  0  0  0
  -20.4335   15.2447  -28.1037 C   0  0  0  0  0  0  0  0  0  0  0  0
  1  2  1  0
  2  3  1  0
  3  4  1  0
  1  5  1  0
  4  6  2  0
  5  6  1  0
  3  7  2  0
  2  8  2  0
  8  9  1  0
  1 10  2  0
  7 11  1  0
  9 11  2  0
M  END
>  <ID>  (1) 
conformer_0

$$$$
