
     RDKit          3D

 11 11  0  0  0  0  0  0  0  0999 V2000
  -16.9068   16.2353  -26.4051 C   0  0  0  0  0  0  0  0  0  0  0  0
  -17.4096   17.0712  -25.5153 C   0  0  0  0  0  0  0  0  0  0  0  0
  -18.8004   17.3056  -25.4316 C   0  0  0  0  0  0  0  0  0  0  0  0
  -15.5655   16.0822  -26.5117 C   0  0  0  0  0  0  0  0  0  0  0  0
  -17.8266   15.7451  -27.2482 C   0  0  0  0  0  0  0  0  0  0  0  0
  -19.3096   18.1734  -24.3088 C   0  0  0  0  0  0  0  0  0  0  0  0
  -18.5186   18.4332  -23.2849 C   0  0  0  0  0  0  0  0  0  0  0  0
  -19.1904   15.8469  -27.2996 C   0  0  0  0  0  0  0  0  0  0  0  0
  -18.6224   19.4684  -22.7153 C   0  0  0  0  0  0  0  0  0  0  0  0
  -20.0530   15.2732  -28.2156 O   0  0  0  0  0  0  0  0  0  0  0  0
  -19.8082   16.7982  -26.2927 C   0  0  0  0  0  0  0  0  0  0  0  0
  1  2  1  0
  2  3  2  0
  1  4  1  0
  1  5  2  0
  3  6  1  0
  6  7  2  3
  5  8  1  0
  7  9  1  0
  8 10  1  0
  3 11  1  0
  8 11  2  0
M  END
>  <ID>  (1) 
conformer_0

$$$$
