
     RDKit          3D

 10 10  0  0  0  0  0  0  0  0999 V2000
  -16.9068   16.2353  -26.4051 C   0  0  0  0  0  0  0  0  0  0  0  0
  -17.4096   17.0712  -25.5153 C   0  0  0  0  0  0  0  0  0  0  0  0
  -15.6026   15.9190  -26.4320 C   0  0  0  0  0  0  0  0  0  0  0  0
  -17.9344   15.7783  -27.3070 C   0  0  0  0  0  0  0  0  0  0  0  0
  -16.5671   17.6492  -24.5183 C   0  0  0  0  0  0  0  0  0  0  0  0
  -18.7337   17.3728  -25.5490 C   0  0  0  0  0  0  0  0  0  0  0  0
  -19.6624   16.9048  -26.3657 C   0  0  0  0  0  0  0  0  0  0  0  0
  -19.2222   16.0054  -27.3100 C   0  0  0  0  0  0  0  0  0  0  0  0
  -20.9457   17.2065  -26.3612 O   0  0  0  0  0  0  0  0  0  0  0  0
  -21.7880   17.1729  -27.3743 C   0  0  0  0  0  0  0  0  0  0  0  0
  1  2  2  0
  1  3  1  0
  1  4  1  0
  2  5  1  0
  2  6  1  0
  6  7  2  0
  4  8  2  0
  7  8  1  0
  7  9  1  0
  9 10  1  0
M  END
>  <ID>  (1) 
conformer_0

$$$$
