
     RDKit          3D

 10 10  0  0  0  0  0  0  0  0999 V2000
  -16.9068   16.2353  -26.4051 C   0  0  0  0  0  0  0  0  0  0  0  0
  -17.4096   17.0712  -25.5153 C   0  0  0  0  0  0  0  0  0  0  0  0
  -18.5425   17.5652  -25.6472 C   0  0  0  0  0  0  0  0  0  0  0  0
  -19.3268   17.1404  -26.6831 C   0  0  0  0  0  0  0  0  0  0  0  0
  -17.6482   15.8899  -27.3878 C   0  0  0  0  0  0  0  0  0  0  0  0
  -17.1755   14.8762  -28.4361 C   0  0  0  0  0  0  0  0  0  0  0  0
  -18.9443   16.4018  -27.4208 C   0  0  0  0  0  0  0  0  0  0  0  0
  -19.0908   18.5091  -24.5632 C   0  0  0  0  0  0  0  0  0  0  0  0
  -15.4565   15.9216  -26.4448 N   0  0  0  0  0  0  0  0  0  0  0  0
  -20.3320   18.3011  -24.0625 C   0  0  0  0  0  0  0  0  0  0  0  0
  1  2  1  0
  2  3  2  0
  3  4  1  0
  1  5  2  0
  5  6  1  0
  4  7  2  0
  5  7  1  0
  3  8  1  0
  1  9  1  0
  8 10  1  0
M  END
>  <ID>  (1) 
conformer_0

$$$$
