
     RDKit          3D

 11 11  0  0  0  0  0  0  0  0999 V2000
  -16.9068   16.2353  -26.4051 C   0  0  0  0  0  0  0  0  0  0  0  0
  -18.0455   15.8831  -26.8358 C   0  0  0  0  0  0  0  0  0  0  0  0
  -19.2118   16.6704  -26.8048 C   0  0  0  0  0  0  0  0  0  0  0  0
  -20.5381   16.1304  -27.2518 C   0  0  0  0  0  0  0  0  0  0  0  0
  -19.2741   17.8513  -26.2469 C   0  0  0  0  0  0  0  0  0  0  0  0
  -21.5911   16.0776  -26.5749 O   0  0  0  0  0  0  0  0  0  0  0  0
  -16.8555   17.5738  -25.7599 C   0  0  0  0  0  0  0  0  0  0  0  0
  -20.3946   18.6277  -26.0649 O   0  0  0  0  0  0  0  0  0  0  0  0
  -15.5920   18.0524  -25.2181 N   0  0  0  0  0  0  0  0  0  0  0  0
  -20.5846   15.6066  -28.4056 O   0  0  0  0  0  0  0  0  0  0  0  0
  -17.9777   18.3206  -25.6253 C   0  0  0  0  0  0  0  0  0  0  0  0
  1  2  1  0
  2  3  2  0
  3  4  1  0
  3  5  1  0
  4  6  1  0
  1  7  2  0
  5  8  1  0
  7  9  1  0
  4 10  2  0
  5 11  2  0
  7 11  1  0
M  END
>  <ID>  (1) 
conformer_0

$$$$
