
     RDKit          3D

  8  8  0  0  0  0  0  0  0  0999 V2000
  -16.9068   16.2353  -26.4051 C   0  0  0  0  0  0  0  0  0  0  0  0
  -17.4096   17.0712  -25.5153 C   0  0  0  0  0  0  0  0  0  0  0  0
  -16.6580   17.7067  -24.4586 C   0  0  0  0  0  0  0  0  0  0  0  0
  -18.7907   17.2470  -25.3628 C   0  0  0  0  0  0  0  0  0  0  0  0
  -17.8429   15.7197  -27.3526 C   0  0  0  0  0  0  0  0  0  0  0  0
  -17.3649   14.8460  -28.4416 O   0  0  0  0  0  0  0  0  0  0  0  0
  -19.1614   15.8361  -27.4844 C   0  0  0  0  0  0  0  0  0  0  0  0
  -19.6548   16.6509  -26.2894 C   0  0  0  0  0  0  0  0  0  0  0  0
  1  2  1  0
  2  3  1  0
  2  4  2  0
  1  5  2  0
  5  6  1  0
  5  7  1  0
  4  8  1  0
  7  8  2  0
M  END
>  <ID>  (1) 
conformer_0

$$$$
