
     RDKit          3D

 10 10  0  0  0  0  0  0  0  0999 V2000
  -16.9068   16.2353  -26.4051 C   0  0  0  0  0  0  0  0  0  0  0  0
  -17.4096   17.0712  -25.5153 C   0  0  0  0  0  0  0  0  0  0  0  0
  -18.8004   17.3056  -25.4316 C   0  0  0  0  0  0  0  0  0  0  0  0
  -15.5655   16.0822  -26.5117 C   0  0  0  0  0  0  0  0  0  0  0  0
  -17.8266   15.7451  -27.2482 C   0  0  0  0  0  0  0  0  0  0  0  0
  -19.3096   18.1734  -24.3088 C   0  0  0  0  0  0  0  0  0  0  0  0
  -18.5186   18.4332  -23.2849 C   0  0  0  0  0  0  0  0  0  0  0  0
  -19.1904   15.8469  -27.2996 C   0  0  0  0  0  0  0  0  0  0  0  0
  -19.7197   16.7005  -26.2881 C   0  0  0  0  0  0  0  0  0  0  0  0
  -19.0862   19.2690  -22.2414 C   0  0  0  0  0  0  0  0  0  0  0  0
  1  2  1  0
  2  3  2  0
  1  4  1  0
  1  5  2  0
  3  6  1  0
  6  7  2  3
  5  8  1  0
  3  9  1  0
  8  9  2  0
  7 10  1  0
M  END
>  <ID>  (1) 
conformer_0

$$$$
