
     RDKit          3D

  9  9  0  0  0  0  0  0  0  0999 V2000
  -16.9068   16.2353  -26.4051 C   0  0  0  0  0  0  0  0  0  0  0  0
  -17.4096   17.0712  -25.5153 C   0  0  0  0  0  0  0  0  0  0  0  0
  -16.6638   17.6405  -24.4425 C   0  0  0  0  0  0  0  0  0  0  0  0
  -15.6069   16.0290  -26.4699 C   0  0  0  0  0  0  0  0  0  0  0  0
  -17.9492   15.6144  -27.2675 C   0  0  0  0  0  0  0  0  0  0  0  0
  -19.2560   16.0166  -27.1450 C   0  0  0  0  0  0  0  0  0  0  0  0
  -19.7113   16.8208  -26.1242 C   0  0  0  0  0  0  0  0  0  0  0  0
  -21.0989   17.0908  -25.8906 O   0  0  0  0  0  0  0  0  0  0  0  0
  -18.8377   17.4351  -25.2597 C   0  0  0  0  0  0  0  0  0  0  0  0
  1  2  2  0
  2  3  1  0
  1  4  1  0
  1  5  1  0
  5  6  2  0
  6  7  1  0
  7  8  1  0
  2  9  1  0
  7  9  2  0
M  END
>  <ID>  (1) 
conformer_0

$$$$
