
     RDKit          3D

 11 12  0  0  0  0  0  0  0  0999 V2000
  -16.9068   16.2353  -26.4051 C   0  0  0  0  0  0  0  0  0  0  0  0
  -17.4096   17.0712  -25.5153 C   0  0  0  0  0  0  0  0  0  0  0  0
  -18.8004   17.3056  -25.4316 C   0  0  0  0  0  0  0  0  0  0  0  0
  -19.6216   16.7299  -26.3083 C   0  0  0  0  0  0  0  0  0  0  0  0
  -21.0499   16.9293  -26.2238 C   0  0  0  0  0  0  0  0  0  0  0  0
  -17.7739   15.6843  -27.3417 C   0  0  0  0  0  0  0  0  0  0  0  0
  -19.1296   15.8640  -27.2486 C   0  0  0  0  0  0  0  0  0  0  0  0
  -21.8140   16.2843  -27.0086 C   0  0  0  0  0  0  0  0  0  0  0  0
  -20.0335   15.3469  -28.1570 C   0  0  0  0  0  0  0  0  0  0  0  0
  -15.5233   16.0494  -26.5308 O   0  0  0  0  0  0  0  0  0  0  0  0
  -21.2777   15.5718  -28.0933 C   0  0  0  0  0  0  0  0  0  0  0  0
  1  2  1  0
  2  3  2  0
  3  4  1  0
  4  5  1  0
  1  6  2  0
  4  7  2  0
  6  7  1  0
  5  8  2  0
  7  9  1  0
  1 10  1  0
  8 11  1  0
  9 11  2  0
M  END
>  <ID>  (1) 
conformer_0

$$$$
