
     RDKit          3D

 10 10  0  0  0  0  0  0  0  0999 V2000
  -16.9068   16.2353  -26.4051 C   0  0  0  0  0  0  0  0  0  0  0  0
  -17.4096   17.0712  -25.5153 C   0  0  0  0  0  0  0  0  0  0  0  0
  -18.7587   17.3660  -25.4291 C   0  0  0  0  0  0  0  0  0  0  0  0
  -17.8078   15.7416  -27.3271 C   0  0  0  0  0  0  0  0  0  0  0  0
  -17.3302   14.8548  -28.3794 O   0  0  0  0  0  0  0  0  0  0  0  0
  -19.1979   18.2599  -24.3344 C   0  0  0  0  0  0  0  0  0  0  0  0
  -19.0545   15.9580  -27.2667 C   0  0  0  0  0  0  0  0  0  0  0  0
  -20.4396   18.2982  -24.0603 C   0  0  0  0  0  0  0  0  0  0  0  0
  -21.0383   19.0548  -23.0000 C   0  0  0  0  0  0  0  0  0  0  0  0
  -19.6104   16.8546  -26.2210 C   0  0  0  0  0  0  0  0  0  0  0  0
  1  2  2  0
  2  3  1  0
  1  4  1  0
  4  5  1  0
  3  6  1  0
  4  7  2  0
  6  8  2  3
  8  9  1  0
  3 10  2  0
  7 10  1  0
M  END
>  <ID>  (1) 
conformer_0

$$$$
