
     RDKit          3D

 11 11  0  0  0  0  0  0  0  0999 V2000
  -16.9068   16.2353  -26.4051 C   0  0  0  0  0  0  0  0  0  0  0  0
  -17.4096   17.0712  -25.5153 C   0  0  0  0  0  0  0  0  0  0  0  0
  -18.7587   17.3660  -25.4291 C   0  0  0  0  0  0  0  0  0  0  0  0
  -19.2999   18.1786  -24.3492 C   0  0  0  0  0  0  0  0  0  0  0  0
  -18.0928   15.7490  -27.2484 C   0  0  0  0  0  0  0  0  0  0  0  0
  -19.7236   16.8605  -26.1358 C   0  0  0  0  0  0  0  0  0  0  0  0
  -19.2557   16.0241  -27.1178 C   0  0  0  0  0  0  0  0  0  0  0  0
  -18.4640   18.6054  -23.3980 O   0  0  0  0  0  0  0  0  0  0  0  0
  -20.2731   18.8875  -24.4432 O   0  0  0  0  0  0  0  0  0  0  0  0
  -17.5863   14.8079  -28.3067 O   0  0  0  0  0  0  0  0  0  0  0  0
  -15.6922   15.9552  -26.7619 O   0  0  0  0  0  0  0  0  0  0  0  0
  1  2  2  0
  2  3  1  0
  3  4  1  0
  1  5  1  0
  3  6  2  0
  5  7  2  0
  6  7  1  0
  4  8  1  0
  4  9  2  0
  5 10  1  0
  1 11  1  0
M  END
>  <ID>  (1) 
conformer_0

$$$$
