
     RDKit          3D

 11 12  0  0  0  0  0  0  0  0999 V2000
  -16.9068   16.2353  -26.4051 C   0  0  0  0  0  0  0  0  0  0  0  0
  -17.4096   17.0712  -25.5153 C   0  0  0  0  0  0  0  0  0  0  0  0
  -17.8381   15.9665  -27.3496 C   0  0  0  0  0  0  0  0  0  0  0  0
  -18.7148   17.4563  -25.3323 C   0  0  0  0  0  0  0  0  0  0  0  0
  -17.4214   15.0312  -28.4687 C   0  0  0  0  0  0  0  0  0  0  0  0
  -19.5365   17.1244  -26.0716 C   0  0  0  0  0  0  0  0  0  0  0  0
  -18.2007   15.2374  -29.5818 C   0  0  0  0  0  0  0  0  0  0  0  0
  -20.9813   17.4053  -25.9854 C   0  0  0  0  0  0  0  0  0  0  0  0
  -19.2268   16.3291  -27.2873 C   0  0  0  0  0  0  0  0  0  0  0  0
  -19.8628   15.9774  -28.4528 C   0  0  0  0  0  0  0  0  0  0  0  0
  -19.4402   15.4269  -29.5100 N   0  0  0  0  0  0  0  0  0  0  0  0
  1  2  2  0
  1  3  1  0
  2  4  1  0
  3  5  1  0
  4  6  2  0
  5  7  2  0
  6  8  1  0
  3  9  2  0
  6  9  1  0
  9 10  1  0
  7 11  1  0
 10 11  2  0
M  END
>  <ID>  (1) 
conformer_0

$$$$
