
     RDKit          3D

 10 11  0  0  0  0  0  0  0  0999 V2000
  -16.9068   16.2353  -26.4051 C   0  0  0  0  0  0  0  0  0  0  0  0
  -18.0455   15.8831  -26.8358 C   0  0  0  0  0  0  0  0  0  0  0  0
  -19.2743   16.3063  -26.3599 C   0  0  0  0  0  0  0  0  0  0  0  0
  -15.7183   15.9006  -26.8185 C   0  0  0  0  0  0  0  0  0  0  0  0
  -18.0200   15.0270  -28.0007 C   0  0  0  0  0  0  0  0  0  0  0  0
  -19.2476   14.7264  -28.6043 O   0  0  0  0  0  0  0  0  0  0  0  0
  -16.7927   14.6696  -28.6201 C   0  0  0  0  0  0  0  0  0  0  0  0
  -20.4837   15.8474  -26.8274 C   0  0  0  0  0  0  0  0  0  0  0  0
  -20.2389   15.5533  -28.3370 C   0  0  0  0  0  0  0  0  0  0  0  0
  -15.7085   15.1098  -28.0421 C   0  0  0  0  0  0  0  0  0  0  0  0
  1  2  1  0
  2  3  1  0
  1  4  2  0
  2  5  2  0
  5  6  1  0
  5  7  1  0
  3  8  2  0
  6  9  1  0
  8  9  1  0
  4 10  1  0
  7 10  2  0
M  END
>  <ID>  (1) 
conformer_0

$$$$
