
     RDKit          3D

 11 12  0  0  0  0  0  0  0  0999 V2000
  -16.9068   16.2353  -26.4051 C   0  0  0  0  0  0  0  0  0  0  0  0
  -18.0455   15.8831  -26.8358 C   0  0  0  0  0  0  0  0  0  0  0  0
  -19.2118   16.6704  -26.8048 C   0  0  0  0  0  0  0  0  0  0  0  0
  -20.5381   16.1304  -27.2518 C   0  0  0  0  0  0  0  0  0  0  0  0
  -16.9428   17.5253  -25.6541 C   0  0  0  0  0  0  0  0  0  0  0  0
  -15.6418   17.9465  -25.0758 O   0  0  0  0  0  0  0  0  0  0  0  0
  -19.3367   17.6786  -26.1045 C   0  0  0  0  0  0  0  0  0  0  0  0
  -20.4920   18.3935  -25.8257 C   0  0  0  0  0  0  0  0  0  0  0  0
  -21.6872   17.8995  -26.3209 N   0  0  0  0  0  0  0  0  0  0  0  0
  -18.1137   18.2953  -25.4260 C   0  0  0  0  0  0  0  0  0  0  0  0
  -21.6652   16.7994  -27.0677 C   0  0  0  0  0  0  0  0  0  0  0  0
  1  2  1  0
  2  3  2  0
  3  4  1  0
  1  5  2  0
  5  6  1  0
  3  7  1  0
  7  8  1  0
  8  9  2  0
  5 10  1  0
  7 10  2  0
  4 11  2  0
  9 11  1  0
M  END
>  <ID>  (1) 
conformer_0

$$$$
