
     RDKit          3D

 12 13  0  0  0  0  0  0  0  0999 V2000
  -16.9068   16.2353  -26.4051 C   0  0  0  0  0  0  0  0  0  0  0  0
  -17.4096   17.0712  -25.5153 C   0  0  0  0  0  0  0  0  0  0  0  0
  -17.8381   15.9665  -27.3496 C   0  0  0  0  0  0  0  0  0  0  0  0
  -18.7148   17.4563  -25.3323 C   0  0  0  0  0  0  0  0  0  0  0  0
  -19.5629   17.1359  -26.1104 C   0  0  0  0  0  0  0  0  0  0  0  0
  -19.2294   16.2296  -27.1875 C   0  0  0  0  0  0  0  0  0  0  0  0
  -17.4456   14.9388  -28.5289 C   0  0  0  0  0  0  0  0  0  0  0  0
  -16.4453   14.2441  -28.4336 N   0  0  0  0  0  0  0  0  0  0  0  0
  -17.9693   15.0285  -29.7363 C   0  0  0  0  0  0  0  0  0  0  0  0
  -17.3392   14.2035  -30.5480 C   0  0  0  0  0  0  0  0  0  0  0  0
  -16.1630   13.5752  -29.7605 O   0  0  0  0  0  0  0  0  0  0  0  0
  -19.1265   18.3905  -24.0733 C   0  0  0  0  0  0  0  0  0  0  0  0
  1  2  2  0
  1  3  1  0
  2  4  1  0
  4  5  2  0
  3  6  2  0
  5  6  1  0
  3  7  1  0
  7  8  2  0
  7  9  1  0
  9 10  2  0
  8 11  1  0
 10 11  1  0
  4 12  1  0
M  END
>  <ID>  (1) 
conformer_0

$$$$
