
     RDKit          3D

 12 13  0  0  0  0  0  0  0  0999 V2000
  -16.9068   16.2353  -26.4051 C   0  0  0  0  0  0  0  0  0  0  0  0
  -17.4096   17.0712  -25.5153 C   0  0  0  0  0  0  0  0  0  0  0  0
  -16.6580   17.7067  -24.4586 C   0  0  0  0  0  0  0  0  0  0  0  0
  -17.8101   15.9206  -27.3089 C   0  0  0  0  0  0  0  0  0  0  0  0
  -19.1268   16.3840  -27.0646 C   0  0  0  0  0  0  0  0  0  0  0  0
  -18.9664   17.2282  -25.8672 C   0  0  0  0  0  0  0  0  0  0  0  0
  -17.6857   15.0769  -28.5799 C   0  0  0  0  0  0  0  0  0  0  0  0
  -20.3902   16.1835  -27.5663 C   0  0  0  0  0  0  0  0  0  0  0  0
  -21.4415   16.2371  -26.7957 C   0  0  0  0  0  0  0  0  0  0  0  0
  -20.0455   17.5858  -25.1175 C   0  0  0  0  0  0  0  0  0  0  0  0
  -15.4748   16.0388  -26.5213 C   0  0  0  0  0  0  0  0  0  0  0  0
  -21.3251   17.1868  -25.6580 C   0  0  0  0  0  0  0  0  0  0  0  0
  1  2  1  0
  2  3  1  0
  1  4  2  0
  4  5  1  0
  2  6  1  0
  5  6  2  0
  4  7  1  0
  5  8  1  0
  8  9  2  0
  6 10  1  0
  1 11  1  0
  9 12  1  0
 10 12  2  0
M  END
>  <ID>  (1) 
conformer_0

$$$$
