
     RDKit          3D

 11 11  0  0  0  0  0  0  0  0999 V2000
  -16.9068   16.2353  -26.4051 C   0  0  0  0  0  0  0  0  0  0  0  0
  -17.4096   17.0712  -25.5153 C   0  0  0  0  0  0  0  0  0  0  0  0
  -18.6696   17.5621  -25.6686 C   0  0  0  0  0  0  0  0  0  0  0  0
  -17.7418   15.8129  -27.4054 C   0  0  0  0  0  0  0  0  0  0  0  0
  -19.0375   16.1998  -27.5340 C   0  0  0  0  0  0  0  0  0  0  0  0
  -19.9417   15.7020  -28.5304 O   0  0  0  0  0  0  0  0  0  0  0  0
  -19.5212   17.0711  -26.5700 C   0  0  0  0  0  0  0  0  0  0  0  0
  -20.9547   17.5875  -26.6801 C   0  0  0  0  0  0  0  0  0  0  0  0
  -21.8034   16.9500  -27.2617 O   0  0  0  0  0  0  0  0  0  0  0  0
  -15.4210   15.7902  -26.3396 C   0  0  0  0  0  0  0  0  0  0  0  0
  -21.2080   18.5875  -25.9866 O   0  0  0  0  0  0  0  0  0  0  0  0
  1  2  2  0
  2  3  1  0
  1  4  1  0
  4  5  2  0
  5  6  1  0
  3  7  2  0
  5  7  1  0
  7  8  1  0
  8  9  2  0
  1 10  1  0
  8 11  1  0
M  END
>  <ID>  (1) 
conformer_0

$$$$
