
     RDKit          3D

 10 10  0  0  0  0  0  0  0  0999 V2000
  -16.9068   16.2353  -26.4051 C   0  0  0  0  0  0  0  0  0  0  0  0
  -17.4096   17.0712  -25.5153 C   0  0  0  0  0  0  0  0  0  0  0  0
  -18.6696   17.5621  -25.6686 C   0  0  0  0  0  0  0  0  0  0  0  0
  -17.7418   15.8129  -27.4054 C   0  0  0  0  0  0  0  0  0  0  0  0
  -19.0375   16.1998  -27.5340 C   0  0  0  0  0  0  0  0  0  0  0  0
  -19.9417   15.7020  -28.5304 O   0  0  0  0  0  0  0  0  0  0  0  0
  -19.1351   18.4862  -24.5690 C   0  0  0  0  0  0  0  0  0  0  0  0
  -21.1550   16.2064  -28.5551 C   0  0  0  0  0  0  0  0  0  0  0  0
  -19.6469   17.1460  -26.6196 C   0  0  0  0  0  0  0  0  0  0  0  0
  -15.4828   15.8441  -26.5461 C   0  0  0  0  0  0  0  0  0  0  0  0
  1  2  2  0
  2  3  1  0
  1  4  1  0
  4  5  2  0
  5  6  1  0
  3  7  1  0
  6  8  1  0
  3  9  2  0
  5  9  1  0
  1 10  1  0
M  END
>  <ID>  (1) 
conformer_0

$$$$
