
     RDKit          3D

 11 11  0  0  0  0  0  0  0  0999 V2000
  -16.9068   16.2353  -26.4051 C   0  0  0  0  0  0  0  0  0  0  0  0
  -17.4096   17.0712  -25.5153 C   0  0  0  0  0  0  0  0  0  0  0  0
  -18.6696   17.5621  -25.6686 C   0  0  0  0  0  0  0  0  0  0  0  0
  -15.5926   15.8141  -26.3512 N   0  0  0  0  0  0  0  0  0  0  0  0
  -17.7668   15.6280  -27.3038 C   0  0  0  0  0  0  0  0  0  0  0  0
  -17.3728   14.6581  -28.2590 O   0  0  0  0  0  0  0  0  0  0  0  0
  -19.4317   17.1078  -26.3502 C   0  0  0  0  0  0  0  0  0  0  0  0
  -20.9391   17.4755  -26.4415 C   0  0  0  0  0  0  0  0  0  0  0  0
  -21.4386   18.1612  -25.5179 O   0  0  0  0  0  0  0  0  0  0  0  0
  -19.0498   16.0398  -27.1251 C   0  0  0  0  0  0  0  0  0  0  0  0
  -21.6298   17.0790  -27.3023 O   0  0  0  0  0  0  0  0  0  0  0  0
  1  2  2  0
  2  3  1  0
  1  4  1  0
  1  5  1  0
  5  6  1  0
  3  7  2  0
  7  8  1  0
  8  9  1  0
  5 10  2  0
  7 10  1  0
  8 11  2  0
M  END
>  <ID>  (1) 
conformer_0

$$$$
