
     RDKit          3D

  8  8  0  0  0  0  0  0  0  0999 V2000
  -16.9068   16.2353  -26.4051 C   0  0  0  0  0  0  0  0  0  0  0  0
  -18.0455   15.8831  -26.8358 C   0  0  0  0  0  0  0  0  0  0  0  0
  -17.0825   17.3309  -25.5123 C   0  0  0  0  0  0  0  0  0  0  0  0
  -19.3220   16.2827  -26.6731 C   0  0  0  0  0  0  0  0  0  0  0  0
  -19.4493   17.3033  -25.7298 C   0  0  0  0  0  0  0  0  0  0  0  0
  -18.3331   17.8095  -25.1144 C   0  0  0  0  0  0  0  0  0  0  0  0
  -15.5286   15.8242  -26.7779 C   0  0  0  0  0  0  0  0  0  0  0  0
  -20.8715   17.8502  -25.2968 C   0  0  0  0  0  0  0  0  0  0  0  0
  1  2  1  0
  1  3  2  0
  2  4  2  0
  4  5  1  0
  3  6  1  0
  5  6  2  0
  1  7  1  0
  5  8  1  0
M  END
>  <ID>  (1) 
conformer_0

$$$$
