
     RDKit          3D

 10 10  0  0  0  0  0  0  0  0999 V2000
  -16.9068   16.2353  -26.4051 C   0  0  0  0  0  0  0  0  0  0  0  0
  -17.4096   17.0712  -25.5153 C   0  0  0  0  0  0  0  0  0  0  0  0
  -18.7587   17.3660  -25.4291 C   0  0  0  0  0  0  0  0  0  0  0  0
  -15.5645   16.0305  -26.5313 C   0  0  0  0  0  0  0  0  0  0  0  0
  -19.6766   16.7995  -26.2103 C   0  0  0  0  0  0  0  0  0  0  0  0
  -17.8742   15.5612  -27.4864 C   0  0  0  0  0  0  0  0  0  0  0  0
  -21.0874   16.9924  -26.0910 C   0  0  0  0  0  0  0  0  0  0  0  0
  -21.5466   17.7990  -25.3010 O   0  0  0  0  0  0  0  0  0  0  0  0
  -21.8385   16.3151  -26.9951 N   0  0  0  0  0  0  0  0  0  0  0  0
  -19.3292   15.9176  -27.3292 C   0  0  0  0  0  0  0  0  0  0  0  0
  1  2  2  0
  2  3  1  0
  1  4  1  0
  3  5  2  0
  1  6  1  0
  5  7  1  0
  7  8  2  0
  7  9  1  0
  5 10  1  0
  6 10  2  0
M  END
>  <ID>  (1) 
conformer_0

$$$$
