
     RDKit          3D

 13 14  0  0  0  0  0  0  0  0999 V2000
   22.3532  -25.1216  -13.3244 C   0  0  0  0  0  0  0  0  0  0  0  0
   24.5441  -21.1232  -12.7905 C   0  0  0  0  0  0  0  0  0  0  0  0
   26.5594  -20.7800   -8.7662 C   0  0  0  0  0  0  0  0  0  0  0  0
   23.7476  -20.4620  -11.4023 C   0  0  0  0  0  0  0  0  0  0  0  0
   23.3964  -23.1285  -12.8686 C   0  0  0  0  0  0  0  0  0  0  0  0
   23.0944  -23.4196  -14.5829 N   0  0  0  0  0  0  0  0  0  0  0  0
   25.6690  -21.3741  -11.7404 O   0  0  0  0  0  0  0  0  0  0  0  0
   25.3268  -21.6241   -9.0400 O   0  0  0  0  0  0  0  0  0  0  0  0
   23.8305  -22.3281  -12.9491 N   0  0  0  0  0  0  0  0  0  0  0  0
   22.7344  -24.1725  -14.5018 C   0  0  0  0  0  0  0  0  0  0  0  0
   25.3298  -20.6768  -10.8185 C   0  0  0  0  0  0  0  0  0  0  0  0
   25.6334  -23.5138   -9.0969 O   0  0  0  0  0  0  0  0  0  0  0  0
   22.7054  -24.3579  -12.1747 C   0  0  0  0  0  0  0  0  0  0  0  0
  4  2  1  0
  6  5  2  0
  7  2  1  0
  8  3  1  0
  9  2  1  0
  9  5  1  0
 10  1  2  0
 10  6  1  0
 11  4  1  0
 11  7  1  0
 11  8  1  0
 12  3  1  0
 13  1  1  0
 13  5  1  0
M  END
>  <ID>  (1) 
conformer_0

$$$$
