
     RDKit          3D

 17 18  0  0  0  0  0  0  0  0999 V2000
   25.9140  -20.6550  -10.6569 C   0  0  0  0  0  0  0  0  0  0  0  0
   23.4091  -20.5025  -11.5797 C   0  0  0  0  0  0  0  0  0  0  0  0
   22.5001  -24.6144  -13.8647 C   0  0  0  0  0  0  0  0  0  0  0  0
   22.9550  -23.7808  -14.5650 N   0  0  0  0  0  0  0  0  0  0  0  0
   22.7480  -24.5146  -12.3430 C   0  0  0  0  0  0  0  0  0  0  0  0
   24.6946  -21.1860  -12.0647 C   0  0  0  0  0  0  0  0  0  0  0  0
   25.8397  -21.3844  -12.5649 O   0  0  0  0  0  0  0  0  0  0  0  0
   23.8613  -22.3161  -12.8140 N   0  0  0  0  0  0  0  0  0  0  0  0
   25.7061  -22.1462   -9.8086 O   0  0  0  0  0  0  0  0  0  0  0  0
   25.7292  -22.5905   -8.4197 P   0  0  0  0  0  0  0  0  0  0  0  0
   23.3750  -23.2378  -12.2207 C   0  0  0  0  0  0  0  0  0  0  0  0
   21.9409  -25.4273  -14.5694 N   0  0  0  0  0  0  0  0  0  0  0  0
   26.8079  -20.7245   -8.9458 C   0  0  0  0  0  0  0  0  0  0  0  0
   23.7254  -22.8209  -14.2120 C   0  0  0  0  0  0  0  0  0  0  0  0
   25.7139  -23.8090   -8.2021 O   0  0  0  0  0  1  0  0  0  0  0  0
   25.4835  -21.7751   -7.7045 O   0  0  0  0  0  1  0  0  0  0  0  0
   24.6527  -20.4119  -10.8602 C   0  0  0  0  0  0  0  0  0  0  0  0
  4  3  1  0
  5  3  2  0
  6  2  1  0
  7  6  1  0
  8  6  1  0
  9  1  1  0
 10  9  1  0
 11  5  1  0
 11  8  1  0
 12  3  1  0
 13  1  1  0
 14  4  2  0
 14  8  1  0
 15 10  1  0
 16 10  1  0
 17  1  1  0
 17  2  1  0
 17  6  1  0
M  RAD  2  15   2  16   2
M  END
>  <ID>  (1) 
conformer_0

$$$$
