
     RDKit          3D

 18 19  0  0  0  0  0  0  0  0999 V2000
   25.7509  -20.5226  -11.3907 C   0  0  0  0  0  0  0  0  0  0  0  0
   22.5331  -24.9391  -12.8947 C   0  0  0  0  0  0  0  0  0  0  0  0
   23.8897  -22.6412  -14.1711 C   0  0  0  0  0  0  0  0  0  0  0  0
   24.4250  -21.1776  -12.3485 C   0  0  0  0  0  0  0  0  0  0  0  0
   23.9950  -20.3802  -11.3157 C   0  0  0  0  0  0  0  0  0  0  0  0
   24.4853  -22.0391  -14.8090 O   0  0  0  0  0  0  0  0  0  0  0  0
   26.0501  -21.6344   -8.2047 O   0  0  0  0  0  0  0  0  0  0  0  0
   25.4084  -23.6309   -8.3331 O   0  0  0  0  0  1  0  0  0  0  0  0
   23.4776  -23.1302  -11.9294 C   0  0  0  0  0  0  0  0  0  0  0  0
   26.0350  -21.2618  -12.2254 O   0  0  0  0  0  0  0  0  0  0  0  0
   22.9885  -23.6722  -14.4003 N   0  0  0  0  0  0  0  0  0  0  0  0
   25.5413  -22.5323   -8.6710 P   0  0  0  0  0  0  0  0  0  0  0  0
   23.9688  -22.2597  -12.7270 N   0  0  0  0  0  0  0  0  0  0  0  0
   22.6149  -24.8151  -15.2183 N   0  0  0  0  0  0  0  0  0  0  0  0
   22.7588  -24.3086  -14.0322 C   0  0  0  0  0  0  0  0  0  0  0  0
   26.5210  -20.3095   -9.7308 C   0  0  0  0  0  0  0  0  0  0  0  0
   22.8690  -24.0609  -11.6205 C   0  0  0  0  0  0  0  0  0  0  0  0
   25.4827  -21.8725  -10.0718 O   0  0  0  0  0  1  0  0  0  0  0  0
  5  1  1  0
  5  4  1  0
  6  3  2  0
 10  1  1  0
 10  4  1  0
 11  3  1  0
 12  7  1  0
 12  8  1  0
 13  3  1  0
 13  4  1  0
 13  9  1  0
 15  2  2  0
 15 11  1  0
 15 14  1  0
 16  1  1  0
 16  7  1  0
 17  2  1  0
 17  9  1  0
 18 12  1  0
M  RAD  2   8   2  18   2
M  END
>  <ID>  (1) 
conformer_0

$$$$
