
     RDKit          3D

 17 17  0  0  0  0  0  0  0  0999 V2000
   25.7826  -20.3297  -10.6022 C   0  0  0  0  0  0  0  0  0  0  0  0
   23.6953  -22.6165  -14.0843 C   0  0  0  0  0  0  0  0  0  0  0  0
   24.7402  -20.9334  -11.9774 C   0  0  0  0  0  0  0  0  0  0  0  0
   22.9794  -23.5875  -14.3474 N   0  0  0  0  0  0  0  0  0  0  0  0
   25.3494  -21.5754   -9.5092 O   0  0  0  0  0  0  0  0  0  0  0  0
   25.2149  -22.8302   -8.7902 P   0  0  0  0  0  0  0  0  0  0  0  0
   25.8575  -21.1991  -12.0676 O   0  0  0  0  0  0  0  0  0  0  0  0
   23.8916  -20.3265  -11.2902 C   0  0  0  0  0  0  0  0  0  0  0  0
   22.9631  -25.4894  -14.6516 N   0  0  0  0  0  0  0  0  0  0  0  0
   23.9061  -22.2345  -12.5498 N   0  0  0  0  0  0  0  0  0  0  0  0
   23.4831  -23.2779  -11.9195 C   0  0  0  0  0  0  0  0  0  0  0  0
   26.6345  -20.8083   -8.9789 C   0  0  0  0  0  0  0  0  0  0  0  0
   24.6167  -21.8913  -14.6920 O   0  0  0  0  0  0  0  0  0  0  0  0
   22.8303  -24.2189  -11.9650 C   0  0  0  0  0  0  0  0  0  0  0  0
   25.5196  -22.6001   -7.6356 O   0  0  0  0  0  1  0  0  0  0  0  0
   22.9048  -24.4630  -13.7145 C   0  0  1  0  0  0  0  0  0  0  0  0
   25.6094  -23.9746   -9.2242 O   0  0  0  0  0  1  0  0  0  0  0  0
  4  2  1  0
  6  5  1  0
  7  1  1  0
  7  3  1  0
  8  3  2  3
 10  2  1  0
 10  3  1  0
 11 10  1  0
 12  1  1  0
 12  5  1  0
 13  2  2  0
 14 11  1  0
 15  6  1  0
 16  4  1  0
 16  9  1  1
 16 14  1  0
 17  6  1  0
M  RAD  2  15   2  17   2
M  END
>  <ID>  (1) 
conformer_0

$$$$
