
     RDKit          3D

 16 16  0  0  0  0  0  0  0  0999 V2000
   22.7754  -23.9081  -12.3432 C   0  0  0  0  0  0  0  0  0  0  0  0
   23.6411  -22.5494  -13.2262 C   0  0  0  0  0  0  0  0  0  0  0  0
   24.6084  -20.8825  -12.3196 C   0  0  0  0  0  0  0  0  0  0  0  0
   23.7731  -19.6065  -11.7258 C   0  0  0  0  0  0  0  0  0  0  0  0
   25.8921  -22.7273   -8.4435 P   0  0  0  0  0  0  0  0  0  0  0  0
   25.8477  -20.9849  -10.2548 C   0  0  0  0  0  0  0  0  0  0  0  0
   26.2848  -21.5934   -7.7761 O   0  0  0  0  0  0  0  0  0  0  0  0
   25.8314  -21.4242  -13.3633 O   0  0  0  0  0  0  0  0  0  0  0  0
   22.2262  -25.2746  -15.4192 N   0  0  0  0  0  0  0  0  0  0  0  0
   24.0521  -21.7208  -12.6462 N   0  0  0  0  0  0  0  0  0  0  0  0
   25.4669  -22.2901  -10.5308 O   0  0  0  0  0  0  0  0  0  0  0  0
   24.6480  -23.0543   -8.2779 O   0  0  0  0  0  0  0  0  0  0  0  0
   22.9014  -23.5872  -14.4669 C   0  0  0  0  0  0  0  0  0  0  0  0
   26.2189  -23.7786   -8.6560 O   0  0  0  0  0  0  0  0  0  0  0  0
   22.4591  -24.4641  -13.3736 C   0  0  0  0  0  0  0  0  0  0  0  0
   25.4655  -20.1359  -10.3963 C   0  0  0  0  0  0  0  0  0  0  0  0
  2  1  2  0
  4  3  1  0
  8  3  2  0
 10  2  1  0
 10  3  1  0
 11  5  1  0
 11  6  1  0
 12  5  1  0
 13  2  1  0
 13  9  1  0
 14  5  1  0
 14  7  1  0
 15  1  1  0
 15 13  2  0
 16  4  1  0
 16  6  2  3
M  END
>  <ID>  (1) 
conformer_0

$$$$
