
     RDKit          3D

 14 14  0  0  0  0  0  0  0  0999 V2000
   24.0154  -22.6947  -14.0843 C   0  0  0  0  0  0  0  0  0  0  0  0
   25.9604  -20.6357   -9.5976 C   0  0  0  0  0  0  0  0  0  0  0  0
   24.0953  -20.1546  -10.8837 C   0  0  0  0  0  0  0  0  0  0  0  0
   23.2302  -23.6946  -14.6500 N   0  0  0  0  0  0  0  0  0  0  0  0
   22.7461  -24.2770  -12.1804 C   0  0  0  0  0  0  0  0  0  0  0  0
   22.8279  -24.3779  -13.8868 C   0  0  0  0  0  0  0  0  0  0  0  0
   24.8173  -21.0890  -11.3224 C   0  0  0  0  0  0  0  0  0  0  0  0
   22.3452  -25.7485  -14.1548 N   0  0  0  0  0  0  0  0  0  0  0  0
   25.3996  -22.0439   -9.5219 O   0  0  0  0  0  0  0  0  0  0  0  0
   25.5214  -21.1058  -12.5560 O   0  0  0  0  0  0  0  0  0  0  0  0
   25.7402  -22.8491   -8.5301 P   0  0  0  0  0  0  0  0  0  0  0  0
   26.3198  -23.3929   -7.9439 O   0  0  0  0  0  0  0  0  0  0  0  0
   24.0466  -22.1407  -12.3405 N   0  0  0  0  0  0  0  0  0  0  0  0
   23.5051  -23.0661  -12.2544 C   0  0  0  0  0  0  0  0  0  0  0  0
  4  1  1  0
  6  4  1  0
  6  5  2  0
  7  2  1  0
  7  3  1  0
  8  6  1  0
  9  2  1  0
 10  7  1  0
 11  9  1  0
 12 11  1  0
 13  1  1  0
 13  7  1  0
 14  5  1  0
 14 13  1  0
M  END
>  <ID>  (1) 
conformer_0

$$$$
