
     RDKit          3D

 17 19  0  0  0  0  0  0  0  0999 V2000
   22.4323  -24.7044  -13.7518 C   0  0  0  0  0  0  0  0  0  0  0  0
   24.9785  -20.0538  -11.1036 C   0  0  0  0  0  0  0  0  0  0  0  0
   26.1525  -20.7193   -9.2425 C   0  0  0  0  0  0  0  0  0  0  0  0
   23.7381  -23.0057  -14.1904 C   0  0  0  0  0  0  0  0  0  0  0  0
   24.6926  -21.2128  -12.4035 C   0  0  0  0  0  0  0  0  0  0  0  0
   24.2151  -22.1378  -12.8050 N   0  0  0  0  0  0  0  0  0  0  0  0
   25.1353  -21.8348  -14.6542 O   0  0  0  0  0  0  0  0  0  0  0  0
   25.8917  -23.3661   -8.5411 O   0  0  0  0  0  1  0  0  0  0  0  0
   22.6791  -24.5808  -12.2585 C   0  0  0  0  0  0  0  0  0  0  0  0
   25.2848  -22.7461   -8.5764 P   0  0  0  0  0  4  0  0  0  0  0  0
   23.5754  -23.3404  -12.4132 C   0  0  0  0  0  3  0  0  0  0  0  0
   24.4099  -22.6575   -7.7797 O   0  0  0  0  0  0  0  0  0  0  0  0
   23.5309  -23.4849  -14.3809 N   0  0  0  0  0  0  0  0  0  0  0  0
   25.3487  -22.1861  -10.4562 O   0  0  0  0  0  0  0  0  0  0  0  0
   26.1016  -20.8664   -8.6128 N   0  0  0  0  0  0  0  0  0  0  0  0
   23.4856  -20.4462  -11.4988 C   0  0  0  0  0  0  0  0  0  0  0  0
   25.8182  -20.5966  -10.8333 C   0  0  0  0  0  0  0  0  0  0  0  0
  5  2  1  0
  6  4  1  0
  6  5  1  0
  7  4  1  0
  9  1  2  0
 10  8  1  0
 11  4  1  0
 11  6  1  0
 11  9  1  0
 12 10  1  0
 13  1  1  0
 13  4  1  0
 14 10  1  0
 15  3  3  0
 16  2  1  0
 16  5  1  0
 17  2  1  0
 17  3  1  0
 17 14  1  0
M  RAD  3   8   2  10   2  11   2
M  END
>  <ID>  (1) 
conformer_0

$$$$
