
     RDKit          3D

 13 14  0  0  0  0  0  0  0  0999 V2000
   23.8328  -22.7727  -14.0341 C   0  0  0  0  0  0  0  0  0  0  0  0
   26.3225  -21.1270   -8.8382 C   0  0  0  0  0  0  0  0  0  0  0  0
   23.9752  -20.6696  -11.0729 C   0  0  0  0  0  0  0  0  0  0  0  0
   23.0198  -23.8369  -14.5595 N   0  0  0  0  0  0  0  0  0  0  0  0
   24.6204  -21.0914  -12.0241 C   0  0  0  0  0  0  0  0  0  0  0  0
   22.9037  -24.5140  -13.6930 C   0  0  0  0  0  0  0  0  0  0  0  0
   25.7546  -21.2876  -12.4731 O   0  0  0  0  0  0  0  0  0  0  0  0
   22.5669  -26.0974  -14.1103 N   0  0  0  0  0  0  0  0  0  0  0  0
   26.0267  -22.6031   -8.0653 O   0  0  0  0  0  0  0  0  0  0  0  0
   24.0612  -22.1403  -12.5828 N   0  0  0  0  0  0  0  0  0  0  0  0
   23.4281  -23.4119  -12.1534 C   0  0  0  0  0  0  0  0  0  0  0  0
   25.7632  -20.6011  -10.4287 C   0  0  0  0  0  0  0  0  0  0  0  0
   25.4212  -22.0373   -9.9049 O   0  0  0  0  0  0  0  0  0  0  0  0
  4  1  2  0
  5  3  1  0
  6  4  1  0
  7  5  2  0
  8  6  1  0
  9  2  1  0
 10  1  1  0
 10  5  1  0
 11  6  2  0
 11 10  1  0
 12  2  1  0
 12  3  1  0
 13  2  1  0
 13 12  1  0
M  END
>  <ID>  (1) 
conformer_0

$$$$
