
     RDKit          3D

 17 18  0  0  0  0  0  0  0  0999 V2000
   22.6114  -25.0415  -13.8958 C   0  0  0  0  0  0  0  0  0  0  0  0
   23.9135  -22.6865  -14.1092 C   0  0  0  0  0  0  0  0  0  0  0  0
   24.2867  -21.0230  -12.5865 C   0  0  0  0  0  0  0  0  0  0  0  0
   23.9801  -20.3096  -11.1906 C   0  0  0  0  0  0  0  0  0  0  0  0
   25.3730  -20.7606  -11.1804 C   0  0  0  0  0  0  0  0  0  0  0  0
   24.3046  -22.3187  -14.9619 O   0  0  0  0  0  0  0  0  0  0  0  0
   23.8810  -22.1218  -12.8303 N   0  0  0  0  0  0  0  0  0  0  0  0
   25.7758  -23.6340   -9.1338 O   0  0  0  0  0  0  0  0  0  0  0  0
   26.1558  -22.0704   -8.2807 P   0  0  0  0  0  0  0  0  0  0  0  0
   22.2351  -25.2656  -12.4626 C   0  0  0  0  0  0  0  0  0  0  0  0
   25.7737  -21.5052  -11.7828 O   0  0  0  0  0  0  0  0  0  0  0  0
   23.0524  -23.9321  -13.8296 C   0  0  0  0  0  3  0  0  0  0  0  0
   25.7596  -21.8859   -7.3121 O   0  0  0  0  0  0  0  0  0  0  0  0
   26.2948  -21.5132   -9.0636 O   0  0  0  0  0  0  0  0  0  0  0  0
   26.4327  -20.5166   -9.6454 C   0  0  0  0  0  0  0  0  0  0  0  0
   23.5427  -23.2007  -11.9011 C   0  0  0  0  0  0  0  0  0  0  0  0
   22.7697  -24.0507  -11.6417 C   0  0  0  0  0  0  0  0  0  0  0  0
  4  3  1  0
  5  3  1  0
  5  4  1  0
  6  2  2  0
  7  2  1  0
  7  3  1  0
  9  8  1  0
 10  1  1  0
 11  5  1  0
 12  1  2  0
 12  2  1  0
 13  9  1  0
 14  9  1  0
 15  5  1  0
 15 14  1  0
 16  7  1  0
 17 10  2  0
 17 16  1  0
M  RAD  1  12   2
M  END
>  <ID>  (1) 
conformer_0

$$$$
