
     RDKit          3D

 15 16  0  0  0  0  0  0  0  0999 V2000
   24.5074  -20.8509  -12.2797 C   0  0  0  0  0  0  0  0  0  0  0  0
   22.6246  -24.7424  -13.5206 C   0  0  0  0  0  0  0  0  0  0  0  0
   23.2449  -23.9683  -14.4258 N   0  0  0  0  0  0  0  0  0  0  0  0
   25.6006  -19.9326  -11.3755 C   0  0  0  0  0  0  0  0  0  0  0  0
   25.7492  -21.1763  -12.0613 O   0  0  0  0  0  0  0  0  0  0  0  0
   23.3439  -23.3029  -11.9238 C   0  0  0  0  0  0  0  0  0  0  0  0
   23.5937  -20.4155  -11.2800 C   0  0  0  0  0  0  0  0  0  0  0  0
   25.8158  -22.6538   -8.2861 P   0  0  0  0  0  0  0  0  0  0  0  0
   23.9021  -22.3232  -12.7346 N   0  0  0  0  0  0  0  0  0  0  0  0
   26.0456  -22.3834   -8.6069 O   0  0  0  0  0  0  0  0  0  0  0  0
   22.4842  -24.3602  -12.0366 C   0  0  0  0  0  0  0  0  0  0  0  0
   24.6626  -23.2671   -8.3067 O   0  0  0  0  0  0  0  0  0  0  0  0
   23.7627  -23.0471  -13.9924 C   0  0  0  0  0  0  0  0  0  0  0  0
   26.3688  -20.4499   -9.4731 C   0  0  0  0  0  0  0  0  0  0  0  0
   22.1218  -25.8561  -13.9046 N   0  0  0  0  0  0  0  0  0  0  0  0
  3  2  1  0
  4  1  1  0
  5  1  1  0
  5  4  1  0
  7  1  1  0
  9  1  1  0
  9  6  1  0
 10  8  1  0
 11  2  2  0
 11  6  1  0
 12  8  1  0
 13  3  2  0
 13  9  1  0
 14  4  1  0
 14 10  1  0
 15  2  1  0
M  END
>  <ID>  (1) 
conformer_0

$$$$
