
     RDKit          3D

 18 19  0  0  0  0  0  0  0  0999 V2000
   26.2277  -20.5071   -9.3757 C   0  0  0  0  0  0  0  0  0  0  0  0
   22.7105  -24.5867  -13.8675 C   0  0  0  0  0  0  0  0  0  0  0  0
   25.4746  -20.3480  -10.7791 C   0  0  0  0  0  0  0  0  0  0  0  0
   22.6124  -24.7714  -12.3451 C   0  0  0  0  0  0  0  0  0  0  0  0
   23.8900  -20.2522  -11.2378 C   0  0  0  0  0  0  0  0  0  0  0  0
   24.4727  -21.7963  -14.5648 O   0  0  0  0  0  0  0  0  0  0  0  0
   26.3146  -23.4768   -8.2135 O   0  0  0  0  0  1  0  0  0  0  0  0
   25.7228  -22.5622   -8.4336 P   0  0  0  0  0  4  0  0  0  0  0  0
   22.5469  -25.3600  -14.8873 N   0  0  0  0  0  0  0  0  0  0  0  0
   25.6273  -21.9039   -9.3634 O   0  0  0  0  0  0  0  0  0  0  0  0
   23.4461  -23.3398  -11.9788 C   0  0  0  0  0  0  0  0  0  0  0  0
   24.0449  -22.3648  -12.5729 N   0  0  0  0  0  0  0  0  0  0  0  0
   24.6819  -22.5922   -7.9097 O   0  0  0  0  0  0  0  0  0  0  0  0
   23.1862  -23.8724  -14.2744 N   0  0  0  0  0  0  0  0  0  0  0  0
   23.9068  -22.8000  -13.9731 C   0  0  0  0  0  0  0  0  0  0  0  0
   25.5043  -18.8769  -11.5878 O   0  0  0  0  0  0  0  0  0  0  0  0
   24.5752  -21.1687  -12.0710 C   0  0  0  0  0  0  0  0  0  0  0  0
   25.6437  -21.6435  -11.5159 O   0  0  0  0  0  0  0  0  0  0  0  0
  3  1  1  0
  4  2  1  0
  5  3  1  0
  8  7  1  0
  9  2  1  0
 10  1  1  0
 10  8  1  0
 11  4  2  0
 12 11  1  0
 13  8  1  0
 14  2  2  0
 15  6  2  0
 15 12  1  0
 15 14  1  0
 16  3  1  0
 17  5  1  0
 17 12  1  0
 18  3  1  0
 18 17  1  0
M  RAD  2   7   2   8   2
M  END
>  <ID>  (1) 
conformer_0

$$$$
