
     RDKit          3D

 18 19  0  0  0  0  0  0  0  0999 V2000
   24.0058  -22.7454  -14.4782 C   0  0  0  0  0  0  0  0  0  0  0  0
   22.7736  -24.4560  -12.6456 C   0  0  0  0  0  0  0  0  0  0  0  0
   25.4464  -20.7271  -11.0814 C   0  0  0  0  0  0  0  0  0  0  0  0
   23.3096  -23.5983  -14.8604 N   0  0  0  0  0  0  0  0  0  0  0  0
   23.6642  -20.5356  -11.4326 C   0  0  0  0  0  0  0  0  0  0  0  0
   26.2998  -20.5379   -9.3507 C   0  0  0  0  0  0  0  0  0  0  0  0
   22.2605  -25.6586  -15.0828 N   0  0  0  0  0  0  0  0  0  0  0  0
   25.3039  -22.8152   -8.4756 P   0  0  0  0  0  0  0  0  0  0  0  0
   25.8125  -21.4062  -12.7545 O   0  0  0  0  0  0  0  0  0  0  0  0
   25.4793  -21.7590  -10.3400 O   0  0  0  0  0  0  0  0  0  0  0  0
   22.8190  -24.6095  -14.3617 C   0  0  0  0  0  0  0  0  0  0  0  0
   24.1889  -23.6758   -8.5094 O   0  0  0  0  0  0  0  0  0  0  0  0
   24.0303  -22.3064  -13.0673 N   0  0  0  0  0  0  0  0  0  0  0  0
   23.5239  -23.0554  -12.7911 C   0  0  0  0  0  0  0  0  0  0  0  0
   25.0769  -21.6595   -7.8206 O   0  0  0  0  0  0  0  0  0  0  0  0
   25.0761  -19.5626  -10.5646 C   0  0  0  0  0  0  0  0  0  0  0  0
   26.1234  -23.2154   -8.7592 O   0  0  0  0  0  0  0  0  0  0  0  0
   24.5629  -21.2087  -12.4673 C   0  0  0  0  0  0  0  0  0  0  0  0
  4  1  1  0
  5  3  1  0
  8  6  1  0
 10  3  1  0
 10  6  1  0
 11  2  2  0
 11  4  1  0
 11  7  1  0
 12  8  1  0
 13  1  1  0
 14  2  1  0
 14 13  1  0
 16  3  1  0
 17  8  1  0
 17 15  1  0
 18  3  1  0
 18  5  1  0
 18  9  1  0
 18 13  1  0
M  END
>  <ID>  (1) 
conformer_0

$$$$
