
     RDKit          3D

 18 18  0  0  0  0  0  0  0  0999 V2000
   24.8925  -19.6023  -10.5879 C   0  0  0  0  0  0  0  0  0  0  0  0
   23.7561  -23.0101  -14.1534 C   0  0  0  0  0  0  0  0  0  0  0  0
   24.6107  -21.4473  -12.1762 C   0  0  0  0  0  0  0  0  0  0  0  0
   23.0520  -23.8757  -14.7030 N   0  0  0  0  0  0  0  0  0  0  0  0
   25.5581  -20.7694  -10.9554 C   0  0  0  0  0  0  0  0  0  0  0  0
   22.6558  -24.7837  -13.8131 C   0  0  0  0  0  0  0  0  0  0  0  0
   25.7852  -22.6445   -8.4401 P   0  0  0  0  0  0  0  0  0  0  0  0
   22.1078  -25.8810  -14.1884 N   0  0  0  0  0  0  0  0  0  0  0  0
   26.4016  -23.5851   -8.1286 O   0  0  0  0  0  0  0  0  0  0  0  0
   25.3090  -21.5816  -13.3565 O   0  0  0  0  0  0  0  0  0  0  0  0
   23.7588  -20.1110  -10.9806 C   0  0  0  0  0  0  0  0  0  0  0  0
   24.1742  -22.3258  -12.6357 N   0  0  0  0  0  0  0  0  0  0  0  0
   23.5115  -23.5161  -12.3620 C   0  0  0  0  0  0  0  0  0  0  0  0
   22.7628  -24.7020  -12.1407 C   0  0  0  0  0  0  0  0  0  0  0  0
   25.3409  -22.3066  -10.3708 O   0  0  0  0  0  0  0  0  0  0  0  0
   24.9144  -22.9053   -7.7796 O   0  0  0  0  0  0  0  0  0  0  0  0
   26.3429  -20.5298   -9.2970 C   0  0  0  0  0  0  0  0  0  0  0  0
   26.1078  -21.6556   -8.5251 O   0  0  0  0  0  0  0  0  0  0  0  0
  4  2  2  0
  5  1  1  0
  5  3  1  0
  6  4  1  0
  8  6  1  0
  9  7  1  0
 10  3  1  0
 11  1  1  0
 12  3  1  0
 13  2  1  0
 13 12  1  0
 14  6  2  0
 14 13  1  0
 15  5  1  0
 16  7  1  0
 17  5  1  0
 18  7  1  0
 18 17  1  0
M  END
>  <ID>  (1) 
conformer_0

$$$$
