
     RDKit          3D

 12 13  0  0  0  0  0  0  0  0999 V2000
   26.3534  -21.1255   -8.9860 C   0  0  0  0  0  0  0  0  0  0  0  0
   23.4220  -23.4391  -11.8748 C   0  0  0  0  0  0  0  0  0  0  0  0
   23.4313  -23.5220  -14.4366 N   0  0  0  0  0  0  0  0  0  0  0  0
   25.8589  -20.4973  -10.4520 C   0  0  0  0  0  0  0  0  0  0  0  0
   22.7451  -24.6902  -12.4103 C   0  0  0  0  0  0  0  0  0  0  0  0
   24.0745  -20.2586  -11.1440 C   0  0  0  0  0  0  0  0  0  0  0  0
   23.9333  -22.2499  -12.4891 N   0  0  0  0  0  0  0  0  0  0  0  0
   25.6406  -21.7505  -10.7212 O   0  0  0  0  0  0  0  0  0  0  0  0
   23.8651  -22.7444  -13.9284 C   0  0  0  0  0  0  0  0  0  0  0  0
   22.7360  -25.8409  -14.5823 N   0  0  0  0  0  0  0  0  0  0  0  0
   22.9481  -24.6580  -13.9868 C   0  0  0  0  0  0  0  0  0  0  0  0
   24.5563  -21.1530  -11.9593 C   0  0  0  0  0  0  0  0  0  0  0  0
  4  1  1  0
  5  2  1  0
  6  4  1  0
  7  2  1  0
  8  4  1  0
  9  3  2  0
  9  7  1  0
 11  3  1  0
 11  5  2  0
 11 10  1  0
 12  6  1  0
 12  7  1  0
 12  8  1  0
M  END
>  <ID>  (1) 
conformer_0

$$$$
