
     RDKit          3D

 12 11  0  0  0  0  0  0  0  0999 V2000
   23.7681  -22.6130  -13.8968 C   0  0  0  0  0  0  0  0  0  0  0  0
   25.9356  -20.9068   -9.7068 C   0  0  0  0  0  0  0  0  0  0  0  0
   24.2110  -20.4622  -11.1277 C   0  0  0  0  0  0  0  0  0  0  0  0
   24.8231  -21.0932  -11.9286 C   0  0  0  0  0  0  0  0  0  0  0  0
   23.0859  -23.5036  -14.1310 N   0  0  0  0  0  0  0  0  0  0  0  0
   23.5994  -23.3693  -11.5336 C   0  0  0  0  0  0  0  0  0  0  0  0
   25.8568  -21.4970  -11.8503 O   0  0  0  0  0  0  0  0  0  0  0  0
   25.7012  -23.1985   -8.9441 O   0  0  0  0  0  0  0  0  0  0  0  0
   24.0188  -22.2871  -12.5201 N   0  0  0  0  0  0  0  0  0  0  0  0
   22.4094  -25.7131  -13.8279 N   0  0  0  0  0  0  0  0  0  0  0  0
   24.4417  -21.7726  -14.7506 O   0  0  0  0  0  0  0  0  0  0  0  0
   22.8341  -24.2955  -13.3045 C   0  0  0  0  0  0  0  0  0  0  0  0
  3  2  1  0
  4  3  1  0
  5  1  1  0
  7  4  2  0
  8  2  1  0
  9  1  1  0
  9  4  1  0
  9  6  1  0
 11  1  2  0
 12  5  1  0
 12 10  1  0
M  END
>  <ID>  (1) 
conformer_0

$$$$
