
     RDKit          3D

 17 17  0  0  0  0  0  0  0  0999 V2000
   25.0320  -19.6625  -11.0521 C   0  0  1  0  0  0  0  0  0  0  0  0
   25.8609  -20.5297  -10.3708 C   0  0  2  0  0  0  0  0  0  0  0  0
   23.6067  -23.0379  -12.1719 C   0  0  0  0  0  0  0  0  0  0  0  0
   22.6485  -24.0471  -12.5420 C   0  0  0  0  0  0  0  0  0  0  0  0
   23.5938  -23.3196  -14.5858 N   0  0  0  0  0  0  0  0  0  0  0  0
   24.8262  -21.0766  -11.9954 C   0  0  0  0  0  0  0  0  0  0  0  0
   22.1640  -25.5013  -14.4958 N   0  0  0  0  0  0  0  0  0  0  0  0
   22.8072  -24.3293  -14.1587 C   0  0  0  0  0  0  0  0  0  0  0  0
   26.0881  -22.9227   -8.2084 O   0  0  0  0  0  1  0  0  0  0  0  0
   24.2343  -22.0250  -12.4331 N   0  0  0  0  0  0  0  0  0  0  0  0
   25.6050  -21.6956  -10.0250 O   0  0  0  0  0  0  0  0  0  0  0  0
   24.5305  -23.5719   -9.9180 O   0  0  0  0  0  1  0  0  0  0  0  0
   25.2612  -22.9280   -8.9884 P   0  0  0  0  0  0  0  0  0  0  0  0
   24.1133  -22.5992  -14.1883 C   0  0  0  0  0  0  0  0  0  0  0  0
   25.8354  -21.5043  -12.7331 O   0  0  0  0  0  0  0  0  0  0  0  0
   26.4120  -20.8944   -8.4828 C   0  0  0  0  0  0  0  0  0  0  0  0
   23.5564  -20.0991  -11.2793 C   0  0  0  0  0  0  0  0  0  0  0  0
  2  1  1  0
  4  3  1  0
  6  1  1  0
  8  4  1  0
  8  5  1  0
  8  7  2  3
 10  3  1  0
 10  6  1  0
 11  2  1  0
 13  9  1  0
 13 11  1  0
 13 12  1  0
 14  5  2  3
 15  6  1  0
  2 16  1  1
  1 17  1  1
 17  6  1  0
M  RAD  2   9   2  12   2
M  END
>  <ID>  (1) 
conformer_0

$$$$
