
     RDKit          3D

 17 19  0  0  0  0  0  0  0  0999 V2000
   26.0948  -20.6376   -9.4110 C   0  0  0  0  0  0  0  0  0  0  0  0
   24.1548  -19.9666  -11.0546 C   0  0  0  0  0  0  0  0  0  0  0  0
   22.6351  -24.3635  -12.5586 C   0  0  0  0  0  0  0  0  0  0  0  0
   23.9903  -22.4942  -14.1521 C   0  0  0  0  0  0  0  0  0  0  0  0
   23.3135  -23.3440  -14.4447 N   0  0  0  0  0  0  0  0  0  0  0  0
   24.4459  -21.0789  -12.1702 C   0  0  2  0  0  0  0  0  0  0  0  0
   26.0758  -21.0442  -12.4188 O   0  0  0  0  0  0  0  0  0  0  0  0
   22.6741  -25.7681  -14.6425 N   0  0  0  0  0  0  0  0  0  0  0  0
   25.4176  -22.2893   -7.6529 O   0  0  0  0  0  1  0  0  0  0  0  0
   24.0159  -22.0451  -12.6306 N   0  0  0  0  0  0  0  0  0  0  0  0
   22.7134  -24.5715  -14.1818 C   0  0  0  0  0  0  0  0  0  0  0  0
   25.7462  -22.9462   -8.4812 P   0  0  0  0  0  0  0  0  0  0  0  0
   26.2283  -20.2842   -8.6930 N   0  0  0  0  0  0  0  0  0  0  0  0
   23.3971  -23.1557  -12.2795 C   0  0  0  0  0  0  0  0  0  0  0  0
   25.1683  -23.9042   -9.1887 O   0  0  0  0  0  1  0  0  0  0  0  0
   25.7037  -20.1336  -11.2446 C   0  0  1  0  0  0  0  0  0  0  0  0
   25.6503  -21.9533   -9.8608 O   0  0  0  0  0  0  0  0  0  0  0  0
  5  4  1  0
  6  2  1  0
  7  6  1  0
 10  4  1  0
  6 10  1  6
 11  3  1  0
 11  5  2  0
 11  8  1  0
 12  9  1  0
 13  1  2  3
 14  3  2  0
 14 10  1  0
 15 12  1  0
 16  1  1  0
 16  2  1  6
 16  6  1  0
 16  7  1  0
 17  1  1  0
 17 12  1  0
M  RAD  2   9   2  15   2
M  END
>  <ID>  (1) 
conformer_0

$$$$
