
     RDKit          3D

 17 17  0  0  0  0  0  0  0  0999 V2000
   23.9443  -22.7337  -14.1050 C   0  0  0  0  0  0  0  0  0  0  0  0
   22.5414  -24.9134  -12.9725 C   0  0  0  0  0  0  0  0  0  0  0  0
   24.7221  -20.4476  -11.2752 C   0  0  2  0  0  0  0  0  0  0  0  0
   24.6369  -21.2628  -11.8184 C   0  0  0  0  0  0  0  0  0  0  0  0
   25.8271  -20.7847  -10.3962 C   0  0  2  0  0  0  0  0  0  0  0  0
   23.1363  -24.4298  -14.3269 C   0  0  2  0  0  0  0  0  0  0  0  0
   25.0147  -21.6081  -14.1852 O   0  0  0  0  0  0  0  0  0  0  0  0
   25.8862  -23.3911   -8.2248 O   0  0  0  0  0  0  0  0  0  0  0  0
   23.3782  -25.2438  -15.2245 N   0  0  0  0  0  0  0  0  0  0  0  0
   25.1478  -22.7163  -10.0672 O   0  0  0  0  0  0  0  0  0  0  0  0
   24.1474  -22.1380  -12.3700 N   0  0  0  0  0  0  0  0  0  0  0  0
   22.7558  -23.9938  -11.9643 C   0  0  0  0  0  0  0  0  0  0  0  0
   23.5076  -23.0294  -12.3982 C   0  0  0  0  0  0  0  0  0  0  0  0
   23.4932  -23.1898  -14.3432 N   0  0  0  0  0  0  0  0  0  0  0  0
   26.4926  -21.0788   -8.3234 C   0  0  0  0  0  0  0  0  0  0  0  0
   26.2171  -20.7546   -9.6702 O   0  0  0  0  0  0  0  0  0  0  0  0
   23.1396  -20.7366  -11.1364 C   0  0  0  0  0  0  0  0  0  0  0  0
  4  3  1  0
  5  3  1  0
  6  2  1  0
  7  1  2  0
  6  9  1  1
  5 10  1  1
 10  8  1  0
 11  4  1  0
 12  2  2  0
 13  1  1  0
 13 11  2  3
 13 12  1  0
 14  1  1  0
 14  6  1  0
 16  5  1  0
 16 15  1  0
  3 17  1  1
M  END
>  <ID>  (1) 
conformer_0

$$$$
