
     RDKit          3D

 16 17  0  0  0  0  0  0  0  0999 V2000
   26.4269  -21.0515   -8.7702 C   0  0  0  0  0  0  0  0  0  0  0  0
   24.0472  -22.6103  -14.2021 C   0  0  0  0  0  0  0  0  0  0  0  0
   24.2423  -20.5296  -10.9551 C   0  0  0  0  0  0  0  0  0  0  0  0
   26.0266  -20.6460  -10.4078 C   0  0  0  0  0  0  0  0  0  0  0  0
   23.2135  -23.6735  -14.5726 N   0  0  0  0  0  0  0  0  0  0  0  0
   25.7297  -23.1995   -9.2126 O   0  0  0  0  0  1  0  0  0  0  0  0
   22.2101  -25.7236  -14.2752 N   0  0  0  0  0  0  0  0  0  0  0  0
   22.7609  -24.4269  -13.9237 C   0  0  0  0  0  0  0  0  0  0  0  0
   25.9130  -21.6446  -11.4928 O   0  0  0  0  0  0  0  0  0  0  0  0
   24.8483  -21.8004  -14.6066 O   0  0  0  0  0  0  0  0  0  0  0  0
   24.0612  -22.1850  -12.7787 N   0  0  0  0  0  0  0  0  0  0  0  0
   24.6300  -22.6155   -7.9196 O   0  0  0  0  0  0  0  0  0  0  0  0
   23.3665  -23.3187  -12.3837 C   0  0  0  0  0  0  0  0  0  0  0  0
   22.7400  -24.6994  -12.5571 C   0  0  0  0  0  0  0  0  0  0  0  0
   25.4528  -22.7584   -8.5424 P   0  0  0  0  0  4  0  0  0  0  0  0
   24.7974  -21.1482  -12.0664 C   0  0  0  0  0  0  0  0  0  0  0  0
  4  1  1  0
  4  3  1  0
  5  2  1  0
  8  5  2  0
  8  7  1  0
  9  4  1  0
 10  2  2  0
 11  2  1  0
 13 11  1  0
 14  8  1  0
 14 13  1  0
 15  1  1  0
 15  6  1  0
 15 12  1  0
 16  3  1  0
 16  9  1  0
 16 11  1  0
M  RAD  2   6   2  15   2
M  END
>  <ID>  (1) 
conformer_0

$$$$
