
     RDKit          3D

 13 13  0  0  0  0  0  0  0  0999 V2000
   26.2168  -20.6546   -9.5203 C   0  0  0  0  0  0  0  0  0  0  0  0
   22.7724  -24.4413  -12.2749 C   0  0  0  0  0  0  0  0  0  0  0  0
   23.7581  -22.6934  -13.7737 C   0  0  0  0  0  0  0  0  0  0  0  0
   23.1762  -23.4562  -14.5788 N   0  0  0  0  0  0  0  0  0  0  0  0
   25.3257  -20.9366  -10.7215 C   0  0  0  0  0  0  0  0  0  0  0  0
   24.2192  -19.8255  -11.1798 C   0  0  0  0  0  0  0  0  0  0  0  0
   25.3832  -22.8399   -8.8587 O   0  0  0  0  0  0  0  0  0  0  0  0
   23.7423  -23.3586  -11.5725 C   0  0  0  0  0  0  0  0  0  0  0  0
   25.5335  -21.1087  -12.3625 O   0  0  0  0  0  0  0  0  0  0  0  0
   24.1411  -22.4064  -12.4376 N   0  0  0  0  0  0  0  0  0  0  0  0
   25.4412  -22.9153   -8.7170 P   0  0  0  0  0  0  0  0  0  0  0  0
   22.6570  -24.4305  -13.8452 C   0  0  0  0  0  0  0  0  0  0  0  0
   24.5883  -21.3295  -12.4901 C   0  0  0  0  0  0  0  0  0  0  0  0
  4  3  1  0
  5  1  1  0
  6  5  1  0
  8  2  2  0
  9  5  1  0
 10  3  1  0
 10  8  1  0
 11  1  1  0
 11  7  1  0
 12  2  1  0
 12  4  2  0
 13  9  1  0
 13 10  1  0
M  END
>  <ID>  (1) 
conformer_0

$$$$
