
     RDKit          3D

 17 18  0  0  0  0  0  0  0  0999 V2000
   22.5518  -24.9141  -12.6620 C   0  0  0  0  0  0  0  0  0  0  0  0
   26.3105  -20.4151   -9.8169 C   0  0  0  0  0  0  0  0  0  0  0  0
   24.0023  -22.4921  -14.0861 C   0  0  0  0  0  0  0  0  0  0  0  0
   23.9696  -20.2171  -11.3015 C   0  0  0  0  0  0  0  0  0  0  0  0
   23.1846  -23.4204  -14.4851 N   0  0  0  0  0  0  0  0  0  0  0  0
   25.8118  -20.5486  -11.0536 C   0  0  0  0  0  0  0  0  0  0  0  0
   25.6818  -22.5676   -8.6135 P   0  0  0  0  0  0  0  0  0  0  0  0
   22.8380  -24.3385  -14.0302 C   0  0  0  0  0  0  0  0  0  0  0  0
   22.4943  -25.6507  -14.8071 N   0  0  0  0  0  0  0  0  0  0  0  0
   26.5896  -21.9929   -7.8975 O   0  0  0  0  0  1  0  0  0  0  0  0
   25.4214  -21.5983  -13.5213 O   0  0  0  0  0  0  0  0  0  0  0  0
   24.2576  -21.8645  -12.6445 N   0  0  0  0  0  0  0  0  0  0  0  0
   25.6175  -21.8953  -10.1693 O   0  0  0  0  0  0  0  0  0  0  0  0
   23.0447  -23.8971  -11.8033 C   0  0  0  0  0  0  0  0  0  0  0  0
   23.6442  -22.8564  -12.4045 C   0  0  0  0  0  0  0  0  0  0  0  0
   24.7852  -22.9600   -8.3826 O   0  0  0  0  0  1  0  0  0  0  0  0
   24.7176  -21.0508  -12.3747 C   0  0  0  0  0  0  0  0  0  0  0  0
  5  3  2  0
  6  2  1  0
  6  4  1  0
  8  1  2  0
  8  5  1  0
  9  8  1  0
 10  7  1  0
 13  6  1  0
 13  7  1  0
 14  1  1  0
 15  3  1  0
 15 12  1  0
 15 14  2  0
 16  7  1  0
 17  4  1  0
 17  6  1  0
 17 11  1  0
 17 12  1  0
M  RAD  2  10   2  16   2
M  END
>  <ID>  (1) 
conformer_0

$$$$
