
     RDKit          3D

 15 18  0  0  0  0  0  0  0  0999 V2000
   26.3465  -20.6977   -9.4618 C   0  0  0  0  0  0  0  0  0  0  0  0
   22.8526  -24.4226  -13.8920 C   0  0  0  0  0  0  0  0  0  0  0  0
   24.0049  -20.2111  -11.1807 C   0  0  0  0  0  0  0  0  0  0  0  0
   23.6106  -23.5702  -14.7420 N   0  0  0  0  0  0  0  0  0  0  0  0
   22.5788  -24.4226  -12.1034 C   0  0  0  0  0  0  0  0  0  0  0  0
   25.6957  -20.5426  -10.9310 C   0  0  0  0  0  0  0  0  0  0  0  0
   24.2613  -22.4331  -14.2717 C   0  0  0  0  0  0  0  0  0  0  0  0
   24.1695  -22.2741  -12.8935 N   0  0  0  0  0  0  0  0  0  0  0  0
   22.1291  -25.5382  -14.1574 N   0  0  0  0  0  0  0  0  0  0  0  0
   25.1598  -21.8802   -7.9986 O   0  0  0  0  0  1  0  0  0  0  0  0
   25.4991  -22.4914   -8.4831 P   0  0  0  0  0  4  0  0  0  0  0  0
   25.4799  -23.5561   -8.6965 O   0  0  0  0  0  0  0  0  0  0  0  0
   23.5218  -23.3331  -12.4324 C   0  0  0  0  0  3  0  0  0  0  0  0
   25.6024  -21.8664  -10.8573 O   0  0  0  0  0  0  0  0  0  0  0  0
   24.6536  -21.3363  -12.0281 C   0  0  0  0  0  0  0  0  0  0  0  0
  4  2  1  0
  5  2  1  0
  6  1  1  0
  6  3  1  0
  7  4  2  0
  8  7  1  0
  9  2  1  0
 11  1  1  0
 11 10  1  0
 12 11  1  0
 13  2  1  0
 13  5  1  0
 13  8  1  0
 14  6  1  0
 15  3  1  0
 15  6  1  0
 15  8  1  0
 15 14  1  0
M  RAD  3  10   2  11   2  13   2
M  END
>  <ID>  (1) 
conformer_0

$$$$
