
     RDKit          3D

 13 12  0  0  0  0  0  0  0  0999 V2000
   26.4817  -21.0063   -9.0180 C   0  0  0  0  0  0  0  0  0  0  0  0
   23.7324  -22.6261  -13.5832 C   0  0  0  0  0  0  0  0  0  0  0  0
   24.6248  -20.7922  -12.1800 C   0  0  0  0  0  0  0  0  0  0  0  0
   22.6443  -24.1787  -12.4539 C   0  0  0  0  0  0  0  0  0  0  0  0
   25.7224  -21.3596  -11.2371 O   0  0  0  0  0  0  0  0  0  0  0  0
   24.6968  -21.7841  -14.8011 O   0  0  0  0  0  0  0  0  0  0  0  0
   22.9931  -23.6587  -14.7665 N   0  0  0  0  0  0  0  0  0  0  0  0
   25.4327  -22.6871   -8.2676 O   0  0  0  0  0  0  0  0  0  0  0  0
   22.7346  -24.2528  -13.8925 C   0  0  0  0  0  0  0  0  0  0  0  0
   25.3042  -22.8097   -8.4773 P   0  0  0  0  0  0  0  0  0  0  0  0
   25.9169  -20.4077  -10.3649 C   0  0  0  0  0  0  0  0  0  0  0  0
   23.9472  -22.0085  -13.0174 N   0  0  0  0  0  0  0  0  0  0  0  0
   23.9569  -20.3455  -11.3042 C   0  0  0  0  0  0  0  0  0  0  0  0
  5  3  1  0
  6  2  2  0
  7  2  1  0
  9  4  1  0
  9  7  1  0
 10  1  1  0
 10  8  1  0
 11  1  1  0
 11  5  1  0
 12  2  1  0
 12  3  1  0
 13  3  1  0
M  END
>  <ID>  (1) 
conformer_0

$$$$
