
     RDKit          3D

 15 16  0  0  0  0  0  0  0  0999 V2000
   23.4050  -23.3930  -12.2104 C   0  0  0  0  0  0  0  0  0  0  0  0
   26.3634  -20.7905   -8.7433 C   0  0  0  0  0  0  0  0  0  0  0  0
   23.9379  -20.2059  -11.0583 C   0  0  0  0  0  0  0  0  0  0  0  0
   26.0626  -20.3386  -10.4398 C   0  0  0  0  0  0  0  0  0  0  0  0
   22.3010  -24.6943  -12.5046 C   0  0  0  0  0  0  0  0  0  0  0  0
   26.2800  -23.4293   -7.7338 O   0  0  0  0  0  0  0  0  0  0  0  0
   23.9233  -22.5519  -14.0827 C   0  0  0  0  0  0  0  0  0  0  0  0
   25.8342  -21.3058  -11.5016 O   0  0  0  0  0  0  0  0  0  0  0  0
   25.6685  -23.0329   -8.5206 P   0  0  0  0  0  0  0  0  0  0  0  0
   24.5856  -21.8410  -14.8595 O   0  0  0  0  0  0  0  0  0  0  0  0
   23.0984  -23.8863  -13.8569 N   0  0  0  0  0  0  0  0  0  0  0  0
   24.7650  -20.8596  -12.0324 C   0  0  0  0  0  0  0  0  0  0  0  0
   24.1234  -22.0083  -12.8828 N   0  0  0  0  0  0  0  0  0  0  0  0
   22.8575  -24.3536  -13.8695 C   0  0  0  0  0  0  0  0  0  0  0  0
   25.3416  -22.4798   -9.3335 O   0  0  0  0  0  0  0  0  0  0  0  0
  4  2  1  0
  5  1  1  0
  8  4  1  0
  9  2  1  0
  9  6  1  0
 10  7  2  0
 11  1  1  0
 11  7  1  0
 12  3  1  0
 12  8  1  0
 13  1  1  0
 13  7  1  0
 13 12  1  0
 14  5  1  0
 14 11  1  0
 15  9  1  0
M  END
>  <ID>  (1) 
conformer_0

$$$$
