
     RDKit          3D

 17 18  0  0  0  0  0  0  0  0999 V2000
   23.8653  -22.8037  -14.2642 C   0  0  0  0  0  0  0  0  0  0  0  0
   22.5151  -24.9337  -12.6072 C   0  0  0  0  0  0  0  0  0  0  0  0
   24.8205  -19.8538  -10.4139 C   0  0  0  0  0  0  0  0  0  0  0  0
   24.5492  -21.1544  -12.0993 C   0  0  0  0  0  0  0  0  0  0  0  0
   25.4192  -20.6192  -10.5323 C   0  0  0  0  0  0  0  0  0  0  0  0
   22.8331  -24.5487  -14.0564 C   0  0  0  0  0  0  0  0  0  0  0  0
   22.9778  -24.2372  -14.5888 N   0  0  0  0  0  0  0  0  0  0  0  0
   25.9410  -22.1084   -7.8446 O   0  0  0  0  0  1  0  0  0  0  0  0
   25.4146  -21.2800  -13.4834 O   0  0  0  0  0  0  0  0  0  0  0  0
   24.1771  -22.0703  -12.5874 N   0  0  0  0  0  0  0  0  0  0  0  0
   23.7231  -22.9831  -12.6708 C   0  0  0  0  0  0  0  0  0  0  0  0
   25.7295  -22.6006   -8.6487 P   0  0  0  0  0  0  0  0  0  0  0  0
   25.3181  -22.0602  -10.0879 O   0  0  0  0  0  0  0  0  0  0  0  0
   23.6633  -20.3244  -11.4997 C   0  0  0  0  0  0  0  0  0  0  0  0
   23.1504  -23.9406  -11.7331 C   0  0  0  0  0  0  0  0  0  0  0  0
   25.5161  -23.8687   -8.6088 O   0  0  0  0  0  1  0  0  0  0  0  0
   26.2761  -20.5418   -8.9118 C   0  0  0  0  0  0  0  0  0  0  0  0
  5  3  1  0
  5  4  1  0
  6  2  2  0
  7  1  2  0
  7  6  1  0
  9  4  1  0
 10  4  1  0
 11  1  1  0
 11 10  1  0
 12  8  1  0
 13  5  1  0
 13 12  1  0
 14  3  1  0
 14  4  1  0
 15  2  1  0
 15 11  2  0
 16 12  1  0
 17  5  1  0
M  RAD  2   8   2  16   2
M  END
>  <ID>  (1) 
conformer_0

$$$$
