
     RDKit          3D

 16 17  0  0  0  0  0  0  0  0999 V2000
   23.8991  -22.6356  -14.1359 C   0  0  0  0  0  0  0  0  0  0  0  0
   24.5294  -21.0029  -12.1914 C   0  0  0  0  0  0  0  0  0  0  0  0
   25.5379  -20.4956  -10.8312 C   0  0  0  0  0  0  0  0  0  0  0  0
   23.8931  -20.2790  -10.9520 C   0  0  0  0  0  0  0  0  0  0  0  0
   22.8583  -24.5152  -13.8079 C   0  0  0  0  0  0  0  0  0  0  0  0
   23.0870  -23.4362  -14.5381 N   0  0  0  0  0  0  0  0  0  0  0  0
   22.8726  -24.3115  -12.1762 C   0  0  0  0  0  0  0  0  0  0  0  0
   22.4900  -25.8641  -14.3493 N   0  0  0  0  0  0  0  0  0  0  0  0
   26.3142  -23.2337   -7.9960 O   0  0  0  0  0  0  0  0  0  0  0  0
   24.1284  -22.0199  -12.6506 N   0  0  0  0  0  0  0  0  0  0  0  0
   25.2471  -21.6527   -8.1929 O   0  0  0  0  0  0  0  0  0  0  0  0
   25.6622  -22.3762   -8.2651 P   0  0  0  0  0  0  0  0  0  0  0  0
   23.6253  -23.1539  -12.2411 C   0  0  0  0  0  0  0  0  0  0  0  0
   25.6891  -21.3030  -13.0948 O   0  0  0  0  0  0  0  0  0  0  0  0
   25.6320  -21.6873  -10.4585 O   0  0  0  0  0  0  0  0  0  0  0  0
   26.2546  -20.4922   -9.1293 C   0  0  0  0  0  0  0  0  0  0  0  0
  3  2  1  0
  4  2  1  0
  4  3  1  0
  6  1  1  0
  6  5  1  0
  7  5  1  0
  8  5  1  0
 10  1  1  0
 10  2  1  0
 12  9  1  0
 12 11  1  0
 13  7  1  0
 13 10  1  0
 14  2  1  0
 15  3  1  0
 16  3  1  0
 16 12  1  0
M  END
>  <ID>  (1) 
conformer_0

$$$$
