
     RDKit          3D

 17 21  0  0  0  0  0  0  0  0999 V2000
   23.2904  -23.7750  -14.4025 C   0  0  0  0  0  0  0  0  0  0  0  0
   26.1657  -20.5106   -9.7890 C   0  0  0  0  0  0  0  0  0  0  0  0
   24.9110  -19.7843  -10.8009 C   0  0  0  0  0  0  0  0  0  0  0  0
   23.5594  -23.3635  -14.6979 N   0  0  0  0  0  0  0  0  0  0  0  0
   24.2278  -22.1886  -14.0364 C   0  0  0  0  0  0  0  0  0  0  0  0
   25.4421  -20.7176  -11.1940 C   0  0  0  0  0  0  0  0  0  0  0  0
   25.8792  -22.5514   -8.4029 P   0  0  0  0  0  4  0  0  0  0  0  0
   22.6558  -25.5731  -14.3488 N   0  0  0  0  0  0  0  0  0  0  0  0
   25.9890  -21.6163   -8.0031 O   0  0  0  0  0  1  0  0  0  0  0  0
   23.8363  -22.1149  -12.6405 N   0  0  0  0  0  0  0  0  0  0  0  0
   23.3015  -23.1935  -11.9502 C   0  0  0  0  0  0  0  0  0  0  0  0
   25.5957  -23.7248   -8.8179 O   0  0  0  0  0  0  0  0  0  0  0  0
   25.3421  -21.8283  -10.0701 O   0  0  0  0  0  0  0  0  0  0  0  0
   25.3101  -21.2775  -13.0962 O   0  0  0  0  0  0  0  0  0  0  0  0
   23.9686  -21.2903  -11.9312 C   0  0  0  0  0  0  0  0  0  0  0  0
   23.3005  -20.4583  -10.8857 C   0  0  0  0  0  0  0  0  0  0  0  0
   22.6968  -24.5276  -13.1296 C   0  0  0  0  0  0  0  0  0  0  0  0
  4  1  1  0
  5  4  2  0
  6  2  1  0
  6  3  1  0
  7  2  1  0
  8  1  1  0
  9  7  1  0
 10  5  1  0
 11 10  1  0
 12  7  1  0
 13  2  1  0
 13  6  1  0
 14  5  1  0
 15  6  1  0
 15 10  1  0
 15 14  1  0
 16  3  1  0
 16 15  1  0
 17  1  2  0
 17  8  1  0
 17 11  1  0
M  RAD  2   7   2   9   2
M  END
>  <ID>  (1) 
conformer_0

$$$$
