
     RDKit          3D

 17 18  0  0  0  0  0  0  0  0999 V2000
   25.8622  -20.5643   -9.8033 C   0  0  0  0  0  0  0  0  0  0  0  0
   22.7263  -24.4402  -12.3767 C   0  0  0  0  0  0  0  0  0  0  0  0
   23.5447  -23.1566  -11.8509 C   0  0  0  0  0  0  0  0  0  0  0  0
   23.4548  -23.6160  -14.5532 N   0  0  0  0  0  0  0  0  0  0  0  0
   23.8985  -20.3012  -11.1142 C   0  0  0  0  0  0  0  0  0  0  0  0
   25.8251  -20.1978  -11.0890 C   0  0  0  0  0  0  0  0  0  0  0  0
   22.4814  -25.6032  -14.6188 N   0  0  0  0  0  0  0  0  0  0  0  0
   25.5943  -22.5102   -8.5773 P   0  0  0  0  0  4  0  0  0  0  0  0
   25.7883  -21.1599  -11.9657 O   0  0  0  0  0  0  0  0  0  0  0  0
   24.0064  -22.2275  -12.5630 N   0  0  0  0  0  0  0  0  0  0  0  0
   25.7052  -21.4781   -8.8085 O   0  0  0  0  0  0  0  0  0  0  0  0
   24.0173  -22.6567  -13.9141 C   0  0  0  0  0  0  0  0  0  0  0  0
   24.7927  -21.9247  -14.5291 O   0  0  0  0  0  0  0  0  0  0  0  0
   22.8658  -24.5715  -13.9460 C   0  0  0  0  0  0  0  0  0  0  0  0
   25.1970  -23.4038   -7.9651 O   0  0  0  0  0  0  0  0  0  0  0  0
   24.3570  -21.1325  -12.1150 C   0  0  0  0  0  0  0  0  0  0  0  0
   26.0294  -23.3891   -8.8297 O   0  0  0  0  0  1  0  0  0  0  0  0
  3  2  2  0
  6  1  1  0
  6  5  1  0
  9  6  1  0
 10  3  1  0
 11  1  1  0
 11  8  1  0
 12  4  1  0
 12 10  1  0
 13 12  2  0
 14  2  1  0
 14  4  2  0
 14  7  1  0
 15  8  1  0
 16  5  1  0
 16  9  1  0
 16 10  1  0
 17  8  1  0
M  RAD  2   8   2  17   2
M  END
>  <ID>  (1) 
conformer_0

$$$$
