
     RDKit          3D

 16 16  0  0  0  0  0  0  0  0999 V2000
   25.9195  -20.5359   -9.8931 C   0  0  0  0  0  0  0  0  0  0  0  0
   22.7032  -24.0728  -12.2914 C   0  0  0  0  0  0  0  0  0  0  0  0
   23.5149  -23.4747  -14.6502 N   0  0  0  0  0  0  0  0  0  0  0  0
   24.2215  -22.2775  -14.3278 C   0  0  0  0  0  0  0  0  0  0  0  0
   24.5510  -20.2995  -11.2697 C   0  0  0  0  0  0  0  0  0  0  0  0
   25.0707  -21.0481  -11.9359 C   0  0  0  0  0  0  0  0  0  0  0  0
   25.8491  -21.4292   -9.0409 O   0  0  0  0  0  0  0  0  0  0  0  0
   22.3518  -25.4517  -14.3114 N   0  0  0  0  0  0  0  0  0  0  0  0
   24.1886  -22.1038  -12.7980 N   0  0  0  0  0  0  0  0  0  0  0  0
   25.4102  -20.9863  -13.7910 O   0  0  0  0  0  0  0  0  0  0  0  0
   25.1789  -22.5532   -8.5586 P   0  0  0  0  0  4  0  0  0  0  0  0
   22.7820  -24.3648  -13.9773 C   0  0  0  0  0  0  0  0  0  0  0  0
   26.4217  -23.0558   -7.2831 C   0  0  0  0  0  0  0  0  0  0  0  0
   25.2633  -23.5173   -9.3889 O   0  0  0  0  0  1  0  0  0  0  0  0
   23.5775  -22.9334  -12.4057 C   0  0  0  0  0  0  0  0  0  0  0  0
   24.4110  -22.3170   -7.7148 O   0  0  0  0  0  0  0  0  0  0  0  0
  4  3  1  0
  5  1  1  0
  6  5  1  0
  7  1  1  0
  9  4  1  0
  9  6  1  0
 10  4  2  0
 11  7  1  0
 12  2  1  0
 12  3  2  0
 12  8  1  0
 14 11  1  0
 15  2  2  0
 15  9  1  0
 16 11  1  0
 16 13  1  0
M  RAD  2  11   2  14   2
M  END
>  <ID>  (1) 
conformer_0

$$$$
