
     RDKit          3D

 17 18  0  0  0  0  0  0  0  0999 V2000
   25.6480  -20.6486  -10.8783 C   0  0  0  0  0  0  0  0  0  0  0  0
   24.0235  -22.5004  -14.2210 C   0  0  0  0  0  0  0  0  0  0  0  0
   23.3834  -23.6236  -14.5049 N   0  0  0  0  0  0  0  0  0  0  0  0
   24.2053  -20.3831  -11.0583 C   0  0  0  0  0  0  0  0  0  0  0  0
   22.7063  -24.2021  -12.2206 C   0  0  0  0  0  0  0  0  0  0  0  0
   24.4436  -21.2320  -12.0771 C   0  0  0  0  0  0  0  0  0  0  0  0
   22.3176  -25.6852  -14.0827 N   0  0  0  0  0  0  0  0  0  0  0  0
   25.6248  -22.5119   -8.5140 P   0  0  0  0  0  4  0  0  0  0  0  0
   25.6515  -23.5397   -8.9721 O   0  0  0  0  0  1  0  0  0  0  0  0
   22.8120  -24.4984  -13.8940 C   0  0  0  0  0  0  0  0  0  0  0  0
   24.6976  -22.1345   -7.8258 O   0  0  0  0  0  0  0  0  0  0  0  0
   23.9795  -22.0689  -12.6704 N   0  0  0  0  0  0  0  0  0  0  0  0
   25.6641  -21.6159  -11.3582 O   0  0  0  0  0  0  0  0  0  0  0  0
   24.6401  -21.4408  -14.4163 O   0  0  0  0  0  0  0  0  0  0  0  0
   26.2567  -21.4029   -8.7835 O   0  0  0  0  0  0  0  0  0  0  0  0
   23.3283  -22.9920  -12.3165 C   0  0  0  0  0  0  0  0  0  0  0  0
   26.2853  -20.3014   -9.5393 C   0  0  0  0  0  0  0  0  0  0  0  0
  3  2  1  0
  4  1  1  0
  6  4  1  0
  9  8  1  0
 10  3  2  0
 10  5  1  0
 10  7  1  0
 11  8  1  0
 12  2  1  0
 12  6  1  0
 13  1  1  0
 13  6  1  0
 14  2  2  0
 15  8  1  0
 16  5  1  0
 16 12  1  0
 17  1  1  0
 17 15  1  0
M  RAD  2   8   2   9   2
M  END
>  <ID>  (1) 
conformer_0

$$$$
