
     RDKit          3D

 16 17  0  0  0  0  0  0  0  0999 V2000
   23.9152  -22.8054  -14.0539 C   0  0  0  0  0  0  0  0  0  0  0  0
   25.6855  -20.5139  -11.1789 C   0  0  0  0  0  0  0  0  0  0  0  0
   24.1269  -20.4671  -11.0040 C   0  0  0  0  0  0  0  0  0  0  0  0
   24.5172  -21.2645  -12.3052 C   0  0  0  0  0  0  0  0  0  0  0  0
   23.0411  -23.6622  -14.3802 N   0  0  0  0  0  0  0  0  0  0  0  0
   22.7547  -24.5717  -12.0706 C   0  0  0  0  0  0  0  0  0  0  0  0
   22.3856  -25.7195  -14.3013 N   0  0  0  0  0  0  0  0  0  0  0  0
   26.5411  -21.8250   -7.8753 O   0  0  0  0  0  0  0  0  0  0  0  0
   24.6697  -22.2806  -14.8787 O   0  0  0  0  0  0  0  0  0  0  0  0
   24.0216  -22.2733  -12.6851 N   0  0  0  0  0  0  0  0  0  0  0  0
   25.5822  -22.1640   -9.7754 O   0  0  0  0  0  0  0  0  0  0  0  0
   22.7622  -24.6189  -13.7343 C   0  0  0  0  0  0  0  0  0  0  0  0
   25.8733  -20.8258   -9.5648 C   0  0  0  0  0  0  0  0  0  0  0  0
   23.5292  -23.3118  -12.0576 C   0  0  0  0  0  0  0  0  0  0  0  0
   25.6749  -21.6590  -12.0519 O   0  0  0  0  0  0  0  0  0  0  0  0
   25.9428  -22.7241   -7.7411 C   0  0  0  0  0  0  0  0  0  0  0  0
  3  2  1  0
  4  3  1  0
  5  1  1  0
  9  1  2  0
 10  1  1  0
 10  4  1  0
 12  5  1  0
 12  6  1  0
 12  7  1  0
 13  2  1  0
 13  8  1  0
 13 11  1  0
 14  6  2  0
 14 10  1  0
 15  2  1  0
 15  4  1  0
 16  8  1  0
M  END
>  <ID>  (1) 
conformer_0

$$$$
