
     RDKit          3D

 14 15  0  0  0  0  0  0  0  0999 V2000
   23.7813  -22.6379  -14.1987 C   0  0  0  0  0  0  0  0  0  0  0  0
   26.3352  -20.9906   -8.6921 C   0  0  0  0  0  0  0  0  0  0  0  0
   22.7134  -24.5075  -12.5278 C   0  0  0  0  0  0  0  0  0  0  0  0
   24.1710  -20.3639  -10.9941 C   0  0  0  0  0  0  0  0  0  0  0  0
   25.5863  -20.8008  -10.4495 C   0  0  0  0  0  0  0  0  0  0  0  0
   22.8269  -24.5091  -14.2387 C   0  0  0  0  0  0  0  0  0  0  0  0
   25.6858  -23.3641   -9.1132 O   0  0  0  0  0  0  0  0  0  0  0  0
   23.4896  -23.4713  -14.7708 N   0  0  0  0  0  0  0  0  0  0  0  0
   23.9582  -21.8692  -12.6963 N   0  0  0  0  0  0  0  0  0  0  0  0
   22.1387  -25.9182  -14.5534 N   0  0  0  0  0  0  0  0  0  0  0  0
   25.4333  -21.8889  -10.6138 O   0  0  0  0  0  0  0  0  0  0  0  0
   23.3873  -23.0508  -12.7576 C   0  0  0  0  0  0  0  0  0  0  0  0
   26.5053  -21.6694   -7.7452 N   0  0  0  0  0  0  0  0  0  0  0  0
   24.4571  -20.9530  -12.1811 C   0  0  0  0  0  0  0  0  0  0  0  0
  5  2  1  0
  5  4  1  0
  6  3  2  0
  8  1  2  0
  8  6  1  0
  9  1  1  0
 10  6  1  0
 11  5  1  0
 12  1  1  0
 12  3  1  0
 12  9  1  0
 13  2  1  0
 13  7  1  0
 14  4  1  0
 14  9  1  0
M  END
>  <ID>  (1) 
conformer_0

$$$$
