
     RDKit          3D

 20 20  0  0  0  0  0  0  0  0999 V2000
   26.5632  -20.6795   -9.1204 C   0  0  0  0  0  0  0  0  0  0  0  0
   23.8760  -22.6920  -14.3634 C   0  0  0  0  0  0  0  0  0  0  0  0
   23.1763  -23.7523  -11.7139 C   0  0  0  0  0  0  0  0  0  0  0  0
   24.6230  -19.7269  -10.9066 C   0  0  0  0  0  0  0  0  0  0  0  0
   24.5022  -21.1284  -12.1492 C   0  0  0  0  0  0  0  0  0  0  0  0
   23.1477  -23.7774  -14.6752 N   0  0  0  0  0  0  0  0  0  0  0  0
   25.6000  -21.9734  -10.1928 O   0  0  0  0  0  0  0  0  0  0  0  0
   22.6863  -24.6617  -13.8993 C   0  0  0  0  0  0  0  0  0  0  0  0
   26.0046  -23.9473   -8.2774 O   0  0  0  0  0  0  0  0  0  0  0  0
   22.3640  -25.8421  -14.2847 N   0  0  0  0  0  0  0  0  0  0  0  0
   25.4992  -22.7841   -8.6837 P   0  0  0  0  0  0  0  0  0  0  0  0
   24.5718  -21.8949  -14.7140 O   0  0  0  0  0  0  0  0  0  0  0  0
   23.8546  -22.2356  -12.8171 N   0  0  0  0  0  0  0  0  0  0  0  0
   25.8406  -21.3457  -12.4984 O   0  0  0  0  0  0  0  0  0  0  0  0
   24.1760  -22.9606   -8.8409 O   0  0  0  0  0  0  0  0  0  0  0  0
   23.4568  -22.9936  -12.6095 C   0  0  0  0  0  0  0  0  0  0  0  0
   25.8115  -20.5613  -10.7226 C   0  0  0  0  0  0  0  0  0  0  0  0
   25.9208  -22.0274   -7.9875 O   0  0  0  0  0  0  0  0  0  0  0  0
   23.6288  -20.7600  -11.2953 C   0  0  0  0  0  0  0  0  0  0  0  0
   22.4174  -24.7802  -12.4873 C   0  0  0  0  0  0  0  0  0  0  0  0
  6  2  1  0
  8  6  1  0
 10  8  1  0
 11  9  1  0
 12  2  2  0
 13  2  1  0
 13  5  1  0
 14  5  2  0
 15 11  1  0
 16  3  2  0
 16 13  1  0
 17  1  1  0
 17  4  1  0
 17  7  1  0
 18  1  1  0
 18 11  1  0
 19  4  1  0
 19  5  1  0
 20  3  1  0
 20  8  1  0
M  END
>  <ID>  (1) 
conformer_0

$$$$
