
     RDKit          3D

 14 14  0  0  0  0  0  0  0  0999 V2000
   25.8527  -20.3157  -10.6197 C   0  0  0  0  0  0  0  0  0  0  0  0
   22.8620  -24.7024  -13.5922 C   0  0  0  0  0  0  0  0  0  0  0  0
   23.7719  -20.5093  -11.0793 C   0  0  0  0  0  0  0  0  0  0  0  0
   26.1819  -20.9610   -9.1404 C   0  0  0  0  0  0  0  0  0  0  0  0
   23.2011  -23.7257  -14.3402 N   0  0  0  0  0  0  0  0  0  0  0  0
   22.6174  -25.7106  -14.2163 N   0  0  0  0  0  0  0  0  0  0  0  0
   25.5503  -22.1520   -9.6402 O   0  0  0  0  0  0  0  0  0  0  0  0
   23.9061  -22.5073  -12.4381 N   0  0  0  0  0  0  0  0  0  0  0  0
   23.5693  -23.4189  -11.6563 C   0  0  0  0  0  0  0  0  0  0  0  0
   25.7309  -18.8705  -11.0732 O   0  0  0  0  0  0  0  0  0  0  0  0
   24.6953  -21.1439  -11.9300 C   0  0  0  0  0  0  0  0  0  0  0  0
   22.7335  -24.7139  -12.0731 C   0  0  0  0  0  0  0  0  0  0  0  0
   25.7722  -21.5292  -11.8181 O   0  0  0  0  0  0  0  0  0  0  0  0
   23.8238  -23.0943  -13.7672 C   0  0  0  0  0  0  0  0  0  0  0  0
  4  1  1  0
  5  2  1  0
  6  2  1  0
  7  4  1  0
  9  8  1  0
 10  1  1  0
 11  3  1  0
 11  8  1  0
 12  2  2  0
 12  9  1  0
 13  1  1  0
 13 11  1  0
 14  5  2  0
 14  8  1  0
M  END
>  <ID>  (1) 
conformer_0

$$$$
