
     RDKit          3D

 17 17  0  0  0  0  0  0  0  0999 V2000
   23.8366  -22.5027  -14.2053 C   0  0  0  0  0  0  0  0  0  0  0  0
   26.1272  -20.3314   -9.5567 C   0  0  0  0  0  0  0  0  0  0  0  0
   22.4700  -25.1994  -13.0856 C   0  0  0  0  0  0  0  0  0  0  0  0
   23.0851  -23.4552  -14.6230 N   0  0  0  0  0  0  0  0  0  0  0  0
   23.7782  -20.5707  -11.3099 C   0  0  0  0  0  0  0  0  0  0  0  0
   24.4140  -21.2262  -11.8760 C   0  0  0  0  0  0  0  0  0  0  0  0
   22.6483  -24.4697  -14.2624 C   0  0  0  0  0  0  0  0  0  0  0  0
   25.8604  -22.4094   -8.4133 P   0  0  0  0  0  0  0  0  0  0  0  0
   26.0982  -23.5452   -8.0747 O   0  0  0  0  0  1  0  0  0  0  0  0
   22.2561  -25.5633  -15.0062 N   0  0  0  0  0  0  0  0  0  0  0  0
   25.6138  -21.7027  -10.1410 O   0  0  0  0  0  0  0  0  0  0  0  0
   23.9716  -22.1762  -12.6852 N   0  0  0  0  0  0  0  0  0  0  0  0
   25.4305  -21.2228  -12.6680 O   0  0  0  0  0  0  0  0  0  0  0  0
   23.4272  -23.1501  -12.6170 C   0  0  0  0  0  0  0  0  0  0  0  0
   25.8409  -20.1337  -11.1634 C   0  0  0  0  0  0  0  0  0  0  0  0
   25.9125  -21.4274   -8.0431 O   0  0  0  0  0  1  0  0  0  0  0  0
   22.8632  -24.1877  -11.9876 C   0  0  0  0  0  0  0  0  0  0  0  0
  4  1  1  0
  6  5  1  0
  7  3  2  0
  7  4  1  0
  9  8  1  0
 10  7  1  0
 11  2  1  0
 11  8  1  0
 12  1  1  0
 12  6  1  0
 13  6  1  0
 14 12  1  0
 15  2  1  0
 15  6  1  0
 16  8  1  0
 17  3  1  0
 17 14  1  0
M  RAD  2   9   2  16   2
M  END
>  <ID>  (1) 
conformer_0

$$$$
