
     RDKit          3D

 19 20  0  0  0  0  0  0  0  0999 V2000
   22.5333  -24.8164  -12.9811 C   0  0  0  0  0  0  0  0  0  0  0  0
   24.6202  -21.1053  -12.7182 C   0  0  0  0  0  0  0  0  0  0  0  0
   25.0730  -19.9462  -10.6105 C   0  0  0  0  0  0  0  0  0  0  0  0
   23.6836  -22.6916  -14.2505 C   0  0  0  0  0  0  0  0  0  0  0  0
   26.2791  -20.4901   -9.3185 C   0  0  0  0  0  0  0  0  0  0  0  0
   22.9472  -23.6846  -14.6907 N   0  0  0  0  0  0  0  0  0  0  0  0
   26.1286  -23.2952   -7.6615 O   0  0  0  0  0  1  0  0  0  0  0  0
   23.9782  -22.3558  -12.7652 N   0  0  0  0  0  0  0  0  0  0  0  0
   25.5480  -21.4692   -8.4211 O   0  0  0  0  0  0  0  0  0  0  0  0
   23.6266  -23.2023  -12.1186 C   0  0  0  0  0  0  0  0  0  0  0  0
   25.6597  -22.3879   -8.3879 P   0  0  0  0  0  0  0  0  0  0  0  0
   24.9828  -22.8790   -9.7130 O   0  0  0  0  0  1  0  0  0  0  0  0
   24.8347  -21.6558  -14.6751 O   0  0  0  0  0  0  0  0  0  0  0  0
   22.3019  -25.9254  -14.4558 N   0  0  0  0  0  0  0  0  0  0  0  0
   22.6830  -24.5302  -14.0808 C   0  0  0  0  0  0  0  0  0  0  0  0
   25.1816  -21.0865  -11.1255 C   0  0  0  0  0  0  0  0  0  0  0  0
   25.7102  -21.5893  -11.7339 O   0  0  0  0  0  0  0  0  0  0  0  0
   22.9796  -24.2082  -11.7437 C   0  0  0  0  0  0  0  0  0  0  0  0
   23.7574  -20.1116  -11.2393 C   0  0  0  0  0  0  0  0  0  0  0  0
  5  3  1  0
  6  4  1  0
  8  2  1  0
  8  4  1  0
  9  5  1  0
 10  8  1  0
 11  7  1  0
 11  9  1  0
 12 11  1  0
 13  4  2  0
 15  1  1  0
 15  6  1  0
 15 14  1  0
 16  3  1  0
 17  2  1  0
 17 16  1  0
 18  1  2  0
 18 10  1  0
 19  3  1  0
 19 16  1  0
M  RAD  2   7   2  12   2
M  END
>  <ID>  (1) 
conformer_0

$$$$
