
     RDKit          3D

 15 17  0  0  0  0  0  0  0  0999 V2000
   25.9927  -21.0553   -9.3462 C   0  0  0  0  0  0  0  0  0  0  0  0
   23.5186  -23.0406  -12.3963 C   0  0  0  0  0  0  0  0  0  0  0  0
   22.7986  -24.4513  -12.5096 C   0  0  0  0  0  0  0  0  0  0  0  0
   23.9645  -20.0994  -11.1538 C   0  0  0  0  0  0  0  0  0  0  0  0
   23.1884  -23.7195  -14.6958 N   0  0  0  0  0  0  0  0  0  0  0  0
   25.8832  -20.3772  -10.3945 C   0  0  0  0  0  0  0  0  0  0  0  0
   26.0648  -23.1983   -8.4464 O   0  0  0  0  0  0  0  0  0  0  0  0
   22.6796  -24.6785  -14.1644 C   0  0  0  0  0  0  0  0  0  0  0  0
   22.1676  -25.8880  -14.4107 N   0  0  0  0  0  0  0  0  0  0  0  0
   25.0183  -22.0585  -10.1965 O   0  0  0  0  0  0  0  0  0  0  0  0
   25.3324  -23.0353   -8.7304 P   0  0  0  0  0  0  0  0  0  0  0  0
   24.5183  -21.1962  -11.9858 C   0  0  0  0  0  0  0  0  0  0  0  0
   24.7544  -21.6837  -13.7148 O   0  0  0  0  0  0  0  0  0  0  0  0
   24.0133  -22.2630  -12.4379 N   0  0  0  0  0  0  0  0  0  0  0  0
   23.8237  -22.8407  -14.2773 C   0  0  0  0  0  0  0  0  0  0  0  0
  3  2  1  0
  6  1  1  0
  6  4  1  0
  8  3  2  0
  8  5  1  0
  9  8  1  0
 10  1  1  0
 11  1  1  0
 11  7  1  0
 11 10  1  0
 12  4  1  0
 14  2  1  0
 14 12  1  0
 14 13  1  0
 15  2  1  0
 15  5  2  0
 15 13  1  0
M  END
>  <ID>  (1) 
conformer_0

$$$$
