
     RDKit          3D

 18 19  0  0  0  0  0  0  0  0999 V2000
   24.2300  -22.2259  -14.0782 C   0  0  0  0  0  0  0  0  0  0  0  0
   26.0016  -20.4092   -9.9555 C   0  0  0  0  0  0  0  0  0  0  0  0
   24.3475  -20.1017  -10.9868 C   0  0  0  0  0  0  0  0  0  0  0  0
   23.2859  -23.1958  -14.4965 N   0  0  0  0  0  0  0  0  0  0  0  0
   22.9364  -24.3847  -12.4445 C   0  0  0  0  0  0  0  0  0  0  0  0
   26.0181  -21.4205   -8.9013 O   0  0  0  0  0  0  0  0  0  0  0  0
   26.0454  -21.0940  -11.6851 O   0  0  0  0  0  0  0  0  0  0  0  0
   22.4727  -25.2840  -14.8214 N   0  0  0  0  0  0  0  0  0  0  0  0
   25.5434  -22.5659   -8.3852 P   0  0  0  0  0  0  0  0  0  0  0  0
   24.1705  -22.0936  -12.4157 N   0  0  0  0  0  0  0  0  0  0  0  0
   23.6741  -23.1751  -12.0105 C   0  0  0  0  0  0  0  0  0  0  0  0
   22.9227  -24.0945  -14.0152 C   0  0  0  0  0  0  0  0  0  0  0  0
   24.4699  -22.2847   -7.7201 O   0  0  0  0  0  0  0  0  0  0  0  0
   24.8677  -20.5319  -12.2516 C   0  0  0  0  0  0  0  0  0  0  0  0
   26.2524  -23.5244   -7.7189 O   0  0  0  0  0  0  0  0  0  0  0  0
   25.0634  -23.2846   -9.6884 O   0  0  0  0  0  0  0  0  0  0  0  0
   25.3191  -21.0745  -14.0549 O   0  0  0  0  0  0  0  0  0  0  0  0
   24.5835  -21.6954  -10.7673 C   0  0  0  0  0  0  0  0  0  0  0  0
  3  2  1  0
  4  1  1  0
  6  2  1  0
  9  6  1  0
 10  1  1  0
 11  5  1  0
 11 10  1  0
 12  4  1  0
 12  5  2  0
 12  8  1  0
 13  9  1  0
 14  3  1  0
 14  7  1  0
 14 10  1  0
 15  9  1  0
 17  1  2  0
 18  3  1  0
 18 14  1  0
 18 16  1  0
M  END
>  <ID>  (1) 
conformer_0

$$$$
