
     RDKit          3D

 13 14  0  0  0  0  0  0  0  0999 V2000
   24.0384  -22.4629  -14.2164 C   0  0  0  0  0  0  0  0  0  0  0  0
   22.8455  -24.4932  -12.6949 C   0  0  0  0  0  0  0  0  0  0  0  0
   26.0127  -21.4470   -8.7734 C   0  0  0  0  0  0  0  0  0  0  0  0
   24.0961  -20.3967  -11.0524 C   0  0  0  0  0  0  0  0  0  0  0  0
   24.3631  -21.2320  -11.8796 C   0  0  0  0  0  0  0  0  0  0  0  0
   25.5180  -21.7793   -9.5454 O   0  0  0  0  0  0  0  0  0  0  0  0
   26.0481  -20.9768  -12.0659 O   0  0  0  0  0  0  0  0  0  0  0  0
   23.7983  -22.2185  -12.6640 N   0  0  0  0  0  0  0  0  0  0  0  0
   23.4901  -23.1715  -12.1705 C   0  0  0  0  0  0  0  0  0  0  0  0
   23.9765  -22.3088  -15.3968 O   0  0  0  0  0  0  0  0  0  0  0  0
   25.9780  -23.2857   -8.2698 O   0  0  0  0  0  0  0  0  0  0  0  0
   25.7503  -20.5383  -10.6249 C   0  0  0  0  0  0  0  0  0  0  0  0
   23.1638  -24.1101  -14.3697 C   0  0  0  0  0  0  0  0  0  0  0  0
  5  4  1  0
  6  3  1  0
  7  5  1  0
  8  1  1  0
  8  5  1  0
  9  2  2  0
  9  8  1  0
 10  1  2  0
 11  3  1  0
 12  4  1  0
 12  6  1  0
 12  7  1  0
 13  1  1  0
 13  2  1  0
M  END
>  <ID>  (1) 
conformer_0

$$$$
