
     RDKit          3D

 16 18  0  0  0  0  0  0  0  0999 V2000
   25.7597  -20.6663  -11.5534 C   0  0  0  0  0  0  0  0  0  0  0  0
   22.6597  -24.5732  -13.8711 C   0  0  0  0  0  0  0  0  0  0  0  0
   24.0644  -19.9680  -10.9400 C   0  0  0  0  0  0  0  0  0  0  0  0
   24.5227  -21.0315  -12.4799 C   0  0  0  0  0  0  0  0  0  0  0  0
   23.2720  -23.3048  -14.5016 N   0  0  0  0  0  0  0  0  0  0  0  0
   22.8212  -24.4106  -12.2201 C   0  0  0  0  0  0  0  0  0  0  0  0
   24.4794  -23.2003   -9.6918 O   0  0  0  0  0  0  0  0  0  0  0  0
   23.4681  -23.1994  -12.0818 C   0  0  0  0  0  0  0  0  0  0  0  0
   25.9665  -21.3068  -11.5062 O   0  0  0  0  0  0  0  0  0  0  0  0
   24.0167  -22.0117  -12.5690 N   0  0  0  0  0  0  0  0  0  0  0  0
   22.2153  -25.7364  -14.1412 N   0  0  0  0  0  0  0  0  0  0  0  0
   25.7093  -20.2960  -10.0048 C   0  0  0  0  0  0  0  0  0  0  0  0
   25.2528  -22.6340   -9.0545 P   0  0  0  0  0  0  0  0  0  0  0  0
   26.0291  -21.9302   -8.8715 O   0  0  0  0  0  0  0  0  0  0  0  0
   23.5665  -22.6811  -14.0389 C   0  0  0  0  0  0  0  0  0  0  0  0
   26.9192  -20.7858   -8.7830 C   0  0  0  0  0  0  0  0  0  0  0  0
  3  1  1  0
  4  1  1  0
  4  3  1  0
  5  2  1  0
  6  2  2  0
  8  6  1  0
  9  1  1  0
 10  4  1  0
 10  8  1  0
 11  2  1  0
 12  1  1  0
 12  3  1  0
 13  7  1  0
 14 13  1  0
 15  5  2  0
 15 10  1  0
 16 12  1  0
 16 14  1  0
M  END
>  <ID>  (1) 
conformer_0

$$$$
