
     RDKit          3D

 15 16  0  0  0  0  0  0  0  0999 V2000
   25.4789  -20.4312  -11.0312 C   0  0  0  0  0  0  0  0  0  0  0  0
   23.5233  -23.5253  -12.2339 C   0  0  0  0  0  0  0  0  0  0  0  0
   23.9908  -20.1245  -11.2643 C   0  0  0  0  0  0  0  0  0  0  0  0
   24.4630  -21.2524  -12.2949 C   0  0  0  0  0  0  0  0  0  0  0  0
   22.7412  -24.7225  -12.4959 C   0  0  0  0  0  0  0  0  0  0  0  0
   23.0513  -23.6473  -14.5566 N   0  0  0  0  0  0  0  0  0  0  0  0
   25.4090  -22.0874   -9.6530 O   0  0  0  0  0  0  0  0  0  0  0  0
   25.9965  -23.5746   -8.3945 O   0  0  0  0  0  0  0  0  0  0  0  0
   25.6520  -21.2928  -12.0840 O   0  0  0  0  0  0  0  0  0  0  0  0
   25.5637  -22.8022   -8.7673 P   0  0  0  0  0  0  0  0  0  0  0  0
   22.6626  -24.7212  -14.0793 C   0  0  0  0  0  0  0  0  0  0  0  0
   24.0572  -22.3276  -12.6232 N   0  0  0  0  0  0  0  0  0  0  0  0
   23.6317  -22.7910  -14.1936 C   0  0  0  0  0  0  0  0  0  0  0  0
   22.2928  -25.8924  -14.3120 N   0  0  0  0  0  0  0  0  0  0  0  0
   26.1861  -20.3710   -9.6861 C   0  0  0  0  0  0  0  0  0  0  0  0
  3  1  1  0
  4  3  1  0
  5  2  1  0
  9  1  1  0
  9  4  1  0
 10  7  1  0
 10  8  2  0
 11  5  2  0
 11  6  1  0
 12  2  1  0
 12  4  1  0
 13  6  2  0
 13 12  1  0
 14 11  1  0
 15  1  1  0
 15  7  1  0
M  END
>  <ID>  (1) 
conformer_0

$$$$
