
     RDKit          3D

 19 22  0  0  0  0  0  0  0  0999 V2000
   22.9251  -24.1578  -11.9530 C   0  0  0  0  0  0  0  0  0  0  0  0
   23.9233  -22.6436  -14.1937 C   0  0  0  0  0  0  0  0  0  0  0  0
   24.9876  -19.5531  -11.1432 C   0  0  0  0  0  0  0  0  0  0  0  0
   26.1383  -20.2210   -9.6671 C   0  0  0  0  0  0  0  0  0  0  0  0
   23.1176  -23.8691  -14.7550 N   0  0  0  0  0  0  0  0  0  0  0  0
   24.4496  -21.7512  -14.6975 O   0  0  0  0  0  0  0  0  0  0  0  0
   24.6249  -20.9509  -12.4526 C   0  0  0  0  0  0  0  0  0  0  0  0
   26.3782  -23.2371   -7.7108 O   0  0  0  0  0  1  0  0  0  0  0  0
   21.9034  -25.5555  -14.9819 N   0  0  0  0  0  0  0  0  0  0  0  0
   22.6874  -24.4889  -14.1875 C   0  0  0  0  0  0  0  0  0  0  0  0
   25.1962  -22.4602   -9.7925 O   0  0  0  0  0  1  0  0  0  0  0  0
   24.0814  -22.1058  -12.7549 N   0  0  0  0  0  0  0  0  0  0  0  0
   25.9627  -22.2087   -8.3193 P   0  0  0  0  0  0  0  0  0  0  0  0
   25.6811  -21.5115  -11.9439 O   0  0  0  0  0  0  0  0  0  0  0  0
   23.6144  -23.1626  -12.3841 C   0  0  0  0  0  0  0  0  0  0  0  0
   22.4094  -25.0549  -12.9674 C   0  0  0  0  0  0  0  0  0  0  0  0
   26.3095  -21.2901   -8.4983 O   0  0  0  0  0  0  0  0  0  0  0  0
   25.0134  -21.0413  -10.7127 C   0  0  0  0  0  0  0  0  0  0  0  0
   23.7222  -20.5033  -11.2554 C   0  0  0  0  0  0  0  0  0  0  0  0
  5  2  1  0
  6  2  2  0
  7  3  1  0
 10  5  2  0
 10  9  1  0
 12  2  1  0
 12  7  1  0
 13  8  1  0
 13 11  1  0
 14  7  1  0
 15  1  1  0
 15 12  1  0
 16  1  2  0
 16 10  1  0
 17  4  1  0
 17 13  1  0
 18  3  1  0
 18  4  1  0
 18 14  1  0
 19  3  1  0
 19  7  1  0
 19 18  1  0
M  RAD  2   8   2  11   2
M  END
>  <ID>  (1) 
conformer_0

$$$$
