
     RDKit          3D

 15 16  0  0  0  0  0  0  0  0999 V2000
   26.4780  -20.8895   -8.8468 C   0  0  0  0  0  0  0  0  0  0  0  0
   22.8874  -24.5377  -13.8004 C   0  0  0  0  0  0  0  0  0  0  0  0
   24.1301  -20.3796  -10.9623 C   0  0  0  0  0  0  0  0  0  0  0  0
   25.6697  -20.3722  -10.1545 C   0  0  0  0  0  0  0  0  0  0  0  0
   23.4612  -23.5981  -14.6883 N   0  0  0  0  0  0  0  0  0  0  0  0
   23.9756  -22.7129  -13.9231 C   0  0  0  0  0  0  0  0  0  0  0  0
   25.7036  -21.6844  -10.5663 O   0  0  0  0  0  0  0  0  0  0  0  0
   22.4740  -25.8557  -14.0478 N   0  0  0  0  0  0  0  0  0  0  0  0
   26.3725  -22.2785   -8.1330 O   0  0  0  0  0  0  0  0  0  0  0  0
   25.1738  -21.5584  -13.7118 O   0  0  0  0  0  0  0  0  0  0  0  0
   23.2907  -23.5280  -12.2388 C   0  0  0  0  0  0  0  0  0  0  0  0
   22.9288  -24.0406  -11.9073 N   0  0  0  0  0  0  0  0  0  0  0  0
   24.3824  -23.5327  -10.0315 O   0  0  0  0  0  0  0  0  0  0  0  0
   24.0581  -22.2025  -12.4757 N   0  0  0  0  0  0  0  0  0  0  0  0
   24.7650  -21.1776  -11.7207 C   0  0  0  0  0  0  0  0  0  0  0  0
  4  1  1  0
  4  3  1  0
  5  2  2  0
  6  5  1  0
  7  4  1  0
  8  2  1  0
  9  1  1  0
 10  6  2  0
 11  2  1  0
 12 11  1  0
 13 11  1  0
 14  6  1  0
 14 11  1  0
 15  3  1  0
 15  7  1  0
 15 14  1  0
M  END
>  <ID>  (1) 
conformer_0

$$$$
