
     RDKit          3D

 17 19  0  0  0  0  0  0  0  0999 V2000
   26.0937  -20.6775   -9.4047 C   0  0  0  0  0  0  0  0  0  0  0  0
   22.8706  -24.3009  -14.2125 C   0  0  0  0  0  0  0  0  0  0  0  0
   23.1705  -20.5057  -11.3629 C   0  0  0  0  0  0  0  0  0  0  0  0
   23.3611  -23.4517  -14.8012 N   0  0  0  0  0  0  0  0  0  0  0  0
   25.6528  -20.4980  -10.9063 C   0  0  0  0  0  0  0  0  0  0  0  0
   25.9479  -21.1942  -12.3265 O   0  0  0  0  0  0  0  0  0  0  0  0
   22.5414  -25.5578  -14.9090 N   0  0  0  0  0  0  0  0  0  0  0  0
   26.1662  -21.9328   -7.8203 O   0  0  0  0  0  1  0  0  0  0  0  0
   23.8838  -22.2686  -12.6892 N   0  0  0  0  0  0  0  0  0  0  0  0
   25.6643  -22.7912   -8.3544 P   0  0  0  0  0  0  0  0  0  0  0  0
   24.0446  -22.5015  -14.2261 C   0  0  0  0  0  0  0  0  0  0  0  0
   22.6881  -24.5583  -12.6299 C   0  0  0  0  0  0  0  0  0  0  0  0
   24.7563  -23.7775   -8.9423 O   0  0  0  0  0  1  0  0  0  0  0  0
   23.2627  -23.4006  -12.4427 C   0  0  0  0  0  0  0  0  0  0  0  0
   25.5408  -21.9512   -9.8657 O   0  0  0  0  0  0  0  0  0  0  0  0
   24.3889  -21.3612  -12.0734 C   0  0  0  0  0  0  0  0  0  0  0  0
   24.4858  -20.6509  -10.6823 C   0  0  0  0  0  0  0  0  0  0  0  0
  4  2  2  0
  5  1  1  0
  6  5  1  0
  7  2  1  0
 10  8  1  0
 11  4  1  0
 11  9  1  0
 12  2  1  0
 13 10  1  0
 14  9  1  0
 14 12  2  0
 15  1  1  0
 15 10  1  0
 16  3  1  0
 16  6  1  0
 16  9  1  0
 17  3  1  0
 17  5  1  0
 17 16  1  0
M  RAD  2   8   2  13   2
M  END
>  <ID>  (1) 
conformer_0

$$$$
