
     RDKit          3D

 18 18  0  0  0  0  0  0  0  0999 V2000
   23.8357  -19.9973  -11.4866 C   0  0  0  0  0  0  0  0  0  0  0  0
   22.7603  -24.5123  -14.2540 C   0  0  0  0  0  0  0  0  0  0  0  0
   24.2673  -21.0065  -12.5688 C   0  0  0  0  0  0  0  0  0  0  0  0
   22.2061  -25.1466  -13.7385 C   0  0  0  0  0  0  0  0  0  0  0  0
   25.5123  -20.5961  -11.0866 C   0  0  0  0  0  0  0  0  0  0  0  0
   23.3871  -23.6431  -14.2014 N   0  0  0  0  0  0  0  0  0  0  0  0
   26.1191  -23.1777   -7.8941 O   0  0  0  0  0  0  0  0  0  0  0  0
   25.5100  -22.7268   -8.7734 P   0  0  0  0  0  0  0  0  0  0  0  0
   25.2003  -21.1397  -13.6170 O   0  0  0  0  0  0  0  0  0  0  0  0
   23.3915  -23.4708  -11.9844 C   0  0  0  0  0  0  0  0  0  0  0  0
   24.0423  -22.1322  -12.6029 N   0  0  0  0  0  0  0  0  0  0  0  0
   24.4118  -21.8390   -8.4058 O   0  0  0  0  0  0  0  0  0  0  0  0
   25.7341  -21.7941  -10.3649 O   0  0  0  0  0  0  0  0  0  0  0  0
   23.7883  -22.8285  -13.7544 C   0  0  0  0  0  0  0  0  0  0  0  0
   24.8654  -23.6730   -9.5909 O   0  0  0  0  0  0  0  0  0  0  0  0
   26.5064  -20.6099   -9.0842 C   0  0  0  0  0  0  0  0  0  0  0  0
   24.9849  -19.6262  -10.6227 C   0  0  0  0  0  0  0  0  0  0  0  0
   22.4183  -24.5182  -12.1151 C   0  0  0  0  0  0  0  0  0  0  0  0
  3  1  1  0
  4  2  2  0
  6  2  1  0
  8  7  1  0
  9  3  2  0
 11  3  1  0
 11 10  1  0
 12  8  1  0
 13  5  1  0
 13  8  1  0
 14  6  2  0
 14 11  1  0
 15  7  1  0
 17  1  1  0
 17  5  1  0
 17 16  1  0
 18  4  1  0
 18 10  2  0
M  END
>  <ID>  (1) 
conformer_0

$$$$
