
     RDKit          3D

 19 20  0  0  0  0  0  0  0  0999 V2000
   24.5176  -19.5290  -10.9924 C   0  0  0  0  0  0  0  0  0  0  0  0
   24.0654  -22.7202  -13.7120 C   0  0  0  0  0  0  0  0  0  0  0  0
   24.8552  -20.6817  -12.4461 C   0  0  0  0  0  0  0  0  0  0  0  0
   22.7524  -24.4933  -12.2789 C   0  0  0  0  0  0  0  0  0  0  0  0
   23.6865  -23.3471  -11.7055 C   0  0  0  0  0  0  0  0  0  0  0  0
   22.4895  -25.3578  -14.6044 N   0  0  0  0  0  0  0  0  0  0  0  0
   25.1007  -22.7110   -7.6770 O   0  0  0  0  0  1  0  0  0  0  0  0
   24.2550  -21.8982  -14.4359 O   0  0  0  0  0  0  0  0  0  0  0  0
   24.8342  -21.3454  -10.8104 C   0  0  0  0  0  0  0  0  0  0  0  0
   24.1724  -22.3176  -12.1297 N   0  0  0  0  0  0  0  0  0  0  0  0
   25.4271  -22.7912   -8.6871 P   0  0  0  0  0  0  0  0  0  0  0  0
   25.6391  -21.5683   -9.5166 O   0  0  0  0  0  0  0  0  0  0  0  0
   22.9987  -24.3702  -13.9382 C   0  0  0  0  0  0  0  0  0  0  0  0
   25.8956  -21.3585  -12.0885 O   0  0  0  0  0  0  0  0  0  0  0  0
   23.7337  -23.4784  -14.1840 N   0  0  0  0  0  0  0  0  0  0  0  0
   26.0691  -19.9784  -10.3900 C   0  0  0  0  0  0  0  0  0  0  0  0
   23.3722  -20.2991  -11.2373 C   0  0  0  0  0  0  0  0  0  0  0  0
   26.6189  -21.6710   -8.3352 C   0  0  0  0  0  0  0  0  0  0  0  0
   25.0769  -23.6010   -9.5033 O   0  0  0  0  0  1  0  0  0  0  0  0
  3  1  1  0
  5  4  1  0
  8  2  2  0
 10  2  1  0
 10  5  1  0
 10  9  1  0
 11  7  1  0
 12 11  1  0
 13  4  2  0
 13  6  1  0
 14  3  1  0
 14  9  1  0
 15  2  1  0
 15 13  1  0
 16  1  1  0
 17  1  1  0
 17  9  1  0
 18 12  1  0
 18 16  1  0
 19 11  1  0
M  RAD  2   7   2  19   2
M  END
>  <ID>  (1) 
conformer_0

$$$$
