
     RDKit          3D

 15 15  0  0  0  0  0  0  0  0999 V2000
   23.7632  -22.9005  -14.0589 C   0  0  0  0  0  0  0  0  0  0  0  0
   24.2010  -20.1166  -11.2022 C   0  0  0  0  0  0  0  0  0  0  0  0
   26.2458  -20.3801   -9.8088 C   0  0  0  0  0  0  0  0  0  0  0  0
   24.9113  -21.0881  -11.8665 C   0  0  0  0  0  0  0  0  0  0  0  0
   23.1931  -23.8358  -14.5253 N   0  0  0  0  0  0  0  0  0  0  0  0
   23.3763  -23.4230  -12.0456 C   0  0  0  0  0  0  0  0  0  0  0  0
   25.9255  -21.3943  -11.6394 O   0  0  0  0  0  0  0  0  0  0  0  0
   23.9835  -22.1910  -12.7155 N   0  0  0  0  0  0  0  0  0  0  0  0
   26.1929  -21.7676   -8.0787 O   0  0  0  0  0  0  0  0  0  0  0  0
   22.3935  -25.8950  -14.3937 N   0  0  0  0  0  0  0  0  0  0  0  0
   25.9414  -22.5955   -8.5441 P   0  0  0  0  0  0  0  0  0  0  0  0
   22.7445  -24.7802  -12.4190 C   0  0  0  0  0  0  0  0  0  0  0  0
   22.8336  -24.5422  -13.7794 C   0  0  0  0  0  0  0  0  0  0  0  0
   25.9408  -23.4524   -9.1099 O   0  0  0  0  0  0  0  0  0  0  0  0
   24.8138  -21.8303  -14.5087 O   0  0  0  0  0  0  0  0  0  0  0  0
  4  2  2  3
  5  1  1  0
  7  3  1  0
  7  4  1  0
  8  1  1  0
  8  4  1  0
  8  6  1  0
 11  3  1  0
 11  9  1  0
 12  6  2  0
 13  5  2  0
 13 10  1  0
 13 12  1  0
 14 11  1  0
 15  1  2  0
M  END
>  <ID>  (1) 
conformer_0

$$$$
