
     RDKit          3D

 14 14  0  0  0  0  0  0  0  0999 V2000
   25.8978  -20.3646  -10.6647 C   0  0  0  0  0  0  0  0  0  0  0  0
   22.4674  -24.3282  -12.5402 C   0  0  0  0  0  0  0  0  0  0  0  0
   23.9051  -22.6238  -14.3957 C   0  0  0  0  0  0  0  0  0  0  0  0
   23.1394  -23.6031  -14.7922 N   0  0  0  0  0  0  0  0  0  0  0  0
   24.8438  -20.8683  -12.0754 C   0  0  0  0  0  0  0  0  0  0  0  0
   22.4425  -24.5797  -14.3294 C   0  0  0  0  0  0  0  0  0  0  0  0
   25.8505  -21.3201  -12.0797 O   0  0  0  0  0  0  0  0  0  0  0  0
   21.6237  -25.5076  -14.7929 N   0  0  0  0  0  0  0  0  0  0  0  0
   25.7537  -22.2451   -8.3976 P   0  0  0  0  0  0  0  0  0  0  0  0
   26.0038  -21.8283   -8.6208 O   0  0  0  0  0  0  0  0  0  0  0  0
   23.9360  -22.1095  -13.0068 N   0  0  0  0  0  0  0  0  0  0  0  0
   23.9868  -20.5066  -11.1991 C   0  0  0  0  0  0  0  0  0  0  0  0
   25.0851  -21.8348  -14.5901 O   0  0  0  0  0  0  0  0  0  0  0  0
   23.3520  -22.9984  -12.5961 C   0  0  0  0  0  0  0  0  0  0  0  0
  4  3  1  0
  6  2  1  0
  6  4  2  0
  7  1  1  0
  7  5  1  0
  8  6  1  0
 10  1  1  0
 10  9  1  0
 11  3  1  0
 11  5  1  0
 12  5  1  0
 13  3  2  0
 14  2  2  0
 14 11  1  0
M  END
>  <ID>  (1) 
conformer_0

$$$$
