
     RDKit          3D

 13 13  0  0  0  0  0  0  0  0999 V2000
   23.4131  -20.5025  -11.5173 C   0  0  0  0  0  0  0  0  0  0  0  0
   23.9077  -22.6785  -13.3652 C   0  0  0  0  0  0  0  0  0  0  0  0
   26.0147  -20.5120   -9.5548 C   0  0  0  0  0  0  0  0  0  0  0  0
   23.0074  -24.1184  -12.2413 C   0  0  0  0  0  0  0  0  0  0  0  0
   23.1844  -23.6966  -14.4885 N   0  0  0  0  0  0  0  0  0  0  0  0
   25.1868  -21.4624  -12.8529 O   0  0  0  0  0  0  0  0  0  0  0  0
   22.9509  -24.1512  -13.9692 C   0  0  0  0  0  0  0  0  0  0  0  0
   25.1012  -20.8845  -11.4917 C   0  0  0  0  0  0  0  0  0  0  0  0
   25.5330  -22.6085   -8.8394 P   0  0  2  0  0  4  0  0  0  0  0  0
   26.0961  -23.4571   -8.6800 O   0  0  0  0  0  1  0  0  0  0  0  0
   24.6348  -22.7819   -8.1902 O   0  0  0  0  0  0  0  0  0  0  0  0
   24.2900  -19.6981  -10.7774 C   0  0  0  0  0  0  0  0  0  0  0  0
   25.5495  -21.8602   -9.8301 O   0  0  0  0  0  0  0  0  0  0  0  0
  5  2  1  0
  6  2  1  0
  7  4  1  0
  7  5  2  3
  8  1  1  0
  8  3  1  0
  8  6  1  0
  9 10  1  6
 11  9  1  0
 12  1  1  0
 12  8  1  0
 13  3  1  0
 13  9  1  0
M  RAD  2   9   2  10   2
M  END
>  <ID>  (1) 
conformer_0

$$$$
