
     RDKit          3D

 15 14  0  0  0  0  0  0  0  0999 V2000
   23.1328  -23.4430  -12.1033 C   0  0  0  0  0  0  0  0  0  0  0  0
   24.6667  -21.0911  -12.2569 C   0  0  2  0  0  0  0  0  0  0  0  0
   23.4438  -20.6132  -11.2131 C   0  0  0  0  0  0  0  0  0  0  0  0
   25.8069  -20.5251  -11.0999 C   0  0  0  0  0  0  0  0  0  0  0  0
   23.4688  -23.7294  -14.3229 N   0  0  0  0  0  0  0  0  0  0  0  0
   22.5067  -25.3316  -14.9202 N   0  0  0  0  0  0  0  0  0  0  0  0
   25.6628  -21.3969   -9.9333 O   0  0  0  0  0  0  0  0  0  0  0  0
   25.5358  -23.4862   -8.5490 O   0  0  0  0  0  1  0  0  0  0  0  0
   22.7642  -24.5999  -13.8777 C   0  0  0  0  0  0  0  0  0  0  0  0
   25.5684  -22.7483   -8.5954 P   0  0  2  0  0  4  0  0  0  0  0  0
   24.0193  -22.3093  -12.6083 N   0  0  0  0  0  0  0  0  0  0  0  0
   24.0166  -22.9403  -13.8699 C   0  0  0  0  0  0  0  0  0  0  0  0
   25.7606  -21.2917  -12.2847 O   0  0  0  0  0  0  0  0  0  0  0  0
   24.5146  -21.8237   -8.2023 O   0  0  0  0  0  0  0  0  0  0  0  0
   26.5214  -20.7403   -9.2326 C   0  0  0  0  0  0  0  0  0  0  0  0
  2  3  1  1
  7  4  1  0
  9  5  2  3
  9  6  1  0
 10  8  1  6
 11  1  1  0
 11  2  1  0
 12  5  1  0
 12 11  1  0
 13  2  1  0
 13  4  1  0
 14 10  1  0
 15  7  1  0
 15 10  1  0
M  RAD  2   8   2  10   2
M  END
>  <ID>  (1) 
conformer_0

$$$$
