
     RDKit          3D

 15 16  0  0  0  0  0  0  0  0999 V2000
   22.2327  -25.2816  -13.3098 C   0  0  0  0  0  0  0  0  0  0  0  0
   23.4090  -23.2818  -12.2403 C   0  0  0  0  0  0  0  0  0  0  0  0
   26.4336  -20.8698   -8.8238 C   0  0  0  0  0  0  0  0  0  0  0  0
   25.8523  -20.6031  -10.4899 C   0  0  0  0  0  0  0  0  0  0  0  0
   24.4338  -20.3010  -10.7468 C   0  0  0  0  0  0  0  0  0  0  0  0
   23.1798  -23.4227  -14.5119 N   0  0  0  0  0  0  0  0  0  0  0  0
   25.9587  -21.1104  -12.3557 O   0  0  0  0  0  0  0  0  0  0  0  0
   25.7790  -23.5040   -8.5441 O   0  0  0  0  0  0  0  0  0  0  0  0
   22.6941  -24.3495  -14.3801 C   0  0  0  0  0  0  0  0  0  0  0  0
   24.0742  -22.1378  -12.5452 N   0  0  0  0  0  0  0  0  0  0  0  0
   22.5861  -24.4639  -12.0274 C   0  0  0  0  0  0  0  0  0  0  0  0
   23.8211  -22.5868  -13.9617 C   0  0  0  0  0  0  0  0  0  0  0  0
   25.3086  -22.9025   -9.1156 P   0  0  0  0  0  0  0  0  0  0  0  0
   24.6259  -21.1389  -12.1339 C   0  0  0  0  0  0  0  0  0  0  0  0
   25.5297  -22.2107  -10.0504 O   0  0  0  0  0  0  0  0  0  0  0  0
  4  3  1  0
  5  4  1  0
  9  1  2  0
  9  6  1  0
 10  2  1  0
 11  1  1  0
 11  2  2  0
 12  2  1  0
 12  6  2  0
 12 10  1  0
 13  8  2  0
 14  5  1  0
 14  7  2  0
 14 10  1  0
 15  4  1  0
 15 13  1  0
M  END
>  <ID>  (1) 
conformer_0

$$$$
