
     RDKit          3D

 14 13  0  0  0  0  0  0  0  0999 V2000
   24.3131  -19.7370  -10.8864 C   0  0  0  0  0  0  0  0  0  0  0  0
   26.0371  -20.3718  -10.1592 C   0  0  0  0  0  0  0  0  0  0  0  0
   23.7983  -22.8471  -13.4295 C   0  0  0  0  0  0  0  0  0  0  0  0
   22.6364  -24.2079  -12.1728 C   0  0  0  0  0  0  0  0  0  0  0  0
   23.4560  -23.7243  -14.6706 N   0  0  0  0  0  0  0  0  0  0  0  0
   24.9529  -21.0734  -11.9554 C   0  0  0  0  0  0  0  0  0  0  0  0
   25.6454  -22.6182   -8.7158 P   0  0  0  0  0  0  0  0  0  0  0  0
   22.4540  -25.5440  -14.5060 N   0  0  0  0  0  0  0  0  0  0  0  0
   25.7862  -23.2137   -7.9523 O   0  0  0  0  0  0  0  0  0  0  0  0
   22.9336  -24.3476  -13.8493 C   0  0  0  0  0  0  0  0  0  0  0  0
   25.3833  -21.6603  -12.9486 O   0  0  0  0  0  0  0  0  0  0  0  0
   23.8302  -20.7030  -11.2426 C   0  0  0  0  0  0  0  0  0  0  0  0
   24.0224  -22.4081  -12.7801 N   0  0  0  0  0  0  0  0  0  0  0  0
   25.9309  -21.8071   -9.3691 O   0  0  0  0  0  0  0  0  0  0  0  0
  2  1  1  0
  5  3  1  0
  9  7  2  0
 10  4  1  0
 10  5  1  0
 10  8  2  3
 11  6  1  0
 12  1  1  0
 12  6  1  0
 13  3  1  0
 13 11  1  0
 14  2  1  0
 14  7  1  0
M  END
>  <ID>  (1) 
conformer_0

$$$$
