
     RDKit          3D

 12 12  0  0  0  0  0  0  0  0999 V2000
   26.2867  -20.8944   -9.5197 C   0  0  0  0  0  0  0  0  0  0  0  0
   22.4886  -24.5150  -12.5407 C   0  0  0  0  0  0  0  0  0  0  0  0
   24.0127  -20.5840  -11.2265 C   0  0  0  0  0  0  0  0  0  0  0  0
   25.6371  -20.7485  -10.9787 C   0  0  2  0  0  0  0  0  0  0  0  0
   23.4116  -23.0959  -12.4309 C   0  0  0  0  0  0  0  0  0  0  0  0
   23.1002  -23.5232  -14.5183 N   0  0  0  0  0  0  0  0  0  0  0  0
   25.9949  -23.6275   -8.0439 O   0  0  0  0  0  0  0  0  0  0  0  0
   23.6883  -22.5218  -13.0133 N   0  0  0  0  0  0  0  0  0  0  0  0
   25.1436  -22.4590   -9.2105 O   0  0  0  0  0  0  0  0  0  0  0  0
   22.5472  -24.1262  -14.0229 C   0  0  0  0  0  0  0  0  0  0  0  0
   24.4752  -21.1457  -12.7870 C   0  0  2  0  0  0  0  0  0  0  0  0
   25.2481  -21.9615  -11.5548 O   0  0  0  0  0  0  0  0  0  0  0  0
  4  1  1  1
  4  3  1  0
  5  2  1  0
  8  5  2  3
  9  1  1  0
  9  7  1  0
 10  2  1  0
 10  6  2  3
 11  3  1  1
 11  8  1  0
 12  4  1  0
 12 11  1  0
M  END
>  <ID>  (1) 
conformer_0

$$$$
