
     RDKit          3D

 13 13  0  0  0  0  0  0  0  0999 V2000
   25.9936  -20.7820   -9.9276 C   0  0  0  0  0  0  0  0  0  0  0  0
   24.3685  -20.1384  -10.8016 C   0  0  0  0  0  0  0  0  0  0  0  0
   23.8596  -22.7983  -13.9070 C   0  0  0  0  0  0  0  0  0  0  0  0
   22.6462  -24.5400  -12.2974 C   0  0  0  0  0  0  0  0  0  0  0  0
   23.3152  -23.8111  -14.5070 N   0  0  0  0  0  0  0  0  0  0  0  0
   24.8298  -21.1479  -11.6691 C   0  0  0  0  0  0  0  0  0  0  0  0
   25.9012  -23.0903   -8.0564 O   0  0  0  0  0  0  0  0  0  0  0  0
   25.2798  -22.3914  -10.0808 O   0  0  0  0  0  0  0  0  0  0  0  0
   23.4810  -23.2815  -11.8629 C   0  0  0  0  0  0  0  0  0  0  0  0
   23.9707  -22.2930  -12.3478 N   0  0  0  0  0  0  0  0  0  0  0  0
   22.1710  -25.8500  -14.3607 N   0  0  0  0  0  0  0  0  0  0  0  0
   22.7996  -24.5264  -13.9332 C   0  0  0  0  0  0  0  0  0  0  0  0
   25.6124  -21.4733  -12.4682 O   0  0  0  0  0  0  0  0  0  0  0  0
  2  1  1  0
  5  3  1  0
  6  2  1  0
  7  1  1  0
  8  1  1  0
  9  4  2  0
 10  3  1  0
 10  6  1  0
 10  9  1  0
 12  4  1  0
 12  5  2  0
 12 11  1  0
 13  6  2  0
M  END
>  <ID>  (1) 
conformer_0

$$$$
