
     RDKit          3D

 15 15  0  0  0  0  0  0  0  0999 V2000
   23.5333  -23.2583  -12.3505 C   0  0  0  0  0  0  0  0  0  0  0  0
   26.1746  -20.4417   -9.9357 C   0  0  0  0  0  0  0  0  0  0  0  0
   22.5897  -24.5645  -12.3055 C   0  0  0  0  0  0  0  0  0  0  0  0
   24.3020  -20.5205  -11.0887 C   0  0  0  0  0  0  0  0  0  0  0  0
   24.8802  -21.3083  -11.8405 C   0  0  0  0  0  0  0  0  0  0  0  0
   22.6019  -24.4093  -14.0787 C   0  0  0  0  0  0  0  0  0  0  0  0
   23.1281  -23.7800  -14.6539 N   0  0  0  0  0  0  0  0  0  0  0  0
   26.0778  -23.8076   -8.2870 O   0  0  0  0  0  0  0  0  0  0  0  0
   21.6707  -25.5926  -14.4321 N   0  0  0  0  0  0  0  0  0  0  0  0
   25.8506  -21.7530  -10.9558 O   0  0  0  0  0  0  0  0  0  0  0  0
   24.1263  -22.3973  -12.5458 N   0  0  0  0  0  0  0  0  0  0  0  0
   23.7885  -22.8592  -14.2652 C   0  0  0  0  0  0  0  0  0  0  0  0
   26.0540  -21.6706   -8.8364 C   0  0  0  0  0  0  0  0  0  0  0  0
   25.5444  -21.2849  -13.2626 O   0  0  0  0  0  0  0  0  0  0  0  0
   25.5592  -21.8538   -8.2398 O   0  0  0  0  0  0  0  0  0  0  0  0
  3  1  1  0
  5  4  1  0
  6  3  2  0
  7  6  1  0
  9  6  1  0
 10  2  1  0
 10  5  1  0
 11  1  1  0
 11  5  1  0
 12  7  2  0
 12 11  1  0
 13  2  1  0
 14  5  1  0
 15  8  1  0
 15 13  1  0
M  END
>  <ID>  (1) 
conformer_0

$$$$
