
     RDKit          3D

 17 18  0  0  0  0  0  0  0  0999 V2000
   24.9577  -19.9810  -10.7782 C   0  0  0  0  0  0  0  0  0  0  0  0
   23.9441  -22.8277  -14.1301 C   0  0  0  0  0  0  0  0  0  0  0  0
   25.9755  -20.6193   -9.2502 C   0  0  0  0  0  0  0  0  0  0  0  0
   22.6225  -24.4682  -12.1145 C   0  0  0  0  0  0  0  0  0  0  0  0
   25.3190  -21.1160  -10.9335 C   0  0  0  0  0  0  0  0  0  0  0  0
   25.7469  -23.6829   -8.3473 O   0  0  0  0  0  0  0  0  0  0  0  0
   22.7285  -24.5548  -13.8989 C   0  0  0  0  0  0  0  0  0  0  0  0
   23.3676  -23.6443  -14.4921 N   0  0  0  0  0  0  0  0  0  0  0  0
   24.6238  -21.8107  -14.5466 O   0  0  0  0  0  0  0  0  0  0  0  0
   24.1483  -22.2367  -12.6330 N   0  0  0  0  0  0  0  0  0  0  0  0
   25.8616  -22.5218   -8.2475 P   0  0  0  0  0  0  0  0  0  0  0  0
   25.4261  -22.1722  -10.2954 O   0  0  0  0  0  0  0  0  0  0  0  0
   22.2114  -25.7849  -14.0409 N   0  0  0  0  0  0  0  0  0  0  0  0
   25.2193  -21.6172   -7.9166 O   0  0  0  0  0  0  0  0  0  0  0  0
   23.5295  -23.2812  -12.2144 C   0  0  0  0  0  0  0  0  0  0  0  0
   23.8854  -20.2620  -11.4461 C   0  0  0  0  0  0  0  0  0  0  0  0
   24.5352  -21.0038  -12.5475 C   0  0  0  0  0  0  0  0  0  0  0  0
  3  1  1  0
  5  1  1  0
  7  4  2  0
  8  2  1  0
  8  7  1  0
  9  2  2  0
 10  2  1  0
 11  3  1  0
 11  6  1  0
 12  5  2  0
 13  7  1  0
 14 11  1  0
 15  4  1  0
 15 10  1  0
 16  1  1  0
 17  5  1  0
 17 10  1  0
 17 16  1  0
M  END
>  <ID>  (1) 
conformer_0

$$$$
