
     RDKit          3D

 15 15  0  0  0  0  0  0  0  0999 V2000
   23.8425  -22.7137  -14.0829 C   0  0  0  0  0  0  0  0  0  0  0  0
   24.1959  -20.0845  -11.1876 C   0  0  0  0  0  0  0  0  0  0  0  0
   25.8782  -20.4104  -10.1064 C   0  0  0  0  0  0  0  0  0  0  0  0
   22.7026  -24.5173  -12.2985 C   0  0  0  0  0  0  0  0  0  0  0  0
   24.9218  -20.9974  -12.1470 C   0  0  0  0  0  0  0  0  0  0  0  0
   23.5543  -23.1901  -11.8452 C   0  0  0  0  0  0  0  0  0  0  0  0
   25.4867  -23.7963   -8.6856 O   0  0  0  0  0  1  0  0  0  0  0  0
   25.7345  -22.4395   -8.6154 P   0  0  0  0  0  0  0  0  0  0  0  0
   26.0772  -22.0240   -7.8061 O   0  0  0  0  0  1  0  0  0  0  0  0
   23.9010  -22.3981  -12.7985 N   0  0  0  0  0  0  0  0  0  0  0  0
   22.3035  -25.3780  -14.4540 N   0  0  0  0  0  0  0  0  0  0  0  0
   25.7107  -21.6881   -9.9187 O   0  0  0  0  0  0  0  0  0  0  0  0
   22.9111  -24.1927  -13.7902 C   0  0  0  0  0  0  0  0  0  0  0  0
   24.0774  -21.8584  -14.6612 O   0  0  0  0  0  0  0  0  0  0  0  0
   25.8351  -21.4737  -12.1256 O   0  0  0  0  0  0  0  0  0  0  0  0
  3  2  1  0
  5  2  1  0
  6  4  2  0
  8  7  1  0
  9  8  1  0
 10  1  1  0
 10  5  1  0
 10  6  1  0
 12  3  1  0
 12  8  1  0
 13  1  1  0
 13  4  1  0
 13 11  1  0
 14  1  2  0
 15  5  2  0
M  RAD  2   7   2   9   2
M  END
>  <ID>  (1) 
conformer_0

$$$$
