
     RDKit          3D

 13 12  0  0  0  0  0  0  0  0999 V2000
   22.2641  -25.1654  -13.4367 C   0  0  0  0  0  0  0  0  0  0  0  0
   23.7398  -22.7743  -13.0200 C   0  0  0  0  0  0  0  0  0  0  0  0
   24.4937  -19.5743  -11.0499 C   0  0  0  0  0  0  0  0  0  0  0  0
   26.2878  -20.6803  -10.1563 C   0  0  0  0  0  0  0  0  0  0  0  0
   24.5910  -20.9613  -11.7783 C   0  0  0  0  0  0  0  0  0  0  0  0
   23.5856  -23.3658  -14.4423 N   0  0  0  0  0  0  0  0  0  0  0  0
   26.1824  -23.2725   -8.5207 O   0  0  0  0  0  0  0  0  0  0  0  0
   24.9186  -21.6140   -8.4207 O   0  0  0  0  0  1  0  0  0  0  0  0
   23.1605  -23.9842  -14.1846 C   0  0  0  0  0  0  0  0  0  0  0  0
   25.3690  -21.7229  -11.2350 O   0  0  0  0  0  0  0  0  0  0  0  0
   25.5315  -22.4251   -8.6115 P   0  0  0  0  0  4  0  0  0  0  0  0
   22.4437  -24.4475  -12.1603 C   0  0  0  0  0  0  0  0  0  0  0  0
   24.0885  -21.9156  -12.4873 N   0  0  0  0  0  0  0  0  0  0  0  0
  5  3  1  0
  6  2  1  0
  9  1  1  0
  9  6  1  0
 10  4  1  0
 10  5  1  0
 11  4  1  0
 11  7  1  0
 11  8  1  0
 12  1  1  0
 13  2  1  0
 13  5  1  0
M  RAD  2   8   2  11   2
M  END
>  <ID>  (1) 
conformer_0

$$$$
