
     RDKit          3D

 18 19  0  0  0  0  0  0  0  0999 V2000
   22.9485  -24.4195  -14.1153 C   0  0  0  0  0  0  0  0  0  0  0  0
   26.3720  -20.7126   -9.5528 C   0  0  0  0  0  0  0  0  0  0  0  0
   23.0499  -23.8801  -11.7511 C   0  0  0  0  0  0  0  0  0  0  0  0
   23.9930  -20.2370  -11.2702 C   0  0  0  0  0  0  0  0  0  0  0  0
   23.4163  -23.7670  -14.7737 N   0  0  0  0  0  0  0  0  0  0  0  0
   25.8965  -20.2418  -10.9863 C   0  0  0  0  0  0  0  0  0  0  0  0
   25.3711  -21.7959   -9.9001 O   0  0  0  0  0  0  0  0  0  0  0  0
   23.6457  -23.0221  -12.1033 C   0  0  0  0  0  0  0  0  0  0  0  0
   24.0836  -22.5159   -7.8056 O   0  0  0  0  0  1  0  0  0  0  0  0
   25.1202  -22.6332   -8.6635 P   0  0  0  0  0  0  0  0  0  0  0  0
   24.1606  -22.1158  -12.5508 N   0  0  0  0  0  0  0  0  0  0  0  0
   26.0202  -21.1065  -12.1283 O   0  0  0  0  0  0  0  0  0  0  0  0
   24.0345  -22.7566  -14.1518 C   0  0  0  0  0  0  0  0  0  0  0  0
   22.3795  -26.0023  -14.2220 N   0  0  0  0  0  0  0  0  0  0  0  0
   25.0713  -21.6935  -14.4375 O   0  0  0  0  0  0  0  0  0  0  0  0
   24.6017  -21.1307  -12.1769 C   0  0  0  0  0  0  0  0  0  0  0  0
   26.1226  -22.2736   -8.0577 O   0  0  0  0  0  1  0  0  0  0  0  0
   22.4512  -24.7076  -12.8864 C   0  0  0  0  0  0  0  0  0  0  0  0
  5  1  1  0
  6  2  1  0
  6  4  1  0
  7  2  1  0
  8  3  1  0
 10  7  1  0
 10  9  1  0
 11  8  1  0
 12  6  1  0
 13  5  1  0
 13 11  1  0
 14  1  1  0
 15 13  2  0
 16  4  1  0
 16 11  1  0
 16 12  1  0
 17 10  1  0
 18  1  1  0
 18  3  2  0
M  RAD  2   9   2  17   2
M  END
>  <ID>  (1) 
conformer_0

$$$$
