
     RDKit          3D

 16 17  0  0  0  0  0  0  0  0999 V2000
   23.9901  -20.4786  -10.5091 C   0  0  0  0  0  0  0  0  0  0  0  0
   23.4213  -23.2067  -12.2995 C   0  0  0  0  0  0  0  0  0  0  0  0
   25.4851  -21.0252  -10.1554 C   0  0  0  0  0  0  0  0  0  0  0  0
   23.4167  -23.5873  -14.5377 N   0  0  0  0  0  0  0  0  0  0  0  0
   24.7592  -21.1154  -12.3169 C   0  0  0  0  0  0  0  0  0  0  0  0
   24.3116  -22.5449  -14.3067 C   0  0  0  0  0  0  0  0  0  0  0  0
   25.3141  -21.9762  -14.7107 O   0  0  0  0  0  0  0  0  0  0  0  0
   26.2231  -23.1186   -7.6368 O   0  0  0  0  0  1  0  0  0  0  0  0
   22.4523  -25.3524  -14.3208 N   0  0  0  0  0  0  0  0  0  0  0  0
   25.7464  -22.5038   -8.2176 P   0  0  0  0  0  4  0  0  0  0  0  0
   22.6323  -24.2748  -12.1479 C   0  0  0  0  0  0  0  0  0  0  0  0
   24.0936  -22.2145  -12.9191 N   0  0  0  0  0  0  0  0  0  0  0  0
   25.3362  -22.3336  -10.3509 O   0  0  0  0  0  0  0  0  0  0  0  0
   23.0046  -24.2781  -13.8810 C   0  0  0  0  0  0  0  0  0  0  0  0
   24.2806  -20.5234  -11.7754 C   0  0  0  0  0  0  0  0  0  0  0  0
   25.7023  -21.4923   -8.4707 O   0  0  0  0  0  0  0  0  0  0  0  0
  3  1  1  0
  6  4  1  0
  7  6  2  0
 10  8  1  0
 11  2  1  0
 12  2  1  0
 12  5  1  0
 12  6  1  0
 13  3  1  0
 13 10  1  0
 14  4  1  0
 14  9  1  0
 14 11  2  0
 15  1  1  0
 15  5  1  0
 16  3  1  0
 16 10  1  0
M  RAD  2   8   2  10   2
M  END
>  <ID>  (1) 
conformer_0

$$$$
