
     RDKit          3D

 17 19  0  0  0  0  0  0  0  0999 V2000
   23.9199  -22.7882  -14.0188 C   0  0  0  0  0  0  0  0  0  0  0  0
   25.9977  -20.4356  -10.4790 C   0  0  0  0  0  0  0  0  0  0  0  0
   25.0536  -20.1310  -11.1851 C   0  0  0  0  0  0  0  0  0  0  0  0
   22.5615  -24.5234  -12.1797 C   0  0  0  0  0  0  0  0  0  0  0  0
   24.6168  -21.1645  -12.0960 C   0  0  0  0  0  0  0  0  0  0  0  0
   23.4987  -23.2866  -11.9604 C   0  0  0  0  0  0  0  0  0  0  0  0
   22.0776  -25.7979  -14.2538 N   0  0  0  0  0  0  0  0  0  0  0  0
   26.1444  -23.8925   -8.1447 O   0  0  0  0  0  0  0  0  0  0  0  0
   25.9080  -22.0938   -9.2983 O   0  0  0  0  0  0  0  0  0  0  0  0
   22.8410  -24.3728  -13.8790 C   0  0  0  0  0  0  0  0  0  0  0  0
   24.0381  -22.2251  -12.5529 N   0  0  0  0  0  0  0  0  0  0  0  0
   24.6790  -21.7738  -14.5836 O   0  0  0  0  0  0  0  0  0  0  0  0
   25.8915  -22.9728   -8.5629 P   0  0  0  0  0  0  0  0  0  0  0  0
   23.0917  -23.8309  -14.2993 N   0  0  0  0  0  0  0  0  0  0  0  0
   26.6551  -20.7921   -8.7838 C   0  0  0  0  0  0  0  0  0  0  0  0
   25.8715  -21.5099  -11.6245 O   0  0  0  0  0  0  0  0  0  0  0  0
   23.4564  -20.3322  -11.5594 C   0  0  0  0  0  0  0  0  0  0  0  0
  3  2  1  0
  5  3  1  0
  6  4  1  0
 10  4  1  0
 10  7  1  0
 11  1  1  0
 11  5  1  0
 11  6  1  0
 12  1  2  0
 13  8  1  0
 13  9  1  0
 14  1  1  0
 14 10  1  0
 15  2  1  0
 15  9  1  0
 16  2  1  0
 16  5  1  0
 17  3  1  0
 17  5  1  0
M  END
>  <ID>  (1) 
conformer_0

$$$$
