
     RDKit          3D

 14 15  0  0  0  0  0  0  0  0999 V2000
   26.2141  -21.0943   -9.1036 C   0  0  0  0  0  0  0  0  0  0  0  0
   23.9689  -20.2825  -11.3611 C   0  0  0  0  0  0  0  0  0  0  0  0
   23.8804  -22.9210  -13.8153 C   0  0  0  0  0  0  0  0  0  0  0  0
   24.6564  -21.3098  -12.0275 C   0  0  0  0  0  0  0  0  0  0  0  0
   22.7836  -24.5650  -12.1323 C   0  0  0  0  0  0  0  0  0  0  0  0
   25.6350  -23.2203   -9.2642 O   0  0  0  0  0  0  0  0  0  0  0  0
   23.6770  -23.3621  -11.5464 C   0  0  0  0  0  0  0  0  0  0  0  0
   23.9310  -22.5998  -12.5451 N   0  0  0  0  0  0  0  0  0  0  0  0
   25.6772  -21.6695  -10.9403 O   0  0  0  0  0  0  0  0  0  0  0  0
   23.4239  -23.8111  -14.5944 N   0  0  0  0  0  0  0  0  0  0  0  0
   22.6679  -25.3128  -13.9909 N   0  0  0  0  0  0  0  0  0  0  0  0
   24.6437  -21.7515  -13.7601 O   0  0  0  0  0  0  0  0  0  0  0  0
   22.8397  -24.5633  -13.5510 C   0  0  0  0  0  0  0  0  0  0  0  0
   25.6947  -20.3595  -10.4821 C   0  0  0  0  0  0  0  0  0  0  0  0
  4  2  1  0
  6  1  1  0
  7  5  2  0
  8  3  1  0
  8  4  1  0
  8  7  1  0
  9  4  1  0
 10  3  1  0
 12  3  2  0
 13  5  1  0
 13 10  2  0
 13 11  1  0
 14  1  1  0
 14  2  1  0
 14  9  1  0
M  END
>  <ID>  (1) 
conformer_0

$$$$
