
     RDKit          3D

 16 18  0  0  0  0  0  0  0  0999 V2000
   24.1796  -22.6543  -14.1237 C   0  0  0  0  0  0  0  0  0  0  0  0
   25.6735  -20.4998  -10.6089 C   0  0  0  0  0  0  0  0  0  0  0  0
   23.2392  -20.6462  -11.3804 C   0  0  0  0  0  0  0  0  0  0  0  0
   24.6391  -21.1001  -12.2703 C   0  0  0  0  0  0  0  0  0  0  0  0
   23.1532  -24.4381  -14.5851 N   0  0  0  0  0  0  0  0  0  0  0  0
   23.4535  -23.0675  -11.8974 C   0  0  0  0  0  0  0  0  0  0  0  0
   25.1885  -21.8039   -9.0982 O   0  0  0  0  0  0  0  0  0  0  0  0
   24.9589  -21.9397  -14.7498 O   0  0  0  0  0  0  0  0  0  0  0  0
   25.8140  -21.4775  -11.8462 O   0  0  0  0  0  0  0  0  0  0  0  0
   24.0738  -22.1835  -12.7688 N   0  0  0  0  0  0  0  0  0  0  0  0
   25.3269  -22.7324   -8.6452 P   0  0  0  0  0  0  0  0  0  0  0  0
   22.6885  -24.2532  -13.1061 C   0  0  0  0  0  0  0  0  0  0  0  0
   26.4416  -20.6038   -9.1973 C   0  0  0  0  0  0  0  0  0  0  0  0
   25.6915  -23.5052   -8.7689 O   0  0  0  0  0  0  0  0  0  0  0  0
   24.7396  -20.1007  -10.9042 C   0  0  0  0  0  0  0  0  0  0  0  0
   23.4588  -24.1874  -14.5492 C   0  0  0  0  0  0  0  0  0  0  0  0
  4  3  1  0
  8  1  2  0
  9  2  1  0
  9  4  1  0
 10  1  1  0
 10  4  1  0
 10  6  1  0
 11  7  1  0
 12  5  1  0
 12  6  1  0
 13  2  1  0
 13  7  1  0
 14 11  2  0
 15  2  1  0
 15  3  1  0
 15  4  1  0
 16  1  1  0
 16  5  1  0
M  END
>  <ID>  (1) 
conformer_0

$$$$
