
     RDKit          3D

 15 15  0  0  0  0  0  0  0  0999 V2000
   25.6300  -20.4306  -10.4639 C   0  0  0  0  0  0  0  0  0  0  0  0
   23.9289  -22.4843  -14.1108 C   0  0  0  0  0  0  0  0  0  0  0  0
   23.3492  -23.7297  -14.5186 N   0  0  0  0  0  0  0  0  0  0  0  0
   24.0316  -20.3392  -11.0179 C   0  0  0  0  0  0  0  0  0  0  0  0
   22.7765  -24.0737  -12.1200 C   0  0  0  0  0  0  0  0  0  0  0  0
   24.6020  -21.3212  -11.6753 C   0  0  0  0  0  0  0  0  0  0  0  0
   22.1925  -25.6210  -13.9926 N   0  0  0  0  0  0  0  0  0  0  0  0
   25.8050  -23.4486   -8.0760 O   0  0  0  0  0  0  0  0  0  0  0  0
   22.7391  -24.5580  -13.6521 C   0  0  0  0  0  0  0  0  0  0  0  0
   25.5303  -21.9374   -9.7650 O   0  0  0  0  0  0  0  0  0  0  0  0
   25.5551  -21.1964  -12.7683 O   0  0  0  0  0  0  0  0  0  0  0  0
   25.6457  -22.8104   -8.5199 P   0  0  0  0  0  0  0  0  0  0  0  0
   24.1245  -22.2227  -12.3931 N   0  0  0  0  0  0  0  0  0  0  0  0
   23.5378  -23.0265  -12.1791 C   0  0  0  0  0  0  0  0  0  0  0  0
   26.4648  -20.6845   -9.0325 C   0  0  0  0  0  0  0  0  0  0  0  0
  3  2  1  0
  4  1  1  0
  6  4  1  0
  9  3  2  0
  9  5  1  0
  9  7  1  0
 10  1  1  0
 11  6  1  0
 12  8  1  0
 12 10  1  0
 13  2  1  0
 13  6  1  0
 14  5  2  0
 14 13  1  0
 15  1  1  0
M  END
>  <ID>  (1) 
conformer_0

$$$$
