
     RDKit          3D

 15 14  0  0  0  0  0  0  0  0999 V2000
   23.9110  -22.9033  -14.2140 C   0  0  0  0  0  0  0  0  0  0  0  0
   26.2893  -20.5586   -9.4281 C   0  0  0  0  0  0  0  0  0  0  0  0
   24.3357  -20.0284  -11.1284 C   0  0  0  0  0  0  0  0  0  0  0  0
   25.2665  -20.6991  -10.7073 C   0  0  2  0  0  0  0  0  0  0  0  0
   25.6524  -23.6721   -8.6164 O   0  0  0  0  0  0  0  0  0  0  0  0
   23.2014  -23.5310  -12.1954 C   0  0  0  0  0  0  0  0  0  0  0  0
   25.5444  -22.6880   -8.4169 P   0  0  0  0  0  0  0  0  0  0  0  0
   22.8833  -24.6564  -15.1117 N   0  0  0  0  0  0  0  0  0  0  0  0
   24.7758  -21.8436  -14.4505 O   0  0  0  0  0  0  0  0  0  0  0  0
   24.0145  -22.3424  -12.6914 N   0  0  0  0  0  0  0  0  0  0  0  0
   25.5776  -21.8589   -8.2012 O   0  0  0  0  0  0  0  0  0  0  0  0
   22.8424  -24.3972  -14.0937 C   0  0  0  0  0  0  0  0  0  0  0  0
   25.4791  -21.9775  -10.6346 O   0  0  0  0  0  0  0  0  0  0  0  0
   24.4879  -21.4062  -12.0569 C   0  0  0  0  0  0  0  0  0  0  0  0
   22.4528  -24.6657  -13.6695 N   0  0  0  0  0  0  0  0  0  0  0  0
  4  2  1  0
  4  3  1  0
  7  5  1  0
  9  1  2  0
 10  1  1  0
 10  6  1  0
 11  2  1  0
 11  7  1  0
 12  1  1  0
 12  8  1  0
  4 13  1  1
 14  3  1  0
 14 10  1  0
 15 12  2  3
M  END
>  <ID>  (1) 
conformer_0

$$$$
