
     RDKit          3D

 13 13  0  0  0  0  0  0  0  0999 V2000
   22.8697  -23.7582  -12.0349 C   0  0  0  0  0  0  0  0  0  0  0  0
   25.9765  -20.5985   -9.9663 C   0  0  0  0  0  0  0  0  0  0  0  0
   23.1402  -23.5142  -14.2716 C   0  0  0  0  0  0  0  0  0  0  0  0
   24.3330  -20.3306  -11.3162 C   0  0  0  0  0  0  0  0  0  0  0  0
   25.0444  -20.9652  -11.9538 C   0  0  0  0  0  0  0  0  0  0  0  0
   25.6694  -22.8501   -8.5816 P   0  0  0  0  0  0  0  0  0  0  0  0
   25.8902  -22.2814   -8.0112 O   0  0  0  0  0  0  0  0  0  0  0  0
   24.7050  -21.7264  -14.1779 O   0  0  0  0  0  0  0  0  0  0  0  0
   24.7480  -23.6686   -9.0181 O   0  0  0  0  0  0  0  0  0  0  0  0
   23.8227  -22.7336  -12.9290 C   0  0  0  0  0  0  0  0  0  0  0  0
   25.5570  -21.9153  -10.5864 O   0  0  0  0  0  0  0  0  0  0  0  0
   22.4851  -24.5952  -13.0195 C   0  0  0  0  0  0  0  0  0  0  0  0
   24.1997  -22.1320  -12.7838 N   0  0  0  0  0  0  0  0  0  0  0  0
  5  4  1  0
  6  2  1  0
  7  6  1  0
  9  6  1  0
 10  1  2  0
 10  3  1  0
 11  2  1  0
 11  5  1  0
 12  1  1  0
 12  3  2  0
 13  5  1  0
 13  8  1  0
 13 10  1  0
M  END
>  <ID>  (1) 
conformer_0

$$$$
