
     RDKit          3D

 15 17  0  0  0  0  0  0  0  0999 V2000
   22.9564  -24.4796  -13.6853 C   0  0  0  0  0  0  0  0  0  0  0  0
   25.4221  -20.4864  -10.7693 C   0  0  0  0  0  0  0  0  0  0  0  0
   23.9814  -20.2528  -10.9915 C   0  0  0  0  0  0  0  0  0  0  0  0
   24.5750  -21.0627  -12.2633 C   0  0  0  0  0  0  0  0  0  0  0  0
   22.7871  -25.7326  -14.4926 N   0  0  0  0  0  0  0  0  0  0  0  0
   23.9957  -22.7518  -13.8910 C   0  0  0  0  0  0  0  0  0  0  0  0
   23.2835  -23.7543  -14.2856 N   0  0  0  0  0  0  0  0  0  0  0  0
   25.5923  -23.2942   -8.6891 O   0  0  0  0  0  0  0  0  0  0  0  0
   25.5549  -21.6944  -10.5138 O   0  0  0  0  0  0  0  0  0  0  0  0
   23.4052  -23.3807  -12.0082 C   0  0  0  0  0  0  0  0  0  0  0  0
   26.0157  -20.6045   -9.3668 C   0  0  0  0  0  0  0  0  0  0  0  0
   24.0434  -22.1123  -12.5105 N   0  0  0  0  0  0  0  0  0  0  0  0
   25.5799  -21.3908  -13.1881 O   0  0  0  0  0  0  0  0  0  0  0  0
   22.6949  -24.7212  -12.0527 C   0  0  0  0  0  0  0  0  0  0  0  0
   26.4897  -22.1201   -8.0747 C   0  0  0  0  0  0  0  0  0  0  0  0
  3  2  1  0
  4  2  1  0
  4  3  1  0
  5  1  1  0
  7  1  1  0
  7  6  1  0
  9  2  1  0
 11  2  1  0
 11  9  1  0
 12  4  1  0
 12  6  1  0
 12 10  1  0
 13  4  1  0
 14  1  2  0
 14 10  1  0
 15  8  1  0
 15 11  1  0
M  END
>  <ID>  (1) 
conformer_0

$$$$
