
     RDKit          3D

 16 17  0  0  0  0  0  0  0  0999 V2000
   26.3753  -20.5053   -9.1132 C   0  0  0  0  0  0  0  0  0  0  0  0
   24.3080  -20.0275  -10.8856 C   0  0  0  0  0  0  0  0  0  0  0  0
   23.3769  -23.3277  -11.8820 C   0  0  0  0  0  0  0  0  0  0  0  0
   25.3674  -20.8517  -10.4480 C   0  0  0  0  0  0  0  0  0  0  0  0
   23.5297  -23.4387  -14.2497 N   0  0  0  0  0  0  0  0  0  0  0  0
   22.4656  -24.4701  -12.4536 C   0  0  0  0  0  0  0  0  0  0  0  0
   26.5608  -22.1460   -7.9241 O   0  0  0  0  0  0  0  0  0  0  0  0
   25.2803  -21.7980  -13.9758 O   0  0  0  0  0  0  0  0  0  0  0  0
   25.3806  -22.0011  -10.6597 O   0  0  0  0  0  0  0  0  0  0  0  0
   22.8479  -24.4470  -13.9916 C   0  0  0  0  0  0  0  0  0  0  0  0
   22.5633  -25.2041  -14.8640 N   0  0  0  0  0  0  0  0  0  0  0  0
   25.9022  -22.7925   -8.4565 P   0  0  0  0  0  0  0  0  0  0  0  0
   24.0249  -22.5483  -13.8259 C   0  0  0  0  0  0  0  0  0  0  0  0
   24.0409  -22.0668  -12.5174 N   0  0  0  0  0  0  0  0  0  0  0  0
   24.5578  -20.9862  -12.2227 C   0  0  0  0  0  0  0  0  0  0  0  0
   25.9240  -23.7613   -8.8014 O   0  0  0  0  0  0  0  0  0  0  0  0
  4  1  1  0
  4  2  1  0
  6  3  1  0
  9  4  1  0
 10  5  2  0
 10  6  1  0
 11 10  1  0
 12  1  1  0
 12  7  1  0
 13  5  1  0
 13  8  2  0
 14  3  1  0
 14 13  1  0
 15  2  1  0
 15  4  1  0
 15 14  1  0
 16 12  1  0
M  END
>  <ID>  (1) 
conformer_0

$$$$
