
     RDKit          3D

 15 15  0  0  0  0  0  0  0  0999 V2000
   26.1866  -20.7873   -9.5113 C   0  0  0  0  0  0  0  0  0  0  0  0
   23.8828  -22.7797  -14.1098 C   0  0  0  0  0  0  0  0  0  0  0  0
   23.9695  -20.1553  -11.1543 C   0  0  0  0  0  0  0  0  0  0  0  0
   25.6322  -20.4268  -10.9200 C   0  0  0  0  0  0  0  0  0  0  0  0
   25.8912  -23.2703   -7.6850 O   0  0  0  0  0  0  0  0  0  0  0  0
   22.0972  -25.9372  -13.5156 N   0  0  0  0  0  0  0  0  0  0  0  0
   23.4223  -23.3916  -12.0726 C   0  0  0  0  0  0  0  0  0  0  0  0
   25.8637  -21.2048  -11.7375 O   0  0  0  0  0  0  0  0  0  0  0  0
   24.5661  -21.6129  -14.5919 O   0  0  0  0  0  0  0  0  0  0  0  0
   25.6000  -22.7282   -8.2660 P   0  0  0  0  0  0  0  0  0  0  0  0
   24.0059  -22.2975  -12.7177 N   0  0  0  0  0  0  0  0  0  0  0  0
   22.7261  -24.4525  -13.7405 C   0  0  0  0  0  0  0  0  0  0  0  0
   24.5380  -21.1574  -12.1433 C   0  0  0  0  0  0  0  0  0  0  0  0
   25.3275  -22.1144   -9.1799 O   0  0  0  0  0  0  0  0  0  0  0  0
   22.7473  -24.0275  -12.5006 N   0  0  0  0  0  0  0  0  0  0  0  0
  4  1  1  0
  4  3  1  0
  8  4  1  0
  9  2  1  0
 10  5  1  0
 11  2  1  0
 11  7  1  0
 12  6  1  0
 13  3  1  0
 13  8  1  0
 13 11  1  0
 14  1  1  0
 14 10  1  0
 15  7  1  0
 15 12  1  0
M  END
>  <ID>  (1) 
conformer_0

$$$$
