
     RDKit          3D

 13 13  0  0  0  0  0  0  0  0999 V2000
   22.7325  -24.3936  -12.4910 C   0  0  0  0  0  0  0  0  0  0  0  0
   23.5737  -22.8255  -13.0552 C   0  0  0  0  0  0  0  0  0  0  0  0
   25.8554  -20.4370  -10.2126 C   0  0  0  0  0  0  0  0  0  0  0  0
   24.0317  -20.5693  -11.2740 C   0  0  0  0  0  0  0  0  0  0  0  0
   22.9901  -23.6796  -14.6163 N   0  0  0  0  0  0  0  0  0  0  0  0
   24.7547  -20.9354  -12.3922 C   0  0  0  0  0  0  0  0  0  0  0  0
   23.9072  -22.1242  -13.0248 N   0  0  0  0  0  0  0  0  0  0  0  0
   26.2932  -22.2998   -7.8437 O   0  0  0  0  0  1  0  0  0  0  0  0
   25.6735  -22.5440   -8.6643 P   0  0  0  0  0  0  0  0  0  0  0  0
   22.8173  -24.2558  -14.0949 C   0  0  0  0  0  0  0  0  0  0  0  0
   22.3333  -25.7397  -14.6862 N   0  0  0  0  0  0  0  0  0  0  0  0
   25.4089  -21.9261  -10.2812 O   0  0  0  0  0  0  0  0  0  0  0  0
   25.6982  -23.8820   -9.0696 O   0  0  0  0  0  1  0  0  0  0  0  0
  2  1  2  0
  4  3  1  0
  5  2  1  0
  6  4  1  0
  7  2  1  0
  7  6  1  0
  9  8  1  0
 10  1  1  0
 10  5  2  0
 11 10  1  0
 12  3  1  0
 12  9  1  0
 13  9  1  0
M  RAD  2   8   2  13   2
M  END
>  <ID>  (1) 
conformer_0

$$$$
