
     RDKit          3D

 14 14  0  0  0  0  0  0  0  0999 V2000
   25.8256  -20.3069  -10.2219 C   0  0  0  0  0  0  0  0  0  0  0  0
   23.3694  -23.2921  -11.9447 C   0  0  0  0  0  0  0  0  0  0  0  0
   25.2438  -21.1192  -12.9867 C   0  0  0  0  0  0  0  0  0  0  0  0
   23.0095  -23.6753  -14.2161 N   0  0  0  0  0  0  0  0  0  0  0  0
   25.6992  -21.9453   -9.3341 O   0  0  0  0  0  0  0  0  0  0  0  0
   22.5084  -26.0879  -13.5977 N   0  0  0  0  0  0  0  0  0  0  0  0
   22.7261  -24.4573  -12.0993 C   0  0  0  0  0  0  0  0  0  0  0  0
   24.0598  -20.4834  -11.0523 C   0  0  0  0  0  0  0  0  0  0  0  0
   23.9533  -22.3794  -12.6733 N   0  0  0  0  0  0  0  0  0  0  0  0
   22.5907  -24.8116  -13.5125 C   0  0  0  0  0  0  0  0  0  0  0  0
   25.9588  -21.1809   -8.6019 C   0  0  0  0  0  0  0  0  0  0  0  0
   25.5065  -21.7481  -11.4642 O   0  0  0  0  0  0  0  0  0  0  0  0
   24.4591  -21.3109  -11.3726 C   0  0  0  0  0  0  0  0  0  0  0  0
   23.7272  -22.9738  -13.9130 C   0  0  0  0  0  0  0  0  0  0  0  0
  7  2  1  0
  8  1  1  0
  9  2  1  0
 10  4  1  0
 10  6  1  0
 10  7  2  0
 11  1  1  0
 11  5  1  0
 12  3  1  0
 13  8  1  0
 13  9  1  0
 13 12  1  0
 14  4  2  0
 14  9  1  0
M  END
>  <ID>  (1) 
conformer_0

$$$$
