
     RDKit          3D

 19 21  0  0  0  0  0  0  0  0999 V2000
   26.1722  -20.9369   -9.3845 C   0  0  0  0  0  0  0  0  0  0  0  0
   22.6418  -23.8137  -11.6589 C   0  0  0  0  0  0  0  0  0  0  0  0
   24.0701  -22.5583  -13.9006 C   0  0  0  0  0  0  0  0  0  0  0  0
   24.2320  -20.1298  -11.1274 C   0  0  0  0  0  0  0  0  0  0  0  0
   25.8920  -20.3442  -10.8709 C   0  0  0  0  0  0  0  0  0  0  0  0
   25.1926  -22.6858   -9.4587 O   0  0  0  0  0  0  0  0  0  0  0  0
   23.6867  -23.4936  -14.2882 N   0  0  0  0  0  0  0  0  0  0  0  0
   22.7182  -24.4648  -13.9343 C   0  0  0  0  0  0  0  0  0  0  0  0
   24.5304  -21.5144  -14.1587 O   0  0  0  0  0  0  0  0  0  0  0  0
   25.5383  -22.8394   -8.4766 P   0  0  0  0  0  4  0  0  0  0  0  0
   22.2137  -25.5404  -14.4062 N   0  0  0  0  0  0  0  0  0  0  0  0
   26.5092  -23.2465   -7.9141 O   0  0  0  0  0  1  0  0  0  0  0  0
   24.7075  -22.5484   -7.5936 O   0  0  0  0  0  0  0  0  0  0  0  0
   26.3336  -19.9732   -8.5055 O   0  0  0  0  0  0  0  0  0  0  0  0
   24.1536  -22.0967  -12.5108 N   0  0  0  0  0  0  0  0  0  0  0  0
   25.6707  -21.6283  -11.3458 O   0  0  0  0  0  0  0  0  0  0  0  0
   23.5346  -23.0869  -12.1206 C   0  0  0  0  0  0  0  0  0  0  0  0
   24.7254  -21.0621  -12.0892 C   0  0  0  0  0  0  0  0  0  0  0  0
   22.2429  -24.7211  -12.6290 C   0  0  0  0  0  0  0  0  0  0  0  0
  5  1  1  0
  5  4  1  0
  6  1  1  0
  7  3  1  0
  8  7  1  0
  9  3  2  0
 10  6  1  0
 11  8  1  0
 12 10  1  0
 13 10  1  0
 14  1  1  0
 15  3  1  0
 16  5  1  0
 17  2  1  0
 17 15  1  0
 18  4  1  0
 18  5  1  0
 18 15  1  0
 18 16  1  0
 19  2  2  0
 19  8  1  0
M  RAD  2  10   2  12   2
M  END
>  <ID>  (1) 
conformer_0

$$$$
