
     RDKit          3D

 16 17  0  0  0  0  0  0  0  0999 V2000
   22.9651  -23.9480  -11.9774 C   0  0  0  0  0  0  0  0  0  0  0  0
   24.4554  -21.3688  -12.3381 C   0  0  0  0  0  0  0  0  0  0  0  0
   23.5321  -23.0817  -12.2808 C   0  0  0  0  0  0  0  0  0  0  0  0
   23.9302  -20.5150  -11.2040 C   0  0  0  0  0  0  0  0  0  0  0  0
   23.4335  -23.4518  -14.6104 N   0  0  0  0  0  0  0  0  0  0  0  0
   25.6375  -20.7019  -11.2100 C   0  0  0  0  0  0  0  0  0  0  0  0
   25.6994  -21.8478   -8.8540 O   0  0  0  0  0  0  0  0  0  0  0  0
   25.6596  -22.7007   -8.8825 P   0  0  0  0  0  0  0  0  0  0  0  0
   24.1320  -22.2576  -12.7887 N   0  0  0  0  0  0  0  0  0  0  0  0
   22.6318  -24.6612  -14.2168 C   0  0  0  0  0  0  0  0  0  0  0  0
   25.6619  -23.8586   -8.7916 O   0  0  0  0  0  0  0  0  0  0  0  0
   22.3081  -25.4223  -14.9485 N   0  0  0  0  0  0  0  0  0  0  0  0
   25.6699  -21.7652  -11.0826 O   0  0  0  0  0  0  0  0  0  0  0  0
   22.4249  -24.7551  -12.9316 C   0  0  0  0  0  0  0  0  0  0  0  0
   25.9402  -20.2368   -9.3127 C   0  0  0  0  0  0  0  0  0  0  0  0
   23.8929  -22.7879  -14.2685 C   0  0  0  0  0  0  0  0  0  0  0  0
  3  1  1  0
  4  2  1  0
  6  2  1  0
  6  4  1  0
  8  7  1  0
  9  2  1  0
  9  3  1  0
 10  5  1  0
 11  8  1  0
 12 10  1  0
 13  6  1  0
 14  1  2  0
 14 10  1  0
 15  6  1  0
 15  7  1  0
 16  5  2  0
 16  9  1  0
M  END
>  <ID>  (1) 
conformer_0

$$$$
