
     RDKit          3D

 16 16  0  0  0  0  0  0  0  0999 V2000
   22.4275  -24.0704  -12.1241 C   0  0  0  0  0  0  0  0  0  0  0  0
   23.3806  -23.0532  -12.6835 C   0  0  0  0  0  0  0  0  0  0  0  0
   24.1305  -20.5085  -11.2321 C   0  0  0  0  0  0  0  0  0  0  0  0
   26.0603  -20.6580   -9.7521 C   0  0  0  0  0  0  0  0  0  0  0  0
   23.8505  -22.8550  -14.2425 C   0  0  0  0  0  0  0  0  0  0  0  0
   24.6362  -21.8520  -14.4012 O   0  0  0  0  0  0  0  0  0  0  0  0
   25.9135  -22.5445   -8.3134 P   0  0  0  0  0  0  0  0  0  0  0  0
   26.3001  -23.3716   -7.8182 O   0  0  0  0  0  0  0  0  0  0  0  0
   24.9223  -21.2063  -11.6080 C   0  0  0  0  0  0  0  0  0  0  0  0
   22.5585  -25.5892  -15.2397 N   0  0  0  0  0  0  0  0  0  0  0  0
   25.7111  -22.1018   -9.1833 O   0  0  0  0  0  0  0  0  0  0  0  0
   23.9305  -22.2279  -12.5761 N   0  0  0  0  0  0  0  0  0  0  0  0
   25.7158  -21.7429  -11.7177 O   0  0  0  0  0  0  0  0  0  0  0  0
   21.9596  -24.6930  -13.2928 C   0  0  0  0  0  0  0  0  0  0  0  0
   22.8933  -24.3672  -14.3834 C   0  0  0  0  0  0  0  0  0  0  0  0
   24.9270  -19.7122  -10.4867 C   0  0  0  0  0  0  0  0  0  0  0  0
  2  1  2  0
  5  2  1  0
  6  5  1  0
  8  7  2  0
  9  3  1  0
 11  4  1  0
 11  7  1  0
 12  2  1  0
 12  9  1  0
 13  9  2  0
 14  1  1  0
 15  5  2  0
 15 10  1  0
 15 14  1  0
 16  3  1  0
 16  4  1  0
M  END
>  <ID>  (1) 
conformer_0

$$$$
