
     RDKit          3D

 13 12  0  0  0  0  0  0  0  0999 V2000
   23.6994  -23.0614  -13.9831 C   0  0  0  0  0  0  0  0  0  0  0  0
   24.0519  -19.9427  -11.0504 C   0  0  0  0  0  0  0  0  0  0  0  0
   25.9132  -20.4002   -9.7658 C   0  0  0  0  0  0  0  0  0  0  0  0
   23.7898  -23.0672  -11.7990 C   0  0  0  0  0  0  0  0  0  0  0  0
   23.2132  -23.6047  -14.5188 N   0  0  0  0  0  0  0  0  0  0  0  0
   25.0985  -20.8684  -11.8614 C   0  0  1  0  0  0  0  0  0  0  0  0
   25.5504  -21.8282   -9.4169 O   0  0  0  0  0  0  0  0  0  0  0  0
   22.5350  -25.7749  -13.7318 N   0  0  0  0  0  0  0  0  0  0  0  0
   24.3109  -22.1335  -12.1456 N   0  0  0  0  0  0  0  0  0  0  0  0
   25.4026  -22.7957   -8.8699 P   0  0  2  0  0  4  0  0  0  0  0  0
   24.3170  -23.6952   -8.9677 O   0  0  0  0  0  0  0  0  0  0  0  0
   22.9044  -24.4043  -13.5173 C   0  0  0  0  0  0  0  0  0  0  0  0
   26.1207  -23.2100   -7.9425 O   0  0  0  0  0  1  0  0  0  0  0  0
  4  1  1  0
  5  1  2  3
  6  2  1  1
  6  3  1  0
  7  3  1  0
  9  4  2  3
  9  6  1  0
 10  7  1  0
 10 11  1  1
 12  5  1  0
 12  8  1  0
 13 10  1  0
M  RAD  2  10   2  13   2
M  END
>  <ID>  (1) 
conformer_0

$$$$
