
     RDKit          3D

 16 17  0  0  0  0  0  0  0  0999 V2000
   24.2156  -19.8364  -11.0013 C   0  0  0  0  0  0  0  0  0  0  0  0
   25.9922  -20.3580  -10.2446 C   0  0  0  0  0  0  0  0  0  0  0  0
   22.8599  -24.7721  -14.1384 C   0  0  0  0  0  0  0  0  0  0  0  0
   22.7424  -24.8337  -12.5862 C   0  0  0  0  0  0  0  0  0  0  0  0
   24.4421  -21.1250  -11.9420 C   0  0  0  0  0  0  0  0  0  0  0  0
   25.5837  -23.7264   -8.7127 O   0  0  0  0  0  0  0  0  0  0  0  0
   23.7975  -22.4662  -12.5795 N   0  0  0  0  0  0  0  0  0  0  0  0
   25.8211  -22.4840   -8.4251 P   0  0  0  0  0  4  0  0  0  0  0  0
   23.5183  -23.4973  -11.9369 C   0  0  0  0  0  0  0  0  0  0  0  0
   22.5867  -26.0090  -14.7113 N   0  0  0  0  0  0  0  0  0  0  0  0
   26.5948  -22.0092   -7.5384 O   0  0  0  0  0  1  0  0  0  0  0  0
   25.4559  -21.5488   -9.3366 O   0  0  0  0  0  0  0  0  0  0  0  0
   23.2081  -23.9303  -14.3649 N   0  0  0  0  0  0  0  0  0  0  0  0
   25.5935  -21.4582  -11.6671 O   0  0  0  0  0  0  0  0  0  0  0  0
   23.7533  -23.0795  -14.0480 C   0  0  0  0  0  0  0  0  0  0  0  0
   23.4956  -20.1786  -11.8950 C   0  0  0  0  0  0  0  0  0  0  0  0
  4  3  2  0
  5  1  1  0
  7  5  1  0
  8  6  1  0
  9  4  1  0
  9  7  1  0
 10  3  1  0
 11  8  1  0
 12  2  1  0
 12  8  1  0
 13  3  1  0
 14  2  1  0
 14  5  1  0
 15  7  1  0
 15 13  2  0
 16  1  1  0
 16  5  1  0
M  RAD  2   8   2  11   2
M  END
>  <ID>  (1) 
conformer_0

$$$$
