
     RDKit          3D

 18 18  0  0  0  0  0  0  0  0999 V2000
   24.1354  -22.5726  -13.9217 C   0  0  0  0  0  0  0  0  0  0  0  0
   24.7012  -20.8879  -10.8275 C   0  0  0  0  0  0  0  0  0  0  0  0
   22.5564  -24.4884  -12.5941 C   0  0  0  0  0  0  0  0  0  0  0  0
   23.7972  -23.5271  -14.7552 N   0  0  0  0  0  0  0  0  0  0  0  0
   24.3205  -20.9845  -12.3938 C   0  0  0  0  0  0  0  0  0  0  0  0
   23.4634  -23.2960  -11.7998 C   0  0  0  0  0  0  0  0  0  0  0  0
   22.9005  -25.6117  -14.9339 N   0  0  0  0  0  0  0  0  0  0  0  0
   25.0584  -21.4171  -14.4165 O   0  0  0  0  0  0  0  0  0  0  0  0
   24.6224  -23.6277   -8.8742 O   0  0  0  0  0  0  0  0  0  0  0  0
   24.2069  -20.3750  -10.8402 C   0  0  0  0  0  0  0  0  0  0  0  0
   23.9674  -22.2171  -12.4625 N   0  0  0  0  0  0  0  0  0  0  0  0
   25.3310  -22.9451   -8.5950 P   0  0  0  0  0  0  0  0  0  0  0  0
   25.6596  -22.1665   -8.6551 O   0  0  0  0  0  0  0  0  0  0  0  0
   23.2698  -24.2449  -14.0658 C   0  0  0  0  0  0  0  0  0  0  0  0
   25.6610  -19.1165  -10.0703 O   0  0  0  0  0  0  0  0  0  0  0  0
   25.5088  -21.4285  -11.1370 O   0  0  0  0  0  0  0  0  0  0  0  0
   26.0320  -20.1639  -10.1287 C   0  0  0  0  0  0  0  0  0  0  0  0
   26.2514  -21.1633   -8.2436 C   0  0  0  0  0  0  0  0  0  0  0  0
  4  1  1  0
  5  2  1  0
  6  3  1  0
  8  1  2  0
 10  2  1  0
 11  1  1  0
 11  5  1  0
 11  6  1  0
 12  9  2  0
 13 12  1  0
 14  3  1  0
 14  4  1  0
 14  7  1  0
 16  2  1  0
 17  2  1  0
 17 15  1  0
 18 10  1  0
 18 13  1  0
M  END
>  <ID>  (1) 
conformer_0

$$$$
