
     RDKit          3D

 17 18  0  0  0  0  0  0  0  0999 V2000
   22.4779  -24.9031  -12.8793 C   0  0  0  0  0  0  0  0  0  0  0  0
   24.4933  -21.2430  -11.9723 C   0  0  0  0  0  0  0  0  0  0  0  0
   24.2363  -20.1082  -10.9886 C   0  0  0  0  0  0  0  0  0  0  0  0
   23.8795  -22.5226  -13.7716 C   0  0  0  0  0  0  0  0  0  0  0  0
   23.2777  -23.4856  -14.3057 N   0  0  0  0  0  0  0  0  0  0  0  0
   26.1008  -21.0975   -9.2517 C   0  0  0  0  0  0  0  0  0  0  0  0
   25.8819  -23.6088   -8.2393 O   0  0  0  0  0  1  0  0  0  0  0  0
   23.9673  -22.3502  -12.2477 N   0  0  0  0  0  0  0  0  0  0  0  0
   25.1388  -22.5884   -9.5837 O   0  0  0  0  0  0  0  0  0  0  0  0
   22.3615  -25.6166  -14.6911 N   0  0  0  0  0  0  0  0  0  0  0  0
   23.5559  -23.2971  -11.7101 C   0  0  0  0  0  0  0  0  0  0  0  0
   22.7387  -24.4951  -13.9026 C   0  0  0  0  0  0  0  0  0  0  0  0
   25.7053  -22.8839   -8.5602 P   0  0  0  0  0  4  0  0  0  0  0  0
   24.8911  -21.5353  -14.3143 O   0  0  0  0  0  0  0  0  0  0  0  0
   25.5814  -21.5398  -11.5217 O   0  0  0  0  0  0  0  0  0  0  0  0
   25.6704  -20.4602  -10.8678 C   0  0  0  0  0  0  0  0  0  0  0  0
   22.9114  -24.2907  -11.6401 C   0  0  0  0  0  0  0  0  0  0  0  0
  3  2  1  0
  5  4  1  0
  8  2  1  0
  8  4  1  0
 11  8  1  0
 12  1  2  0
 12  5  1  0
 12 10  1  0
 13  6  1  0
 13  7  1  0
 13  9  1  0
 14  4  2  0
 15  2  1  0
 16  3  1  0
 16  6  1  0
 16 15  1  0
 17  1  1  0
 17 11  1  0
M  RAD  2   7   2  13   2
M  END
>  <ID>  (1) 
conformer_0

$$$$
