
     RDKit          3D

 15 16  0  0  0  0  0  0  0  0999 V2000
   26.6610  -20.6375   -8.8804 C   0  0  0  0  0  0  0  0  0  0  0  0
   23.6797  -22.5915  -13.9618 C   0  0  0  0  0  0  0  0  0  0  0  0
   23.8827  -20.4871  -11.1005 C   0  0  0  0  0  0  0  0  0  0  0  0
   22.9042  -25.5539  -14.6909 N   0  0  0  0  0  0  0  0  0  0  0  0
   23.4958  -23.1678  -14.5780 N   0  0  0  0  0  0  0  0  0  0  0  0
   25.8731  -20.6414  -10.2095 C   0  0  0  0  0  0  0  0  0  0  0  0
   26.1744  -23.5260   -8.2498 O   0  0  0  0  0  1  0  0  0  0  0  0
   22.7619  -24.1789  -12.2991 C   0  0  0  0  0  0  0  0  0  0  0  0
   22.9465  -24.5169  -14.1716 C   0  0  0  0  0  0  0  0  0  0  0  0
   25.4162  -22.1497  -10.2237 O   0  0  0  0  0  0  0  0  0  0  0  0
   25.6331  -22.6162   -8.4436 P   0  0  0  0  0  4  0  0  0  0  0  0
   25.3176  -21.3829  -12.5631 O   0  0  0  0  0  0  0  0  0  0  0  0
   24.7009  -21.3302  -11.5567 C   0  0  0  0  0  0  0  0  0  0  0  0
   23.3074  -23.2136  -12.2644 C   0  0  0  0  0  0  0  0  0  0  0  0
   25.3710  -21.6596   -8.0180 O   0  0  0  0  0  0  0  0  0  0  0  0
  5  2  2  0
  6  1  1  0
  9  4  1  0
  9  5  1  0
  9  8  2  0
 10  6  1  0
 11  7  1  0
 11 10  1  0
 13  3  1  0
 13  6  1  0
 13 12  1  0
 14  2  1  0
 14  8  1  0
 14 13  1  0
 15  1  1  0
 15 11  1  0
M  RAD  2   7   2  11   2
M  END
>  <ID>  (1) 
conformer_0

$$$$
