
     RDKit          3D

 19 22  0  0  0  0  0  0  0  0999 V2000
   24.6249  -19.9170  -10.0321 C   0  0  0  0  0  0  0  0  0  0  0  0
   22.2859  -24.8341  -13.1856 C   0  0  0  0  0  0  0  0  0  0  0  0
   26.2840  -20.3071   -9.4979 C   0  0  0  0  0  0  0  0  0  0  0  0
   23.2274  -23.2013  -12.3359 C   0  0  0  0  0  0  0  0  0  0  0  0
   23.3318  -23.3401  -14.7044 N   0  0  0  0  0  0  0  0  0  0  0  0
   25.6061  -20.7716  -11.1166 C   0  0  0  0  0  0  0  0  0  0  0  0
   22.8332  -25.5532  -15.2891 N   0  0  0  0  0  0  0  0  0  0  0  0
   26.6722  -21.4884   -7.9582 O   0  0  0  0  0  0  0  0  0  0  0  0
   25.6624  -21.6080  -12.0113 O   0  0  0  0  0  0  0  0  0  0  0  0
   26.1731  -22.4894   -8.3672 P   0  0  0  0  0  0  0  0  0  0  0  0
   23.7357  -22.1153  -12.7092 N   0  0  0  0  0  0  0  0  0  0  0  0
   22.8398  -24.4242  -14.3559 C   0  0  0  0  0  0  0  0  0  0  0  0
   25.9951  -23.7849   -8.1139 O   0  0  0  0  0  1  0  0  0  0  0  0
   23.7795  -22.4663  -14.1919 C   0  0  0  0  0  0  0  0  0  0  0  0
   24.6869  -21.4745  -14.5623 O   0  0  0  0  0  0  0  0  0  0  0  0
   24.1847  -21.1852  -12.1921 C   0  0  0  0  0  0  0  0  0  0  0  0
   23.8762  -20.3775  -11.0723 C   0  0  0  0  0  0  0  0  0  0  0  0
   22.7095  -24.1348  -11.9116 C   0  0  0  0  0  0  0  0  0  0  0  0
   25.8203  -22.2477   -9.7782 O   0  0  0  0  0  1  0  0  0  0  0  0
  3  1  1  0
  6  1  1  0
  6  3  1  0
  8  3  1  0
  9  6  1  0
 10  8  1  0
 11  4  1  0
 12  2  1  0
 12  5  1  0
 12  7  1  0
 13 10  1  0
 14  5  1  0
 14 11  1  0
 15 14  2  0
 16  9  1  0
 16 11  1  0
 17  1  1  0
 17  6  1  0
 17 16  1  0
 18  2  2  0
 18  4  1  0
 19 10  1  0
M  RAD  2  13   2  19   2
M  END
>  <ID>  (1) 
conformer_0

$$$$
