
     RDKit          3D

 17 18  0  0  0  0  0  0  0  0999 V2000
   24.6717  -20.2187  -11.0416 C   0  0  0  0  0  0  0  0  0  0  0  0
   23.8995  -22.6404  -14.2181 C   0  0  0  0  0  0  0  0  0  0  0  0
   22.8780  -24.5152  -12.6657 C   0  0  0  0  0  0  0  0  0  0  0  0
   26.4454  -20.1195   -9.7096 C   0  0  0  0  0  0  0  0  0  0  0  0
   23.6459  -23.0192  -14.5125 N   0  0  0  0  0  0  0  0  0  0  0  0
   22.8021  -25.8734  -14.7512 N   0  0  0  0  0  0  0  0  0  0  0  0
   23.0686  -24.6345  -14.2986 C   0  0  0  0  0  0  0  0  0  0  0  0
   26.8464  -21.6865   -7.5278 O   0  0  0  0  0  1  0  0  0  0  0  0
   25.9104  -22.2221   -8.2989 P   0  0  0  0  0  4  0  0  0  0  0  0
   25.2128  -21.2851  -10.1774 C   0  0  0  0  0  0  0  0  0  0  0  0
   25.7813  -21.4864   -9.2596 O   0  0  0  0  0  0  0  0  0  0  0  0
   24.0552  -22.1260  -12.5329 N   0  0  0  0  0  0  0  0  0  0  0  0
   23.5576  -20.2937  -11.3781 C   0  0  0  0  0  0  0  0  0  0  0  0
   25.8462  -23.0752   -7.7412 O   0  0  0  0  0  0  0  0  0  0  0  0
   23.5151  -23.1093  -12.4849 C   0  0  0  0  0  0  0  0  0  0  0  0
   25.0384  -23.2536   -9.8294 O   0  0  0  0  0  0  0  0  0  0  0  0
   24.4719  -21.2674  -12.0158 C   0  0  0  0  0  0  0  0  0  0  0  0
  5  2  1  0
  7  3  2  0
  7  5  1  0
  7  6  1  0
  9  8  1  0
 10  1  1  0
 10  4  1  0
 11  9  1  0
 11 10  1  0
 12  2  1  0
 13  1  1  0
 14  9  1  0
 15  3  1  0
 15 12  1  0
 16 10  1  0
 17  1  1  0
 17 12  1  0
 17 13  1  0
M  RAD  2   8   2   9   2
M  END
>  <ID>  (1) 
conformer_0

$$$$
