
     RDKit          3D

 15 16  0  0  0  0  0  0  0  0999 V2000
   23.7112  -22.7401  -14.3437 C   0  0  0  0  0  0  0  0  0  0  0  0
   24.3592  -21.0710  -12.3026 C   0  0  0  0  0  0  0  0  0  0  0  0
   25.5184  -20.5156  -10.8090 C   0  0  0  0  0  0  0  0  0  0  0  0
   24.0459  -20.2104  -11.1918 C   0  0  0  0  0  0  0  0  0  0  0  0
   23.0005  -23.8235  -14.6315 N   0  0  0  0  0  0  0  0  0  0  0  0
   25.3949  -21.9955   -9.6233 O   0  0  0  0  0  0  0  0  0  0  0  0
   22.7321  -24.3007  -12.2382 C   0  0  0  0  0  0  0  0  0  0  0  0
   25.8147  -21.0962  -11.9805 O   0  0  0  0  0  0  0  0  0  0  0  0
   22.5120  -26.0107  -13.8844 N   0  0  0  0  0  0  0  0  0  0  0  0
   23.8968  -22.1896  -12.7130 N   0  0  0  0  0  0  0  0  0  0  0  0
   23.5371  -23.1441  -12.1303 C   0  0  0  0  0  0  0  0  0  0  0  0
   25.4870  -22.9086   -8.7545 P   0  0  0  0  0  0  0  0  0  0  0  0
   22.7661  -24.4964  -13.7906 C   0  0  0  0  0  0  0  0  0  0  0  0
   26.4902  -20.7778   -9.0653 C   0  0  0  0  0  0  0  0  0  0  0  0
   26.1300  -23.6279   -8.3158 O   0  0  0  0  0  0  0  0  0  0  0  0
  4  2  1  0
  4  3  1  0
  5  1  1  0
  8  2  1  0
  8  3  1  0
 10  1  1  0
 10  2  1  0
 11  7  2  0
 11 10  1  0
 12  6  1  0
 13  5  2  0
 13  7  1  0
 13  9  1  0
 14  3  1  0
 14  6  1  0
 15 12  2  0
M  END
>  <ID>  (1) 
conformer_0

$$$$
