
     RDKit          3D

 16 17  0  0  0  0  0  0  0  0999 V2000
   25.0204  -20.3813  -10.4086 C   0  0  0  0  0  0  0  0  0  0  0  0
   22.6723  -24.5325  -12.5690 C   0  0  0  0  0  0  0  0  0  0  0  0
   23.5389  -23.1747  -12.3299 C   0  0  0  0  0  0  0  0  0  0  0  0
   25.1231  -21.2291  -11.1660 C   0  0  0  0  0  0  0  0  0  0  0  0
   23.1421  -23.3981  -14.6842 N   0  0  0  0  0  0  0  0  0  0  0  0
   26.0578  -20.5873   -9.0854 C   0  0  0  0  0  0  0  0  0  0  0  0
   22.1683  -25.5310  -15.0380 N   0  0  0  0  0  0  0  0  0  0  0  0
   25.7247  -21.3286  -12.7531 O   0  0  0  0  0  0  0  0  0  0  0  0
   25.1326  -23.1541   -9.7656 O   0  0  0  0  0  0  0  0  0  0  0  0
   22.6469  -24.4613  -14.2272 C   0  0  0  0  0  0  0  0  0  0  0  0
   24.0725  -22.2006  -12.8103 N   0  0  0  0  0  0  0  0  0  0  0  0
   25.5194  -22.6103   -8.5059 P   0  0  0  0  0  0  0  0  0  0  0  0
   26.1752  -22.5953   -8.0339 O   0  0  0  0  0  0  0  0  0  0  0  0
   23.7512  -22.6128  -14.2424 C   0  0  0  0  0  0  0  0  0  0  0  0
   23.8986  -20.6130  -11.2817 C   0  0  0  0  0  0  0  0  0  0  0  0
   24.8722  -20.9011  -12.9573 C   0  0  0  0  0  0  0  0  0  0  0  0
  3  2  1  0
  4  1  1  0
  6  1  1  0
  8  4  1  0
 10  2  2  0
 10  5  1  0
 10  7  1  0
 11  3  1  0
 12  6  1  0
 12  9  1  0
 13 12  1  0
 14  5  2  0
 14 11  1  0
 15  1  1  0
 15  4  1  0
 16  8  1  0
 16 11  1  0
M  END
>  <ID>  (1) 
conformer_0

$$$$
