
     RDKit          3D

 16 16  0  0  0  0  0  0  0  0999 V2000
   23.8559  -22.7995  -13.6471 C   0  0  0  0  0  0  0  0  0  0  0  0
   25.9733  -20.9975   -8.7793 C   0  0  0  0  0  0  0  0  0  0  0  0
   23.2763  -23.5678  -14.3697 N   0  0  0  0  0  0  0  0  0  0  0  0
   24.5026  -20.7936  -11.0910 C   0  0  0  0  0  0  0  0  0  0  0  0
   24.8516  -21.2822  -12.0893 C   0  0  0  0  0  0  0  0  0  0  0  0
   23.3335  -23.6807  -11.8386 C   0  0  0  0  0  0  0  0  0  0  0  0
   25.9055  -21.5656   -8.7664 O   0  0  0  0  0  0  0  0  0  0  0  0
   25.3321  -21.4830  -13.8601 O   0  0  0  0  0  0  0  0  0  0  0  0
   22.3837  -24.6247  -12.5937 C   0  0  0  0  0  0  0  0  0  0  0  0
   23.8182  -22.6477   -8.5696 O   0  0  0  0  0  0  0  0  0  0  0  0
   23.9448  -23.9361  -10.4958 O   0  0  0  0  0  0  0  0  0  0  0  0
   24.8263  -22.7797   -9.0619 P   0  0  0  0  0  4  0  0  0  0  0  0
   24.0758  -22.3611  -12.6344 N   0  0  0  0  0  0  0  0  0  0  0  0
   22.6495  -24.3850  -13.8786 C   0  0  0  0  0  0  0  0  0  0  0  0
   26.0160  -20.2235  -10.5073 C   0  0  0  0  0  0  0  0  0  0  0  0
   25.5591  -23.5453   -9.1790 O   0  0  0  0  0  1  0  0  0  0  0  0
  3  1  2  0
  5  4  1  0
  7  2  1  0
  8  5  2  0
  9  6  1  0
 11  6  2  0
 12  7  1  0
 12 10  1  0
 13  1  1  0
 13  5  1  0
 13  6  1  0
 14  3  1  0
 14  9  2  0
 15  2  1  0
 15  4  1  0
 16 12  1  0
M  RAD  2  12   2  16   2
M  END
>  <ID>  (1) 
conformer_0

$$$$
