
     RDKit          3D

 17 19  0  0  0  0  0  0  0  0999 V2000
   25.7056  -20.6414  -11.1630 C   0  0  0  0  0  0  0  0  0  0  0  0
   23.7471  -22.8522  -14.1324 C   0  0  0  0  0  0  0  0  0  0  0  0
   24.4601  -21.3221  -12.3128 C   0  0  0  0  0  0  0  0  0  0  0  0
   24.2634  -20.2527  -11.1252 C   0  0  0  0  0  0  0  0  0  0  0  0
   22.9418  -23.8702  -14.4964 N   0  0  0  0  0  0  0  0  0  0  0  0
   22.0566  -25.8051  -13.9738 N   0  0  0  0  0  0  0  0  0  0  0  0
   25.7645  -21.2431  -12.4477 O   0  0  0  0  0  0  0  0  0  0  0  0
   25.5530  -22.6596   -8.5714 P   0  0  0  0  0  0  0  0  0  0  0  0
   25.9067  -21.6917   -9.6094 O   0  0  0  0  0  0  0  0  0  0  0  0
   22.8021  -24.4975  -12.0597 C   0  0  0  0  0  0  0  0  0  0  0  0
   24.9183  -23.8791   -9.1696 O   0  0  0  0  0  0  0  0  0  0  0  0
   22.6187  -24.6869  -13.7214 C   0  0  0  0  0  0  0  0  0  0  0  0
   24.0538  -22.3623  -12.6267 N   0  0  0  0  0  0  0  0  0  0  0  0
   26.6961  -23.1869   -7.8126 O   0  0  0  0  0  0  0  0  0  0  0  0
   23.5656  -23.3287  -12.0945 C   0  0  0  0  0  0  0  0  0  0  0  0
   24.7189  -22.2773   -7.7541 O   0  0  0  0  0  0  0  0  0  0  0  0
   26.2379  -20.4925   -9.7138 C   0  0  0  0  0  0  0  0  0  0  0  0
  3  1  1  0
  4  1  1  0
  4  3  1  0
  5  2  1  0
  7  1  1  0
  7  3  1  0
  9  8  1  0
 11  8  1  0
 12  5  2  0
 12  6  1  0
 12 10  1  0
 13  2  1  0
 13  3  1  0
 15 10  2  0
 15 13  1  0
 16  8  1  0
 16 14  1  0
 17  1  1  0
 17  9  1  0
M  END
>  <ID>  (1) 
conformer_0

$$$$
