
     RDKit          3D

 19 20  0  0  0  0  0  0  0  0999 V2000
   23.9506  -22.6243  -14.1954 C   0  0  0  0  0  0  0  0  0  0  0  0
   25.9207  -20.1158  -11.5488 C   0  0  0  0  0  0  0  0  0  0  0  0
   22.5529  -24.3505  -12.5097 C   0  0  0  0  0  0  0  0  0  0  0  0
   23.3489  -23.5948  -14.5368 N   0  0  0  0  0  0  0  0  0  0  0  0
   23.6548  -20.2562  -11.4102 C   0  0  0  0  0  0  0  0  0  0  0  0
   26.3268  -20.8207   -9.3062 C   0  0  0  0  0  0  0  0  0  0  0  0
   22.4597  -25.5720  -14.8190 N   0  0  0  0  0  0  0  0  0  0  0  0
   26.6469  -22.3414   -7.9433 O   0  0  0  0  0  1  0  0  0  0  0  0
   24.6357  -21.7882  -14.6327 O   0  0  0  0  0  0  0  0  0  0  0  0
   25.6276  -22.6548   -8.2473 P   0  0  0  0  0  0  0  0  0  0  0  0
   22.6888  -24.6072  -14.2084 C   0  0  0  0  0  0  0  0  0  0  0  0
   25.1851  -22.2189   -9.8722 O   0  0  0  0  0  0  0  0  0  0  0  0
   24.0434  -22.0563  -12.6300 N   0  0  0  0  0  0  0  0  0  0  0  0
   24.3764  -22.6537   -7.7913 O   0  0  0  0  0  1  0  0  0  0  0  0
   25.8178  -20.0094  -10.4220 C   0  0  0  0  0  0  0  0  0  0  0  0
   23.3965  -23.1016  -12.4757 C   0  0  0  0  0  0  0  0  0  0  0  0
   25.4310  -21.3858  -12.1584 O   0  0  0  0  0  0  0  0  0  0  0  0
   24.7264  -21.5902  -10.7399 C   0  0  0  0  0  0  0  0  0  0  0  0
   24.3426  -20.8006  -12.7147 C   0  0  0  0  0  0  0  0  0  0  0  0
  4  1  1  0
  9  1  2  0
 10  8  1  0
 11  3  1  0
 11  4  2  0
 11  7  1  0
 12 10  1  0
 13  1  1  0
 14 10  1  0
 15  2  1  0
 15  6  1  0
 16  3  1  0
 16 13  1  0
 17  2  1  0
 18  5  1  0
 18 12  1  0
 18 15  1  0
 19  5  1  0
 19 13  1  0
 19 17  1  0
M  RAD  2   8   2  14   2
M  END
>  <ID>  (1) 
conformer_0

$$$$
