
     RDKit          3D

 15 15  0  0  0  0  0  0  0  0999 V2000
   26.0348  -20.5527   -9.8733 C   0  0  0  0  0  0  0  0  0  0  0  0
   23.8784  -22.6777  -14.0498 C   0  0  0  0  0  0  0  0  0  0  0  0
   24.9435  -20.9071  -11.5455 C   0  0  0  0  0  0  0  0  0  0  0  0
   23.8155  -20.4419  -11.0001 C   0  0  0  0  0  0  0  0  0  0  0  0
   22.6429  -25.6646  -14.2069 N   0  0  0  0  0  0  0  0  0  0  0  0
   23.5892  -23.2253  -11.9058 C   0  0  0  0  0  0  0  0  0  0  0  0
   26.1116  -23.6162   -8.1529 O   0  0  0  0  0  0  0  0  0  0  0  0
   22.8189  -24.3607  -12.2008 C   0  0  0  0  0  0  0  0  0  0  0  0
   23.2524  -23.6448  -14.3770 N   0  0  0  0  0  0  0  0  0  0  0  0
   24.0635  -22.1962  -12.5761 N   0  0  0  0  0  0  0  0  0  0  0  0
   25.3034  -22.2933   -9.5270 O   0  0  0  0  0  0  0  0  0  0  0  0
   24.0741  -21.7355  -14.9071 O   0  0  0  0  0  0  0  0  0  0  0  0
   25.6221  -21.2966  -11.9350 O   0  0  0  0  0  0  0  0  0  0  0  0
   25.3548  -23.0320   -8.8564 P   0  0  0  0  0  0  0  0  0  0  0  0
   22.9031  -24.4240  -13.7454 C   0  0  0  0  0  0  0  0  0  0  0  0
  3  1  1  0
  4  3  1  0
  8  6  1  0
  9  2  1  0
 10  2  1  0
 10  3  1  0
 10  6  1  0
 11  1  1  0
 12  2  2  0
 13  3  1  0
 14  7  2  0
 14 11  1  0
 15  5  1  0
 15  8  1  0
 15  9  1  0
M  END
>  <ID>  (1) 
conformer_0

$$$$
