
     RDKit          3D

 14 15  0  0  0  0  0  0  0  0999 V2000
   24.6307  -21.1626  -12.0964 C   0  0  0  0  0  0  0  0  0  0  0  0
   23.9683  -22.5970  -13.9414 C   0  0  0  0  0  0  0  0  0  0  0  0
   25.5796  -20.6049  -10.3721 C   0  0  0  0  0  0  0  0  0  0  0  0
   23.3505  -23.4993  -14.3028 N   0  0  0  0  0  0  0  0  0  0  0  0
   24.1850  -20.0435  -10.9549 C   0  0  0  0  0  0  0  0  0  0  0  0
   22.4614  -25.6591  -14.5176 N   0  0  0  0  0  0  0  0  0  0  0  0
   25.9895  -21.2050  -11.8156 O   0  0  0  0  0  0  0  0  0  0  0  0
   22.7536  -24.5624  -13.8068 C   0  0  0  0  0  0  0  0  0  0  0  0
   24.1335  -22.2707  -12.5419 N   0  0  0  0  0  0  0  0  0  0  0  0
   24.0968  -23.6606  -10.5469 O   0  0  0  0  0  0  0  0  0  0  0  0
   25.7372  -21.6601   -9.4401 O   0  0  0  0  0  0  0  0  0  0  0  0
   26.3924  -21.2804   -8.5492 C   0  0  0  0  0  0  0  0  0  0  0  0
   23.5251  -23.4192  -11.9457 C   0  0  0  0  0  0  0  0  0  0  0  0
   22.6274  -24.3594  -12.5719 C   0  0  0  0  0  0  0  0  0  0  0  0
  4  2  2  0
  5  1  1  0
  5  3  1  0
  7  1  1  0
  7  3  1  0
  8  4  1  0
  8  6  1  0
  9  1  1  0
  9  2  1  0
 11  3  1  0
 12 11  1  0
 13  9  1  0
 13 10  2  0
 14  8  1  0
 14 13  1  0
M  END
>  <ID>  (1) 
conformer_0

$$$$
