
     RDKit          3D

 18 19  0  0  0  0  0  0  0  0999 V2000
   22.9155  -24.5216  -14.1845 C   0  0  0  0  0  0  0  0  0  0  0  0
   26.1687  -20.3643   -9.4085 C   0  0  0  0  0  0  0  0  0  0  0  0
   24.9200  -19.6826  -10.6169 C   0  0  0  0  0  0  0  0  0  0  0  0
   22.7309  -24.5815  -12.5443 C   0  0  0  0  0  0  0  0  0  0  0  0
   25.4216  -20.5775  -10.7419 C   0  0  0  0  0  0  0  0  0  0  0  0
   23.3852  -23.8460  -14.7932 N   0  0  0  0  0  0  0  0  0  0  0  0
   23.4514  -23.2600  -12.0600 C   0  0  0  0  0  0  0  0  0  0  0  0
   22.3901  -25.7238  -14.8717 N   0  0  0  0  0  0  0  0  0  0  0  0
   25.9491  -21.1598  -11.7923 O   0  0  0  0  0  0  0  0  0  0  0  0
   23.9428  -22.3310  -12.6180 N   0  0  0  0  0  0  0  0  0  0  0  0
   25.2288  -22.7572   -8.6609 P   0  0  0  0  0  4  0  0  0  0  0  0
   25.2325  -22.0331   -9.3889 O   0  0  0  0  0  0  0  0  0  0  0  0
   24.0187  -22.8144  -14.1138 C   0  0  0  0  0  0  0  0  0  0  0  0
   24.2936  -23.3325   -7.9469 O   0  0  0  0  0  0  0  0  0  0  0  0
   24.8764  -21.7447  -14.3386 O   0  0  0  0  0  0  0  0  0  0  0  0
   26.1479  -23.5986   -8.3257 O   0  0  0  0  0  1  0  0  0  0  0  0
   24.1563  -21.2121  -12.1164 C   0  0  0  0  0  0  0  0  0  0  0  0
   23.7567  -20.1578  -11.3403 C   0  0  0  0  0  0  0  0  0  0  0  0
  4  1  1  0
  5  2  1  0
  5  3  1  0
  6  1  2  0
  7  4  2  0
  8  1  1  0
  9  5  1  0
 10  7  1  0
 12  2  1  0
 12 11  1  0
 13  6  1  0
 13 10  1  0
 14 11  1  0
 15 13  2  0
 16 11  1  0
 17  9  1  0
 17 10  1  0
 18  3  1  0
 18 17  1  0
M  RAD  2  11   2  16   2
M  END
>  <ID>  (1) 
conformer_0

$$$$
