
     RDKit          3D

 16 18  0  0  0  0  0  0  0  0999 V2000
   26.1963  -20.5286   -9.7864 C   0  0  0  0  0  0  0  0  0  0  0  0
   22.8482  -24.5595  -13.9395 C   0  0  0  0  0  0  0  0  0  0  0  0
   23.8626  -20.0540  -11.1444 C   0  0  0  0  0  0  0  0  0  0  0  0
   23.4578  -23.6953  -14.5682 N   0  0  0  0  0  0  0  0  0  0  0  0
   25.3826  -20.5798  -10.8735 C   0  0  0  0  0  0  0  0  0  0  0  0
   25.7046  -21.1283  -12.2991 O   0  0  0  0  0  0  0  0  0  0  0  0
   22.6293  -24.6598  -12.3820 C   0  0  0  0  0  0  0  0  0  0  0  0
   22.4474  -25.8669  -14.4537 N   0  0  0  0  0  0  0  0  0  0  0  0
   25.8619  -22.7374   -8.3578 P   0  0  0  0  0  4  0  0  0  0  0  0
   23.2084  -23.2769  -12.1038 C   0  0  0  0  0  0  0  0  0  0  0  0
   25.6677  -22.0980   -9.6974 O   0  0  0  0  0  0  0  0  0  0  0  0
   23.8299  -22.2366  -12.5435 N   0  0  0  0  0  0  0  0  0  0  0  0
   23.9413  -22.7021  -14.0498 C   0  0  0  0  0  0  0  0  0  0  0  0
   24.9169  -23.5372   -8.3594 O   0  0  0  0  0  0  0  0  0  0  0  0
   26.1911  -22.4380   -7.6810 O   0  0  0  0  0  1  0  0  0  0  0  0
   24.4274  -21.1762  -12.1742 C   0  0  0  0  0  0  0  0  0  0  0  0
  4  2  1  0
  5  1  1  0
  5  3  1  0
  6  5  1  0
  7  2  2  0
  8  2  1  0
 10  7  1  0
 11  1  1  0
 11  9  1  0
 12 10  1  0
 13  4  2  0
 13 12  1  0
 14  9  1  0
 15  9  1  0
 16  3  1  0
 16  5  1  0
 16  6  1  0
 16 12  1  0
M  RAD  2   9   2  15   2
M  END
>  <ID>  (1) 
conformer_0

$$$$
