
     RDKit          3D

 17 18  0  0  0  0  0  0  0  0999 V2000
   26.5098  -20.9359   -8.8870 C   0  0  0  0  0  0  0  0  0  0  0  0
   23.1390  -24.0448  -11.6189 C   0  0  0  0  0  0  0  0  0  0  0  0
   22.9071  -24.4653  -14.0219 C   0  0  0  0  0  0  0  0  0  0  0  0
   24.0607  -20.2681  -11.1984 C   0  0  0  0  0  0  0  0  0  0  0  0
   23.3949  -23.3810  -14.5334 N   0  0  0  0  0  0  0  0  0  0  0  0
   26.0200  -20.2217  -10.4697 C   0  0  0  0  0  0  0  0  0  0  0  0
   25.0326  -23.3762   -8.0198 O   0  0  0  0  0  0  0  0  0  0  0  0
   22.6942  -25.9211  -14.3362 N   0  0  0  0  0  0  0  0  0  0  0  0
   25.3045  -22.0032   -9.4631 O   0  0  0  0  0  0  0  0  0  0  0  0
   25.3435  -22.8549   -8.8383 P   0  0  0  0  0  0  0  0  0  0  0  0
   23.5900  -23.0675  -12.0723 C   0  0  0  0  0  0  0  0  0  0  0  0
   24.0159  -22.1396  -12.6249 N   0  0  0  0  0  0  0  0  0  0  0  0
   25.7669  -21.3818  -11.7936 O   0  0  0  0  0  0  0  0  0  0  0  0
   23.9715  -22.5741  -14.2147 C   0  0  0  0  0  0  0  0  0  0  0  0
   24.5306  -20.6696  -12.8089 C   0  0  0  0  0  0  0  0  0  0  0  0
   22.6050  -24.7631  -12.7895 C   0  0  0  0  0  0  0  0  0  0  0  0
   24.6481  -21.4452  -11.0819 C   0  0  0  0  0  0  0  0  0  0  0  0
  5  3  1  0
  6  1  1  0
  8  3  1  0
  9  1  1  0
 10  7  2  0
 10  9  1  0
 11  2  1  0
 12 11  1  0
 14  5  1  0
 14 12  1  0
 15  4  1  0
 15 12  1  0
 15 13  1  0
 16  2  2  0
 16  3  1  0
 17  4  1  0
 17  6  1  0
 17 13  1  0
M  END
>  <ID>  (1) 
conformer_0

$$$$
