
     RDKit          3D

 18 20  0  0  0  0  0  0  0  0999 V2000
   24.1862  -22.0999  -14.0712 C   0  0  0  0  0  0  0  0  0  0  0  0
   26.1726  -20.2410   -9.4387 C   0  0  0  0  0  0  0  0  0  0  0  0
   24.7307  -20.0333  -10.6261 C   0  0  0  0  0  0  0  0  0  0  0  0
   22.8677  -24.5602  -12.1890 C   0  0  0  0  0  0  0  0  0  0  0  0
   23.2622  -23.3847  -14.5029 N   0  0  0  0  0  0  0  0  0  0  0  0
   23.3484  -23.2396  -13.6198 C   0  0  0  0  0  0  0  0  0  0  0  0
   25.4527  -20.9523  -10.7557 C   0  0  0  0  0  0  0  0  0  0  0  0
   26.0024  -21.4337   -8.2773 O   0  0  0  0  0  0  0  0  0  0  0  0
   24.0127  -22.0047  -12.6329 N   0  0  0  0  0  0  0  0  0  0  0  0
   25.8197  -21.4843  -11.1797 O   0  0  0  0  0  0  0  0  0  0  0  0
   22.5020  -25.8460  -14.1303 N   0  0  0  0  0  0  0  0  0  0  0  0
   23.6263  -23.3081  -11.6816 C   0  0  0  0  0  0  0  0  0  0  0  0
   25.9005  -22.1857   -8.2663 P   0  0  0  0  0  0  0  0  0  0  0  0
   24.5347  -21.4165  -14.7240 O   0  0  0  0  0  0  0  0  0  0  0  0
   25.5623  -23.2306   -8.5762 O   0  0  0  0  0  0  0  0  0  0  0  0
   23.6089  -20.0886  -11.5487 C   0  0  0  0  0  0  0  0  0  0  0  0
   24.3701  -21.0288  -12.1578 C   0  0  0  0  0  0  0  0  0  0  0  0
   22.8583  -24.7647  -13.8734 C   0  0  0  0  0  0  0  0  0  0  0  0
  6  1  1  0
  6  5  2  0
  7  2  1  0
  7  3  1  0
  8  2  1  0
  9  1  1  0
 10  7  1  0
 12  4  2  0
 12  6  1  0
 12  9  1  0
 13  8  1  0
 14  1  2  0
 15 13  1  0
 16  3  1  0
 17  7  1  0
 17  9  1  0
 17 16  1  0
 18  4  1  0
 18  5  1  0
 18 11  1  0
M  END
>  <ID>  (1) 
conformer_0

$$$$
