
     RDKit          3D

 14 16  0  0  0  0  0  0  0  0999 V2000
   23.5727  -23.3045  -12.0705 C   0  0  0  0  0  0  0  0  0  0  0  0
   24.8502  -19.4571  -10.7621 C   0  0  0  0  0  0  0  0  0  0  0  0
   25.7414  -20.3694  -10.2394 C   0  0  0  0  0  0  0  0  0  0  0  0
   22.6534  -24.4927  -12.7764 C   0  0  0  0  0  0  0  0  0  0  0  0
   24.6077  -21.1352  -11.6860 C   0  0  0  0  0  0  0  0  0  0  0  0
   22.8167  -24.5403  -14.2186 C   0  0  0  0  0  0  0  0  0  0  0  0
   25.3616  -23.0220   -9.1085 O   0  0  0  0  0  0  0  0  0  0  0  0
   22.6570  -25.8517  -14.7574 N   0  0  0  0  0  0  0  0  0  0  0  0
   23.3106  -23.3771  -14.6618 N   0  0  0  0  0  0  0  0  0  0  0  0
   24.0277  -22.1895  -12.3165 N   0  0  0  0  0  0  0  0  0  0  0  0
   25.4980  -21.7290  -10.7816 O   0  0  0  0  0  0  0  0  0  0  0  0
   26.4005  -21.3788   -8.5370 C   0  0  0  0  0  0  0  0  0  0  0  0
   23.4062  -20.3392  -11.4022 C   0  0  0  0  0  0  0  0  0  0  0  0
   23.6134  -22.6570  -13.9703 C   0  0  0  0  0  0  0  0  0  0  0  0
  3  2  1  0
  4  1  1  0
  5  2  1  0
  6  4  2  0
  8  6  1  0
  9  6  1  0
 10  1  1  0
 10  5  1  0
 11  3  1  0
 11  5  1  0
 12  3  1  0
 12  7  1  0
 13  2  1  0
 13  5  1  0
 14  9  2  0
 14 10  1  0
M  END
>  <ID>  (1) 
conformer_0

$$$$
