
     RDKit          3D

 18 20  0  0  0  0  0  0  0  0999 V2000
   26.0137  -20.4965  -10.7939 C   0  0  0  0  0  0  0  0  0  0  0  0
   23.2762  -20.2453  -11.4949 C   0  0  0  0  0  0  0  0  0  0  0  0
   23.5892  -23.1577  -11.8501 C   0  0  0  0  0  0  0  0  0  0  0  0
   22.4538  -24.9876  -12.5208 C   0  0  0  0  0  0  0  0  0  0  0  0
   23.0307  -23.7032  -14.2732 N   0  0  0  0  0  0  0  0  0  0  0  0
   24.6359  -21.0958  -12.0060 C   0  0  0  0  0  0  0  0  0  0  0  0
   25.5867  -23.8292   -8.5014 O   0  0  0  0  0  0  0  0  0  0  0  0
   25.0221  -21.6041  -14.0166 O   0  0  0  0  0  0  0  0  0  0  0  0
   23.9426  -22.2875  -12.4210 N   0  0  0  0  0  0  0  0  0  0  0  0
   25.2063  -22.8088   -9.1297 P   0  0  0  0  0  0  0  0  0  0  0  0
   22.7389  -24.5936  -13.6997 C   0  0  0  0  0  0  0  0  0  0  0  0
   22.6138  -25.7964  -14.3383 N   0  0  0  0  0  0  0  0  0  0  0  0
   25.1619  -22.4216   -9.6284 O   0  0  0  0  0  0  0  0  0  0  0  0
   26.7648  -20.9796   -8.9856 C   0  0  0  0  0  0  0  0  0  0  0  0
   23.7098  -22.7028  -13.8632 C   0  0  0  0  0  0  0  0  0  0  0  0
   25.8442  -21.5241  -11.8026 O   0  0  0  0  0  0  0  0  0  0  0  0
   24.5532  -19.7909  -10.9416 C   0  0  0  0  0  0  0  0  0  0  0  0
   23.0929  -23.9834  -11.5704 C   0  0  0  0  0  0  0  0  0  0  0  0
  6  2  1  0
  9  3  1  0
  9  6  1  0
 10  7  1  0
 11  4  1  0
 11  5  1  0
 12 11  1  0
 13 10  1  0
 14  1  1  0
 14 10  1  0
 15  5  1  0
 15  8  2  0
 15  9  1  0
 16  1  1  0
 16  6  1  0
 17  1  1  0
 17  2  1  0
 17  6  1  0
 18  3  1  0
 18  4  2  0
M  END
>  <ID>  (1) 
conformer_0

$$$$
