
     RDKit          3D

 17 19  0  0  0  0  0  0  0  0999 V2000
   23.8050  -20.4186  -11.3924 C   0  0  0  0  0  0  0  0  0  0  0  0
   23.8520  -22.8767  -13.9813 C   0  0  0  0  0  0  0  0  0  0  0  0
   25.4706  -20.8558  -10.6098 C   0  0  0  0  0  0  0  0  0  0  0  0
   23.4875  -23.8475  -14.7258 N   0  0  0  0  0  0  0  0  0  0  0  0
   24.7751  -21.2802  -12.4105 C   0  0  0  0  0  0  0  0  0  0  0  0
   22.5819  -24.6136  -12.5003 C   0  0  0  0  0  0  0  0  0  0  0  0
   23.6288  -23.4044  -11.8477 C   0  0  0  0  0  0  0  0  0  0  0  0
   25.3907  -23.6216   -8.2013 O   0  0  0  0  0  1  0  0  0  0  0  0
   26.0253  -21.5550  -11.6798 O   0  0  0  0  0  0  0  0  0  0  0  0
   23.6705  -21.3919  -14.7265 O   0  0  0  0  0  0  0  0  0  0  0  0
   24.1527  -22.3526  -12.5014 N   0  0  0  0  0  0  0  0  0  0  0  0
   22.2080  -25.9761  -14.1962 N   0  0  0  0  0  0  0  0  0  0  0  0
   22.9253  -24.5492  -13.9751 C   0  0  0  0  0  0  0  0  0  0  0  0
   25.5249  -22.6855   -8.5296 P   0  0  0  0  0  4  0  0  0  0  0  0
   24.7474  -19.8814  -10.5093 C   0  0  0  0  0  0  0  0  0  0  0  0
   26.4052  -20.7542   -8.9707 C   0  0  0  0  0  0  0  0  0  0  0  0
   25.4647  -22.2821   -9.5707 O   0  0  0  0  0  0  0  0  0  0  0  0
  4  2  1  0
  5  1  1  0
  7  6  1  0
  9  3  1  0
  9  5  1  0
 10  2  2  0
 11  2  1  0
 11  5  1  0
 11  7  1  0
 13  4  2  0
 13  6  1  0
 13 12  1  0
 14  8  1  0
 15  1  1  0
 15  3  1  0
 16  3  1  0
 16 14  1  0
 17  3  1  0
 17 14  1  0
M  RAD  2   8   2  14   2
M  END
>  <ID>  (1) 
conformer_0

$$$$
