
     RDKit          3D

 15 16  0  0  0  0  0  0  0  0999 V2000
   25.2984  -20.6073  -11.3697 C   0  0  0  0  0  0  0  0  0  0  0  0
   23.8904  -22.8090  -14.3267 C   0  0  0  0  0  0  0  0  0  0  0  0
   25.9717  -20.2044   -9.5942 C   0  0  0  0  0  0  0  0  0  0  0  0
   23.8911  -20.4826  -11.0112 C   0  0  0  0  0  0  0  0  0  0  0  0
   25.6969  -21.5538   -8.8568 O   0  0  0  0  0  0  0  0  0  0  0  0
   23.0628  -24.0969  -14.2342 N   0  0  0  0  0  0  0  0  0  0  0  0
   25.5230  -22.4983   -8.7317 P   0  0  0  0  0  0  0  0  0  0  0  0
   25.8893  -21.3100  -11.6755 O   0  0  0  0  0  0  0  0  0  0  0  0
   22.2195  -26.0461  -13.6770 N   0  0  0  0  0  0  0  0  0  0  0  0
   23.9431  -22.1814  -12.9219 N   0  0  0  0  0  0  0  0  0  0  0  0
   22.6773  -24.7388  -13.5852 C   0  0  0  0  0  0  0  0  0  0  0  0
   22.7088  -24.0141  -11.9354 C   0  0  0  0  0  0  0  0  0  0  0  0
   25.9807  -23.4291   -8.1997 O   0  0  0  0  0  0  0  0  0  0  0  0
   24.6226  -21.0364  -12.6812 C   0  0  0  0  0  0  0  0  0  0  0  0
   23.3136  -23.0746  -12.5122 C   0  0  0  0  0  0  0  0  0  0  0  0
  3  1  1  0
  4  1  1  0
  5  3  1  0
  6  2  1  0
  7  5  1  0
  8  1  1  0
 10  2  1  0
 11  6  2  0
 11  9  1  0
 12 11  1  0
 13  7  2  0
 14  1  1  0
 14  4  1  0
 14 10  1  0
 15 10  1  0
 15 12  1  0
M  END
>  <ID>  (1) 
conformer_0

$$$$
