
     RDKit          3D

 16 17  0  0  0  0  0  0  0  0999 V2000
   23.7479  -23.1118  -12.0847 C   0  0  0  0  0  0  0  0  0  0  0  0
   22.7623  -24.3684  -12.3331 C   0  0  0  0  0  0  0  0  0  0  0  0
   25.8729  -20.5289  -10.1091 C   0  0  0  0  0  0  0  0  0  0  0  0
   25.3183  -20.5215  -10.6899 C   0  0  0  0  0  0  0  0  0  0  0  0
   24.6384  -21.2076  -12.0029 C   0  0  0  0  0  0  0  0  0  0  0  0
   22.9764  -24.1675  -14.0497 C   0  0  0  0  0  0  0  0  0  0  0  0
   23.7222  -23.3966  -14.5379 N   0  0  0  0  0  0  0  0  0  0  0  0
   24.2740  -22.1494  -12.5499 N   0  0  0  0  0  0  0  0  0  0  0  0
   25.7841  -23.5911   -7.9558 O   0  0  0  0  0  0  0  0  0  0  0  0
   22.0919  -24.9514  -14.8313 N   0  0  0  0  0  0  0  0  0  0  0  0
   25.2209  -21.4959  -13.9141 O   0  0  0  0  0  0  0  0  0  0  0  0
   25.4275  -23.0279   -8.6807 P   0  0  0  0  0  0  0  0  0  0  0  0
   24.3157  -22.6360  -14.0407 C   0  0  0  0  0  0  0  0  0  0  0  0
   25.1802  -22.1256   -9.1103 O   0  0  0  0  0  0  0  0  0  0  0  0
   26.4717  -21.2475   -8.6034 C   0  0  0  0  0  0  0  0  0  0  0  0
   23.9541  -20.1669  -11.5962 C   0  0  0  0  0  0  0  0  0  0  0  0
  2  1  1  0
  4  3  1  0
  5  4  1  0
  6  2  1  0
  7  6  2  0
  8  1  1  0
  8  5  1  0
 10  6  1  0
 12  9  2  0
 13  7  1  0
 13  8  1  0
 13 11  2  0
 14 12  1  0
 15  3  1  0
 15 14  1  0
 16  4  1  0
 16  5  1  0
M  END
>  <ID>  (1) 
conformer_0

$$$$
