
     RDKit          3D

 18 19  0  0  0  0  0  0  0  0999 V2000
   24.0728  -22.5234  -14.0929 C   0  0  0  0  0  0  0  0  0  0  0  0
   26.2297  -20.6191   -9.5402 C   0  0  0  0  0  0  0  0  0  0  0  0
   22.5956  -24.3524  -12.4575 C   0  0  0  0  0  0  0  0  0  0  0  0
   24.3902  -20.2868  -11.1044 C   0  0  0  0  0  0  0  0  0  0  0  0
   25.4248  -21.1087  -10.8946 C   0  0  0  0  0  0  0  0  0  0  0  0
   25.5366  -22.0102   -9.6138 O   0  0  0  0  0  0  0  0  0  0  0  0
   24.0643  -22.1477  -12.6675 N   0  0  0  0  0  0  0  0  0  0  0  0
   23.4919  -23.1877  -11.9852 C   0  0  0  0  0  0  0  0  0  0  0  0
   25.8519  -21.4551  -11.9194 O   0  0  0  0  0  0  0  0  0  0  0  0
   22.3448  -25.6360  -14.4992 N   0  0  0  0  0  0  0  0  0  0  0  0
   23.3277  -23.5509  -14.3995 N   0  0  0  0  0  0  0  0  0  0  0  0
   25.6833  -22.3799   -8.1504 P   0  0  0  0  0  0  0  0  0  0  0  0
   22.9754  -24.2334  -14.0192 C   0  0  0  0  0  0  0  0  0  0  0  0
   24.5628  -23.6391   -8.4324 O   0  0  0  0  0  0  0  0  0  0  0  0
   26.5240  -23.0836   -7.5093 O   0  0  0  0  0  0  0  0  0  0  0  0
   24.8849  -21.5251  -14.5145 O   0  0  0  0  0  0  0  0  0  0  0  0
   25.0639  -21.4713   -7.5646 O   0  0  0  0  0  0  0  0  0  0  0  0
   24.3373  -21.0666  -12.3674 C   0  0  0  0  0  0  0  0  0  0  0  0
  5  2  1  0
  5  4  1  0
  6  2  1  0
  7  1  1  0
  8  3  1  0
  8  7  1  0
  9  5  1  0
 11  1  1  0
 12  6  1  0
 13  3  1  0
 13 10  1  0
 13 11  1  0
 14 12  1  0
 16  1  2  0
 17 12  1  0
 17 15  1  0
 18  4  1  0
 18  7  1  0
 18  9  1  0
M  END
>  <ID>  (1) 
conformer_0

$$$$
