
     RDKit          3D

 14 14  0  0  0  0  0  0  0  0999 V2000
   25.6519  -20.3304  -10.1763 C   0  0  0  0  0  0  0  0  0  0  0  0
   23.7544  -22.8966  -12.7026 C   0  0  0  0  0  0  0  0  0  0  0  0
   22.7224  -24.4613  -12.3995 C   0  0  0  0  0  0  0  0  0  0  0  0
   24.0658  -20.2009  -11.0693 C   0  0  0  0  0  0  0  0  0  0  0  0
   24.7880  -21.2007  -11.7533 C   0  0  0  0  0  0  0  0  0  0  0  0
   24.2676  -21.7309  -14.4757 O   0  0  0  0  0  0  0  0  0  0  0  0
   25.4973  -23.7394   -9.0257 O   0  0  0  0  0  0  0  0  0  0  0  0
   23.1357  -23.8580  -14.0572 C   0  0  0  0  0  0  0  0  0  0  0  0
   22.3941  -25.5547  -14.6789 N   0  0  0  0  0  0  0  0  0  0  0  0
   25.6997  -21.4088  -12.3816 O   0  0  0  0  0  0  0  0  0  0  0  0
   23.1909  -23.7195  -14.6768 N   0  0  0  0  0  0  0  0  0  0  0  0
   24.1386  -22.2942  -12.4123 N   0  0  0  0  0  0  0  0  0  0  0  0
   26.5384  -20.7276   -8.7740 C   0  0  0  0  0  0  0  0  0  0  0  0
   25.4589  -21.8348   -9.6325 O   0  0  0  0  0  0  0  0  0  0  0  0
  3  2  1  0
  4  1  1  0
  5  4  1  0
  6  2  1  0
  8  2  1  0
  8  3  1  0
  9  8  1  0
 10  5  2  0
 11  8  1  0
 12  2  1  0
 12  5  1  0
 13  1  1  0
 13  7  1  0
 14  1  1  0
M  END
>  <ID>  (1) 
conformer_0

$$$$
