
     RDKit          3D

 16 16  0  0  0  0  0  0  0  0999 V2000
   26.5457  -20.8342   -8.7327 C   0  0  0  0  0  0  0  0  0  0  0  0
   23.6242  -22.6904  -14.1614 C   0  0  0  0  0  0  0  0  0  0  0  0
   22.5636  -23.6274  -11.8482 C   0  0  0  0  0  0  0  0  0  0  0  0
   23.9179  -20.5300  -11.3850 C   0  0  0  0  0  0  0  0  0  0  0  0
   26.0035  -20.4450  -10.1321 C   0  0  1  0  0  0  0  0  0  0  0  0
   23.1864  -23.8659  -14.3474 N   0  0  0  0  0  0  0  0  0  0  0  0
   22.4550  -25.7823  -14.5638 N   0  0  0  0  0  0  0  0  0  0  0  0
   25.4770  -23.7757   -9.3708 O   0  0  0  0  0  0  0  0  0  0  0  0
   22.5640  -24.7895  -13.8464 C   0  0  0  0  0  0  0  0  0  0  0  0
   25.7701  -21.4964  -11.6945 O   0  0  0  0  0  0  0  0  0  0  0  0
   24.1800  -21.8749  -14.6106 O   0  0  0  0  0  0  0  0  0  0  0  0
   23.9009  -22.3394  -12.7728 N   0  0  0  0  0  0  0  0  0  0  0  0
   24.9448  -21.1203  -11.8216 C   0  0  0  0  0  0  0  0  0  0  0  0
   23.2366  -23.0399  -12.3771 C   0  0  0  0  0  0  0  0  0  0  0  0
   25.6588  -21.8977   -9.3176 O   0  0  0  0  0  0  0  0  0  0  0  0
   22.0471  -25.0126  -12.4830 C   0  0  0  0  0  0  0  0  0  0  0  0
  5  1  1  0
  6  2  1  0
  8  1  1  0
  9  6  2  0
  9  7  1  0
 10  5  1  0
 11  2  2  0
 12  2  1  0
 13  4  2  3
 13 10  1  0
 13 12  1  0
 14  3  1  0
 14 12  1  0
  5 15  1  1
 16  3  2  0
 16  9  1  0
M  END
>  <ID>  (1) 
conformer_0

$$$$
