
     RDKit          3D

 31 33  0  0  0  0  0  0  0  0999 V2000
    8.4510   -2.2744    2.7653 C   0  0  0  0  0  0  0  0  0  0  0  0
    2.7573   -0.8486    0.4024 C   0  0  0  0  0  0  0  0  0  0  0  0
    2.7826    2.3522    0.4276 C   0  0  0  0  0  0  0  0  0  0  0  0
    4.3524   -1.7618    1.8037 C   0  0  0  0  0  0  0  0  0  0  0  0
    9.4146   -0.5747    3.0466 C   0  0  0  0  0  0  0  0  0  0  0  0
    2.4933    2.3418   -0.8057 C   0  0  0  0  0  0  0  0  0  0  0  0
    7.9805    2.2775    3.1225 P   0  0  0  0  0  4  0  0  0  0  0  0
    6.3472    2.6105    2.2664 O   0  0  0  0  0  1  0  0  0  0  0  0
   -0.2611    0.9286   -0.1967 O   0  0  0  0  0  0  0  0  0  0  0  0
    4.4404    3.8146    1.9632 O   0  0  0  0  0  0  0  0  0  0  0  0
    7.5699   -0.7099    0.2276 O   0  0  0  0  0  0  0  0  0  0  0  0
    3.1138    1.6165    1.1145 O   0  0  0  0  0  0  0  0  0  0  0  0
    5.2418    2.6261    3.9862 O   0  0  0  0  0  0  0  0  0  0  0  0
    5.9984   -2.1384    2.3175 N   0  0  0  0  0  0  0  0  0  0  0  0
    8.6167    2.5184    2.1012 O   0  0  0  0  0  1  0  0  0  0  0  0
    7.5820   -1.6736    1.8875 C   0  0  0  0  0  0  0  0  0  0  0  0
   11.0899   -2.3762    1.7257 O   0  0  0  0  0  0  0  0  0  0  0  0
    7.8449    2.7332    4.2318 O   0  0  0  0  0  0  0  0  0  0  0  0
    4.0201   -0.2802   -0.0266 C   0  0  0  0  0  0  0  0  0  0  0  0
    0.2685    3.3561   -0.2799 O   0  0  0  0  0  0  0  0  0  0  0  0
    8.5626   -2.7584    0.3677 O   0  0  0  0  0  0  0  0  0  0  0  0
    5.2122    3.0094    2.7495 P   0  0  0  0  0  4  0  0  0  0  0  0
    1.7348    0.5359   -0.0406 C   0  0  0  0  0  0  0  0  0  0  0  0
    0.9253    2.1859    0.1973 C   0  0  0  0  0  0  0  0  0  0  0  0
    8.3420    0.7468    3.0915 O   0  0  0  0  0  0  0  0  0  0  0  0
    5.4844   -2.6704    2.5445 C   0  0  0  0  0  0  0  0  0  0  0  0
    4.2397   -2.5047    2.6849 N   0  0  0  0  0  0  0  0  0  0  0  0
    3.9694   -1.5048    1.2778 N   0  0  0  0  0  0  0  0  0  0  0  0
    9.5119   -1.8498    1.7788 C   0  0  0  0  0  0  0  0  0  0  0  0
    8.2617   -1.3794    3.7140 O   0  0  0  0  0  0  0  0  0  0  0  0
   10.9843   -0.9719    3.1641 O   0  0  0  0  0  0  0  0  0  0  0  0
  6  3  1  0
 10  3  1  0
 12  3  2  0
 15  7  1  0
 16  1  1  0
 16 11  1  0
 16 14  1  0
 18  7  1  0
 19  2  1  0
 22  8  1  0
 22 10  1  0
 22 13  1  0
 23  2  1  0
 24  6  1  0
 24  9  1  0
 24 20  1  0
 24 23  1  0
 25  5  1  0
 25  7  1  0
 26  4  1  0
 26 14  1  0
 27  4  1  0
 27 26  2  0
 28  2  1  0
 28  4  1  0
 28 19  1  0
 29  1  1  0
 29  5  1  0
 29 17  1  0
 29 21  1  0
 30  1  1  0
 30  5  1  0
 31  5  1  0
M  RAD  4   7   2   8   2  15   2  22   2
M  END
>  <ID>  (1) 
conformer_0

$$$$
