
     RDKit          3D

 30 32  0  0  0  0  0  0  0  0999 V2000
    1.2896    2.7454    0.1192 C   0  0  0  0  0  0  0  0  0  0  0  0
    7.9609   -2.0279    2.6025 C   0  0  0  0  0  0  0  0  0  0  0  0
    5.2618   -2.8028    2.6302 C   0  0  0  0  0  0  0  0  0  0  0  0
    2.2112    0.1781   -0.0381 C   0  0  0  0  0  0  0  0  0  0  0  0
    9.5409   -1.4118    1.9996 C   0  0  0  0  0  0  0  0  0  0  0  0
    4.6773    4.3531    1.6777 O   0  0  0  0  0  0  0  0  0  0  0  0
    2.9573    2.7165    0.4709 C   0  0  0  0  0  0  0  0  0  0  0  0
    3.6377   -1.1936    1.0269 N   0  0  0  0  0  0  0  0  0  0  0  0
    0.3391    3.6579   -0.2540 O   0  0  0  0  0  0  0  0  0  0  0  0
    6.0657   -2.0794    2.1270 N   0  0  0  0  0  0  0  0  0  0  0  0
    7.8209    2.3354    3.3206 P   0  0  0  0  0  0  0  0  0  0  0  0
    4.9755    3.3365    3.7682 O   0  0  0  0  0  0  0  0  0  0  0  0
    3.1766   -1.9896    1.7299 C   0  0  0  0  0  0  0  0  0  0  0  0
    7.5406    2.7620    4.3640 O   0  0  0  0  0  0  0  0  0  0  0  0
   -0.2902    0.9087   -0.2691 O   0  0  0  0  0  0  0  0  0  0  0  0
    8.4492    0.6737    3.0082 O   0  0  0  0  0  0  0  0  0  0  0  0
    9.2583   -0.3835    3.3886 C   0  0  0  0  0  0  0  0  0  0  0  0
    8.0558   -1.8794    3.5317 O   0  0  0  0  0  0  0  0  0  0  0  0
    8.1217   -0.8574   -0.1868 O   0  0  0  0  0  0  0  0  0  0  0  0
    3.8075   -2.9004    2.5597 N   0  0  0  0  0  0  0  0  0  0  0  0
   10.8647   -2.1276    1.5967 O   0  0  0  0  0  0  0  0  0  0  0  0
    6.4438    2.5360    2.1488 O   0  0  0  0  0  1  0  0  0  0  0  0
    5.2235    3.3549    2.6435 P   0  0  0  0  0  4  0  0  0  0  0  0
    2.8207    1.4243    0.9790 O   0  0  0  0  0  0  0  0  0  0  0  0
    3.5882   -0.2679   -0.0502 C   0  0  0  0  0  0  0  0  0  0  0  0
    8.9086    2.7190    2.5753 O   0  0  0  0  0  0  0  0  0  0  0  0
    4.9757   -1.5432    1.4979 C   0  0  0  0  0  0  0  0  0  0  0  0
    8.3410   -1.6090    1.1620 C   0  0  0  0  0  0  0  0  0  0  0  0
    9.2819   -2.6561    0.0348 O   0  0  0  0  0  0  0  0  0  0  0  0
    1.0618    1.5727   -0.1542 C   0  0  0  0  0  0  0  0  0  0  0  0
  5  2  1  0
  7  1  1  0
  7  6  1  0
  9  1  1  0
 10  2  1  0
 10  3  1  0
 13  8  1  0
 14 11  1  0
 16 11  1  0
 17  5  1  0
 17 16  1  0
 18  2  1  0
 20  3  1  0
 20 13  2  0
 21  5  1  0
 23  6  1  0
 23 12  1  0
 23 22  1  0
 24  4  1  0
 24  7  1  0
 25  4  1  0
 25  8  1  0
 26 11  1  0
 27  8  1  0
 27 10  1  0
 28  2  1  0
 28  5  1  0
 28 19  1  0
 29 28  1  0
 30  1  1  0
 30  4  1  0
 30 15  1  0
M  RAD  2  22   2  23   2
M  END
>  <ID>  (1) 
conformer_0

$$$$
