
     RDKit          3D

 27 28  0  0  0  0  0  0  0  0999 V2000
    5.3401   -2.9237    2.5626 C   0  0  0  0  0  0  0  0  0  0  0  0
    9.8042   -1.2395    2.0543 C   0  0  0  0  0  0  0  0  0  0  0  0
    3.4070   -0.3295    0.0022 C   0  0  0  0  0  0  0  0  0  0  0  0
    2.3741    1.7194   -0.6673 C   0  0  0  0  0  0  0  0  0  0  0  0
    8.4694   -2.2490    2.6481 C   0  0  0  0  0  0  0  0  0  0  0  0
    1.9983   -0.0100    0.2724 C   0  0  0  0  0  0  0  0  0  0  0  0
    3.1299    3.1246    0.8145 C   0  0  0  0  0  0  0  0  0  0  0  0
    6.3681   -2.1699    1.9876 N   0  0  0  0  0  0  0  0  0  0  0  0
    8.8614    0.3028    3.2164 O   0  0  0  0  0  0  0  0  0  0  0  0
    4.8541    3.0183    3.8417 O   0  0  0  0  0  0  0  0  0  0  0  0
    6.3789    2.3518    2.1706 O   0  0  0  0  0  0  0  0  0  0  0  0
    5.4180    3.0493    2.8367 P   0  0  0  0  0  0  0  0  0  0  0  0
    7.4028    2.7712    4.2165 O   0  0  0  0  0  0  0  0  0  0  0  0
   -0.4485    1.2103   -0.2655 O   0  0  0  0  0  0  0  0  0  0  0  0
   11.0409   -1.9554    1.4556 O   0  0  0  0  0  0  0  0  0  0  0  0
    3.6288   -1.2517    0.9816 N   0  0  0  0  0  0  0  0  0  0  0  0
    4.2951   -2.9601    2.6071 N   0  0  0  0  0  0  0  0  0  0  0  0
    3.7133   -2.1012    1.7999 C   0  0  0  0  0  0  0  0  0  0  0  0
    4.7491    4.2397    1.7186 O   0  0  0  0  0  0  0  0  0  0  0  0
    8.8140   -1.5460    0.1546 O   0  0  0  0  0  0  0  0  0  0  0  0
    9.5196   -0.4532    3.3022 C   0  0  0  0  0  0  0  0  0  0  0  0
    5.4830   -1.5200    1.2734 C   0  0  0  0  0  0  0  0  0  0  0  0
    7.9747    2.1105    3.2142 P   0  0  0  0  0  0  0  0  0  0  0  0
    0.9761    1.9427    0.0077 C   0  0  0  0  0  0  0  0  0  0  0  0
    8.7307    2.2721    2.5962 O   0  0  0  0  0  0  0  0  0  0  0  0
    2.0187    3.1208   -0.1683 C   0  0  0  0  0  0  0  0  0  0  0  0
    8.1512   -1.8183    1.5121 C   0  0  0  0  0  0  0  0  0  0  0  0
  5  2  1  0
  6  3  1  0
  6  4  1  0
  8  1  1  0
 12 10  1  0
 12 11  1  0
 15  2  1  0
 16  3  1  0
 17  1  1  0
 18 16  1  0
 18 17  2  0
 19  7  1  0
 19 12  1  0
 21  2  1  0
 21  9  2  0
 22  8  1  0
 22 18  1  0
 23 11  1  0
 23 13  1  0
 24  4  1  0
 24 14  1  0
 25 23  1  0
 26  4  1  0
 26  7  1  0
 26 24  1  0
 27  5  1  0
 27  8  1  0
 27 20  1  0
M  END
>  <ID>  (1) 
conformer_0

$$$$
