
     RDKit          3D

 31 33  0  0  0  0  0  0  0  0999 V2000
    1.1395    1.8113   -0.0923 C   0  0  0  0  0  0  0  0  0  0  0  0
    9.5375   -2.1389    1.9473 C   0  0  0  0  0  0  0  0  0  0  0  0
    3.6115   -2.3460    2.1033 C   0  0  0  0  0  0  0  0  0  0  0  0
    9.8702   -0.5751    2.1528 C   0  0  0  0  0  0  0  0  0  0  0  0
    1.7340    1.2263   -1.4009 C   0  0  2  0  0  0  0  0  0  0  0  0
    2.2865    0.2303    0.0524 C   0  0  0  0  0  0  0  0  0  0  0  0
    6.1866   -2.3126    2.2823 N   0  0  0  0  0  0  0  0  0  0  0  0
    0.5718    3.4037    0.1092 O   0  0  0  0  0  0  0  0  0  0  0  0
    8.6177    0.6572    2.8606 O   0  0  0  0  0  0  0  0  0  0  0  0
    5.1274    3.5407    4.0390 O   0  0  0  0  0  0  0  0  0  0  0  0
    6.7596    2.6444    2.3048 O   0  0  0  0  0  0  0  0  0  0  0  0
    5.4165    3.3520    3.0075 P   0  0  0  0  0  0  0  0  0  0  0  0
    3.1747    2.4381    0.8796 C   0  0  1  0  0  0  0  0  0  0  0  0
    9.0914   -2.8514    0.3537 O   0  0  0  0  0  0  0  0  0  0  0  0
   -0.2918    0.9252   -0.3183 O   0  0  0  0  0  0  0  0  0  0  0  0
    9.3667   -0.3398    3.4686 C   0  0  1  0  0  0  0  0  0  0  0  0
    7.4517    3.1706    4.2447 O   0  0  0  0  0  0  0  0  0  0  0  0
    8.4103   -1.8661    3.5816 O   0  0  0  0  0  0  0  0  0  0  0  0
    4.0323   -1.4605    1.3667 N   0  0  0  0  0  0  0  0  0  0  0  0
    3.8038   -2.8832    2.6153 N   0  0  0  0  0  0  0  0  0  0  0  0
    5.3845   -3.1273    2.6854 C   0  0  0  0  0  0  0  0  0  0  0  0
   11.0501   -2.0821    1.4181 O   0  0  0  0  0  0  0  0  0  0  0  0
    4.9471    4.7116    1.9718 O   0  0  0  0  0  0  0  0  0  0  0  0
    3.3291   -0.4447    0.3290 C   0  0  0  0  0  0  0  0  0  0  0  0
    8.8688    2.9230    2.7563 O   0  0  0  0  0  1  0  0  0  0  0  0
    7.9245    2.6743    3.1674 P   0  0  2  0  0  4  0  0  0  0  0  0
    5.3088   -1.4578    1.5743 C   0  0  0  0  0  0  0  0  0  0  0  0
    2.3034    2.4631   -0.3780 C   0  0  2  0  0  0  0  0  0  0  0  0
    4.3448    2.5494    1.8853 O   0  0  0  0  0  0  0  0  0  0  0  0
    7.7461   -2.2782    2.7812 C   0  0  2  0  0  0  0  0  0  0  0  0
    8.1028   -1.5174    1.3402 C   0  0  0  0  0  0  0  0  0  0  0  0
  4  2  1  0
  5  1  1  1
  6  5  1  0
  8  1  1  0
 12 10  1  0
 12 11  1  0
 14  2  1  0
 15  1  1  0
 16  4  1  0
 16  9  1  6
 18 16  1  0
 19  3  1  0
 20  3  1  0
 21  7  1  0
 21 20  2  0
 22  2  1  0
 13 23  1  1
 24  6  2  3
 24 19  1  0
 26 11  1  0
 26 17  1  1
 26 25  1  0
 27  7  1  0
 27 19  1  0
 28  1  1  1
 28  5  1  0
 28 13  1  0
 29 12  1  0
 29 13  1  0
 30  7  1  1
 30 18  1  0
 31  2  1  0
 31 30  1  0
M  RAD  2  25   2  26   2
M  END
>  <ID>  (1) 
conformer_0

$$$$
