
     RDKit          3D

 30 31  0  0  0  0  0  0  0  0999 V2000
    9.6189   -0.1521    3.2214 C   0  0  0  0  0  0  0  0  0  0  0  0
    3.9001   -0.2367    0.2310 C   0  0  0  0  0  0  0  0  0  0  0  0
    3.3002   -2.4906    2.0400 C   0  0  0  0  0  0  0  0  0  0  0  0
    9.6083   -1.6293    3.1506 C   0  0  0  0  0  0  0  0  0  0  0  0
    2.6829   -0.1868   -0.1781 C   0  0  0  0  0  0  0  0  0  0  0  0
    2.1601    1.9673   -0.8282 C   0  0  0  0  0  0  0  0  0  0  0  0
    5.7197   -2.1448    2.0454 N   0  0  0  0  0  0  0  0  0  0  0  0
    8.1584    3.0404    3.8309 O   0  0  0  0  0  0  0  0  0  0  0  0
    5.5733    3.3233    2.8623 P   0  0  0  0  0  4  0  0  0  0  0  0
    6.7798    2.5607    2.1502 O   0  0  0  0  0  0  0  0  0  0  0  0
    8.6417    1.2702    2.4510 O   0  0  0  0  0  0  0  0  0  0  0  0
   -0.3323    1.0088   -0.2192 O   0  0  0  0  0  0  0  0  0  0  0  0
    5.0649    4.3653    2.0054 O   0  0  0  0  0  1  0  0  0  0  0  0
    7.9048   -2.3648    2.1352 C   0  0  0  0  0  0  0  0  0  0  0  0
    5.3602    3.2193    3.9850 O   0  0  0  0  0  0  0  0  0  0  0  0
    0.3395    3.4952    0.1909 O   0  0  0  0  0  0  0  0  0  0  0  0
    5.2581   -3.1648    2.8107 C   0  0  0  0  0  0  0  0  0  0  0  0
    4.1418   -3.1618    2.7072 N   0  0  0  0  0  0  0  0  0  0  0  0
   10.9919   -2.2702    1.7861 O   0  0  0  0  0  0  0  0  0  0  0  0
    0.4828    2.4522   -0.1231 C   0  0  0  0  0  0  0  0  0  0  0  0
    9.1398   -2.4830    0.1916 O   0  0  0  0  0  0  0  0  0  0  0  0
    1.6597    1.2184    0.1239 C   0  0  0  0  0  0  0  0  0  0  0  0
    3.7847   -1.2142    1.1564 N   0  0  0  0  0  0  0  0  0  0  0  0
    8.3066   -0.7927    3.1553 O   0  0  0  0  0  0  0  0  0  0  0  0
    7.1849   -0.9555    0.1064 O   0  0  0  0  0  0  0  0  0  0  0  0
    7.9419    2.3439    3.0221 P   0  0  0  0  0  0  0  0  0  0  0  0
    4.8864   -1.6517    1.6197 C   0  0  0  0  0  0  0  0  0  0  0  0
    9.3311   -1.5191    1.4157 C   0  0  0  0  0  0  0  0  0  0  0  0
    7.3760   -1.2272    1.3003 C   0  0  0  0  0  0  0  0  0  0  0  0
    3.1095    2.6127    0.8148 C   0  0  0  0  0  0  0  0  0  0  0  0
  4  1  1  0
  5  2  1  0
 10  9  1  0
 11  1  1  0
 13  9  1  0
 15  9  1  0
 17  7  1  0
 18  3  1  0
 18 17  2  0
 20 12  1  0
 20 16  1  0
 22  5  1  0
 22  6  1  0
 22 20  1  0
 23  2  1  0
 23  3  1  0
 24  1  1  0
 24  4  1  0
 26  8  1  0
 26 10  1  0
 26 11  1  0
 27  7  1  0
 27 23  1  0
 28  4  1  0
 28 14  1  0
 28 19  1  0
 28 21  1  0
 29  7  1  0
 29 14  1  0
 29 25  1  0
 30  6  1  0
M  RAD  2   9   2  13   2
M  END
>  <ID>  (1) 
conformer_0

$$$$
