
     RDKit          3D

 27 28  0  0  0  0  0  0  0  0999 V2000
    9.5864   -1.2335    2.2473 C   0  0  2  0  0  0  0  0  0  0  0  0
    2.0637    0.5000    0.0565 C   0  0  2  0  0  0  0  0  0  0  0  0
    4.6146   -2.1382    1.8045 C   0  0  0  0  0  0  0  0  0  0  0  0
    3.4009   -0.5245    0.4780 C   0  0  0  0  0  0  0  0  0  0  0  0
    8.6329   -2.2976    2.1116 C   0  0  1  0  0  0  0  0  0  0  0  0
    2.9169    2.7572    0.9456 C   0  0  1  0  0  0  0  0  0  0  0  0
    2.1730    1.9817   -0.7529 C   0  0  2  0  0  0  0  0  0  0  0  0
    0.4477    3.4995   -0.0850 O   0  0  0  0  0  0  0  0  0  0  0  0
    6.1571   -2.2377    2.2316 N   0  0  0  0  0  0  0  0  0  0  0  0
    8.5635   -1.2342    3.5772 O   0  0  0  0  0  0  0  0  0  0  0  0
    4.6010    3.2857    3.8548 O   0  0  0  0  0  0  0  0  0  0  0  0
   -0.2213    0.7854   -0.1340 O   0  0  0  0  0  0  0  0  0  0  0  0
    9.4187    0.3561    2.7317 C   0  0  0  0  0  0  0  0  0  0  0  0
    8.4049    0.8920    2.6812 O   0  0  0  0  0  0  0  0  0  0  0  0
    6.3294    2.6718    2.8559 P   0  0  0  0  0  5  0  0  0  0  0  0
   10.2012   -2.1237    0.7323 O   0  0  0  0  0  0  0  0  0  0  0  0
    6.4523    2.1013    1.9685 O   0  0  0  0  0  0  0  0  0  0  0  0
    5.7434   -2.8254    2.6911 C   0  0  0  0  0  0  0  0  0  0  0  0
    3.5107    1.9045    1.4123 O   0  0  0  0  0  0  0  0  0  0  0  0
    8.0282   -1.1498   -0.0236 O   0  0  0  0  0  0  0  0  0  0  0  0
    3.8397   -2.7261    2.2346 N   0  0  0  0  0  0  0  0  0  0  0  0
    1.1498    2.0871    0.2246 C   0  0  0  0  0  0  0  0  0  0  0  0
    4.0510   -1.3419    1.2631 N   0  0  0  0  0  0  0  0  0  0  0  0
    7.5581   -1.4275    1.5322 C   0  0  2  0  0  0  0  0  0  0  0  0
    6.1966    2.0529    3.9614 O   0  0  0  0  0  0  0  0  0  0  0  0
    5.2569    3.9063    2.0928 O   0  0  0  0  0  0  0  0  0  0  0  0
    8.1488    3.1813    2.7152 O   0  0  0  0  0  0  0  0  0  0  0  0
  2  4  1  1
  5  1  1  0
  7  2  1  0
  7  6  1  0
 10  1  1  0
  5 10  1  1
 13  1  1  0
 14 13  2  0
 15 11  1  0
  1 16  1  1
 17 15  1  0
 18  3  1  0
 18  9  1  0
  6 19  1  1
 21  3  2  3
 22  2  1  0
  7 22  1  1
 22  8  1  0
 22 12  1  0
 23  3  1  0
 23  4  1  0
 24  5  1  0
 24  9  1  0
 24 20  1  6
 25 15  1  0
 26  6  1  0
 26 15  1  0
 27 17  1  0
M  END
>  <ID>  (1) 
conformer_0

$$$$
