
     RDKit          3D

 25 29  0  0  0  0  0  0  0  0999 V2000
    8.2385   -1.9499    1.9008 C   0  0  0  0  0  0  0  0  0  0  0  0
    5.4058   -2.0823    2.1398 C   0  0  0  0  0  3  0  0  0  0  0  0
    0.8094    2.0992    0.1632 C   0  0  0  0  0  0  0  0  0  0  0  0
    8.9447   -1.5089    2.3500 C   0  0  0  0  0  0  0  0  0  0  0  0
    2.1985    2.9294   -0.2383 C   0  0  0  0  0  0  0  0  0  0  0  0
    2.7395   -0.2785    0.2424 C   0  0  0  0  0  0  0  0  0  0  0  0
    4.9440    3.3435    3.9850 O   0  0  0  0  0  0  0  0  0  0  0  0
    9.3578   -0.3309    3.1393 C   0  0  0  0  0  0  0  0  0  0  0  0
    6.2011    2.7203    2.9934 P   0  0  0  0  0  5  0  0  0  0  0  0
    0.0406    3.5090   -0.3338 O   0  0  0  0  0  0  0  0  0  0  0  0
    7.6241    1.6815    2.3679 O   0  0  0  0  0  0  0  0  0  0  0  0
    6.2298   -1.9745    2.1030 N   0  0  0  0  0  0  0  0  0  0  0  0
    3.6194   -0.9736    1.1002 N   0  0  0  0  0  0  0  0  0  0  0  0
    7.3484    2.6865    4.1624 O   0  0  0  0  0  0  0  0  0  0  0  0
   10.2099    0.4895    4.2526 O   0  0  0  0  0  0  0  0  0  0  0  0
   10.0959   -2.5536    1.0800 O   0  0  0  0  0  0  0  0  0  0  0  0
    4.0727   -1.8106    1.6311 C   0  0  0  0  0  0  0  0  0  0  0  0
    8.3142   -1.2602   -0.0306 O   0  0  0  0  0  0  0  0  0  0  0  0
    4.2642   -2.5851    2.5574 N   0  0  0  0  0  0  0  0  0  0  0  0
   -0.4631    1.0276   -0.1260 O   0  0  0  0  0  0  0  0  0  0  0  0
    5.9395    3.2875    2.1328 O   0  0  0  0  0  0  0  0  0  0  0  0
    8.2936   -1.5461    3.7037 O   0  0  0  0  0  0  0  0  0  0  0  0
    2.1693    1.1672   -0.8963 C   0  0  0  0  0  0  0  0  0  0  0  0
    3.7935    2.0450    1.6290 O   0  0  0  0  0  0  0  0  0  0  0  0
    2.6394    1.6209    0.4700 C   0  0  0  0  0  0  0  0  0  0  0  0
  4  1  1  0
  5  3  1  0
  8  4  1  0
  9  7  1  0
 10  3  1  0
 12  1  1  0
 12  2  1  0
 13  6  1  0
 14  9  1  0
 15  8  1  0
 16  4  1  0
 17  2  1  0
 17 13  1  0
 18  1  1  0
 19  2  1  0
 19 17  2  0
 20  3  1  0
 21  9  1  0
 21 11  1  0
 22  4  1  0
 22  8  1  0
 23  3  1  0
 23  5  1  0
 23  6  1  0
 24  9  1  0
 25  5  1  0
 25  6  1  0
 25 23  1  0
 25 24  1  0
M  RAD  1   2   2
M  END
>  <ID>  (1) 
conformer_0

$$$$
