
     RDKit          3D

 27 29  0  0  0  0  0  0  0  0999 V2000
    7.7160   -1.8487    1.9957 C   0  0  0  0  0  0  0  0  0  0  0  0
    0.9169    2.2469    0.0477 C   0  0  0  0  0  0  0  0  0  0  0  0
    5.4374   -2.2478    2.1476 C   0  0  0  0  0  0  0  0  0  0  0  0
    3.3108   -0.3979    0.3248 C   0  0  0  0  0  0  0  0  0  0  0  0
    9.6227   -1.2495    2.7873 C   0  0  0  0  0  0  0  0  0  0  0  0
    2.3753    1.8583   -0.8079 C   0  0  0  0  0  0  0  0  0  0  0  0
    4.9307    2.8603    3.9332 O   0  0  0  0  0  0  0  0  0  0  0  0
    0.1641    3.6737   -0.2417 O   0  0  0  0  0  0  0  0  0  0  0  0
    3.6274   -1.3387    1.1266 N   0  0  0  0  0  0  0  0  0  0  0  0
    7.3745    2.7745    4.2768 O   0  0  0  0  0  0  0  0  0  0  0  0
    2.7099    1.3785    1.3472 O   0  0  0  0  0  0  0  0  0  0  0  0
    6.4194    2.5699    3.0755 P   0  0  0  0  0  5  0  0  0  0  0  0
    8.0977   -1.9950    3.4616 O   0  0  0  0  0  0  0  0  0  0  0  0
    8.0214    0.4631    3.2221 O   0  0  0  0  0  0  0  0  0  0  0  0
    9.0446   -0.1707    3.1890 C   0  0  0  0  0  0  0  0  0  0  0  0
    8.7343   -1.5446   -0.1134 O   0  0  0  0  0  0  0  0  0  0  0  0
    6.3014    2.1602    2.2521 O   0  0  0  0  0  0  0  0  0  0  0  0
    2.7346    2.3514    0.7000 C   0  0  0  0  0  0  0  0  0  0  0  0
   10.8435   -1.6609    1.2969 O   0  0  0  0  0  0  0  0  0  0  0  0
    3.9621   -2.0244    1.6283 C   0  0  0  0  0  3  0  0  0  0  0  0
    4.4209   -2.6637    2.5971 N   0  0  0  0  0  0  0  0  0  0  0  0
    5.8322   -1.9351    1.9206 N   0  0  0  0  0  0  0  0  0  0  0  0
    1.9105    0.1565    0.1876 C   0  0  0  0  0  0  0  0  0  0  0  0
   -0.2771    1.4104   -0.5093 O   0  0  0  0  0  0  0  0  0  0  0  0
    4.7890    3.8156    1.8222 O   0  0  0  0  0  0  0  0  0  0  0  0
    8.4261    2.4451    2.1941 O   0  0  0  0  0  0  0  0  0  0  0  0
    8.8061   -1.7707    1.3726 C   0  0  0  0  0  0  0  0  0  0  0  0
  6  2  1  0
  8  2  1  0
  9  4  1  0
 12  7  1  0
 12 10  1  0
 13  1  1  0
 13  5  1  0
 15  5  1  0
 15 14  2  0
 17 12  1  0
 18  2  1  0
 18  6  1  0
 18 11  1  0
 19  5  1  0
 20  3  1  0
 20  9  1  0
 21  3  2  0
 21 20  1  0
 22  1  1  0
 22  3  1  0
 23  4  1  0
 23 11  1  0
 24  2  1  0
 25 12  1  0
 25 18  1  0
 26 17  1  0
 27  1  1  0
 27  5  1  0
 27 16  1  0
M  RAD  1  20   2
M  END
>  <ID>  (1) 
conformer_0

$$$$
