
     RDKit          3D

 26 26  0  0  0  0  0  0  0  0999 V2000
    9.1608   -1.8447    1.7913 C   0  0  0  0  0  0  0  0  0  0  0  0
    2.5126   -0.2409    0.3229 C   0  0  0  0  0  0  0  0  0  0  0  0
    5.6891   -2.4353    2.3342 C   0  0  0  0  0  0  0  0  0  0  0  0
    1.8605    2.1481   -0.5653 C   0  0  0  0  0  0  0  0  0  0  0  0
    0.7278    1.4050   -0.0649 C   0  0  0  0  0  0  0  0  0  0  0  0
    8.2470   -2.3312    1.9788 C   0  0  0  0  0  0  0  0  0  0  0  0
    6.4229    2.7228    2.3078 O   0  0  0  0  0  0  0  0  0  0  0  0
    7.6255    2.3627    3.2052 P   0  0  0  0  0  4  0  0  0  0  0  0
    4.6254    4.3207    1.5608 O   0  0  0  0  0  0  0  0  0  0  0  0
    4.8328    3.6113    3.7977 O   0  0  0  0  0  0  0  0  0  0  0  0
    6.6409   -2.3238    2.3257 N   0  0  0  0  0  0  0  0  0  0  0  0
    7.1972    2.5449    4.4020 O   0  0  0  0  0  0  0  0  0  0  0  0
    8.4594    0.1114    3.0707 O   0  0  0  0  0  0  0  0  0  0  0  0
   -0.3436    1.1098   -0.4414 O   0  0  0  0  0  0  0  0  0  0  0  0
    8.5847   -2.2441    0.0585 O   0  0  0  0  0  0  0  0  0  0  0  0
    4.1467   -1.5161    1.3915 N   0  0  0  0  0  0  0  0  0  0  0  0
    1.3619   -1.1001    0.3225 O   0  0  0  0  0  0  0  0  0  0  0  0
    4.9612   -3.2121    2.7738 N   0  0  0  0  0  0  0  0  0  0  0  0
    9.2524   -0.6586    2.6197 C   0  0  0  0  0  0  0  0  0  0  0  0
    4.2507   -2.3223    1.9757 C   0  0  0  0  0  3  0  0  0  0  0  0
   10.6759   -2.4887    1.2820 O   0  0  0  0  0  0  0  0  0  0  0  0
    3.7791   -0.3028    0.1500 C   0  0  0  0  0  0  0  0  0  0  0  0
    8.5304    2.6333    2.6788 O   0  0  0  0  0  1  0  0  0  0  0  0
    5.4395   -0.3803    0.0845 O   0  0  0  0  0  0  0  0  0  0  0  0
    2.4323    2.3668    0.4451 C   0  0  0  0  0  0  0  0  0  0  0  0
    5.2026    3.5938    2.7334 P   0  0  0  0  0  0  0  0  0  0  0  0
  5  2  1  0
  5  4  1  0
  6  1  1  0
  8  7  1  0
 11  3  1  0
 11  6  1  0
 12  8  1  0
 14  5  1  0
 15  1  1  0
 17  2  1  0
 18  3  2  0
 19  1  1  0
 19 13  2  0
 20  3  1  0
 20 16  1  0
 20 18  1  0
 21  1  1  0
 22  2  1  0
 22 16  1  0
 23  8  1  0
 24 22  1  0
 25  4  1  0
 25  9  1  0
 26  7  1  0
 26  9  1  0
 26 10  1  0
M  RAD  3   8   2  20   2  23   2
M  END
>  <ID>  (1) 
conformer_0

$$$$
