
     RDKit          3D

 32 36  0  0  0  0  0  0  0  0999 V2000
    9.5178   -1.8639    1.6460 C   0  0  0  0  0  0  0  0  0  0  0  0
    5.3403   -2.9105    2.5865 C   0  0  0  0  0  0  0  0  0  0  0  0
    0.6509    2.2640   -0.1275 C   0  0  0  0  0  0  0  0  0  0  0  0
    9.5081   -1.1461    3.0181 C   0  0  0  0  0  0  0  0  0  0  0  0
    2.2612    1.4833   -0.9039 C   0  0  0  0  0  0  0  0  0  0  0  0
    3.1570   -0.3926    0.2329 C   0  0  0  0  0  0  0  0  0  0  0  0
    6.3086   -2.0947    1.9500 N   0  0  0  0  0  0  0  0  0  0  0  0
    9.5582    0.2739    3.6116 C   0  0  0  0  0  0  0  0  0  0  0  0
    5.0661    3.7066    3.8907 O   0  0  0  0  0  0  0  0  0  0  0  0
    3.3000   -2.3085    1.9823 C   0  0  0  0  0  0  0  0  0  0  0  0
    7.6173    3.1332    4.0088 O   0  0  0  0  0  0  0  0  0  0  0  0
    4.1429   -3.1935    2.6963 N   0  0  0  0  0  0  0  0  0  0  0  0
    8.4028    0.7437    3.1234 O   0  0  0  0  0  0  0  0  0  0  0  0
    8.3347   -1.4923    3.3704 O   0  0  0  0  0  0  0  0  0  0  0  0
    4.8422    4.5908    1.6607 O   0  0  0  0  0  0  0  0  0  0  0  0
    7.7400    2.4243    3.1296 P   0  0  0  0  0  0  0  0  0  0  0  0
    2.9239    2.7499    0.8456 C   0  0  0  0  0  0  0  0  0  0  0  0
   -0.3741    0.7610   -0.3409 O   0  0  0  0  0  0  0  0  0  0  0  0
   10.4596   -3.1207    1.3506 O   0  0  0  0  0  0  0  0  0  0  0  0
    3.5588   -1.1996    1.0967 N   0  0  0  0  0  0  0  0  0  0  0  0
    6.3091    2.3021    2.2314 O   0  0  0  0  0  0  0  0  0  0  0  0
    2.2219   -2.0512    1.5922 N   0  0  0  0  0  0  0  0  0  0  0  0
    4.8256   -1.5962    1.4891 C   0  0  0  0  0  0  0  0  0  0  0  0
    9.0416   -1.9113    0.1118 O   0  0  0  0  0  0  0  0  0  0  0  0
    5.1614    3.3558    2.7139 P   0  0  0  0  0  0  0  0  0  0  0  0
    8.3938   -2.6387    1.9999 C   0  0  0  0  0  0  0  0  0  0  0  0
    3.8062    2.5930    1.7358 O   0  0  0  0  0  0  0  0  0  0  0  0
   -0.2638    2.9498   -0.7075 O   0  0  0  0  0  0  0  0  0  0  0  0
    8.6814    2.5944    2.0922 O   0  0  0  0  0  0  0  0  0  0  0  0
    1.8513    0.5754   -0.0423 C   0  0  0  0  0  0  0  0  0  0  0  0
    2.0763    2.9697   -0.2862 C   0  0  0  0  0  0  0  0  0  0  0  0
    7.3315   -1.2616    1.2403 C   0  0  0  0  0  0  0  0  0  0  0  0
  4  1  1  0
  5  3  1  0
  7  2  1  0
  8  4  1  0
 12  2  2  0
 12 10  1  0
 13  8  1  0
 14  4  1  0
 16 11  1  0
 18  3  1  0
 19  1  1  0
 20  6  1  0
 20 10  1  0
 21 16  1  0
 22 10  1  0
 23  2  1  0
 23  7  1  0
 23 10  1  0
 23 20  1  0
 24  1  1  0
 25  9  1  0
 25 15  1  0
 25 21  1  0
 26  1  1  0
 26 14  1  0
 27 17  1  0
 28  3  1  0
 29  8  1  0
 29 16  1  0
 30  5  1  0
 30  6  1  0
 31  3  1  0
 31  5  1  0
 31 17  1  0
 32  7  1  0
 32 26  1  0
M  END
>  <ID>  (1) 
conformer_0

$$$$
