
     RDKit          3D

 28 28  0  0  0  0  0  0  0  0999 V2000
    1.0346    2.2088    0.1805 C   0  0  0  0  0  0  0  0  0  0  0  0
    8.1028   -2.1384    2.0457 C   0  0  0  0  0  0  0  0  0  0  0  0
    3.5883   -2.0059    1.7325 C   0  0  0  0  0  0  0  0  0  0  0  0
    8.9312   -1.8119    2.2354 C   0  0  0  0  0  0  0  0  0  0  0  0
    3.2322   -0.0544    0.1614 C   0  0  0  0  0  0  0  0  0  0  0  0
    1.8735    1.0658    0.1509 C   0  0  0  0  0  0  0  0  0  0  0  0
    0.5867    3.6052   -0.1255 O   0  0  0  0  0  0  0  0  0  0  0  0
    8.0961    2.2189    2.9769 P   0  0  0  0  0  0  0  0  0  0  0  0
    6.2097   -2.2370    2.1679 N   0  0  0  0  0  0  0  0  0  0  0  0
    8.5999    0.4412    2.8295 O   0  0  0  0  0  0  0  0  0  0  0  0
    5.3101   -3.1072    2.6662 C   0  0  0  0  0  0  0  0  0  0  0  0
    3.0099    1.5707    1.2509 O   0  0  0  0  0  0  0  0  0  0  0  0
    3.8227   -1.0498    1.0350 N   0  0  0  0  0  0  0  0  0  0  0  0
    6.5689    2.4577    2.0963 O   0  0  0  0  0  0  0  0  0  0  0  0
    4.9523    3.1029    3.8805 O   0  0  0  0  0  0  0  0  0  0  0  0
    9.6040   -0.6454    2.9630 C   0  0  0  0  0  0  0  0  0  0  0  0
    8.5264   -1.9503    0.0117 O   0  0  0  0  0  0  0  0  0  0  0  0
   -0.5292    1.3288   -0.2566 O   0  0  0  0  0  0  0  0  0  0  0  0
    5.1090    4.2352    2.1049 O   0  0  0  0  0  0  0  0  0  0  0  0
    4.1546   -2.9705    2.5225 N   0  0  0  0  0  0  0  0  0  0  0  0
   10.4949   -2.2111    1.1527 O   0  0  0  0  0  0  0  0  0  0  0  0
    7.2157    2.4672    4.1113 O   0  0  0  0  0  0  0  0  0  0  0  0
    2.1532    2.2201   -0.9364 C   0  0  0  0  0  0  0  0  0  0  0  0
    5.2865   -1.6258    1.5853 C   0  0  0  0  0  0  0  0  0  0  0  0
    1.0277   -0.5063    0.0472 O   0  0  0  0  0  0  0  0  0  0  0  0
    3.3743    2.4773    0.7523 C   0  0  0  0  0  0  0  0  0  0  0  0
    5.6650    3.2046    2.8961 P   0  0  0  0  0  0  0  0  0  0  0  0
    8.8659    2.4901    2.5831 O   0  0  0  0  0  0  0  0  0  0  0  0
  4  2  1  0
  6  1  1  0
  7  1  1  0
  9  2  1  0
 11  9  1  0
 12  6  1  0
 13  3  1  0
 13  5  1  0
 14  8  1  0
 16  4  1  0
 16 10  1  0
 17  2  1  0
 18  1  1  0
 20  3  1  0
 20 11  2  0
 21  4  1  0
 22  8  1  0
 23  1  1  0
 23  5  1  0
 24  9  1  0
 24 13  1  0
 25  6  1  0
 26 12  1  0
 26 19  1  0
 27 14  1  0
 27 15  1  0
 27 19  1  0
 28  8  1  0
M  END
>  <ID>  (1) 
conformer_0

$$$$
