
     RDKit          3D

 25 26  0  0  0  0  0  0  0  0999 V2000
    1.9549    0.6464    0.0601 C   0  0  0  0  0  0  0  0  0  0  0  0
    9.0592   -1.5705    2.2153 C   0  0  0  0  0  0  0  0  0  0  0  0
    4.4201   -2.0586    1.7229 C   0  0  0  0  0  3  0  0  0  0  0  0
    3.3237   -0.5309    0.2725 C   0  0  0  0  0  0  0  0  0  0  0  0
    8.0195   -1.9736    1.8397 C   0  0  0  0  0  0  0  0  0  0  0  0
    1.2442    2.2305    0.2324 C   0  0  0  0  0  0  0  0  0  0  0  0
    2.4080    1.9589   -0.7929 C   0  0  0  0  0  0  0  0  0  0  0  0
    6.3376   -2.2296    2.0570 N   0  0  0  0  0  0  0  0  0  0  0  0
    0.3372    3.4456   -0.2571 O   0  0  0  0  0  0  0  0  0  0  0  0
    8.2091    2.5627    2.4351 O   0  0  0  0  0  1  0  0  0  0  0  0
    7.0761    2.7155    3.2576 P   0  0  0  0  0  4  0  0  0  0  0  0
    5.3239    2.7782    4.0216 O   0  0  0  0  0  0  0  0  0  0  0  0
    8.7492   -2.4937    0.1573 O   0  0  0  0  0  0  0  0  0  0  0  0
    5.7570    3.3340    2.0349 O   0  0  0  0  0  0  0  0  0  0  0  0
    4.3580   -2.8775    2.7721 N   0  0  0  0  0  0  0  0  0  0  0  0
   -0.3148    0.8756   -0.2069 O   0  0  0  0  0  0  0  0  0  0  0  0
    5.5335   -2.7389    2.4372 C   0  0  0  0  0  0  0  0  0  0  0  0
    7.8412    2.9061    4.4100 O   0  0  0  0  0  0  0  0  0  0  0  0
    3.8253   -1.1250    0.9582 N   0  0  0  0  0  0  0  0  0  0  0  0
    9.5738   -0.1813    2.3743 C   0  0  0  0  0  0  0  0  0  0  0  0
    3.1864    2.1314    1.4014 O   0  0  0  0  0  0  0  0  0  0  0  0
    3.2546    3.0206    1.1395 C   0  0  0  0  0  0  0  0  0  0  0  0
    8.2405   -2.9196    3.1916 O   0  0  0  0  0  0  0  0  0  0  0  0
    8.9989    0.5127    3.2181 O   0  0  0  0  0  0  0  0  0  0  0  0
   10.5331   -2.3183    1.1333 O   0  0  0  0  0  0  0  0  0  0  0  0
  4  1  1  0
  5  2  1  0
  6  1  1  0
  7  1  1  0
  7  6  1  0
  8  5  1  0
  9  6  1  0
 11 10  1  0
 12 11  1  0
 13  5  1  0
 14 11  1  0
 15  3  1  0
 16  6  1  0
 17  3  1  0
 17  8  1  0
 17 15  2  0
 18 11  1  0
 19  3  1  0
 19  4  1  0
 20  2  1  0
 22  7  1  0
 22 14  1  0
 22 21  1  0
 23  5  1  0
 24 20  2  0
 25  2  1  0
M  RAD  3   3   2  10   2  11   2
M  END
>  <ID>  (1) 
conformer_0

$$$$
