
     RDKit          3D

 29 30  0  0  0  0  0  0  0  0999 V2000
    8.4622   -2.4567    2.6757 C   0  0  0  0  0  0  0  0  0  0  0  0
    1.9721    2.3522   -0.2744 C   0  0  0  0  0  0  0  0  0  0  0  0
    5.0542   -3.1105    2.6519 C   0  0  0  0  0  0  0  0  0  0  0  0
    9.5746   -1.2897    1.7500 C   0  0  0  0  0  0  0  0  0  0  0  0
    2.1900    0.2543    0.1497 C   0  0  0  0  0  0  0  0  0  0  0  0
    0.6972    2.2149    0.1437 C   0  0  0  0  0  0  0  0  0  0  0  0
    6.1837   -2.1267    2.2059 N   0  0  0  0  0  0  0  0  0  0  0  0
    4.9760    3.6421    3.8582 O   0  0  0  0  0  0  0  0  0  0  0  0
    8.7494    0.2961    3.0265 O   0  0  0  0  0  0  0  0  0  0  0  0
    4.6103    4.2374    1.6602 O   0  0  0  0  0  0  0  0  0  0  0  0
   -0.5477    1.1145   -0.2336 O   0  0  0  0  0  0  0  0  0  0  0  0
    7.5258    3.0874    4.0310 O   0  0  0  0  0  0  0  0  0  0  0  0
    7.8740    2.2911    3.0590 P   0  0  0  0  0  0  0  0  0  0  0  0
    2.8868    2.7422    1.0111 C   0  0  0  0  0  0  0  0  0  0  0  0
    0.1066    3.5956   -0.1303 O   0  0  0  0  0  0  0  0  0  0  0  0
    3.8829   -1.2800    1.1715 N   0  0  0  0  0  0  0  0  0  0  0  0
    9.7481   -0.6019    2.8845 C   0  0  0  0  0  0  0  0  0  0  0  0
   11.1019   -1.7891    1.4543 O   0  0  0  0  0  0  0  0  0  0  0  0
    4.1265   -3.0443    2.5693 N   0  0  0  0  0  0  0  0  0  0  0  0
    8.3651   -1.2777   -0.0695 O   0  0  0  0  0  0  0  0  0  0  0  0
    3.3693   -2.1292    1.9566 C   0  0  0  0  0  0  0  0  0  0  0  0
    6.2233    2.4974    2.2165 O   0  0  0  0  0  0  0  0  0  0  0  0
    5.1330    3.4835    2.7005 P   0  0  0  0  0  0  0  0  0  0  0  0
    9.3854   -3.3417    1.2874 O   0  0  0  0  0  0  0  0  0  0  0  0
    2.3111    1.1998   -0.8048 C   0  0  0  0  0  0  0  0  0  0  0  0
    8.5521    2.2252    2.2955 O   0  0  0  0  0  0  0  0  0  0  0  0
    7.8644   -1.6677    1.3952 C   0  0  0  0  0  0  0  0  0  0  0  0
    5.3675   -1.5781    1.7112 C   0  0  0  0  0  0  0  0  0  0  0  0
    3.9562   -0.6957    0.1672 C   0  0  0  0  0  0  0  0  0  0  0  0
  4  1  1  0
  6  2  1  0
  7  3  1  0
 11  6  1  0
 13 12  1  0
 14  2  1  0
 14 10  1  0
 15  6  1  0
 17  4  1  0
 17  9  1  0
 18  4  1  0
 19  3  1  0
 21 16  1  0
 21 19  2  0
 22 13  1  0
 23  8  1  0
 23 10  1  0
 23 22  1  0
 24  1  1  0
 25  2  1  0
 25  5  1  0
 26 13  1  0
 27  1  1  0
 27  4  1  0
 27  7  1  0
 27 20  1  0
 28  7  1  0
 28 16  1  0
 29  5  1  0
 29 16  1  0
M  END
>  <ID>  (1) 
conformer_0

$$$$
