
     RDKit          3D

 30 32  0  0  0  0  0  0  0  0999 V2000
    8.0958   -2.2752    2.3804 C   0  0  0  0  0  0  0  0  0  0  0  0
    2.5927   -0.6097    0.5355 C   0  0  0  0  0  0  0  0  0  0  0  0
    3.8060   -2.3669    1.9371 C   0  0  0  0  0  0  0  0  0  0  0  0
    3.5886   -0.0880   -0.1963 C   0  0  0  0  0  0  0  0  0  0  0  0
    8.4311   -1.9713    1.3303 C   0  0  0  0  0  0  0  0  0  0  0  0
    9.4693   -0.8818    2.1246 C   0  0  0  0  0  0  0  0  0  0  0  0
    8.6600    2.5344    1.7244 O   0  0  0  0  0  0  0  0  0  0  0  0
    3.9224   -1.4624    1.1552 N   0  0  0  0  0  0  0  0  0  0  0  0
    4.8543    4.5206    1.7723 O   0  0  0  0  0  0  0  0  0  0  0  0
    8.7245   -1.4783    3.6221 O   0  0  0  0  0  0  0  0  0  0  0  0
    7.4598    3.2403    3.8313 O   0  0  0  0  0  0  0  0  0  0  0  0
   -0.2522    0.9751   -0.2765 O   0  0  0  0  0  0  0  0  0  0  0  0
    1.0209    2.2720    0.0818 C   0  0  0  0  0  0  0  0  0  0  0  0
    0.2334    3.3554   -0.0754 O   0  0  0  0  0  0  0  0  0  0  0  0
    6.2809   -2.3346    2.1111 N   0  0  0  0  0  0  0  0  0  0  0  0
    1.9575    1.0306    0.0607 C   0  0  0  0  0  0  0  0  0  0  0  0
    8.7854   -2.1071    0.0534 O   0  0  0  0  0  0  0  0  0  0  0  0
    6.7003    2.6854    2.8478 P   0  0  0  0  0  4  0  0  0  0  0  0
    5.4775   -3.0519    2.7621 C   0  0  0  0  0  0  0  0  0  0  0  0
    2.3013    2.5908   -0.3875 C   0  0  0  0  0  0  0  0  0  0  0  0
    4.3666   -3.2288    2.6162 N   0  0  0  0  0  0  0  0  0  0  0  0
    1.3220   -0.8219    0.4774 O   0  0  0  0  0  0  0  0  0  0  0  0
    3.5490    1.5980    1.1027 O   0  0  0  0  0  0  0  0  0  0  0  0
    6.3043    2.6621    2.1374 O   0  0  0  0  0  1  0  0  0  0  0  0
   10.6549   -1.6451    1.2114 O   0  0  0  0  0  0  0  0  0  0  0  0
    6.0918    1.7198    2.5711 C   0  0  0  0  0  0  0  0  0  0  0  0
    5.4150   -1.6997    1.3652 C   0  0  0  0  0  0  0  0  0  0  0  0
    9.2529   -0.0172    3.2814 C   0  0  0  0  0  0  0  0  0  0  0  0
    3.1684    2.7817    0.9294 C   0  0  0  0  0  0  0  0  0  0  0  0
    8.3950    0.8664    2.9977 O   0  0  0  0  0  0  0  0  0  0  0  0
  4  2  1  0
  5  1  1  0
  6  5  1  0
  8  2  1  0
  8  3  1  0
 10  1  1  0
 13 12  1  0
 14 13  1  0
 15  1  1  0
 16  2  1  0
 16 13  1  0
 17  5  1  0
 18 11  1  0
 19 15  1  0
 20 13  1  0
 20 16  1  0
 21  3  1  0
 21 19  2  0
 22  2  1  0
 24 18  1  0
 25  6  1  0
 26  7  1  0
 26 18  1  0
 27  8  1  0
 27 15  1  0
 28  6  1  0
 28 10  1  0
 29  9  1  0
 29 20  1  0
 29 23  1  0
 29 26  1  0
 30 28  1  0
M  RAD  2  18   2  24   2
M  END
>  <ID>  (1) 
conformer_0

$$$$
