
     RDKit          3D

 32 34  0  0  0  0  0  0  0  0999 V2000
    9.6997   -1.2231    2.0996 C   0  0  1  0  0  0  0  0  0  0  0  0
    2.0175    1.3934   -0.6812 C   0  0  0  0  0  0  0  0  0  0  0  0
    3.8099   -0.4651    0.2991 C   0  0  0  0  0  0  0  0  0  0  0  0
    3.4213   -2.6883    2.3029 C   0  0  0  0  0  0  0  0  0  0  0  0
    8.1770   -1.3607    1.5614 C   0  0  0  0  0  0  0  0  0  0  0  0
    0.3765    2.1410   -0.2479 C   0  0  0  0  0  0  0  0  0  0  0  0
    6.0490   -2.3743    2.3155 N   0  0  0  0  0  0  0  0  0  0  0  0
    8.0387    2.3218    3.2340 P   0  0  1  0  0  4  0  0  0  0  0  0
    3.7367    2.6196    1.9032 O   0  0  0  0  0  0  0  0  0  0  0  0
    6.4233    2.1706    2.2493 O   0  0  0  0  0  1  0  0  0  0  0  0
   -0.0180    3.7170   -0.3282 O   0  0  0  0  0  0  0  0  0  0  0  0
    5.2753    2.9267    4.0566 O   0  0  0  0  0  0  0  0  0  0  0  0
   11.1061   -1.7990    1.3035 O   0  0  0  0  0  0  0  0  0  0  0  0
    9.6661   -0.1154    2.9361 C   0  0  0  0  0  0  0  0  0  0  0  0
    7.4718   -1.0457    0.3398 O   0  0  0  0  0  0  0  0  0  0  0  0
    3.1461    2.6200    0.7840 C   0  0  0  0  0  0  0  0  0  0  0  0
    2.0776    2.4670   -0.3025 C   0  0  1  0  0  0  0  0  0  0  0  0
    4.4045   -3.1159    3.0437 N   0  0  0  0  0  0  0  0  0  0  0  0
    9.0356    0.8631    3.1878 O   0  0  0  0  0  0  0  0  0  0  0  0
    5.4923   -3.1235    2.8849 C   0  0  0  0  0  0  0  0  0  0  0  0
   -0.7829    1.2632   -0.4514 O   0  0  0  0  0  0  0  0  0  0  0  0
    8.5959   -1.6622    3.5248 O   0  0  0  0  0  0  0  0  0  0  0  0
    7.6489    2.7376    4.3248 O   0  0  0  0  0  0  0  0  0  0  0  0
    3.9786   -1.5067    1.3901 N   0  0  0  0  0  0  0  0  0  0  0  0
    9.1883   -2.8449    0.5658 O   0  0  0  0  0  0  0  0  0  0  0  0
    5.3678    2.9620    2.8551 P   0  0  1  0  0  4  0  0  0  0  0  0
    2.8948   -2.0879    1.6366 N   0  0  0  0  0  0  0  0  0  0  0  0
    8.0286   -2.3105    2.4437 C   0  0  2  0  0  0  0  0  0  0  0  0
    2.4188    0.0649    0.0507 C   0  0  0  0  0  0  0  0  0  0  0  0
    5.0852    4.2786    1.9376 O   0  0  0  0  0  0  0  0  0  0  0  0
    4.9450   -1.7432    1.5930 C   0  0  0  0  0  0  0  0  0  0  0  0
    8.4603    2.6067    2.2957 O   0  0  0  0  0  1  0  0  0  0  0  0
  5  1  1  0
 11  6  1  0
  1 13  1  6
 14  1  1  0
 15  5  1  0
 16  9  2  0
 17  2  1  6
 17  6  1  0
 17 16  1  0
 18  4  1  0
 19  8  1  0
 19 14  1  0
 20  7  1  0
 20 18  2  0
 21  6  1  0
 22  1  1  0
  8 23  1  1
 24  3  1  0
 25  5  1  0
 26 10  1  1
 26 12  1  0
 27  4  1  0
 27 24  1  0
 28  5  1  0
 28  7  1  1
 28 22  1  0
 29  2  1  0
 29  3  2  3
 30 16  1  0
 30 26  1  0
 31  4  2  0
 31  7  1  0
 31 24  1  0
 32  8  1  0
M  RAD  4   8   2  10   2  26   2  32   2
M  END
>  <ID>  (1) 
conformer_0

$$$$
