
     RDKit          3D

 29 30  0  0  0  0  0  0  0  0999 V2000
    8.0016   -1.2421    1.3083 C   0  0  0  0  0  0  0  0  0  0  0  0
    5.4122   -1.8287    1.8372 C   0  0  0  0  0  0  0  0  0  0  0  0
    3.2634   -0.4144    0.2880 C   0  0  0  0  0  0  0  0  0  0  0  0
    9.7250   -1.3862    2.4756 C   0  0  0  0  0  0  0  0  0  0  0  0
    1.8746    2.7719   -0.1807 C   0  0  0  0  0  0  0  0  0  0  0  0
    0.5061    2.0012   -0.1502 C   0  0  0  0  0  0  0  0  0  0  0  0
    6.2831   -2.2362    2.1863 N   0  0  0  0  0  0  0  0  0  0  0  0
    4.8188    3.4641    3.8999 O   0  0  0  0  0  0  0  0  0  0  0  0
    7.4420    3.0753    4.0752 O   0  0  0  0  0  0  0  0  0  0  0  0
    4.6385    4.2894    1.6773 O   0  0  0  0  0  0  0  0  0  0  0  0
    9.7809   -0.2303    2.8342 C   0  0  0  0  0  0  0  0  0  0  0  0
    5.1024    3.2278    2.7876 P   0  0  0  0  0  0  0  0  0  0  0  0
    5.6004   -3.2709    2.8388 C   0  0  0  0  0  0  0  0  0  0  0  0
    6.1690    2.1679    2.2812 O   0  0  0  0  0  0  0  0  0  0  0  0
    8.8236    0.6794    3.1696 O   0  0  0  0  0  0  0  0  0  0  0  0
   10.7671   -2.1040    1.1880 O   0  0  0  0  0  0  0  0  0  0  0  0
   -0.8533    0.9953   -0.1504 O   0  0  0  0  0  0  0  0  0  0  0  0
    3.9649   -2.9952    2.5690 N   0  0  0  0  0  0  0  0  0  0  0  0
    3.7661   -1.1408    1.2409 N   0  0  0  0  0  0  0  0  0  0  0  0
    8.3009   -1.6745   -0.0275 O   0  0  0  0  0  0  0  0  0  0  0  0
    8.1009   -1.6641    3.3748 O   0  0  0  0  0  0  0  0  0  0  0  0
    1.9924    0.2354    0.0122 C   0  0  0  0  0  0  0  0  0  0  0  0
   -0.2108    3.3328   -0.3819 O   0  0  0  0  0  0  0  0  0  0  0  0
    2.7796    2.5673    0.6631 C   0  0  0  0  0  0  0  0  0  0  0  0
    7.7383    2.3063    3.2722 P   0  0  0  0  0  0  0  0  0  0  0  0
    8.3963   -2.4355    1.9990 C   0  0  0  0  0  0  0  0  0  0  0  0
    8.5679    2.4890    2.4766 O   0  0  0  0  0  0  0  0  0  0  0  0
    3.7538   -2.1008    1.8400 C   0  0  0  0  0  0  0  0  0  0  0  0
    2.1815    1.4777   -0.9934 C   0  0  0  0  0  0  0  0  0  0  0  0
  6  5  1  0
  7  2  1  0
 11  4  1  0
 12  8  1  0
 12 10  1  0
 13  7  1  0
 14 12  1  0
 15 11  1  0
 16  4  1  0
 17  6  1  0
 18 13  1  0
 19  3  1  0
 20  1  1  0
 22  3  1  0
 23  6  1  0
 24  5  1  0
 25  9  1  0
 25 14  1  0
 26  1  1  0
 26  4  1  0
 26  7  1  0
 26 21  1  0
 27 11  1  0
 27 25  1  0
 28  2  1  0
 28 18  2  0
 28 19  1  0
 29  5  1  0
 29  6  1  0
 29 22  1  0
M  END
>  <ID>  (1) 
conformer_0

$$$$
