
     RDKit          3D

 28 29  0  0  0  0  0  0  0  0999 V2000
    7.8738   -1.8524    2.1477 C   0  0  0  0  0  0  0  0  0  0  0  0
    3.7028   -0.6624    0.1607 C   0  0  0  0  0  0  0  0  0  0  0  0
    5.5631   -3.0029    2.7892 C   0  0  0  0  0  0  0  0  0  0  0  0
    8.8123   -2.1520    1.5494 C   0  0  0  0  0  0  0  0  0  0  0  0
    2.4908    0.1038    0.1281 C   0  0  0  0  0  0  0  0  0  0  0  0
    2.4361    1.9627   -0.6732 C   0  0  0  0  0  0  0  0  0  0  0  0
    7.2930    3.0008    3.9775 O   0  0  0  0  0  0  0  0  0  0  0  0
    6.0070    2.7989    2.9521 P   0  0  0  0  0  5  0  0  0  0  0  0
    9.5141   -0.8454    2.4601 C   0  0  0  0  0  0  0  0  0  0  0  0
   -0.4355    1.1352   -0.1997 O   0  0  0  0  0  0  0  0  0  0  0  0
    6.3466    2.5276    2.0742 O   0  0  0  0  0  0  0  0  0  0  0  0
    6.3197   -2.0615    2.3749 N   0  0  0  0  0  0  0  0  0  0  0  0
    8.3995   -1.9307    0.0122 O   0  0  0  0  0  0  0  0  0  0  0  0
    4.6701    3.9590    1.6778 O   0  0  0  0  0  0  0  0  0  0  0  0
    0.9146    2.0605   -0.0175 C   0  0  0  0  0  0  0  0  0  0  0  0
    4.6002   -2.8699    2.8928 N   0  0  0  0  0  0  0  0  0  0  0  0
    3.8126   -2.3039    1.9742 C   0  0  0  0  0  0  0  0  0  0  0  0
    2.7890    1.4207    1.1405 O   0  0  0  0  0  0  0  0  0  0  0  0
    2.8017    2.2721    0.6895 C   0  0  0  0  0  0  0  0  0  0  0  0
    0.0423    3.4416   -0.2844 O   0  0  0  0  0  0  0  0  0  0  0  0
    5.1500    3.5681    3.9643 O   0  0  0  0  0  0  0  0  0  0  0  0
    4.0460   -1.3987    1.2832 N   0  0  0  0  0  0  0  0  0  0  0  0
   10.4603   -1.5891    0.9056 O   0  0  0  0  0  0  0  0  0  0  0  0
    7.5202    0.8786    2.7927 O   0  0  0  0  0  0  0  0  0  0  0  0
   10.0190    0.1967    4.1568 O   0  0  0  0  0  0  0  0  0  0  0  0
    8.1540   -1.6398    3.2740 O   0  0  0  0  0  0  0  0  0  0  0  0
    9.1123    0.0742    3.3612 C   0  0  0  0  0  0  0  0  0  0  0  0
    5.4666   -1.4275    1.9397 C   0  0  0  0  0  0  0  0  0  0  0  0
  4  1  1  0
  5  2  1  0
  8  7  1  0
  9  4  1  0
 11  8  1  0
 12  1  1  0
 12  3  1  0
 13  4  1  0
 14 11  1  0
 15  6  1  0
 15 10  1  0
 16  3  1  0
 17 16  2  0
 18  5  1  0
 19  6  1  0
 19 18  1  0
 20 15  1  0
 21  8  1  0
 22  2  1  0
 22 17  1  0
 23  4  1  0
 24  8  1  0
 26  1  1  0
 26  9  1  0
 27  9  1  0
 27 24  1  0
 27 25  1  0
 28 12  1  0
 28 22  1  0
M  END
>  <ID>  (1) 
conformer_0

$$$$
