
     RDKit          3D

 28 30  0  0  0  0  0  0  0  0999 V2000
    8.0935   -2.1456    2.3921 C   0  0  0  0  0  0  0  0  0  0  0  0
    3.5784   -2.1226    1.8698 C   0  0  0  0  0  0  0  0  0  0  0  0
    2.2998    2.9354   -0.1766 C   0  0  0  0  0  0  0  0  0  0  0  0
    8.5998   -1.8693    1.2495 C   0  0  0  0  0  0  0  0  0  0  0  0
    2.0977    0.2808   -0.0575 C   0  0  0  0  0  0  0  0  0  0  0  0
    0.6898    1.9953   -0.1201 C   0  0  0  0  0  0  0  0  0  0  0  0
    6.2793   -2.0951    2.2037 N   0  0  0  0  0  0  0  0  0  0  0  0
    4.9355    3.4099    3.9474 O   0  0  0  0  0  0  0  0  0  0  0  0
    7.7105    2.3804    3.0865 P   0  0  0  0  0  0  0  0  0  0  0  0
    8.6614    2.2134    2.4251 O   0  0  0  0  0  0  0  0  0  0  0  0
    4.1873   -3.0906    2.6864 N   0  0  0  0  0  0  0  0  0  0  0  0
    9.6152   -1.2051    2.5527 C   0  0  0  0  0  0  0  0  0  0  0  0
    8.5403   -1.5131   -0.0916 O   0  0  0  0  0  0  0  0  0  0  0  0
    3.0547    2.8209    0.9068 C   0  0  0  0  0  0  0  0  0  0  0  0
    6.4669    2.4937    2.1259 O   0  0  0  0  0  0  0  0  0  0  0  0
    7.2194    2.5573    4.1982 O   0  0  0  0  0  0  0  0  0  0  0  0
   -0.5075    0.9247   -0.5364 O   0  0  0  0  0  0  0  0  0  0  0  0
    5.1193   -3.1167    2.7611 C   0  0  0  0  0  0  0  0  0  0  0  0
    3.5741   -0.8732    0.9612 N   0  0  0  0  0  0  0  0  0  0  0  0
   10.6943   -1.6333    1.2737 O   0  0  0  0  0  0  0  0  0  0  0  0
    8.4582   -0.7513    3.2289 O   0  0  0  0  0  0  0  0  0  0  0  0
   -0.0190    3.3050   -0.4401 O   0  0  0  0  0  0  0  0  0  0  0  0
    4.9091    4.1560    1.7674 O   0  0  0  0  0  1  0  0  0  0  0  0
    2.0385    1.5989   -0.7379 C   0  0  0  0  0  0  0  0  0  0  0  0
    5.2397   -1.5228    1.6906 C   0  0  0  0  0  0  0  0  0  0  0  0
    5.2757    3.2903    2.8238 P   0  0  0  0  0  4  0  0  0  0  0  0
    9.4573    0.1439    3.0957 C   0  0  0  0  0  0  0  0  0  0  0  0
    3.6439   -0.3149   -0.0465 C   0  0  0  0  0  0  0  0  0  0  0  0
  4  1  1  0
  6  3  1  0
  7  1  1  0
 10  9  1  0
 11  2  2  0
 12  4  1  0
 13  4  1  0
 14  3  1  0
 15  9  1  0
 16  9  1  0
 17  6  1  0
 18  7  1  0
 18 11  1  0
 19  2  1  0
 20 12  1  0
 21 12  1  0
 22  6  1  0
 24  3  1  0
 24  5  1  0
 24  6  1  0
 25  2  1  0
 25  7  1  0
 26  8  1  0
 26 15  1  0
 26 23  1  0
 27 10  1  0
 27 12  1  0
 27 21  1  0
 28  5  1  0
 28 19  1  0
M  RAD  2  23   2  26   2
M  END
>  <ID>  (1) 
conformer_0

$$$$
