
     RDKit          3D

 24 25  0  0  0  0  0  0  0  0999 V2000
    8.1355   -2.3723    1.9774 C   0  0  0  0  0  0  0  0  0  0  0  0
    1.6683    2.3575   -0.2540 C   0  0  0  0  0  0  0  0  0  0  0  0
    3.2584   -0.3804    0.1197 C   0  0  0  0  0  0  0  0  0  0  0  0
    3.5372   -2.2678    1.9583 C   0  0  0  0  0  0  0  0  0  0  0  0
    8.9185   -1.7456    2.1536 C   0  0  0  0  0  0  0  0  0  0  0  0
    9.5256   -0.6351    3.1500 C   0  0  0  0  0  0  0  0  0  0  0  0
    0.4662    2.0731   -0.1467 C   0  0  0  0  0  0  0  0  0  0  0  0
   -0.1618    3.4412   -0.2516 O   0  0  0  0  0  0  0  0  0  0  0  0
    5.0312    3.5081    3.8559 O   0  0  0  0  0  0  0  0  0  0  0  0
    3.7833   -1.1961    1.1564 N   0  0  0  0  0  0  0  0  0  0  0  0
    3.9990   -2.9796    2.5125 N   0  0  0  0  0  0  0  0  0  0  0  0
    9.0664    1.1901    2.9664 O   0  0  0  0  0  0  0  0  0  0  0  0
    5.4368    3.1340    2.8587 P   0  0  0  0  0  4  0  0  0  0  0  0
    7.3334    2.3456    2.1288 O   0  0  0  0  0  0  0  0  0  0  0  0
    7.3627    2.7749    4.1474 O   0  0  0  0  0  0  0  0  0  0  0  0
   10.3752   -2.5991    1.5987 O   0  0  0  0  0  0  0  0  0  0  0  0
    2.9400    1.5422    0.5854 C   0  0  0  0  0  0  0  0  0  0  0  0
    8.4864   -1.6570    0.1145 O   0  0  0  0  0  0  0  0  0  0  0  0
    5.4744   -1.5763    1.5026 C   0  0  0  0  0  0  0  0  0  0  0  0
    5.9656   -2.2671    2.0864 N   0  0  0  0  0  0  0  0  0  0  0  0
    2.4995    1.1738   -0.8479 C   0  0  0  0  0  0  0  0  0  0  0  0
    5.0356    3.0729    1.8528 O   0  0  0  0  0  1  0  0  0  0  0  0
    8.0231    2.1158    2.9856 P   0  0  0  0  0  0  0  0  0  0  0  0
    5.1153   -3.1430    2.7393 C   0  0  0  0  0  0  0  0  0  0  0  0
  5  1  1  0
  6  5  1  0
  7  2  1  0
  8  7  1  0
 10  3  1  0
 10  4  1  0
 11  4  1  0
 12  6  1  0
 13  9  1  0
 14 13  1  0
 16  5  1  0
 17  2  1  0
 18  1  1  0
 19 10  1  0
 20  1  1  0
 20 19  1  0
 21  2  1  0
 21  3  1  0
 21 17  1  0
 22 13  1  0
 23 12  1  0
 23 14  1  0
 23 15  1  0
 24 11  2  0
 24 20  1  0
M  RAD  2  13   2  22   2
M  END
>  <ID>  (1) 
conformer_0

$$$$
