
     RDKit          3D

 32 34  0  0  0  0  0  0  0  0999 V2000
    7.1189   -1.7057    1.4917 C   0  0  0  0  0  0  0  0  0  0  0  0
    3.9460   -0.1741    0.3864 C   0  0  0  0  0  0  0  0  0  0  0  0
    5.0833   -3.0445    2.6074 C   0  0  0  0  0  0  0  0  0  0  0  0
    9.0136   -2.0349    1.2930 C   0  0  0  0  0  0  0  0  0  0  0  0
    2.0565    1.4277   -0.8165 C   0  0  0  0  0  0  0  0  0  0  0  0
    0.5089    2.0064   -0.0729 C   0  0  0  0  0  0  0  0  0  0  0  0
    5.6313   -2.0977    1.8556 N   0  0  0  0  0  0  0  0  0  0  0  0
    4.9955    3.5843    4.0052 O   0  0  0  0  0  0  0  0  0  0  0  0
    6.0024    2.6561    2.2127 O   0  0  0  0  0  0  0  0  0  0  0  0
    8.1741    0.4073    3.0713 O   0  0  0  0  0  0  0  0  0  0  0  0
    9.8140   -1.1230    2.7449 C   0  0  0  0  0  0  0  0  0  0  0  0
    7.4548    2.4151    3.2216 P   0  0  0  0  0  0  0  0  0  0  0  0
    4.8275    4.6252    1.8144 O   0  0  0  0  0  0  0  0  0  0  0  0
    7.5358    3.1681    4.1321 O   0  0  0  0  0  0  0  0  0  0  0  0
   -0.6926    0.9699   -0.2196 O   0  0  0  0  0  0  0  0  0  0  0  0
    3.0443   -2.2392    1.7584 C   0  0  0  0  0  0  0  0  0  0  0  0
    9.3057   -2.9885    0.2011 O   0  0  0  0  0  0  0  0  0  0  0  0
    2.3309    0.3118    0.1416 C   0  0  0  0  0  0  0  0  0  0  0  0
   10.9249   -2.1423    1.7878 O   0  0  0  0  0  0  0  0  0  0  0  0
    0.1692    3.6705   -0.2698 O   0  0  0  0  0  0  0  0  0  0  0  0
    4.0470   -3.0150    2.5982 N   0  0  0  0  0  0  0  0  0  0  0  0
    3.6599   -1.1801    1.1882 N   0  0  0  0  0  0  0  0  0  0  0  0
    8.0454   -1.6300    3.3950 O   0  0  0  0  0  0  0  0  0  0  0  0
    7.8148   -1.1813    0.1167 O   0  0  0  0  0  0  0  0  0  0  0  0
    3.0683    1.9024    1.4584 O   0  0  0  0  0  0  0  0  0  0  0  0
    2.7420    2.4031    0.7894 C   0  0  0  0  0  0  0  0  0  0  0  0
    9.3277   -0.0432    3.1727 C   0  0  0  0  0  0  0  0  0  0  0  0
    8.0281    2.4665    2.2894 O   0  0  0  0  0  0  0  0  0  0  0  0
    5.1969    3.6000    2.9414 P   0  0  0  0  0  0  0  0  0  0  0  0
    4.8155   -1.7161    1.4924 C   0  0  0  0  0  0  0  0  0  0  0  0
    1.9846    2.9396   -0.1027 C   0  0  0  0  0  0  0  0  0  0  0  0
    8.1771   -2.3603    2.4876 C   0  0  0  0  0  0  0  0  0  0  0  0
  4  1  1  0
  6  5  1  0
  7  1  1  0
  7  3  1  0
 11  4  1  0
 12  9  1  0
 14 12  1  0
 15  6  1  0
 17  4  1  0
 18  2  1  0
 18  5  1  0
 19 11  1  0
 20  6  1  0
 21  3  2  0
 21 16  1  0
 22  2  1  0
 22 16  1  0
 24  1  1  0
 26 13  1  0
 26 25  2  0
 27 10  2  0
 27 11  1  0
 28 12  1  0
 29  8  1  0
 29  9  1  0
 29 13  1  0
 30  7  1  0
 30 22  1  0
 31  5  1  0
 31  6  1  0
 31 26  1  0
 32  1  1  0
 32  4  1  0
 32 23  1  0
M  END
>  <ID>  (1) 
conformer_0

$$$$
