
     RDKit          3D

 22 21  0  0  0  0  0  0  0  0999 V2000
    7.8908   -1.8887    1.9481 C   0  0  2  0  0  0  0  0  0  0  0  0
    1.0807    1.3995   -0.0487 C   0  0  0  0  0  0  0  0  0  0  0  0
    4.4185   -2.0171    1.6768 C   0  0  0  0  0  0  0  0  0  0  0  0
    8.9522   -1.7172    2.2853 C   0  0  1  0  0  0  0  0  0  0  0  0
    3.0387   -0.2628    0.0066 C   0  0  0  0  0  0  0  0  0  0  0  0
    2.2601    2.3963   -0.7372 C   0  0  0  0  0  0  0  0  0  0  0  0
    5.8077   -2.1061    2.0055 N   0  0  0  0  0  0  0  0  0  0  0  0
    6.8674    2.6495    3.0115 P   0  0  0  0  0  5  0  0  0  0  0  0
   -0.3324    0.8452   -0.1162 O   0  0  0  0  0  0  0  0  0  0  0  0
    8.8464    1.7522    2.3754 O   0  0  0  0  0  0  0  0  0  0  0  0
    0.1760    3.4731   -0.2976 O   0  0  0  0  0  0  0  0  0  0  0  0
    6.8119    2.4592    2.1208 O   0  0  0  0  0  0  0  0  0  0  0  0
    9.9191   -2.1558    0.8741 O   0  0  0  0  0  0  0  0  0  0  0  0
    4.3816   -3.0373    2.7901 N   0  0  0  0  0  0  0  0  0  0  0  0
    7.7671    2.6818    4.1338 O   0  0  0  0  0  0  0  0  0  0  0  0
    9.5173   -0.4937    2.9670 C   0  0  0  0  0  0  0  0  0  0  0  0
    7.7647   -1.0549    0.3268 O   0  0  0  0  0  0  0  0  0  0  0  0
    2.3459    2.3207    0.4650 C   0  0  1  0  0  0  0  0  0  0  0  0
    5.2821   -2.8891    2.5978 C   0  0  0  0  0  0  0  0  0  0  0  0
    5.4394    2.9685    4.0504 O   0  0  0  0  0  0  0  0  0  0  0  0
    3.8591    2.2501    1.4555 O   0  0  0  0  0  0  0  0  0  0  0  0
    5.0074    4.1556    1.8680 O   0  0  0  0  0  0  0  0  0  0  0  0
  4  1  1  0
  5  3  1  0
  7  3  2  3
  9  2  1  0
 11  2  1  0
 12  8  1  0
 12 10  1  0
 13  4  1  0
 15  8  1  0
  4 16  1  6
  1 17  1  1
 18  2  1  0
 18  5  1  0
 18  6  1  6
 19  1  1  0
 19  7  1  0
 19 14  2  3
 20  8  1  0
 21 18  1  0
 22  8  1  0
 22 21  1  0
M  END
>  <ID>  (1) 
conformer_0

$$$$
