
     RDKit          3D

 29 29  0  0  0  0  0  0  0  0999 V2000
    8.2200   -1.2674    1.1178 C   0  0  0  0  0  0  0  0  0  0  0  0
    3.4417   -2.2412    1.7968 C   0  0  0  0  0  0  0  0  0  0  0  0
    2.2582   -0.1162    0.0899 C   0  0  0  0  0  0  0  0  0  0  0  0
    2.1406    1.7174   -0.5545 C   0  0  0  0  0  0  0  0  0  0  0  0
    0.6494    2.1341   -0.0202 C   0  0  0  0  0  0  0  0  0  0  0  0
    8.0722   -2.4963    2.3483 C   0  0  0  0  0  0  0  0  0  0  0  0
    3.6200   -1.1523    1.0137 N   0  0  0  0  0  0  0  0  0  0  0  0
    5.3415    3.3756    2.7257 P   0  0  0  0  0  4  0  0  0  0  0  0
    5.1021    3.4997    3.8446 O   0  0  0  0  0  0  0  0  0  0  0  0
    4.7306    4.1688    1.6538 O   0  0  0  0  0  1  0  0  0  0  0  0
    8.4879    0.3943    3.1046 O   0  0  0  0  0  0  0  0  0  0  0  0
   -0.5502    1.0989   -0.4774 O   0  0  0  0  0  0  0  0  0  0  0  0
    7.9234    3.0973    3.9996 O   0  0  0  0  0  0  0  0  0  0  0  0
    2.8033    2.4540    0.5890 C   0  0  0  0  0  0  0  0  0  0  0  0
    0.2032    3.6372   -0.3422 O   0  0  0  0  0  0  0  0  0  0  0  0
    6.0216   -2.2394    2.0834 N   0  0  0  0  0  0  0  0  0  0  0  0
    9.7792   -3.2099    0.9744 O   0  0  0  0  0  0  0  0  0  0  0  0
    4.3491   -3.1194    2.5994 N   0  0  0  0  0  0  0  0  0  0  0  0
    5.5249   -3.1204    2.6844 C   0  0  0  0  0  0  0  0  0  0  0  0
    9.5189   -1.8176    2.4756 C   0  0  0  0  0  0  0  0  0  0  0  0
    8.0790   -1.4466    0.0447 O   0  0  0  0  0  0  0  0  0  0  0  0
    8.0244    2.3551    3.1504 P   0  0  0  0  0  0  0  0  0  0  0  0
    6.4122    2.5621    2.2520 O   0  0  0  0  0  0  0  0  0  0  0  0
    8.7231    2.3708    2.3645 O   0  0  0  0  0  0  0  0  0  0  0  0
    3.0254    1.4855    1.1967 O   0  0  0  0  0  0  0  0  0  0  0  0
   11.1474   -1.9647    2.3391 O   0  0  0  0  0  0  0  0  0  0  0  0
    3.8398   -0.2146    0.0849 C   0  0  0  0  0  0  0  0  0  0  0  0
    9.2713   -0.6339    3.1957 C   0  0  0  0  0  0  0  0  0  0  0  0
    5.2068   -1.6373    1.6800 C   0  0  0  0  0  0  0  0  0  0  0  0
  4  3  1  0
  5  4  1  0
  6  1  1  0
  7  2  1  0
  9  8  1  0
 10  8  1  0
 12  5  1  0
 14  4  1  0
 15  5  1  0
 18  2  2  0
 19  6  1  0
 19 16  2  0
 19 18  1  0
 20  6  1  0
 20 17  1  0
 21  1  1  0
 22 13  1  0
 23  8  1  0
 23 22  1  0
 24 22  1  0
 25 14  1  0
 26 20  1  0
 27  3  1  0
 27  7  1  0
 28 11  1  0
 28 20  1  0
 28 24  1  0
 29  7  1  0
 29 16  1  0
M  RAD  2   8   2  10   2
M  END
>  <ID>  (1) 
conformer_0

$$$$
