
     RDKit          3D

 26 27  0  0  0  0  0  0  0  0999 V2000
    8.1090   -1.8491    1.6420 C   0  0  0  0  0  0  0  0  0  0  0  0
    2.1324    0.4589    0.2689 C   0  0  0  0  0  0  0  0  0  0  0  0
    5.3127   -2.2962    2.3170 C   0  0  0  0  0  0  0  0  0  0  0  0
    2.1712    1.9798   -0.9613 C   0  0  0  0  0  0  0  0  0  0  0  0
    1.3841    1.9984    0.2411 C   0  0  0  0  0  0  0  0  0  0  0  0
    9.3247   -1.7773    2.1539 C   0  0  0  0  0  0  0  0  0  0  0  0
    9.6789   -0.7931    2.9602 C   0  0  0  0  0  0  0  0  0  0  0  0
    3.5832   -1.3492    1.1428 N   0  0  0  0  0  0  0  0  0  0  0  0
    0.2579    3.3737   -0.1206 O   0  0  0  0  0  0  0  0  0  0  0  0
    8.0890   -2.1460    3.4045 O   0  0  0  0  0  0  0  0  0  0  0  0
    5.2263    3.1122    2.8391 P   0  0  0  0  0  4  0  0  0  0  0  0
    8.7834    0.4655    3.1793 O   0  0  0  0  0  0  0  0  0  0  0  0
    7.8660    2.7821    4.3054 O   0  0  0  0  0  0  0  0  0  0  0  0
    6.4697    2.4598    2.3737 O   0  0  0  0  0  1  0  0  0  0  0  0
   11.2115   -2.1843    1.5768 O   0  0  0  0  0  0  0  0  0  0  0  0
    4.8413    3.1697    3.8749 O   0  0  0  0  0  0  0  0  0  0  0  0
    3.6908   -2.2243    1.9173 C   0  0  0  0  0  3  0  0  0  0  0  0
    3.0828    1.4858    1.2748 O   0  0  0  0  0  0  0  0  0  0  0  0
   -0.5361    1.0394   -0.1657 O   0  0  0  0  0  0  0  0  0  0  0  0
    8.9213   -2.6707    0.3453 O   0  0  0  0  0  0  0  0  0  0  0  0
    4.8804    4.1521    1.9012 O   0  0  0  0  0  0  0  0  0  0  0  0
    3.5196   -0.3724    0.1595 C   0  0  0  0  0  0  0  0  0  0  0  0
    8.0513    2.3460    3.3129 P   0  0  0  0  0  0  0  0  0  0  0  0
    5.9854   -2.1054    2.1528 N   0  0  0  0  0  0  0  0  0  0  0  0
    4.3301   -2.9639    2.8515 N   0  0  0  0  0  0  0  0  0  0  0  0
    8.7921    2.5059    2.4979 O   0  0  0  0  0  0  0  0  0  0  0  0
  4  2  1  0
  5  2  1  0
  5  4  1  0
  6  1  1  0
  7  6  1  0
  9  5  1  0
 10  1  1  0
 12  7  1  0
 14 11  1  0
 15  6  1  0
 16 11  1  0
 17  3  1  0
 17  8  1  0
 18  2  1  0
 19  5  1  0
 20  1  1  0
 21 11  1  0
 22  2  1  0
 22  8  1  0
 23 12  1  0
 23 13  1  0
 24  1  1  0
 24  3  1  0
 25  3  2  0
 25 17  1  0
 26 11  1  0
 26 23  1  0
M  RAD  3  11   2  14   2  17   2
M  END
>  <ID>  (1) 
conformer_0

$$$$
