
     RDKit          3D

 28 31  0  0  0  0  0  0  0  0999 V2000
    7.9027   -2.0796    2.0323 C   0  0  0  0  0  0  0  0  0  0  0  0
    5.0813   -2.6837    2.3240 C   0  0  0  0  0  0  0  0  0  0  0  0
    1.2830    1.5228    0.0085 C   0  0  0  0  0  0  0  0  0  0  0  0
    2.3609    2.8478   -0.2576 C   0  0  0  0  0  0  0  0  0  0  0  0
    8.9056   -2.1300    2.2404 C   0  0  0  0  0  0  0  0  0  0  0  0
    9.3138   -0.6741    3.1607 C   0  0  0  0  0  0  0  0  0  0  0  0
    5.4323    2.9009    3.9349 O   0  0  0  0  0  0  0  0  0  0  0  0
    2.8302   -0.0202   -0.2022 C   0  0  0  0  0  0  0  0  0  0  0  0
    4.6895    4.5194    1.7562 O   0  0  0  0  0  0  0  0  0  0  0  0
    7.9795    3.2097    3.8985 O   0  0  0  0  0  0  0  0  0  0  0  0
    3.3294   -0.6307    0.6076 N   0  0  0  0  0  0  0  0  0  0  0  0
    8.6948    0.7971    3.4660 O   0  0  0  0  0  0  0  0  0  0  0  0
    3.5397   -2.5684    2.2158 N   0  0  0  0  0  0  0  0  0  0  0  0
    5.9742   -2.1088    1.9390 N   0  0  0  0  0  0  0  0  0  0  0  0
    3.1583   -2.0090    1.6032 C   0  0  0  0  0  0  0  0  0  0  0  0
    8.1623    2.1614    3.1205 P   0  0  0  0  0  4  0  0  0  0  0  0
   -0.1208    0.8109   -0.1652 O   0  0  0  0  0  0  0  0  0  0  0  0
    6.4375    2.4271    2.1594 O   0  0  0  0  0  1  0  0  0  0  0  0
    8.2535   -1.7872    3.6576 O   0  0  0  0  0  0  0  0  0  0  0  0
    8.7084   -2.4154    0.1769 O   0  0  0  0  0  0  0  0  0  0  0  0
    0.1815    3.2462   -0.0014 O   0  0  0  0  0  0  0  0  0  0  0  0
    2.8352    2.6330    0.8622 C   0  0  0  0  0  0  0  0  0  0  0  0
   10.5066   -2.4572    1.5040 O   0  0  0  0  0  0  0  0  0  0  0  0
    5.4887    3.0029    2.7401 P   0  0  0  0  0  4  0  0  0  0  0  0
    3.6880    2.3687    1.4156 O   0  0  0  0  0  0  0  0  0  0  0  0
    4.7938   -1.3832    1.1547 C   0  0  0  0  0  0  0  0  0  0  0  0
    8.6304    2.0485    1.8335 O   0  0  0  0  0  1  0  0  0  0  0  0
    2.0578    1.4391   -1.1409 C   0  0  0  0  0  0  0  0  0  0  0  0
  4  3  1  0
  5  1  1  0
  6  5  1  0
 11  8  1  0
 12  6  1  0
 13  2  2  0
 14  1  1  0
 14  2  1  0
 15 11  1  0
 15 13  1  0
 16 10  1  0
 16 12  1  0
 17  3  1  0
 19  5  1  0
 19  6  1  0
 20  1  1  0
 21  3  1  0
 22  4  1  0
 22  9  1  0
 23  5  1  0
 24  7  1  0
 24  9  1  0
 24 18  1  0
 25 22  1  0
 26 11  1  0
 26 14  1  0
 26 15  2  0
 27 16  1  0
 28  3  1  0
 28  4  1  0
 28  8  1  0
M  RAD  4  16   2  18   2  24   2  27   2
M  END
>  <ID>  (1) 
conformer_0

$$$$
