
     RDKit          3D

 27 28  0  0  0  0  0  0  0  0999 V2000
    8.3681   -2.1894    2.7540 C   0  0  0  0  0  0  0  0  0  0  0  0
    4.4459   -1.6666    1.6136 C   0  0  0  0  0  0  0  0  0  0  0  0
    0.7293    2.0172    0.0242 C   0  0  0  0  0  0  0  0  0  0  0  0
    1.9851    2.1499   -0.6838 C   0  0  0  0  0  0  0  0  0  0  0  0
    9.6136   -1.3980    2.0938 C   0  0  0  0  0  0  0  0  0  0  0  0
    3.6343   -0.5078    0.1384 C   0  0  0  0  0  0  0  0  0  0  0  0
    6.0337   -2.0223    2.2076 N   0  0  0  0  0  0  0  0  0  0  0  0
    4.4689    3.9385    1.8871 O   0  0  0  0  0  0  0  0  0  0  0  0
    9.3987   -0.0855    3.3169 C   0  0  0  0  0  0  0  0  0  0  0  0
    5.0137    2.9094    3.9470 O   0  0  0  0  0  0  0  0  0  0  0  0
    5.2758    3.0470    2.8531 P   0  0  0  0  0  4  0  0  0  0  0  0
    2.9800    2.3813    0.6447 C   0  0  0  0  0  0  0  0  0  0  0  0
    8.5257    0.7512    3.0010 O   0  0  0  0  0  0  0  0  0  0  0  0
   -0.1806    3.2536   -0.4819 O   0  0  0  0  0  0  0  0  0  0  0  0
    7.4484    2.8505    4.2711 O   0  0  0  0  0  0  0  0  0  0  0  0
   10.6924   -2.4691    1.6456 O   0  0  0  0  0  0  0  0  0  0  0  0
    8.2895   -1.7125    3.7442 O   0  0  0  0  0  0  0  0  0  0  0  0
    8.6222   -2.0525    0.0233 O   0  0  0  0  0  0  0  0  0  0  0  0
    5.5196   -2.4965    2.5614 C   0  0  0  0  0  0  0  0  0  0  0  0
    6.3826    2.4306    2.1700 O   0  0  0  0  0  1  0  0  0  0  0  0
    3.0160   -0.2795    0.5524 N   0  0  0  0  0  0  0  0  0  0  0  0
    8.7840    2.8247    2.6441 O   0  0  0  0  0  0  0  0  0  0  0  0
    4.2223   -2.5436    2.8475 N   0  0  0  0  0  0  0  0  0  0  0  0
    1.8551    0.1601    0.0101 C   0  0  0  0  0  0  0  0  0  0  0  0
    7.8969    2.4094    3.2686 P   0  0  0  0  0  0  0  0  0  0  0  0
    8.1191   -1.6886    1.4186 C   0  0  0  0  0  0  0  0  0  0  0  0
   -0.6995    1.1857   -0.2556 O   0  0  0  0  0  0  0  0  0  0  0  0
  4  3  1  0
  5  1  1  0
  6  2  1  0
  9  5  1  0
 11  8  1  0
 11 10  1  0
 12  4  1  0
 12  8  1  0
 13  9  1  0
 14  3  1  0
 16  5  1  0
 17  1  1  0
 19  2  1  0
 19  7  1  0
 20 11  1  0
 21  6  1  0
 23  2  2  0
 23 19  1  0
 24  4  1  0
 24 21  1  0
 25 13  1  0
 25 15  1  0
 25 22  1  0
 26  1  1  0
 26  5  1  0
 26 18  1  0
 26 19  1  0
 27  3  1  0
M  RAD  2  11   2  20   2
M  END
>  <ID>  (1) 
conformer_0

$$$$
