
     RDKit          3D

 30 33  0  0  0  0  0  0  0  0999 V2000
    9.0525   -2.0991    1.8172 C   0  0  0  0  0  0  0  0  0  0  0  0
    2.6204   -0.4435    0.3350 C   0  0  0  0  0  0  0  0  0  0  0  0
    5.6093   -3.0461    2.7295 C   0  0  0  0  0  0  0  0  0  0  0  0
    1.2877    2.7720   -0.3861 C   0  0  0  0  0  0  0  0  0  0  0  0
    9.4954    0.3764    3.3851 C   0  0  0  0  0  0  0  0  0  0  0  0
    0.7871    1.7129    0.0825 C   0  0  0  0  0  0  0  0  0  0  0  0
    4.6464    4.5068    1.8631 O   0  0  0  0  0  0  0  0  0  0  0  0
    6.4558   -2.2335    2.2199 N   0  0  0  0  0  0  0  0  0  0  0  0
    6.6276    2.5326    2.2456 O   0  0  0  0  0  0  0  0  0  0  0  0
    4.7328    3.2590    2.6585 P   0  0  0  0  0  0  0  0  0  0  0  0
    7.9628   -1.9642    1.9972 C   0  0  0  0  0  0  0  0  0  0  0  0
    0.0587    0.4115    0.0037 O   0  0  0  0  0  0  0  0  0  0  0  0
    4.5515    3.4424    3.9642 O   0  0  0  0  0  0  0  0  0  0  0  0
    8.3573    1.1760    2.8663 O   0  0  0  0  0  0  0  0  0  0  0  0
   11.2819   -1.4633    2.1006 O   0  0  0  0  0  0  0  0  0  0  0  0
    9.7738   -2.4130    0.4957 O   0  0  0  0  0  0  0  0  0  0  0  0
    1.5523   -1.6358    1.0551 O   0  0  0  0  0  0  0  0  0  0  0  0
    4.4599   -3.1630    2.6255 N   0  0  0  0  0  0  0  0  0  0  0  0
    8.2268   -1.3603    3.4246 O   0  0  0  0  0  0  0  0  0  0  0  0
    3.6712   -2.3619    1.9012 C   0  0  0  0  0  0  0  0  0  0  0  0
    4.0606   -1.6583    1.3768 N   0  0  0  0  0  0  0  0  0  0  0  0
    3.6471   -0.3723    0.0351 C   0  0  0  0  0  0  0  0  0  0  0  0
    3.4830    2.4409    1.4467 O   0  0  0  0  0  0  0  0  0  0  0  0
    2.1739    1.5840   -1.0048 C   0  0  0  0  0  0  0  0  0  0  0  0
    2.6381    2.1979    0.6804 C   0  0  0  0  0  0  0  0  0  0  0  0
    7.1873    2.1764    2.9509 P   0  0  0  0  0  0  0  0  0  0  0  0
    9.7570   -0.9075    2.8156 C   0  0  0  0  0  0  0  0  0  0  0  0
    5.4814   -1.7467    1.5774 C   0  0  0  0  0  0  0  0  0  0  0  0
    7.7681   -1.0841    0.1224 O   0  0  0  0  0  0  0  0  0  0  0  0
    5.7099    1.9117    3.8918 O   0  0  0  0  0  0  0  0  0  0  0  0
  6  4  1  0
  8  3  1  0
 10  7  1  0
 11  1  1  0
 11  8  1  0
 12  6  1  0
 13 10  1  0
 14  5  1  0
 16  1  1  0
 17  2  1  0
 18  3  1  0
 19 11  1  0
 20 18  2  0
 21 20  1  0
 22  2  1  0
 22 21  1  0
 23 10  1  0
 24  2  1  0
 24  4  1  0
 25  4  1  0
 25 23  1  0
 25 24  1  0
 26  9  1  0
 26 14  1  0
 27  1  1  0
 27  5  1  0
 27 15  1  0
 27 19  1  0
 28  3  2  0
 28  8  1  0
 28 21  1  0
 29 11  1  0
 30 26  1  0
M  END
>  <ID>  (1) 
conformer_0

$$$$
