
     RDKit          3D

 28 29  0  0  0  0  0  0  0  0999 V2000
    9.6346   -0.9579    3.0434 C   0  0  0  0  0  0  0  0  0  0  0  0
    3.6586   -2.1891    1.7769 C   0  0  0  0  0  0  0  0  0  0  0  0
    2.1581   -0.1384    0.4373 C   0  0  0  0  0  0  0  0  0  0  0  0
    2.1474    1.5440   -0.8298 C   0  0  0  0  0  0  0  0  0  0  0  0
    7.8617   -1.4552    1.4054 C   0  0  0  0  0  0  0  0  0  0  0  0
    0.9866    1.7743    0.0620 C   0  0  0  0  0  0  0  0  0  0  0  0
    3.6534   -1.0706    1.0747 N   0  0  0  0  0  0  0  0  0  0  0  0
    4.9821    3.2980    3.8199 O   0  0  0  0  0  0  0  0  0  0  0  0
    4.4363    4.2401    1.5620 O   0  0  0  0  0  0  0  0  0  0  0  0
    7.7822    3.0804    3.9547 O   0  0  0  0  0  0  0  0  0  0  0  0
    6.2647    2.6493    2.0982 O   0  0  0  0  0  0  0  0  0  0  0  0
    8.2635    1.5973    2.4067 O   0  0  0  0  0  1  0  0  0  0  0  0
    5.3145    3.3127    2.8316 P   0  0  0  0  0  0  0  0  0  0  0  0
    6.1450   -2.2322    2.0987 N   0  0  0  0  0  0  0  0  0  0  0  0
   -0.1064    0.5616   -0.2681 O   0  0  0  0  0  0  0  0  0  0  0  0
    5.5395   -3.1322    2.6435 C   0  0  0  0  0  0  0  0  0  0  0  0
    8.4816   -1.7123    0.0430 O   0  0  0  0  0  0  0  0  0  0  0  0
   10.6817   -2.0002    1.1580 O   0  0  0  0  0  0  0  0  0  0  0  0
    4.4334   -3.1858    2.6024 N   0  0  0  0  0  0  0  0  0  0  0  0
    3.7929   -0.0611    0.2547 C   0  0  0  0  0  0  0  0  0  0  0  0
    8.3092   -2.5103    2.5427 C   0  0  0  0  0  0  0  0  0  0  0  0
   -0.0201    2.9524   -0.1509 O   0  0  0  0  0  0  0  0  0  0  0  0
    3.0634    2.3293    0.7087 C   0  0  0  0  0  0  0  0  0  0  0  0
    8.6033   -0.4950    3.2588 O   0  0  0  0  0  0  0  0  0  0  0  0
    7.8852    2.3306    3.0895 P   0  0  0  0  0  4  0  0  0  0  0  0
    5.3022   -1.6350    1.6661 C   0  0  0  0  0  0  0  0  0  0  0  0
    2.4706    2.5812    0.0123 C   0  0  0  0  0  0  0  0  0  0  0  0
    9.2632   -0.9496    1.5799 C   0  0  0  0  0  0  0  0  0  0  0  0
  4  3  1  0
  6  4  1  0
  7  2  1  0
 13  8  1  0
 13  9  1  0
 13 11  1  0
 14  5  1  0
 15  6  1  0
 16 14  1  0
 17  5  1  0
 19  2  2  0
 19 16  1  0
 20  3  1  0
 20  7  1  0
 21  5  1  0
 22  6  1  0
 23  9  1  0
 24  1  1  0
 25 10  1  0
 25 11  1  0
 25 12  1  0
 26  2  1  0
 26 14  1  0
 27  4  1  0
 27  6  1  0
 27 23  1  0
 28  1  1  0
 28  5  1  0
 28 18  1  0
M  RAD  2  12   2  25   2
M  END
>  <ID>  (1) 
conformer_0

$$$$
