
     RDKit          3D

 29 31  0  0  0  0  0  0  0  0999 V2000
    3.6695   -0.2447    0.1415 C   0  0  0  0  0  0  0  0  0  0  0  0
    7.9110   -1.6359    1.6520 C   0  0  0  0  0  0  0  0  0  0  0  0
    5.1169   -1.6978    1.6560 C   0  0  0  0  0  0  0  0  0  0  0  0
    2.0664    2.3471   -0.6395 C   0  0  0  0  0  0  0  0  0  0  0  0
    8.7350   -2.3173    2.2866 C   0  0  0  0  0  0  0  0  0  0  0  0
    2.2948   -0.1044    0.1266 C   0  0  0  0  0  0  0  0  0  0  0  0
    4.6528    4.4417    1.5724 O   0  0  0  0  0  0  0  0  0  0  0  0
    5.0066    3.4341    3.8209 O   0  0  0  0  0  0  0  0  0  0  0  0
    6.3552   -2.0906    2.1314 N   0  0  0  0  0  0  0  0  0  0  0  0
    5.3722   -2.9368    2.4960 C   0  0  0  0  0  0  0  0  0  0  0  0
    6.3046    2.7773    2.1991 O   0  0  0  0  0  1  0  0  0  0  0  0
    7.9874    2.3558    3.2252 P   0  0  0  0  0  4  0  0  0  0  0  0
    8.6460    0.7927    3.4604 O   0  0  0  0  0  0  0  0  0  0  0  0
    3.6483   -1.3709    1.1841 N   0  0  0  0  0  0  0  0  0  0  0  0
    0.1645    0.1593    0.0951 O   0  0  0  0  0  0  0  0  0  0  0  0
    9.7941   -1.2229    2.1816 C   0  0  0  0  0  0  0  0  0  0  0  0
    8.5056   -1.5593    3.7041 O   0  0  0  0  0  0  0  0  0  0  0  0
    9.9574   -2.7570    0.8971 O   0  0  0  0  0  0  0  0  0  0  0  0
    7.9808    3.1134    3.8946 O   0  0  0  0  0  0  0  0  0  0  0  0
    4.1430   -3.1050    2.5510 N   0  0  0  0  0  0  0  0  0  0  0  0
    0.8209    1.8529   -0.0036 C   0  0  0  0  0  0  0  0  0  0  0  0
    8.2005   -1.2860   -0.0051 O   0  0  0  0  0  0  0  0  0  0  0  0
    3.3046    1.8255    1.2610 O   0  0  0  0  0  0  0  0  0  0  0  0
    5.3275    3.4212    2.6582 P   0  0  0  0  0  4  0  0  0  0  0  0
    2.7473    2.0284    0.4867 C   0  0  0  0  0  0  0  0  0  0  0  0
    8.3619    2.1758    1.9239 O   0  0  0  0  0  1  0  0  0  0  0  0
    3.2125   -2.2607    1.8297 C   0  0  0  0  0  0  0  0  0  0  0  0
    9.6834   -0.2082    3.2577 C   0  0  0  0  0  0  0  0  0  0  0  0
   -0.5278    2.0674   -0.4047 O   0  0  0  0  0  0  0  0  0  0  0  0
  5  2  1  0
  6  1  1  0
  6  4  1  0
  9  2  1  0
  9  3  1  0
 10  3  2  0
 10  9  1  0
 13 12  1  0
 14  1  1  0
 14  3  1  0
 16  5  1  0
 17  5  1  0
 18  5  1  0
 19 12  1  0
 20 10  1  0
 21  4  1  0
 21 15  1  0
 22  2  1  0
 24  7  1  0
 24  8  1  0
 24 11  1  0
 25  4  1  0
 25  7  1  0
 25 23  2  0
 26 12  1  0
 27 14  1  0
 27 20  2  0
 28 13  1  0
 28 16  1  0
 28 17  1  0
 29 21  1  0
M  RAD  4  11   2  12   2  24   2  26   2
M  END
>  <ID>  (1) 
conformer_0

$$$$
