
     RDKit          3D

 27 27  0  0  0  0  0  0  0  0999 V2000
    7.8984   -1.8441    1.6372 C   0  0  0  0  0  0  0  0  0  0  0  0
    3.9469   -0.3428    0.2162 C   0  0  0  0  0  0  0  0  0  0  0  0
    8.8345   -1.7468    1.9998 C   0  0  0  0  0  0  0  0  0  0  0  0
    5.2967   -2.6463    2.4311 C   0  0  0  0  0  0  0  0  0  0  0  0
    1.7147    2.3749   -0.3380 C   0  0  0  0  0  0  0  0  0  0  0  0
    2.4358   -0.0910    0.2248 C   0  0  0  0  0  0  0  0  0  0  0  0
    4.5959    4.1866    1.7372 O   0  0  0  0  0  0  0  0  0  0  0  0
    3.8128   -1.5163    1.2527 N   0  0  0  0  0  0  0  0  0  0  0  0
   -0.4014    1.0469   -0.3649 O   0  0  0  0  0  0  0  0  0  0  0  0
    3.0953    2.7095    0.7351 C   0  0  0  0  0  0  0  0  0  0  0  0
    3.1219    1.4816    1.2479 O   0  0  0  0  0  0  0  0  0  0  0  0
    8.5630    0.3256    3.4202 O   0  0  0  0  0  0  0  0  0  0  0  0
    8.2267    2.0919    3.2279 P   0  0  0  0  0  4  0  0  0  0  0  0
    9.6634   -0.6602    2.8233 C   0  0  0  0  0  0  0  0  0  0  0  0
    5.1009    3.2407    3.9342 O   0  0  0  0  0  0  0  0  0  0  0  0
    9.2378   -2.7779    0.2509 O   0  0  0  0  0  0  0  0  0  0  0  0
    7.7903    2.9365    4.2250 O   0  0  0  0  0  0  0  0  0  0  0  0
    6.4225    2.3788    2.2158 O   0  0  0  0  0  1  0  0  0  0  0  0
   10.9650   -1.5543    1.8668 O   0  0  0  0  0  0  0  0  0  0  0  0
    8.8366    2.3676    2.4322 O   0  0  0  0  0  1  0  0  0  0  0  0
    5.3552   -3.1791    3.0575 N   0  0  0  0  0  0  0  0  0  0  0  0
    7.6503   -1.0728    0.1433 O   0  0  0  0  0  0  0  0  0  0  0  0
    3.8328   -2.2269    1.8333 C   0  0  0  0  0  0  0  0  0  0  0  0
    1.2827    1.5342    0.0504 C   0  0  0  0  0  0  0  0  0  0  0  0
    3.5861   -3.1857    2.6477 C   0  0  0  0  0  0  0  0  0  0  0  0
    5.8798   -2.1308    2.0473 N   0  0  0  0  0  0  0  0  0  0  0  0
    5.4696    2.9900    2.7660 P   0  0  0  0  0  4  0  0  0  0  0  0
  3  1  1  0
  4  1  1  0
  6  2  1  0
  8  2  1  0
 10  5  1  0
 10  7  1  0
 11 10  2  0
 13 12  1  0
 14  3  1  0
 14 12  1  0
 16  3  1  0
 17 13  1  0
 19 14  1  0
 20 13  1  0
 21  4  1  0
 22  1  1  0
 23  4  1  0
 23  8  1  0
 24  5  1  0
 24  6  1  0
 24  9  1  0
 25 21  1  0
 25 23  2  0
 26  4  1  0
 27  7  1  0
 27 15  1  0
 27 18  1  0
M  RAD  4  13   2  18   2  20   2  27   2
M  END
>  <ID>  (1) 
conformer_0

$$$$
