
     RDKit          3D

 27 27  0  0  0  0  0  0  0  0999 V2000
    8.6454   -2.0583    1.6600 C   0  0  0  0  0  0  0  0  0  0  0  0
    3.5664   -0.5041   -0.1399 C   0  0  0  0  0  0  0  0  0  0  0  0
    5.0964   -1.5616    1.4719 C   0  0  0  0  0  0  0  0  0  0  0  0
    2.3374    0.3197   -0.0622 C   0  0  0  0  0  0  0  0  0  0  0  0
    9.5647   -0.9766    2.2360 C   0  0  0  0  0  0  0  0  0  0  0  0
    2.3064    2.3525   -0.6760 C   0  0  0  0  0  0  0  0  0  0  0  0
    0.1402    3.6299   -0.2308 O   0  0  0  0  0  0  0  0  0  0  0  0
    5.9620   -2.1791    2.1515 N   0  0  0  0  0  0  0  0  0  0  0  0
    4.6248    4.1660    1.7260 O   0  0  0  0  0  0  0  0  0  0  0  0
    9.2672   -2.2873    0.0424 O   0  0  0  0  0  0  0  0  0  0  0  0
    4.1568   -3.0711    2.7192 N   0  0  0  0  0  0  0  0  0  0  0  0
    5.3358    3.0772    3.9691 O   0  0  0  0  0  0  0  0  0  0  0  0
    8.6225   -1.9119    3.7248 O   0  0  0  0  0  0  0  0  0  0  0  0
    6.7319    2.6738    3.0720 P   0  0  0  0  0  5  0  0  0  0  0  0
    9.3084    0.2295    3.0293 C   0  0  0  0  0  0  0  0  0  0  0  0
    8.2872    0.3930    3.1340 O   0  0  0  0  0  0  0  0  0  0  0  0
    2.9383    2.8484    1.0067 C   0  0  0  0  0  0  0  0  0  0  0  0
    3.6523   -1.1643    1.0212 N   0  0  0  0  0  0  0  0  0  0  0  0
    3.3111   -2.3690    1.9411 C   0  0  0  0  0  0  0  0  0  0  0  0
   -0.0906    1.1682   -0.2901 O   0  0  0  0  0  0  0  0  0  0  0  0
    7.5518    2.8488    4.2458 O   0  0  0  0  0  0  0  0  0  0  0  0
    6.2383    2.4869    2.0501 O   0  0  0  0  0  0  0  0  0  0  0  0
    1.1357    2.2283    0.1586 C   0  0  0  0  0  0  0  0  0  0  0  0
    7.6857   -1.9797    2.3404 C   0  0  0  0  0  0  0  0  0  0  0  0
    7.6719   -1.1606    0.2422 O   0  0  0  0  0  0  0  0  0  0  0  0
    4.9975   -3.0101    2.7236 C   0  0  0  0  0  0  0  0  0  0  0  0
    8.4978    2.4178    2.4242 O   0  0  0  0  0  0  0  0  0  0  0  0
  4  2  1  0
  5  1  1  0
  6  4  1  0
  8  3  1  0
 10  1  1  0
 14  9  1  0
 14 12  1  0
 15  5  1  0
 16 15  1  0
 17  6  1  0
 17  9  1  0
 18  2  1  0
 18  3  1  0
 19 11  1  0
 19 18  1  0
 21 14  1  0
 22 14  1  0
 23  6  1  0
 23  7  1  0
 23 20  1  0
 24  1  1  0
 24  8  1  0
 24 13  2  0
 25  1  1  0
 26  8  1  0
 26 11  2  0
 27 22  1  0
M  END
>  <ID>  (1) 
conformer_0

$$$$
