
     RDKit          3D

 31 32  0  0  0  0  0  0  0  0999 V2000
    5.2210   -1.9843    1.7217 C   0  0  0  0  0  0  0  0  0  0  0  0
    8.2927   -2.4674    2.2965 C   0  0  0  0  0  0  0  0  0  0  0  0
    1.8676    1.7241   -0.5667 C   0  0  0  0  0  0  0  0  0  0  0  0
    2.4859    0.5244    0.2760 C   0  0  0  0  0  0  0  0  0  0  0  0
    9.4817   -1.1704    2.1373 C   0  0  0  0  0  0  0  0  0  0  0  0
    3.2386    2.8335    0.9441 C   0  0  0  0  0  0  0  0  0  0  0  0
    0.4629    1.6725   -0.1666 C   0  0  0  0  0  0  0  0  0  0  0  0
    6.1637   -2.2542    2.1147 N   0  0  0  0  0  0  0  0  0  0  0  0
    4.6447    4.2950    1.9126 O   0  0  0  0  0  0  0  0  0  0  0  0
    5.4792   -3.1517    2.7894 C   0  0  0  0  0  0  0  0  0  0  0  0
    7.6960    2.8266    4.2999 O   0  0  0  0  0  0  0  0  0  0  0  0
    7.8222    2.3338    3.1789 P   0  0  0  0  0  0  0  0  0  0  0  0
    9.1265   -0.2274    3.3177 C   0  0  0  0  0  0  0  0  0  0  0  0
    6.3263    2.7045    2.2264 O   0  0  0  0  0  1  0  0  0  0  0  0
   -0.4241    2.9159   -0.4848 O   0  0  0  0  0  0  0  0  0  0  0  0
    9.2970   -3.1488    0.6505 O   0  0  0  0  0  0  0  0  0  0  0  0
    5.1258    3.0250    4.0184 O   0  0  0  0  0  0  0  0  0  0  0  0
    4.0141   -3.1476    2.5421 N   0  0  0  0  0  0  0  0  0  0  0  0
    8.8557    2.6474    2.1466 O   0  0  0  0  0  0  0  0  0  0  0  0
    3.7293   -1.0191    0.9775 N   0  0  0  0  0  0  0  0  0  0  0  0
   10.7854   -1.6427    1.6355 O   0  0  0  0  0  0  0  0  0  0  0  0
    8.1354   -1.6242    3.5761 O   0  0  0  0  0  0  0  0  0  0  0  0
    9.9563    0.5050    4.3107 O   0  0  0  0  0  0  0  0  0  0  0  0
    1.9045    2.8820    0.0013 C   0  0  0  0  0  0  0  0  0  0  0  0
    7.7822   -1.0458    0.2983 O   0  0  0  0  0  0  0  0  0  0  0  0
    9.9525   -0.8362   -0.1749 C   0  0  0  0  0  0  0  0  0  0  0  0
    5.2575    3.2658    2.9576 P   0  0  0  0  0  4  0  0  0  0  0  0
    4.0095   -0.3077    0.1227 C   0  0  0  0  0  0  0  0  0  0  0  0
    3.5201   -2.2047    1.7172 C   0  0  0  0  0  0  0  0  0  0  0  0
    8.1326    0.8967    2.9043 O   0  0  0  0  0  0  0  0  0  0  0  0
    8.0073   -1.4183    1.4432 C   0  0  0  0  0  0  0  0  0  0  0  0
  4  3  1  0
  7  3  1  0
  8  1  1  0
  9  6  1  0
 10  8  1  0
 12 11  1  0
 13  5  1  0
 15  7  1  0
 16  2  1  0
 18 10  1  0
 19 12  1  0
 21  5  1  0
 22  2  1  0
 22 13  1  0
 23 13  1  0
 24  3  1  0
 24  6  1  0
 26  5  1  0
 27  9  1  0
 27 14  1  0
 27 17  1  0
 28  4  1  0
 28 20  1  0
 29  1  1  0
 29 18  2  0
 29 20  1  0
 30 12  1  0
 30 13  1  0
 31  2  1  0
 31  5  1  0
 31  8  1  0
 31 25  1  0
M  RAD  2  14   2  27   2
M  END
>  <ID>  (1) 
conformer_0

$$$$
