
     RDKit          3D

 29 29  0  0  0  0  0  0  0  0999 V2000
    9.4563   -0.8393    2.8855 C   0  0  0  0  0  0  0  0  0  0  0  0
    5.4287   -3.0151    2.8360 C   0  0  0  0  0  0  0  0  0  0  0  0
    0.7630    2.2188    0.1165 C   0  0  0  0  0  0  0  0  0  0  0  0
    2.3802    2.3277   -0.4094 C   0  0  0  0  0  0  0  0  0  0  0  0
    3.7300   -0.3615   -0.2624 C   0  0  0  0  0  0  0  0  0  0  0  0
    9.5230   -1.3293    1.6178 C   0  0  0  0  0  0  0  0  0  0  0  0
    5.9503   -2.1287    1.9308 N   0  0  0  0  0  0  0  0  0  0  0  0
    4.6492    3.5895    3.7923 O   0  0  0  0  0  0  0  0  0  0  0  0
    0.1911    3.6345   -0.2634 O   0  0  0  0  0  0  0  0  0  0  0  0
    3.2813   -1.9190    1.4677 C   0  0  0  0  0  0  0  0  0  0  0  0
    6.6137    2.3055    2.2414 O   0  0  0  0  0  0  0  0  0  0  0  0
    2.9218    2.8599    0.8077 C   0  0  0  0  0  0  0  0  0  0  0  0
    8.5604    0.1561    3.1289 O   0  0  0  0  0  0  0  0  0  0  0  0
   -0.2230    0.7829   -0.1771 O   0  0  0  0  0  0  0  0  0  0  0  0
    7.8621    2.1631    3.0426 P   0  0  0  0  0  0  0  0  0  0  0  0
    7.8888   -0.9348    0.0436 O   0  0  0  0  0  0  0  0  0  0  0  0
    7.2462    2.8509    4.1467 O   0  0  0  0  0  0  0  0  0  0  0  0
    3.7584   -1.0197    0.6169 N   0  0  0  0  0  0  0  0  0  0  0  0
    4.1565   -2.8974    2.5818 N   0  0  0  0  0  0  0  0  0  0  0  0
    7.5555   -1.6115    1.3251 C   0  0  0  0  0  0  0  0  0  0  0  0
   11.0685   -1.7321    1.1871 O   0  0  0  0  0  0  0  0  0  0  0  0
    5.0638    4.5140    1.7383 O   0  0  0  0  0  0  0  0  0  0  0  0
    4.9790    3.3129    2.7240 P   0  0  0  0  0  0  0  0  0  0  0  0
    8.8253    2.3077    2.5800 O   0  0  0  0  0  0  0  0  0  0  0  0
    1.9556    0.4947   -0.2382 C   0  0  0  0  0  0  0  0  0  0  0  0
    5.0751   -1.9052    1.5673 C   0  0  0  0  0  0  0  0  0  0  0  0
    3.9692    2.6565    1.6924 O   0  0  0  0  0  0  0  0  0  0  0  0
    8.5259   -2.4724    2.4703 C   0  0  0  0  0  0  0  0  0  0  0  0
    9.2670   -2.6751    0.2082 O   0  0  0  0  0  0  0  0  0  0  0  0
  4  3  1  0
  6  1  1  0
  7  2  1  0
  9  3  1  0
 12  4  1  0
 13  1  1  0
 14  3  1  0
 15 11  1  0
 17 15  1  0
 18  5  1  0
 18 10  1  0
 19  2  1  0
 19 10  2  0
 20  7  1  0
 20 16  1  0
 21  6  1  0
 23  8  1  0
 23 22  1  0
 24  1  1  0
 24 15  1  0
 25  4  1  0
 25  5  1  0
 26  7  1  0
 26 10  1  0
 27 12  1  0
 27 23  1  0
 28  6  1  0
 28 20  1  0
 29  6  1  0
M  END
>  <ID>  (1) 
conformer_0

$$$$
