
     RDKit          3D

 31 34  0  0  0  0  0  0  0  0999 V2000
    9.7022   -0.4631    2.0013 C   0  0  0  0  0  0  0  0  0  0  0  0
    2.8519   -0.6126    0.4498 C   0  0  1  0  0  0  0  0  0  0  0  0
    5.3443   -2.4985    2.5799 C   0  0  0  0  0  0  0  0  0  0  0  0
    9.2218   -2.2479    1.7516 C   0  0  1  0  0  0  0  0  0  0  0  0
    1.8855    2.8080   -0.3260 C   0  0  1  0  0  0  0  0  0  0  0  0
    4.0761   -0.2085   -0.1363 C   0  0  0  0  0  0  0  0  0  0  0  0
    7.6884    3.0204    4.0730 O   0  0  0  0  0  0  0  0  0  0  0  0
    4.8333    4.3868    1.9448 O   0  0  0  0  0  0  0  0  0  0  0  0
    9.0734    2.7665    2.3083 O   0  0  0  0  0  0  0  0  0  0  0  0
    3.6872   -1.3555    1.2009 N   0  0  0  0  0  0  0  0  0  0  0  0
    4.9978    3.0670    3.8641 O   0  0  0  0  0  0  0  0  0  0  0  0
    8.4890   -1.1762    3.5134 O   0  0  0  0  0  0  0  0  0  0  0  0
    5.2100    3.2475    2.8244 P   0  0  2  0  0  4  0  0  0  0  0  0
   -0.3542    0.9524   -0.4282 O   0  0  0  0  0  0  0  0  0  0  0  0
    9.3867   -2.6100    0.3284 O   0  0  0  0  0  0  0  0  0  0  0  0
    9.1982   -0.1342    3.0930 C   0  0  2  0  0  0  0  0  0  0  0  0
    2.7915    1.1674    1.2891 O   0  0  0  0  0  0  0  0  0  0  0  0
    1.5841    0.6842    0.1274 C   0  0  2  0  0  0  0  0  0  0  0  0
    0.1540    3.3697   -0.3797 O   0  0  0  0  0  0  0  0  0  0  0  0
    3.9548   -2.1068    1.9310 C   0  0  0  0  0  0  0  0  0  0  0  0
    2.8621    2.5171    0.6802 C   0  0  1  0  0  0  0  0  0  0  0  0
    4.5179   -3.0682    2.9074 N   0  0  0  0  0  0  0  0  0  0  0  0
    6.2905    2.5245    2.0903 O   0  0  0  0  0  1  0  0  0  0  0  0
    5.8421   -2.1682    2.2551 N   0  0  0  0  0  0  0  0  0  0  0  0
    7.8562    2.3966    3.1096 P   0  0  0  0  0  0  0  0  0  0  0  0
    8.4455   -0.8121    0.0481 O   0  0  0  0  0  0  0  0  0  0  0  0
    7.7273   -1.0907    1.6630 C   0  0  1  0  0  0  0  0  0  0  0  0
    7.7691   -2.6171    2.1710 C   0  0  0  0  0  0  0  0  0  0  0  0
    7.9962    1.0658    2.8323 O   0  0  0  0  0  0  0  0  0  0  0  0
    2.2071    1.0791   -0.8732 C   0  0  0  0  0  0  0  0  0  0  0  0
    0.7785    2.3017    0.0808 C   0  0  0  0  0  0  0  0  0  0  0  0
  4  1  1  0
  2  6  1  6
 10  2  1  0
 10  6  1  0
 13  8  1  0
 13 11  1  1
  4 15  1  6
 16  1  1  0
 16 12  1  6
 18  2  1  0
 18 17  1  0
 20 10  1  0
 21  5  1  0
 21  8  1  1
 21 17  1  0
 22  3  1  0
 22 20  1  0
 23 13  1  0
 24  3  2  3
 25  7  1  0
 25  9  1  0
 27  4  1  0
 27 26  1  6
 28  3  1  0
 28  4  1  0
 28 27  1  0
 29 16  1  0
 29 25  1  0
  5 30  1  6
 18 30  1  6
 31  5  1  0
 31 14  1  0
 31 18  1  0
 31 19  1  0
M  RAD  2  13   2  23   2
M  END
>  <ID>  (1) 
conformer_0

$$$$
