
     RDKit          3D

 30 32  0  0  0  0  0  0  0  0999 V2000
    7.9760   -2.1957    2.4211 C   0  0  0  0  0  0  0  0  0  0  0  0
    0.4489    1.7583   -0.1973 C   0  0  0  0  0  0  0  0  0  0  0  0
    3.2427   -2.0905    1.7219 C   0  0  0  0  0  0  0  0  0  0  0  0
    8.0543   -1.8556    1.2295 C   0  0  0  0  0  0  0  0  0  0  0  0
    3.3941   -0.2861   -0.1021 C   0  0  0  0  0  0  0  0  0  0  0  0
    2.0957    2.1965   -0.7462 C   0  0  0  0  0  0  0  0  0  0  0  0
    0.4923    3.7395   -0.2575 O   0  0  0  0  0  0  0  0  0  0  0  0
    8.2890    2.3297    3.2105 P   0  0  0  0  0  0  0  0  0  0  0  0
    6.5345    2.3008    2.3370 O   0  0  0  0  0  1  0  0  0  0  0  0
    7.7533    2.9334    4.3356 O   0  0  0  0  0  0  0  0  0  0  0  0
    3.4806   -0.9711    1.0093 N   0  0  0  0  0  0  0  0  0  0  0  0
    9.4607   -1.4074    2.3385 C   0  0  0  0  0  0  0  0  0  0  0  0
    8.7238    0.8398    3.2549 O   0  0  0  0  0  0  0  0  0  0  0  0
    3.5055    2.1718    0.6728 C   0  0  0  0  0  0  0  0  0  0  0  0
   -0.5272    1.0142   -0.3672 O   0  0  0  0  0  0  0  0  0  0  0  0
   10.1503   -2.3634    0.8316 O   0  0  0  0  0  0  0  0  0  0  0  0
    5.2245   -2.9886    2.6241 C   0  0  0  0  0  0  0  0  0  0  0  0
    3.8036   -2.9160    2.4741 N   0  0  0  0  0  0  0  0  0  0  0  0
    5.8944   -2.2380    2.1036 N   0  0  0  0  0  0  0  0  0  0  0  0
    5.2933    3.2110    4.0106 O   0  0  0  0  0  0  0  0  0  0  0  0
    8.8820   -1.6004    3.6021 O   0  0  0  0  0  0  0  0  0  0  0  0
    4.9983    4.0853    1.8701 O   0  0  0  0  0  0  0  0  0  0  0  0
    3.2255    1.5080    1.1795 O   0  0  0  0  0  0  0  0  0  0  0  0
    8.1742   -1.6870   -0.0624 O   0  0  0  0  0  0  0  0  0  0  0  0
    2.1036    0.0766   -0.1138 C   0  0  0  0  0  0  0  0  0  0  0  0
    5.6546    2.9487    2.7772 P   0  0  0  0  0  4  0  0  0  0  0  0
    9.5863   -0.0638    3.5380 C   0  0  0  0  0  0  0  0  0  0  0  0
    9.3501    2.6300    2.6277 O   0  0  0  0  0  0  0  0  0  0  0  0
    4.8083   -1.5428    1.5598 C   0  0  0  0  0  0  0  0  0  0  0  0
    1.6646    2.6647    0.2255 C   0  0  0  0  0  0  0  0  0  0  0  0
  4  1  1  0
 10  8  1  0
 11  3  1  0
 11  5  1  0
 12  1  1  0
 13  8  1  0
 15  2  1  0
 16 12  1  0
 18  3  1  0
 18 17  2  0
 19  1  1  0
 19 17  1  0
 21  1  1  0
 21 12  1  0
 22 14  1  0
 23 14  1  0
 24  4  1  0
 25  5  1  0
 25  6  1  0
 26  9  1  0
 26 20  1  0
 26 22  1  0
 27 12  1  0
 27 13  1  0
 28  8  1  0
 29  3  2  0
 29 11  1  0
 29 19  1  0
 30  2  1  0
 30  6  1  0
 30  7  1  0
 30 14  1  0
M  RAD  2   9   2  26   2
M  END
>  <ID>  (1) 
conformer_0

$$$$
