
     RDKit          3D

 30 31  0  0  0  0  0  0  0  0999 V2000
    8.1486   -1.4265    1.1969 C   0  0  0  0  0  0  0  0  0  0  0  0
    1.9464    0.6802   -0.0464 C   0  0  0  0  0  0  0  0  0  0  0  0
    5.4353   -2.8285    2.5865 C   0  0  0  0  0  0  0  0  0  0  0  0
    8.6648   -2.2425    2.1901 C   0  0  0  0  0  0  0  0  0  0  0  0
    3.2599   -0.0508    0.0261 C   0  0  0  0  0  0  0  0  0  0  0  0
    1.2011    2.0329    0.1371 C   0  0  0  0  0  0  0  0  0  0  0  0
    9.6973   -1.0363    2.3492 C   0  0  0  0  0  0  0  0  0  0  0  0
    8.2817    0.8372    2.7576 O   0  0  0  0  0  0  0  0  0  0  0  0
    3.3977   -2.1665    1.8605 C   0  0  0  0  0  0  0  0  0  0  0  0
    4.5890    3.3962    3.9660 O   0  0  0  0  0  0  0  0  0  0  0  0
    4.7534    4.3178    1.8698 O   0  0  0  0  0  0  0  0  0  0  0  0
    6.4830   -2.0310    1.9867 N   0  0  0  0  0  0  0  0  0  0  0  0
    0.4388    3.5596   -0.1855 O   0  0  0  0  0  0  0  0  0  0  0  0
    5.0500    3.2228    2.8889 P   0  0  0  0  0  0  0  0  0  0  0  0
    8.4814   -1.7891    3.3490 O   0  0  0  0  0  0  0  0  0  0  0  0
   -0.3562    0.9971   -0.1923 O   0  0  0  0  0  0  0  0  0  0  0  0
    4.3145   -0.2605   -1.0026 O   0  0  0  0  0  0  0  0  0  0  0  0
    8.4733   -1.7507   -0.1987 O   0  0  0  0  0  0  0  0  0  0  0  0
    3.7547   -1.1127    1.1484 N   0  0  0  0  0  0  0  0  0  0  0  0
    4.0775   -2.9217    2.5279 N   0  0  0  0  0  0  0  0  0  0  0  0
    3.3422    1.7570    1.2198 O   0  0  0  0  0  0  0  0  0  0  0  0
   10.4940   -2.1363    0.9843 O   0  0  0  0  0  0  0  0  0  0  0  0
    6.0887    2.2494    2.2174 O   0  0  0  0  0  0  0  0  0  0  0  0
    6.6073    2.8812    4.3190 O   0  0  0  0  0  0  0  0  0  0  0  0
    5.1490   -1.6365    1.5059 C   0  0  0  0  0  0  0  0  0  0  0  0
    2.9893    2.8921    0.7933 C   0  0  0  0  0  0  0  0  0  0  0  0
    2.1882    2.4040   -0.2366 C   0  0  0  0  0  0  0  0  0  0  0  0
    9.3656    0.1390    3.5164 C   0  0  0  0  0  0  0  0  0  0  0  0
    8.2242    2.9433    2.7412 O   0  0  0  0  0  0  0  0  0  0  0  0
    7.4574    2.2793    3.1103 P   0  0  0  0  0  0  0  0  0  0  0  0
  4  1  1  0
  5  2  1  0
  6  2  1  0
  7  4  1  0
 12  1  1  0
 12  3  1  0
 13  6  1  0
 14 10  1  0
 14 11  1  0
 15  4  1  0
 16  6  1  0
 17  5  1  0
 18  1  1  0
 19  5  1  0
 19  9  1  0
 20  3  1  0
 20  9  2  0
 22  7  1  0
 23 14  1  0
 25  3  2  0
 25 12  1  0
 25 19  1  0
 26 11  1  0
 26 21  2  0
 27  6  1  0
 27 26  1  0
 28  7  1  0
 28  8  1  0
 30 23  1  0
 30 24  1  0
 30 29  1  0
M  END
>  <ID>  (1) 
conformer_0

$$$$
