
     RDKit          3D

 31 34  0  0  0  0  0  0  0  0999 V2000
    9.1077   -1.9299    1.0015 C   0  0  0  0  0  0  0  0  0  0  0  0
    3.8500   -2.4231    1.9585 C   0  0  0  0  0  0  0  0  0  0  0  0
    3.6758   -0.6392    0.2726 C   0  0  0  0  0  0  0  0  0  0  0  0
    2.5425    2.4264   -0.3427 C   0  0  0  0  0  0  0  0  0  0  0  0
    0.8914    2.1163   -0.1448 C   0  0  0  0  0  0  0  0  0  0  0  0
    7.5746   -1.0517    1.3842 C   0  0  0  0  0  0  0  0  0  0  0  0
    4.7834    3.5549    3.8408 O   0  0  0  0  0  0  0  0  0  0  0  0
    6.2768   -2.1744    2.1409 N   0  0  0  0  0  0  0  0  0  0  0  0
    8.5765   -1.3857    3.6041 O   0  0  0  0  0  0  0  0  0  0  0  0
    3.1770    2.9151    0.8300 C   0  0  0  0  0  0  0  0  0  0  0  0
    8.3806    0.6612    3.0555 O   0  0  0  0  0  0  0  0  0  0  0  0
    7.6590    2.4229    3.1671 P   0  0  0  0  0  0  0  0  0  0  0  0
    6.0897    2.4230    2.1626 O   0  0  0  0  0  0  0  0  0  0  0  0
    7.8680   -0.7016   -0.1862 O   0  0  0  0  0  0  0  0  0  0  0  0
   -0.4830    0.9972   -0.2112 O   0  0  0  0  0  0  0  0  0  0  0  0
    7.0869    3.1135    4.1608 O   0  0  0  0  0  0  0  0  0  0  0  0
   10.8504   -2.3473    1.3604 O   0  0  0  0  0  0  0  0  0  0  0  0
    5.7626   -3.1415    2.7340 C   0  0  0  0  0  0  0  0  0  0  0  0
    3.8010   -1.3661    1.1459 N   0  0  0  0  0  0  0  0  0  0  0  0
    8.6124    0.0930    2.6021 C   0  0  0  0  0  0  0  0  0  0  0  0
    4.3321   -3.0080    2.7656 N   0  0  0  0  0  0  0  0  0  0  0  0
    0.0664    3.2571   -0.2617 O   0  0  0  0  0  0  0  0  0  0  0  0
    4.7616    4.3761    1.8576 O   0  0  0  0  0  0  0  0  0  0  0  0
    8.2191   -2.5892    2.5007 C   0  0  0  0  0  0  0  0  0  0  0  0
    5.1656    3.4556    2.8312 P   0  0  0  0  0  0  0  0  0  0  0  0
    2.3009    0.3831    0.2550 C   0  0  0  0  0  0  0  0  0  0  0  0
    2.1959    0.9202   -0.8482 C   0  0  0  0  0  0  0  0  0  0  0  0
    5.4238   -1.6746    1.6197 C   0  0  0  0  0  0  0  0  0  0  0  0
    9.2083   -2.3469   -0.0911 O   0  0  0  0  0  0  0  0  0  0  0  0
    8.2055    2.7576    2.5160 O   0  0  0  0  0  0  0  0  0  0  0  0
    9.7298   -1.3448    2.3736 C   0  0  0  0  0  0  0  0  0  0  0  0
  5  4  1  0
  6  1  1  0
  8  6  1  0
 10  4  1  0
 13 12  1  0
 14  6  1  0
 15  5  1  0
 16 12  1  0
 18  8  1  0
 19  2  1  0
 19  3  1  0
 20  6  1  0
 20 11  2  0
 21  2  1  0
 21 18  1  0
 22  5  1  0
 23 10  1  0
 24  1  1  0
 24  9  1  0
 25  7  1  0
 25 13  1  0
 25 23  1  0
 26  3  1  0
 27  4  1  0
 27  5  1  0
 27 26  1  0
 28  8  1  0
 28 19  1  0
 29  1  1  0
 30 12  1  0
 31  1  1  0
 31  9  1  0
 31 17  1  0
 31 20  1  0
M  END
>  <ID>  (1) 
conformer_0

$$$$
