
     RDKit          3D

 29 31  0  0  0  0  0  0  0  0999 V2000
    7.9362   -2.0358    2.1903 C   0  0  0  0  0  0  0  0  0  0  0  0
    3.7060   -0.2663    0.0920 C   0  0  0  0  0  0  0  0  0  0  0  0
    3.7145   -2.2437    1.8020 C   0  0  0  0  0  0  0  0  0  0  0  0
    2.0090    1.5022   -0.7889 C   0  0  0  0  0  0  0  0  0  0  0  0
    8.8582   -2.3406    1.7813 C   0  0  0  0  0  0  0  0  0  0  0  0
    0.5428    1.9948   -0.1112 C   0  0  0  0  0  0  0  0  0  0  0  0
    7.3392    2.1998    3.2730 P   0  0  0  0  0  0  0  0  0  0  0  0
    4.7516    3.3714    3.8907 O   0  0  0  0  0  0  0  0  0  0  0  0
    9.6163   -0.8712    2.2142 C   0  0  0  0  0  0  0  0  0  0  0  0
    0.0410    3.7663   -0.1977 O   0  0  0  0  0  0  0  0  0  0  0  0
    6.3467   -2.2484    2.3019 N   0  0  0  0  0  0  0  0  0  0  0  0
    8.4572    1.5123    2.7079 O   0  0  0  0  0  0  0  0  0  0  0  0
    8.6686   -1.6179    3.5661 O   0  0  0  0  0  0  0  0  0  0  0  0
    6.4318    2.5222    2.1975 O   0  0  0  0  0  0  0  0  0  0  0  0
    4.2076   -2.7677    2.6688 N   0  0  0  0  0  0  0  0  0  0  0  0
    6.9918    2.2529    4.2968 O   0  0  0  0  0  0  0  0  0  0  0  0
   -0.4568    0.9251   -0.2281 O   0  0  0  0  0  0  0  0  0  0  0  0
    9.0946   -3.3541    0.4123 O   0  0  0  0  0  0  0  0  0  0  0  0
    5.4986   -2.8853    2.7575 C   0  0  0  0  0  0  0  0  0  0  0  0
    8.1650   -1.0423    0.2649 O   0  0  0  0  0  0  0  0  0  0  0  0
    3.8487   -1.2299    1.1059 N   0  0  0  0  0  0  0  0  0  0  0  0
    4.5845    4.1153    1.6903 O   0  0  0  0  0  1  0  0  0  0  0  0
    2.5023    2.8421    0.4738 C   0  0  0  0  0  0  0  0  0  0  0  0
    2.2891    0.0404    0.0711 C   0  0  0  0  0  0  0  0  0  0  0  0
    4.9373    3.2235    2.6838 P   0  0  0  0  0  4  0  0  0  0  0  0
   10.6904   -1.8721    0.9631 O   0  0  0  0  0  0  0  0  0  0  0  0
    2.0304    2.9211   -0.2534 C   0  0  0  0  0  0  0  0  0  0  0  0
    9.5947    0.0823    3.2962 C   0  0  0  0  0  0  0  0  0  0  0  0
    5.4412   -1.5744    1.4603 C   0  0  0  0  0  0  0  0  0  0  0  0
  5  1  1  0
  6  4  1  0
  9  5  1  0
 10  6  1  0
 11  1  1  0
 12  7  1  0
 13  1  1  0
 13  9  1  0
 14  7  1  0
 15  3  1  0
 16  7  1  0
 17  6  1  0
 18  5  1  0
 19 11  1  0
 19 15  2  0
 20  5  1  0
 21  2  1  0
 21  3  1  0
 24  2  1  0
 24  4  1  0
 25  8  1  0
 25 14  1  0
 25 22  1  0
 26  9  1  0
 27  4  1  0
 27  6  1  0
 27 23  1  0
 28  9  1  0
 28 12  1  0
 29 11  1  0
 29 21  1  0
M  RAD  2  22   2  25   2
M  END
>  <ID>  (1) 
conformer_0

$$$$
