
     RDKit          3D

 27 28  0  0  0  0  0  0  0  0999 V2000
    9.5841   -1.9022    1.9681 C   0  0  0  0  0  0  0  0  0  0  0  0
    3.5164   -2.1553    1.7334 C   0  0  0  0  0  0  0  0  0  0  0  0
    0.9498    1.6122    0.0919 C   0  0  0  0  0  0  0  0  0  0  0  0
    2.2525    1.9066   -0.7369 C   0  0  2  0  0  0  0  0  0  0  0  0
    7.9683   -2.0953    2.3265 C   0  0  2  0  0  0  0  0  0  0  0  0
    2.8411   -0.2427    0.2372 C   0  0  0  0  0  0  0  0  0  0  0  0
    5.4273    3.3187    2.8668 P   0  0  0  0  0  4  0  0  0  0  0  0
    6.1338   -2.1838    2.0620 N   0  0  0  0  0  0  0  0  0  0  0  0
    4.9525    4.2910    1.8633 O   0  0  0  0  0  1  0  0  0  0  0  0
    5.0558    4.0627    3.9800 O   0  0  0  0  0  0  0  0  0  0  0  0
    7.7321    3.1927    4.0987 O   0  0  0  0  0  0  0  0  0  0  0  0
    3.9417   -2.9570    2.5538 N   0  0  0  0  0  0  0  0  0  0  0  0
    8.7504    0.1351    3.1096 O   0  0  0  0  0  0  0  0  0  0  0  0
   -0.5882    1.2385   -0.4383 O   0  0  0  0  0  0  0  0  0  0  0  0
   11.1916   -2.1323    1.2084 O   0  0  0  0  0  0  0  0  0  0  0  0
    2.6935    2.3136    0.6461 C   0  0  2  0  0  0  0  0  0  0  0  0
    5.2183   -2.9416    2.6212 C   0  0  0  0  0  0  0  0  0  0  0  0
    9.0856   -0.8573    2.7291 C   0  0  1  0  0  0  0  0  0  0  0  0
    2.7460    1.7020    1.3171 O   0  0  0  0  0  0  0  0  0  0  0  0
    3.5366   -1.1192    0.9984 N   0  0  0  0  0  0  0  0  0  0  0  0
    6.7334    2.4017    2.1554 O   0  0  0  0  0  0  0  0  0  0  0  0
    8.9646    2.2900    2.4906 O   0  0  0  0  0  0  0  0  0  0  0  0
    7.9964    2.3198    3.0149 P   0  0  0  0  0  0  0  0  0  0  0  0
    5.4251   -1.5346    1.2416 C   0  0  0  0  0  0  0  0  0  0  0  0
    0.0259    3.3126   -0.3710 O   0  0  0  0  0  0  0  0  0  0  0  0
    9.2034   -2.5394    0.3242 O   0  0  0  0  0  0  0  0  0  0  0  0
    5.1023    2.1618    3.6469 O   0  0  0  0  0  0  0  0  0  0  0  0
  4  3  1  0
  5  1  1  0
  4  6  1  1
  5  8  1  6
  9  7  1  0
 10  7  1  0
 12  2  1  0
 14  3  1  0
 15  1  1  0
 16  3  1  0
 16  4  1  0
 17  8  1  0
 17 12  2  3
 18  1  1  0
 18  5  1  0
 18 13  1  6
 16 19  1  1
 20  2  1  0
 20  6  1  0
 21  7  1  0
 22 18  1  0
 23 11  1  0
 23 21  1  0
 23 22  1  0
 24  8  1  0
 25  3  1  0
 26  1  1  0
 27  7  1  0
M  RAD  2   7   2   9   2
M  END
>  <ID>  (1) 
conformer_0

$$$$
