
     RDKit          3D

 29 31  0  0  0  0  0  0  0  0999 V2000
    9.1290   -1.6589    1.7124 C   0  0  0  0  0  0  0  0  0  0  0  0
    3.5578   -0.1492    0.0996 C   0  0  0  0  0  0  0  0  0  0  0  0
    3.3418   -2.3692    1.8406 C   0  0  0  0  0  0  0  0  0  0  0  0
    8.1086   -2.0546    1.9728 C   0  0  0  0  0  0  0  0  0  0  0  0
    2.4158    0.4348    0.1380 C   0  0  0  0  0  0  0  0  0  0  0  0
    2.2528    2.4797   -0.3944 C   0  0  0  0  0  0  0  0  0  0  0  0
    6.2943    2.1400    2.1722 O   0  0  0  0  0  0  0  0  0  0  0  0
    5.4067   -3.0694    2.7379 C   0  0  0  0  0  0  0  0  0  0  0  0
    6.4955    2.5613    3.0983 P   0  0  0  0  0  5  0  0  0  0  0  0
    8.4379    2.8421    2.4663 O   0  0  0  0  0  0  0  0  0  0  0  0
    4.9997    3.0380    4.0388 O   0  0  0  0  0  0  0  0  0  0  0  0
   11.3451   -1.8574    1.4861 O   0  0  0  0  0  0  0  0  0  0  0  0
    6.2500   -2.3598    2.1376 N   0  0  0  0  0  0  0  0  0  0  0  0
    9.7566   -0.4446    2.6806 C   0  0  0  0  0  0  0  0  0  0  0  0
    8.4829    0.6815    3.1963 O   0  0  0  0  0  0  0  0  0  0  0  0
    7.4014   -1.0249    0.1015 O   0  0  0  0  0  0  0  0  0  0  0  0
    0.9206    2.3366    0.0331 C   0  0  0  0  0  0  0  0  0  0  0  0
   -0.0729    0.7974   -0.2034 O   0  0  0  0  0  0  0  0  0  0  0  0
    3.2970    1.9843    1.6399 O   0  0  0  0  0  0  0  0  0  0  0  0
    4.4013   -3.2876    2.7898 N   0  0  0  0  0  0  0  0  0  0  0  0
    3.6428   -1.1459    1.0106 N   0  0  0  0  0  0  0  0  0  0  0  0
    7.2781    2.6867    4.2641 O   0  0  0  0  0  0  0  0  0  0  0  0
   -0.0254    3.2181   -0.4982 O   0  0  0  0  0  0  0  0  0  0  0  0
    5.0690    4.0744    1.9795 O   0  0  0  0  0  0  0  0  0  0  0  0
    3.1053    2.4355    0.9708 C   0  0  0  0  0  0  0  0  0  0  0  0
    2.6338   -1.8606    1.4742 N   0  0  0  0  0  0  0  0  0  0  0  0
    4.9628   -1.9025    1.5437 C   0  0  0  0  0  0  0  0  0  0  0  0
    8.4950   -1.3741    3.4297 O   0  0  0  0  0  0  0  0  0  0  0  0
    9.4776   -2.7729    0.5190 O   0  0  0  0  0  0  0  0  0  0  0  0
  4  1  1  0
  5  2  1  0
  6  5  1  0
  9  7  1  0
 10  7  1  0
 11  9  1  0
 12  1  1  0
 13  4  1  0
 13  8  1  0
 14  1  1  0
 15 14  1  0
 16  4  1  0
 17  6  1  0
 18 17  1  0
 20  3  2  0
 20  8  1  0
 21  2  1  0
 22  9  1  0
 23 17  1  0
 24  9  1  0
 25  6  1  0
 25 19  2  0
 25 24  1  0
 26  3  1  0
 26 21  1  0
 27  3  1  0
 27  8  2  0
 27 13  1  0
 28  4  1  0
 28 14  1  0
 29  1  1  0
M  END
>  <ID>  (1) 
conformer_0

$$$$
