
     RDKit          3D

 28 27  0  0  0  0  0  0  0  0999 V2000
    8.6351   -2.2512    2.5187 C   0  0  1  0  0  0  0  0  0  0  0  0
    3.5633    0.0412    0.2028 C   0  0  0  0  0  0  0  0  0  0  0  0
    5.5201   -2.9389    2.6404 C   0  0  0  0  0  0  0  0  0  0  0  0
    2.0550    1.4433   -0.9830 C   0  0  0  0  0  0  0  0  0  0  0  0
    8.3255   -1.9603    1.4093 C   0  0  0  0  0  0  0  0  0  0  0  0
    2.4410   -0.2338    0.0844 C   0  0  0  0  0  0  0  0  0  0  0  0
    6.1879    2.3936    2.1184 O   0  0  0  0  0  0  0  0  0  0  0  0
    6.3544    2.7309    2.9377 P   0  0  0  0  0  5  0  0  0  0  0  0
    4.9224    3.6188    4.0434 O   0  0  0  0  0  0  0  0  0  0  0  0
    3.7060   -1.4067    1.1161 N   0  0  0  0  0  0  0  0  0  0  0  0
    4.7198    4.4869    1.9390 O   0  0  0  0  0  0  0  0  0  0  0  0
    0.1307    0.5874   -0.0914 O   0  0  0  0  0  0  0  0  0  0  0  0
    9.8684   -1.1744    2.5865 C   0  0  2  0  0  0  0  0  0  0  0  0
    0.1543    3.3589    0.3392 O   0  0  0  0  0  0  0  0  0  0  0  0
    6.2973   -2.2761    2.0807 N   0  0  0  0  0  0  0  0  0  0  0  0
    3.4125   -2.4230    1.9046 C   0  0  0  0  0  0  0  0  0  0  0  0
   10.4933   -2.9070    1.5604 O   0  0  0  0  0  0  0  0  0  0  0  0
    4.8380   -3.1614    2.8063 N   0  0  0  0  0  0  0  0  0  0  0  0
    3.2701    2.6759    0.8744 C   0  0  0  0  0  0  0  0  0  0  0  0
    8.6389   -2.0040    0.1574 O   0  0  0  0  0  0  0  0  0  0  0  0
    1.3489    2.1301    0.1887 C   0  0  0  0  0  0  0  0  0  0  0  0
    3.6308    2.0190    1.5784 O   0  0  0  0  0  0  0  0  0  0  0  0
    8.0894    3.0397    2.7607 O   0  0  0  0  0  0  0  0  0  0  0  0
    9.6485    0.1538    3.3462 C   0  0  0  0  0  0  0  0  0  0  0  0
    6.0971    1.8885    3.9327 O   0  0  0  0  0  0  0  0  0  0  0  0
    5.1991   -1.6701    1.4227 C   0  0  0  0  0  0  0  0  0  0  0  0
    2.0526    2.8567   -0.3554 C   0  0  0  0  0  0  0  0  0  0  0  0
    8.4217    0.6906    2.8174 O   0  0  0  0  0  0  0  0  0  0  0  0
  1  3  1  1
  5  1  1  0
  6  2  1  0
  6  4  1  0
  8  7  1  0
  9  8  1  0
 10  2  1  0
 11  8  1  0
 13  1  1  0
 16 10  1  0
 13 17  1  1
 18  3  1  0
 18 16  2  3
 19 11  1  0
 20  5  1  0
 21  4  1  0
 21 12  1  0
 21 14  1  0
 22 19  2  0
 23  7  1  0
 24 13  1  0
 25  8  1  0
 26 10  1  0
 26 15  1  0
 27 19  1  0
 27 21  1  0
 28 24  1  0
M  END
>  <ID>  (1) 
conformer_0

$$$$
