
     RDKit          3D

 29 31  0  0  0  0  0  0  0  0999 V2000
    8.3094   -2.1899    2.2010 C   0  0  0  0  0  0  0  0  0  0  0  0
    3.3475   -0.4959    0.1840 C   0  0  0  0  0  0  0  0  0  0  0  0
    5.3489   -3.0378    2.7048 C   0  0  0  0  0  0  0  0  0  0  0  0
    2.3487    1.3054   -0.9667 C   0  0  0  0  0  0  0  0  0  0  0  0
    9.3651   -1.2446    2.1034 C   0  0  0  0  0  0  0  0  0  0  0  0
    2.0558    0.0587    0.2762 C   0  0  0  0  0  0  0  0  0  0  0  0
    3.5583   -1.4882    1.2004 N   0  0  0  0  0  0  0  0  0  0  0  0
    9.4352   -0.0974    3.4955 C   0  0  0  0  0  0  0  0  0  0  0  0
    5.0503    3.3877    4.0766 O   0  0  0  0  0  0  0  0  0  0  0  0
    6.2592    2.6946    3.1432 P   0  0  0  0  0  5  0  0  0  0  0  0
    5.9364    2.2816    2.3297 O   0  0  0  0  0  0  0  0  0  0  0  0
   -0.1388    0.8984   -0.1898 O   0  0  0  0  0  0  0  0  0  0  0  0
    4.6272    4.2896    1.7113 O   0  0  0  0  0  0  0  0  0  0  0  0
    5.9683   -2.1842    1.9989 N   0  0  0  0  0  0  0  0  0  0  0  0
    3.2455   -2.6167    2.1272 C   0  0  0  0  0  0  0  0  0  0  0  0
    0.2432    3.5310   -0.3337 O   0  0  0  0  0  0  0  0  0  0  0  0
    4.1166   -3.0006    2.7701 N   0  0  0  0  0  0  0  0  0  0  0  0
    9.8513   -2.4792    0.6305 O   0  0  0  0  0  0  0  0  0  0  0  0
    1.1416    2.1415   -0.0400 C   0  0  0  0  0  0  0  0  0  0  0  0
    8.4572   -1.9347    3.3976 O   0  0  0  0  0  0  0  0  0  0  0  0
    7.3163    2.7269    4.3630 O   0  0  0  0  0  0  0  0  0  0  0  0
    8.6632    0.7158    2.9421 O   0  0  0  0  0  0  0  0  0  0  0  0
    3.0195    2.8589    0.6383 C   0  0  0  0  0  0  0  0  0  0  0  0
    2.5376    3.0322   -0.4429 C   0  0  0  0  0  0  0  0  0  0  0  0
    8.1804   -1.2911   -0.1719 O   0  0  0  0  0  0  0  0  0  0  0  0
    7.5766   -1.3704    1.0912 C   0  0  0  0  0  0  0  0  0  0  0  0
    4.8550   -1.7504    1.5336 C   0  0  0  0  0  0  0  0  0  0  0  0
    2.8760    1.5051    1.1261 O   0  0  0  0  0  0  0  0  0  0  0  0
    8.0359    2.7502    2.3156 O   0  0  0  0  0  0  0  0  0  0  0  0
  5  1  1  0
  6  2  1  0
  6  4  1  0
  7  2  1  0
  8  5  1  0
 10  9  1  0
 11 10  1  0
 13 10  1  0
 14  3  1  0
 15  7  1  0
 17  3  1  0
 17 15  2  0
 18  5  1  0
 19  4  1  0
 19 12  1  0
 19 16  1  0
 20  1  1  0
 21 10  1  0
 22  8  1  0
 23 13  1  0
 24  4  1  0
 24 19  1  0
 24 23  1  0
 26  1  1  0
 26 14  1  0
 26 25  1  0
 27  7  1  0
 27 14  1  0
 28  6  1  0
 28 23  1  0
 29 11  1  0
M  END
>  <ID>  (1) 
conformer_0

$$$$
