
     RDKit          3D

 30 31  0  0  0  0  0  0  0  0999 V2000
    7.6075   -1.1087    2.1004 C   0  0  0  0  0  0  0  0  0  0  0  0
    2.3536   -0.2609    0.4022 C   0  0  0  0  0  0  0  0  0  0  0  0
    3.5909   -2.5552    2.0734 C   0  0  0  0  0  0  0  0  0  0  0  0
    3.9795   -0.5217    0.1370 C   0  0  0  0  0  0  0  0  0  0  0  0
    2.0327    1.5608   -1.1643 C   0  0  0  0  0  0  0  0  0  0  0  0
    8.7660   -2.0609    1.9522 C   0  0  0  0  0  0  0  0  0  0  0  0
    9.7612   -1.2591    2.1321 C   0  0  0  0  0  0  0  0  0  0  0  0
    4.7075    4.5732    1.7830 O   0  0  0  0  0  0  0  0  0  0  0  0
    0.3290    3.7632   -0.0653 O   0  0  0  0  0  0  0  0  0  0  0  0
    2.6618    2.7318    0.7380 C   0  0  0  0  0  0  0  0  0  0  0  0
    4.7212    3.0668    3.8805 O   0  0  0  0  0  0  0  0  0  0  0  0
    4.6465   -3.2762    2.7076 N   0  0  0  0  0  0  0  0  0  0  0  0
    5.5996    2.9220    2.7644 P   0  0  0  0  0  0  0  0  0  0  0  0
    3.9938   -1.7099    1.2718 N   0  0  0  0  0  0  0  0  0  0  0  0
    8.8117   -1.7234    3.8271 O   0  0  0  0  0  0  0  0  0  0  0  0
    6.8573    2.3199    1.9488 O   0  0  0  0  0  0  0  0  0  0  0  0
    9.4419   -3.0394    0.3593 O   0  0  0  0  0  0  0  0  0  0  0  0
   -0.3042    1.2379   -0.1629 O   0  0  0  0  0  0  0  0  0  0  0  0
    6.2525   -2.0554    2.2149 N   0  0  0  0  0  0  0  0  0  0  0  0
    1.2077    1.7482    0.0844 C   0  0  0  0  0  0  0  0  0  0  0  0
    5.5924   -3.1435    2.8940 C   0  0  0  0  0  0  0  0  0  0  0  0
   11.4037   -1.1871    1.6830 O   0  0  0  0  0  0  0  0  0  0  0  0
    8.4454    0.5132    2.9889 O   0  0  0  0  0  0  0  0  0  0  0  0
    6.7372    2.7740    3.9108 O   0  0  0  0  0  0  0  0  0  0  0  0
    2.5113    3.0282   -0.3665 C   0  0  0  0  0  0  0  0  0  0  0  0
    4.0788    2.4135    1.6861 O   0  0  0  0  0  0  0  0  0  0  0  0
    9.9058   -0.1029    3.3614 C   0  0  0  0  0  0  0  0  0  0  0  0
    8.3086   -1.3994    0.0821 O   0  0  0  0  0  0  0  0  0  0  0  0
    5.3080   -1.8103    1.6173 C   0  0  0  0  0  0  0  0  0  0  0  0
    2.5950    0.2603    0.4501 N   0  0  0  0  0  0  0  0  0  0  0  0
  4  2  1  0
  5  2  1  0
  6  1  1  0
  7  6  1  0
 10  8  1  0
 12  3  1  0
 13 11  1  0
 14  3  1  0
 14  4  1  0
 15  7  1  0
 16  1  1  0
 16 13  1  0
 17  6  1  0
 19  1  1  0
 20  5  1  0
 20  9  1  0
 20 10  1  0
 20 18  1  0
 21 12  2  0
 21 19  1  0
 22  7  1  0
 24 13  1  0
 25  5  1  0
 25 10  1  0
 26 10  1  0
 27  7  1  0
 27 23  1  0
 28  6  1  0
 29 14  1  0
 29 19  1  0
 30  2  1  0
M  END
>  <ID>  (1) 
conformer_0

$$$$
