
     RDKit          3D

 29 31  0  0  0  0  0  0  0  0999 V2000
    7.5715   -1.8390    1.5919 C   0  0  0  0  0  0  0  0  0  0  0  0
    2.1831    0.3965    0.0005 C   0  0  0  0  0  0  0  0  0  0  0  0
    5.2426   -2.9447    2.7084 C   0  0  0  0  0  0  0  0  0  0  0  0
    8.8681   -2.0397    1.2544 C   0  0  0  0  0  0  0  0  0  0  0  0
    2.2281    1.2915   -1.1025 C   0  0  0  0  0  0  0  0  0  0  0  0
    3.4316   -0.2565    0.2285 C   0  0  0  0  0  0  0  0  0  0  0  0
    5.0754    3.7580    3.9187 O   0  0  0  0  0  0  0  0  0  0  0  0
    4.6612    4.3930    1.7604 O   0  0  0  0  0  0  0  0  0  0  0  0
    7.8796    2.2692    3.0106 P   0  0  0  0  0  0  0  0  0  0  0  0
    3.6787   -1.1976    1.1741 N   0  0  0  0  0  0  0  0  0  0  0  0
    3.1373   -2.4006    1.8939 C   0  0  0  0  0  0  0  0  0  0  0  0
    3.1716    2.8217    0.8819 C   0  0  0  0  0  0  0  0  0  0  0  0
    0.0996    0.7256   -0.1393 O   0  0  0  0  0  0  0  0  0  0  0  0
    8.8087    2.7269    2.3370 O   0  0  0  0  0  0  0  0  0  0  0  0
    9.2643   -1.8538    2.8222 C   0  0  0  0  0  0  0  0  0  0  0  0
    0.4110    3.3728   -0.0050 O   0  0  0  0  0  0  0  0  0  0  0  0
   10.9475   -1.8537    1.4616 O   0  0  0  0  0  0  0  0  0  0  0  0
    7.4157    2.5407    4.0968 O   0  0  0  0  0  0  0  0  0  0  0  0
    5.9910   -2.0807    2.1273 N   0  0  0  0  0  0  0  0  0  0  0  0
    3.9176   -3.0486    2.5901 N   0  0  0  0  0  0  0  0  0  0  0  0
    8.7571   -1.9454   -0.1060 O   0  0  0  0  0  0  0  0  0  0  0  0
    6.2408    2.5190    2.1446 O   0  0  0  0  0  1  0  0  0  0  0  0
    5.3021    3.5005    2.8186 P   0  0  0  0  0  4  0  0  0  0  0  0
    8.6035    0.7823    2.8076 O   0  0  0  0  0  0  0  0  0  0  0  0
    4.9996   -1.7120    1.6901 C   0  0  0  0  0  0  0  0  0  0  0  0
    8.1740   -1.6510    3.1905 O   0  0  0  0  0  0  0  0  0  0  0  0
    1.2943    2.1639    0.1895 C   0  0  0  0  0  0  0  0  0  0  0  0
    9.8208   -0.6193    3.3706 C   0  0  0  0  0  0  0  0  0  0  0  0
    2.4822    2.7352   -0.2169 C   0  0  0  0  0  0  0  0  0  0  0  0
  4  1  1  0
  5  2  1  0
  6  2  1  0
 10  6  1  0
 11 10  1  0
 12  8  1  0
 14  9  1  0
 15  4  1  0
 17  4  1  0
 18  9  1  0
 19  1  1  0
 19  3  1  0
 20  3  1  0
 20 11  2  0
 21  4  1  0
 23  7  1  0
 23  8  1  0
 23 22  1  0
 24  9  1  0
 25 10  1  0
 25 19  1  0
 26  1  1  0
 26 15  1  0
 27  5  1  0
 27 13  1  0
 27 16  1  0
 28 15  1  0
 28 24  1  0
 29  5  1  0
 29 12  1  0
 29 27  1  0
M  RAD  2  22   2  23   2
M  END
>  <ID>  (1) 
conformer_0

$$$$
