
     RDKit          3D

 29 31  0  0  0  0  0  0  0  0999 V2000
    8.0347   -2.1764    2.1885 C   0  0  1  0  0  0  0  0  0  0  0  0
    5.1651   -3.0267    2.6961 C   0  0  0  0  0  0  0  0  0  0  0  0
    3.2746   -0.4729    0.0337 C   0  0  0  0  0  0  0  0  0  0  0  0
    2.2623    1.9715   -0.8467 C   0  0  2  0  0  0  0  0  0  0  0  0
    8.4870   -1.5275    1.4286 C   0  0  1  0  0  0  0  0  0  0  0  0
    2.2907    0.4512   -0.0663 C   0  0  0  0  0  0  0  0  0  0  0  0
    4.7882    3.5141    3.9768 O   0  0  0  0  0  0  0  0  0  0  0  0
    3.3333    3.0036    0.8659 C   0  0  0  0  0  0  0  0  0  0  0  0
    5.5902    1.8407    2.4601 O   0  0  0  0  0  0  0  0  0  0  0  0
    6.0576    2.7873    3.0204 P   0  0  0  0  0  5  0  0  0  0  0  0
    4.8453    4.3986    1.8461 O   0  0  0  0  0  0  0  0  0  0  0  0
    2.8867   -2.5434    2.1890 N   0  0  0  0  0  0  0  0  0  0  0  0
    0.0797    3.3812   -0.2903 O   0  0  0  0  0  0  0  0  0  0  0  0
    8.5237   -1.7911    3.8358 O   0  0  0  0  0  0  0  0  0  0  0  0
    9.7006   -0.9685    2.5296 C   0  0  1  0  0  0  0  0  0  0  0  0
    6.3002   -2.1775    2.0901 N   0  0  0  0  0  0  0  0  0  0  0  0
    7.1097    2.9591    4.1492 O   0  0  0  0  0  0  0  0  0  0  0  0
    8.8441   -2.1640    0.0233 O   0  0  0  0  0  0  0  0  0  0  0  0
    3.4516   -2.2941    1.8483 C   0  0  0  0  0  0  0  0  0  0  0  0
   -0.0383    0.7551   -0.2405 O   0  0  0  0  0  0  0  0  0  0  0  0
    3.6187   -1.1202    0.9747 N   0  0  0  0  0  0  0  0  0  0  0  0
   10.7901   -1.9883    1.3050 O   0  0  0  0  0  0  0  0  0  0  0  0
    2.5848    3.3503   -0.1905 C   0  0  2  0  0  0  0  0  0  0  0  0
    1.1123    2.1034    0.0788 C   0  0  0  0  0  0  0  0  0  0  0  0
    7.8227    0.3955    3.2527 O   0  0  0  0  0  0  0  0  0  0  0  0
    7.4451    2.5987    2.2005 O   0  0  0  0  0  0  0  0  0  0  0  0
    9.3806   -0.1197    3.4649 C   0  0  0  0  0  0  0  0  0  0  0  0
    5.1922   -1.6792    1.5092 C   0  0  0  0  0  0  0  0  0  0  0  0
    4.8265   -3.3432    2.7668 N   0  0  0  0  0  0  0  0  0  0  0  0
  5  1  1  0
  6  3  1  0
  4  6  1  1
 10  7  1  0
 10  9  1  0
 11  8  1  0
 11 10  1  0
  1 14  1  1
 15  5  1  0
 16  1  1  0
 16  2  1  0
 17 10  1  0
  5 18  1  6
 19 12  2  3
 21  3  1  0
 21 19  1  0
 15 22  1  6
 23  4  1  0
 23  8  1  1
 24  4  1  0
 24 13  1  0
 24 20  1  0
 24 23  1  0
 26  9  1  0
 27 15  1  0
 27 25  1  0
 28  2  1  0
 28 16  1  0
 28 19  1  0
 28 21  1  0
 29  2  2  3
M  END
>  <ID>  (1) 
conformer_0

$$$$
