
     RDKit          3D

 27 29  0  0  0  0  0  0  0  0999 V2000
    7.8501   -1.9662    2.6977 C   0  0  0  0  0  0  0  0  0  0  0  0
    3.4993   -2.0275    1.7433 C   0  0  0  0  0  0  0  0  0  0  0  0
    2.2211    1.2182   -1.2201 C   0  0  0  0  0  0  0  0  0  0  0  0
    8.4147   -2.0735    1.3604 C   0  0  0  0  0  0  0  0  0  0  0  0
    1.0035    1.4976   -0.1436 C   0  0  0  0  0  0  0  0  0  0  0  0
    6.0600   -2.1277    2.1278 N   0  0  0  0  0  0  0  0  0  0  0  0
    2.6028   -0.2885    0.1144 C   0  0  0  0  0  0  0  0  0  0  0  0
    7.6514    2.3766    3.1027 P   0  0  0  0  0  0  0  0  0  0  0  0
    4.8614    3.1075    3.9130 O   0  0  0  0  0  0  0  0  0  0  0  0
    9.4123   -1.3170    2.4310 C   0  0  0  0  0  0  0  0  0  0  0  0
    5.2804   -2.9903    2.6763 C   0  0  0  0  0  0  0  0  0  0  0  0
    6.2816    2.4342    2.0957 O   0  0  0  0  0  0  0  0  0  0  0  0
    4.6900    4.2884    1.7249 O   0  0  0  0  0  0  0  0  0  0  0  0
   -0.2988    0.7649   -0.1697 O   0  0  0  0  0  0  0  0  0  0  0  0
   10.5934   -2.3597    1.8556 O   0  0  0  0  0  0  0  0  0  0  0  0
    3.9430   -2.9053    2.5365 N   0  0  0  0  0  0  0  0  0  0  0  0
    7.2659    2.7882    4.0866 O   0  0  0  0  0  0  0  0  0  0  0  0
    3.2520   -0.9271    0.9094 N   0  0  0  0  0  0  0  0  0  0  0  0
    0.2046    3.1768   -0.1699 O   0  0  0  0  0  0  0  0  0  0  0  0
    8.2327    0.1802    3.1010 O   0  0  0  0  0  0  0  0  0  0  0  0
    9.0717   -2.8163    0.2509 O   0  0  0  0  0  0  0  0  0  0  0  0
    8.5759    2.4175    2.4882 O   0  0  0  0  0  0  0  0  0  0  0  0
    2.6349    2.3397    0.5836 C   0  0  0  0  0  0  0  0  0  0  0  0
    5.2050    3.1519    2.7559 P   0  0  0  0  0  0  0  0  0  0  0  0
    2.1971    2.3172   -0.5164 C   0  0  0  0  0  0  0  0  0  0  0  0
    5.2087   -1.5827    1.4703 C   0  0  0  0  0  0  0  0  0  0  0  0
    9.5090   -0.0736    3.3521 C   0  0  0  0  0  0  0  0  0  0  0  0
  4  1  1  0
  5  3  1  0
  6  1  1  0
  7  3  1  0
 10  1  1  0
 10  4  1  0
 11  6  1  0
 12  8  1  0
 14  5  1  0
 15 10  1  0
 16  2  2  0
 16 11  1  0
 17  8  1  0
 18  2  1  0
 18  7  1  0
 19  5  1  0
 21  4  1  0
 22  8  1  0
 24  9  1  0
 24 12  1  0
 24 13  1  0
 25  3  1  0
 25  5  1  0
 25 23  1  0
 26  2  1  0
 26  6  1  0
 27 10  1  0
 27 20  1  0
 27 22  1  0
M  END
>  <ID>  (1) 
conformer_0

$$$$
