
     RDKit          3D

 29 29  0  0  0  0  0  0  0  0999 V2000
    9.5242   -1.2106    2.1269 C   0  0  0  0  0  0  0  0  0  0  0  0
    4.2085   -0.3856    0.1904 C   0  0  0  0  0  0  0  0  0  0  0  0
    2.3199    2.6012   -0.1859 C   0  0  0  0  0  0  0  0  0  0  0  0
    4.9086   -1.8076    1.5959 C   0  0  0  0  0  0  0  0  0  0  0  0
    0.3319    2.1837   -0.2974 C   0  0  0  0  0  0  0  0  0  0  0  0
    9.2040   -0.0542    3.0305 C   0  0  0  0  0  0  0  0  0  0  0  0
    3.6653   -1.4273    1.1201 N   0  0  0  0  0  0  0  0  0  0  0  0
    3.9131    2.6690    2.1581 O   0  0  0  0  0  0  0  0  0  0  0  0
    5.2906    3.3825    4.0300 O   0  0  0  0  0  0  0  0  0  0  0  0
    5.2849    3.1484    2.8635 P   0  0  0  0  0  0  0  0  0  0  0  0
    6.6646    2.2596    2.1295 O   0  0  0  0  0  0  0  0  0  0  0  0
   -0.5380    1.0437   -0.2762 O   0  0  0  0  0  0  0  0  0  0  0  0
    4.7387   -3.0491    2.9426 N   0  0  0  0  0  0  0  0  0  0  0  0
    0.1092    3.6876   -0.2469 O   0  0  0  0  0  0  0  0  0  0  0  0
    8.0574   -1.0157   -0.0160 O   0  0  0  0  0  0  0  0  0  0  0  0
    3.2822   -2.6989    2.2361 C   0  0  0  0  0  0  0  0  0  0  0  0
    6.1054   -2.0240    1.9337 N   0  0  0  0  0  0  0  0  0  0  0  0
    7.4994    3.1135    3.9627 O   0  0  0  0  0  0  0  0  0  0  0  0
    7.4991   -1.3451    1.5933 C   0  0  0  0  0  0  0  0  0  0  0  0
    8.8854    2.2865    2.4456 O   0  0  0  0  0  0  0  0  0  0  0  0
    2.4055   -0.4073    0.0123 C   0  0  0  0  0  0  0  0  0  0  0  0
    8.7351    0.0258    3.1568 O   0  0  0  0  0  0  0  0  0  0  0  0
    2.4114    1.2489   -0.7645 C   0  0  0  0  0  0  0  0  0  0  0  0
    2.1550    1.8145    0.3270 C   0  0  0  0  0  0  0  0  0  0  0  0
    5.4685   -3.0497    2.8214 C   0  0  0  0  0  0  0  0  0  0  0  0
   10.0107   -1.3334    0.4879 O   0  0  0  0  0  0  0  0  0  0  0  0
    7.9056    2.3674    3.0466 P   0  0  0  0  0  0  0  0  0  0  0  0
    5.0895    4.3427    1.8729 O   0  0  0  0  0  0  0  0  0  0  0  0
    8.7795   -2.3203    1.4626 C   0  0  0  0  0  0  0  0  0  0  0  0
  6  1  1  0
  7  2  1  0
  7  4  1  0
 10  9  1  0
 11 10  1  0
 12  5  1  0
 14  5  1  0
 16  7  1  0
 16 13  1  0
 17  4  1  0
 19 15  1  0
 19 17  1  0
 20  6  1  0
 21  2  1  0
 22  6  1  0
 23 21  1  0
 24  3  1  0
 24  5  1  0
 24 23  1  0
 25 13  1  0
 25 17  1  0
 26  1  1  0
 27 11  1  0
 27 18  1  0
 27 20  1  0
 28  8  1  0
 28 10  1  0
 29  1  1  0
 29 19  1  0
M  END
>  <ID>  (1) 
conformer_0

$$$$
