
     RDKit          3D

 31 32  0  0  0  0  0  0  0  0999 V2000
    1.7252    2.5211   -0.4408 C   0  0  0  0  0  0  0  0  0  0  0  0
    9.4360   -1.2884    1.5279 C   0  0  0  0  0  0  0  0  0  0  0  0
    5.1272   -2.8920    2.8292 C   0  0  0  0  0  0  0  0  0  0  0  0
    3.5204   -0.2802    0.1678 C   0  0  0  0  0  0  0  0  0  0  0  0
    7.9696   -2.7413    2.6467 C   0  0  0  0  0  0  0  0  0  0  0  0
    5.9441   -2.2936    2.1485 N   0  0  0  0  0  0  0  0  0  0  0  0
    4.7809    4.8249    1.7278 O   0  0  0  0  0  0  0  0  0  0  0  0
    1.9024   -0.0848   -0.0638 C   0  0  0  0  0  0  0  0  0  0  0  0
    4.7251    3.4867    3.9289 O   0  0  0  0  0  0  0  0  0  0  0  0
    7.2340    2.6748    4.0269 O   0  0  0  0  0  0  0  0  0  0  0  0
   -0.4623    0.9102   -0.2560 O   0  0  0  0  0  0  0  0  0  0  0  0
    2.7482    2.6261    0.9066 C   0  0  0  0  0  0  0  0  0  0  0  0
    7.2952    2.2503    3.0412 P   0  0  0  0  0  0  0  0  0  0  0  0
    5.8519    2.1714    2.2237 O   0  0  0  0  0  0  0  0  0  0  0  0
   10.5735   -2.1737    1.0822 O   0  0  0  0  0  0  0  0  0  0  0  0
    3.2371   -2.3708    1.9812 C   0  0  0  0  0  0  0  0  0  0  0  0
    9.7459    0.5330    2.5854 C   0  0  0  0  0  0  0  0  0  0  0  0
    3.4675   -1.2536    1.0629 N   0  0  0  0  0  0  0  0  0  0  0  0
    8.6422    0.6009    2.6497 O   0  0  0  0  0  0  0  0  0  0  0  0
    4.3270   -2.7157    3.1202 N   0  0  0  0  0  0  0  0  0  0  0  0
    8.5504   -1.9995    0.0925 O   0  0  0  0  0  0  0  0  0  0  0  0
    7.5955   -1.4644    1.4681 C   0  0  0  0  0  0  0  0  0  0  0  0
    2.5133    1.5686   -0.5766 C   0  0  0  0  0  0  0  0  0  0  0  0
    2.4474   -2.1278    1.5420 N   0  0  0  0  0  0  0  0  0  0  0  0
    8.4492   -2.4904    3.0507 O   0  0  0  0  0  0  0  0  0  0  0  0
    3.6244    3.0510    1.5620 O   0  0  0  0  0  0  0  0  0  0  0  0
    4.8882   -1.6680    1.3977 C   0  0  0  0  0  3  0  0  0  0  0  0
    4.8432    3.5604    2.7042 P   0  0  0  0  0  0  0  0  0  0  0  0
    0.6387    1.6117   -0.1216 C   0  0  0  0  0  0  0  0  0  0  0  0
    9.4652   -1.3038    3.1916 C   0  0  0  0  0  0  0  0  0  0  0  0
    7.7911    2.3511    1.9888 O   0  0  0  0  0  0  0  0  0  0  0  0
  6  3  1  0
  8  4  1  0
 12  1  1  0
 13 10  1  0
 14 13  1  0
 15  2  1  0
 18  4  1  0
 18 16  1  0
 19 17  1  0
 20  3  2  0
 20 16  1  0
 22  2  1  0
 22  5  1  0
 22  6  1  0
 22 21  1  0
 23  1  1  0
 23  8  1  0
 24 16  1  0
 25  5  1  0
 26 12  1  0
 27  6  1  0
 27 16  1  0
 28  7  1  0
 28  9  1  0
 28 26  1  0
 29  1  1  0
 29 11  1  0
 30  2  1  0
 30 17  1  0
 30 25  1  0
 31 13  1  0
 31 17  1  0
M  RAD  1  27   2
M  END
>  <ID>  (1) 
conformer_0

$$$$
