
     RDKit          3D

 24 24  0  0  0  0  0  0  0  0999 V2000
    9.3765   -0.5451    2.7158 C   0  0  1  0  0  0  0  0  0  0  0  0
    1.2224    1.1878    0.1767 C   0  0  0  0  0  0  0  0  0  0  0  0
    5.0522   -2.3830    2.1410 C   0  0  0  0  0  0  0  0  0  0  0  0
    8.9455   -1.6518    2.0150 C   0  0  0  0  0  0  0  0  0  0  0  0
    2.4307    1.9589   -0.5756 C   0  0  2  0  0  0  0  0  0  0  0  0
    3.0124   -0.0824    0.3474 C   0  0  0  0  0  0  0  0  0  0  0  0
    3.1935   -1.0169    1.0378 N   0  0  0  0  0  0  0  0  0  0  0  0
    4.9953    3.3908    3.8371 O   0  0  0  0  0  0  0  0  0  0  0  0
    4.6296    4.2793    1.5975 O   0  0  0  0  0  0  0  0  0  0  0  0
    0.4607    3.3431   -0.1312 O   0  0  0  0  0  0  0  0  0  0  0  0
    5.1066    3.3106    2.6184 P   0  0  0  0  0  0  0  0  0  0  0  0
    6.3627    2.5430    2.0987 O   0  0  0  0  0  0  0  0  0  0  0  0
    7.6785    3.1157    3.9835 O   0  0  0  0  0  0  0  0  0  0  0  0
    8.8266   -2.3063    0.2109 O   0  0  0  0  0  0  0  0  0  0  0  0
    8.4484    1.6385    2.4992 O   0  0  0  0  0  0  0  0  0  0  0  0
    2.5537    2.2936    0.5633 C   0  0  0  0  0  0  0  0  0  0  0  0
    3.5650   -2.0313    1.7334 C   0  0  0  0  0  0  0  0  0  0  0  0
    3.9148   -2.9160    2.5116 N   0  0  0  0  0  0  0  0  0  0  0  0
   10.9556   -1.4280    1.5639 O   0  0  0  0  0  0  0  0  0  0  0  0
    7.7895   -1.9636    2.2032 C   0  0  0  0  0  0  0  0  0  0  0  0
    8.2903   -0.6512    3.4938 O   0  0  0  0  0  0  0  0  0  0  0  0
   -0.4683    1.0913   -0.1146 O   0  0  0  0  0  0  0  0  0  0  0  0
    5.4462   -1.9766    1.8915 N   0  0  0  0  0  0  0  0  0  0  0  0
    7.7573    2.3594    2.9887 P   0  0  0  0  0  0  0  0  0  0  0  0
  4  1  1  0
  5  2  1  0
  5  6  1  1
  7  6  1  0
 10  2  1  0
 11  8  1  0
 11  9  1  0
 12 11  1  0
 14  4  1  0
 15  1  1  0
 16  5  1  0
 16  9  1  0
 17  3  1  0
 17  7  1  0
 18  3  1  0
 18 17  2  0
 19  4  1  0
 20  4  1  0
  1 21  1  1
 22  2  1  0
 23  3  2  3
 24 12  1  0
 24 13  1  0
 24 15  1  0
M  END
>  <ID>  (1) 
conformer_0

$$$$
