
     RDKit          3D

 31 32  0  0  0  0  0  0  0  0999 V2000
    9.5708   -1.2101    2.1192 C   0  0  0  0  0  0  0  0  0  0  0  0
    3.3458   -0.3976    0.1186 C   0  0  0  0  0  0  0  0  0  0  0  0
    3.6084   -2.1730    1.7629 C   0  0  0  0  0  0  0  0  0  0  0  0
    2.3001    1.3617   -1.1842 C   0  0  0  0  0  0  0  0  0  0  0  0
    8.0363   -1.6953    1.5067 C   0  0  0  0  0  0  0  0  0  0  0  0
    1.8019   -0.0279    0.0802 C   0  0  0  0  0  0  0  0  0  0  0  0
    6.0943   -2.1568    2.2126 N   0  0  0  0  0  0  0  0  0  0  0  0
    8.3023    3.1917    3.9005 O   0  0  0  0  0  0  0  0  0  0  0  0
    4.7811    2.4523    3.6705 O   0  0  0  0  0  0  0  0  0  0  0  0
    8.6728   -1.9768    3.7722 O   0  0  0  0  0  0  0  0  0  0  0  0
    5.5246    3.2923    2.9624 P   0  0  0  0  0  5  0  0  0  0  0  0
    6.3481    2.6498    2.2369 O   0  0  0  0  0  0  0  0  0  0  0  0
    4.8331    4.2630    1.7592 O   0  0  0  0  0  0  0  0  0  0  0  0
   -0.3902    0.6641   -0.2267 O   0  0  0  0  0  0  0  0  0  0  0  0
    3.4463   -0.9491    0.9958 N   0  0  0  0  0  0  0  0  0  0  0  0
    9.3606   -3.3488    0.7617 O   0  0  0  0  0  0  0  0  0  0  0  0
    5.4417   -3.0696    2.7805 C   0  0  0  0  0  0  0  0  0  0  0  0
    9.3477   -0.0829    2.7242 C   0  0  0  0  0  0  0  0  0  0  0  0
    4.1831   -3.0048    2.5686 N   0  0  0  0  0  0  0  0  0  0  0  0
   -0.0632    3.0745   -0.4782 O   0  0  0  0  0  0  0  0  0  0  0  0
   10.8976   -1.8024    1.3957 O   0  0  0  0  0  0  0  0  0  0  0  0
    0.6284    1.9717   -0.0462 C   0  0  0  0  0  0  0  0  0  0  0  0
    2.9208    1.8028    0.5524 C   0  0  0  0  0  0  0  0  0  0  0  0
    8.4612    0.2442    3.4058 O   0  0  0  0  0  0  0  0  0  0  0  0
    7.9919    2.4984    3.2406 P   0  0  0  0  0  0  0  0  0  0  0  0
    8.1137   -1.3927    0.2211 O   0  0  0  0  0  0  0  0  0  0  0  0
    2.1417    2.6137   -0.2708 C   0  0  0  0  0  0  0  0  0  0  0  0
    5.2466   -1.5985    1.6023 C   0  0  0  0  0  0  0  0  0  0  0  0
    8.3391    2.0681    2.3215 O   0  0  0  0  0  0  0  0  0  0  0  0
    8.1309   -2.3882    2.5305 C   0  0  0  0  0  0  0  0  0  0  0  0
    5.6326    4.0121    4.1301 O   0  0  0  0  0  0  0  0  0  0  0  0
  5  1  1  0
  6  2  1  0
  6  4  1  0
 11  9  1  0
 12 11  1  0
 13 11  1  0
 15  2  1  0
 15  3  1  0
 16  5  1  0
 17  7  1  0
 18  1  1  0
 19  3  2  0
 19 17  1  0
 21  1  1  0
 22 14  1  0
 22 20  1  0
 23  4  1  0
 23 13  1  0
 24 18  2  0
 25  8  1  0
 25 12  1  0
 26  5  1  0
 27  4  1  0
 27 22  1  0
 27 23  1  0
 28  3  1  0
 28  7  1  0
 29 25  1  0
 30  5  1  0
 30  7  1  0
 30 10  1  0
 31 11  1  0
M  END
>  <ID>  (1) 
conformer_0

$$$$
