
     RDKit          3D

 29 31  0  0  0  0  0  0  0  0999 V2000
    8.8686   -1.5516    1.7427 C   0  0  0  0  0  0  0  0  0  0  0  0
    2.2262   -0.0000    0.1426 C   0  0  0  0  0  0  0  0  0  0  0  0
    5.3586   -3.0148    2.7368 C   0  0  0  0  0  0  0  0  0  0  0  0
    8.1138   -2.0943    1.9476 C   0  0  0  0  0  0  0  0  0  0  0  0
    2.3836    2.0330   -0.6849 C   0  0  0  0  0  0  0  0  0  0  0  0
    3.5230   -0.3038    0.0819 C   0  0  0  0  0  0  0  0  0  0  0  0
    3.0818    2.8329    0.7756 C   0  0  0  0  0  0  0  0  0  0  0  0
    6.2552   -2.2807    2.1838 N   0  0  0  0  0  0  0  0  0  0  0  0
    4.5466    4.2494    1.6079 O   0  0  0  0  0  0  0  0  0  0  0  0
    8.7086    0.7022    3.3060 O   0  0  0  0  0  0  0  0  0  0  0  0
    7.1798    3.0696    4.0882 O   0  0  0  0  0  0  0  0  0  0  0  0
   10.5650   -2.5790    1.7297 O   0  0  0  0  0  0  0  0  0  0  0  0
   -0.2535    0.7777   -0.3001 O   0  0  0  0  0  0  0  0  0  0  0  0
    8.3556   -1.7077    3.6447 O   0  0  0  0  0  0  0  0  0  0  0  0
    7.7970   -0.7937   -0.0645 O   0  0  0  0  0  0  0  0  0  0  0  0
    9.2189   -0.6536    2.9944 C   0  0  0  0  0  0  0  0  0  0  0  0
    0.4844    3.2253   -0.2170 O   0  0  0  0  0  0  0  0  0  0  0  0
    3.4443   -2.2448    1.9219 C   0  0  0  0  0  0  0  0  0  0  0  0
    3.9897   -2.9595    2.6959 N   0  0  0  0  0  0  0  0  0  0  0  0
    8.1835    2.2774    3.3292 P   0  0  0  0  0  4  0  0  0  0  0  0
    3.8375   -1.4371    1.1987 N   0  0  0  0  0  0  0  0  0  0  0  0
    3.1120    1.7484    1.1593 O   0  0  0  0  0  0  0  0  0  0  0  0
    1.2166    1.6167   -0.1059 C   0  0  0  0  0  0  0  0  0  0  0  0
    6.7196    2.4848    2.0888 O   0  0  0  0  0  0  0  0  0  0  0  0
    6.0816    1.6333    2.6098 C   0  0  0  0  0  0  0  0  0  0  0  0
    5.4177    2.9553    2.6547 P   0  0  0  0  0  0  0  0  0  0  0  0
    5.1294   -1.7597    1.6341 C   0  0  0  0  0  0  0  0  0  0  0  0
    9.1519    2.6228    2.8493 O   0  0  0  0  0  1  0  0  0  0  0  0
    9.0611   -2.6896    0.2193 O   0  0  0  0  0  0  0  0  0  0  0  0
  4  1  1  0
  6  2  1  0
  7  5  1  0
  8  3  1  0
  8  4  1  0
  9  7  1  0
 12  1  1  0
 14  4  1  0
 15  1  1  0
 16 10  1  0
 16 14  1  0
 19  3  1  0
 19 18  2  0
 20 10  1  0
 20 11  1  0
 21  6  1  0
 21 18  1  0
 22  7  2  0
 23  2  1  0
 23  5  1  0
 23 13  1  0
 23 17  1  0
 25 24  1  0
 26  9  1  0
 26 24  1  0
 26 25  1  0
 27  3  2  0
 27  8  1  0
 27 21  1  0
 28 20  1  0
 29  1  1  0
M  RAD  2  20   2  28   2
M  END
>  <ID>  (1) 
conformer_0

$$$$
