
     RDKit          3D

 30 31  0  0  0  0  0  0  0  0999 V2000
    7.9113   -1.1389    1.4205 C   0  0  0  0  0  0  0  0  0  0  0  0
    1.1955    2.4408    0.1313 C   0  0  0  0  0  0  0  0  0  0  0  0
    5.6892   -3.0985    3.1301 C   0  0  0  0  0  0  0  0  0  0  0  0
    3.8049   -0.4475    0.2395 C   0  0  0  0  0  0  0  0  0  0  0  0
    7.9704   -2.6506    2.4882 C   0  0  0  0  0  0  0  0  0  0  0  0
    2.1350    1.5700   -1.0397 C   0  0  0  0  0  0  0  0  0  0  0  0
    4.7979    3.6830    3.8615 O   0  0  0  0  0  0  0  0  0  0  0  0
    6.2250   -2.2411    2.4774 N   0  0  0  0  0  0  0  0  0  0  0  0
    8.5575    0.4811    3.1720 O   0  0  0  0  0  0  0  0  0  0  0  0
    0.6281    3.7662   -0.1709 O   0  0  0  0  0  0  0  0  0  0  0  0
    5.3378   -1.9724    2.0242 C   0  0  0  0  0  0  0  0  0  0  0  0
    4.7245    4.5157    1.6591 O   0  0  0  0  0  0  0  0  0  0  0  0
    5.0653    3.3272    2.7575 P   0  0  0  0  0  0  0  0  0  0  0  0
   -0.1200    1.1120   -0.2150 O   0  0  0  0  0  0  0  0  0  0  0  0
    9.2806   -1.9909    1.7701 C   0  0  0  0  0  0  0  0  0  0  0  0
   10.1441   -2.7212    0.8689 O   0  0  0  0  0  0  0  0  0  0  0  0
    8.4794   -2.0875    3.6332 O   0  0  0  0  0  0  0  0  0  0  0  0
    2.7626    2.5286    0.6690 C   0  0  0  0  0  0  0  0  0  0  0  0
    3.6239   -0.8697    1.0276 N   0  0  0  0  0  0  0  0  0  0  0  0
    6.2611    2.3310    2.2564 O   0  0  0  0  0  0  0  0  0  0  0  0
    3.7423    2.3457    1.5707 O   0  0  0  0  0  0  0  0  0  0  0  0
    6.8453    3.1103    4.1234 O   0  0  0  0  0  0  0  0  0  0  0  0
    8.3071   -1.8959    0.1762 O   0  0  0  0  0  0  0  0  0  0  0  0
    4.3974   -3.0953    3.0008 N   0  0  0  0  0  0  0  0  0  0  0  0
    9.6138   -0.9058    2.6165 C   0  0  0  0  0  0  0  0  0  0  0  0
    2.5470    0.4130    0.1139 C   0  0  0  0  0  0  0  0  0  0  0  0
    8.3626    2.7208    2.6795 O   0  0  0  0  0  0  0  0  0  0  0  0
    3.6320   -2.2847    1.9522 C   0  0  0  0  0  0  0  0  0  0  0  0
    7.5009    2.4323    3.2250 P   0  0  0  0  0  0  0  0  0  0  0  0
    9.4163    0.8460    3.2490 C   0  0  0  0  0  0  0  0  0  0  0  0
  5  1  1  0
  6  2  1  0
  8  3  1  0
  8  5  1  0
 10  2  1  0
 11  8  1  0
 13  7  1  0
 13 12  1  0
 14  2  1  0
 15  1  1  0
 15  5  1  0
 16 15  1  0
 17  5  1  0
 18  2  1  0
 19  4  1  0
 20 13  1  0
 21 18  1  0
 23  1  1  0
 24  3  1  0
 25 15  1  0
 26  4  1  0
 26  6  1  0
 28 11  1  0
 28 19  1  0
 28 24  2  0
 29 20  1  0
 29 22  1  0
 29 27  1  0
 30  9  1  0
 30 25  1  0
 30 27  1  0
M  END
>  <ID>  (1) 
conformer_0

$$$$
