
     RDKit          3D

 26 27  0  0  0  0  0  0  0  0999 V2000
    2.4826   -0.8330    0.2105 C   0  0  0  0  0  0  0  0  0  0  0  0
    8.9771   -2.0832    2.6897 C   0  0  0  0  0  0  0  0  0  0  0  0
    5.3324   -1.3335    1.1681 C   0  0  0  0  0  0  0  0  0  0  0  0
    2.1168    0.2626   -0.2115 C   0  0  0  0  0  0  0  0  0  0  0  0
    8.1405   -2.1431    1.8946 C   0  0  0  0  0  0  0  0  0  0  0  0
    2.3528    2.3822   -0.6752 C   0  0  0  0  0  0  0  0  0  0  0  0
    6.1304   -2.2217    1.9758 N   0  0  0  0  0  0  0  0  0  0  0  0
    3.5529   -1.3449    0.9631 N   0  0  0  0  0  0  0  0  0  0  0  0
    8.1718    2.3578    3.0158 P   0  0  0  0  0  0  0  0  0  0  0  0
    0.2980    3.2949    0.0987 O   0  0  0  0  0  0  0  0  0  0  0  0
    8.9480    2.5763    2.4050 O   0  0  0  0  0  0  0  0  0  0  0  0
    2.8479    2.6337    0.8127 C   0  0  0  0  0  0  0  0  0  0  0  0
    6.5568    2.4571    2.2168 O   0  0  0  0  0  0  0  0  0  0  0  0
    5.1804    3.1763    4.0012 O   0  0  0  0  0  0  0  0  0  0  0  0
    5.5391   -2.8647    2.5092 C   0  0  0  0  0  0  0  0  0  0  0  0
    9.8998   -2.7548    0.9751 O   0  0  0  0  0  0  0  0  0  0  0  0
   -0.1976    0.7057   -0.2011 O   0  0  0  0  0  0  0  0  0  0  0  0
    7.6646    2.9270    4.0925 O   0  0  0  0  0  0  0  0  0  0  0  0
    2.7233    1.1418    0.9958 O   0  0  0  0  0  0  0  0  0  0  0  0
    4.1769   -2.6869    2.5627 N   0  0  0  0  0  0  0  0  0  0  0  0
    9.3310   -0.7399    2.7682 C   0  0  0  0  0  0  0  0  0  0  0  0
    4.8324    4.1244    1.8743 O   0  0  0  0  0  0  0  0  0  0  0  0
    8.8469    0.3870    2.9955 O   0  0  0  0  0  0  0  0  0  0  0  0
    1.1039    1.8476    0.0844 C   0  0  0  0  0  0  0  0  0  0  0  0
    5.6047    3.1371    2.8756 P   0  0  0  0  0  0  0  0  0  0  0  0
    3.8122   -1.9089    1.7109 C   0  0  0  0  0  0  0  0  0  0  0  0
  4  1  1  0
  5  2  1  0
  7  3  1  0
  7  5  1  0
  8  1  1  0
 11  9  1  0
 12  6  1  0
 13  9  1  0
 15  7  1  0
 16  2  1  0
 18  9  1  0
 19  4  1  0
 19 12  1  0
 20 15  1  0
 21  2  1  0
 22 12  1  0
 23 21  2  0
 24  4  1  0
 24  6  1  0
 24 10  1  0
 24 17  1  0
 25 13  1  0
 25 14  1  0
 25 22  1  0
 26  3  1  0
 26  8  1  0
 26 20  2  0
M  END
>  <ID>  (1) 
conformer_0

$$$$
