
     RDKit          3D

 26 27  0  0  0  0  0  0  0  0999 V2000
    2.1141    0.6802    0.1786 C   0  0  0  0  0  0  0  0  0  0  0  0
    9.7300   -1.7674    2.7300 C   0  0  0  0  0  0  0  0  0  0  0  0
    5.2382   -2.8337    2.5374 C   0  0  0  0  0  0  0  0  0  0  0  0
    3.1633   -0.2847    0.2110 C   0  0  0  0  0  0  0  0  0  0  0  0
    8.7318   -2.1913    1.6142 C   0  0  0  0  0  0  0  0  0  0  0  0
    4.6722    4.0616    1.8378 O   0  0  0  0  0  0  0  0  0  0  0  0
    2.4553    2.0470   -0.8951 C   0  0  0  0  0  0  0  0  0  0  0  0
    3.7583   -1.4021    1.1540 N   0  0  0  0  0  0  0  0  0  0  0  0
    0.5550    3.5807   -0.1498 O   0  0  0  0  0  0  0  0  0  0  0  0
    8.4600   -0.4876    3.2545 O   0  0  0  0  0  0  0  0  0  0  0  0
    0.2940    0.7326   -0.0840 O   0  0  0  0  0  0  0  0  0  0  0  0
   10.7722   -2.2221    1.2531 O   0  0  0  0  0  0  0  0  0  0  0  0
    7.7138   -1.2321    0.1795 O   0  0  0  0  0  0  0  0  0  0  0  0
    2.9921   -2.3917    1.9580 C   0  0  0  0  0  0  0  0  0  0  0  0
    2.9496    2.6833    0.9432 C   0  0  0  0  0  0  0  0  0  0  0  0
    5.9423    1.8674    2.8012 C   0  0  0  0  0  0  0  0  0  0  0  0
    3.0767    1.6076    1.4308 O   0  0  0  0  0  0  0  0  0  0  0  0
    7.6723   -1.4295    1.7669 C   0  0  0  0  0  0  0  0  0  0  0  0
    8.0341    1.8891    2.2376 O   0  0  0  0  0  1  0  0  0  0  0  0
    7.5430    2.9910    4.0451 O   0  0  0  0  0  0  0  0  0  0  0  0
    4.5486   -2.8307    2.6531 N   0  0  0  0  0  0  0  0  0  0  0  0
    7.0789    2.4668    3.0576 P   0  0  0  0  0  4  0  0  0  0  0  0
    5.8646   -1.6512    1.3492 N   0  0  0  0  0  0  0  0  0  0  0  0
    1.5037    2.3592    0.3054 C   0  0  0  0  0  0  0  0  0  0  0  0
    4.6431   -1.6182    1.3490 C   0  0  0  0  0  0  0  0  0  0  0  0
    9.1871   -0.3308    3.2549 C   0  0  0  0  0  0  0  0  0  0  0  0
  4  1  1  0
  5  2  1  0
  5  3  1  0
  7  1  1  0
  8  4  1  0
 11  1  1  0
 12  2  1  0
 14  8  1  0
 15  6  1  0
 16  6  1  0
 17 15  2  0
 18  5  1  0
 18 13  1  0
 21  3  1  0
 21 14  2  0
 22 16  1  0
 22 19  1  0
 22 20  1  0
 24  1  1  0
 24  7  1  0
 24  9  1  0
 24 15  1  0
 25  3  2  0
 25  8  1  0
 25 23  1  0
 26  2  1  0
 26 10  1  0
M  RAD  2  19   2  22   2
M  END
>  <ID>  (1) 
conformer_0

$$$$
