
     RDKit          3D

 26 27  0  0  0  0  0  0  0  0999 V2000
    7.6709   -1.6098    1.9434 C   0  0  1  0  0  0  0  0  0  0  0  0
    2.2672   -0.0202    0.1620 C   0  0  0  0  0  0  0  0  0  0  0  0
    4.6129   -1.8474    1.8753 C   0  0  0  0  0  0  0  0  0  0  0  0
    8.7666   -1.7332    1.5837 C   0  0  1  0  0  0  0  0  0  0  0  0
    3.5937   -0.3371   -0.0306 C   0  0  0  0  0  0  0  0  0  0  0  0
    6.3063   -2.1938    2.4222 N   0  0  0  0  0  0  0  0  0  0  0  0
    6.8149    2.6602    2.3211 O   0  0  0  0  0  0  0  0  0  0  0  0
    9.3404    0.2142    3.0997 C   0  0  0  0  0  0  0  0  0  0  0  0
    4.7087    4.7554    1.9986 O   0  0  0  0  0  0  0  0  0  0  0  0
    2.3060    2.0106   -0.7129 C   0  0  0  0  0  0  0  0  0  0  0  0
    6.0677    2.9118    3.0047 P   0  0  0  0  0  0  0  0  0  0  0  0
    5.1202    3.5360    4.1571 O   0  0  0  0  0  0  0  0  0  0  0  0
   -0.4864    0.9664   -0.2024 O   0  0  0  0  0  0  0  0  0  0  0  0
    0.8822    1.9300    0.0529 C   0  0  0  0  0  0  0  0  0  0  0  0
    0.5447    3.5256   -0.2131 O   0  0  0  0  0  0  0  0  0  0  0  0
    8.5431   -1.7395   -0.0598 O   0  0  0  0  0  0  0  0  0  0  0  0
   10.9077   -1.8446    1.4536 O   0  0  0  0  0  0  0  0  0  0  0  0
    8.0581    0.9813    2.7286 O   0  0  0  0  0  0  0  0  0  0  0  0
    5.3882   -2.9404    2.6894 C   0  0  0  0  0  0  0  0  0  0  0  0
    2.4928    2.2499    0.5599 C   0  0  0  0  0  0  0  0  0  0  0  0
    8.2850   -1.6313    3.4663 O   0  0  0  0  0  0  0  0  0  0  0  0
    4.4951   -3.1276    2.7763 N   0  0  0  0  0  0  0  0  0  0  0  0
    7.2851    3.1211    4.1694 O   0  0  0  0  0  0  0  0  0  0  0  0
    4.3085    2.4037    2.0460 O   0  0  0  0  0  0  0  0  0  0  0  0
    3.9172   -1.1875    1.2060 N   0  0  0  0  0  0  0  0  0  0  0  0
    9.6943   -1.2173    2.7347 C   0  0  2  0  0  0  0  0  0  0  0  0
  4  1  1  0
  5  2  1  0
  1  6  1  1
 10  2  1  0
 11  7  1  0
 12 11  1  0
 14 10  1  0
 14 13  1  0
 15 14  1  0
  4 16  1  6
 18  7  1  0
 18  8  1  0
 19  3  1  0
 19  6  1  0
 20  9  1  0
 20 10  1  0
 20 14  1  0
 21  1  1  0
 22 19  2  3
 23 11  1  0
 24 20  1  0
 25  3  1  0
 25  5  1  0
 26  4  1  0
 26  8  1  0
 26 17  1  1
 26 21  1  0
M  END
>  <ID>  (1) 
conformer_0

$$$$
