
     RDKit          3D

 30 32  0  0  0  0  0  0  0  0999 V2000
    8.2756   -2.6241    2.0220 C   0  0  0  0  0  0  0  0  0  0  0  0
    2.3078   -0.3339    0.3966 C   0  0  0  0  0  0  0  0  0  0  0  0
    5.4584   -1.5355    1.4586 C   0  0  0  0  0  0  0  0  0  0  0  0
    2.2367    2.3292    0.5325 C   0  0  0  0  0  0  0  0  0  0  0  0
    9.5604   -1.4313    2.4192 C   0  0  0  0  0  0  0  0  0  0  0  0
    2.3009    1.9594   -0.6724 C   0  0  0  0  0  0  0  0  0  0  0  0
    8.3014    0.9749    3.0150 O   0  0  0  0  0  0  0  0  0  0  0  0
    5.1199    3.2088    2.7013 P   0  0  0  0  0  4  0  0  0  0  0  0
    0.3015    3.2656   -0.0589 O   0  0  0  0  0  0  0  0  0  0  0  0
    6.1091    2.3907    2.2287 O   0  0  0  0  0  1  0  0  0  0  0  0
    6.2597   -2.2139    2.1103 N   0  0  0  0  0  0  0  0  0  0  0  0
    3.7915   -1.2411    1.0630 N   0  0  0  0  0  0  0  0  0  0  0  0
    5.0599    3.5714    3.9535 O   0  0  0  0  0  0  0  0  0  0  0  0
   10.6151   -2.2005    1.5684 O   0  0  0  0  0  0  0  0  0  0  0  0
    4.3876   -2.9221    2.6235 N   0  0  0  0  0  0  0  0  0  0  0  0
    3.2287    1.7680    1.3756 O   0  0  0  0  0  0  0  0  0  0  0  0
    9.3246   -0.0239    3.1294 C   0  0  0  0  0  0  0  0  0  0  0  0
    4.6974    4.2734    1.8174 O   0  0  0  0  0  0  0  0  0  0  0  0
   -0.1824    0.7841   -0.1609 O   0  0  0  0  0  0  0  0  0  0  0  0
    7.8005   -0.8138    0.3007 O   0  0  0  0  0  0  0  0  0  0  0  0
    7.4461    3.0734    4.0344 O   0  0  0  0  0  0  0  0  0  0  0  0
    5.4321   -3.0524    2.6768 C   0  0  0  0  0  0  0  0  0  0  0  0
    3.6294   -0.1505   -0.0481 C   0  0  0  0  0  0  0  0  0  0  0  0
    8.5177    2.6887    2.0749 O   0  0  0  0  0  0  0  0  0  0  0  0
    7.6734    2.3488    2.8947 P   0  0  0  0  0  0  0  0  0  0  0  0
    8.5949   -1.1514    3.5798 O   0  0  0  0  0  0  0  0  0  0  0  0
    1.0537    1.4774    0.0741 C   0  0  0  0  0  0  0  0  0  0  0  0
    8.8646   -2.9152    0.2501 O   0  0  0  0  0  0  0  0  0  0  0  0
    7.9977   -1.3674    1.8112 C   0  0  0  0  0  0  0  0  0  0  0  0
    3.8278   -2.2184    1.8383 C   0  0  0  0  0  0  0  0  0  0  0  0
  6  2  1  0
  6  4  1  0
 10  8  1  0
 11  3  1  0
 12  3  1  0
 13  8  1  0
 14  5  1  0
 16  4  1  0
 17  5  1  0
 17  7  1  0
 18  4  1  0
 18  8  1  0
 22 11  1  0
 22 15  1  0
 23  2  1  0
 23 12  1  0
 25  7  1  0
 25 21  1  0
 25 24  1  0
 26  5  1  0
 26 17  1  0
 27  4  1  0
 27  6  1  0
 27  9  1  0
 27 19  1  0
 28  1  1  0
 29  1  1  0
 29  5  1  0
 29 11  1  0
 29 20  1  0
 30 12  1  0
 30 15  2  0
M  RAD  2   8   2  10   2
M  END
>  <ID>  (1) 
conformer_0

$$$$
