
     RDKit          3D

 29 30  0  0  0  0  0  0  0  0999 V2000
    9.6746   -1.3537    2.2974 C   0  0  0  0  0  0  0  0  0  0  0  0
    3.5570   -2.1622    1.7629 C   0  0  0  0  0  0  0  0  0  0  0  0
    3.5955   -0.3336    0.1536 C   0  0  0  0  0  0  0  0  0  0  0  0
    7.8946   -1.5187    1.4504 C   0  0  0  0  0  0  0  0  0  0  0  0
    2.2575    1.9912   -0.5134 C   0  0  0  0  0  0  0  0  0  0  0  0
    0.6075    1.9083    0.0420 C   0  0  0  0  0  0  0  0  0  0  0  0
    6.1470   -2.1043    1.9631 N   0  0  0  0  0  0  0  0  0  0  0  0
    8.6759    2.8284    2.3639 O   0  0  0  0  0  0  0  0  0  0  0  0
    5.3064    3.1878    2.8794 P   0  0  0  0  0  0  0  0  0  0  0  0
    4.8732    3.2872    3.9422 O   0  0  0  0  0  0  0  0  0  0  0  0
    4.7615    4.3250    1.8397 O   0  0  0  0  0  0  0  0  0  0  0  0
    8.5823   -1.3985    3.6459 O   0  0  0  0  0  0  0  0  0  0  0  0
   -0.7268    1.1435   -0.2676 O   0  0  0  0  0  0  0  0  0  0  0  0
    9.4209   -0.0330    2.8784 C   0  0  0  0  0  0  0  0  0  0  0  0
    5.5794   -2.8378    2.7311 C   0  0  0  0  0  0  0  0  0  0  0  0
   10.6455   -2.6369    1.6840 O   0  0  0  0  0  0  0  0  0  0  0  0
    2.7287    2.3910    0.7835 C   0  0  0  0  0  0  0  0  0  0  0  0
    8.7807   -1.8179    0.0816 O   0  0  0  0  0  0  0  0  0  0  0  0
    3.7693   -1.2111    0.9610 N   0  0  0  0  0  0  0  0  0  0  0  0
    7.1687    2.9261    4.1719 O   0  0  0  0  0  0  0  0  0  0  0  0
    0.2018    3.3946   -0.0912 O   0  0  0  0  0  0  0  0  0  0  0  0
    4.1043   -2.8044    2.6464 N   0  0  0  0  0  0  0  0  0  0  0  0
    5.2967   -1.5816    1.3531 C   0  0  0  0  0  0  0  0  0  0  0  0
    7.8479    2.4859    2.9722 P   0  0  0  0  0  0  0  0  0  0  0  0
    6.3167    2.6465    2.2457 O   0  0  0  0  0  0  0  0  0  0  0  0
    2.1430    0.1562    0.1182 C   0  0  0  0  0  0  0  0  0  0  0  0
    2.2013   -2.0213    1.3881 N   0  0  0  0  0  0  0  0  0  0  0  0
    8.6353   -2.3475    2.2872 C   0  0  0  0  0  0  0  0  0  0  0  0
    8.4425    0.8090    2.9236 O   0  0  0  0  0  0  0  0  0  0  0  0
  6  5  1  0
  7  4  1  0
 10  9  1  0
 11  9  1  0
 12  1  1  0
 13  6  1  0
 14  1  1  0
 15  7  1  0
 16  1  1  0
 17  5  1  0
 17 11  1  0
 18  4  1  0
 19  2  1  0
 19  3  1  0
 21  6  1  0
 22  2  1  0
 22 15  2  0
 23  7  1  0
 23 19  1  0
 24  8  1  0
 24 20  1  0
 25  9  1  0
 25 24  1  0
 26  3  1  0
 26  5  1  0
 27  2  1  0
 28  1  1  0
 28  4  1  0
 28 12  1  0
 29 14  1  0
M  END
>  <ID>  (1) 
conformer_0

$$$$
