
     RDKit          3D

 26 27  0  0  0  0  0  0  0  0999 V2000
    8.2962   -2.1671    1.9903 C   0  0  0  0  0  0  0  0  0  0  0  0
    2.2980    2.7268   -0.1223 C   0  0  0  0  0  0  0  0  0  0  0  0
    5.4788   -2.2193    2.1115 C   0  0  0  0  0  3  0  0  0  0  0  0
    3.7196   -0.2689    0.1537 C   0  0  0  0  0  0  0  0  0  0  0  0
    8.8727   -1.4584    1.6023 C   0  0  0  0  0  0  0  0  0  0  0  0
    2.1520   -0.0289    0.0388 C   0  0  0  0  0  0  0  0  0  0  0  0
    8.2796   -0.0840    3.2276 O   0  0  0  0  0  0  0  0  0  0  0  0
    4.8063    3.3133    3.9123 O   0  0  0  0  0  0  0  0  0  0  0  0
    5.0106    3.3104    2.7095 P   0  0  0  0  0  0  0  0  0  0  0  0
    6.0407    2.5026    2.1657 O   0  0  0  0  0  0  0  0  0  0  0  0
    6.1154   -2.1231    2.0679 N   0  0  0  0  0  0  0  0  0  0  0  0
    7.4890    2.8117    4.1160 O   0  0  0  0  0  0  0  0  0  0  0  0
    9.2573   -0.6219    3.2993 C   0  0  0  0  0  0  0  0  0  0  0  0
    3.4253   -1.0737    0.9884 N   0  0  0  0  0  0  0  0  0  0  0  0
    3.8215   -2.0106    1.7934 C   0  0  0  0  0  0  0  0  0  0  0  0
   10.4429   -2.2169    1.0439 O   0  0  0  0  0  0  0  0  0  0  0  0
    0.1196    3.3714   -0.2380 O   0  0  0  0  0  0  0  0  0  0  0  0
    4.3294   -3.0523    2.5861 N   0  0  0  0  0  0  0  0  0  0  0  0
    4.5109    4.2372    1.5372 O   0  0  0  0  0  0  0  0  0  0  0  0
    8.4134   -1.4832   -0.1932 O   0  0  0  0  0  0  0  0  0  0  0  0
    2.8078    2.6927    0.6904 C   0  0  0  0  0  0  0  0  0  0  0  0
   -0.2767    0.7962   -0.3226 O   0  0  0  0  0  0  0  0  0  0  0  0
    0.7336    1.6576   -0.0814 C   0  0  0  0  0  0  0  0  0  0  0  0
    2.1641    1.4921   -0.7008 C   0  0  0  0  0  0  0  0  0  0  0  0
    7.3647    2.2310    3.2526 P   0  0  0  0  0  4  0  0  0  0  0  0
    8.1255    1.9289    2.3172 O   0  0  0  0  0  1  0  0  0  0  0  0
  5  1  1  0
  6  4  1  0
  9  8  1  0
 10  9  1  0
 11  1  1  0
 11  3  1  0
 13  5  1  0
 13  7  1  0
 14  4  1  0
 15  3  1  0
 15 14  1  0
 16  5  1  0
 18  3  1  0
 18 15  2  0
 19  9  1  0
 20  5  1  0
 21  2  1  0
 21 19  1  0
 23  2  1  0
 23 17  1  0
 23 22  1  0
 24  2  1  0
 24  6  1  0
 24 23  1  0
 25 10  1  0
 25 12  1  0
 26 25  1  0
M  RAD  3   3   2  25   2  26   2
M  END
>  <ID>  (1) 
conformer_0

$$$$
