
     RDKit          3D

 32 34  0  0  0  0  0  0  0  0999 V2000
    8.7248   -2.4219    1.5631 C   0  0  2  0  0  0  0  0  0  0  0  0
    3.5687   -0.4821    0.3857 C   0  0  0  0  0  0  0  0  0  0  0  0
    5.4532   -3.2207    2.7674 C   0  0  0  0  0  0  0  0  0  0  0  0
    2.5710    0.4205   -0.0155 C   0  0  0  0  0  0  0  0  0  0  0  0
    2.1071    1.2890   -1.2872 C   0  0  0  0  0  0  0  0  0  0  0  0
    7.7976   -1.5480    1.9199 C   0  0  2  0  0  0  0  0  0  0  0  0
    6.3595   -2.3363    2.3270 N   0  0  0  0  0  0  0  0  0  0  0  0
    6.4062    2.6296    2.1298 O   0  0  0  0  0  1  0  0  0  0  0  0
    4.6952    4.3594    1.6367 O   0  0  0  0  0  0  0  0  0  0  0  0
    0.2504    3.4380   -0.1125 O   0  0  0  0  0  0  0  0  0  0  0  0
    5.0706    3.2007    3.9270 O   0  0  0  0  0  0  0  0  0  0  0  0
    8.0340    2.3319    3.2212 P   0  0  2  0  0  4  0  0  0  0  0  0
    8.3281   -1.6855    3.7025 O   0  0  0  0  0  0  0  0  0  0  0  0
   10.8113   -2.1655    1.3190 O   0  0  0  0  0  0  0  0  0  0  0  0
    7.5435    2.7893    4.2359 O   0  0  0  0  0  0  0  0  0  0  0  0
    3.3353   -2.6786    2.2101 C   0  0  0  0  0  0  0  0  0  0  0  0
    9.5933   -1.6607    2.5426 C   0  0  1  0  0  0  0  0  0  0  0  0
    8.6720   -2.0284    0.0744 O   0  0  0  0  0  0  0  0  0  0  0  0
    3.1800    2.9872    0.8363 C   0  0  0  0  0  0  0  0  0  0  0  0
    2.4363   -2.3046    1.9481 N   0  0  0  0  0  0  0  0  0  0  0  0
    4.4733   -3.4971    2.8819 N   0  0  0  0  0  0  0  0  0  0  0  0
   -0.1419    1.1803   -0.1477 O   0  0  0  0  0  0  0  0  0  0  0  0
    4.0660   -1.6076    1.5262 N   0  0  0  0  0  0  0  0  0  0  0  0
    8.1988    0.6037    3.1937 O   0  0  0  0  0  0  0  0  0  0  0  0
    8.7232    2.6802    2.4048 O   0  0  0  0  0  1  0  0  0  0  0  0
    6.4596   -0.5789    0.2036 O   0  0  0  0  0  0  0  0  0  0  0  0
    1.3847    2.3157    0.1885 C   0  0  0  0  0  0  0  0  0  0  0  0
    2.3965    2.8697   -0.5608 C   0  0  2  0  0  0  0  0  0  0  0  0
    5.0335   -1.8294    1.8040 C   0  0  0  0  0  0  0  0  0  0  0  0
    3.2870    2.1128    1.4279 O   0  0  0  0  0  0  0  0  0  0  0  0
    5.5390    3.1860    2.8594 P   0  0  1  0  0  4  0  0  0  0  0  0
    9.2213   -0.1695    3.1989 C   0  0  1  0  0  0  0  0  0  0  0  0
  4  2  2  3
  5  4  1  0
  6  1  1  0
  7  3  1  0
  7  6  1  0
 12 15  1  1
 17  1  1  0
 17 13  1  0
 17 14  1  1
  1 18  1  6
 19  9  1  0
 20 16  1  0
 21  3  1  0
 21 16  2  0
 23  2  1  0
 23 16  1  0
 24 12  1  0
 25 12  1  0
  6 26  1  6
 27 10  1  0
 27 22  1  0
 28  5  1  6
 28 19  1  0
 28 27  1  0
 29  3  2  0
 29  7  1  0
 29 23  1  0
 30 19  2  0
 31  8  1  6
 31  9  1  0
 31 11  1  0
 32 13  1  0
 32 17  1  0
 32 24  1  6
M  RAD  4   8   2  12   2  25   2  31   2
M  END
>  <ID>  (1) 
conformer_0

$$$$
