
     RDKit          3D

 32 34  0  0  0  0  0  0  0  0999 V2000
    9.4218    0.0194    3.1431 C   0  0  0  0  0  0  0  0  0  0  0  0
    4.2715   -0.3006   -0.1127 C   0  0  0  0  0  0  0  0  0  0  0  0
    3.4635   -2.3560    1.8979 C   0  0  0  0  0  0  0  0  0  0  0  0
    2.3345    2.6376   -0.2019 C   0  0  0  0  0  0  0  0  0  0  0  0
   10.1463   -0.8950    2.1218 C   0  0  0  0  0  0  0  0  0  0  0  0
    2.2093   -1.0635    0.5522 C   0  0  0  0  0  0  0  0  0  0  0  0
    4.0419   -1.6313    1.4920 N   0  0  0  0  0  0  0  0  0  0  0  0
    7.5311    3.1023    4.1103 O   0  0  0  0  0  0  0  0  0  0  0  0
    6.1152    2.2440    2.2919 O   0  0  0  0  0  1  0  0  0  0  0  0
   11.0512   -2.1928    1.6596 O   0  0  0  0  0  0  0  0  0  0  0  0
    4.8775    4.3282    1.9152 O   0  0  0  0  0  0  0  0  0  0  0  0
    7.8240    2.2667    3.1367 P   0  0  0  0  0  0  0  0  0  0  0  0
    6.2521   -2.3201    2.3358 N   0  0  0  0  0  0  0  0  0  0  0  0
    7.3690   -1.1984    0.4598 O   0  0  0  0  0  0  0  0  0  0  0  0
    1.4191    2.5451    0.2690 C   0  0  0  0  0  0  0  0  0  0  0  0
    8.9281    0.7338    2.9562 O   0  0  0  0  0  0  0  0  0  0  0  0
   -0.0552    1.0316   -0.2544 O   0  0  0  0  0  0  0  0  0  0  0  0
    8.1033   -1.5149    1.3251 C   0  0  0  0  0  0  0  0  0  0  0  0
    5.4834   -3.0421    2.9891 C   0  0  0  0  0  0  0  0  0  0  0  0
    3.3806    3.2798    1.2311 C   0  0  0  0  0  0  0  0  0  0  0  0
    5.1403    3.3241    4.0998 O   0  0  0  0  0  0  0  0  0  0  0  0
    4.1778   -3.0988    2.7340 N   0  0  0  0  0  0  0  0  0  0  0  0
    8.3240   -1.3589    3.4044 O   0  0  0  0  0  0  0  0  0  0  0  0
    0.3284    3.4702   -0.2996 O   0  0  0  0  0  0  0  0  0  0  0  0
    2.5420    1.2757   -0.9470 C   0  0  0  0  0  0  0  0  0  0  0  0
    9.2260   -2.1715    2.6287 C   0  0  0  0  0  0  0  0  0  0  0  0
    7.5502   -2.6178    2.2753 C   0  0  0  0  0  0  0  0  0  0  0  0
    5.3531    3.0986    3.0222 P   0  0  0  0  0  4  0  0  0  0  0  0
    5.0228   -1.7183    1.8602 C   0  0  0  0  0  0  0  0  0  0  0  0
    2.7614   -0.4349    0.4121 N   0  0  0  0  0  0  0  0  0  0  0  0
    2.5277    0.5746   -0.1583 C   0  0  0  0  0  0  0  0  0  0  0  0
    8.2366    2.5138    2.2467 O   0  0  0  0  0  0  0  0  0  0  0  0
  5  1  1  0
  6  3  1  0
  7  3  2  0
 10  5  1  0
 12  8  1  0
 15  4  1  0
 16  1  1  0
 16 12  1  0
 17 15  1  0
 18 14  1  0
 19 13  1  0
 20  4  1  0
 20 11  1  0
 22  3  1  0
 22 19  2  0
 23  1  1  0
 24 15  1  0
 25  4  1  0
 26  5  1  0
 26 18  1  0
 26 23  1  0
 27 13  1  0
 27 18  1  0
 27 26  1  0
 28  9  1  0
 28 11  1  0
 28 21  1  0
 29  7  1  0
 29 13  1  0
 30  2  1  0
 30  6  1  0
 31 25  1  0
 31 30  1  0
 32 12  1  0
M  RAD  2   9   2  28   2
M  END
>  <ID>  (1) 
conformer_0

$$$$
