
     RDKit          3D

 27 26  0  0  0  0  0  0  0  0999 V2000
    8.7728   -1.8309    1.9119 C   0  0  2  0  0  0  0  0  0  0  0  0
    2.4638    0.0084    0.2518 C   0  0  0  0  0  0  0  0  0  0  0  0
    3.5094   -2.4923    1.8570 C   0  0  0  0  0  0  0  0  0  0  0  0
    3.8452   -0.3891    0.2856 C   0  0  0  0  0  0  0  0  0  0  0  0
    7.9874   -1.8995    1.9662 C   0  0  1  0  0  0  0  0  0  0  0  0
    9.4113   -0.4765    2.8769 C   0  0  0  0  0  0  0  0  0  0  0  0
    5.3023    3.0977    2.8554 P   0  0  0  0  0  0  0  0  0  0  0  0
    3.6397   -1.4081    1.0884 N   0  0  0  0  0  0  0  0  0  0  0  0
    6.6823    2.5306    2.4493 O   0  0  0  0  0  0  0  0  0  0  0  0
    0.1646    3.4962   -0.4265 O   0  0  0  0  0  0  0  0  0  0  0  0
    8.9710    1.9475    2.4349 O   0  0  0  0  0  1  0  0  0  0  0  0
    2.9752    1.4392    1.1484 O   0  0  0  0  0  0  0  0  0  0  0  0
    2.2358    1.7356   -0.7690 C   0  0  0  0  0  0  0  0  0  0  0  0
    4.9825    3.2144    3.9939 O   0  0  0  0  0  0  0  0  0  0  0  0
    9.1819   -2.6346    0.3416 O   0  0  0  0  0  0  0  0  0  0  0  0
    8.0459    2.9634    4.0853 O   0  0  0  0  0  0  0  0  0  0  0  0
    4.0135   -3.1806    2.4372 N   0  0  0  0  0  0  0  0  0  0  0  0
    0.7194    1.9971   -0.0877 C   0  0  0  0  0  0  0  0  0  0  0  0
    8.2160    2.3264    2.9945 P   0  0  1  0  0  4  0  0  0  0  0  0
    4.8927    4.1687    1.8885 O   0  0  0  0  0  0  0  0  0  0  0  0
    7.6129   -0.9400    0.1419 O   0  0  0  0  0  0  0  0  0  0  0  0
    5.3514   -3.1595    2.7443 C   0  0  0  0  0  0  0  0  0  0  0  0
    8.6437   -0.2048    3.2303 O   0  0  0  0  0  0  0  0  0  0  0  0
   -0.1018    0.9479   -0.2703 O   0  0  0  0  0  0  0  0  0  0  0  0
    5.7512   -2.1546    1.8483 N   0  0  0  0  0  0  0  0  0  0  0  0
    2.3039    2.0835    0.4069 C   0  0  1  0  0  0  0  0  0  0  0  0
    5.3115   -1.7093    1.4255 C   0  0  0  0  0  0  0  0  0  0  0  0
  4  2  1  0
  5  1  1  0
  6  1  1  0
  8  3  1  0
  8  4  1  0
  9  7  1  0
 12  2  1  0
 14  7  1  0
  1 15  1  6
 17  3  2  3
 18 10  1  0
 19  9  1  0
 19 11  1  6
 19 16  1  0
 20  7  1  0
  5 21  1  6
 22  5  1  0
 22 17  1  0
 23  6  1  0
 24 18  1  0
 26 12  1  0
 26 13  1  6
 26 18  1  0
 26 20  1  0
 27  8  1  0
 27 25  2  3
M  RAD  2  11   2  19   2
M  END
>  <ID>  (1) 
conformer_0

$$$$
