
     RDKit          3D

 28 30  0  0  0  0  0  0  0  0999 V2000
    7.7550   -1.8321    2.3344 C   0  0  0  0  0  0  0  0  0  0  0  0
    2.1221    2.7209   -0.2655 C   0  0  0  0  0  0  0  0  0  0  0  0
    3.4460   -2.1711    1.9642 C   0  0  0  0  0  0  0  0  0  0  0  0
    8.6517   -2.0465    1.2735 C   0  0  0  0  0  0  0  0  0  0  0  0
    3.0247   -0.1780    0.1757 C   0  0  0  0  0  0  0  0  0  0  0  0
    1.2566    1.7052    0.0527 C   0  0  0  0  0  0  0  0  0  0  0  0
    4.5308    4.0345    1.8563 O   0  0  0  0  0  0  0  0  0  0  0  0
    5.2582    2.7480    3.9843 O   0  0  0  0  0  0  0  0  0  0  0  0
   -0.4027    1.0631   -0.1993 O   0  0  0  0  0  0  0  0  0  0  0  0
    8.2362   -1.9141    3.7008 O   0  0  0  0  0  0  0  0  0  0  0  0
    5.3385    2.9783    2.7718 P   0  0  0  0  0  4  0  0  0  0  0  0
    9.4876   -1.4916    2.3351 C   0  0  0  0  0  0  0  0  0  0  0  0
    8.4708    0.4724    2.9085 O   0  0  0  0  0  0  0  0  0  0  0  0
    3.4576   -0.8539    1.0047 N   0  0  0  0  0  0  0  0  0  0  0  0
   10.0638   -3.0177    0.8160 O   0  0  0  0  0  0  0  0  0  0  0  0
    3.0094    2.7950    0.8582 C   0  0  0  0  0  0  0  0  0  0  0  0
    5.7940   -1.9573    2.1478 N   0  0  0  0  0  0  0  0  0  0  0  0
    7.5746    2.9038    4.0708 O   0  0  0  0  0  0  0  0  0  0  0  0
    5.4191   -2.8929    2.6554 C   0  0  0  0  0  0  0  0  0  0  0  0
    4.2720   -2.8773    2.7086 N   0  0  0  0  0  0  0  0  0  0  0  0
    6.2388    2.4013    2.1296 O   0  0  0  0  0  1  0  0  0  0  0  0
    2.1163    1.3110   -0.9199 C   0  0  0  0  0  0  0  0  0  0  0  0
    0.0964    3.4941   -0.1479 O   0  0  0  0  0  0  0  0  0  0  0  0
    8.3590   -1.9845   -0.1278 O   0  0  0  0  0  0  0  0  0  0  0  0
    7.8754    2.2089    3.0769 P   0  0  0  0  0  0  0  0  0  0  0  0
    8.7008    2.3136    2.1880 O   0  0  0  0  0  0  0  0  0  0  0  0
    9.3490   -0.1679    3.1385 C   0  0  0  0  0  0  0  0  0  0  0  0
    5.0884   -1.3364    1.6784 C   0  0  0  0  0  0  0  0  0  0  0  0
  4  1  1  0
  6  2  1  0
  9  6  1  0
 10  1  1  0
 11  7  1  0
 11  8  1  0
 12  1  1  0
 14  3  1  0
 14  5  1  0
 15  4  1  0
 16  2  1  0
 16  7  1  0
 19  4  1  0
 19 17  2  0
 20  3  1  0
 20 19  1  0
 21 11  1  0
 22  2  1  0
 22  5  1  0
 22  6  1  0
 23  6  1  0
 24  4  1  0
 25 13  1  0
 25 18  1  0
 26 25  1  0
 27 12  1  0
 27 13  1  0
 28  3  2  0
 28 14  1  0
 28 17  1  0
M  RAD  2  11   2  21   2
M  END
>  <ID>  (1) 
conformer_0

$$$$
