
     RDKit          3D

 31 34  0  0  0  0  0  0  0  0999 V2000
    7.4771   -1.8688    1.9717 C   0  0  0  0  0  0  0  0  0  0  0  0
    0.6041    2.0430   -0.0719 C   0  0  0  0  0  0  0  0  0  0  0  0
    2.9397   -1.7175    1.5089 C   0  0  0  0  0  0  0  0  0  0  0  0
    1.7003    3.1069    0.0763 C   0  0  0  0  0  0  0  0  0  0  0  0
    8.6804   -2.2683    1.6860 C   0  0  0  0  0  0  0  0  0  0  0  0
    3.4871   -0.2934    0.1386 C   0  0  0  0  0  0  0  0  0  0  0  0
    4.7548    4.4772    1.8326 O   0  0  0  0  0  0  0  0  0  0  0  0
    5.7373   -2.2443    2.0497 N   0  0  0  0  0  0  0  0  0  0  0  0
    5.6081   -3.1086    2.8573 C   0  0  0  0  0  0  0  0  0  0  0  0
    5.1880    3.1704    2.7209 P   0  0  0  0  0  0  0  0  0  0  0  0
    8.7274    0.9440    2.7701 O   0  0  0  0  0  0  0  0  0  0  0  0
    4.7736    3.5551    3.9109 O   0  0  0  0  0  0  0  0  0  0  0  0
   -0.2173    3.0896   -0.6385 O   0  0  0  0  0  0  0  0  0  0  0  0
    8.2901    2.2760    3.0162 P   0  0  0  0  0  0  0  0  0  0  0  0
    9.3573   -0.4083    2.9509 C   0  0  0  0  0  0  0  0  0  0  0  0
    8.7812   -2.5375    0.0656 O   0  0  0  0  0  0  0  0  0  0  0  0
    3.4320   -2.8567    2.3572 N   0  0  0  0  0  0  0  0  0  0  0  0
    6.6373    2.4543    2.2495 O   0  0  0  0  0  0  0  0  0  0  0  0
    3.5150   -1.0259    1.0871 N   0  0  0  0  0  0  0  0  0  0  0  0
    8.9534    2.9416    3.4484 O   0  0  0  0  0  0  0  0  0  0  0  0
    2.7169    2.2856    0.8531 C   0  0  0  0  0  0  0  0  0  0  0  0
   -0.1105    0.6075   -0.2308 O   0  0  0  0  0  0  0  0  0  0  0  0
   10.8344   -2.4884    1.1433 O   0  0  0  0  0  0  0  0  0  0  0  0
    3.8552    2.4489    1.7301 O   0  0  0  0  0  0  0  0  0  0  0  0
    8.1027   -1.3154    3.0758 O   0  0  0  0  0  0  0  0  0  0  0  0
    4.9719   -1.5942    1.5174 C   0  0  0  0  0  0  0  0  0  0  0  0
    6.7115    3.0292    4.1834 O   0  0  0  0  0  0  0  0  0  0  0  0
    9.7750   -1.3884    1.9741 C   0  0  0  0  0  0  0  0  0  0  0  0
    1.9801    0.3919    0.0898 C   0  0  0  0  0  0  0  0  0  0  0  0
    2.0508    1.7935   -0.7014 C   0  0  0  0  0  0  0  0  0  0  0  0
    3.7293   -3.2004    2.5985 C   0  0  0  0  0  0  0  0  0  0  0  0
  4  2  1  0
  5  1  1  0
  8  1  1  0
  9  8  1  0
 10  7  1  0
 12 10  1  0
 13  2  1  0
 14 11  1  0
 15 11  1  0
 16  5  1  0
 17  3  1  0
 18 10  1  0
 19  3  1  0
 19  6  1  0
 20 14  1  0
 21  4  1  0
 21  7  1  0
 22  2  1  0
 24 21  1  0
 25  1  1  0
 25 15  1  0
 26  8  1  0
 26 19  1  0
 27 14  1  0
 28  5  1  0
 28 15  1  0
 28 23  1  0
 29  6  1  0
 30  2  1  0
 30  4  1  0
 30 21  1  0
 30 29  1  0
 31  9  2  0
 31 17  1  0
M  END
>  <ID>  (1) 
conformer_0

$$$$
