
     RDKit          3D

 31 32  0  0  0  0  0  0  0  0999 V2000
    9.3971   -1.2720    2.2161 C   0  0  0  0  0  0  0  0  0  0  0  0
    3.8310   -0.1577   -0.0646 C   0  0  0  0  0  0  0  0  0  0  0  0
    5.5711   -3.0960    2.6365 C   0  0  0  0  0  0  0  0  0  0  0  0
    2.1341    2.2416   -0.5736 C   0  0  0  0  0  0  0  0  0  0  0  0
    8.0506   -1.5828    1.3891 C   0  0  0  0  0  0  0  0  0  0  0  0
    0.6724    2.5157   -0.0254 C   0  0  0  0  0  0  0  0  0  0  0  0
    4.2317    4.3412    1.5209 O   0  0  0  0  0  0  0  0  0  0  0  0
    0.1359    3.8187   -0.2606 O   0  0  0  0  0  0  0  0  0  0  0  0
    4.8476    3.2976    4.0311 O   0  0  0  0  0  0  0  0  0  0  0  0
    5.1107    3.1756    2.9330 P   0  0  0  0  0  4  0  0  0  0  0  0
    7.5124    1.8965    2.5880 O   0  0  0  0  0  1  0  0  0  0  0  0
    6.2912   -2.5059    2.1240 N   0  0  0  0  0  0  0  0  0  0  0  0
   10.7850   -1.4921    2.0341 O   0  0  0  0  0  0  0  0  0  0  0  0
    9.1077   -0.2526    2.9049 C   0  0  0  0  0  0  0  0  0  0  0  0
    4.9600   -0.3551   -0.3672 O   0  0  0  0  0  0  0  0  0  0  0  0
    7.7734   -1.2115   -0.0497 O   0  0  0  0  0  0  0  0  0  0  0  0
   -0.0444    0.6612    0.0350 O   0  0  0  0  0  0  0  0  0  0  0  0
    2.8392   -0.9362    0.9118 C   0  0  0  0  0  0  0  0  0  0  0  0
    1.4411   -1.7441    1.2798 O   0  0  0  0  0  0  0  0  0  0  0  0
    4.2866   -2.9910    2.6887 N   0  0  0  0  0  0  0  0  0  0  0  0
    3.5412   -2.4413    1.8654 C   0  0  0  0  0  0  0  0  0  0  0  0
    5.7989    2.8948    2.2688 O   0  0  0  0  0  1  0  0  0  0  0  0
    7.6748    3.0610    3.9128 O   0  0  0  0  0  0  0  0  0  0  0  0
    3.8927   -1.6418    1.2900 N   0  0  0  0  0  0  0  0  0  0  0  0
    7.7474    2.2520    3.0402 P   0  0  0  0  0  4  0  0  0  0  0  0
    1.9730    0.3351    0.0164 C   0  0  0  0  0  0  0  0  0  0  0  0
    8.0347   -2.7425    2.2002 C   0  0  0  0  0  0  0  0  0  0  0  0
    8.4443    0.3707    3.3315 O   0  0  0  0  0  0  0  0  0  0  0  0
    2.7690    2.7192    0.6061 C   0  0  0  0  0  0  0  0  0  0  0  0
    9.7626   -2.3823    0.3852 O   0  0  0  0  0  0  0  0  0  0  0  0
    5.1774   -1.6783    1.5507 C   0  0  0  0  0  0  0  0  0  0  0  0
  5  1  1  0
  6  4  1  0
  8  6  1  0
 10  7  1  0
 10  9  1  0
 12  3  1  0
 13  1  1  0
 14  1  1  0
 15  2  1  0
 16  5  1  0
 17  6  1  0
 18  2  1  0
 19 18  1  0
 20  3  1  0
 21 20  2  0
 22 10  1  0
 24 18  1  0
 24 21  1  0
 25 11  1  0
 25 23  1  0
 26  2  1  0
 26  4  1  0
 26 18  1  0
 27  5  1  0
 27 12  1  0
 28 14  1  0
 28 25  1  0
 29  4  1  0
 29  7  1  0
 30  5  1  0
 31 12  1  0
 31 24  1  0
M  RAD  4  10   2  11   2  22   2  25   2
M  END
>  <ID>  (1) 
conformer_0

$$$$
