
     RDKit          3D

 27 28  0  0  0  0  0  0  0  0999 V2000
    8.1784   -1.1075    1.2563 C   0  0  0  0  0  0  0  0  0  0  0  0
    3.9097   -1.8589    1.8134 C   0  0  0  0  0  0  0  0  0  0  0  0
    0.8346    2.1326   -0.0207 C   0  0  0  0  0  0  0  0  0  0  0  0
    9.4223   -1.4194    2.8104 C   0  0  0  0  0  0  0  0  0  0  0  0
    3.3717   -0.2343    0.1873 C   0  0  0  0  0  0  0  0  0  0  0  0
    2.2982    1.7730   -0.9098 C   0  0  0  0  0  0  0  0  0  0  0  0
    2.0260    0.9483    0.0705 C   0  0  0  0  0  0  0  0  0  0  0  0
    6.4282   -2.4690    2.3701 N   0  0  0  0  0  0  0  0  0  0  0  0
    5.3195   -1.8847    1.9695 C   0  0  0  0  0  0  0  0  0  0  0  0
    8.1800    2.3103    2.7099 P   0  0  0  0  0  0  0  0  0  0  0  0
    0.2366    3.5894   -0.0695 O   0  0  0  0  0  0  0  0  0  0  0  0
    8.1305   -2.4104    2.3825 C   0  0  0  0  0  0  0  0  0  0  0  0
    4.8933    4.1363    1.8598 O   0  0  0  0  0  0  0  0  0  0  0  0
    8.7498    1.3777    2.4489 O   0  0  0  0  0  0  0  0  0  0  0  0
    8.1479   -1.3189   -0.0854 O   0  0  0  0  0  0  0  0  0  0  0  0
    5.2919    2.9558    3.9707 O   0  0  0  0  0  0  0  0  0  0  0  0
   10.9714   -1.8805    2.5843 O   0  0  0  0  0  0  0  0  0  0  0  0
    7.6743    3.0032    3.8643 O   0  0  0  0  0  0  0  0  0  0  0  0
    4.3523   -3.0896    2.8589 N   0  0  0  0  0  0  0  0  0  0  0  0
    3.0774    2.0058    1.4129 O   0  0  0  0  0  0  0  0  0  0  0  0
    3.8081   -0.9978    1.1532 N   0  0  0  0  0  0  0  0  0  0  0  0
    6.8165    2.4895    2.0066 O   0  0  0  0  0  0  0  0  0  0  0  0
   -0.6639    1.4721   -0.3083 O   0  0  0  0  0  0  0  0  0  0  0  0
    9.5874   -0.2568    2.6897 C   0  0  0  0  0  0  0  0  0  0  0  0
    3.1591    2.8664    0.9504 C   0  0  0  0  0  0  0  0  0  0  0  0
    5.5988   -3.2792    2.9254 C   0  0  0  0  0  0  0  0  0  0  0  0
    5.6070    3.0271    2.7848 P   0  0  0  0  0  0  0  0  0  0  0  0
  7  3  1  0
  7  5  1  0
  7  6  1  0
  9  2  2  0
  9  8  1  0
 11  3  1  0
 12  1  1  0
 12  4  1  0
 12  8  1  0
 14 10  1  0
 15  1  1  0
 17  4  1  0
 18 10  1  0
 19  2  1  0
 20  7  1  0
 21  2  1  0
 21  5  1  0
 22 10  1  0
 23  3  1  0
 24  4  1  0
 24 14  1  0
 25 20  1  0
 26  8  1  0
 26  9  1  0
 26 19  2  0
 27 13  1  0
 27 16  1  0
 27 22  1  0
M  END
>  <ID>  (1) 
conformer_0

$$$$
