
     RDKit          3D

 32 32  0  0  0  0  0  0  0  0999 V2000
    1.8990    0.5722    0.1010 C   0  0  1  0  0  0  0  0  0  0  0  0
    7.5302   -1.6124    1.4274 C   0  0  0  0  0  0  0  0  0  0  0  0
    2.6633   -1.9473    1.3145 C   0  0  0  0  0  0  0  0  0  0  0  0
    2.6414    2.9465   -0.5948 C   0  0  2  0  0  0  0  0  0  0  0  0
    8.3966   -2.3038    2.2291 C   0  0  2  0  0  0  0  0  0  0  0  0
    3.3262   -0.2617    0.1087 C   0  0  0  0  0  0  0  0  0  0  0  0
    5.0085    3.5095    3.8690 O   0  0  0  0  0  0  0  0  0  0  0  0
    7.8391    3.0103    3.9381 O   0  0  0  0  0  0  0  0  0  0  0  0
    5.7983   -3.1223    2.5921 C   0  0  0  0  0  0  0  0  0  0  0  0
    0.5008    3.5571   -0.1772 O   0  0  0  0  0  0  0  0  0  0  0  0
    4.9396    4.5369    1.7119 O   0  0  0  0  0  0  0  0  0  0  0  0
    6.3456    2.4786    2.2417 O   0  0  0  0  0  0  0  0  0  0  0  0
   11.2887   -1.7671    1.7788 O   0  0  0  0  0  0  0  0  0  0  0  0
    7.9581    2.2246    3.0723 P   0  0  0  0  0  0  0  0  0  0  0  0
    8.3649   -1.8349    3.4922 O   0  0  0  0  0  0  0  0  0  0  0  0
   -0.0592    0.8144   -0.1064 O   0  0  0  0  0  0  0  0  0  0  0  0
    3.0233    2.6973    0.7457 C   0  0  2  0  0  0  0  0  0  0  0  0
    9.7024   -1.2822    2.2136 C   0  0  0  0  0  0  0  0  0  0  0  0
    4.0083   -3.2915    2.5946 N   0  0  0  0  0  0  0  0  0  0  0  0
    5.8363   -2.2751    1.9676 N   0  0  0  0  0  0  0  0  0  0  0  0
    3.1319   -0.7794    0.7122 N   0  0  0  0  0  0  0  0  0  0  0  0
    8.7966    0.4398    3.1879 O   0  0  0  0  0  0  0  0  0  0  0  0
    5.3907    3.2664    2.8879 P   0  0  0  0  0  0  0  0  0  0  0  0
    3.8226    2.5667    1.4575 O   0  0  0  0  0  0  0  0  0  0  0  0
    1.1475    2.3344    0.3039 C   0  0  0  0  0  0  0  0  0  0  0  0
    4.8663   -1.6776    1.4088 C   0  0  0  0  0  0  0  0  0  0  0  0
    2.3479   -1.9629    1.4662 N   0  0  0  0  0  0  0  0  0  0  0  0
    8.4387    2.2150    2.1186 O   0  0  0  0  0  0  0  0  0  0  0  0
    2.4162    1.5122   -1.1348 C   0  0  0  0  0  0  0  0  0  0  0  0
    9.7362   -0.3428    3.2717 C   0  0  0  0  0  0  0  0  0  0  0  0
    9.9285   -2.6064    0.8530 O   0  0  0  0  0  0  0  0  0  0  0  0
    3.6937   -3.0161    2.3808 C   0  0  0  0  0  0  0  0  0  0  0  0
  5  2  1  0
  1  6  1  1
 14  8  1  0
 14 12  1  0
  5 15  1  1
 17  4  1  0
 17 11  1  0
 18  5  1  0
 18 13  1  0
 19  9  2  3
 20  2  1  0
 20  9  1  0
 21  3  1  0
 21  6  1  0
 23  7  1  0
 23 11  1  0
 23 12  1  0
 17 24  1  6
 25  1  1  0
 25  4  1  0
 25 10  1  0
 25 16  1  0
 26 20  1  0
 27  3  2  3
 28 14  1  0
 29  1  1  0
  4 29  1  6
 30 18  1  0
 30 22  1  0
 31 18  1  0
 32  3  1  0
 32 19  1  0
M  END
>  <ID>  (1) 
conformer_0

$$$$
