
     RDKit          3D

 30 33  0  0  0  0  0  0  0  0999 V2000
    8.6892   -2.3110    2.1313 C   0  0  0  0  0  0  0  0  0  0  0  0
    3.7572   -0.1162   -0.0795 C   0  0  0  0  0  0  0  0  0  0  0  0
    5.4396   -3.1746    2.6182 C   0  0  0  0  0  0  0  0  0  0  0  0
    2.1106    2.8255   -0.1756 C   0  0  0  0  0  0  0  0  0  0  0  0
    7.5731   -1.5855    2.0936 C   0  0  0  0  0  0  0  0  0  0  0  0
    2.2682   -0.5176    0.4296 C   0  0  0  0  0  0  0  0  0  0  0  0
    6.1149   -2.2015    1.9942 N   0  0  0  0  0  0  0  0  0  0  0  0
    4.8210    3.4492    3.9640 O   0  0  0  0  0  0  0  0  0  0  0  0
    8.1261    0.9382    3.2025 O   0  0  0  0  0  0  0  0  0  0  0  0
    3.6172   -1.1649    1.0542 N   0  0  0  0  0  0  0  0  0  0  0  0
    6.0975    2.4163    2.3196 O   0  0  0  0  0  1  0  0  0  0  0  0
    7.3491    3.3416    4.1092 O   0  0  0  0  0  0  0  0  0  0  0  0
    5.1429    3.2250    2.8911 P   0  0  0  0  0  4  0  0  0  0  0  0
   -0.3292    0.7611   -0.3363 O   0  0  0  0  0  0  0  0  0  0  0  0
    4.2625   -3.1212    2.5218 N   0  0  0  0  0  0  0  0  0  0  0  0
    4.7716    4.3349    1.6558 O   0  0  0  0  0  0  0  0  0  0  0  0
    9.0051   -2.5796    0.5759 O   0  0  0  0  0  0  0  0  0  0  0  0
    3.4146   -2.2171    1.8773 C   0  0  0  0  0  0  0  0  0  0  0  0
    9.0600    0.0153    3.1645 C   0  0  0  0  0  0  0  0  0  0  0  0
   10.9284   -1.5892    1.7970 O   0  0  0  0  0  0  0  0  0  0  0  0
    0.6653    2.1647   -0.0140 C   0  0  0  0  0  0  0  0  0  0  0  0
    8.4865    2.7155    2.2930 O   0  0  0  0  0  1  0  0  0  0  0  0
   -0.0171    2.9966   -0.4071 O   0  0  0  0  0  0  0  0  0  0  0  0
    1.6343    0.7760   -0.1806 C   0  0  0  0  0  0  0  0  0  0  0  0
    7.6884    2.4750    3.1499 P   0  0  0  0  0  4  0  0  0  0  0  0
    5.0935   -1.7523    1.4024 C   0  0  0  0  0  0  0  0  0  0  0  0
    9.7396   -1.1979    2.7488 C   0  0  0  0  0  0  0  0  0  0  0  0
    8.3113   -1.2952    3.5700 O   0  0  0  0  0  0  0  0  0  0  0  0
    2.2385    1.5959   -1.1489 C   0  0  0  0  0  0  0  0  0  0  0  0
    3.0421    2.6210    0.7125 C   0  0  0  0  0  0  0  0  0  0  0  0
  5  1  1  0
  6  2  1  0
  7  3  1  0
  7  5  1  0
 10  2  1  0
 10  6  1  0
 13  8  1  0
 13 11  1  0
 15  3  2  0
 16 13  1  0
 17  1  1  0
 18 10  1  0
 18 15  1  0
 19  9  1  0
 21  4  1  0
 21 14  1  0
 23 21  1  0
 24  6  1  0
 24 21  1  0
 25  9  1  0
 25 12  1  0
 25 22  1  0
 26  7  1  0
 26 18  2  0
 27  1  1  0
 27 19  1  0
 27 20  1  0
 28 19  1  0
 28 27  1  0
 29  4  1  0
 29 24  1  0
 30  4  1  0
 30 16  1  0
M  RAD  4  11   2  13   2  22   2  25   2
M  END
>  <ID>  (1) 
conformer_0

$$$$
