
     RDKit          3D

 29 29  0  0  0  0  0  0  0  0999 V2000
    8.3758   -2.5553    2.5560 C   0  0  0  0  0  0  0  0  0  0  0  0
    3.3829   -0.5777    0.3507 C   0  0  0  0  0  0  0  0  0  0  0  0
    5.4785   -2.5698    2.3463 C   0  0  0  0  0  0  0  0  0  0  0  0
    9.5472   -1.1452    1.9894 C   0  0  0  0  0  0  0  0  0  0  0  0
    2.2172    0.2775    0.1034 C   0  0  0  0  0  0  0  0  0  0  0  0
    2.2157    2.1190   -0.8049 C   0  0  0  0  0  0  0  0  0  0  0  0
    3.1751    2.9608    0.7460 C   0  0  0  0  0  0  0  0  0  0  0  0
    4.6555    4.4162    1.8519 O   0  0  0  0  0  0  0  0  0  0  0  0
    3.8499   -1.4525    1.2424 N   0  0  0  0  0  0  0  0  0  0  0  0
    8.7759    0.6761    3.0700 O   0  0  0  0  0  0  0  0  0  0  0  0
    9.4017   -0.4366    3.2895 C   0  0  0  0  0  0  0  0  0  0  0  0
    8.1358    2.1937    3.1429 P   0  0  0  0  0  4  0  0  0  0  0  0
   -0.4604    1.0196   -0.3492 O   0  0  0  0  0  0  0  0  0  0  0  0
    7.5888    2.7364    4.2015 O   0  0  0  0  0  0  0  0  0  0  0  0
    6.1205   -2.4126    2.1885 N   0  0  0  0  0  0  0  0  0  0  0  0
    6.3582    2.4195    2.1715 O   0  0  0  0  0  0  0  0  0  0  0  0
    7.9589   -0.8794   -0.0450 O   0  0  0  0  0  0  0  0  0  0  0  0
   11.0334   -1.8456    1.3979 O   0  0  0  0  0  0  0  0  0  0  0  0
    8.2115   -1.9987    3.5881 O   0  0  0  0  0  0  0  0  0  0  0  0
    1.2048    2.0712    0.0260 C   0  0  0  0  0  0  0  0  0  0  0  0
    3.9139   -2.3861    1.9839 C   0  0  0  0  0  0  0  0  0  0  0  0
    5.3027    2.9200    3.9864 O   0  0  0  0  0  0  0  0  0  0  0  0
    0.1501    3.2539   -0.4536 O   0  0  0  0  0  0  0  0  0  0  0  0
    4.9938    1.6421    2.2576 C   0  0  0  0  0  0  0  0  0  0  0  0
    4.9594   -3.0680    3.0955 N   0  0  0  0  0  0  0  0  0  0  0  0
    5.4929    3.0030    2.8451 P   0  0  0  0  0  0  0  0  0  0  0  0
    8.1746   -1.7863    1.3313 C   0  0  0  0  0  0  0  0  0  0  0  0
    9.2499   -2.9145    0.2565 O   0  0  0  0  0  0  0  0  0  0  0  0
    8.6895    2.6678    2.6914 O   0  0  0  0  0  1  0  0  0  0  0  0
  4  1  1  0
  5  2  1  0
  6  5  1  0
  7  6  1  0
  8  7  1  0
  9  2  1  0
 11  4  1  0
 11 10  1  0
 12 10  1  0
 14 12  1  0
 15  3  1  0
 18  4  1  0
 19  1  1  0
 20  6  1  0
 20 13  1  0
 21  3  1  0
 21  9  1  0
 23 20  1  0
 24  7  1  0
 24 16  1  0
 25  3  1  0
 26 16  1  0
 26 22  1  0
 26 24  1  0
 27  1  1  0
 27  3  1  0
 27 17  1  0
 28 27  1  0
 29 12  1  0
M  RAD  2  12   2  29   2
M  END
>  <ID>  (1) 
conformer_0

$$$$
