
     RDKit          3D

 28 30  0  0  0  0  0  0  0  0999 V2000
    2.2443    0.3510    0.0660 C   0  0  0  0  0  0  0  0  0  0  0  0
    8.4585   -2.1853    2.5540 C   0  0  0  0  0  0  0  0  0  0  0  0
    5.1914   -3.0172    2.5749 C   0  0  0  0  0  0  0  0  0  0  0  0
    9.6694   -0.0592    2.9564 C   0  0  0  0  0  0  0  0  0  0  0  0
    3.4206   -0.2473   -0.1943 C   0  0  0  0  0  0  0  0  0  0  0  0
    2.4148    2.4601   -0.3708 C   0  0  0  0  0  0  0  0  0  0  0  0
    5.8986   -2.1524    2.0439 N   0  0  0  0  0  0  0  0  0  0  0  0
    4.6523    4.6171    1.7905 O   0  0  0  0  0  0  0  0  0  0  0  0
    3.5893   -1.2103    1.0098 N   0  0  0  0  0  0  0  0  0  0  0  0
    4.6267    3.8807    3.9224 O   0  0  0  0  0  0  0  0  0  0  0  0
    8.6774    0.2677    2.8912 O   0  0  0  0  0  0  0  0  0  0  0  0
    4.7706    3.4831    2.6465 P   0  0  0  0  0  0  0  0  0  0  0  0
    3.1411   -2.1391    1.7148 C   0  0  0  0  0  0  0  0  0  0  0  0
    0.1743    0.6305   -0.0987 O   0  0  0  0  0  0  0  0  0  0  0  0
    4.1778   -3.1405    2.6378 N   0  0  0  0  0  0  0  0  0  0  0  0
    2.8825    2.7152    0.9143 C   0  0  0  0  0  0  0  0  0  0  0  0
    7.5700   -1.9581    1.8625 C   0  0  0  0  0  0  0  0  0  0  0  0
    7.2542    2.3299    4.2065 O   0  0  0  0  0  0  0  0  0  0  0  0
    8.7429   -2.1739    0.2423 O   0  0  0  0  0  0  0  0  0  0  0  0
    0.2779    3.1733   -0.0582 O   0  0  0  0  0  0  0  0  0  0  0  0
    7.9540    2.2189    2.2360 O   0  0  0  0  0  0  0  0  0  0  0  0
   10.6940   -2.3124    1.3292 O   0  0  0  0  0  0  0  0  0  0  0  0
    1.2755    2.0237    0.2019 C   0  0  0  0  0  0  0  0  0  0  0  0
    7.0081    2.2015    3.2246 P   0  0  0  0  0  0  0  0  0  0  0  0
    4.7945   -1.6499    1.4779 C   0  0  0  0  0  0  0  0  0  0  0  0
    5.6706    2.7130    2.0277 O   0  0  0  0  0  0  0  0  0  0  0  0
    9.6774   -1.1663    2.0962 C   0  0  0  0  0  0  0  0  0  0  0  0
    5.1373    1.9893    3.7453 O   0  0  0  0  0  0  0  0  0  0  0  0
  5  1  1  0
  6  1  1  0
  7  3  1  0
  9  5  1  0
 11  4  1  0
 12 10  1  0
 13  9  1  0
 15  3  2  0
 15 13  1  0
 16  6  1  0
 16  8  1  0
 17  2  1  0
 17  7  1  0
 19 17  1  0
 21  4  1  0
 23  6  1  0
 23 14  1  0
 23 16  1  0
 23 20  1  0
 24 18  1  0
 24 21  1  0
 25  7  1  0
 25  9  1  0
 25 13  2  0
 26 12  1  0
 26 24  1  0
 27  2  1  0
 27  4  1  0
 27 22  1  0
 28 12  1  0
M  END
>  <ID>  (1) 
conformer_0

$$$$
