
     RDKit          3D

 27 28  0  0  0  0  0  0  0  0999 V2000
    9.6748   -1.5192    2.4104 C   0  0  0  0  0  0  0  0  0  0  0  0
    1.9862    1.7749   -0.7190 C   0  0  0  0  0  0  0  0  0  0  0  0
    3.0506   -2.3329    1.9310 C   0  0  0  0  0  0  0  0  0  0  0  0
    2.6386   -0.0225    0.0579 C   0  0  0  0  0  0  0  0  0  0  0  0
    9.3778   -0.5305    3.0854 C   0  0  0  0  0  0  0  0  0  0  0  0
    3.0755    2.7744    0.9068 C   0  0  0  0  0  0  0  0  0  0  0  0
    5.7627   -2.2167    2.0231 N   0  0  0  0  0  0  0  0  0  0  0  0
    1.1995    1.3149    0.0401 C   0  0  0  0  0  0  0  0  0  0  0  0
    3.7051   -2.7348    2.5008 N   0  0  0  0  0  0  0  0  0  0  0  0
    8.6485    0.6371    3.2233 O   0  0  0  0  0  0  0  0  0  0  0  0
    8.3390    2.1862    2.9341 P   0  0  0  0  0  0  0  0  0  0  0  0
    8.2110   -1.9692    3.4469 O   0  0  0  0  0  0  0  0  0  0  0  0
    8.5097   -2.4084    1.7092 C   0  0  0  0  0  0  0  0  0  0  0  0
   -0.4493    1.4143   -0.3019 O   0  0  0  0  0  0  0  0  0  0  0  0
   11.0992   -2.0417    1.5648 O   0  0  0  0  0  0  0  0  0  0  0  0
    5.0260   -2.9595    2.6577 C   0  0  0  0  0  0  0  0  0  0  0  0
    5.2670    2.9542    4.0836 O   0  0  0  0  0  0  0  0  0  0  0  0
    6.6250    2.3056    2.3840 O   0  0  0  0  0  0  0  0  0  0  0  0
    8.7273   -2.2480    0.1767 O   0  0  0  0  0  0  0  0  0  0  0  0
    4.8430    3.9150    2.1262 O   0  0  0  0  0  1  0  0  0  0  0  0
    2.1039    3.1859   -0.1895 C   0  0  0  0  0  0  0  0  0  0  0  0
    3.0646   -0.8063    0.8667 N   0  0  0  0  0  0  0  0  0  0  0  0
    5.5208    2.9129    2.9851 P   0  0  0  0  0  4  0  0  0  0  0  0
    2.3074   -1.7443    1.2429 N   0  0  0  0  0  0  0  0  0  0  0  0
    4.6308   -1.5561    1.3623 C   0  0  0  0  0  0  0  0  0  0  0  0
    8.9124    2.5759    2.5124 O   0  0  0  0  0  0  0  0  0  0  0  0
    7.4063   -1.6687    1.8734 C   0  0  0  0  0  0  0  0  0  0  0  0
  5  1  1  0
  8  2  1  0
  8  4  1  0
  9  3  1  0
 10  5  1  0
 11 10  1  0
 13  1  1  0
 14  8  1  0
 15  1  1  0
 16  7  1  0
 16  9  2  0
 18 11  1  0
 19 13  1  0
 21  2  1  0
 21  6  1  0
 22  4  1  0
 23 17  1  0
 23 18  1  0
 23 20  1  0
 24  3  1  0
 24 22  1  0
 25  3  2  0
 25  7  1  0
 25 22  1  0
 26 11  1  0
 27  7  1  0
 27 12  1  0
 27 13  1  0
M  RAD  2  20   2  23   2
M  END
>  <ID>  (1) 
conformer_0

$$$$
