
     RDKit          3D

 29 31  0  0  0  0  0  0  0  0999 V2000
    3.3897   -0.4856   -0.0586 C   0  0  0  0  0  0  0  0  0  0  0  0
    8.5410   -1.8896    1.5411 C   0  0  0  0  0  0  0  0  0  0  0  0
    5.3910   -3.0894    2.8579 C   0  0  0  0  0  0  0  0  0  0  0  0
    2.4625    2.3405   -0.4840 C   0  0  0  0  0  0  0  0  0  0  0  0
    0.9056    2.0454   -0.0407 C   0  0  0  0  0  0  0  0  0  0  0  0
    7.5796   -2.0498    2.3016 C   0  0  0  0  0  0  0  0  0  0  0  0
    6.9748    1.9772    2.8938 C   0  0  0  0  0  0  0  0  0  0  0  0
    5.8580   -2.2873    2.2011 N   0  0  0  0  0  0  0  0  0  0  0  0
    4.9089    4.3371    1.9675 O   0  0  0  0  0  0  0  0  0  0  0  0
    8.5037    2.6196    2.0408 O   0  0  0  0  0  0  0  0  0  0  0  0
    0.3114    3.6320   -0.4253 O   0  0  0  0  0  0  0  0  0  0  0  0
    9.6790   -1.3213    2.3174 C   0  0  0  0  0  0  0  0  0  0  0  0
    8.2972   -1.5562    3.4625 O   0  0  0  0  0  0  0  0  0  0  0  0
    8.5284   -2.3173    0.1055 O   0  0  0  0  0  0  0  0  0  0  0  0
    3.2325   -2.4703    1.9137 C   0  0  0  0  0  0  0  0  0  0  0  0
    3.6066   -1.3079    1.0415 N   0  0  0  0  0  0  0  0  0  0  0  0
    4.2327   -3.2552    2.7610 N   0  0  0  0  0  0  0  0  0  0  0  0
   -0.1688    1.0750   -0.3632 O   0  0  0  0  0  0  0  0  0  0  0  0
    2.0907   -0.1692   -0.0183 C   0  0  0  0  0  0  0  0  0  0  0  0
    4.9549    1.8756    2.8244 N   0  0  0  0  0  0  0  0  0  0  0  0
    6.2101    3.4667    4.0879 O   0  0  0  0  0  0  0  0  0  0  0  0
    2.6485    2.3953    0.6716 C   0  0  0  0  0  0  0  0  0  0  0  0
   10.5586   -2.3933    1.0600 O   0  0  0  0  0  0  0  0  0  0  0  0
    9.1601   -0.0815    3.4337 C   0  0  0  0  0  0  0  0  0  0  0  0
    6.2719    2.8990    2.9093 P   0  0  0  0  0  0  0  0  0  0  0  0
    3.5470    2.7108    1.6806 O   0  0  0  0  0  0  0  0  0  0  0  0
    8.9736    0.7046    2.7761 O   0  0  0  0  0  0  0  0  0  0  0  0
    5.0349    2.2768    2.5447 C   0  0  0  0  0  0  0  0  0  0  0  0
    4.8283   -1.8287    1.5998 C   0  0  0  0  0  0  0  0  0  0  0  0
  5  4  1  0
  6  2  1  0
  8  3  1  0
  8  6  1  0
 10  7  1  0
 11  5  1  0
 12  2  1  0
 13  6  1  0
 14  2  1  0
 16  1  1  0
 16 15  1  0
 17  3  2  0
 17 15  1  0
 18  5  1  0
 19  1  1  0
 19  4  1  0
 22  4  1  0
 23 12  1  0
 24 12  1  0
 24 13  1  0
 25  7  1  0
 25 21  1  0
 26 22  1  0
 27 24  1  0
 28  9  1  0
 28 20  1  0
 28 25  1  0
 28 26  1  0
 29  8  1  0
 29 15  2  0
 29 16  1  0
M  END
>  <ID>  (1) 
conformer_0

$$$$
