
     RDKit          3D

 30 32  0  0  0  0  0  0  0  0999 V2000
    7.8460   -1.5366    1.6229 C   0  0  0  0  0  0  0  0  0  0  0  0
    3.7164   -2.0587    1.7294 C   0  0  0  0  0  0  0  0  0  0  0  0
    1.6944    1.2314   -1.0652 C   0  0  0  0  0  0  0  0  0  0  0  0
    3.6822   -0.4511    0.0485 C   0  0  0  0  0  0  0  0  0  0  0  0
    8.6619   -2.2931    2.5524 C   0  0  0  0  0  0  0  0  0  0  0  0
    0.3927    1.6593   -0.2303 C   0  0  0  0  0  0  0  0  0  0  0  0
    6.2094   -2.0939    2.0475 N   0  0  0  0  0  0  0  0  0  0  0  0
    5.2431    3.3601    2.9558 P   0  0  0  0  0  0  0  0  0  0  0  0
    5.0886    3.6141    4.0916 O   0  0  0  0  0  0  0  0  0  0  0  0
    7.8932    3.0344    4.0925 O   0  0  0  0  0  0  0  0  0  0  0  0
    8.4618    0.6920    3.1533 O   0  0  0  0  0  0  0  0  0  0  0  0
    5.0382    4.6574    1.7761 O   0  0  0  0  0  0  0  0  0  0  0  0
    5.6137   -3.0030    2.6934 C   0  0  0  0  0  0  0  0  0  0  0  0
   -1.0037    1.0462   -0.2773 O   0  0  0  0  0  0  0  0  0  0  0  0
   11.1491   -1.6580    1.3462 O   0  0  0  0  0  0  0  0  0  0  0  0
    8.4384   -1.9627    3.7022 O   0  0  0  0  0  0  0  0  0  0  0  0
    3.7399   -1.0143    0.8834 N   0  0  0  0  0  0  0  0  0  0  0  0
    4.3113   -2.8869    2.5391 N   0  0  0  0  0  0  0  0  0  0  0  0
    8.8832   -0.3154    3.2847 C   0  0  0  0  0  0  0  0  0  0  0  0
    7.9787    2.3777    3.1124 P   0  0  0  0  0  0  0  0  0  0  0  0
   -0.0242    3.2476   -0.3706 O   0  0  0  0  0  0  0  0  0  0  0  0
    2.9824    1.9986    0.3581 C   0  0  0  0  0  0  0  0  0  0  0  0
    6.6253    2.5058    2.3889 O   0  0  0  0  0  0  0  0  0  0  0  0
    8.9782    2.4991    2.1126 O   0  0  0  0  0  0  0  0  0  0  0  0
    5.4001   -1.5808    1.3765 C   0  0  0  0  0  0  0  0  0  0  0  0
    1.8461   -0.0104    0.1458 C   0  0  0  0  0  0  0  0  0  0  0  0
    9.3496   -2.4535    0.6433 O   0  0  0  0  0  0  0  0  0  0  0  0
    1.8743    2.2644    0.0426 C   0  0  0  0  0  0  0  0  0  0  0  0
    9.7993   -1.2813    2.1764 C   0  0  0  0  0  0  0  0  0  0  0  0
    4.0715    2.8840    2.0030 O   0  0  0  0  0  0  0  0  0  0  0  0
  5  1  1  0
  6  3  1  0
  7  1  1  0
  9  8  1  0
 13  7  1  0
 14  6  1  0
 16  5  1  0
 17  2  1  0
 17  4  1  0
 18  2  2  0
 18 13  1  0
 19 11  1  0
 19 16  1  0
 20 10  1  0
 21  6  1  0
 23  8  1  0
 23 20  1  0
 24 19  1  0
 24 20  1  0
 25  2  1  0
 25  7  1  0
 26  3  1  0
 26  4  1  0
 28  3  1  0
 28  6  1  0
 28 22  1  0
 29  5  1  0
 29 15  1  0
 29 19  1  0
 29 27  1  0
 30  8  1  0
 30 12  1  0
M  END
>  <ID>  (1) 
conformer_0

$$$$
