
     RDKit          3D

 30 31  0  0  0  0  0  0  0  0999 V2000
    7.7837   -2.3040    2.3410 C   0  0  0  0  0  0  0  0  0  0  0  0
    3.7054   -0.2389   -0.1051 C   0  0  0  0  0  0  0  0  0  0  0  0
    5.3429   -2.5540    2.7688 C   0  0  0  0  0  0  0  0  0  0  0  0
    2.3274   -0.0310    0.1891 C   0  0  0  0  0  0  0  0  0  0  0  0
    8.6374   -1.5321    1.2421 C   0  0  0  0  0  0  0  0  0  0  0  0
    2.3679    1.8744   -0.8198 C   0  0  0  0  0  0  0  0  0  0  0  0
    6.1860   -2.0999    2.3673 N   0  0  0  0  0  0  0  0  0  0  0  0
    5.4064    3.1398    2.8889 P   0  0  0  0  0  4  0  0  0  0  0  0
    8.7938    0.7062    2.7232 O   0  0  0  0  0  0  0  0  0  0  0  0
    7.7290    2.7785    4.1323 O   0  0  0  0  0  0  0  0  0  0  0  0
    6.3433    2.4443    2.1426 O   0  0  0  0  0  0  0  0  0  0  0  0
    3.5134   -1.1217    1.1320 N   0  0  0  0  0  0  0  0  0  0  0  0
    0.4515    3.6427   -0.3825 O   0  0  0  0  0  0  0  0  0  0  0  0
    7.5593   -0.8515    0.1113 O   0  0  0  0  0  0  0  0  0  0  0  0
    3.3640   -2.2295    1.8863 C   0  0  0  0  0  0  0  0  0  0  0  0
   -0.1037    0.8813   -0.3389 O   0  0  0  0  0  0  0  0  0  0  0  0
    9.1779   -1.3835    2.9681 C   0  0  0  0  0  0  0  0  0  0  0  0
    4.3494   -2.4423    3.0157 N   0  0  0  0  0  0  0  0  0  0  0  0
   10.5893   -2.3180    1.6434 O   0  0  0  0  0  0  0  0  0  0  0  0
    2.8370    1.5197    1.2881 O   0  0  0  0  0  0  0  0  0  0  0  0
    0.7711    2.1880   -0.0832 C   0  0  0  0  0  0  0  0  0  0  0  0
    5.2527    3.0297    4.0375 O   0  0  0  0  0  0  0  0  0  0  0  0
    4.8021    4.1209    1.9656 O   0  0  0  0  0  1  0  0  0  0  0  0
    8.6924    2.7804    2.3956 O   0  0  0  0  0  0  0  0  0  0  0  0
    8.2231   -1.6286    3.6550 O   0  0  0  0  0  0  0  0  0  0  0  0
    2.4538    2.2438    0.4856 C   0  0  0  0  0  0  0  0  0  0  0  0
    9.4971    0.1755    2.6026 C   0  0  0  0  0  0  0  0  0  0  0  0
    7.9129    2.4105    3.2231 P   0  0  0  0  0  0  0  0  0  0  0  0
    5.0046   -1.4000    1.5754 C   0  0  0  0  0  0  0  0  0  0  0  0
    8.8982   -2.6329    0.1420 O   0  0  0  0  0  0  0  0  0  0  0  0
  4  2  1  0
  5  1  1  0
  7  1  1  0
  7  3  1  0
 11  8  1  0
 12  2  1  0
 14  5  1  0
 15 12  1  0
 18  3  2  0
 18 15  1  0
 19  5  1  0
 20  4  1  0
 21 13  1  0
 21 16  1  0
 22  8  1  0
 23  8  1  0
 25  1  1  0
 25 17  1  0
 26  6  1  0
 26 20  1  0
 26 21  1  0
 27  9  1  0
 27 17  1  0
 27 24  1  0
 28 10  1  0
 28 11  1  0
 28 24  1  0
 29  7  1  0
 29 12  1  0
 29 15  2  0
 30  5  1  0
M  RAD  2   8   2  23   2
M  END
>  <ID>  (1) 
conformer_0

$$$$
