
     RDKit          3D

 30 32  0  0  0  0  0  0  0  0999 V2000
    7.6079   -1.5146    1.2412 C   0  0  0  0  0  0  0  0  0  0  0  0
    3.3982   -0.4957    0.1310 C   0  0  0  0  0  0  0  0  0  0  0  0
    5.3824   -2.8676    2.8130 C   0  0  0  0  0  0  0  0  0  0  0  0
    2.1498   -0.2397    0.0970 C   0  0  0  0  0  0  0  0  0  0  0  0
    9.4488   -1.6550    1.7030 C   0  0  0  0  0  0  0  0  0  0  0  0
    2.4334    2.1513   -0.5497 C   0  0  0  0  0  0  0  0  0  0  0  0
    4.7698    4.5230    1.6745 O   0  0  0  0  0  0  0  0  0  0  0  0
    6.1176   -2.2016    2.0989 N   0  0  0  0  0  0  0  0  0  0  0  0
    4.8164    3.4003    3.7502 O   0  0  0  0  0  0  0  0  0  0  0  0
    5.0689    3.3860    2.5983 P   0  0  0  0  0  0  0  0  0  0  0  0
    8.5551    0.3595    3.3651 O   0  0  0  0  0  0  0  0  0  0  0  0
    8.4179   -2.1728    3.4965 O   0  0  0  0  0  0  0  0  0  0  0  0
    9.4568   -3.1714    0.4374 O   0  0  0  0  0  0  0  0  0  0  0  0
   -0.3185    0.8791   -0.2647 O   0  0  0  0  0  0  0  0  0  0  0  0
    6.5486    2.5742    2.2202 O   0  0  0  0  0  0  0  0  0  0  0  0
   11.0000   -2.1601    1.9947 O   0  0  0  0  0  0  0  0  0  0  0  0
    9.6227   -0.8587    3.1296 C   0  0  0  0  0  0  0  0  0  0  0  0
    1.1177    1.7611   -0.0352 C   0  0  0  0  0  0  0  0  0  0  0  0
    7.3441    2.6965    4.3175 O   0  0  0  0  0  0  0  0  0  0  0  0
    7.9332    2.2379    3.2394 P   0  0  0  0  0  0  0  0  0  0  0  0
    3.5107   -2.3862    2.0994 C   0  0  0  0  0  0  0  0  0  0  0  0
    4.4235   -3.0312    2.9056 N   0  0  0  0  0  0  0  0  0  0  0  0
    3.9156   -1.6174    1.3283 N   0  0  0  0  0  0  0  0  0  0  0  0
    2.4873    2.7844    0.6708 C   0  0  0  0  0  0  0  0  0  0  0  0
    0.1003    3.1869   -0.4025 O   0  0  0  0  0  0  0  0  0  0  0  0
    5.2292   -1.6288    1.2984 C   0  0  0  0  0  0  0  0  0  0  0  0
    8.7955    2.3464    2.6854 O   0  0  0  0  0  0  0  0  0  0  0  0
    3.4896    2.4030    1.2919 O   0  0  0  0  0  0  0  0  0  0  0  0
    8.0376   -1.6623   -0.0693 O   0  0  0  0  0  0  0  0  0  0  0  0
    8.2882   -2.3941    2.4155 C   0  0  0  0  0  0  0  0  0  0  0  0
  4  2  1  0
  6  4  1  0
  8  1  1  0
  8  3  1  0
 10  7  1  0
 10  9  1  0
 13  5  1  0
 15 10  1  0
 16  5  1  0
 17  5  1  0
 17 11  1  0
 17 12  1  0
 18  6  1  0
 18 14  1  0
 20 15  1  0
 20 19  1  0
 22  3  1  0
 22 21  2  0
 23  2  1  0
 23 21  1  0
 24  6  1  0
 24  7  1  0
 24 18  1  0
 25 18  1  0
 26  8  1  0
 26 23  1  0
 27 20  1  0
 28 24  1  0
 29  1  1  0
 30  1  1  0
 30  5  1  0
 30 12  1  0
M  END
>  <ID>  (1) 
conformer_0

$$$$
