
     RDKit          3D

 25 25  0  0  0  0  0  0  0  0999 V2000
    2.2000    0.0360   -0.1658 C   0  0  0  0  0  0  0  0  0  0  0  0
    9.4846   -1.1578    2.7163 C   0  0  0  0  0  0  0  0  0  0  0  0
    2.3417    1.6523   -0.8872 C   0  0  0  0  0  0  0  0  0  0  0  0
    5.3298   -2.5165    2.4015 C   0  0  0  0  0  0  0  0  0  0  0  0
    9.3667   -1.9557    1.6667 C   0  0  0  0  0  0  0  0  0  0  0  0
    3.4670   -0.4976    0.1812 C   0  0  0  0  0  0  0  0  0  0  0  0
    4.9568    4.2300    1.8195 O   0  0  0  0  0  0  0  0  0  0  0  0
    8.9051   -2.6987    0.2273 O   0  0  0  0  0  0  0  0  0  0  0  0
    4.8892    3.5762    3.8572 O   0  0  0  0  0  0  0  0  0  0  0  0
   -0.2809    1.2418   -0.1422 O   0  0  0  0  0  0  0  0  0  0  0  0
    8.9779    1.6501    2.5816 O   0  0  0  0  0  0  0  0  0  0  0  0
    7.2967    2.9285    4.0000 O   0  0  0  0  0  0  0  0  0  0  0  0
    8.8388   -0.8662    3.4520 O   0  0  0  0  0  0  0  0  0  0  0  0
    4.5253   -3.0940    2.7235 N   0  0  0  0  0  0  0  0  0  0  0  0
    4.9698    3.2183    2.5579 P   0  0  0  0  0  0  0  0  0  0  0  0
    5.8169   -2.0184    2.0648 N   0  0  0  0  0  0  0  0  0  0  0  0
    1.1245    1.4952   -0.0238 C   0  0  0  0  0  0  0  0  0  0  0  0
    3.2792    2.4641    1.6509 O   0  0  0  0  0  0  0  0  0  0  0  0
   10.9962   -1.8399    0.9395 O   0  0  0  0  0  0  0  0  0  0  0  0
    3.7508   -2.2404    1.7564 C   0  0  0  0  0  0  0  0  0  0  0  0
    7.9183    1.9362    2.8226 P   0  0  0  0  0  4  0  0  0  0  0  0
    6.7154    2.1820    2.1071 O   0  0  0  0  0  1  0  0  0  0  0  0
    7.7787   -2.0285    2.2674 C   0  0  0  0  0  0  0  0  0  0  0  0
    2.4542    3.0760   -0.2496 C   0  0  0  0  0  0  0  0  0  0  0  0
    3.0248    2.8501    0.7308 C   0  0  0  0  0  0  0  0  0  0  0  0
  3  1  1  0
  5  2  1  0
  6  1  1  0
  8  5  1  0
 11  2  1  0
 13  2  1  0
 14  4  1  0
 15  7  1  0
 15  9  1  0
 16  4  1  0
 17  1  1  0
 17  3  1  0
 17 10  1  0
 18 15  1  0
 19  5  1  0
 20  6  1  0
 20 14  1  0
 21 11  1  0
 21 12  1  0
 22 21  1  0
 23  5  1  0
 23 16  1  0
 24  3  1  0
 25 18  1  0
 25 24  1  0
M  RAD  2  21   2  22   2
M  END
>  <ID>  (1) 
conformer_0

$$$$
