
     RDKit          3D

 28 31  0  0  0  0  0  0  0  0999 V2000
    8.0039   -2.4796    1.8172 C   0  0  0  0  0  0  0  0  0  0  0  0
    3.4917   -2.4197    2.1748 C   0  0  0  0  0  0  0  0  0  0  0  0
    2.1652    1.5870   -0.9018 C   0  0  0  0  0  0  0  0  0  0  0  0
    3.7859   -0.3684    0.1719 C   0  0  0  0  0  0  0  0  0  0  0  0
    9.1561   -1.5647    2.8706 C   0  0  0  0  0  0  0  0  0  0  0  0
    0.5420    1.6420   -0.0821 C   0  0  0  0  0  0  0  0  0  0  0  0
    3.7611   -0.9978    1.0517 N   0  0  0  0  0  0  0  0  0  0  0  0
    4.9712    3.7752    3.9432 O   0  0  0  0  0  0  0  0  0  0  0  0
    5.2291    3.5387    2.8705 P   0  0  0  0  0  0  0  0  0  0  0  0
    9.1692    0.8426    2.3837 O   0  0  0  0  0  0  0  0  0  0  0  0
    8.4351   -2.3079   -0.2454 O   0  0  0  0  0  0  0  0  0  0  0  0
    6.2929    2.5461    2.2740 O   0  0  0  0  0  0  0  0  0  0  0  0
    7.5932    2.6603    4.2348 O   0  0  0  0  0  0  0  0  0  0  0  0
    6.1294   -2.0820    1.9988 N   0  0  0  0  0  0  0  0  0  0  0  0
    4.4372   -2.9430    2.8716 N   0  0  0  0  0  0  0  0  0  0  0  0
    5.5572   -3.0210    3.0007 C   0  0  0  0  0  0  0  0  0  0  0  0
    4.7931    4.5228    1.7960 O   0  0  0  0  0  0  0  0  0  0  0  0
   -0.3832    1.2648   -0.4160 O   0  0  0  0  0  0  0  0  0  0  0  0
    9.9769   -0.0443    2.6193 C   0  0  0  0  0  0  0  0  0  0  0  0
    2.9079    2.0293    0.6607 C   0  0  0  0  0  0  0  0  0  0  0  0
    7.8170    2.5147    3.2026 P   0  0  0  0  0  4  0  0  0  0  0  0
    1.9362    2.7429   -0.1107 C   0  0  0  0  0  0  0  0  0  0  0  0
    5.1187   -1.7377    1.7816 C   0  0  0  0  0  0  0  0  0  0  0  0
    8.6494    2.9312    2.5599 O   0  0  0  0  0  1  0  0  0  0  0  0
    2.0723    0.0860    0.1092 C   0  0  0  0  0  0  0  0  0  0  0  0
   10.2301   -2.6292    0.6924 O   0  0  0  0  0  0  0  0  0  0  0  0
    7.3651   -1.1295    0.9075 C   0  0  0  0  0  0  0  0  0  0  0  0
    9.7156   -1.5151    1.3009 C   0  0  0  0  0  0  0  0  0  0  0  0
  5  1  1  0
  6  3  1  0
  7  2  1  0
  7  4  1  0
  9  8  1  0
 12  9  1  0
 15  2  1  0
 16 14  1  0
 16 15  2  0
 17  9  1  0
 18  6  1  0
 19  5  1  0
 19 10  1  0
 20  3  1  0
 20 17  1  0
 21 12  1  0
 21 13  1  0
 22  3  1  0
 22  6  1  0
 22 20  1  0
 23  2  2  0
 23  7  1  0
 23 14  1  0
 24 21  1  0
 25  3  1  0
 25  4  1  0
 27  1  1  0
 27 11  1  0
 27 14  1  0
 28  5  1  0
 28 26  1  0
M  RAD  2  21   2  24   2
M  END
>  <ID>  (1) 
conformer_0

$$$$
