
     RDKit          3D

 26 26  0  0  0  0  0  0  0  0999 V2000
    7.8274   -2.1930    1.9369 C   0  0  0  0  0  0  0  0  0  0  0  0
    1.3793    1.7703    0.1222 C   0  0  0  0  0  0  0  0  0  0  0  0
    3.2348   -0.1195   -0.1767 C   0  0  1  0  0  0  0  0  0  0  0  0
    8.8242   -1.6913    2.0362 C   0  0  2  0  0  0  0  0  0  0  0  0
    3.8649   -1.9636    1.8051 C   0  0  0  0  0  0  0  0  0  0  0  0
    2.3652    1.8070   -0.7695 C   0  0  2  0  0  0  0  0  0  0  0  0
    4.9506    3.2328    3.9775 O   0  0  0  0  0  0  0  0  0  0  0  0
    4.8300    4.3540    1.8967 O   0  0  0  0  0  1  0  0  0  0  0  0
    5.0996    3.1974    2.8212 P   0  0  1  0  0  4  0  0  0  0  0  0
   -0.1264    0.8731   -0.1379 O   0  0  0  0  0  0  0  0  0  0  0  0
    4.0691   -0.1034   -1.6105 O   0  0  0  0  0  0  0  0  0  0  0  0
    5.9246   -2.3115    2.1722 N   0  0  0  0  0  0  0  0  0  0  0  0
    6.5602    2.4320    2.0039 O   0  0  0  0  0  0  0  0  0  0  0  0
    7.4472    3.0428    3.8948 O   0  0  0  0  0  0  0  0  0  0  0  0
   10.7758   -1.3615    1.4825 O   0  0  0  0  0  0  0  0  0  0  0  0
    2.6748    2.0755    0.6835 C   0  0  2  0  0  0  0  0  0  0  0  0
    9.4889   -0.3989    2.7142 C   0  0  0  0  0  0  0  0  0  0  0  0
    3.3202   -2.0736    1.8627 N   0  0  0  0  0  0  0  0  0  0  0  0
    8.6334    1.7738    2.4640 O   0  0  0  0  0  0  0  0  0  0  0  0
    3.6552    2.1728    1.7687 O   0  0  0  0  0  0  0  0  0  0  0  0
    0.2901    3.2720   -0.1026 O   0  0  0  0  0  0  0  0  0  0  0  0
    8.9228   -2.1872    0.2888 O   0  0  0  0  0  0  0  0  0  0  0  0
    7.8175    2.2265    2.8463 P   0  0  0  0  0  0  0  0  0  0  0  0
    5.2406   -2.6787    2.3440 C   0  0  0  0  0  0  0  0  0  0  0  0
    8.3747   -0.4024    3.3350 O   0  0  0  0  0  0  0  0  0  0  0  0
    3.7950   -0.9108    1.0703 N   0  0  0  0  0  0  0  0  0  0  0  0
  4  1  1  0
  6  2  1  1
  6  3  1  0
  9  7  1  1
  9  8  1  0
 10  2  1  0
  3 11  1  6
 12  1  1  0
 13  9  1  0
 16  2  1  0
 16  6  1  0
 17  4  1  0
 17 15  1  0
 18  5  2  3
 19 17  1  0
 16 20  1  1
 21  2  1  0
  4 22  1  6
 23 13  1  0
 23 14  1  0
 23 19  1  0
 24  5  1  0
 24 12  1  0
 25 17  1  0
 26  3  1  0
 26  5  1  0
M  RAD  2   8   2   9   2
M  END
>  <ID>  (1) 
conformer_0

$$$$
