
     RDKit          3D

 31 34  0  0  0  0  0  0  0  0999 V2000
    7.8973   -2.1308    1.6498 C   0  0  0  0  0  0  0  0  0  0  0  0
    3.6564   -2.2556    1.8935 C   0  0  0  0  0  0  0  0  0  0  0  0
    0.8395    2.3424   -0.0487 C   0  0  0  0  0  0  0  0  0  0  0  0
    8.9539   -1.9795    3.1803 C   0  0  0  0  0  0  0  0  0  0  0  0
    3.8031   -0.1583    0.4860 C   0  0  0  0  0  0  0  0  0  0  0  0
    2.2434    3.0676   -0.5609 C   0  0  0  0  0  0  0  0  0  0  0  0
    4.9774    3.6708    3.8955 O   0  0  0  0  0  0  0  0  0  0  0  0
    6.3356   -2.1304    2.0173 N   0  0  0  0  0  0  0  0  0  0  0  0
    5.3279    3.4623    2.8860 P   0  0  0  0  0  0  0  0  0  0  0  0
    7.5318    2.8810    3.9370 O   0  0  0  0  0  0  0  0  0  0  0  0
    4.7314   -3.2707    2.9787 N   0  0  0  0  0  0  0  0  0  0  0  0
    5.4445   -2.9363    2.6913 C   0  0  0  0  0  0  0  0  0  0  0  0
    4.9062    4.5555    1.7689 O   0  0  0  0  0  0  0  0  0  0  0  0
    8.4089    2.0392    2.1436 O   0  0  0  0  0  0  0  0  0  0  0  0
   -0.3577    1.0181   -0.1954 O   0  0  0  0  0  0  0  0  0  0  0  0
   10.8558   -2.0248    1.3204 O   0  0  0  0  0  0  0  0  0  0  0  0
    3.1229    2.6085    0.6042 C   0  0  0  0  0  0  0  0  0  0  0  0
    8.7015   -0.6212    3.4518 O   0  0  0  0  0  0  0  0  0  0  0  0
    0.0433    3.5295   -0.2887 O   0  0  0  0  0  0  0  0  0  0  0  0
    9.7323   -0.3201    2.8139 C   0  0  0  0  0  0  0  0  0  0  0  0
    8.8768   -1.8028   -0.0223 O   0  0  0  0  0  0  0  0  0  0  0  0
    1.7826   -2.6523    1.9784 N   0  0  0  0  0  0  0  0  0  0  0  0
    5.1796   -1.5928    1.4279 C   0  0  0  0  0  0  0  0  0  0  0  0
    3.4845    2.2581    1.4762 O   0  0  0  0  0  0  0  0  0  0  0  0
    6.3299    2.6858    2.0621 O   0  0  0  0  0  0  0  0  0  0  0  0
    3.0009   -2.1043    1.6150 N   0  0  0  0  0  0  0  0  0  0  0  0
    9.2217   -1.3403    1.4595 C   0  0  0  0  0  0  0  0  0  0  0  0
    2.6457    1.0195    0.5343 N   0  0  0  0  0  0  0  0  0  0  0  0
    7.6587    2.4890    3.0549 P   0  0  0  0  0  0  0  0  0  0  0  0
    2.3275    0.7666    0.0714 C   0  0  0  0  0  0  0  0  0  0  0  0
    2.0776    1.3489   -1.3474 C   0  0  0  0  0  0  0  0  0  0  0  0
  4  1  1  0
  6  3  1  0
  8  1  1  0
  9  7  1  0
 11  2  2  0
 12  8  1  0
 12 11  1  0
 13  9  1  0
 15  3  1  0
 17  6  1  0
 18  4  1  0
 19  3  1  0
 20 14  1  0
 20 18  1  0
 23  2  1  0
 23  5  1  0
 23  8  1  0
 23 12  1  0
 24 17  1  0
 25  9  1  0
 26  2  1  0
 26 22  1  0
 27  1  1  0
 27 16  1  0
 27 20  1  0
 27 21  1  0
 28  5  1  0
 28 17  1  0
 29 10  1  0
 29 14  1  0
 29 25  1  0
 30 28  1  0
 31  6  1  0
 31 30  1  0
M  END
>  <ID>  (1) 
conformer_0

$$$$
