
     RDKit          3D

 32 35  0  0  0  0  0  0  0  0999 V2000
    9.6395   -1.7892    1.3868 C   0  0  0  0  0  0  0  0  0  0  0  0
    1.8831    0.3948    0.2212 C   0  0  0  0  0  0  0  0  0  0  0  0
    5.2669   -2.8447    2.9262 C   0  0  0  0  0  0  0  0  0  0  0  0
    3.3771   -0.1421    0.1660 C   0  0  0  0  0  0  0  0  0  0  0  0
    9.5797   -1.5036    3.0755 C   0  0  0  0  0  0  0  0  0  0  0  0
    6.0671   -2.0907    2.3736 N   0  0  0  0  0  0  0  0  0  0  0  0
    2.3868    1.7682   -0.9827 C   0  0  0  0  0  0  0  0  0  0  0  0
    4.9301    3.5392    3.8946 O   0  0  0  0  0  0  0  0  0  0  0  0
    0.3549    3.4029   -0.2556 O   0  0  0  0  0  0  0  0  0  0  0  0
    8.5946    0.7089    2.6598 O   0  0  0  0  0  0  0  0  0  0  0  0
    3.0594    1.7391    1.4084 O   0  0  0  0  0  0  0  0  0  0  0  0
    7.8091    2.4865    3.0065 P   0  0  0  0  0  0  0  0  0  0  0  0
    6.3221    2.5846    2.1577 O   0  0  0  0  0  0  0  0  0  0  0  0
    7.4310    2.8970    4.0875 O   0  0  0  0  0  0  0  0  0  0  0  0
    3.2337   -2.3744    1.8701 C   0  0  0  0  0  0  0  0  0  0  0  0
   11.2779   -2.0599    2.0172 O   0  0  0  0  0  0  0  0  0  0  0  0
    8.2055   -1.8021    3.4114 O   0  0  0  0  0  0  0  0  0  0  0  0
    3.6608   -1.1344    1.1411 N   0  0  0  0  0  0  0  0  0  0  0  0
    4.3097   -3.1198    2.8693 N   0  0  0  0  0  0  0  0  0  0  0  0
   -0.1939    0.8751   -0.1182 O   0  0  0  0  0  0  0  0  0  0  0  0
    9.4656   -0.0231    2.9360 C   0  0  0  0  0  0  0  0  0  0  0  0
    9.6222   -2.8117    0.3416 O   0  0  0  0  0  0  0  0  0  0  0  0
    2.7111    2.4844    0.6400 C   0  0  0  0  0  0  0  0  0  0  0  0
    4.7963    4.3525    1.7961 O   0  0  0  0  0  0  0  0  0  0  0  0
    2.4205   -2.1367    1.6300 N   0  0  0  0  0  0  0  0  0  0  0  0
    5.2660    3.3442    2.7565 P   0  0  0  0  0  0  0  0  0  0  0  0
    1.1038    2.2471    0.1735 C   0  0  0  0  0  0  0  0  0  0  0  0
    4.8079   -1.5854    1.5676 C   0  0  0  0  0  3  0  0  0  0  0  0
    8.7499    2.7842    2.3512 O   0  0  0  0  0  0  0  0  0  0  0  0
    7.9843   -1.1502   -0.0959 O   0  0  0  0  0  0  0  0  0  0  0  0
    7.5447   -2.1575    2.4255 C   0  0  0  0  0  0  0  0  0  0  0  0
    8.0175   -1.3389    1.1390 C   0  0  0  0  0  0  0  0  0  0  0  0
  4  2  1  0
  5  1  1  0
  6  3  1  0
  7  2  1  0
 13 12  1  0
 14 12  1  0
 16  1  1  0
 17  5  1  0
 18  4  1  0
 18 15  1  0
 19  3  2  0
 19 15  1  0
 21  5  1  0
 21 10  2  0
 22  1  1  0
 23  7  1  0
 23 11  1  0
 24 23  1  0
 25 15  1  0
 26  8  1  0
 26 13  1  0
 26 24  1  0
 27  7  1  0
 27  9  1  0
 27 20  1  0
 27 23  1  0
 28  6  1  0
 28 15  1  0
 28 18  1  0
 29 12  1  0
 31  6  1  0
 31 17  1  0
 32  1  1  0
 32 30  1  0
 32 31  1  0
M  RAD  1  28   2
M  END
>  <ID>  (1) 
conformer_0

$$$$
