
     RDKit          3D

 31 32  0  0  0  0  0  0  0  0999 V2000
    8.5352   -1.4206    0.9086 C   0  0  0  0  0  0  0  0  0  0  0  0
    3.7752   -0.0840    0.3530 C   0  0  0  0  0  0  0  0  0  0  0  0
    3.8877   -2.3880    1.9119 C   0  0  0  0  0  0  0  0  0  0  0  0
    8.3393   -2.0694    2.0730 C   0  0  0  0  0  0  0  0  0  0  0  0
    2.8701    2.7497    0.7760 C   0  0  0  0  0  0  0  0  0  0  0  0
    2.1680    2.3890   -0.5404 C   0  0  0  0  0  0  0  0  0  0  0  0
    4.7523    3.5473    3.9617 O   0  0  0  0  0  0  0  0  0  0  0  0
    6.6668   -2.2343    2.3196 N   0  0  0  0  0  0  0  0  0  0  0  0
    9.5750   -1.1459    2.6739 C   0  0  0  0  0  0  0  0  0  0  0  0
    6.0808    2.2269    2.2787 O   0  0  0  0  0  1  0  0  0  0  0  0
    7.4903    2.3895    3.2562 P   0  0  0  0  0  4  0  0  0  0  0  0
    4.7386    4.3632    1.7268 O   0  0  0  0  0  0  0  0  0  0  0  0
   10.7315   -1.8291    1.3096 O   0  0  0  0  0  0  0  0  0  0  0  0
   -0.1206    0.7529   -0.1233 O   0  0  0  0  0  0  0  0  0  0  0  0
    8.7558   -2.1039   -0.2300 O   0  0  0  0  0  0  0  0  0  0  0  0
    8.1605    0.8388    3.0393 O   0  0  0  0  0  0  0  0  0  0  0  0
    5.9419   -3.0639    2.9521 C   0  0  0  0  0  0  0  0  0  0  0  0
    2.6032   -0.8319    0.2700 C   0  0  0  0  0  0  0  0  0  0  0  0
    0.0380    3.2350   -0.2980 O   0  0  0  0  0  0  0  0  0  0  0  0
    4.5885   -3.0355    2.8644 N   0  0  0  0  0  0  0  0  0  0  0  0
    6.9991    3.0538    4.3079 O   0  0  0  0  0  0  0  0  0  0  0  0
    1.7379   -1.7387    1.2576 O   0  0  0  0  0  0  0  0  0  0  0  0
    8.3128   -1.3632    3.5288 O   0  0  0  0  0  0  0  0  0  0  0  0
    1.9031    0.5469   -0.2554 C   0  0  0  0  0  0  0  0  0  0  0  0
    9.3962    0.2229    3.2946 C   0  0  0  0  0  0  0  0  0  0  0  0
    3.0016    1.6581    1.1904 O   0  0  0  0  0  0  0  0  0  0  0  0
    4.1893   -1.4464    1.3886 N   0  0  0  0  0  0  0  0  0  0  0  0
    8.1485    3.0337    2.7030 O   0  0  0  0  0  1  0  0  0  0  0  0
    5.4452   -1.7687    1.8006 C   0  0  0  0  0  0  0  0  0  0  0  0
    5.1466    3.2909    2.9193 P   0  0  0  0  0  4  0  0  0  0  0  0
    0.9654    2.3846    0.1809 C   0  0  0  0  0  0  0  0  0  0  0  0
  4  1  1  0
  6  5  1  0
  8  4  1  0
  9  4  1  0
 12  5  1  0
 13  9  1  0
 15  1  1  0
 16 11  1  0
 17  8  1  0
 18  2  1  0
 20  3  1  0
 20 17  1  0
 21 11  1  0
 22 18  1  0
 23  4  1  0
 23  9  1  0
 24  6  1  0
 24 18  1  0
 25  9  1  0
 25 16  1  0
 26  5  2  0
 27  2  1  0
 27  3  1  0
 28 11  1  0
 29  8  1  0
 29 27  1  0
 30  7  1  0
 30 10  1  0
 30 12  1  0
 31  6  1  0
 31 14  1  0
 31 19  1  0
M  RAD  4  10   2  11   2  28   2  30   2
M  END
>  <ID>  (1) 
conformer_0

$$$$
