
     RDKit          3D

 29 29  0  0  0  0  0  0  0  0999 V2000
    2.1604    0.4046    0.0356 C   0  0  2  0  0  0  0  0  0  0  0  0
    9.4896   -0.6476    2.8788 C   0  0  0  0  0  0  0  0  0  0  0  0
    3.7807   -2.1467    1.7060 C   0  0  0  0  0  0  0  0  0  0  0  0
    8.9964   -1.6061    2.0238 C   0  0  0  0  0  0  0  0  0  0  0  0
    3.3113   -0.2036    0.1996 C   0  0  0  0  0  0  0  0  0  0  0  0
    2.1913    2.2053   -0.5463 C   0  0  2  0  0  0  0  0  0  0  0  0
    4.5865    4.6234    1.6343 O   0  0  0  0  0  0  0  0  0  0  0  0
    5.5863    1.7168    2.6367 C   0  0  0  0  0  0  0  0  0  0  0  0
    0.2680    3.4828   -0.2227 O   0  0  0  0  0  0  0  0  0  0  0  0
    2.8536    2.8915    0.6707 C   0  0  1  0  0  0  0  0  0  0  0  0
    4.0978   -3.1959    2.6849 N   0  0  0  0  0  0  0  0  0  0  0  0
    7.7800   -1.8848    1.6473 C   0  0  0  0  0  0  0  0  0  0  0  0
    5.8697   -2.3457    2.0883 N   0  0  0  0  0  0  0  0  0  0  0  0
    8.0355   -1.7493    3.3481 O   0  0  0  0  0  0  0  0  0  0  0  0
   11.2297   -1.6102    1.7498 O   0  0  0  0  0  0  0  0  0  0  0  0
    8.2840    0.5187    2.9653 O   0  0  0  0  0  0  0  0  0  0  0  0
    9.3884   -2.9328    0.3940 O   0  0  0  0  0  0  0  0  0  0  0  0
   -0.3352    0.9512   -0.2993 O   0  0  0  0  0  0  0  0  0  0  0  0
    6.7456    2.7430    2.9155 P   0  0  0  0  0  0  0  0  0  0  0  0
    5.0064   -2.7463    2.3925 C   0  0  0  0  0  0  0  0  0  0  0  0
    7.5857    2.9893    4.1028 O   0  0  0  0  0  0  0  0  0  0  0  0
    5.2574    1.0772    3.0334 N   0  0  0  0  0  0  0  0  0  0  0  0
    4.9614    3.6195    3.7603 O   0  0  0  0  0  0  0  0  0  0  0  0
    1.0801    2.0771   -0.0416 C   0  0  0  0  0  0  0  0  0  0  0  0
    7.6707   -1.1524   -0.0645 O   0  0  0  0  0  0  0  0  0  0  0  0
    3.7414   -1.2842    1.0971 N   0  0  0  0  0  0  0  0  0  0  0  0
    6.4195    2.9523    2.3554 O   0  0  0  0  0  0  0  0  0  0  0  0
    3.0918    1.2637    1.0897 O   0  0  0  0  0  0  0  0  0  0  0  0
    8.6941    2.6425    2.4919 O   0  0  0  0  0  0  0  0  0  0  0  0
  4  2  1  0
  1  5  1  6
  6  1  1  0
 10  6  1  0
 10  7  1  1
 10  8  1  0
 11  3  1  0
 12  4  1  0
 13 12  1  0
 14 12  1  0
 15  4  1  0
 16  2  1  0
 17  4  1  0
 20 11  1  0
 20 13  1  0
 21 19  1  0
 22  8  2  3
 23 19  1  0
  6 24  1  1
 24  9  1  0
 24 18  1  0
 25 12  1  0
 26  3  1  0
 26  5  1  0
 27  8  1  0
 27 19  1  0
 28  1  1  0
 28 10  1  0
 29 16  1  0
M  END
>  <ID>  (1) 
conformer_0

$$$$
