
     RDKit          3D

 28 30  0  0  0  0  0  0  0  0999 V2000
    8.3447   -2.2700    2.5554 C   0  0  0  0  0  0  0  0  0  0  0  0
    1.4674    1.2999    0.0803 C   0  0  0  0  0  0  0  0  0  0  0  0
    5.3636   -1.5898    1.3970 C   0  0  0  0  0  0  0  0  0  0  0  0
    2.2618    1.9967   -0.7998 C   0  0  0  0  0  0  0  0  0  0  0  0
    9.7833   -1.3753    2.2676 C   0  0  0  0  0  0  0  0  0  0  0  0
    2.8912   -0.2882    0.3483 C   0  0  0  0  0  0  0  0  0  0  0  0
    4.9556    3.4070    3.8437 O   0  0  0  0  0  0  0  0  0  0  0  0
    7.6688    2.9533    3.9464 O   0  0  0  0  0  0  0  0  0  0  0  0
    4.8140    4.7673    1.6661 O   0  0  0  0  0  0  0  0  0  0  0  0
    6.4362   -2.2864    2.1778 N   0  0  0  0  0  0  0  0  0  0  0  0
   -0.0242    0.6922   -0.1367 O   0  0  0  0  0  0  0  0  0  0  0  0
    6.2608    2.5263    2.1667 O   0  0  0  0  0  0  0  0  0  0  0  0
    7.5924    2.2481    3.1574 P   0  0  0  0  0  0  0  0  0  0  0  0
    0.2957    3.2515   -0.0846 O   0  0  0  0  0  0  0  0  0  0  0  0
    9.4449   -0.3931    3.2946 C   0  0  0  0  0  0  0  0  0  0  0  0
   10.7440   -2.1286    1.1203 O   0  0  0  0  0  0  0  0  0  0  0  0
    5.6490   -3.0617    2.7823 C   0  0  0  0  0  0  0  0  0  0  0  0
    2.8296    2.3837    0.8527 C   0  0  0  0  0  0  0  0  0  0  0  0
    3.8961   -1.2494    1.1112 N   0  0  0  0  0  0  0  0  0  0  0  0
    4.1509   -2.9340    2.5560 N   0  0  0  0  0  0  0  0  0  0  0  0
    8.3071    0.5170    3.1681 O   0  0  0  0  0  0  0  0  0  0  0  0
    8.4952   -1.8483    0.0740 O   0  0  0  0  0  0  0  0  0  0  0  0
    8.1477   -1.8432    3.5753 O   0  0  0  0  0  0  0  0  0  0  0  0
    3.7994    2.7202    1.4426 O   0  0  0  0  0  0  0  0  0  0  0  0
    5.0339    3.2916    2.7121 P   0  0  0  0  0  0  0  0  0  0  0  0
    3.8887   -2.5707    2.1970 C   0  0  0  0  0  0  0  0  0  0  0  0
    8.2404   -1.4312    1.3650 C   0  0  0  0  0  0  0  0  0  0  0  0
    8.3057    2.2768    2.0094 O   0  0  0  0  0  0  0  0  0  0  0  0
  4  2  1  0
  5  1  1  0
  6  4  1  0
 10  1  1  0
 10  3  1  0
 11  2  1  0
 13  8  1  0
 13 12  1  0
 14  2  1  0
 15  5  1  0
 16  5  1  0
 17 10  1  0
 18  4  1  0
 18  9  1  0
 19  3  1  0
 19  6  1  0
 20 17  2  0
 21 15  1  0
 23  1  1  0
 24 18  1  0
 25  7  1  0
 25  9  1  0
 25 12  1  0
 26  3  2  0
 26 19  1  0
 26 20  1  0
 27  1  1  0
 27  5  1  0
 27 22  1  0
 28 13  1  0
M  END
>  <ID>  (1) 
conformer_0

$$$$
