
     RDKit          3D

 30 33  0  0  0  0  0  0  0  0999 V2000
    7.6699   -1.7731    1.9116 C   0  0  0  0  0  0  0  0  0  0  0  0
    5.3463   -3.0621    2.7673 C   0  0  0  0  0  0  0  0  0  0  0  0
    1.0270    1.7003    0.0844 C   0  0  0  0  0  0  0  0  0  0  0  0
    2.3667    1.2922   -1.0189 C   0  0  0  0  0  0  0  0  0  0  0  0
    9.4671   -0.9500    2.0165 C   0  0  0  0  0  0  0  0  0  0  0  0
    2.5652    0.0069    0.2543 C   0  0  0  0  0  0  0  0  0  0  0  0
    3.6894   -0.9988    1.0372 N   0  0  0  0  0  0  0  0  0  0  0  0
    0.2856    3.4334   -0.0590 O   0  0  0  0  0  0  0  0  0  0  0  0
    4.8388    4.4316    1.9104 O   0  0  0  0  0  0  0  0  0  0  0  0
    5.3619    3.0750    2.8779 P   0  0  0  0  0  0  0  0  0  0  0  0
    5.9709   -2.1264    2.2063 N   0  0  0  0  0  0  0  0  0  0  0  0
    3.3314   -2.4966    2.0316 C   0  0  0  0  0  0  0  0  0  0  0  0
    4.6709   -3.3705    2.9701 N   0  0  0  0  0  0  0  0  0  0  0  0
    8.7622    1.0543    2.5636 O   0  0  0  0  0  0  0  0  0  0  0  0
    5.0208    3.3689    3.9409 O   0  0  0  0  0  0  0  0  0  0  0  0
   10.1126   -2.7303    1.0138 O   0  0  0  0  0  0  0  0  0  0  0  0
    9.6445   -0.2807    3.1722 C   0  0  0  0  0  0  0  0  0  0  0  0
   -0.1081    0.9020   -0.1698 O   0  0  0  0  0  0  0  0  0  0  0  0
    4.2016   -0.3251   -0.1519 C   0  0  0  0  0  0  0  0  0  0  0  0
    8.2176    2.3694    2.8693 P   0  0  0  0  0  0  0  0  0  0  0  0
    6.7687    2.7060    2.3071 O   0  0  0  0  0  0  0  0  0  0  0  0
    8.0427   -1.8820    0.2766 O   0  0  0  0  0  0  0  0  0  0  0  0
    8.5707   -1.7428    3.4888 O   0  0  0  0  0  0  0  0  0  0  0  0
    2.6748    2.3745    0.6147 C   0  0  0  0  0  0  0  0  0  0  0  0
    7.2439    2.8234    4.2040 O   0  0  0  0  0  0  0  0  0  0  0  0
    9.2116    2.9602    2.9976 O   0  0  0  0  0  0  0  0  0  0  0  0
    3.9701    2.3209    1.8433 O   0  0  0  0  0  0  0  0  0  0  0  0
    8.8690   -2.4725    2.3786 C   0  0  0  0  0  0  0  0  0  0  0  0
    4.9450   -1.6333    1.7624 C   0  0  0  0  0  0  0  0  0  0  0  0
    2.3990    2.6992   -0.4168 C   0  0  0  0  0  0  0  0  0  0  0  0
  4  3  1  0
  6  4  1  0
  7  6  1  0
  8  3  1  0
 10  9  1  0
 11  1  1  0
 11  2  1  0
 13  2  2  0
 13 12  1  0
 15 10  1  0
 17  5  1  0
 17 14  1  0
 18  3  1  0
 19  6  1  0
 19  7  1  0
 20 14  1  0
 21 10  1  0
 22  1  1  0
 23  1  1  0
 24  9  1  0
 25 20  1  0
 26 20  1  0
 27 24  1  0
 28  1  1  0
 28  5  1  0
 28 16  1  0
 28 23  1  0
 29  7  1  0
 29 11  1  0
 29 12  2  0
 30  3  1  0
 30  4  1  0
 30 24  1  0
M  END
>  <ID>  (1) 
conformer_0

$$$$
