
     RDKit          3D

 26 27  0  0  0  0  0  0  0  0999 V2000
    8.2168   -1.7950    1.6707 C   0  0  0  0  0  0  0  0  0  0  0  0
    3.7656   -2.3967    2.0645 C   0  0  0  0  0  0  0  0  0  0  0  0
    2.0173    2.7338   -0.2601 C   0  0  0  0  0  0  0  0  0  0  0  0
    3.7692   -0.3336    0.1934 C   0  0  0  0  0  0  0  0  0  0  0  0
    9.1816   -1.6366    1.9588 C   0  0  0  0  0  0  0  0  0  0  0  0
    3.2722    2.7038    0.7520 C   0  0  0  0  0  0  0  0  0  0  0  0
    6.4264   -2.1571    2.1648 N   0  0  0  0  0  0  0  0  0  0  0  0
    0.3601    3.9811   -0.3231 O   0  0  0  0  0  0  0  0  0  0  0  0
    8.4953    1.6806    2.5983 O   0  0  0  0  0  0  0  0  0  0  0  0
    6.3854    2.7323    2.9586 P   0  0  0  0  0  4  0  0  0  0  0  0
    4.8788    3.1407    3.9531 O   0  0  0  0  0  0  0  0  0  0  0  0
    3.7201   -1.1220    1.0919 N   0  0  0  0  0  0  0  0  0  0  0  0
    8.5728   -1.0860    3.4656 O   0  0  0  0  0  0  0  0  0  0  0  0
    0.9681    2.4937   -0.0060 C   0  0  0  0  0  0  0  0  0  0  0  0
    5.8280   -3.1475    2.8130 C   0  0  0  0  0  0  0  0  0  0  0  0
    9.3259   -0.2102    2.8948 C   0  0  0  0  0  0  0  0  0  0  0  0
    9.8771   -2.5272    0.5531 O   0  0  0  0  0  0  0  0  0  0  0  0
   -0.3408    1.1541   -0.4858 O   0  0  0  0  0  0  0  0  0  0  0  0
    4.8723   -3.2193    2.8368 N   0  0  0  0  0  0  0  0  0  0  0  0
    6.6608    2.4580    2.2912 O   0  0  0  0  0  1  0  0  0  0  0  0
    7.1126    3.0450    4.0975 O   0  0  0  0  0  0  0  0  0  0  0  0
    8.1620   -1.2054   -0.0538 O   0  0  0  0  0  0  0  0  0  0  0  0
    2.1634    1.4379   -0.7190 C   0  0  0  0  0  0  0  0  0  0  0  0
    5.3104   -1.6542    1.6869 C   0  0  0  0  0  0  0  0  0  0  0  0
    2.3167    0.1583    0.2529 C   0  0  0  0  0  0  0  0  0  0  0  0
    4.7613    3.3234    1.8055 O   0  0  0  0  0  0  0  0  0  0  0  0
  5  1  1  0
  6  3  1  0
  7  1  1  0
 11 10  1  0
 12  2  1  0
 12  4  1  0
 14  3  1  0
 14  8  1  0
 15  7  1  0
 16  5  1  0
 16  9  1  0
 16 13  1  0
 17  5  1  0
 18 14  1  0
 19  2  1  0
 19 15  2  0
 20 10  1  0
 21 10  1  0
 22  1  1  0
 23  3  1  0
 24  2  2  0
 24  7  1  0
 24 12  1  0
 25  4  1  0
 25 23  1  0
 26  6  1  0
 26 10  1  0
M  RAD  2  10   2  20   2
M  END
>  <ID>  (1) 
conformer_0

$$$$
