
     RDKit          3D

 30 32  0  0  0  0  0  0  0  0999 V2000
    7.6431   -1.5667    1.4003 C   0  0  0  0  0  0  0  0  0  0  0  0
    2.3571   -0.2498    0.4081 C   0  0  0  0  0  0  0  0  0  0  0  0
    3.6480   -2.3792    2.0484 C   0  0  0  0  0  0  0  0  0  0  0  0
    2.0078    2.8853   -0.3297 C   0  0  0  0  0  0  0  0  0  0  0  0
    0.6080    1.8755   -0.0021 C   0  0  0  0  0  0  0  0  0  0  0  0
    8.2874   -2.1636    2.4632 C   0  0  0  0  0  0  0  0  0  0  0  0
    3.8068   -1.4147    1.2127 N   0  0  0  0  0  0  0  0  0  0  0  0
    5.1443    3.4408    2.8133 P   0  0  0  0  0  0  0  0  0  0  0  0
    8.4061    3.0373    3.9143 O   0  0  0  0  0  0  0  0  0  0  0  0
    4.7635    4.5030    1.8691 O   0  0  0  0  0  0  0  0  0  0  0  0
   -0.0081    3.6433   -0.3111 O   0  0  0  0  0  0  0  0  0  0  0  0
    4.2349    3.2023    3.4784 O   0  0  0  0  0  0  0  0  0  0  0  0
    6.3324    2.7135    2.3007 O   0  0  0  0  0  1  0  0  0  0  0  0
   10.8968   -1.8146    1.1582 O   0  0  0  0  0  0  0  0  0  0  0  0
    8.4208   -0.2940    3.3476 O   0  0  0  0  0  0  0  0  0  0  0  0
    7.8513    2.3919    3.1503 P   0  0  0  0  0  4  0  0  0  0  0  0
    5.4916   -3.0987    2.8210 C   0  0  0  0  0  0  0  0  0  0  0  0
    3.9508   -0.2563    0.2558 C   0  0  0  0  0  0  0  0  0  0  0  0
    9.2741   -0.6559    3.0530 C   0  0  0  0  0  0  0  0  0  0  0  0
    5.9226   -2.1592    1.9738 N   0  0  0  0  0  0  0  0  0  0  0  0
    8.8135   -2.0937   -0.0988 O   0  0  0  0  0  0  0  0  0  0  0  0
    2.8688    1.5636    1.1990 O   0  0  0  0  0  1  0  0  0  0  0  0
    2.4334    2.1726    0.3874 C   0  0  0  0  0  0  0  0  0  0  0  0
    3.8903   -2.9449    2.6279 N   0  0  0  0  0  0  0  0  0  0  0  0
    8.3151    1.7559    2.3766 O   0  0  0  0  0  0  0  0  0  0  0  0
   -0.4231    1.4161   -0.5278 O   0  0  0  0  0  0  0  0  0  0  0  0
    5.3090   -1.6754    1.5483 C   0  0  0  0  0  0  0  0  0  0  0  0
    1.8192    1.2456   -0.7146 C   0  0  0  0  0  0  0  0  0  0  0  0
    9.5596   -1.6867    1.6069 C   0  0  0  0  0  0  0  0  0  0  0  0
    6.0587    3.0209    4.3352 O   0  0  0  0  0  0  0  0  0  0  0  0
  5  4  1  0
  6  1  1  0
  7  3  1  0
 10  8  1  0
 11  5  1  0
 12  8  1  0
 16  9  1  0
 16 13  1  0
 18  2  1  0
 18  7  1  0
 19  6  1  0
 19 15  1  0
 19 16  1  0
 20  1  1  0
 20 17  1  0
 23  4  1  0
 23 10  1  0
 23 22  1  0
 24  3  1  0
 24 17  2  0
 25 16  1  0
 26  5  1  0
 27  7  1  0
 27 20  1  0
 28  2  1  0
 28  5  1  0
 28 23  1  0
 29  6  1  0
 29 14  1  0
 29 19  1  0
 29 21  1  0
 30  8  1  0
M  RAD  3  13   2  16   2  22   2
M  END
>  <ID>  (1) 
conformer_0

$$$$
