
     RDKit          3D

 29 30  0  0  0  0  0  0  0  0999 V2000
    7.2978   -1.3018    1.6119 C   0  0  0  0  0  0  0  0  0  0  0  0
    1.9781   -0.1220    0.1334 C   0  0  0  0  0  0  0  0  0  0  0  0
    5.3559   -2.5252    2.4712 C   0  0  0  0  0  0  0  0  0  0  0  0
    2.4103    1.6018   -0.6975 C   0  0  0  0  0  0  0  0  0  0  0  0
    8.6649   -2.1412    1.9313 C   0  0  0  0  0  0  0  0  0  0  0  0
    3.8196   -0.4557    0.1232 C   0  0  0  0  0  0  0  0  0  0  0  0
    1.0628    1.4604    0.1377 C   0  0  0  0  0  0  0  0  0  0  0  0
    9.4559   -1.1687    2.2588 C   0  0  0  0  0  0  0  0  0  0  0  0
    4.8901    3.2767    3.9081 O   0  0  0  0  0  0  0  0  0  0  0  0
    5.1339    3.2175    2.8002 P   0  0  0  0  0  0  0  0  0  0  0  0
    8.4676    1.2249    2.9655 O   0  0  0  0  0  0  0  0  0  0  0  0
    5.9654   -1.9777    2.0878 N   0  0  0  0  0  0  0  0  0  0  0  0
    8.5441   -1.4237    3.5160 O   0  0  0  0  0  0  0  0  0  0  0  0
   -0.3668    0.9181   -0.2336 O   0  0  0  0  0  0  0  0  0  0  0  0
    6.9326    2.7758    2.3058 O   0  0  0  0  0  1  0  0  0  0  0  0
    8.1681   -1.7376   -0.0745 O   0  0  0  0  0  0  0  0  0  0  0  0
    1.6159   -2.1442    1.4673 O   0  0  0  0  0  0  0  0  0  0  0  0
    7.3221    2.8684    4.3109 O   0  0  0  0  0  0  0  0  0  0  0  0
    3.8772   -2.0635    1.8504 C   0  0  0  0  0  0  0  0  0  0  0  0
    2.7795    2.5789    0.8685 C   0  0  0  0  0  0  0  0  0  0  0  0
    3.6869   -1.1083    1.0073 N   0  0  0  0  0  0  0  0  0  0  0  0
    4.4358   -2.7937    3.0102 N   0  0  0  0  0  0  0  0  0  0  0  0
    0.1215    3.1820   -0.1271 O   0  0  0  0  0  0  0  0  0  0  0  0
    9.4007    0.2963    3.0657 C   0  0  0  0  0  0  0  0  0  0  0  0
    3.9676    2.3965    1.6750 O   0  0  0  0  0  0  0  0  0  0  0  0
   10.0168   -2.4016    0.6122 O   0  0  0  0  0  0  0  0  0  0  0  0
    5.0421    4.4144    1.8620 O   0  0  0  0  0  0  0  0  0  0  0  0
    2.4626    3.1204   -0.0539 C   0  0  0  0  0  0  0  0  0  0  0  0
    7.5588    2.6560    3.3032 P   0  0  0  0  0  4  0  0  0  0  0  0
  4  2  1  0
  5  1  1  0
  6  2  1  0
  7  2  1  0
  7  4  1  0
  8  5  1  0
 10  9  1  0
 12  1  1  0
 12  3  1  0
 13  5  1  0
 13  8  1  0
 14  7  1  0
 16  1  1  0
 19 17  1  0
 21  6  1  0
 21 19  1  0
 22  3  1  0
 22 19  1  0
 23  7  1  0
 24  8  1  0
 24 11  1  0
 25 10  1  0
 25 20  1  0
 26  5  1  0
 27 10  1  0
 28  4  1  0
 28 20  1  0
 29 11  1  0
 29 15  1  0
 29 18  1  0
M  RAD  2  15   2  29   2
M  END
>  <ID>  (1) 
conformer_0

$$$$
