
     RDKit          3D

 31 32  0  0  0  0  0  0  0  0999 V2000
    9.4864   -0.3052    2.4537 C   0  0  0  0  0  0  0  0  0  0  0  0
    5.0228   -2.9131    2.5465 C   0  0  0  0  0  0  0  0  0  0  0  0
    2.2398    2.6948   -0.3732 C   0  0  0  0  0  0  0  0  0  0  0  0
    3.7494   -0.5695   -0.2866 C   0  0  0  0  0  0  0  0  0  0  0  0
    7.8943   -1.2858    1.8866 C   0  0  0  0  0  0  0  0  0  0  0  0
    0.5230    2.1206   -0.0421 C   0  0  0  0  0  0  0  0  0  0  0  0
    7.4969    2.7536    4.2557 O   0  0  0  0  0  0  0  0  0  0  0  0
    5.9539   -2.1744    2.1638 N   0  0  0  0  0  0  0  0  0  0  0  0
    5.2543    3.2443    3.0467 P   0  0  0  0  0  0  0  0  0  0  0  0
    0.0930    3.5984   -0.3303 O   0  0  0  0  0  0  0  0  0  0  0  0
    3.4580   -0.9762    0.9074 N   0  0  0  0  0  0  0  0  0  0  0  0
    9.6404   -2.8699    0.7515 O   0  0  0  0  0  0  0  0  0  0  0  0
   -0.2529    0.7330   -0.3006 O   0  0  0  0  0  0  0  0  0  0  0  0
    4.9925    4.5632    2.0440 O   0  0  0  0  0  0  0  0  0  0  0  0
    8.6606    0.6162    2.8131 O   0  0  0  0  0  0  0  0  0  0  0  0
    8.5985   -1.5832    3.6980 O   0  0  0  0  0  0  0  0  0  0  0  0
    3.6229   -2.7604    2.4732 N   0  0  0  0  0  0  0  0  0  0  0  0
   11.3041   -1.6718    2.0222 O   0  0  0  0  0  0  0  0  0  0  0  0
    7.7235   -2.4688    2.7519 C   0  0  0  0  0  0  0  0  0  0  0  0
    5.1085    3.1611    4.1570 O   0  0  0  0  0  0  0  0  0  0  0  0
    3.3139   -2.0883    1.8855 C   0  0  0  0  0  0  0  0  0  0  0  0
    2.3758    1.2427   -1.0088 C   0  0  0  0  0  0  0  0  0  0  0  0
    6.5929    2.5593    2.1656 O   0  0  0  0  0  0  0  0  0  0  0  0
    2.2002    0.0098    0.1243 C   0  0  0  0  0  0  0  0  0  0  0  0
    7.8544    2.4018    3.2459 P   0  0  0  0  0  0  0  0  0  0  0  0
    2.4177    2.3041    0.8047 C   0  0  0  0  0  0  0  0  0  0  0  0
    3.8398    2.7609    1.9485 O   0  0  0  0  0  0  0  0  0  0  0  0
    5.1139   -1.4906    1.3688 C   0  0  0  0  0  0  0  0  0  0  0  0
    8.9423    2.7305    2.6914 O   0  0  0  0  0  0  0  0  0  0  0  0
    9.6438   -1.5994    2.4018 C   0  0  0  0  0  0  0  0  0  0  0  0
    7.9868   -1.7902    0.3511 O   0  0  0  0  0  0  0  0  0  0  0  0
  5  1  1  0
  6  3  1  0
  8  2  1  0
 10  6  1  0
 11  4  1  0
 13  6  1  0
 14  9  1  0
 15  1  1  0
 17  2  1  0
 19  5  1  0
 19  8  1  0
 19 16  1  0
 20  9  1  0
 21 11  1  0
 21 17  2  0
 22  3  1  0
 23  9  1  0
 24  4  1  0
 24 22  1  0
 25  7  1  0
 25 23  1  0
 26  3  1  0
 27 26  1  0
 28  8  1  0
 28 21  1  0
 29  1  1  0
 29 25  1  0
 30  1  1  0
 30 12  1  0
 30 16  1  0
 30 18  1  0
 31  5  1  0
M  END
>  <ID>  (1) 
conformer_0

$$$$
