
     RDKit          3D

 31 34  0  0  0  0  0  0  0  0999 V2000
    8.4135   -2.4027    2.3976 C   0  0  0  0  0  0  0  0  0  0  0  0
    3.7327   -0.3914    0.2199 C   0  0  0  0  0  0  0  0  0  0  0  0
    5.5329   -2.8620    2.8841 C   0  0  0  0  0  0  0  0  0  0  0  0
    9.6469   -1.1500    2.0006 C   0  0  0  0  0  0  0  0  0  0  0  0
    2.4188   -0.2940    0.1418 C   0  0  0  0  0  0  0  0  0  0  0  0
    2.2766    3.4229   -0.0401 C   0  0  0  0  0  0  0  0  0  0  0  0
    4.8292    4.6711    1.9715 O   0  0  0  0  0  0  0  0  0  0  0  0
    7.6406    2.2513    3.0522 P   0  0  0  0  0  0  0  0  0  0  0  0
   -0.1438    0.6263   -0.2275 O   0  0  0  0  0  0  0  0  0  0  0  0
    8.3068    0.7944    2.6889 O   0  0  0  0  0  0  0  0  0  0  0  0
    5.1471    3.4560    4.0212 O   0  0  0  0  0  0  0  0  0  0  0  0
    8.7404   -1.9988   -0.2378 O   0  0  0  0  0  0  0  0  0  0  0  0
    3.7212   -1.6525    1.3618 N   0  0  0  0  0  0  0  0  0  0  0  0
   10.8915   -1.9546    1.5726 O   0  0  0  0  0  0  0  0  0  0  0  0
    3.5058   -2.4727    2.2513 C   0  0  0  0  0  0  0  0  0  0  0  0
    9.1592   -0.4079    3.1113 C   0  0  0  0  0  0  0  0  0  0  0  0
    4.6561   -2.9870    3.2772 N   0  0  0  0  0  0  0  0  0  0  0  0
    1.0670    1.7680    0.0061 C   0  0  0  0  0  0  0  0  0  0  0  0
    0.0032    3.0657   -0.0640 O   0  0  0  0  0  0  0  0  0  0  0  0
    6.4240    2.4867    2.1666 O   0  0  0  0  0  0  0  0  0  0  0  0
    2.7320    2.2436    0.7049 C   0  0  0  0  0  0  0  0  0  0  0  0
    8.8439    2.7360    2.6787 O   0  0  0  0  0  0  0  0  0  0  0  0
    6.4633   -2.2694    2.2504 N   0  0  0  0  0  0  0  0  0  0  0  0
    7.2582    2.7641    4.1609 O   0  0  0  0  0  0  0  0  0  0  0  0
    5.2136    3.4101    2.8526 P   0  0  0  0  0  0  0  0  0  0  0  0
    3.7619    2.4790    1.8285 O   0  0  0  0  0  0  0  0  0  0  0  0
    8.0702   -1.5265    3.2704 O   0  0  0  0  0  0  0  0  0  0  0  0
    8.3508   -1.6122    1.0568 C   0  0  0  0  0  0  0  0  0  0  0  0
    1.9057    1.7789   -1.1583 C   0  0  0  0  0  0  0  0  0  0  0  0
    2.2984    1.1337    0.5369 N   0  0  0  0  0  0  0  0  0  0  0  0
    5.0491   -1.7402    1.7824 C   0  0  0  0  0  0  0  0  0  0  0  0
  4  1  1  0
  5  2  1  0
 13  2  1  0
 14  4  1  0
 15 13  1  0
 16  4  1  0
 16 10  1  0
 17  3  1  0
 17 15  2  0
 18  9  1  0
 19 18  1  0
 20  8  1  0
 21  6  1  0
 22  8  1  0
 22 16  1  0
 23  1  1  0
 23  3  1  0
 24  8  1  0
 25  7  1  0
 25 11  1  0
 25 20  1  0
 26 21  2  0
 27  1  1  0
 27 16  1  0
 28  1  1  0
 28  4  1  0
 28 12  1  0
 29 18  1  0
 30  5  1  0
 30 18  1  0
 30 21  1  0
 31  3  2  0
 31 13  1  0
 31 23  1  0
M  END
>  <ID>  (1) 
conformer_0

$$$$
