
     RDKit          3D

 31 31  0  0  0  0  0  0  0  0999 V2000
    2.1522    0.0224   -0.0905 C   0  0  0  0  0  0  0  0  0  0  0  0
    7.7999   -1.4156    1.3273 C   0  0  0  0  0  0  0  0  0  0  0  0
    3.4631   -2.3951    1.9696 C   0  0  0  0  0  3  0  0  0  0  0  0
    9.5751   -1.2640    1.9333 C   0  0  0  0  0  0  0  0  0  0  0  0
    1.9509    2.2120   -0.4124 C   0  0  0  0  0  0  0  0  0  0  0  0
    6.6167   -2.2850    2.4820 N   0  0  0  0  0  0  0  0  0  0  0  0
    3.2458   -0.2636    0.2879 C   0  0  0  0  0  0  0  0  0  0  0  0
    4.9368    3.4657    3.9128 O   0  0  0  0  0  0  0  0  0  0  0  0
    6.5401    2.5697    2.1368 O   0  0  0  0  0  0  0  0  0  0  0  0
    9.0871    2.8216    2.2531 O   0  0  0  0  0  0  0  0  0  0  0  0
    8.1599    2.1910    2.9762 P   0  0  0  0  0  0  0  0  0  0  0  0
    7.7589    2.3250    4.1233 O   0  0  0  0  0  0  0  0  0  0  0  0
    9.0858   -2.8101    0.3369 O   0  0  0  0  0  0  0  0  0  0  0  0
   -0.0736    0.7146   -0.1027 O   0  0  0  0  0  0  0  0  0  0  0  0
    5.5347   -2.9866    2.8482 C   0  0  0  0  0  0  0  0  0  0  0  0
    9.5751   -0.8538    3.1421 C   0  0  0  0  0  0  0  0  0  0  0  0
    4.3209   -3.0816    2.6750 N   0  0  0  0  0  0  0  0  0  0  0  0
    5.1218    3.2673    2.7194 P   0  0  0  0  0  0  0  0  0  0  0  0
    0.0587    3.3392   -0.4132 O   0  0  0  0  0  0  0  0  0  0  0  0
   10.8823   -2.1546    1.9199 O   0  0  0  0  0  0  0  0  0  0  0  0
    3.5867    2.3182    1.5462 O   0  0  0  0  0  0  0  0  0  0  0  0
    8.7822    0.7585    2.5762 O   0  0  0  0  0  0  0  0  0  0  0  0
    4.8559    4.2517    1.7971 O   0  0  0  0  0  0  0  0  0  0  0  0
    2.9537    2.4612    0.7768 C   0  0  0  0  0  0  0  0  0  0  0  0
    8.0022   -1.8301    3.4208 O   0  0  0  0  0  0  0  0  0  0  0  0
    2.7930   -1.7560    1.2910 N   0  0  0  0  0  0  0  0  0  0  0  0
    1.1165    2.0064   -0.1263 C   0  0  0  0  0  0  0  0  0  0  0  0
    7.7576   -1.0937    0.0164 O   0  0  0  0  0  0  0  0  0  0  0  0
    5.0386   -1.6600    1.5611 C   0  0  0  0  0  0  0  0  0  0  0  0
    8.1918   -2.3148    2.2588 C   0  0  0  0  0  0  0  0  0  0  0  0
    4.7193   -1.6605    1.6040 N   0  0  0  0  0  0  0  0  0  0  0  0
  5  1  1  0
  7  1  1  0
 11 10  1  0
 12 11  1  0
 13  2  1  0
 15  6  1  0
 16  4  1  0
 17  3  1  0
 17 15  2  0
 18  8  1  0
 18  9  1  0
 20  4  1  0
 22 11  1  0
 22 16  1  0
 23 18  1  0
 24  5  1  0
 24 21  2  0
 24 23  1  0
 26  3  1  0
 26  7  1  0
 27  5  1  0
 27 14  1  0
 27 19  1  0
 28  2  1  0
 29 15  1  0
 30  2  1  0
 30  4  1  0
 30  6  1  0
 30 25  1  0
 31  3  1  0
 31 29  1  0
M  RAD  1   3   2
M  END
>  <ID>  (1) 
conformer_0

$$$$
