
     RDKit          3D

 30 32  0  0  0  0  0  0  0  0999 V2000
    7.6074   -2.3896    2.4504 C   0  0  0  0  0  0  0  0  0  0  0  0
    4.2029   -1.8057    1.7565 C   0  0  0  0  0  3  0  0  0  0  0  0
    1.8963    2.8046   -0.1605 C   0  0  0  0  0  0  0  0  0  0  0  0
    3.4518   -0.4086    0.0963 C   0  0  0  0  0  0  0  0  0  0  0  0
    7.6869   -1.4115    1.2595 C   0  0  0  0  0  0  0  0  0  0  0  0
    5.8612   -2.1387    2.1866 N   0  0  0  0  0  0  0  0  0  0  0  0
    0.7678    2.1646   -0.0938 C   0  0  0  0  0  0  0  0  0  0  0  0
    4.7554    4.6813    1.6917 O   0  0  0  0  0  0  0  0  0  0  0  0
    7.9863    2.2446    2.9419 P   0  0  0  0  0  0  0  0  0  0  0  0
    7.7023    2.7729    4.0398 O   0  0  0  0  0  0  0  0  0  0  0  0
    0.1301    3.7079   -0.1606 O   0  0  0  0  0  0  0  0  0  0  0  0
   -0.2924    0.9279   -0.2259 O   0  0  0  0  0  0  0  0  0  0  0  0
    8.3925    0.5810    2.9008 O   0  0  0  0  0  0  0  0  0  0  0  0
    8.0754   -2.0863    3.4600 O   0  0  0  0  0  0  0  0  0  0  0  0
    3.4812   -0.7489    0.9657 N   0  0  0  0  0  0  0  0  0  0  0  0
    4.9896    2.8836    3.8493 O   0  0  0  0  0  0  0  0  0  0  0  0
    8.8349   -0.9539    3.3852 C   0  0  0  0  0  0  0  0  0  0  0  0
    8.3679   -1.9031   -0.0252 O   0  0  0  0  0  0  0  0  0  0  0  0
   10.4587   -2.4243    1.4011 O   0  0  0  0  0  0  0  0  0  0  0  0
    6.4978    2.4353    2.0572 O   0  0  0  0  0  0  0  0  0  0  0  0
    5.0126    3.0655    2.5817 P   0  0  0  0  0  0  0  0  0  0  0  0
    5.2335   -2.6946    2.5091 C   0  0  0  0  0  0  0  0  0  0  0  0
    4.0137   -2.7982    2.6250 N   0  0  0  0  0  0  0  0  0  0  0  0
    2.9805    2.5600    0.7182 C   0  0  0  0  0  0  0  0  0  0  0  0
    8.9261    2.3542    1.8843 O   0  0  0  0  0  0  0  0  0  0  0  0
    3.7798    2.8560    1.3902 O   0  0  0  0  0  0  0  0  0  0  0  0
    2.0530    1.4670   -0.8618 C   0  0  0  0  0  0  0  0  0  0  0  0
    2.0194    0.1596    0.2352 C   0  0  0  0  0  0  0  0  0  0  0  0
    9.2655   -1.8487    1.4757 C   0  0  0  0  0  0  0  0  0  0  0  0
    9.8389   -0.4735    2.5147 C   0  0  0  0  0  0  0  0  0  0  0  0
  5  1  1  0
  6  1  1  0
  7  3  1  0
 10  9  1  0
 11  7  1  0
 12  7  1  0
 13  9  1  0
 14  1  1  0
 15  2  1  0
 15  4  1  0
 17 13  1  0
 17 14  1  0
 18  5  1  0
 21 16  1  0
 21 20  1  0
 22  2  1  0
 22  6  1  0
 23  2  1  0
 23 22  2  0
 24  3  1  0
 24  8  1  0
 25  9  1  0
 26 21  1  0
 26 24  1  0
 27  3  1  0
 27  7  1  0
 28  4  1  0
 28 27  1  0
 29  5  1  0
 29 19  1  0
 30 17  1  0
 30 29  1  0
M  RAD  1   2   2
M  END
>  <ID>  (1) 
conformer_0

$$$$
