
     RDKit          3D

 26 27  0  0  0  0  0  0  0  0999 V2000
    2.4868    1.7559   -0.6783 C   0  0  0  0  0  0  0  0  0  0  0  0
    7.9498   -1.7477    1.8282 C   0  0  0  0  0  0  0  0  0  0  0  0
    3.3939   -2.3282    1.7532 C   0  0  0  0  0  0  0  0  0  0  0  0
    3.8319   -0.3817    0.2409 C   0  0  0  0  0  0  0  0  0  0  0  0
    8.8968   -1.6859    1.9392 C   0  0  0  0  0  0  0  0  0  0  0  0
    0.2388    2.0648   -0.3494 C   0  0  0  0  0  0  0  0  0  0  0  0
    7.8541    3.2400    4.0047 O   0  0  0  0  0  0  0  0  0  0  0  0
    4.4819    4.1192    1.5964 O   0  0  0  0  0  0  0  0  0  0  0  0
    5.2558   -3.2551    2.8603 C   0  0  0  0  0  0  0  0  0  0  0  0
    5.7636   -2.1326    2.0056 N   0  0  0  0  0  0  0  0  0  0  0  0
    8.8260    1.2160    2.9281 O   0  0  0  0  0  0  0  0  0  0  0  0
   10.9261   -2.0494    1.4683 O   0  0  0  0  0  0  0  0  0  0  0  0
    7.9951    2.3099    3.2780 P   0  0  0  0  0  0  0  0  0  0  0  0
    3.9136   -2.9651    2.5584 N   0  0  0  0  0  0  0  0  0  0  0  0
    9.4149   -0.5972    2.9565 C   0  0  0  0  0  0  0  0  0  0  0  0
    6.7211    2.3941    2.3147 O   0  0  0  0  0  0  0  0  0  0  0  0
    8.3316   -1.1389    3.6375 O   0  0  0  0  0  0  0  0  0  0  0  0
    7.6857   -0.8375    0.1946 O   0  0  0  0  0  0  0  0  0  0  0  0
   -0.7173    1.8112   -0.5011 O   0  0  0  0  0  0  0  0  0  0  0  0
    2.1083    0.2928   -0.1369 C   0  0  0  0  0  0  0  0  0  0  0  0
    1.5220    2.7163   -0.2557 C   0  0  0  0  0  0  0  0  0  0  0  0
    5.0586    3.3195    2.8298 P   0  0  0  0  0  0  0  0  0  0  0  0
    5.7649    2.0928    2.3840 C   0  0  0  0  0  0  0  0  0  0  0  0
    3.0784    2.6176    0.7293 C   0  0  0  0  0  0  0  0  0  0  0  0
    5.1029   -1.8463    1.6414 C   0  0  0  0  0  0  0  0  0  0  0  0
    9.1162   -2.7453    0.1800 O   0  0  0  0  0  0  0  0  0  0  0  0
  4  3  1  0
  5  2  1  0
 10  9  2  0
 12  5  1  0
 13  7  1  0
 13 11  1  0
 14  3  2  0
 14  9  1  0
 15  5  1  0
 15 11  1  0
 16 13  1  0
 17 15  1  0
 18  2  1  0
 19  6  1  0
 20  1  1  0
 20  4  1  0
 21  1  1  0
 21  6  1  0
 22  8  1  0
 23 16  1  0
 23 22  1  0
 24  1  1  0
 24  8  1  0
 24 21  1  0
 25  3  1  0
 25 10  1  0
 26  5  1  0
M  END
>  <ID>  (1) 
conformer_0

$$$$
