
     RDKit          3D

 26 27  0  0  0  0  0  0  0  0999 V2000
    9.0608   -1.9285    1.9041 C   0  0  0  0  0  0  0  0  0  0  0  0
    5.5045   -2.0019    1.9741 C   0  0  0  0  0  3  0  0  0  0  0  0
    2.9531   -0.0446    0.3138 C   0  0  0  0  0  0  0  0  0  0  0  0
    8.0651   -2.1051    1.9474 C   0  0  0  0  0  0  0  0  0  0  0  0
    1.0325    2.3808   -0.0339 C   0  0  0  0  0  0  0  0  0  0  0  0
    2.0908    2.0347   -0.6986 C   0  0  0  0  0  0  0  0  0  0  0  0
    4.9099    3.1115    3.8044 O   0  0  0  0  0  0  0  0  0  0  0  0
    6.2660    2.4537    2.0834 O   0  0  0  0  0  0  0  0  0  0  0  0
    4.7442    4.3001    1.7459 O   0  0  0  0  0  0  0  0  0  0  0  0
    8.2204   -1.6799   -0.0286 O   0  0  0  0  0  0  0  0  0  0  0  0
    8.3347    0.5379    3.0205 O   0  0  0  0  0  0  0  0  0  0  0  0
    5.1195    3.0691    2.7245 P   0  0  0  0  0  0  0  0  0  0  0  0
    6.3939   -1.9776    2.1188 N   0  0  0  0  0  0  0  0  0  0  0  0
   -0.0430    0.7745   -0.1074 O   0  0  0  0  0  0  0  0  0  0  0  0
    3.2882    2.0399    1.3580 O   0  0  0  0  0  0  0  0  0  0  0  0
    4.5155   -2.7637    2.6236 N   0  0  0  0  0  0  0  0  0  0  0  0
    9.3207   -0.4926    2.6284 C   0  0  0  0  0  0  0  0  0  0  0  0
    3.7398   -0.9291    1.1824 N   0  0  0  0  0  0  0  0  0  0  0  0
    7.0718    2.5143    4.1912 O   0  0  0  0  0  0  0  0  0  0  0  0
    4.0557   -2.1020    1.8435 C   0  0  0  0  0  0  0  0  0  0  0  0
    2.8408    1.8942    0.5678 C   0  0  0  0  0  0  0  0  0  0  0  0
   -0.0930    3.1999   -0.5467 O   0  0  0  0  0  0  0  0  0  0  0  0
    9.9393   -2.7625    0.5926 O   0  0  0  0  0  0  0  0  0  0  0  0
    8.5138   -1.6474    3.5898 O   0  0  0  0  0  0  0  0  0  0  0  0
    7.6162    2.1656    3.1388 P   0  0  0  0  0  0  0  0  0  0  0  0
    8.4267    2.6188    2.3893 O   0  0  0  0  0  0  0  0  0  0  0  0
  4  1  1  0
  6  5  1  0
 10  4  1  0
 12  7  1  0
 12  8  1  0
 12  9  1  0
 13  2  1  0
 13  4  1  0
 14  5  1  0
 16  2  1  0
 17  1  1  0
 17 11  1  0
 18  3  1  0
 20  2  1  0
 20 16  2  0
 20 18  1  0
 21  3  1  0
 21  6  1  0
 21  9  1  0
 21 15  1  0
 22  5  1  0
 23  1  1  0
 24  4  1  0
 24 17  1  0
 25  8  1  0
 25 19  1  0
 26 25  1  0
M  RAD  1   2   2
M  END
>  <ID>  (1) 
conformer_0

$$$$
