
     RDKit          3D

 30 32  0  0  0  0  0  0  0  0999 V2000
    7.9296   -1.3911    1.4716 C   0  0  0  0  0  0  0  0  0  0  0  0
    2.1667    1.6561   -1.0784 C   0  0  0  0  0  0  0  0  0  0  0  0
    2.1651    0.2331   -0.2786 C   0  0  0  0  0  0  0  0  0  0  0  0
    5.4484   -3.0270    2.6805 C   0  0  0  0  0  0  0  0  0  0  0  0
    8.0973   -2.4123    2.3517 C   0  0  0  0  0  0  0  0  0  0  0  0
    3.5998   -0.3433   -0.0137 C   0  0  0  0  0  0  0  0  0  0  0  0
    6.0143   -2.2347    2.1246 N   0  0  0  0  0  0  0  0  0  0  0  0
    4.4772    4.1961    1.6367 O   0  0  0  0  0  0  0  0  0  0  0  0
    4.7705    2.8901    3.7277 O   0  0  0  0  0  0  0  0  0  0  0  0
    8.7751    0.8068    2.8734 O   0  0  0  0  0  0  0  0  0  0  0  0
    7.7166    2.2283    3.2915 P   0  0  0  0  0  4  0  0  0  0  0  0
   10.6837   -2.2871    1.4283 O   0  0  0  0  0  0  0  0  0  0  0  0
    8.4126   -1.7933    0.0777 O   0  0  0  0  0  0  0  0  0  0  0  0
    9.5954   -1.4169    2.1328 C   0  0  0  0  0  0  0  0  0  0  0  0
   -0.0795    0.7388   -0.1565 O   0  0  0  0  0  0  0  0  0  0  0  0
    4.3724   -3.1917    2.8113 N   0  0  0  0  0  0  0  0  0  0  0  0
    6.3118    2.3971    2.0260 O   0  0  0  0  0  0  0  0  0  0  0  0
    2.9208    2.8417    0.7835 C   0  0  0  0  0  0  0  0  0  0  0  0
    7.1579    2.2938    4.2626 O   0  0  0  0  0  0  0  0  0  0  0  0
    3.3210   -2.4146    2.0591 C   0  0  0  0  0  0  0  0  0  0  0  0
   -0.0124    3.1484   -0.2227 O   0  0  0  0  0  0  0  0  0  0  0  0
    8.3523   -1.3319    3.3573 O   0  0  0  0  0  0  0  0  0  0  0  0
    5.0127    3.1534    2.5480 P   0  0  0  0  0  0  0  0  0  0  0  0
    3.5375   -0.7696    0.8952 N   0  0  0  0  0  0  0  0  0  0  0  0
    2.2590    2.9866   -0.3258 C   0  0  0  0  0  0  0  0  0  0  0  0
    2.8823   -1.7589    1.4632 N   0  0  0  0  0  0  0  0  0  0  0  0
    0.9658    1.9191   -0.0457 C   0  0  0  0  0  0  0  0  0  0  0  0
    9.7022    0.0662    2.5708 C   0  0  0  0  0  0  0  0  0  0  0  0
    4.8236   -1.6048    1.5263 C   0  0  0  0  0  0  0  0  0  0  0  0
    8.3381    2.7728    2.8381 O   0  0  0  0  0  1  0  0  0  0  0  0
  3  2  1  0
  5  1  1  0
  5  4  1  0
  6  3  1  0
  7  4  2  0
 11 10  1  0
 13  1  1  0
 14  1  1  0
 14 12  1  0
 16  4  1  0
 18  8  1  0
 19 11  1  0
 20 16  2  0
 22  5  1  0
 23  8  1  0
 23  9  1  0
 23 17  1  0
 24  6  1  0
 25  2  1  0
 25 18  1  0
 26 20  1  0
 26 24  1  0
 27  2  1  0
 27 15  1  0
 27 21  1  0
 27 25  1  0
 28 10  1  0
 28 14  1  0
 29  7  1  0
 29 20  1  0
 29 24  1  0
 30 11  1  0
M  RAD  2  11   2  30   2
M  END
>  <ID>  (1) 
conformer_0

$$$$
