
     RDKit          3D

 27 28  0  0  0  0  0  0  0  0999 V2000
    7.7320   -2.1465    2.1915 C   0  0  1  0  0  0  0  0  0  0  0  0
    1.8496    0.6331    0.2675 C   0  0  1  0  0  0  0  0  0  0  0  0
    3.6404   -1.8742    1.8094 C   0  0  0  0  0  0  0  0  0  0  0  0
    8.4408   -1.5476    1.3578 C   0  0  0  0  0  0  0  0  0  0  0  0
    2.4575    1.9146   -0.7817 C   0  0  1  0  0  0  0  0  0  0  0  0
    3.2289   -0.2084    0.1663 C   0  0  0  0  0  0  0  0  0  0  0  0
    3.3847   -1.0571    1.1586 N   0  0  0  0  0  0  0  0  0  0  0  0
    7.7730    3.0172    3.9489 O   0  0  0  0  0  0  0  0  0  0  0  0
    7.8475    2.1433    2.9471 P   0  0  0  0  0  0  0  0  0  0  0  0
    9.5194   -1.4291    2.5831 C   0  0  2  0  0  0  0  0  0  0  0  0
    4.6270    4.2049    1.9020 O   0  0  0  0  0  0  0  0  0  0  0  0
    8.2390    0.5399    2.9052 O   0  0  0  0  0  0  0  0  0  0  0  0
    8.4223   -1.8692    3.5332 O   0  0  0  0  0  0  0  0  0  0  0  0
    0.2251    3.3279   -0.3313 O   0  0  0  0  0  0  0  0  0  0  0  0
    9.3984   -2.9608    0.6137 O   0  0  0  0  0  0  0  0  0  0  0  0
    3.5165   -2.7136    2.4360 N   0  0  0  0  0  0  0  0  0  0  0  0
    5.7483   -2.0136    1.9934 N   0  0  0  0  0  0  0  0  0  0  0  0
    1.0928    2.1981    0.0823 C   0  0  0  0  0  0  0  0  0  0  0  0
    5.0682   -2.2227    2.1894 C   0  0  0  0  0  0  0  0  0  0  0  0
    5.2409    2.8423    3.8286 O   0  0  0  0  0  0  0  0  0  0  0  0
    7.9739   -1.1947   -0.0406 O   0  0  0  0  0  0  0  0  0  0  0  0
    6.2210    2.3740    2.0659 O   0  0  0  0  0  1  0  0  0  0  0  0
    8.6697    2.3562    1.8472 O   0  0  0  0  0  0  0  0  0  0  0  0
    9.7119   -0.0327    3.0472 C   0  0  0  0  0  0  0  0  0  0  0  0
   -0.1855    1.1024   -0.3497 O   0  0  0  0  0  0  0  0  0  0  0  0
    3.0206    2.7892    0.8532 C   0  0  0  0  0  0  0  0  0  0  0  0
    5.3984    3.0321    2.7440 P   0  0  0  0  0  4  0  0  0  0  0  0
  4  1  1  0
  5  2  1  0
  2  6  1  1
  7  3  1  0
  7  6  1  0
  9  8  1  0
 10  4  1  0
 12  9  1  0
  1 13  1  1
 13 10  1  0
 15  4  1  0
 16  3  2  3
 17  1  1  0
 18  2  1  0
 18  5  1  0
 18 14  1  0
 19  3  1  0
 19 17  2  3
 21  4  1  0
 23  9  1  0
 10 24  1  1
 24 12  1  0
 25 18  1  0
  5 26  1  1
 26 11  1  0
 27 11  1  0
 27 20  1  0
 27 22  1  0
M  RAD  2  22   2  27   2
M  END
>  <ID>  (1) 
conformer_0

$$$$
