
     RDKit          3D

 29 32  0  0  0  0  0  0  0  0999 V2000
    9.6887   -1.4321    1.8198 C   0  0  0  0  0  0  0  0  0  0  0  0
    2.2088    0.0892    0.1361 C   0  0  0  0  0  0  0  0  0  0  0  0
    3.2480   -0.4848    0.2872 C   0  0  0  0  0  0  0  0  0  0  0  0
    5.5218   -3.0135    2.8991 C   0  0  0  0  0  0  0  0  0  0  0  0
    8.2552   -2.2519    2.5004 C   0  0  0  0  0  0  0  0  0  0  0  0
    4.6680    4.3156    1.7354 O   0  0  0  0  0  0  0  0  0  0  0  0
   -0.1932    0.9080   -0.0625 O   0  0  0  0  0  0  0  0  0  0  0  0
    5.1149   -1.8388    2.0176 C   0  0  0  0  0  0  0  0  0  0  0  0
    2.5755    1.8831   -0.8837 C   0  0  0  0  0  0  0  0  0  0  0  0
    5.3728    3.1537    2.6894 P   0  0  0  0  0  0  0  0  0  0  0  0
    8.6233    0.3762    2.9501 O   0  0  0  0  0  0  0  0  0  0  0  0
    6.3211   -2.2122    2.3172 N   0  0  0  0  0  0  0  0  0  0  0  0
    2.9225    2.5876    0.6418 C   0  0  0  0  0  0  0  0  0  0  0  0
   10.7853   -2.2712    1.3381 O   0  0  0  0  0  0  0  0  0  0  0  0
    5.0961    3.0127    3.8333 O   0  0  0  0  0  0  0  0  0  0  0  0
    8.2280   -1.0226   -0.1066 O   0  0  0  0  0  0  0  0  0  0  0  0
    7.6581    3.2442    3.8010 O   0  0  0  0  0  0  0  0  0  0  0  0
    0.4740    3.3129   -0.0987 O   0  0  0  0  0  0  0  0  0  0  0  0
    6.6123    2.4991    2.0698 O   0  0  0  0  0  0  0  0  0  0  0  0
    3.7574   -1.5512    1.2854 N   0  0  0  0  0  0  0  0  0  0  0  0
    3.1870    2.1197    1.2967 O   0  0  0  0  0  0  0  0  0  0  0  0
    9.0819   -0.5295    3.0533 C   0  0  0  0  0  0  0  0  0  0  0  0
    4.3765   -2.9589    3.0298 N   0  0  0  0  0  0  0  0  0  0  0  0
    1.3827    2.0421    0.3003 C   0  0  0  0  0  0  0  0  0  0  0  0
    4.8836   -0.1563   -0.0338 O   0  0  0  0  0  0  0  0  0  0  0  0
    8.1343    2.3015    2.7280 P   0  0  0  0  0  0  0  0  0  0  0  0
    9.0252    2.2779    2.1071 O   0  0  0  0  0  0  0  0  0  0  0  0
    8.1754   -1.4650    1.0866 C   0  0  0  0  0  0  0  0  0  0  0  0
    3.3846   -2.3522    1.9160 C   0  0  0  0  0  0  0  0  0  0  0  0
  3  2  1  0
  5  1  1  0
  8  4  2  0
  9  2  1  0
 10  6  1  0
 12  4  1  0
 12  5  1  0
 12  8  1  0
 13  9  1  0
 14  1  1  0
 15 10  1  0
 19 10  1  0
 20  3  1  0
 20  8  1  0
 21 13  1  0
 22  1  1  0
 22 11  1  0
 23  4  1  0
 24  7  1  0
 24  9  1  0
 24 13  1  0
 24 18  1  0
 25  3  1  0
 26 17  1  0
 26 19  1  0
 27 22  1  0
 27 26  1  0
 28  1  1  0
 28  5  1  0
 28 16  1  0
 29 20  1  0
 29 23  2  0
M  END
>  <ID>  (1) 
conformer_0

$$$$
