
     RDKit          3D

 23 23  0  0  0  0  0  0  0  0999 V2000
    9.0157   -1.6540    1.2742 C   0  0  0  0  0  0  0  0  0  0  0  0
    5.3895   -2.1495    2.2124 C   0  0  0  0  0  0  0  0  0  0  0  0
    2.7086   -0.1012    0.3803 C   0  0  0  0  0  0  0  0  0  0  0  0
    2.2778    1.7937   -0.6335 C   0  0  0  0  0  0  0  0  0  0  0  0
    8.3562   -1.8973    2.0808 C   0  0  0  0  0  0  0  0  0  0  0  0
    0.8861    1.9372   -0.0508 C   0  0  0  0  0  0  0  0  0  0  0  0
    3.2951    1.8000    0.7412 C   0  0  0  0  0  0  0  0  0  0  0  0
    4.9336    3.0868    3.9600 O   0  0  0  0  0  0  0  0  0  0  0  0
   -0.0875    2.9626   -0.6991 O   0  0  0  0  0  0  0  0  0  0  0  0
    5.5095    3.4239    2.0414 O   0  0  0  0  0  0  0  0  0  0  0  0
    9.4018   -0.8207    3.1333 C   0  0  0  0  0  0  0  0  0  0  0  0
    6.3129    2.5332    3.0533 P   0  0  0  0  0  4  0  0  0  0  0  0
    3.7388   -1.0511    1.2540 N   0  0  0  0  0  0  0  0  0  0  0  0
   10.0821   -3.0343    0.8836 O   0  0  0  0  0  0  0  0  0  0  0  0
    7.6148    2.1315    2.3286 O   0  0  0  0  0  1  0  0  0  0  0  0
    3.8797   -2.0605    1.8501 C   0  0  0  0  0  3  0  0  0  0  0  0
   10.9988   -1.4879    3.2806 O   0  0  0  0  0  0  0  0  0  0  0  0
    6.3131   -1.9496    2.1240 N   0  0  0  0  0  0  0  0  0  0  0  0
    7.1560    2.6439    4.2739 O   0  0  0  0  0  0  0  0  0  0  0  0
    4.4387   -2.9426    2.6486 N   0  0  0  0  0  0  0  0  0  0  0  0
    3.7860    1.9052    1.5860 O   0  0  0  0  0  0  0  0  0  0  0  0
    8.2543    0.0344    3.2288 O   0  0  0  0  0  0  0  0  0  0  0  0
    8.4321   -1.7617   -0.3890 O   0  0  0  0  0  0  0  0  0  0  0  0
  5  1  1  0
  6  4  1  0
  7  3  1  0
  7  4  1  0
  9  6  1  0
 11  5  1  0
 12  8  1  0
 12 10  1  0
 13  3  1  0
 14  1  1  0
 15 12  1  0
 16  2  1  0
 16 13  1  0
 17 11  1  0
 18  2  1  0
 18  5  1  0
 19 12  1  0
 20  2  2  0
 20 16  1  0
 21  7  1  0
 21 10  1  0
 22 11  2  0
 23  1  1  0
M  RAD  3  12   2  15   2  16   2
M  END
>  <ID>  (1) 
conformer_0

$$$$
