
     RDKit          3D

 31 34  0  0  0  0  0  0  0  0999 V2000
    7.5420   -1.1540    1.8566 C   0  0  0  0  0  0  0  0  0  0  0  0
    3.5179   -2.3754    1.9249 C   0  0  0  0  0  0  0  0  0  0  0  0
    2.4491    2.8709   -0.4423 C   0  0  0  0  0  0  0  0  0  0  0  0
    1.2076    2.5082    0.2757 C   0  0  0  0  0  0  0  0  0  0  0  0
    9.6872   -1.8694    1.8979 C   0  0  0  0  0  0  0  0  0  0  0  0
    3.6536   -0.5064   -0.1880 C   0  0  0  0  0  0  0  0  0  0  0  0
    6.0073   -2.0743    2.1358 N   0  0  0  0  0  0  0  0  0  0  0  0
    0.1584    3.6368   -0.0413 O   0  0  0  0  0  0  0  0  0  0  0  0
    4.8964    4.5271    1.6006 O   0  0  0  0  0  0  0  0  0  0  0  0
    3.6719   -1.1405    0.8777 N   0  0  0  0  0  0  0  0  0  0  0  0
    7.8086    2.2638    3.0615 P   0  0  0  0  0  0  0  0  0  0  0  0
    6.4482    2.4913    2.1020 O   0  0  0  0  0  0  0  0  0  0  0  0
    4.8895    3.3067    3.7858 O   0  0  0  0  0  0  0  0  0  0  0  0
    8.2995    0.5053    3.1795 O   0  0  0  0  0  0  0  0  0  0  0  0
    5.4539   -2.8843    2.7951 C   0  0  0  0  0  0  0  0  0  0  0  0
    7.3546    2.8045    4.1266 O   0  0  0  0  0  0  0  0  0  0  0  0
    8.1879   -1.8593    3.5596 O   0  0  0  0  0  0  0  0  0  0  0  0
    4.0809   -2.9248    2.7150 N   0  0  0  0  0  0  0  0  0  0  0  0
    9.7060   -0.0550    2.9141 C   0  0  0  0  0  0  0  0  0  0  0  0
    0.0042    1.1323   -0.1514 O   0  0  0  0  0  0  0  0  0  0  0  0
   10.9018   -2.3745    1.7207 O   0  0  0  0  0  0  0  0  0  0  0  0
    3.0102    2.9670    0.8114 C   0  0  0  0  0  0  0  0  0  0  0  0
    5.1765    3.1498    2.5840 P   0  0  0  0  0  0  0  0  0  0  0  0
    8.9524   -2.7494    0.6061 O   0  0  0  0  0  0  0  0  0  0  0  0
    8.6569    2.4585    2.3395 O   0  0  0  0  0  0  0  0  0  0  0  0
    5.0559   -1.5663    1.4837 C   0  0  0  0  0  0  0  0  0  0  0  0
    2.3264    1.3055   -0.8928 C   0  0  0  0  0  0  0  0  0  0  0  0
    3.7231    2.7774    1.4616 O   0  0  0  0  0  0  0  0  0  0  0  0
    2.2249    0.2908    0.0678 C   0  0  0  0  0  0  0  0  0  0  0  0
    9.3010   -1.4025    3.2989 C   0  0  0  0  0  0  0  0  0  0  0  0
    8.0168   -2.6264    2.1402 C   0  0  0  0  0  0  0  0  0  0  0  0
  4  3  1  0
  7  1  1  0
  8  4  1  0
 10  2  1  0
 10  6  1  0
 12 11  1  0
 15  7  1  0
 16 11  1  0
 18  2  1  0
 18 15  2  0
 19 14  1  0
 20  4  1  0
 21  5  1  0
 22  3  1  0
 22  4  1  0
 23  9  1  0
 23 12  1  0
 23 13  1  0
 24  5  1  0
 25 11  1  0
 25 19  1  0
 26  2  2  0
 26  7  1  0
 26 10  1  0
 27  3  1  0
 28 22  2  0
 29  6  1  0
 29 27  1  0
 30  5  1  0
 30 17  1  0
 30 19  1  0
 31  1  1  0
 31  5  1  0
 31 17  1  0
M  END
>  <ID>  (1) 
conformer_0

$$$$
