
     RDKit          3D

 28 30  0  0  0  0  0  0  0  0999 V2000
    8.4351   -2.2079    2.2182 C   0  0  0  0  0  0  0  0  0  0  0  0
    5.1451   -2.9155    2.5639 C   0  0  0  0  0  0  0  0  0  0  0  0
    2.4590    2.6656   -0.3325 C   0  0  0  0  0  0  0  0  0  0  0  0
    3.6582   -0.0576    0.0255 C   0  0  0  0  0  0  0  0  0  0  0  0
    9.6019   -1.5192    1.9017 C   0  0  0  0  0  0  0  0  0  0  0  0
    0.5907    1.8949   -0.1625 C   0  0  0  0  0  0  0  0  0  0  0  0
    3.3516   -1.1391    0.8878 N   0  0  0  0  0  0  0  0  0  0  0  0
    7.5812    2.2807    3.0079 P   0  0  0  0  0  4  0  0  0  0  0  0
    9.5557   -0.1218    3.0034 C   0  0  0  0  0  0  0  0  0  0  0  0
    8.6144    2.1563    2.3849 O   0  0  0  0  0  1  0  0  0  0  0  0
    3.0343   -2.3454    1.7419 C   0  0  0  0  0  0  0  0  0  0  0  0
    4.1654   -3.1958    2.5705 N   0  0  0  0  0  0  0  0  0  0  0  0
    7.2806    2.6353    4.1022 O   0  0  0  0  0  0  0  0  0  0  0  0
   -0.2350    0.7960   -0.1131 O   0  0  0  0  0  0  0  0  0  0  0  0
    5.7603   -1.9527    1.8961 N   0  0  0  0  0  0  0  0  0  0  0  0
    6.4121    2.0826    2.1495 O   0  0  0  0  0  0  0  0  0  0  0  0
    8.5939   -0.4418    3.2065 O   0  0  0  0  0  0  0  0  0  0  0  0
    8.9698   -2.4958    0.0802 O   0  0  0  0  0  0  0  0  0  0  0  0
    4.8030    3.0615    3.8209 O   0  0  0  0  0  0  0  0  0  0  0  0
    0.0990    3.3436   -0.0883 O   0  0  0  0  0  0  0  0  0  0  0  0
    1.9785   -0.2222    0.0652 C   0  0  0  0  0  0  0  0  0  0  0  0
   10.8424   -2.4192    1.3552 O   0  0  0  0  0  0  0  0  0  0  0  0
    5.1316    3.8347    1.8422 O   0  0  0  0  0  1  0  0  0  0  0  0
    7.5659   -1.4388    1.3383 C   0  0  0  0  0  0  0  0  0  0  0  0
    4.7151   -1.6345    1.4510 C   0  0  0  0  0  0  0  0  0  0  0  0
    2.4901    1.2991   -0.7759 C   0  0  0  0  0  0  0  0  0  0  0  0
    5.2371    3.1514    2.8251 P   0  0  0  0  0  4  0  0  0  0  0  0
    2.3756    2.5280    0.4071 C   0  0  0  0  0  0  0  0  0  0  0  0
  5  1  1  0
  7  4  1  0
  9  5  1  0
 10  8  1  0
 11  7  1  0
 12  2  2  0
 12 11  1  0
 13  8  1  0
 14  6  1  0
 15  2  1  0
 16  8  1  0
 17  9  1  0
 20  6  1  0
 21  4  1  0
 22  5  1  0
 24  1  1  0
 24 15  1  0
 24 18  1  0
 25  7  1  0
 25 11  2  0
 25 15  1  0
 26  3  1  0
 26  4  1  0
 26 21  1  0
 27 16  1  0
 27 19  1  0
 27 23  1  0
 28  3  1  0
 28  6  1  0
 28 27  1  0
M  RAD  4   8   2  10   2  23   2  27   2
M  END
>  <ID>  (1) 
conformer_0

$$$$
