
     RDKit          3D

 31 33  0  0  0  0  0  0  0  0999 V2000
    7.9823   -2.4706    2.6145 C   0  0  0  0  0  0  0  0  0  0  0  0
    2.1241    0.0194    0.1691 C   0  0  0  0  0  0  0  0  0  0  0  0
    3.6116   -2.1812    1.8099 C   0  0  0  0  0  0  0  0  0  0  0  0
    3.3715   -0.4513    0.1524 C   0  0  0  0  0  0  0  0  0  0  0  0
    8.1725   -1.5227    1.2105 C   0  0  0  0  0  0  0  0  0  0  0  0
    2.2648    3.1052    0.0944 C   0  0  0  0  0  0  0  0  0  0  0  0
    4.6301    4.6437    1.8987 O   0  0  0  0  0  0  0  0  0  0  0  0
    6.1887   -2.3542    2.1661 N   0  0  0  0  0  0  0  0  0  0  0  0
    4.6844    3.4800    3.8852 O   0  0  0  0  0  0  0  0  0  0  0  0
    7.1774    3.1537    3.9861 O   0  0  0  0  0  0  0  0  0  0  0  0
    9.4614    0.0445    2.7169 C   0  0  0  0  0  0  0  0  0  0  0  0
    4.7884    3.3365    2.6746 P   0  0  0  0  0  0  0  0  0  0  0  0
   -0.3264    0.9723   -0.2535 O   0  0  0  0  0  0  0  0  0  0  0  0
    9.2368   -2.6586    0.2732 O   0  0  0  0  0  0  0  0  0  0  0  0
    6.2760    2.3200    2.1936 O   0  0  0  0  0  1  0  0  0  0  0  0
    4.1638   -3.1074    2.5376 N   0  0  0  0  0  0  0  0  0  0  0  0
    7.7510   -1.0758   -0.1383 O   0  0  0  0  0  0  0  0  0  0  0  0
    3.9417   -1.4177    1.1838 N   0  0  0  0  0  0  0  0  0  0  0  0
    5.4185   -3.1947    2.7305 C   0  0  0  0  0  0  0  0  0  0  0  0
    0.0123    3.3306    0.0572 O   0  0  0  0  0  0  0  0  0  0  0  0
    8.4512    1.8459    2.2703 O   0  0  0  0  0  0  0  0  0  0  0  0
    0.8568    1.6159    0.1367 C   0  0  0  0  0  0  0  0  0  0  0  0
    8.5592   -0.8672    3.3509 O   0  0  0  0  0  0  0  0  0  0  0  0
    1.3597   -1.1928    0.6482 O   0  0  0  0  0  0  0  0  0  0  0  0
    7.3982    2.3172    2.9271 P   0  0  0  0  0  4  0  0  0  0  0  0
    2.4707    2.3960    0.7478 C   0  0  0  0  0  0  0  0  0  0  0  0
    9.3826   -1.6870    2.4337 C   0  0  0  0  0  0  0  0  0  0  0  0
    3.6421    2.3919    1.5846 O   0  0  0  0  0  0  0  0  0  0  0  0
    5.2940   -1.6856    1.4316 C   0  0  0  0  0  0  0  0  0  0  0  0
   10.7568   -2.2653    1.6225 O   0  0  0  0  0  0  0  0  0  0  0  0
    2.2893    1.5902   -0.7879 C   0  0  0  0  0  0  0  0  0  0  0  0
  4  2  1  0
  5  1  1  0
  8  1  1  0
 12  7  1  0
 12  9  1  0
 14  5  1  0
 16  3  1  0
 17  5  1  0
 18  3  1  0
 18  4  1  0
 19  8  1  0
 19 16  2  0
 21 11  1  0
 22 13  1  0
 22 20  1  0
 23 11  1  0
 24  2  1  0
 25 10  1  0
 25 15  1  0
 25 21  1  0
 26  6  1  0
 26 22  1  0
 27  1  1  0
 27  5  1  0
 27 23  1  0
 28 12  1  0
 28 26  1  0
 29  8  1  0
 29 18  1  0
 30 27  1  0
 31  2  1  0
 31 22  1  0
 31 26  1  0
M  RAD  2  15   2  25   2
M  END
>  <ID>  (1) 
conformer_0

$$$$
