
     RDKit          3D

 31 34  0  0  0  0  0  0  0  0999 V2000
    8.2140   -2.5992    2.4806 C   0  0  0  0  0  0  0  0  0  0  0  0
    2.6284   -0.3096    0.1368 C   0  0  0  0  0  0  0  0  0  0  0  0
    3.6774   -2.2870    1.8751 C   0  0  0  0  0  0  0  0  0  0  0  0
    4.0599   -0.3787    0.1372 C   0  0  0  0  0  0  0  0  0  0  0  0
    9.6253   -1.4001    1.9356 C   0  0  0  0  0  0  0  0  0  0  0  0
    9.5827   -0.3325    2.8934 C   0  0  0  0  0  0  0  0  0  0  0  0
    8.0467    2.4019    3.2260 P   0  0  0  0  0  0  0  0  0  0  0  0
    0.5314    3.4309   -0.0466 O   0  0  0  0  0  0  0  0  0  0  0  0
    3.2026    2.5287    0.7596 C   0  0  0  0  0  0  0  0  0  0  0  0
    4.7297    3.5716    3.7823 O   0  0  0  0  0  0  0  0  0  0  0  0
    8.5849    0.5957    3.1787 O   0  0  0  0  0  0  0  0  0  0  0  0
    2.3185    1.8932   -0.7355 C   0  0  0  0  0  0  0  0  0  0  0  0
    6.3260   -2.4573    2.2790 N   0  0  0  0  0  0  0  0  0  0  0  0
    6.4885    2.5252    2.3493 O   0  0  0  0  0  1  0  0  0  0  0  0
    8.5080   -1.8596    3.6323 O   0  0  0  0  0  0  0  0  0  0  0  0
    8.6985    3.1112    3.9780 O   0  0  0  0  0  0  0  0  0  0  0  0
   -0.5497    1.0307   -0.2050 O   0  0  0  0  0  0  0  0  0  0  0  0
    8.6037   -2.1110   -0.0143 O   0  0  0  0  0  0  0  0  0  0  0  0
    5.5844   -3.2800    2.8983 C   0  0  0  0  0  0  0  0  0  0  0  0
   10.8250   -2.0118    1.1146 O   0  0  0  0  0  0  0  0  0  0  0  0
    3.7120   -1.1123    0.9595 N   0  0  0  0  0  0  0  0  0  0  0  0
    4.3390   -3.2073    2.8124 N   0  0  0  0  0  0  0  0  0  0  0  0
    4.9582    4.1596    1.7685 O   0  0  0  0  0  0  0  0  0  0  0  0
    5.4217    3.2393    2.8520 P   0  0  0  0  0  4  0  0  0  0  0  0
    3.0881    1.5600    1.2900 O   0  0  0  0  0  0  0  0  0  0  0  0
    8.7425    2.3720    1.9909 O   0  0  0  0  0  0  0  0  0  0  0  0
    1.1291    1.0096   -0.1819 C   0  0  0  0  0  0  0  0  0  0  0  0
    5.3803   -1.9805    1.8033 C   0  0  0  0  0  0  0  0  0  0  0  0
    8.0949   -1.6466    1.3756 C   0  0  0  0  0  0  0  0  0  0  0  0
    6.5549    2.6625    4.4542 O   0  0  0  0  0  0  0  0  0  0  0  0
    1.3263    2.3378    0.2613 C   0  0  0  0  0  0  0  0  0  0  0  0
  4  2  1  0
  5  1  1  0
  6  5  1  0
 11  6  1  0
 12  9  1  0
 13  1  1  0
 15  1  1  0
 16  7  1  0
 19 13  1  0
 20  5  1  0
 21  3  1  0
 21  4  1  0
 22  3  2  0
 22 19  1  0
 23  9  1  0
 24 10  1  0
 24 14  1  0
 24 23  1  0
 25  9  1  0
 26  6  1  0
 26  7  1  0
 27  2  1  0
 27 12  1  0
 27 17  1  0
 28  3  1  0
 28 13  1  0
 29  1  1  0
 29  5  1  0
 29 18  1  0
 30  7  1  0
 31  8  1  0
 31  9  1  0
 31 12  1  0
 31 27  1  0
M  RAD  2  14   2  24   2
M  END
>  <ID>  (1) 
conformer_0

$$$$
