
     RDKit          3D

 28 31  0  0  0  0  0  0  0  0999 V2000
    7.9696   -2.1710    1.9337 C   0  0  0  0  0  0  0  0  0  0  0  0
    2.1176    0.2506    0.1880 C   0  0  0  0  0  0  0  0  0  0  0  0
    3.5369   -2.3366    1.9308 C   0  0  0  0  0  0  0  0  0  0  0  0
    2.0375    3.0562    0.0491 C   0  0  0  0  0  0  0  0  0  0  0  0
    8.7962   -1.6540    2.0686 C   0  0  0  0  0  0  0  0  0  0  0  0
    0.7675    1.9648   -0.0279 C   0  0  0  0  0  0  0  0  0  0  0  0
    6.0831   -2.4786    2.2205 N   0  0  0  0  0  0  0  0  0  0  0  0
    4.6339    3.3249    3.8495 O   0  0  0  0  0  0  0  0  0  0  0  0
    2.9978    2.5651    0.8062 C   0  0  0  0  0  0  0  0  0  0  0  0
    6.1426    2.4371    2.1009 O   0  0  0  0  0  0  0  0  0  0  0  0
    5.2685    3.1634    2.8418 P   0  0  0  0  0  0  0  0  0  0  0  0
    4.7565    4.2564    1.7810 O   0  0  0  0  0  0  0  0  0  0  0  0
    9.2104    0.6073    3.3505 O   0  0  0  0  0  0  0  0  0  0  0  0
   10.1388   -2.9904    1.3626 O   0  0  0  0  0  0  0  0  0  0  0  0
    5.4174   -3.1395    2.8223 C   0  0  0  0  0  0  0  0  0  0  0  0
    3.7218   -1.1696    1.1020 N   0  0  0  0  0  0  0  0  0  0  0  0
    9.5837   -0.6503    3.0917 C   0  0  0  0  0  0  0  0  0  0  0  0
   -0.1842    0.6698   -0.1966 O   0  0  0  0  0  0  0  0  0  0  0  0
    0.2363    3.7127   -0.2209 O   0  0  0  0  0  0  0  0  0  0  0  0
    4.2220   -3.1218    2.7068 N   0  0  0  0  0  0  0  0  0  0  0  0
    8.2276   -1.9779    3.6379 O   0  0  0  0  0  0  0  0  0  0  0  0
    3.4914   -0.2686    0.0815 C   0  0  0  0  0  0  0  0  0  0  0  0
    7.8560    2.1312    2.8653 P   0  0  0  0  0  0  0  0  0  0  0  0
    6.7318    2.7396    4.0866 O   0  0  0  0  0  0  0  0  0  0  0  0
    8.5475   -2.2053    0.0930 O   0  0  0  0  0  0  0  0  0  0  0  0
    2.5838    1.6481   -0.4915 C   0  0  0  0  0  0  0  0  0  0  0  0
    8.1745    2.2718    2.5280 O   0  0  0  0  0  0  0  0  0  0  0  0
    5.0925   -1.7996    1.6357 C   0  0  0  0  0  0  0  0  0  0  0  0
  5  1  1  0
  6  4  1  0
  7  1  1  0
  9  4  1  0
 11  8  1  0
 11 10  1  0
 12  9  1  0
 12 11  1  0
 14  5  1  0
 15  7  1  0
 16  3  1  0
 17  5  1  0
 17 13  1  0
 18  6  1  0
 19  6  1  0
 20  3  1  0
 20 15  2  0
 21  5  1  0
 22  2  1  0
 22 16  1  0
 23 10  1  0
 24 23  1  0
 25  1  1  0
 26  2  1  0
 26  4  1  0
 26  6  1  0
 26  9  1  0
 27 23  1  0
 28  3  2  0
 28  7  1  0
 28 16  1  0
M  END
>  <ID>  (1) 
conformer_0

$$$$
