
     RDKit          3D

 33 36  0  0  0  0  0  0  0  0999 V2000
   -1.7333   19.4693   23.3830 C   0  0  0  0  0  0  0  0  0  0  0  0
   -9.4695   14.6642   25.8914 O   0  0  0  0  0  0  0  0  0  0  0  0
   -4.0392   21.4205   22.8638 C   0  0  0  0  0  0  0  0  0  0  0  0
   -2.1544   18.1363   23.6437 C   0  0  0  0  0  0  0  0  0  0  0  0
   -9.7867   16.1495   27.4867 O   0  0  0  0  0  0  0  0  0  0  0  0
   -4.3268   21.6436   21.4311 C   0  0  0  0  0  0  0  0  0  0  0  0
   -9.4812   16.0191   26.1073 C   0  0  0  0  0  0  0  0  0  0  0  0
   -8.2450   17.7508   24.7014 C   0  0  0  0  0  0  0  0  0  0  0  0
   -2.9601   22.1143   20.9773 C   0  0  0  0  0  0  0  0  0  0  0  0
   -5.6143   17.4124   25.6532 C   0  0  0  0  0  0  0  0  0  0  0  0
   -5.4965   23.6748   22.1248 C   0  0  0  0  0  0  0  0  0  0  0  0
   -5.4140   21.0854   20.8163 C   0  0  0  0  0  0  0  0  0  0  0  0
   -7.4149   18.3039   22.5022 C   0  0  0  0  0  0  0  0  0  0  0  0
   -6.7212   21.2115   22.8219 C   0  0  0  0  0  0  0  0  0  0  0  0
   -4.6264   18.8876   23.9402 C   0  0  0  0  0  0  0  0  0  0  0  0
   -6.2540   20.3110   21.8003 C   0  0  0  0  0  0  0  0  0  0  0  0
   -3.0191   23.6598   21.2562 C   0  0  0  0  0  0  0  0  0  0  0  0
   -5.4478   22.5650   21.2442 C   0  0  0  0  0  0  0  0  0  0  0  0
   -2.4619   21.9420   19.6057 C   0  0  0  0  0  0  0  0  0  0  0  0
   -7.2142   18.5993   23.9700 C   0  0  0  0  0  0  0  0  0  0  0  0
   -5.7558   20.6711   19.6288 O   0  0  0  0  0  0  0  0  0  0  0  0
   -2.6606   21.7357   23.2062 O   0  0  0  0  0  0  0  0  0  0  0  0
   -6.5994   18.9328   21.4759 C   0  0  0  0  0  0  0  0  0  0  0  0
   -3.3500   21.1821   18.6510 C   0  0  0  0  0  0  0  0  0  0  0  0
   -6.5069   22.5873   22.2579 C   0  0  0  0  0  0  0  0  0  0  0  0
   -1.8859   21.4290   21.8867 C   0  0  0  0  0  0  0  0  0  0  0  0
   -9.2560   17.0565   23.8424 C   0  0  0  0  0  0  0  0  0  0  0  0
   -8.2698   17.0738   26.0177 C   0  0  0  0  0  0  0  0  0  0  0  0
  -10.3021   16.4688   24.8025 C   0  0  0  0  0  0  0  0  0  0  0  0
   -5.8980   18.7531   24.8356 C   0  0  0  0  0  0  0  0  0  0  0  0
   -3.5340   17.8323   24.1043 C   0  0  0  0  0  0  0  0  0  0  0  0
   -1.9316   19.9579   21.9801 O   0  0  0  0  0  0  0  0  0  0  0  0
   -6.3562   19.7959   26.0064 C   0  0  0  0  0  0  0  0  0  0  0  0
  1  4  1  0
  1 32  1  0
  2  7  1  0
  3  6  1  0
  3 22  1  0
  4 31  1  0
  5  7  1  0
  6  9  1  0
  6 12  1  0
  6 18  1  0
  7 28  1  0
  7 29  1  0
  8 20  1  0
  8 27  1  0
  8 28  1  0
  9 17  1  0
  9 19  1  0
  9 26  1  0
 10 30  1  0
 11 18  1  0
 12 16  1  0
 12 21  1  0
 13 20  1  0
 13 23  1  0
 14 16  1  0
 14 25  1  0
 15 30  1  0
 15 31  1  0
 16 23  1  0
 18 25  1  0
 19 24  1  0
 20 30  1  0
 22 26  1  0
 26 32  1  0
 27 29  1  0
 30 33  1  0
M  END
>  <ID>  (1) 
conformer_0

$$$$
