
     RDKit          3D

 28 32  0  0  0  0  0  0  0  0999 V2000
   -4.7551   19.1204   24.8620 C   0  0  0  0  0  0  0  0  0  0  0  0
   -4.8997   20.8088   22.6283 C   0  0  0  0  0  0  0  0  0  0  0  0
   -3.6402   21.7462   20.7314 C   0  0  0  0  0  0  0  0  0  0  0  0
   -2.7478   20.5275   20.4339 C   0  0  0  0  0  0  0  0  0  0  0  0
   -9.2566   16.5038   22.5306 C   0  0  0  0  0  0  0  0  0  0  0  0
   -2.4782   18.9940   23.8591 C   0  0  0  0  0  0  0  0  0  0  0  0
   -5.3286   16.4327   25.1620 C   0  0  0  0  0  0  0  0  0  0  0  0
  -10.3020   16.6565   24.9827 C   0  0  0  0  0  0  0  0  0  0  0  0
   -5.8974   18.8807   25.7175 C   0  0  0  0  0  0  0  0  0  0  0  0
   -7.9592   17.3742   24.5837 C   0  0  0  0  0  0  0  0  0  0  0  0
   -3.1219   22.3547   22.0159 O   0  0  0  0  0  0  0  0  0  0  0  0
   -2.5298   20.2078   22.9941 C   0  0  0  0  0  0  0  0  0  0  0  0
   -4.1464   16.8045   24.1404 C   0  0  0  0  0  0  0  0  0  0  0  0
   -8.3675   17.6278   25.9688 O   0  0  0  0  0  0  0  0  0  0  0  0
   -5.0449   21.1385   21.1643 C   0  0  0  0  0  0  0  0  0  0  0  0
   -9.7468   17.1726   26.3129 C   0  0  0  0  0  0  0  0  0  0  0  0
   -1.9223   20.1133   21.6184 C   0  0  0  0  0  0  0  0  0  0  0  0
   -5.0706   19.4834   23.3521 C   0  0  0  0  0  0  0  0  0  0  0  0
   -9.2567   16.9195   23.9339 C   0  0  0  0  0  0  0  0  0  0  0  0
   -6.7116   16.5597   24.4223 C   0  0  0  0  0  0  0  0  0  0  0  0
   -9.8408   16.0995   27.3753 C   0  0  0  0  0  0  0  0  0  0  0  0
   -6.7276   15.3485   23.5235 C   0  0  0  0  0  0  0  0  0  0  0  0
   -8.5324   15.3270   27.3951 C   0  0  0  0  0  0  0  0  0  0  0  0
   -3.5392   18.1741   24.6477 C   0  0  0  0  0  0  0  0  0  0  0  0
   -3.4801   21.3765   23.0465 C   0  0  0  0  0  0  0  0  0  0  0  0
   -5.9471   18.8441   24.2825 C   0  0  0  0  0  0  0  0  0  0  0  0
   -6.9104   17.8373   23.7232 C   0  0  0  0  0  0  0  0  0  0  0  0
   -3.9062   22.7799   19.8197 F   0  0  0  0  0  0  0  0  0  0  0  0
  1 24  1  0
  1 26  1  0
  2 15  1  0
  2 18  1  0
  2 25  1  0
  3  4  1  0
  3 11  1  0
  3 15  1  0
  3 28  1  0
  4 17  1  0
  5 19  1  0
  6 12  1  0
  6 24  1  0
  7 13  1  0
  7 20  1  0
  8 16  1  0
  8 19  1  0
  9 26  1  0
 10 14  1  0
 10 19  1  0
 10 27  1  0
 11 25  1  0
 12 17  1  0
 12 25  1  0
 13 24  1  0
 14 16  1  0
 16 21  1  0
 18 26  1  0
 20 22  1  0
 20 27  1  0
 21 23  1  0
 26 27  1  0
M  END
>  <ID>  (1) 
conformer_0

$$$$
