
     RDKit          3D

 30 34  0  0  0  0  0  0  0  0999 V2000
   -2.7335   19.4767   23.0329 C   0  0  0  0  0  0  0  0  0  0  0  0
   -5.1403   15.8276   25.0113 C   0  0  0  0  0  0  0  0  0  0  0  0
   -6.9504   20.5104   23.0203 N   0  0  0  0  0  0  0  0  0  0  0  0
   -1.9041   21.1833   21.5417 C   0  0  0  0  0  0  0  0  0  0  0  0
   -1.6637   22.0433   22.6641 C   0  0  0  0  0  0  0  0  0  0  0  0
   -2.9990   21.6462   20.7202 C   0  0  0  0  0  0  0  0  0  0  0  0
   -4.8991   22.5503   20.3251 N   0  0  0  0  0  0  0  0  0  0  0  0
   -4.1116   20.0070   22.9640 C   0  0  0  0  0  0  0  0  0  0  0  0
   -6.4185   15.8644   25.5578 O   0  0  0  0  0  0  0  0  0  0  0  0
   -4.9481   18.2737   24.8203 C   0  0  0  0  0  0  0  0  0  0  0  0
   -2.2532   18.6012   23.8426 O   0  0  0  0  0  0  0  0  0  0  0  0
   -8.3570   15.6076   27.4247 C   0  0  0  0  0  0  0  0  0  0  0  0
   -9.4934   15.8489   28.3130 O   0  0  0  0  0  0  0  0  0  0  0  0
   -1.8596   19.7755   21.8664 C   0  0  0  0  0  0  0  0  0  0  0  0
   -4.9556   19.3754   23.8901 C   0  0  0  0  0  0  0  0  0  0  0  0
   -8.7620   16.0151   26.0226 C   0  0  0  0  0  0  0  0  0  0  0  0
   -6.9122   19.4954   25.1901 C   0  0  0  0  0  0  0  0  0  0  0  0
   -4.2948   21.7384   21.0933 C   0  0  0  0  0  0  0  0  0  0  0  0
   -4.2352   16.9865   24.8470 C   0  0  0  0  0  0  0  0  0  0  0  0
   -3.9846   22.8287   19.3279 O   0  0  0  0  0  0  0  0  0  0  0  0
   -7.7405   16.0844   25.0883 C   0  0  0  0  0  0  0  0  0  0  0  0
   -4.8088   20.9259   22.1398 N   0  0  0  0  0  0  0  0  0  0  0  0
   -6.0367   18.4147   25.6776 C   0  0  0  0  0  0  0  0  0  0  0  0
   -6.2645   19.9169   23.9281 C   0  0  0  0  0  0  0  0  0  0  0  0
   -6.2082   20.9913   22.2298 C   0  0  0  0  0  0  0  0  0  0  0  0
   -8.0345   16.3088   23.7288 C   0  0  0  0  0  0  0  0  0  0  0  0
  -10.3752   16.5430   24.3050 C   0  0  0  0  0  0  0  0  0  0  0  0
   -2.8404   22.1909   19.5754 N   0  0  0  0  0  0  0  0  0  0  0  0
  -10.0728   16.2860   25.6432 C   0  0  0  0  0  0  0  0  0  0  0  0
   -9.3491   16.5301   23.3624 C   0  0  0  0  0  0  0  0  0  0  0  0
  1  8  2  0
  1 11  1  0
  1 14  1  0
  2  9  1  0
  2 19  1  0
  3 24  1  0
  3 25  1  0
  4  5  1  0
  4  6  1  0
  4 14  1  0
  6 18  1  0
  6 28  1  0
  7 18  2  0
  7 20  1  0
  8 15  1  0
  8 22  1  0
  9 21  1  0
 10 15  1  0
 10 19  1  0
 10 23  1  0
 12 13  1  0
 12 16  1  0
 15 24  1  0
 16 21  1  0
 16 29  2  0
 17 23  1  0
 17 24  1  0
 18 22  1  0
 20 28  1  0
 21 26  1  0
 22 25  1  0
 26 30  2  0
 27 29  1  0
 27 30  1  0
M  END
>  <ID>  (1) 
conformer_0

$$$$
