
     RDKit          3D

 21 23  0  0  0  0  0  0  0  0999 V2000
   -6.9819   16.8842   24.7781 C   0  0  0  0  0  0  0  0  0  0  0  0
   -3.8778   20.4872   23.0881 C   0  0  0  0  0  0  0  0  0  0  0  0
   -3.7048   20.7571   20.5394 C   0  0  0  0  0  0  0  0  0  0  0  0
   -5.7630   15.9516   25.1044 C   0  0  0  0  0  0  0  0  0  0  0  0
   -9.1990   16.7402   25.7838 C   0  0  0  0  0  0  0  0  0  0  0  0
   -3.8451   21.9913   23.2087 C   0  0  0  0  0  0  0  0  0  0  0  0
   -2.8777   22.6655   22.2951 C   0  0  0  0  0  0  0  0  0  0  0  0
   -3.1902   19.9778   21.8426 C   0  0  0  0  0  0  0  0  0  0  0  0
   -1.6880   20.3549   21.9819 C   0  0  0  0  0  0  0  0  0  0  0  0
   -1.5907   21.8614   22.2108 C   0  0  0  0  0  0  0  0  0  0  0  0
   -3.8619   18.3119   24.9374 C   0  0  0  0  0  0  0  0  0  0  0  0
   -5.3245   18.9398   24.6356 C   0  0  0  0  0  0  0  0  0  0  0  0
   -8.8563   15.5314   25.0333 O   0  0  0  0  0  0  0  0  0  0  0  0
   -7.9702   16.0302   23.9724 C   0  0  0  0  0  0  0  0  0  0  0  0
   -7.9156   17.4918   25.8806 C   0  0  0  0  0  0  0  0  0  0  0  0
   -5.2306   20.6874   20.5348 C   0  0  0  0  0  0  0  0  0  0  0  0
   -6.3440   20.6236   22.8701 C   0  0  0  0  0  0  0  0  0  0  0  0
   -5.8484   19.6048   25.9588 C   0  0  0  0  0  0  0  0  0  0  0  0
   -6.3958   18.0028   23.9825 C   0  0  0  0  0  0  0  0  0  0  0  0
   -5.9860   21.4828   21.6240 C   0  0  0  0  0  0  0  0  0  0  0  0
   -5.1405   19.9235   23.5043 C   0  0  0  0  0  0  0  0  0  0  0  0
  1  4  1  0
  1 14  1  0
  1 15  1  0
  1 19  1  0
  2  6  1  0
  2  8  1  0
  2 21  1  0
  3  8  1  0
  3 16  1  0
  5 13  1  0
  5 15  1  0
  6  7  1  0
  7 10  1  0
  8  9  1  0
  9 10  1  0
 11 12  1  0
 12 18  1  0
 12 19  1  0
 12 21  1  0
 13 14  1  0
 16 20  1  0
 17 20  1  0
 17 21  1  0
M  END
>  <ID>  (1) 
conformer_0

$$$$
