
     RDKit          3D

 29 32  0  0  0  0  0  0  0  0999 V2000
   -7.7892   16.6964   23.4339 C   0  0  0  0  0  0  0  0  0  0  0  0
   -2.6508   17.9877   23.1803 C   0  0  0  0  0  0  0  0  0  0  0  0
   -5.3910   15.9010   25.5206 O   0  0  0  0  0  0  0  0  0  0  0  0
   -4.7399   20.7360   22.9652 C   0  0  0  0  0  0  0  0  0  0  0  0
   -3.2181   17.5252   24.4892 O   0  0  0  0  0  0  0  0  0  0  0  0
   -2.5140   22.1485   22.3590 C   0  0  0  0  0  0  0  0  0  0  0  0
   -5.1060   19.3733   22.3727 C   0  0  0  0  0  0  0  0  0  0  0  0
   -3.7116   20.2287   23.9307 C   0  0  0  0  0  0  0  0  0  0  0  0
   -8.2788   17.3015   26.4231 N   0  0  0  0  0  0  0  0  0  0  0  0
   -2.5918   19.9817   21.6041 C   0  0  0  0  0  0  0  0  0  0  0  0
   -5.9864   19.9263   25.1333 C   0  0  0  0  0  0  0  0  0  0  0  0
   -1.3738   19.9662   23.6440 O   0  0  0  0  0  0  0  0  0  0  0  0
   -4.8091   20.7357   21.5074 C   0  0  0  0  0  0  0  0  0  0  0  0
   -3.2775   21.4448   21.2792 C   0  0  0  0  0  0  0  0  0  0  0  0
   -4.5239   17.9595   24.8105 C   0  0  0  0  0  0  0  0  0  0  0  0
   -2.6010   19.5493   23.0994 C   0  0  0  0  0  0  0  0  0  0  0  0
   -4.5435   19.4264   24.8918 C   0  0  0  0  0  0  0  0  0  0  0  0
   -9.2642   17.6151   25.2764 C   0  0  0  0  0  0  0  0  0  0  0  0
   -3.7817   22.9143   20.9617 C   0  0  0  0  0  0  0  0  0  0  0  0
   -6.2234   16.6716   23.3591 C   0  0  0  0  0  0  0  0  0  0  0  0
   -4.9341   20.0180   20.1249 C   0  0  0  0  0  0  0  0  0  0  0  0
   -8.2381   15.5784   24.0481 O   0  0  0  0  0  0  0  0  0  0  0  0
   -8.0665   17.9519   24.3460 C   0  0  0  0  0  0  0  0  0  0  0  0
   -6.6055   19.0033   26.2043 C   0  0  0  0  0  0  0  0  0  0  0  0
   -5.9174   21.6905   21.2387 F   0  0  0  0  0  0  0  0  0  0  0  0
   -5.7504   17.0384   24.8172 C   0  0  0  0  0  0  0  0  0  0  0  0
   -7.0177   17.6687   25.5386 C   0  0  0  0  0  0  0  0  0  0  0  0
   -2.8020   21.3505   20.0069 O   0  0  0  0  0  0  0  0  0  0  0  0
   -6.5935   19.0218   22.0113 C   0  0  0  0  0  0  0  0  0  0  0  0
  1 20  1  0
  1 22  1  0
  1 23  1  0
  2  5  1  0
  2 16  1  0
  3 26  1  0
  4  7  1  0
  4  8  1  0
  4 13  1  0
  5 15  1  0
  6 14  1  0
  7 29  1  0
  8 16  1  0
  8 17  1  0
  9 18  1  0
  9 27  1  0
 10 14  1  0
 10 16  1  0
 11 17  1  0
 11 24  1  0
 12 16  1  0
 13 21  1  0
 13 25  1  0
 14 19  1  0
 14 28  1  0
 15 17  1  0
 15 26  1  0
 18 23  1  0
 20 26  1  0
 23 27  1  0
 24 27  1  0
 26 27  1  0
M  END
>  <ID>  (1) 
conformer_0

$$$$
