
     RDKit          3D

 21 24  0  0  0  0  0  0  0  0999 V2000
   -3.6234   19.9937   22.9191 C   0  0  0  0  0  0  0  0  0  0  0  0
   -7.9853   17.2536   25.8452 C   0  0  0  0  0  0  0  0  0  0  0  0
   -1.6293   20.4226   21.8205 O   0  0  0  0  0  0  0  0  0  0  0  0
   -5.5507   21.2852   22.3530 C   0  0  0  0  0  0  0  0  0  0  0  0
   -9.1540   17.4369   23.6922 C   0  0  0  0  0  0  0  0  0  0  0  0
   -3.3777   21.9408   21.5056 C   0  0  0  0  0  0  0  0  0  0  0  0
   -4.7383   22.1904   21.6903 C   0  0  0  0  0  0  0  0  0  0  0  0
   -5.0314   20.1571   22.9727 C   0  0  0  0  0  0  0  0  0  0  0  0
   -9.1946   16.3206   25.9960 C   0  0  0  0  0  0  0  0  0  0  0  0
   -3.6985   18.2352   24.5060 C   0  0  0  0  0  0  0  0  0  0  0  0
   -6.6428   16.6986   26.3268 C   0  0  0  0  0  0  0  0  0  0  0  0
   -9.8984   16.3829   24.5560 C   0  0  0  0  0  0  0  0  0  0  0  0
   -5.0875   18.2904   24.5345 C   0  0  0  0  0  0  0  0  0  0  0  0
   -7.8070   17.7524   24.3942 C   0  0  0  0  0  0  0  0  0  0  0  0
   -7.2047   18.8766   23.4653 C   0  0  0  0  0  0  0  0  0  0  0  0
   -2.8230   20.7993   22.0813 C   0  0  0  0  0  0  0  0  0  0  0  0
   -5.6033   17.3618   25.5799 C   0  0  0  0  0  0  0  0  0  0  0  0
  -10.0424   16.8890   26.9406 O   0  0  0  0  0  0  0  0  0  0  0  0
   -8.9139   15.0920   26.3468 O   0  0  0  0  0  0  0  0  0  0  0  0
   -5.7609   19.1765   23.6500 C   0  0  0  0  0  0  0  0  0  0  0  0
   -2.9879   19.0121   23.6761 C   0  0  0  0  0  0  0  0  0  0  0  0
  1  8  1  0
  1 16  1  0
  1 21  1  0
  2  9  1  0
  2 11  1  0
  2 14  1  0
  3 16  2  0
  4  7  1  0
  4  8  2  0
  5 12  1  0
  5 14  1  0
  6  7  2  0
  6 16  1  0
  8 20  1  0
  9 12  1  0
  9 18  1  0
  9 19  1  0
 10 13  1  0
 10 21  2  0
 11 17  1  0
 13 17  2  0
 13 20  1  0
 14 15  1  0
 15 20  2  0
M  END
>  <ID>  (1) 
conformer_0

$$$$
