
     RDKit          3D

 23 23  0  0  0  0  0  0  0  0999 V2000
   -3.4009   21.0926   20.9693 C   0  0  0  0  0  0  0  0  0  0  0  0
   -8.7044   15.9965   26.1878 C   0  0  0  0  0  0  0  0  0  0  0  0
   -5.7979   20.5694   20.6007 C   0  0  0  0  0  0  0  0  0  0  0  0
   -6.8347   18.6254   24.6589 C   0  0  0  0  0  0  0  0  0  0  0  0
   -8.6141   15.5530   27.4260 N   0  0  0  0  0  0  0  0  0  0  0  0
   -8.4166   17.4166   26.0430 C   0  0  0  0  0  0  0  0  0  0  0  0
   -4.5833   19.5019   22.2974 O   0  0  0  0  0  0  0  0  0  0  0  0
   -3.5044   22.4734   20.6041 F   0  0  0  0  0  0  0  0  0  0  0  0
   -7.0757   18.3987   23.1741 C   0  0  0  0  0  0  0  0  0  0  0  0
   -1.8720   19.8914   22.4501 O   0  0  0  0  0  0  0  0  0  0  0  0
   -6.2370   20.9697   25.0116 C   0  0  0  0  0  0  0  0  0  0  0  0
   -2.9219   20.4335   19.8636 F   0  0  0  0  0  0  0  0  0  0  0  0
   -6.0963   16.3772   25.6940 C   0  0  0  0  0  0  0  0  0  0  0  0
   -4.9907   20.3525   24.4914 C   0  0  0  0  0  0  0  0  0  0  0  0
   -4.9420   16.4472   24.7393 C   0  0  0  0  0  0  0  0  0  0  0  0
   -4.6839   20.6701   22.9952 C   0  0  0  0  0  0  0  0  0  0  0  0
   -7.3583   19.9625   25.2145 C   0  0  0  0  0  0  0  0  0  0  0  0
   -3.4404   21.5516   23.2722 C   0  0  0  0  0  0  0  0  0  0  0  0
   -2.4976   21.0896   22.2187 C   0  0  0  0  0  0  0  0  0  0  0  0
   -8.9264   15.3308   25.2063 O   0  0  0  0  0  0  0  0  0  0  0  0
   -6.9902   17.5450   25.6259 C   0  0  0  0  0  0  0  0  0  0  0  0
   -4.6729   20.5193   21.5158 C   0  0  0  0  0  0  0  0  0  0  0  0
   -9.5419   18.1579   25.3842 C   0  0  0  0  0  0  0  0  0  0  0  0
  1  8  1  0
  1 12  1  0
  1 19  1  0
  1 22  1  0
  2  5  1  0
  2  6  1  0
  2 20  2  0
  3 22  1  0
  4  9  1  0
  4 17  1  0
  4 21  1  0
  6 21  1  0
  6 23  1  0
  7 16  1  0
  7 22  1  0
 10 19  1  0
 11 14  1  0
 11 17  1  0
 13 15  1  0
 13 21  1  0
 14 16  1  0
 16 18  1  0
 18 19  1  0
M  END
>  <ID>  (1) 
conformer_0

$$$$
