
     RDKit          3D

 24 27  0  0  0  0  0  0  0  0999 V2000
   -7.5088   16.1221   25.0778 C   0  0  0  0  0  0  0  0  0  0  0  0
   -8.8525   15.8130   24.3781 C   0  0  0  0  0  0  0  0  0  0  0  0
   -4.8702   22.2295   23.5513 C   0  0  0  0  0  0  0  0  0  0  0  0
   -7.7055   15.8617   26.6327 C   0  0  0  0  0  0  0  0  0  0  0  0
   -6.3920   15.2368   24.5831 C   0  0  0  0  0  0  0  0  0  0  0  0
   -4.9897   15.8265   24.6851 C   0  0  0  0  0  0  0  0  0  0  0  0
   -2.7264   21.3223   22.8209 C   0  0  0  0  0  0  0  0  0  0  0  0
   -2.0601   19.0957   22.7161 C   0  0  0  0  0  0  0  0  0  0  0  0
   -6.7731   20.2999   24.4585 C   0  0  0  0  0  0  0  0  0  0  0  0
   -2.5147   21.6549   21.3217 C   0  0  0  0  0  0  0  0  0  0  0  0
   -4.3599   19.7920   23.7175 C   0  0  0  0  0  0  0  0  0  0  0  0
   -8.2354   18.5608   25.1052 C   0  0  0  0  0  0  0  0  0  0  0  0
   -5.7306   19.4118   24.2104 C   0  0  0  0  0  0  0  0  0  0  0  0
   -3.8976   21.7414   20.6433 C   0  0  0  0  0  0  0  0  0  0  0  0
   -5.8063   20.3346   21.1722 O   0  0  0  0  0  0  0  0  0  0  0  0
   -4.9046   17.1270   24.2651 O   0  0  0  0  0  0  0  0  0  0  0  0
   -7.9947   19.8955   24.8918 C   0  0  0  0  0  0  0  0  0  0  0  0
   -4.7418   20.8757   21.5667 C   0  0  0  0  0  0  0  0  0  0  0  0
   -2.2557   20.2783   21.7475 C   0  0  0  0  0  0  0  0  0  0  0  0
   -5.9616   18.0456   24.4565 C   0  0  0  0  0  0  0  0  0  0  0  0
   -4.1899   21.0333   22.9680 C   0  0  0  0  0  0  0  0  0  0  0  0
   -3.8445   21.2924   19.3447 O   0  0  0  0  0  0  0  0  0  0  0  0
   -3.1867   18.9132   23.6748 C   0  0  0  0  0  0  0  0  0  0  0  0
   -7.2264   17.6044   24.8860 C   0  0  0  0  0  0  0  0  0  0  0  0
  1  2  1  0
  1  4  1  0
  1  5  1  0
  1 24  1  0
  3 21  1  0
  5  6  1  0
  6 16  1  0
  7 10  1  0
  7 21  1  0
  8 19  1  0
  8 23  1  0
  9 13  1  0
  9 17  2  0
 10 14  1  0
 10 19  1  0
 11 13  1  0
 11 21  1  0
 11 23  1  0
 12 17  1  0
 12 24  2  0
 13 20  2  0
 14 18  1  0
 14 22  1  0
 15 18  2  0
 16 20  1  0
 18 21  1  0
 20 24  1  0
M  END
>  <ID>  (1) 
conformer_0

$$$$
