
     RDKit          3D

 26 30  0  0  0  0  0  0  0  0999 V2000
   -5.6234   18.4841   24.6124 C   0  0  0  0  0  0  0  0  0  0  0  0
   -2.4517   20.0852   23.0136 C   0  0  0  0  0  0  0  0  0  0  0  0
   -3.8154   19.9150   23.2132 C   0  0  0  0  0  0  0  0  0  0  0  0
   -8.9728   15.4380   24.8149 O   0  0  0  0  0  0  0  0  0  0  0  0
   -8.0424   18.5272   24.7200 C   0  0  0  0  0  0  0  0  0  0  0  0
   -6.2202   20.1033   22.9187 C   0  0  0  0  0  0  0  0  0  0  0  0
   -8.8765   16.3804   25.6720 C   0  0  0  0  0  0  0  0  0  0  0  0
   -3.3709   20.4807   21.9551 C   0  0  0  0  0  0  0  0  0  0  0  0
   -6.0608   17.2155   25.2619 C   0  0  0  0  0  0  0  0  0  0  0  0
   -9.3442   14.7684   27.3845 O   0  0  0  0  0  0  0  0  0  0  0  0
   -7.6057   17.2124   25.4492 C   0  0  0  0  0  0  0  0  0  0  0  0
   -5.9836   20.3022   21.5504 O   0  0  0  0  0  0  0  0  0  0  0  0
   -5.1393   16.0576   24.9230 C   0  0  0  0  0  0  0  0  0  0  0  0
   -4.9809   20.8000   23.5976 C   0  0  0  0  0  0  0  0  0  0  0  0
   -2.9572   20.1209   20.5864 C   0  0  0  0  0  0  0  0  0  0  0  0
   -1.6881   21.1800   22.5354 C   0  0  0  0  0  0  0  0  0  0  0  0
   -4.0692   22.3597   20.4296 C   0  0  0  0  0  0  0  0  0  0  0  0
   -2.2593   22.4656   22.0266 C   0  0  0  0  0  0  0  0  0  0  0  0
   -6.7088   17.0511   26.4526 O   0  0  0  0  0  0  0  0  0  0  0  0
   -3.2239   18.2607   24.8250 O   0  0  0  0  0  0  0  0  0  0  0  0
   -3.7414   22.0469   21.8681 C   0  0  0  0  0  0  0  0  0  0  0  0
   -4.2460   18.6997   24.0530 C   0  0  0  0  0  0  0  0  0  0  0  0
   -9.3248   16.1732   27.0677 C   0  0  0  0  0  0  0  0  0  0  0  0
   -4.6169   22.1965   23.0686 C   0  0  0  0  0  0  0  0  0  0  0  0
   -3.1975   21.3214   19.6633 C   0  0  0  0  0  0  0  0  0  0  0  0
   -6.8122   19.1422   23.9943 C   0  0  0  0  0  0  0  0  0  0  0  0
  1  9  1  0
  1 22  1  0
  1 26  1  0
  2  3  1  0
  2 16  2  0
  3  8  1  0
  3 14  1  0
  3 22  1  0
  4  7  2  0
  5 11  1  0
  5 26  1  0
  6 12  1  0
  6 14  1  0
  6 26  1  0
  7 11  1  0
  7 23  1  0
  8 15  1  0
  8 21  1  0
  9 13  1  0
  9 19  1  0
 10 23  1  0
 11 19  1  0
 14 24  1  0
 15 25  1  0
 16 18  1  0
 17 21  1  0
 17 25  1  0
 18 21  1  0
 20 22  1  0
 21 24  1  0
M  END
>  <ID>  (1) 
conformer_0

$$$$
