
     RDKit          3D

 21 22  0  0  0  0  0  0  0  0999 V2000
   -4.1087   17.8725   24.5475 C   0  0  0  0  0  0  0  0  0  0  0  0
   -7.8654   17.9714   23.6808 C   0  0  0  0  0  0  0  0  0  0  0  0
   -8.1738   15.2794   26.7922 O   0  0  0  0  0  0  0  0  0  0  0  0
   -9.2973   16.0015   24.7737 C   0  0  0  0  0  0  0  0  0  0  0  0
   -3.9395   20.2896   23.3215 C   0  0  0  0  0  0  0  0  0  0  0  0
   -3.1351   22.3489   20.8646 C   0  0  0  0  0  0  0  0  0  0  0  0
   -2.8785   18.3054   23.9619 C   0  0  0  0  0  0  0  0  0  0  0  0
   -4.1779   16.4215   24.9369 C   0  0  0  0  0  0  0  0  0  0  0  0
   -8.4352   16.4591   26.0385 C   0  0  0  0  0  0  0  0  0  0  0  0
   -2.8319   19.4058   23.0319 C   0  0  0  0  0  0  0  0  0  0  0  0
   -5.3601   19.8470   23.6235 C   0  0  0  0  0  0  0  0  0  0  0  0
   -3.5664   21.1437   21.7057 C   0  0  0  0  0  0  0  0  0  0  0  0
   -8.6764   18.9884   24.5849 C   0  0  0  0  0  0  0  0  0  0  0  0
   -5.8040   20.6305   24.8907 C   0  0  0  0  0  0  0  0  0  0  0  0
   -6.9873   17.2241   25.8994 C   0  0  0  0  0  0  0  0  0  0  0  0
   -6.5718   17.5397   24.4424 C   0  0  0  0  0  0  0  0  0  0  0  0
   -9.3141   17.2610   26.8356 O   0  0  0  0  0  0  0  0  0  0  0  0
   -3.6783   21.6447   23.0873 C   0  0  0  0  0  0  0  0  0  0  0  0
   -5.3783   18.3495   23.9596 C   0  0  0  0  0  0  0  0  0  0  0  0
   -6.1828   20.1473   22.5567 O   0  0  0  0  0  0  0  0  0  0  0  0
   -2.3654   20.1755   21.7878 C   0  0  0  0  0  0  0  0  0  0  0  0
  1  7  1  0
  1  8  1  0
  1 19  1  0
  2 13  1  0
  2 16  1  0
  3  9  1  0
  4  9  1  0
  5 10  1  0
  5 11  1  0
  5 18  1  0
  6 12  1  0
  7 10  1  0
  9 15  1  0
  9 17  1  0
 10 21  1  0
 11 14  1  0
 11 19  1  0
 11 20  1  0
 12 18  1  0
 12 21  1  0
 15 16  1  0
 16 19  1  0
M  END
>  <ID>  (1) 
conformer_0

$$$$
