
     RDKit          3D

 27 30  0  0  0  0  0  0  0  0999 V2000
   -8.3549   16.7487   25.7600 C   0  0  0  0  0  0  0  0  0  0  0  0
   -3.0374   20.2970   20.3052 O   0  0  0  0  0  0  0  0  0  0  0  0
   -2.9385   22.6148   20.9003 O   0  0  0  0  0  0  0  0  0  0  0  0
   -6.1217   20.5872   23.3062 C   0  0  0  0  0  0  0  0  0  0  0  0
   -6.4473   17.0631   24.2967 C   0  0  0  0  0  0  0  0  0  0  0  0
   -7.0954   16.4085   23.2680 C   0  0  0  0  0  0  0  0  0  0  0  0
   -5.3363   22.7591   21.7107 F   0  0  0  0  0  0  0  0  0  0  0  0
   -3.1265   21.3051   21.2440 C   0  0  0  0  0  0  0  0  0  0  0  0
   -4.7521   20.9550   22.9217 C   0  0  0  0  0  0  0  0  0  0  0  0
   -3.5021   19.2196   23.5607 C   0  0  0  0  0  0  0  0  0  0  0  0
   -4.9741   17.3017   24.1995 C   0  0  0  0  0  0  0  0  0  0  0  0
   -5.8423   19.5174   24.1735 C   0  0  0  0  0  0  0  0  0  0  0  0
   -5.4319   20.9582   20.5353 C   0  0  0  0  0  0  0  0  0  0  0  0
   -6.1054   19.6786   25.6211 C   0  0  0  0  0  0  0  0  0  0  0  0
   -6.8410   18.6038   26.3106 C   0  0  0  0  0  0  0  0  0  0  0  0
   -2.3766   19.2780   22.5847 C   0  0  0  0  0  0  0  0  0  0  0  0
   -4.5973   21.4958   21.6094 C   0  0  0  0  0  0  0  0  0  0  0  0
   -4.1177   16.7203   25.1353 C   0  0  0  0  0  0  0  0  0  0  0  0
   -3.7224   20.7067   23.8675 C   0  0  0  0  0  0  0  0  0  0  0  0
   -2.1141   20.8123   22.2674 C   0  0  0  0  0  0  0  0  0  0  0  0
   -8.8348   16.7659   27.0257 O   0  0  0  0  0  0  0  0  0  0  0  0
   -4.7416   18.6590   23.8346 N   0  0  0  0  0  0  0  0  0  0  0  0
   -8.8680   15.3652   27.4882 C   0  0  0  0  0  0  0  0  0  0  0  0
   -6.5907   20.2374   20.8230 F   0  0  0  0  0  0  0  0  0  0  0  0
   -7.1928   17.4614   25.4309 C   0  0  0  0  0  0  0  0  0  0  0  0
   -8.9545   15.9979   24.7463 C   0  0  0  0  0  0  0  0  0  0  0  0
   -8.3619   15.9131   23.4946 C   0  0  0  0  0  0  0  0  0  0  0  0
  1 21  1  0
  1 25  1  0
  1 26  2  0
  2  8  1  0
  3  8  1  0
  4  9  1  0
  4 12  1  0
  5  6  1  0
  5 11  1  0
  5 25  1  0
  6 27  2  0
  7 17  1  0
  8 17  1  0
  8 20  1  0
  9 17  1  0
  9 19  1  0
 10 16  1  0
 10 19  1  0
 10 22  1  0
 11 18  1  0
 11 22  1  0
 12 14  1  0
 12 22  1  0
 13 17  1  0
 13 24  1  0
 14 15  1  0
 15 25  1  0
 16 20  1  0
 21 23  1  0
 26 27  1  0
M  END
>  <ID>  (1) 
conformer_0

$$$$
