
     RDKit          3D

 32 36  0  0  0  0  0  0  0  0999 V2000
   -1.2529   18.9350   22.8244 O   0  0  0  0  0  0  0  0  0  0  0  0
   -4.1045   21.1228   23.5570 C   0  0  0  0  0  0  0  0  0  0  0  0
   -7.2599   20.9762   24.7364 F   0  0  0  0  0  0  0  0  0  0  0  0
   -2.1330   18.7126   23.5972 C   0  0  0  0  0  0  0  0  0  0  0  0
   -4.6496   21.6599   20.9317 C   0  0  0  0  0  0  0  0  0  0  0  0
   -4.4918   21.7048   19.5239 O   0  0  0  0  0  0  0  0  0  0  0  0
   -6.5077   17.4460   26.5610 C   0  0  0  0  0  0  0  0  0  0  0  0
   -2.3384   21.5974   21.7488 C   0  0  0  0  0  0  0  0  0  0  0  0
   -9.2822   15.5741   25.6414 C   0  0  0  0  0  0  0  0  0  0  0  0
   -7.2962   17.6970   23.2593 C   0  0  0  0  0  0  0  0  0  0  0  0
   -2.8384   20.2204   21.5148 C   0  0  0  0  0  0  0  0  0  0  0  0
   -6.0455   15.8593   24.3569 C   0  0  0  0  0  0  0  0  0  0  0  0
   -8.5830   15.7468   24.2715 C   0  0  0  0  0  0  0  0  0  0  0  0
   -2.6431   17.7952   24.2998 O   0  0  0  0  0  0  0  0  0  0  0  0
   -5.4952   18.5550   26.1402 C   0  0  0  0  0  0  0  0  0  0  0  0
   -8.2310   18.8817   25.6932 C   0  0  0  0  0  0  0  0  0  0  0  0
   -2.7204   20.9437   22.9112 C   0  0  0  0  0  0  0  0  0  0  0  0
   -9.7343   16.6491   24.7846 C   0  0  0  0  0  0  0  0  0  0  0  0
   -5.9144   22.0112   21.3745 O   0  0  0  0  0  0  0  0  0  0  0  0
   -3.5165   22.5576   21.4193 O   0  0  0  0  0  0  0  0  0  0  0  0
   -6.5671   18.8113   23.9021 C   0  0  0  0  0  0  0  0  0  0  0  0
   -5.2442   18.7028   24.6482 C   0  0  0  0  0  0  0  0  0  0  0  0
   -1.9418   20.0693   23.7987 C   0  0  0  0  0  0  0  0  0  0  0  0
   -4.3224   20.1550   21.2727 C   0  0  0  0  0  0  0  0  0  0  0  0
   -4.4762   19.6642   23.7918 C   0  0  0  0  0  0  0  0  0  0  0  0
   -8.9130   15.7757   26.9271 O   0  0  0  0  0  0  0  0  0  0  0  0
   -4.3883   19.1057   22.3412 C   0  0  0  0  0  0  0  0  0  0  0  0
  -10.0273   14.5412   25.6055 O   0  0  0  0  0  0  0  0  0  0  0  0
   -7.3838   16.6165   24.3855 C   0  0  0  0  0  0  0  0  0  0  0  0
   -9.1416   17.9673   25.2576 C   0  0  0  0  0  0  0  0  0  0  0  0
   -7.7239   17.4833   25.6194 C   0  0  0  0  0  0  0  0  0  0  0  0
   -7.4869   19.7092   24.6835 C   0  0  0  0  0  0  0  0  0  0  0  0
  1  4  2  0
  2 17  1  0
  2 25  1  0
  3 32  1  0
  4 14  1  0
  4 23  1  0
  5  6  1  0
  5 19  1  0
  5 20  1  0
  5 24  1  0
  7 15  1  0
  7 31  1  0
  8 11  1  0
  8 17  1  0
  8 20  1  0
  9 13  1  0
  9 18  1  0
  9 26  1  0
  9 28  1  0
 10 21  1  0
 10 29  1  0
 11 24  1  0
 12 29  1  0
 13 29  1  0
 15 22  1  0
 16 30  1  0
 16 31  1  0
 16 32  1  0
 17 23  1  0
 18 30  1  0
 21 22  1  0
 21 32  1  0
 22 25  1  0
 24 27  1  0
 25 27  1  0
 29 31  1  0
M  END
>  <ID>  (1) 
conformer_0

$$$$
