
     RDKit          3D

 31 37  0  0  0  0  0  0  0  0999 V2000
   -6.7352   17.0311   25.1036 C   0  0  0  0  0  0  0  0  0  0  0  0
   -4.2918   17.1059   24.6116 C   0  0  0  0  0  0  0  0  0  0  0  0
   -5.4691   17.9247   25.1759 C   0  0  0  0  0  0  0  0  0  0  0  0
   -5.2857   21.9673   21.5568 C   0  0  0  0  0  0  0  0  0  0  0  0
   -5.2689   18.1750   26.6152 O   0  0  0  0  0  0  0  0  0  0  0  0
   -7.8140   17.7562   25.9608 C   0  0  0  0  0  0  0  0  0  0  0  0
   -4.8874   21.3211   22.9309 C   0  0  0  0  0  0  0  0  0  0  0  0
   -3.1149   20.4918   21.5031 C   0  0  0  0  0  0  0  0  0  0  0  0
   -8.1807   18.7796   23.3838 C   0  0  0  0  0  0  0  0  0  0  0  0
   -6.1788   20.5349   23.4687 C   0  0  0  0  0  0  0  0  0  0  0  0
   -7.8592   15.3450   26.6817 O   0  0  0  0  0  0  0  0  0  0  0  0
   -3.3071   20.3837   24.5228 C   0  0  0  0  0  0  0  0  0  0  0  0
   -7.1153   19.5182   24.2899 C   0  0  0  0  0  0  0  0  0  0  0  0
   -7.7326   19.2810   25.7615 C   0  0  0  0  0  0  0  0  0  0  0  0
   -2.0418   20.9473   22.5103 C   0  0  0  0  0  0  0  0  0  0  0  0
   -9.2352   17.8806   24.1213 C   0  0  0  0  0  0  0  0  0  0  0  0
   -5.9828   20.9191   20.7955 C   0  0  0  0  0  0  0  0  0  0  0  0
   -2.1541   22.4715   22.7099 C   0  0  0  0  0  0  0  0  0  0  0  0
   -3.0583   21.6014   20.4009 C   0  0  0  0  0  0  0  0  0  0  0  0
   -6.0980   23.0110   21.9614 O   0  0  0  0  0  0  0  0  0  0  0  0
   -9.1521   15.9244   26.5845 C   0  0  0  0  0  0  0  0  0  0  0  0
   -5.6083   19.3240   24.3748 C   0  0  0  0  0  0  0  0  0  0  0  0
   -3.6569   20.5122   22.9472 C   0  0  0  0  0  0  0  0  0  0  0  0
   -6.6672   15.7545   25.9455 C   0  0  0  0  0  0  0  0  0  0  0  0
   -4.6522   20.2763   25.2227 C   0  0  0  0  0  0  0  0  0  0  0  0
   -4.1693   22.5736   20.6991 C   0  0  0  0  0  0  0  0  0  0  0  0
   -3.1431   17.9494   24.2537 O   0  0  0  0  0  0  0  0  0  0  0  0
   -3.4816   19.2968   20.8734 O   0  0  0  0  0  0  0  0  0  0  0  0
   -9.1519   17.1408   25.5792 C   0  0  0  0  0  0  0  0  0  0  0  0
   -1.6108   19.5501   23.0521 C   0  0  0  0  0  0  0  0  0  0  0  0
   -3.1137   19.2553   23.5727 C   0  0  0  0  0  0  0  0  0  0  0  0
  1  3  1  0
  1  6  1  0
  1 24  1  0
  2  3  1  0
  2 27  1  0
  3  5  1  0
  3 22  1  0
  4  7  1  0
  4 17  1  0
  4 20  1  0
  4 26  1  0
  6 14  1  0
  6 29  1  0
  7 10  1  0
  7 23  1  0
  8 15  1  0
  8 19  1  0
  8 23  1  0
  8 28  1  0
  9 13  1  0
  9 16  1  0
 10 13  1  0
 11 21  1  0
 11 24  1  0
 12 25  1  0
 12 31  1  0
 13 14  1  0
 13 22  1  0
 15 18  1  0
 15 30  1  0
 16 29  1  0
 19 26  1  0
 21 29  1  0
 22 25  1  0
 23 31  1  0
 27 31  1  0
 30 31  1  0
M  END
>  <ID>  (1) 
conformer_0

$$$$
