
     RDKit          3D

 30 33  0  0  0  0  0  0  0  0999 V2000
   -3.9042   19.9537   25.5989 O   0  0  0  0  0  0  0  0  0  0  0  0
   -1.3936   21.9590   21.8033 C   0  0  0  0  0  0  0  0  0  0  0  0
   -5.3820   21.0363   22.5396 C   0  0  0  0  0  0  0  0  0  0  0  0
   -4.8664   18.7145   21.3462 C   0  0  0  0  0  0  0  0  0  0  0  0
   -1.5891   20.5321   21.8329 C   0  0  0  0  0  0  0  0  0  0  0  0
   -5.8877   17.7901   24.5578 C   0  0  0  0  0  0  0  0  0  0  0  0
   -9.6679   15.9392   26.2606 S   0  0  0  0  0  4  0  0  0  0  0  0
   -4.5449   19.8671   24.5187 C   0  0  0  0  0  0  0  0  0  0  0  0
   -4.1072   20.3167   23.2051 C   0  0  0  0  0  0  0  0  0  0  0  0
   -3.2263   21.5021   23.5114 C   0  0  0  0  0  0  0  0  0  0  0  0
   -8.2100   17.6702   24.9153 C   0  0  0  0  0  0  0  0  0  0  0  0
   -9.6996   14.6469   25.6351 O   0  0  0  0  0  0  0  0  0  0  0  0
   -4.8897   15.9795   24.6246 C   0  0  0  0  0  0  0  0  0  0  0  0
   -5.8672   19.1503   24.6496 C   0  0  0  0  0  0  0  0  0  0  0  0
   -2.4160   22.9870   21.5186 C   0  0  0  0  0  0  0  0  0  0  0  0
   -1.3591   19.7350   23.0827 C   0  0  0  0  0  0  0  0  0  0  0  0
   -3.6973   21.0665   20.3149 C   0  0  0  0  0  0  0  0  0  0  0  0
   -8.2523   19.0759   25.0418 C   0  0  0  0  0  0  0  0  0  0  0  0
  -10.9332   16.2728   26.7446 O   0  0  0  0  0  0  0  0  0  0  0  0
   -4.5693   21.7788   21.4548 C   0  0  0  0  0  0  0  0  0  0  0  0
   -5.3473   22.7930   20.9708 O   0  0  0  0  0  0  0  0  0  0  0  0
   -6.4133   15.6385   24.1105 C   0  0  0  0  0  0  0  0  0  0  0  0
   -3.7366   19.4293   22.0276 C   0  0  0  0  0  0  0  0  0  0  0  0
   -2.7783   20.0667   21.0346 C   0  0  0  0  0  0  0  0  0  0  0  0
   -8.6286   15.9704   27.3361 O   0  0  0  0  0  0  0  0  0  0  0  0
   -9.3158   16.9746   25.1496 O   0  0  0  0  0  0  0  0  0  0  0  0
   -7.0689   19.8187   24.8824 C   0  0  0  0  0  0  0  0  0  0  0  0
   -6.9656   17.0683   24.5473 C   0  0  0  0  0  0  0  0  0  0  0  0
   -2.0619   18.4552   23.6113 C   0  0  0  0  0  0  0  0  0  0  0  0
   -3.4285   22.3471   22.3520 C   0  0  0  0  0  0  0  0  0  0  0  0
  1  8  2  0
  2  5  1  0
  2 15  1  0
  3  9  1  0
  3 20  1  0
  4 23  1  0
  5 16  1  0
  5 24  1  0
  6 14  2  0
  6 28  1  0
  7 12  1  0
  7 19  1  0
  7 25  1  0
  7 26  1  0
  8  9  1  0
  8 14  1  0
  9 10  1  0
  9 23  1  0
 10 30  1  0
 11 18  1  0
 11 26  1  0
 11 28  2  0
 13 22  1  0
 14 27  1  0
 15 30  1  0
 16 29  1  0
 17 20  1  0
 17 24  1  0
 18 27  2  0
 20 21  1  0
 20 30  1  0
 22 28  1  0
 23 24  1  0
M  END
>  <ID>  (1) 
conformer_0

$$$$
