
     RDKit          3D

 40 46  0  0  0  0  0  0  0  0999 V2000
   -5.5105   16.5305   24.9019 C   0  0  0  0  0  0  0  0  0  0  0  0
   -5.7225   20.2082   18.7263 C   0  0  0  0  0  0  0  0  0  0  0  0
   -7.8360   19.1671   18.4490 C   0  0  0  0  0  0  0  0  0  0  0  0
   -8.5027   16.3459   26.4640 C   0  0  0  0  0  0  0  0  0  0  0  0
   -2.8393   19.0300   23.4460 C   0  0  0  0  0  0  0  0  0  0  0  0
   -8.5895   18.7007   25.4391 C   0  0  0  0  0  0  0  0  0  0  0  0
   -7.8666   17.2895   25.4615 C   0  0  0  0  0  0  0  0  0  0  0  0
   -7.4678   19.7627   24.9001 C   0  0  0  0  0  0  0  0  0  0  0  0
   -3.0984   20.5564   23.3034 C   0  0  0  0  0  0  0  0  0  0  0  0
   -3.4963   21.7909   22.3738 C   0  0  0  0  0  0  0  0  0  0  0  0
   -1.6515   18.6189   23.0478 O   0  0  0  0  0  0  0  0  0  0  0  0
   -3.5922   18.2253   24.4294 C   0  0  0  0  0  0  0  0  0  0  0  0
   -4.9766   21.7487   22.5573 C   0  0  0  0  0  0  0  0  0  0  0  0
   -6.1377   19.3436   16.6932 C   0  0  0  0  0  0  0  0  0  0  0  0
   -3.3454   20.0067   20.6433 C   0  0  0  0  0  0  0  0  0  0  0  0
   -6.3557   17.5579   25.7219 C   0  0  0  0  0  0  0  0  0  0  0  0
   -7.8514   16.8195   23.9725 C   0  0  0  0  0  0  0  0  0  0  0  0
   -8.6405   18.5225   17.5526 C   0  0  0  0  0  0  0  0  0  0  0  0
   -4.9733   21.9492   20.1621 C   0  0  0  0  0  0  0  0  0  0  0  0
   -6.5104   15.9907   23.8299 C   0  0  0  0  0  0  0  0  0  0  0  0
   -6.2078   19.0907   25.6062 C   0  0  0  0  0  0  0  0  0  0  0  0
   -3.6800   19.7646   17.6189 F   0  0  0  0  0  0  0  0  0  0  0  0
   -2.6522   22.0226   19.3810 C   0  0  0  0  0  0  0  0  0  0  0  0
   -5.0883   15.4880   25.7478 O   0  0  0  0  0  0  0  0  0  0  0  0
   -3.3480   23.2730   21.6328 C   0  0  0  0  0  0  0  0  0  0  0  0
   -6.5263   19.5320   17.9546 C   0  0  0  0  0  0  0  0  0  0  0  0
   -3.8677   21.1396   19.7185 C   0  0  0  0  0  0  0  0  0  0  0  0
   -6.9254   20.8750   23.8233 C   0  0  0  0  0  0  0  0  0  0  0  0
   -4.1685   20.7522   24.4887 C   0  0  0  0  0  0  0  0  0  0  0  0
   -9.5085   16.7585   27.0952 O   0  0  0  0  0  0  0  0  0  0  0  0
   -8.3055   18.3316   16.2329 C   0  0  0  0  0  0  0  0  0  0  0  0
   -5.4418   21.2061   23.8161 C   0  0  0  0  0  0  0  0  0  0  0  0
   -2.5283   23.1394   20.4006 C   0  0  0  0  0  0  0  0  0  0  0  0
   -4.2128   16.9196   24.0638 C   0  0  0  0  0  0  0  0  0  0  0  0
   -7.0379   18.7469   15.7711 C   0  0  0  0  0  0  0  0  0  0  0  0
   -1.3424   20.9001   21.5625 O   0  0  0  0  0  0  0  0  0  0  0  0
   -2.7057   20.8029   21.8058 C   0  0  0  0  0  0  0  0  0  0  0  0
   -5.7506   21.7602   21.3287 C   0  0  0  0  0  0  0  0  0  0  0  0
   -8.0307   15.2635   26.7304 O   0  0  0  0  0  0  0  0  0  0  0  0
   -4.4963   20.3775   18.5855 C   0  0  0  0  0  0  0  0  0  0  0  0
  1 16  1  0
  1 20  1  0
  1 24  1  0
  1 34  1  0
  2 26  1  0
  2 40  2  3
  3 18  2  0
  3 26  1  0
  4  7  1  0
  4 30  2  0
  4 39  1  0
  5  9  1  0
  5 11  1  0
  5 12  1  0
  6  7  1  0
  6  8  1  0
  7 16  1  0
  7 17  1  0
  8 21  1  0
  8 28  2  0
  9 29  1  0
  9 37  1  0
 10 13  1  0
 10 25  1  0
 10 37  1  0
 12 34  1  0
 13 32  1  0
 13 38  1  0
 14 26  2  0
 14 35  1  0
 15 27  1  0
 15 37  1  0
 16 21  1  0
 17 20  1  0
 18 31  1  0
 19 27  1  0
 19 38  1  0
 22 40  1  0
 23 27  1  0
 23 33  1  0
 25 33  1  0
 27 40  1  0
 28 32  1  0
 29 32  1  0
 31 35  2  0
 36 37  1  0
M  END
>  <ID>  (1) 
conformer_0

$$$$
