
     RDKit          3D

 21 25  0  0  0  0  0  0  0  0999 V2000
   -6.1287   16.1486   26.2594 C   0  0  0  0  0  0  0  0  0  0  0  0
   -4.6412   17.8838   24.9447 C   0  0  0  0  0  0  0  0  0  0  0  0
   -7.1247   19.4990   22.8702 C   0  0  0  0  0  0  0  0  0  0  0  0
   -3.2512   22.3756   22.0723 C   0  0  0  0  0  0  0  0  0  0  0  0
   -7.4435   15.8558   26.6710 C   0  0  0  0  0  0  0  0  0  0  0  0
   -8.4910   16.6409   26.2465 C   0  0  0  0  0  0  0  0  0  0  0  0
   -6.4731   20.5270   22.2548 C   0  0  0  0  0  0  0  0  0  0  0  0
   -5.2002   20.9040   22.6618 C   0  0  0  0  0  0  0  0  0  0  0  0
   -4.4445   20.0236   23.4286 C   0  0  0  0  0  0  0  0  0  0  0  0
   -5.0860   18.9473   24.0347 C   0  0  0  0  0  0  0  0  0  0  0  0
   -3.4552   17.6147   25.2400 O   0  0  0  0  0  0  0  0  0  0  0  0
   -6.9957   17.8984   24.8625 C   0  0  0  0  0  0  0  0  0  0  0  0
   -2.6299   20.5860   20.9437 C   0  0  0  0  0  0  0  0  0  0  0  0
   -3.1261   22.0405   20.5097 C   0  0  0  0  0  0  0  0  0  0  0  0
   -6.5057   18.8015   23.8796 C   0  0  0  0  0  0  0  0  0  0  0  0
   -4.3628   21.9806   19.7928 O   0  0  0  0  0  0  0  0  0  0  0  0
   -4.6939   22.2687   22.4242 C   0  0  0  0  0  0  0  0  0  0  0  0
   -2.4706   21.0756   22.4114 C   0  0  0  0  0  0  0  0  0  0  0  0
   -3.0171   20.3339   23.5725 C   0  0  0  0  0  0  0  0  0  0  0  0
   -8.2658   17.6649   25.3228 C   0  0  0  0  0  0  0  0  0  0  0  0
   -5.8830   17.2153   25.4337 C   0  0  0  0  0  0  0  0  0  0  0  0
  1  5  2  0
  1 21  1  0
  2 10  1  0
  2 11  2  0
  2 21  1  0
  3  7  2  0
  3 15  1  0
  4 14  1  0
  4 17  1  0
  4 18  1  0
  5  6  1  0
  6 20  2  0
  7  8  1  0
  8  9  1  0
  8 17  1  0
  9 10  2  0
  9 19  1  0
 10 15  1  0
 12 15  1  0
 12 20  1  0
 12 21  2  0
 13 14  1  0
 13 18  1  0
 14 16  1  0
 18 19  1  0
M  END
>  <ID>  (1) 
conformer_0

$$$$
