
     RDKit          3D

 32 35  0  0  0  0  0  0  0  0999 V2000
   -5.1928   20.8470   21.7287 C   0  0  0  0  0  0  0  0  0  0  0  0
   -5.3678   21.7806   24.1454 C   0  0  0  0  0  0  0  0  0  0  0  0
   -9.2879   17.3941   25.8830 C   0  0  0  0  0  0  0  0  0  0  0  0
   -9.0949   15.3005   27.0783 O   0  0  0  0  0  0  0  0  0  0  0  0
   -6.9989   20.1288   18.2898 C   0  0  0  0  0  0  0  0  0  0  0  0
   -7.8645   18.7552   20.0754 C   0  0  0  0  0  0  0  0  0  0  0  0
   -6.0804   20.7144   19.1391 C   0  0  0  0  0  0  0  0  0  0  0  0
   -2.1214   20.2599   19.7283 C   0  0  0  0  0  0  0  0  0  0  0  0
   -8.5232   16.2436   26.3964 C   0  0  0  0  0  0  0  0  0  0  0  0
   -2.0323   20.5632   22.3080 C   0  0  0  0  0  0  0  0  0  0  0  0
   -8.4411   18.4653   25.2233 C   0  0  0  0  0  0  0  0  0  0  0  0
   -3.8159   22.4481   19.5255 C   0  0  0  0  0  0  0  0  0  0  0  0
   -6.0560   20.7676   25.0221 C   0  0  0  0  0  0  0  0  0  0  0  0
   -4.1240   19.5722   23.5324 C   0  0  0  0  0  0  0  0  0  0  0  0
   -4.8636   16.3319   25.3975 C   0  0  0  0  0  0  0  0  0  0  0  0
   -2.8526   21.6123   21.6409 C   0  0  0  0  0  0  0  0  0  0  0  0
   -4.4589   18.7855   24.7839 C   0  0  0  0  0  0  0  0  0  0  0  0
   -3.1115   21.2461   20.1489 C   0  0  0  0  0  0  0  0  0  0  0  0
   -6.9876   18.6031   25.3316 O   0  0  0  0  0  0  0  0  0  0  0  0
   -2.3760   22.9025   21.6942 O   0  0  0  0  0  0  0  0  0  0  0  0
   -3.9202   21.5172   23.8196 C   0  0  0  0  0  0  0  0  0  0  0  0
   -4.0011   17.3971   24.8010 C   0  0  0  0  0  0  0  0  0  0  0  0
   -5.7367   19.3111   25.3151 C   0  0  0  0  0  0  0  0  0  0  0  0
   -5.2828   19.7643   22.7915 C   0  0  0  0  0  0  0  0  0  0  0  0
   -2.7969   19.4518   22.9570 C   0  0  0  0  0  0  0  0  0  0  0  0
   -6.9550   19.2919   20.8949 C   0  0  0  0  0  0  0  0  0  0  0  0
   -6.0692   20.3216   20.5060 C   0  0  0  0  0  0  0  0  0  0  0  0
   -7.9010   19.1648   18.7735 C   0  0  0  0  0  0  0  0  0  0  0  0
   -6.2597   16.1965   25.1947 O   0  0  0  0  0  0  0  0  0  0  0  0
   -7.0796   16.3291   26.4022 C   0  0  0  0  0  0  0  0  0  0  0  0
   -4.1781   21.6335   22.3293 C   0  0  0  0  0  0  0  0  0  0  0  0
   -2.0540   18.3989   23.2668 O   0  0  0  0  0  0  0  0  0  0  0  0
  1 24  1  0
  1 27  1  0
  1 31  1  0
  2 13  1  0
  2 21  1  0
  3  9  1  0
  3 11  1  0
  4  9  1  0
  5  7  2  0
  5 28  1  0
  6 26  1  0
  6 28  2  0
  7 27  1  0
  8 18  1  0
  9 30  1  0
 10 16  1  0
 10 25  1  0
 11 19  1  0
 12 18  1  0
 13 23  1  0
 14 17  1  0
 14 24  1  0
 14 25  1  0
 15 22  1  0
 15 29  1  0
 16 18  1  0
 16 20  1  0
 16 31  1  0
 17 22  1  0
 17 23  1  0
 19 23  1  0
 21 31  1  0
 25 32  1  0
 26 27  2  0
 29 30  1  0
M  END
>  <ID>  (1) 
conformer_0

$$$$
