
     RDKit          3D

 24 27  0  0  0  0  0  0  0  0999 V2000
   -6.5741   19.2266   23.9305 C   0  0  0  0  0  0  0  0  0  0  0  0
   -8.4443   16.6487   26.6523 C   0  0  0  0  0  0  0  0  0  0  0  0
   -2.7607   18.8525   23.8325 C   0  0  0  0  0  0  0  0  0  0  0  0
   -9.7293   15.0117   25.5358 O   0  0  0  0  0  0  0  0  0  0  0  0
   -4.9557   22.6837   21.6997 C   0  0  0  0  0  0  0  0  0  0  0  0
   -7.1251   18.4366   25.0167 C   0  0  0  0  0  0  0  0  0  0  0  0
   -4.1529   18.5310   24.3116 C   0  0  0  0  0  0  0  0  0  0  0  0
   -6.2294   17.3360   25.4791 C   0  0  0  0  0  0  0  0  0  0  0  0
   -5.1894   19.3591   21.9906 C   0  0  0  0  0  0  0  0  0  0  0  0
   -8.5350   18.3539   24.4286 C   0  0  0  0  0  0  0  0  0  0  0  0
   -3.6334   21.9656   21.8784 C   0  0  0  0  0  0  0  0  0  0  0  0
   -3.4741   21.1945   23.2235 C   0  0  0  0  0  0  0  0  0  0  0  0
   -5.1243   19.4101   23.5335 C   0  0  0  0  0  0  0  0  0  0  0  0
   -4.7663   17.6077   25.2788 C   0  0  0  0  0  0  0  0  0  0  0  0
   -2.5715   20.0470   22.9710 C   0  0  0  0  0  0  0  0  0  0  0  0
   -3.7192   21.5189   19.3863 C   0  0  0  0  0  0  0  0  0  0  0  0
   -2.4535   22.9437   21.8852 C   0  0  0  0  0  0  0  0  0  0  0  0
   -4.7447   20.8982   23.9382 C   0  0  0  0  0  0  0  0  0  0  0  0
  -10.6697   17.0050   25.5818 O   0  0  0  0  0  0  0  0  0  0  0  0
   -6.9837   16.2675   26.2203 C   0  0  0  0  0  0  0  0  0  0  0  0
   -8.8144   16.8328   24.1334 C   0  0  0  0  0  0  0  0  0  0  0  0
   -3.3076   20.9191   20.7366 C   0  0  0  0  0  0  0  0  0  0  0  0
   -9.4618   16.2952   25.4906 C   0  0  0  0  0  0  0  0  0  0  0  0
   -2.3785   19.9225   21.4616 C   0  0  0  0  0  0  0  0  0  0  0  0
  1  6  1  0
  1 13  1  0
  2 20  1  0
  2 23  1  0
  3  7  1  0
  3 15  1  0
  4 23  1  0
  5 11  1  0
  6  8  1  0
  6 10  1  0
  7 13  1  0
  7 14  2  0
  8 14  1  0
  8 20  1  0
  9 13  1  0
 10 21  1  0
 11 12  1  0
 11 17  1  0
 11 22  1  0
 12 15  1  0
 12 18  1  0
 13 18  1  0
 15 24  1  0
 16 22  1  0
 19 23  1  0
 21 23  1  0
 22 24  1  0
M  END
>  <ID>  (1) 
conformer_0

$$$$
