
     RDKit          3D

 31 33  0  0  0  0  0  0  0  0999 V2000
   -9.2171   17.6069   24.0334 O   0  0  0  0  0  0  0  0  0  0  0  0
   -3.2821   18.0048   25.2002 O   0  0  0  0  0  0  0  0  0  0  0  0
   -7.3064   18.5965   22.4118 O   0  0  0  0  0  0  0  0  0  0  0  0
   -5.0628   16.5249   24.6128 C   0  0  0  0  0  0  0  0  0  0  0  0
   -3.4643   22.3518   20.4121 C   0  0  0  0  0  0  0  0  0  0  0  0
   -1.5649   19.8260   22.1899 O   0  0  0  0  0  0  0  0  0  0  0  0
   -8.2514   14.9197   27.5042 C   0  0  0  0  0  0  0  0  0  0  0  0
   -5.6359   23.7304   21.5886 O   0  0  0  0  0  0  0  0  0  0  0  0
   -9.6178   15.2284   25.3267 O   0  0  0  0  0  1  0  0  0  0  0  0
   -5.9491   21.3333   21.4721 C   0  0  0  0  0  0  0  0  0  0  0  0
   -8.0330   17.9442   24.6774 C   0  0  0  0  0  0  0  0  0  0  0  0
   -5.2588   22.5771   22.0643 C   0  0  0  0  0  0  0  0  0  0  0  0
   -6.3220   16.3111   25.4641 C   0  0  0  0  0  0  0  0  0  0  0  0
   -9.8405   16.9455   27.1390 O   0  0  0  0  0  0  0  0  0  0  0  0
   -2.4662   21.1847   20.2391 C   0  0  0  0  0  0  0  0  0  0  0  0
   -4.6141   17.9966   24.7999 C   0  0  0  0  0  0  0  0  0  0  0  0
   -6.3728   19.8366   25.1388 C   0  0  0  0  0  0  0  0  0  0  0  0
   -4.6354   18.7781   23.3673 C   0  0  0  0  0  0  0  0  0  0  0  0
   -4.7876   19.2007   20.6505 O   0  0  0  0  0  0  0  0  0  0  0  0
   -4.0839   20.9853   24.5606 C   0  0  0  0  0  0  0  0  0  0  0  0
   -6.8883   18.1161   23.6470 C   0  0  0  0  0  0  0  0  0  0  0  0
   -3.7241   20.7569   22.1124 C   0  0  0  0  0  0  0  0  0  0  0  0
   -3.8948   20.0790   23.4437 C   0  0  0  0  0  0  0  0  0  0  0  0
   -2.8215   22.7943   22.8505 C   0  0  0  0  0  0  0  0  0  0  0  0
   -8.8499   16.0501   26.3725 P   0  0  0  0  0  4  0  0  0  0  0  0
   -2.4865   20.3481   21.4141 C   0  0  0  0  0  0  0  0  0  0  0  0
   -4.9066   20.3336   21.3138 C   0  0  0  0  0  0  0  0  0  0  0  0
   -3.8007   22.3089   21.8743 C   0  0  0  0  0  0  0  0  0  0  0  0
   -5.7607   18.8059   24.3189 C   0  0  0  0  0  0  0  0  0  0  0  0
   -5.5511   18.7957   25.6700 C   0  0  0  0  0  0  0  0  0  0  0  0
   -7.5833   17.1130   25.8386 C   0  0  0  0  0  0  0  0  0  0  0  0
  1 11  1  0
  2 16  1  0
  3 21  1  0
  4 13  1  0
  4 16  1  0
  5 15  1  0
  5 28  1  0
  6 26  1  0
  7 25  1  0
  8 12  1  0
  9 25  2  0
 10 12  1  0
 10 27  1  0
 11 21  1  0
 11 31  1  0
 12 28  1  0
 13 31  1  0
 14 25  1  0
 15 26  1  0
 16 29  1  0
 17 30  1  0
 18 23  1  0
 18 29  1  0
 19 27  1  0
 20 23  1  0
 21 29  1  0
 22 23  1  0
 22 26  1  0
 22 27  1  0
 22 28  1  0
 24 28  1  0
 25 31  1  0
 29 30  1  0
M  END
>  <ID>  (1) 
conformer_0

$$$$
