
     RDKit          3D

 22 24  0  0  0  0  0  0  0  0999 V2000
   -6.0089   19.4419   24.0096 C   0  0  0  0  0  0  0  0  0  0  0  0
   -4.6196   19.7955   23.7607 C   0  0  0  0  0  0  0  0  0  0  0  0
   -6.9403   20.5624   24.3654 C   0  0  0  0  0  0  0  0  0  0  0  0
   -7.2785   16.3693   26.1857 C   0  0  0  0  0  0  0  0  0  0  0  0
   -8.0841   15.4440   23.9279 C   0  0  0  0  0  0  0  0  0  0  0  0
   -6.5204   18.1804   24.4476 C   0  0  0  0  0  0  0  0  0  0  0  0
   -8.1602   17.6108   26.1712 C   0  0  0  0  0  0  0  0  0  0  0  0
   -2.5616   20.6694   22.0723 C   0  0  0  0  0  0  0  0  0  0  0  0
   -1.8660   20.6622   20.8898 F   0  0  0  0  0  0  0  0  0  0  0  0
   -4.1918   22.2237   20.9415 C   0  0  0  0  0  0  0  0  0  0  0  0
   -6.0838   16.8231   24.0753 C   0  0  0  0  0  0  0  0  0  0  0  0
   -2.3998   19.3521   22.7257 C   0  0  0  0  0  0  0  0  0  0  0  0
   -3.3405   17.7267   24.2704 C   0  0  0  0  0  0  0  0  0  0  0  0
   -7.9435   18.3439   24.8708 C   0  0  0  0  0  0  0  0  0  0  0  0
   -7.6432   15.5092   27.3204 C   0  0  0  0  0  0  0  0  0  0  0  0
   -4.7365   21.1231   23.0919 C   0  0  0  0  0  0  0  0  0  0  0  0
   -6.9599   15.8320   24.8534 C   0  0  0  0  0  0  0  0  0  0  0  0
   -4.0120   20.9788   21.7725 C   0  0  0  0  0  0  0  0  0  0  0  0
   -8.1754   19.8311   24.9921 C   0  0  0  0  0  0  0  0  0  0  0  0
   -6.0917   21.5072   22.6831 C   0  0  0  0  0  0  0  0  0  0  0  0
   -2.0806   21.6290   22.8958 F   0  0  0  0  0  0  0  0  0  0  0  0
   -3.6910   18.7851   23.1935 C   0  0  0  0  0  0  0  0  0  0  0  0
  1  2  1  0
  1  3  1  0
  1  6  1  0
  2 16  1  0
  2 22  1  0
  3 19  1  0
  4  7  1  0
  4 15  1  0
  4 17  1  0
  5 17  1  0
  6 11  1  0
  6 14  1  0
  7 14  1  0
  8  9  1  0
  8 12  1  0
  8 18  1  0
  8 21  1  0
 10 18  1  0
 11 17  1  0
 12 22  1  0
 13 22  1  0
 14 19  1  0
 16 18  1  0
 16 20  1  0
M  END
>  <ID>  (1) 
conformer_0

$$$$
