
     RDKit          3D

 23 27  0  0  0  0  0  0  0  0999 V2000
   -5.7410   21.2706   23.3285 C   0  0  0  0  0  0  0  0  0  0  0  0
   -2.4829   19.4227   22.2495 C   0  0  0  0  0  0  0  0  0  0  0  0
   -9.4404   17.5722   25.2222 C   0  0  0  0  0  0  0  0  0  0  0  0
   -4.7742   22.9725   20.3101 O   0  0  0  0  0  0  0  0  0  0  0  0
   -3.4729   21.2679   21.4496 C   0  0  0  0  0  0  0  0  0  0  0  0
   -4.5434   20.2977   23.5017 C   0  0  0  0  0  0  0  0  0  0  0  0
   -3.9569   19.9521   22.1355 C   0  0  0  0  0  0  0  0  0  0  0  0
   -8.3357   18.1408   24.3128 C   0  0  0  0  0  0  0  0  0  0  0  0
   -4.8803   19.1801   25.9974 C   0  0  0  0  0  0  0  0  0  0  0  0
   -6.1984   18.5858   23.9082 C   0  0  0  0  0  0  0  0  0  0  0  0
   -5.4602   22.4848   22.5371 C   0  0  0  0  0  0  0  0  0  0  0  0
   -3.5856   18.0400   24.0721 C   0  0  0  0  0  0  0  0  0  0  0  0
   -2.3352   18.7826   23.6516 C   0  0  0  0  0  0  0  0  0  0  0  0
   -6.8887   17.4467   24.7891 C   0  0  0  0  0  0  0  0  0  0  0  0
   -2.0154   20.9795   21.8185 C   0  0  0  0  0  0  0  0  0  0  0  0
   -4.7993   19.0197   24.3983 C   0  0  0  0  0  0  0  0  0  0  0  0
   -8.7556   16.2787   25.9048 C   0  0  0  0  0  0  0  0  0  0  0  0
   -7.4965   19.1486   23.3702 C   0  0  0  0  0  0  0  0  0  0  0  0
   -7.3432   16.8456   26.1736 C   0  0  0  0  0  0  0  0  0  0  0  0
   -8.8087   15.2962   24.9675 O   0  0  0  0  0  0  0  0  0  0  0  0
   -4.5042   22.3154   21.4041 C   0  0  0  0  0  0  0  0  0  0  0  0
   -5.7701   16.2643   24.4540 C   0  0  0  0  0  0  0  0  0  0  0  0
   -9.4773   15.9157   27.1579 C   0  0  0  0  0  0  0  0  0  0  0  0
  1  6  1  0
  1 11  1  0
  2  7  1  0
  2 13  1  0
  2 15  1  0
  3  8  1  0
  3 17  1  0
  4 21  1  0
  5  7  1  0
  5 15  1  0
  5 21  1  0
  6  7  1  0
  6 16  1  0
  8 14  1  0
  8 18  1  0
  9 16  1  0
 10 14  1  0
 10 16  1  0
 10 18  1  0
 11 21  1  0
 12 13  1  0
 12 16  1  0
 14 19  1  0
 14 22  1  0
 17 19  1  0
 17 20  1  0
 17 23  1  0
M  END
>  <ID>  (1) 
conformer_0

$$$$
