
     RDKit          3D

 27 30  0  0  0  0  0  0  0  0999 V2000
   -3.6848   18.5782   22.4194 C   0  0  0  0  0  0  0  0  0  0  0  0
   -2.8800   18.9380   23.5392 C   0  0  0  0  0  0  0  0  0  0  0  0
   -9.2833   18.1453   25.4298 C   0  0  0  0  0  0  0  0  0  0  0  0
   -4.8954   23.1207   20.2283 O   0  0  0  0  0  0  0  0  0  0  0  0
   -3.8221   21.0653   22.8252 C   0  0  0  0  0  0  0  0  0  0  0  0
   -4.7742   22.1928   22.4620 C   0  0  0  0  0  0  0  0  0  0  0  0
   -6.4713   15.3372   23.5100 O   0  0  0  0  0  0  0  0  0  0  0  0
   -1.6572   20.1945   21.8435 C   0  0  0  0  0  0  0  0  0  0  0  0
   -6.7098   21.0321   23.4374 C   0  0  0  0  0  0  0  0  0  0  0  0
   -4.1505   19.6649   23.1866 C   0  0  0  0  0  0  0  0  0  0  0  0
   -7.5127   15.8052   27.4379 O   0  0  0  0  0  0  0  0  0  0  0  0
   -5.8041   15.7811   24.6695 C   0  0  0  0  0  0  0  0  0  0  0  0
   -2.7994   22.3677   21.0856 C   0  0  0  0  0  0  0  0  0  0  0  0
   -6.6969   16.7782   25.4011 C   0  0  0  0  0  0  0  0  0  0  0  0
   -7.8618   16.1987   26.1098 C   0  0  0  0  0  0  0  0  0  0  0  0
   -7.9372   18.7795   25.2597 O   0  0  0  0  0  0  0  0  0  0  0  0
   -2.8695   21.0135   21.6823 C   0  0  0  0  0  0  0  0  0  0  0  0
   -9.2200   16.8401   26.1183 C   0  0  0  0  0  0  0  0  0  0  0  0
   -4.5840   17.8505   24.6642 C   0  0  0  0  0  0  0  0  0  0  0  0
   -5.6016   18.7565   23.9964 C   0  0  0  0  0  0  0  0  0  0  0  0
   -1.5968   19.6195   23.2508 C   0  0  0  0  0  0  0  0  0  0  0  0
   -5.8827   20.2099   24.5402 C   0  0  0  0  0  0  0  0  0  0  0  0
   -6.1465   21.6106   22.1536 C   0  0  0  0  0  0  0  0  0  0  0  0
   -4.1934   22.8883   21.2471 C   0  0  0  0  0  0  0  0  0  0  0  0
   -4.1922   18.1517   25.8935 O   0  0  0  0  0  0  0  0  0  0  0  0
   -4.4788   16.4352   24.1748 C   0  0  0  0  0  0  0  0  0  0  0  0
   -6.9514   17.9704   24.4883 C   0  0  0  0  0  0  0  0  0  0  0  0
  1  2  1  0
  1 10  1  0
  2 21  1  0
  3 16  1  0
  3 18  1  0
  4 24  2  0
  5  6  1  0
  5 10  1  0
  5 17  1  0
  6 23  1  0
  6 24  1  0
  7 12  1  0
  8 17  1  0
  8 21  1  0
  9 22  1  0
  9 23  1  0
 11 15  1  0
 12 14  1  0
 12 26  1  0
 13 17  1  0
 13 24  1  0
 14 15  1  0
 14 27  1  0
 15 18  1  0
 16 27  1  0
 19 20  1  0
 19 25  1  0
 19 26  1  0
 20 22  1  0
 20 27  1  0
M  END
>  <ID>  (1) 
conformer_0

$$$$
