
     RDKit          3D

 24 28  0  0  0  0  0  0  0  0999 V2000
   -8.3424   16.9969   24.9886 C   0  0  0  0  0  0  0  0  0  0  0  0
   -5.1325   16.0192   24.9140 C   0  0  0  0  0  0  0  0  0  0  0  0
   -7.2943   18.1312   23.0032 C   0  0  0  0  0  0  0  0  0  0  0  0
   -7.1049   17.3124   25.6673 C   0  0  0  0  0  0  0  0  0  0  0  0
   -3.1154   19.1704   23.7534 C   0  0  0  0  0  0  0  0  0  0  0  0
   -4.3164   22.3256   21.9342 C   0  0  0  0  0  0  0  0  0  0  0  0
   -4.8452   17.1517   23.9278 C   0  0  0  0  0  0  0  0  0  0  0  0
   -4.3622   20.1777   23.5510 C   0  0  0  0  0  0  0  0  0  0  0  0
   -6.6301   15.9975   25.2074 C   0  0  0  0  0  0  0  0  0  0  0  0
   -7.0713   14.9054   25.8114 O   0  0  0  0  0  0  0  0  0  0  0  0
   -9.6366   17.3620   25.6658 C   0  0  0  0  0  0  0  0  0  0  0  0
   -6.0488   18.1103   23.9022 C   0  0  0  0  0  0  0  0  0  0  0  0
   -4.3445   20.5644   20.1451 C   0  0  0  0  0  0  0  0  0  0  0  0
   -6.3132   18.6663   25.3555 C   0  0  0  0  0  0  0  0  0  0  0  0
   -8.4053   17.2215   23.4701 C   0  0  0  0  0  0  0  0  0  0  0  0
   -2.1497   21.3405   22.6872 C   0  0  0  0  0  0  0  0  0  0  0  0
   -3.6241   21.5811   23.1718 C   0  0  0  0  0  0  0  0  0  0  0  0
   -3.2406   22.6794   20.7822 C   0  0  0  0  0  0  0  0  0  0  0  0
   -2.0961   20.4833   21.3566 C   0  0  0  0  0  0  0  0  0  0  0  0
   -2.9069   21.2165   20.2293 C   0  0  0  0  0  0  0  0  0  0  0  0
   -5.0332   20.1164   24.9766 C   0  0  0  0  0  0  0  0  0  0  0  0
   -7.0872   19.7075   26.3200 C   0  0  0  0  0  0  0  0  0  0  0  0
   -5.2170   21.1395   21.2950 C   0  0  0  0  0  0  0  0  0  0  0  0
   -5.4982   20.1578   22.4050 C   0  0  0  0  0  0  0  0  0  0  0  0
  1  4  1  0
  1 11  1  0
  1 15  1  0
  2  7  1  0
  2  9  1  0
  3 12  1  0
  3 15  1  0
  4  9  1  0
  4 14  1  0
  5  8  1  0
  6 17  1  0
  6 18  1  0
  6 23  1  0
  7 12  1  0
  8 17  1  0
  8 21  1  0
  8 24  1  0
  9 10  1  0
 12 14  1  0
 13 20  1  0
 13 23  1  0
 14 21  1  0
 14 22  1  0
 16 17  1  0
 16 19  1  0
 18 20  1  0
 19 20  1  0
 23 24  1  0
M  END
>  <ID>  (1) 
conformer_0

$$$$
