
     RDKit          3D

 24 27  0  0  0  0  0  0  0  0999 V2000
   -4.2123   20.7846   21.6175 C   0  0  0  0  0  0  0  0  0  0  0  0
   -3.2850   19.3176   23.5371 C   0  0  0  0  0  0  0  0  0  0  0  0
   -4.9601   15.0691   25.7960 O   0  0  0  0  0  1  0  0  0  0  0  0
   -5.5676   15.6523   23.3677 O   0  0  0  0  0  1  0  0  0  0  0  0
   -5.2840   15.9830   24.7684 S   0  0  0  0  0  4  0  0  0  0  0  0
   -3.7340   18.3867   24.5999 C   0  0  0  0  0  0  0  0  0  0  0  0
   -9.1485   16.8961   26.1426 C   0  0  0  0  0  0  0  0  0  0  0  0
   -8.3477   18.4907   24.5700 C   0  0  0  0  0  0  0  0  0  0  0  0
   -5.6244   19.4282   22.8236 C   0  0  0  0  0  0  0  0  0  0  0  0
   -2.2109   22.2605   22.1891 C   0  0  0  0  0  0  0  0  0  0  0  0
   -5.0835   18.9270   25.1311 C   0  0  0  0  0  0  0  0  0  0  0  0
   -7.9416   16.1855   26.0990 C   0  0  0  0  0  0  0  0  0  0  0  0
   -1.8930   19.1169   23.1651 C   0  0  0  0  0  0  0  0  0  0  0  0
   -2.7544   21.5943   19.7219 C   0  0  0  0  0  0  0  0  0  0  0  0
  -10.1621   16.4905   27.0060 N   0  0  0  0  0  0  0  0  0  0  0  0
   -9.3760   17.9841   25.3275 C   0  0  0  0  0  0  0  0  0  0  0  0
   -3.0781   21.5756   21.1709 C   0  0  0  0  0  0  0  0  0  0  0  0
   -3.8419   16.9070   24.5982 N   0  0  0  0  0  0  0  0  0  0  0  0
   -6.0485   18.6657   23.9302 N   0  0  0  0  0  0  0  0  0  0  0  0
   -6.8880   16.7116   25.2339 C   0  0  0  0  0  0  0  0  0  0  0  0
   -6.3678   19.9552   21.8032 O   0  0  0  0  0  0  0  0  0  0  0  0
   -7.1242   17.9006   24.5468 C   0  0  0  0  0  0  0  0  0  0  0  0
   -4.3183   19.8949   22.6737 C   0  0  0  0  0  0  0  0  0  0  0  0
   -5.4604   20.8226   21.0224 C   0  0  0  0  0  0  0  0  0  0  0  0
  1 17  1  0
  1 23  1  0
  1 24  1  0
  2  6  1  0
  2 13  1  0
  2 23  1  0
  3  5  1  0
  4  5  1  0
  5 18  1  0
  5 20  1  0
  6 11  1  0
  6 18  1  0
  7 12  1  0
  7 15  1  0
  7 16  2  0
  8 16  1  0
  8 22  2  0
  9 19  1  0
  9 21  1  0
  9 23  2  0
 10 17  1  0
 11 19  1  0
 12 20  2  0
 14 17  1  0
 19 22  1  0
 20 22  1  0
 21 24  1  0
M  END
>  <ID>  (1) 
conformer_0

$$$$
