
     RDKit          3D

 25 28  0  0  0  0  0  0  0  0999 V2000
   -8.2585   15.4816   27.4254 O   0  0  0  0  0  0  0  0  0  0  0  0
   -1.6212   21.2534   23.0334 C   0  0  0  0  0  0  0  0  0  0  0  0
   -8.9559   15.9785   24.4799 C   0  0  0  0  0  0  0  0  0  0  0  0
   -4.3984   22.6354   22.1776 C   0  0  0  0  0  0  0  0  0  0  0  0
   -3.9909   18.2916   24.3504 C   0  0  0  0  0  0  0  0  0  0  0  0
   -2.4894   20.1686   23.3764 C   0  0  0  0  0  0  0  0  0  0  0  0
   -7.0000   20.2182   23.5757 O   0  0  0  0  0  0  0  0  0  0  0  0
   -6.0217   17.2337   25.3664 C   0  0  0  0  0  0  0  0  0  0  0  0
   -4.5350   17.5280   25.6074 C   0  0  0  0  0  0  0  0  0  0  0  0
   -1.6997   19.4162   24.2769 O   0  0  0  0  0  0  0  0  0  0  0  0
   -8.4324   18.2778   25.1738 C   0  0  0  0  0  0  0  0  0  0  0  0
   -3.4662   19.8458   21.0630 C   0  0  0  0  0  0  0  0  0  0  0  0
   -9.5095   16.0891   26.8701 C   0  0  0  0  0  0  0  0  0  0  0  0
   -4.6451   19.6480   24.4335 C   0  0  0  0  0  0  0  0  0  0  0  0
   -2.7596   19.1299   22.1876 C   0  0  0  0  0  0  0  0  0  0  0  0
   -4.8848   20.2328   21.4852 C   0  0  0  0  0  0  0  0  0  0  0  0
   -3.8542   20.6942   23.7343 C   0  0  0  0  0  0  0  0  0  0  0  0
   -7.6589   16.1098   23.6742 C   0  0  0  0  0  0  0  0  0  0  0  0
   -4.7400   21.2634   22.6062 C   0  0  0  0  0  0  0  0  0  0  0  0
   -3.6203   18.0610   22.8320 C   0  0  0  0  0  0  0  0  0  0  0  0
   -6.8869   18.4647   25.2530 C   0  0  0  0  0  0  0  0  0  0  0  0
   -2.7705   20.8738   20.5257 O   0  0  0  0  0  0  0  0  0  0  0  0
   -9.0935   16.9591   25.6836 C   0  0  0  0  0  0  0  0  0  0  0  0
   -6.1475   16.3968   24.0104 C   0  0  0  0  0  0  0  0  0  0  0  0
   -6.1470   19.5443   24.4547 C   0  0  0  0  0  0  0  0  0  0  0  0
  1 13  1  0
  2  6  1  0
  3 18  1  0
  3 23  1  0
  4 19  1  0
  5  9  1  0
  5 14  1  0
  5 20  1  0
  6 10  1  0
  6 15  1  0
  6 17  1  0
  7 25  1  0
  8  9  1  0
  8 21  1  0
  8 24  1  0
 11 21  1  0
 11 23  1  0
 12 15  1  0
 12 16  1  0
 12 22  1  0
 13 23  1  0
 14 17  1  0
 14 25  1  0
 15 20  1  0
 16 19  1  0
 17 19  1  0
 18 24  1  0
 21 25  1  0
M  END
>  <ID>  (1) 
conformer_0

$$$$
