
     RDKit          3D

 29 34  0  0  0  0  0  0  0  0999 V2000
   -7.7545   20.2094   25.2319 C   0  0  0  0  0  0  0  0  0  0  0  0
   -2.4513   21.2397   19.5003 C   0  0  0  0  0  0  0  0  0  0  0  0
   -3.6004   21.9722   19.5008 C   0  0  0  0  0  0  0  0  0  0  0  0
   -4.0105   21.3213   21.8311 C   0  0  0  0  0  0  0  0  0  0  0  0
   -9.1851   15.7150   26.7360 C   0  0  0  0  0  0  0  0  0  0  0  0
   -4.7398   20.9044   23.1227 C   0  0  0  0  0  0  0  0  0  0  0  0
   -5.9960   22.0175   23.1913 C   0  0  0  0  0  0  0  0  0  0  0  0
   -6.8769   20.9087   24.1110 C   0  0  0  0  0  0  0  0  0  0  0  0
   -2.4184   20.2609   23.1103 C   0  0  0  0  0  0  0  0  0  0  0  0
   -6.7142   21.9495   21.9772 O   0  0  0  0  0  0  0  0  0  0  0  0
   -2.7718   20.7620   21.8205 C   0  0  0  0  0  0  0  0  0  0  0  0
   -8.2936   16.7046   26.4494 C   0  0  0  0  0  0  0  0  0  0  0  0
   -4.3563   22.0689   20.6643 C   0  0  0  0  0  0  0  0  0  0  0  0
   -4.4743   17.4120   24.3084 C   0  0  0  0  0  0  0  0  0  0  0  0
   -8.1040   17.2893   25.1819 C   0  0  0  0  0  0  0  0  0  0  0  0
   -1.9881   20.6292   20.6647 C   0  0  0  0  0  0  0  0  0  0  0  0
   -3.7182   19.8723   23.7423 N   0  0  0  0  0  0  0  0  0  0  0  0
   -8.0252   18.7472   24.9582 C   0  0  0  0  0  0  0  0  0  0  0  0
   -3.5082   18.5369   24.1815 C   0  0  0  0  0  0  0  0  0  0  0  0
   -5.6543   18.9384   24.9927 C   0  0  0  0  0  0  0  0  0  0  0  0
   -8.8832   16.6327   24.1793 C   0  0  0  0  0  0  0  0  0  0  0  0
   -8.5883   17.0121   22.8004 C   0  0  0  0  0  0  0  0  0  0  0  0
   -2.3199   18.1117   24.4193 O   0  0  0  0  0  0  0  0  0  0  0  0
   -9.8332   15.6875   24.4335 C   0  0  0  0  0  0  0  0  0  0  0  0
   -6.7920   17.9315   24.8111 N   0  0  0  0  0  0  0  0  0  0  0  0
   -5.3050   19.0061   26.4508 C   0  0  0  0  0  0  0  0  0  0  0  0
  -10.0169   15.2144   25.7406 C   0  0  0  0  0  0  0  0  0  0  0  0
   -5.7548   16.7399   24.6389 C   0  0  0  0  0  0  0  0  0  0  0  0
   -5.6508   19.9179   23.9065 C   0  0  0  0  0  0  0  0  0  0  0  0
  1  8  1  0
  1 18  1  0
  2  3  2  0
  2 16  1  0
  3 13  1  0
  4  6  1  0
  4 11  2  0
  4 13  1  0
  5 12  2  0
  5 27  1  0
  6  7  1  0
  6 17  1  0
  6 29  1  0
  7  8  1  0
  7 10  1  0
  8 29  1  0
  9 11  1  0
  9 17  1  0
 11 16  1  0
 12 15  1  0
 14 19  1  0
 14 28  1  0
 15 18  1  0
 15 21  1  0
 17 19  1  0
 18 25  1  0
 19 23  2  0
 20 25  1  0
 20 26  1  0
 20 29  1  0
 21 22  1  0
 21 24  2  0
 24 27  1  0
 25 28  1  0
M  END
>  <ID>  (1) 
conformer_0

$$$$
