
     RDKit          3D

 22 24  0  0  0  0  0  0  0  0999 V2000
   -4.2077   22.4995   20.7440 C   0  0  0  0  0  0  0  0  0  0  0  0
   -2.8952   22.4804   21.4582 C   0  0  0  0  0  0  0  0  0  0  0  0
   -9.3939   17.1185   26.1351 C   0  0  0  0  0  0  0  0  0  0  0  0
   -3.3454   19.0405   23.1360 C   0  0  0  0  0  0  0  0  0  0  0  0
   -5.5482   19.3616   24.2321 C   0  0  0  0  0  0  0  0  0  0  0  0
   -1.7320   20.3946   21.1859 O   0  0  0  0  0  0  0  0  0  0  0  0
   -4.1011   17.2387   24.5923 C   0  0  0  0  0  0  0  0  0  0  0  0
   -2.5468   21.1245   21.9800 C   0  0  0  0  0  0  0  0  0  0  0  0
   -9.1293   15.3129   27.6077 O   0  0  0  0  0  0  0  0  0  0  0  0
   -3.6318   20.3364   22.5358 C   0  0  0  0  0  0  0  0  0  0  0  0
   -6.8733   16.5920   25.0914 C   0  0  0  0  0  0  0  0  0  0  0  0
   -4.9879   20.7897   22.4898 C   0  0  0  0  0  0  0  0  0  0  0  0
   -5.9994   20.1554   23.1744 O   0  0  0  0  0  0  0  0  0  0  0  0
   -7.7698   17.4954   24.4637 C   0  0  0  0  0  0  0  0  0  0  0  0
   -5.3632   16.3210   24.7510 C   0  0  0  0  0  0  0  0  0  0  0  0
   -8.9493   17.8184   25.0553 C   0  0  0  0  0  0  0  0  0  0  0  0
   -8.6072   16.1073   26.6415 C   0  0  0  0  0  0  0  0  0  0  0  0
   -7.6512   18.0277   23.1062 F   0  0  0  0  0  0  0  0  0  0  0  0
   -5.3372   21.9309   21.6170 S   0  0  0  0  0  0  0  0  0  0  0  0
   -5.7749   19.6900   25.4765 O   0  0  0  0  0  0  0  0  0  0  0  0
   -7.3682   15.8916   26.1446 N   0  0  0  0  0  0  0  0  0  0  0  0
   -4.4659   18.4683   23.8541 C   0  0  0  0  0  0  0  0  0  0  0  0
  1  2  1  0
  1 19  1  0
  2  8  1  0
  3 16  1  0
  3 17  1  0
  4 10  1  0
  4 22  1  0
  5 13  1  0
  5 20  2  0
  5 22  1  0
  6  8  1  0
  7 15  1  0
  7 22  1  0
  8 10  1  0
  9 17  2  0
 10 12  2  0
 11 14  1  0
 11 15  1  0
 11 21  2  0
 12 13  1  0
 12 19  1  0
 14 16  2  0
 14 18  1  0
 17 21  1  0
M  END
>  <ID>  (1) 
conformer_0

$$$$
