
     RDKit          3D

 23 26  0  0  0  0  0  0  0  0999 V2000
   -8.5913   15.4418   24.8539 O   0  0  0  0  0  0  0  0  0  0  0  0
   -4.9514   18.4052   24.9287 C   0  0  0  0  0  0  0  0  0  0  0  0
   -8.8029   17.6343   25.6041 C   0  0  0  0  0  0  0  0  0  0  0  0
   -7.3265   19.0103   24.0731 C   0  0  0  0  0  0  0  0  0  0  0  0
   -8.5074   16.0461   27.2748 O   0  0  0  0  0  0  0  0  0  0  0  0
   -6.1760   21.8122   23.2543 C   0  0  0  0  0  0  0  0  0  0  0  0
   -4.9170   18.5535   26.5155 C   0  0  0  0  0  0  0  0  0  0  0  0
   -3.4990   18.6305   24.3451 C   0  0  0  0  0  0  0  0  0  0  0  0
   -2.6255   20.2394   22.4946 C   0  0  0  0  0  0  0  0  0  0  0  0
   -7.4947   15.6812   23.9613 C   0  0  0  0  0  0  0  0  0  0  0  0
   -8.8414   16.1753   25.9747 C   0  0  0  0  0  0  0  0  0  0  0  0
   -3.4341   21.6703   20.5315 C   0  0  0  0  0  0  0  0  0  0  0  0
   -4.8867   21.6689   21.0770 C   0  0  0  0  0  0  0  0  0  0  0  0
   -2.7536   20.3365   20.9676 C   0  0  0  0  0  0  0  0  0  0  0  0
   -5.8969   19.4260   24.3053 C   0  0  0  0  0  0  0  0  0  0  0  0
   -2.6863   22.8242   21.2532 C   0  0  0  0  0  0  0  0  0  0  0  0
   -6.7216   16.6865   24.6194 C   0  0  0  0  0  0  0  0  0  0  0  0
   -2.5745   18.9843   23.2459 C   0  0  0  0  0  0  0  0  0  0  0  0
   -5.2779   16.9202   24.5797 C   0  0  0  0  0  0  0  0  0  0  0  0
   -4.9364   21.2366   22.5452 C   0  0  0  0  0  0  0  0  0  0  0  0
   -3.5009   21.2795   23.1540 C   0  0  0  0  0  0  0  0  0  0  0  0
   -2.8367   22.6394   22.7863 C   0  0  0  0  0  0  0  0  0  0  0  0
   -7.5019   17.8515   24.9889 C   0  0  0  0  0  0  0  0  0  0  0  0
  1 10  1  0
  1 11  1  0
  2  7  1  0
  2  8  1  0
  2 15  1  0
  2 19  1  0
  3 11  1  0
  3 23  1  0
  4 15  1  0
  4 23  1  0
  5 11  2  0
  6 20  1  0
  8 18  1  0
  9 14  1  0
  9 18  1  0
  9 21  1  0
 10 17  1  0
 12 13  1  0
 12 14  1  0
 12 16  1  0
 13 20  1  0
 16 22  1  0
 17 19  1  0
 17 23  1  0
 20 21  1  0
 21 22  1  0
M  END
>  <ID>  (1) 
conformer_0

$$$$
