
     RDKit          3D

 22 25  0  0  0  0  0  0  0  0999 V2000
   -3.1202   20.0106   22.6194 C   0  0  0  0  0  0  0  0  0  0  0  0
   -5.4921   20.4050   23.6013 C   0  0  0  0  0  0  0  0  0  0  0  0
   -3.6471   22.2797   20.9535 C   0  0  0  0  0  0  0  0  0  0  0  0
   -6.5330   20.6825   22.7002 O   0  0  0  0  0  0  0  0  0  0  0  0
   -1.9911   20.6260   21.7866 C   0  0  0  0  0  0  0  0  0  0  0  0
   -2.1950   22.1033   21.5567 C   0  0  0  0  0  0  0  0  0  0  0  0
   -7.7401   17.2001   25.0373 C   0  0  0  0  0  0  0  0  0  0  0  0
   -6.1789   19.2640   25.8293 C   0  0  0  0  0  0  0  0  0  0  0  0
   -4.9880   21.2515   24.7949 C   0  0  0  0  0  0  0  0  0  0  0  0
   -6.0320   16.0973   26.5097 O   0  0  0  0  0  0  0  0  0  0  0  0
   -8.4644   16.0424   25.9620 C   0  0  0  0  0  0  0  0  0  0  0  0
   -4.2040   22.3223   22.4432 C   0  0  0  0  0  0  0  0  0  0  0  0
   -4.2830   20.8677   22.7484 C   0  0  0  0  0  0  0  0  0  0  0  0
   -7.3403   18.3118   23.8627 C   0  0  0  0  0  0  0  0  0  0  0  0
   -9.0318   17.7246   24.5596 O   0  0  0  0  0  0  0  0  0  0  0  0
   -6.3545   16.6712   25.4044 C   0  0  0  0  0  0  0  0  0  0  0  0
   -5.2770   16.6330   24.3410 C   0  0  0  0  0  0  0  0  0  0  0  0
   -3.5286   18.6382   23.3732 C   0  0  0  0  0  0  0  0  0  0  0  0
   -5.9762   19.0030   24.3076 C   0  0  0  0  0  0  0  0  0  0  0  0
   -9.3949   16.6872   26.8448 N   0  0  0  0  0  0  0  0  0  0  0  0
   -2.6997   22.7115   22.8857 C   0  0  0  0  0  0  0  0  0  0  0  0
   -4.8779   18.0119   23.7998 C   0  0  0  0  0  0  0  0  0  0  0  0
  1  5  1  0
  1 13  1  0
  1 18  1  0
  2  4  1  0
  2  9  1  0
  2 13  1  0
  2 19  1  0
  3  6  1  0
  3 12  1  0
  5  6  1  0
  6 21  1  0
  7 11  1  0
  7 14  1  0
  7 15  1  0
  7 16  1  0
  8 19  1  0
 10 16  1  0
 11 20  1  0
 12 13  1  0
 12 21  1  0
 14 19  1  0
 16 17  1  0
 17 22  1  0
 18 22  1  0
 19 22  1  0
M  END
>  <ID>  (1) 
conformer_0

$$$$
