
     RDKit          3D

 14 15  0  0  0  0  0  0  0  0999 V2000
   -7.0681   18.3632   25.6620 C   0  0  0  0  0  0  0  0  0  0  0  0
   -7.4506   15.8952   24.5451 N   0  0  0  0  0  0  0  0  0  0  0  0
   -4.1228   19.1989   24.3323 C   0  0  0  0  0  0  0  0  0  0  0  0
   -2.6687   21.9576   21.5331 O   0  0  0  0  0  0  0  0  0  0  0  0
   -6.1820   16.4116   24.5993 C   0  0  0  0  0  0  0  0  0  0  0  0
   -3.9507   21.4798   23.5139 C   0  0  0  0  0  0  0  0  0  0  0  0
   -5.9862   17.6510   25.1779 C   0  0  0  0  0  0  0  0  0  0  0  0
   -4.6413   18.2023   25.2835 C   0  0  0  0  0  0  0  0  0  0  0  0
   -8.3539   17.8213   25.6111 C   0  0  0  0  0  0  0  0  0  0  0  0
   -4.4375   20.5526   24.4480 C   0  0  0  0  0  0  0  0  0  0  0  0
   -3.2790   18.7804   23.3047 C   0  0  0  0  0  0  0  0  0  0  0  0
   -3.1493   21.0340   22.4846 C   0  0  0  0  0  0  0  0  0  0  0  0
   -2.7886   19.7005   22.3854 C   0  0  0  0  0  0  0  0  0  0  0  0
   -8.5117   16.5902   25.0141 C   0  0  0  0  0  0  0  0  0  0  0  0
  1  7  2  0
  1  9  1  0
  2  5  2  0
  2 14  1  0
  3  8  1  0
  3 10  1  0
  3 11  2  0
  4 12  1  0
  5  7  1  0
  6 10  2  0
  6 12  1  0
  7  8  1  0
  9 14  2  0
 11 13  1  0
 12 13  2  0
M  END
>  <ID>  (1) 
conformer_0

$$$$
