
     RDKit          3D

 19 21  0  0  0  0  0  0  0  0999 V2000
   -3.7231   19.3355   21.3592 C   0  0  0  0  0  0  0  0  0  0  0  0
   -7.8127   17.2006   25.6685 C   0  0  0  0  0  0  0  0  0  0  0  0
   -1.9948   18.7733   23.7495 C   0  0  0  0  0  0  0  0  0  0  0  0
   -3.3944   18.4505   24.0051 C   0  0  0  0  0  0  0  0  0  0  0  0
   -5.0987   22.5549   21.4767 C   0  0  0  0  0  0  0  0  0  0  0  0
   -6.5601   15.6785   26.5922 C   0  0  0  0  0  0  0  0  0  0  0  0
   -5.6220   18.8580   24.5321 C   0  0  0  0  0  0  0  0  0  0  0  0
   -4.5043   19.4061   23.7542 C   0  0  0  0  0  0  0  0  0  0  0  0
   -3.9573   17.2607   24.4907 C   0  0  0  0  0  0  0  0  0  0  0  0
   -8.1177   16.0085   26.6441 C   0  0  0  0  0  0  0  0  0  0  0  0
   -5.3380   17.4458   24.8419 C   0  0  0  0  0  0  0  0  0  0  0  0
   -3.2768   21.4360   22.6850 C   0  0  0  0  0  0  0  0  0  0  0  0
   -3.5511   22.4042   21.4755 C   0  0  0  0  0  0  0  0  0  0  0  0
   -7.0075   19.2005   24.3056 C   0  0  0  0  0  0  0  0  0  0  0  0
   -7.2788   20.2174   23.4696 O   0  0  0  0  0  0  0  0  0  0  0  0
   -4.1657   20.2064   22.5304 C   0  0  0  0  0  0  0  0  0  0  0  0
   -8.0318   18.6614   25.2792 C   0  0  0  0  0  0  0  0  0  0  0  0
   -6.2843   16.9123   25.8280 C   0  0  0  0  0  0  0  0  0  0  0  0
   -3.0210   21.8708   20.1687 C   0  0  0  0  0  0  0  0  0  0  0  0
  1 16  1  0
  2 10  1  0
  2 17  1  0
  2 18  1  0
  3  4  1  0
  4  8  1  0
  4  9  1  0
  5 13  1  0
  6 10  1  0
  6 18  1  0
  7  8  1  0
  7 11  1  0
  7 14  1  0
  8 16  1  0
  9 11  1  0
 11 18  1  0
 12 13  1  0
 12 16  1  0
 13 19  1  0
 14 15  1  0
 14 17  1  0
M  END
>  <ID>  (1) 
conformer_0

$$$$
