
     RDKit          3D

 19 21  0  0  0  0  0  0  0  0999 V2000
   -4.7289   17.7852   25.0446 C   0  0  0  0  0  0  0  0  0  0  0  0
   -7.0258   18.7385   24.6930 C   0  0  0  0  0  0  0  0  0  0  0  0
   -9.1604   17.1807   26.5473 N   0  0  0  0  0  0  0  0  0  0  0  0
   -8.1567   17.8180   25.6183 C   0  0  0  0  0  0  0  0  0  0  0  0
   -6.4535   19.6465   23.5229 C   0  0  0  0  0  0  0  0  0  0  0  0
   -4.6785   20.6625   21.9185 C   0  0  0  0  0  0  0  0  0  0  0  0
   -9.0520   15.8548   27.0149 C   0  0  0  0  0  0  0  0  0  0  0  0
   -2.3191   20.0282   22.9142 C   0  0  0  0  0  0  0  0  0  0  0  0
   -4.8119   19.5898   23.2392 C   0  0  0  0  0  0  0  0  0  0  0  0
   -3.9489   22.6886   20.4602 C   0  0  0  0  0  0  0  0  0  0  0  0
   -4.4901   19.3274   24.8172 O   0  0  0  0  0  0  0  0  0  0  0  0
   -7.0595   16.6957   25.5453 C   0  0  0  0  0  0  0  0  0  0  0  0
   -3.3708   18.8148   22.9166 C   0  0  0  0  0  0  0  0  0  0  0  0
   -5.9548   20.6929   21.2637 O   0  0  0  0  0  0  0  0  0  0  0  0
   -9.3267   14.9091   26.2791 O   0  0  0  0  0  0  0  0  0  0  0  0
   -2.2355   20.5684   21.4258 C   0  0  0  0  0  0  0  0  0  0  0  0
   -3.6252   20.1136   20.8187 C   0  0  0  0  0  0  0  0  0  0  0  0
   -4.2236   22.2122   21.9234 C   0  0  0  0  0  0  0  0  0  0  0  0
   -6.1485   17.4214   24.5763 C   0  0  0  0  0  0  0  0  0  0  0  0
  1 11  1  0
  1 19  1  0
  2  4  1  0
  2  5  1  0
  2 19  1  0
  3  4  1  0
  3  7  1  0
  4 12  1  0
  5  9  1  0
  6  9  1  0
  6 14  1  0
  6 17  1  0
  6 18  1  0
  7 15  2  0
  8 13  1  0
  8 16  1  0
  9 11  1  0
  9 13  1  0
 10 18  1  0
 12 19  1  0
 16 17  1  0
M  END
>  <ID>  (1) 
conformer_0

$$$$
