
     RDKit          3D

 29 33  0  0  0  0  0  0  0  0999 V2000
  -10.1235   16.1280   26.1130 N   0  0  0  0  0  0  0  0  0  0  0  0
   -9.0160   15.2449   27.9278 O   0  0  0  0  0  0  0  0  0  0  0  0
   -5.7572   16.3475   23.9015 O   0  0  0  0  0  0  0  0  0  0  0  0
   -5.6620   20.7703   23.4448 C   0  0  0  0  0  0  0  0  0  0  0  0
  -10.0974   16.8257   24.9548 C   0  0  0  0  0  0  0  0  0  0  0  0
   -7.8032   16.3638   26.2998 N   0  0  0  0  0  0  0  0  0  0  0  0
   -5.4640   21.7071   22.1673 C   0  0  0  0  0  0  0  0  0  0  0  0
   -5.0099   19.6133   25.6598 C   0  0  0  0  0  0  0  0  0  0  0  0
   -7.3369   19.7047   24.9328 C   0  0  0  0  0  0  0  0  0  0  0  0
   -8.9450   17.3104   24.4591 C   0  0  0  0  0  0  0  0  0  0  0  0
   -2.4686   20.9715   19.7855 C   0  0  0  0  0  0  0  0  0  0  0  0
   -6.0985   20.6138   24.9937 C   0  0  0  0  0  0  0  0  0  0  0  0
   -2.7424   19.0146   22.3496 C   0  0  0  0  0  0  0  0  0  0  0  0
   -4.7210   17.8692   25.4411 C   0  0  0  0  0  0  0  0  0  0  0  0
   -4.2051   22.8396   19.7373 C   0  0  0  0  0  0  0  0  0  0  0  0
   -6.9093   18.3108   24.6554 O   0  0  0  0  0  0  0  0  0  0  0  0
   -3.7055   21.5017   24.6307 O   0  0  0  0  0  0  0  0  0  0  0  0
   -8.9889   15.9062   26.7813 C   0  0  0  0  0  0  0  0  0  0  0  0
   -4.3100   20.9507   21.4281 C   0  0  0  0  0  0  0  0  0  0  0  0
   -4.1384   20.4686   23.7683 C   0  0  0  0  0  0  0  0  0  0  0  0
   -7.6851   17.2161   25.1543 C   0  0  0  0  0  0  0  0  0  0  0  0
   -6.0489   17.3245   24.7875 C   0  0  0  0  0  0  0  0  0  0  0  0
   -4.2750   19.0444   24.4385 C   0  0  0  0  0  0  0  0  0  0  0  0
   -3.3125   20.4591   22.5031 C   0  0  0  0  0  0  0  0  0  0  0  0
   -2.5264   22.6112   21.6225 C   0  0  0  0  0  0  0  0  0  0  0  0
   -2.2196   21.4295   22.5577 O   0  0  0  0  0  0  0  0  0  0  0  0
   -4.9828   19.7815   20.6912 C   0  0  0  0  0  0  0  0  0  0  0  0
   -3.3782   21.8842   20.5756 C   0  0  0  0  0  0  0  0  0  0  0  0
   -3.6250   18.1342   23.2710 C   0  0  0  0  0  0  0  0  0  0  0  0
  1  5  1  0
  1 18  1  0
  2 18  2  0
  3 22  2  0
  4  7  1  0
  4 12  1  0
  4 20  1  0
  5 10  2  0
  6 18  1  0
  6 21  1  0
  7 19  1  0
  8 12  1  0
  8 23  1  0
  9 12  1  0
 10 21  1  0
 11 28  1  0
 13 24  1  0
 13 29  1  0
 14 22  1  0
 14 23  1  0
 15 28  1  0
 16 21  1  0
 16 22  1  0
 17 20  1  0
 19 24  1  0
 19 27  1  0
 19 28  1  0
 20 23  1  0
 20 24  1  0
 23 29  1  0
 24 26  1  0
 25 26  1  0
 25 28  1  0
M  END
>  <ID>  (1) 
conformer_0

$$$$
