
     RDKit          3D

 25 26  0  0  0  0  0  0  0  0999 V2000
   -9.9390   16.5617   26.3632 C   0  0  0  0  0  0  0  0  0  0  0  0
   -7.2803   19.7214   26.3587 O   0  0  0  0  0  0  0  0  0  0  0  0
   -4.5577   16.5890   24.9588 Cl  0  0  0  0  0  0  0  0  0  0  0  0
   -2.7916   17.9557   24.0273 C   0  0  0  0  0  0  0  0  0  0  0  0
   -2.2156   22.6007   22.0231 C   0  0  0  0  0  0  0  0  0  0  0  0
   -7.4215   17.4221   26.6922 N   0  0  0  0  0  0  0  0  0  0  0  0
   -4.8617   21.9719   22.5997 C   0  0  0  0  0  0  0  0  0  0  0  0
  -10.6830   15.8405   24.0924 C   0  0  0  0  0  0  0  0  0  0  0  0
   -4.1319   17.7730   24.2754 C   0  0  0  0  0  0  0  0  0  0  0  0
   -4.4910   20.6408   22.0992 C   0  0  0  0  0  0  0  0  0  0  0  0
   -6.3417   19.0627   23.7517 C   0  0  0  0  0  0  0  0  0  0  0  0
   -8.9315   15.4486   27.2918 S   0  0  0  0  0  0  0  0  0  0  0  0
   -4.0201   19.5894   22.9869 C   0  0  0  0  0  0  0  0  0  0  0  0
   -2.7297   19.0682   23.2206 C   0  0  0  0  0  0  0  0  0  0  0  0
   -9.4943   16.4285   24.9185 C   0  0  0  0  0  0  0  0  0  0  0  0
   -7.4628   15.9570   26.6195 C   0  0  0  0  0  0  0  0  0  0  0  0
   -4.8733   18.7998   23.6882 C   0  0  0  0  0  0  0  0  0  0  0  0
   -4.4343   20.4018   20.6775 C   0  0  0  0  0  0  0  0  0  0  0  0
   -8.5917   17.4182   24.2116 C   0  0  0  0  0  0  0  0  0  0  0  0
   -7.2879   18.2508   24.4438 N   0  0  0  0  0  0  0  0  0  0  0  0
   -2.0396   21.2683   21.3025 C   0  0  0  0  0  0  0  0  0  0  0  0
   -8.5369   17.0711   22.5922 C   0  0  0  0  0  0  0  0  0  0  0  0
   -2.9535   20.6757   20.2061 C   0  0  0  0  0  0  0  0  0  0  0  0
   -7.2904   18.5153   25.8697 C   0  0  0  0  0  0  0  0  0  0  0  0
   -6.9002   20.1275   23.3291 O   0  0  0  0  0  0  0  0  0  0  0  0
  1 12  1  0
  1 15  1  0
  2 24  2  0
  3  9  1  0
  4  9  1  0
  4 14  1  0
  5 21  1  0
  6 16  1  0
  6 24  1  0
  7 10  1  0
  8 15  1  0
  9 17  1  0
 10 13  1  0
 10 18  1  0
 11 17  1  0
 11 20  1  0
 11 25  2  0
 12 16  1  0
 13 14  1  0
 13 17  2  0
 15 19  1  0
 18 23  1  0
 19 20  1  0
 19 22  1  0
 20 24  1  0
 21 23  1  0
M  END
>  <ID>  (1) 
conformer_0

$$$$
