
     RDKit          3D

 31 34  0  0  0  0  0  0  0  0999 V2000
   -3.7903   17.9646   24.9348 C   0  0  0  0  0  0  0  0  0  0  0  0
   -6.1471   22.2597   21.5962 C   0  0  0  0  0  0  0  0  0  0  0  0
   -7.8933   18.4654   24.5910 C   0  0  0  0  0  0  0  0  0  0  0  0
   -3.4404   20.7435   22.7243 C   0  0  0  0  0  0  0  0  0  0  0  0
   -3.3284   18.3708   22.3061 C   0  0  0  0  0  0  0  0  0  0  0  0
   -4.0704   20.8966   21.4202 C   0  0  0  0  0  0  0  0  0  0  0  0
   -5.5426   21.0858   20.9993 C   0  0  0  0  0  0  0  0  0  0  0  0
   -4.0166   22.3663   19.5681 C   0  0  0  0  0  0  0  0  0  0  0  0
   -6.4757   19.4371   22.6219 C   0  0  0  0  0  0  0  0  0  0  0  0
   -3.9109   19.9692   20.1207 O   0  0  0  0  0  0  0  0  0  0  0  0
   -8.3417   16.4507   26.0604 C   0  0  0  0  0  0  0  0  0  0  0  0
   -6.3735   18.1419   24.7779 C   0  0  0  0  0  0  0  0  0  0  0  0
   -2.3525   19.6887   22.5677 C   0  0  0  0  0  0  0  0  0  0  0  0
   -1.7929   22.3053   22.7199 C   0  0  0  0  0  0  0  0  0  0  0  0
   -4.1912   18.4269   23.5093 C   0  0  0  0  0  0  0  0  0  0  0  0
   -1.3627   17.9084   23.8726 C   0  0  0  0  0  0  0  0  0  0  0  0
   -1.6676   19.3885   23.9285 C   0  0  0  0  0  0  0  0  0  0  0  0
   -6.2947   19.7532   21.2084 C   0  0  0  0  0  0  0  0  0  0  0  0
   -5.2394   20.4874   24.6678 C   0  0  0  0  0  0  0  0  0  0  0  0
   -8.9116   17.4171   25.0532 C   0  0  0  0  0  0  0  0  0  0  0  0
   -4.9817   21.0376   19.5464 C   0  0  0  0  0  0  0  0  0  0  0  0
   -3.4213   22.2094   20.9121 C   0  0  0  0  0  0  0  0  0  0  0  0
   -2.0060   22.4129   21.2403 C   0  0  0  0  0  0  0  0  0  0  0  0
   -5.3812   19.3584   23.6582 C   0  0  0  0  0  0  0  0  0  0  0  0
   -2.9709   21.8742   23.5077 C   0  0  0  0  0  0  0  0  0  0  0  0
   -9.1575   14.5052   27.0675 O   0  0  0  0  0  0  0  0  0  0  0  0
   -9.3029   15.6999   27.0186 C   0  0  0  0  0  0  0  0  0  0  0  0
  -10.0959   16.4009   27.6419 O   0  0  0  0  0  0  0  0  0  0  0  0
   -7.1448   16.6284   26.7418 N   0  0  0  0  0  0  0  0  0  0  0  0
   -1.4144   19.7568   21.5682 O   0  0  0  0  0  0  0  0  0  0  0  0
   -5.1381   17.8204   25.6704 C   0  0  0  0  0  0  0  0  0  0  0  0
  1 15  1  0
  1 31  1  0
  2  7  1  0
  3 12  1  0
  3 20  1  0
  4  6  1  0
  4 13  1  0
  4 25  1  0
  5 13  1  0
  5 15  1  0
  6  7  1  0
  6 10  1  0
  6 22  1  0
  7 18  1  0
  7 21  1  0
  8 21  1  0
  8 22  1  0
  9 18  1  0
  9 24  1  0
 10 21  1  0
 11 20  1  0
 11 27  1  0
 11 29  1  0
 12 31  1  0
 13 17  1  0
 13 30  1  0
 14 23  1  0
 14 25  1  0
 15 24  1  0
 16 17  1  0
 19 24  1  0
 22 23  1  0
 26 27  2  0
 27 28  1  0
M  END
>  <ID>  (1) 
conformer_0

$$$$
