
     RDKit          3D

 42 47  0  0  0  0  0  0  0  0999 V2000
   -7.3003   16.6877   26.7560 O   0  0  0  0  0  0  0  0  0  0  0  0
   -5.8007   18.0898   25.5962 C   0  0  0  0  0  0  0  0  0  0  0  0
   -1.7629   19.4359   23.0266 C   0  0  0  0  0  0  0  0  0  0  0  0
   -5.1615   14.8322   24.8304 O   0  0  0  0  0  0  0  0  0  0  0  0
  -11.2209   15.7027   24.6542 O   0  0  0  0  0  0  0  0  0  0  0  0
  -10.1636   16.1564   25.8027 S   0  0  0  0  0  4  0  0  0  0  0  0
   -7.9601   19.5326   24.5494 C   0  0  0  0  0  0  0  0  0  0  0  0
   -4.7165   15.9287   25.1433 C   0  0  0  0  0  0  0  0  0  0  0  0
   -8.2780   18.1798   25.0968 C   0  0  0  0  0  0  0  0  0  0  0  0
   -9.5104   14.9336   26.2297 O   0  0  0  0  0  0  0  0  0  0  0  0
   -5.3934   21.0507   23.9136 C   0  0  0  0  0  0  0  0  0  0  0  0
   -6.7329   21.4221   21.9923 C   0  0  0  0  0  0  0  0  0  0  0  0
   -5.0047   17.2906   24.6961 C   0  0  0  0  0  0  0  0  0  0  0  0
   -8.8671   15.7432   22.8124 C   0  0  0  0  0  0  0  0  0  0  0  0
   -7.1243   17.6649   25.8390 C   0  0  0  0  0  0  0  0  0  0  0  0
   -4.5813   21.6637   22.8316 C   0  0  0  0  0  0  0  0  0  0  0  0
   -3.1793   23.5616   21.2302 C   0  0  0  0  0  0  0  0  0  0  0  0
  -10.3409   15.5171   23.3736 C   0  0  0  0  0  0  0  0  0  0  0  0
   -1.5574   18.2722   23.7314 C   0  0  0  0  0  0  0  0  0  0  0  0
   -0.7200   19.9434   22.4360 F   0  0  0  0  0  0  0  0  0  0  0  0
   -7.4762   21.4551   23.2124 O   0  0  0  0  0  0  0  0  0  0  0  0
   -2.6217   21.0997   18.9200 O   0  0  0  0  0  0  0  0  0  0  0  0
   -3.0753   19.9654   22.9267 C   0  0  0  0  0  0  0  0  0  0  0  0
   -3.1778   21.3833   22.4536 C   0  0  0  0  0  0  0  0  0  0  0  0
   -2.2252   22.1321   23.1477 O   0  0  0  0  0  0  0  0  0  0  0  0
   -3.9364   18.0285   24.1023 C   0  0  0  0  0  0  0  0  0  0  0  0
   -4.0761   19.1503   23.3432 C   0  0  0  0  0  0  0  0  0  0  0  0
   -9.4894   16.8267   23.3950 C   0  0  0  0  0  0  0  0  0  0  0  0
   -5.3548   22.2626   21.7772 C   0  0  0  0  0  0  0  0  0  0  0  0
   -2.6147   17.5859   24.2820 C   0  0  0  0  0  0  0  0  0  0  0  0
   -5.3105   22.0324   20.3401 C   0  0  0  0  0  0  0  0  0  0  0  0
   -6.7538   20.2692   21.3947 O   0  0  0  0  0  0  0  0  0  0  0  0
   -4.5241   23.7738   21.7536 C   0  0  0  0  0  0  0  0  0  0  0  0
   -3.0845   21.8348   19.7147 C   0  0  0  0  0  0  0  0  0  0  0  0
   -5.1560   18.9291   26.5002 O   0  0  0  0  0  0  0  0  0  0  0  0
   -6.7996   20.4518   24.1754 C   0  0  0  0  0  0  0  0  0  0  0  0
   -4.8847   21.4635   25.1607 O   0  0  0  0  0  0  0  0  0  0  0  0
   -4.4023   22.5602   19.4098 C   0  0  0  0  0  0  0  0  0  0  0  0
   -9.2679   17.2348   24.7474 C   0  0  0  0  0  0  0  0  0  0  0  0
   -2.8454   21.9083   21.1256 C   0  0  0  0  0  0  0  0  0  0  0  0
   -7.6557   15.2566   23.2141 O   0  0  0  0  0  0  0  0  0  0  0  0
  -10.6847   16.8798   26.8444 O   0  0  0  0  0  0  0  0  0  0  0  0
  1 15  1  0
  2 13  1  0
  2 15  1  0
  2 35  1  0
  3 19  2  0
  3 20  1  0
  3 23  1  0
  4  8  2  0
  5  6  1  0
  5 18  1  0
  6 10  1  0
  6 39  1  0
  6 42  1  0
  7  9  1  0
  7 36  1  0
  8 13  1  0
  9 15  1  0
  9 39  1  0
 11 16  1  0
 11 36  1  0
 11 37  1  0
 12 21  1  0
 12 29  1  0
 12 32  2  0
 13 26  1  0
 14 28  1  0
 14 41  1  0
 16 24  1  0
 16 29  1  0
 17 33  1  0
 17 40  1  0
 18 28  1  0
 19 30  1  0
 21 36  1  0
 22 34  2  0
 23 24  1  0
 23 27  1  0
 24 25  1  0
 24 40  1  0
 26 27  2  0
 26 30  1  0
 28 39  1  0
 29 31  1  0
 29 33  1  0
 31 38  1  0
 34 38  1  0
 34 40  1  0
M  END
>  <ID>  (1) 
conformer_0

$$$$
