
     RDKit          3D

 33 38  0  0  0  0  0  0  0  0999 V2000
   -3.9330   21.8790   18.6138 C   0  0  0  0  0  0  0  0  0  0  0  0
   -2.5582   17.7149   23.9331 C   0  0  0  0  0  0  0  0  0  0  0  0
   -3.8593   17.5423   24.3972 C   0  0  0  0  0  0  0  0  0  0  0  0
   -1.2447   18.9628   22.4574 O   0  0  0  0  0  0  0  0  0  0  0  0
   -6.4122   16.6869   25.4190 C   0  0  0  0  0  0  0  0  0  0  0  0
   -4.0902   22.9505   23.2089 O   0  0  0  0  0  0  0  0  0  0  0  0
   -4.3588   19.7913   23.8553 N   0  0  0  0  0  0  0  0  0  0  0  0
   -3.2302   22.2657   19.7676 C   0  0  0  0  0  0  0  0  0  0  0  0
   -1.3507   21.6349   22.3874 O   0  0  0  0  0  0  0  0  0  0  0  0
   -4.1195   16.2614   24.7783 N   0  0  0  0  0  0  0  0  0  0  0  0
   -5.2816   15.8181   25.3518 C   0  0  0  0  0  0  0  0  0  0  0  0
   -7.6364   15.3379   27.0048 O   0  0  0  0  0  0  0  0  0  0  0  0
   -3.6784   21.9922   21.0716 C   0  0  0  0  0  0  0  0  0  0  0  0
   -9.7139   16.9280   27.0321 O   0  0  0  0  0  0  0  0  0  0  0  0
   -5.7411   20.5294   19.6021 C   0  0  0  0  0  0  0  0  0  0  0  0
   -7.0910   19.3005   23.1489 C   0  0  0  0  0  0  0  0  0  0  0  0
   -5.7199   20.9186   22.1559 C   0  0  0  0  0  0  0  0  0  0  0  0
   -4.9463   18.5177   24.1655 C   0  0  0  0  0  0  0  0  0  0  0  0
   -7.2718   18.9219   24.6213 C   0  0  0  0  0  0  0  0  0  0  0  0
   -4.5890   21.3920   21.5299 C   0  0  0  0  0  0  0  0  0  0  0  0
   -8.7127   17.3212   26.1928 C   0  0  0  0  0  0  0  0  0  0  0  0
   -5.5284   20.8174   20.9324 C   0  0  0  0  0  0  0  0  0  0  0  0
   -4.9777   21.0367   18.5646 C   0  0  0  0  0  0  0  0  0  0  0  0
   -6.9562   20.1242   25.3988 O   0  0  0  0  0  0  0  0  0  0  0  0
   -8.6191   18.4265   25.1317 C   0  0  0  0  0  0  0  0  0  0  0  0
   -6.6234   21.7985   22.7123 O   0  0  0  0  0  0  0  0  0  0  0  0
   -2.1918   18.8864   23.2518 C   0  0  0  0  0  0  0  0  0  0  0  0
   -3.6294   21.9657   22.3515 C   0  0  0  0  0  0  0  0  0  0  0  0
   -2.4717   21.2808   23.0430 C   0  0  0  0  0  0  0  0  0  0  0  0
   -6.1962   17.9570   24.7617 C   0  0  0  0  0  0  0  0  0  0  0  0
   -5.5663   19.6798   23.1263 C   0  0  0  0  0  0  0  0  0  0  0  0
   -7.6141   16.3286   26.1304 C   0  0  0  0  0  0  0  0  0  0  0  0
   -2.9130   20.0775   23.7675 C   0  0  0  0  0  0  0  0  0  0  0  0
  1  8  1  0
  1 23  2  0
  2  3  2  0
  2 27  1  0
  3 10  1  0
  3 18  1  0
  4 27  2  0
  5 11  1  0
  5 30  2  0
  5 32  1  0
  6 28  1  0
  7 18  1  0
  7 31  1  0
  7 33  1  0
  8 13  1  0
  9 29  1  0
 10 11  2  0
 12 32  1  0
 13 20  2  0
 13 28  1  0
 14 21  1  0
 15 22  2  0
 15 23  1  0
 16 19  1  0
 16 31  1  0
 17 22  1  0
 17 26  1  0
 17 31  1  0
 18 30  1  0
 19 24  1  0
 19 25  1  0
 19 30  1  0
 20 22  1  0
 21 25  1  0
 21 32  1  0
 27 33  1  0
 28 29  1  0
 29 33  1  0
M  END
>  <ID>  (1) 
conformer_0

$$$$
