
     RDKit          3D

 33 34  0  0  0  0  0  0  0  0999 V2000
   -7.7519   19.7000   26.3268 C   0  0  0  0  0  0  0  0  0  0  0  0
   -2.2044   21.5236   20.5778 C   0  0  0  0  0  0  0  0  0  0  0  0
   -4.8375   21.0952   23.1859 C   0  0  0  0  0  0  0  0  0  0  0  0
   -7.8115   18.6591   24.1134 C   0  0  0  0  0  0  0  0  0  0  0  0
   -8.1652   18.8804   25.2862 C   0  0  0  0  0  0  0  0  0  0  0  0
   -7.4850   16.0377   24.7362 C   0  0  0  0  0  0  0  0  0  0  0  0
   -3.8987   20.7867   24.3030 C   0  0  0  0  0  0  0  0  0  0  0  0
   -2.7891   22.8190   22.5796 C   0  0  0  0  0  0  0  0  0  0  0  0
   -6.3329   15.5073   25.5232 C   0  0  0  0  0  0  0  0  0  0  0  0
   -9.1508   16.7360   26.5795 O   0  0  0  0  0  0  0  0  0  0  0  0
   -6.7897   20.7312   25.8602 C   0  0  0  0  0  0  0  0  0  0  0  0
   -6.2103   21.0217   23.4907 C   0  0  0  0  0  0  0  0  0  0  0  0
   -9.6386   15.1988   25.2039 O   0  0  0  0  0  0  0  0  0  0  0  0
   -4.0089   15.1343   25.2174 O   0  0  0  0  0  0  0  0  0  0  0  0
   -3.1469   19.6018   23.6960 C   0  0  0  0  0  0  0  0  0  0  0  0
   -6.4553   15.7849   26.9135 O   0  0  0  0  0  0  0  0  0  0  0  0
   -4.3334   21.0378   21.7723 C   0  0  0  0  0  0  0  0  0  0  0  0
   -7.5428   17.7741   23.1003 C   0  0  0  0  0  0  0  0  0  0  0  0
   -4.3273   17.3261   24.2541 C   0  0  0  0  0  0  0  0  0  0  0  0
   -6.5054   20.8600   24.6714 C   0  0  0  0  0  0  0  0  0  0  0  0
   -1.2970   19.6523   22.2330 O   0  0  0  0  0  0  0  0  0  0  0  0
   -8.8342   16.0772   25.5633 C   0  0  0  0  0  0  0  0  0  0  0  0
   -3.2625   21.6020   19.4966 C   0  0  0  0  0  0  0  0  0  0  0  0
   -5.0269   16.1016   24.9699 C   0  0  0  0  0  0  0  0  0  0  0  0
   -2.1806   20.3750   22.7801 C   0  0  0  0  0  0  0  0  0  0  0  0
   -5.3916   21.7823   21.1380 O   0  0  0  0  0  0  0  0  0  0  0  0
   -7.8878   17.9351   21.9301 O   0  0  0  0  0  0  0  0  0  0  0  0
   -4.2151   18.5363   23.3016 C   0  0  0  0  0  0  0  0  0  0  0  0
   -3.8830   22.8804   19.5082 O   0  0  0  0  0  0  0  0  0  0  0  0
   -4.2625   19.7808   21.0043 C   0  0  0  0  0  0  0  0  0  0  0  0
   -2.8028   21.4678   21.9501 C   0  0  0  0  0  0  0  0  0  0  0  0
   -2.9955   17.3535   24.8031 O   0  0  0  0  0  0  0  0  0  0  0  0
   -6.9814   16.5644   23.4552 O   0  0  0  0  0  0  0  0  0  0  0  0
  1  5  1  0
  1 11  1  0
  2 23  1  0
  2 31  1  0
  3  7  1  0
  3 12  1  0
  3 17  1  0
  4  5  1  0
  4 18  1  0
  6  9  1  0
  6 22  1  0
  6 33  1  0
  7 15  1  0
  8 31  1  0
  9 16  1  0
  9 24  1  0
 10 22  2  0
 11 20  2  0
 12 20  2  0
 13 22  1  0
 14 24  1  0
 15 25  1  0
 15 28  1  0
 17 26  1  0
 17 30  1  0
 17 31  1  0
 18 27  2  0
 18 33  1  0
 19 24  1  0
 19 28  1  0
 19 32  1  0
 21 25  2  0
 23 29  1  0
 25 31  1  0
M  END
>  <ID>  (1) 
conformer_0

$$$$
