
     RDKit          3D

 24 28  0  0  0  0  0  0  0  0999 V2000
   -5.7405   17.8319   25.2821 C   0  0  0  0  0  0  0  0  0  0  0  0
   -4.4667   17.1160   24.6184 C   0  0  0  0  0  0  0  0  0  0  0  0
   -6.2327   18.3641   22.8045 C   0  0  0  0  0  0  0  0  0  0  0  0
   -7.5705   16.2585   25.8328 C   0  0  0  0  0  0  0  0  0  0  0  0
   -2.2176   20.3343   21.6294 C   0  0  0  0  0  0  0  0  0  0  0  0
   -9.8539   16.5450   25.2003 C   0  0  0  0  0  0  0  0  0  0  0  0
   -5.7240   21.3967   22.7149 C   0  0  0  0  0  0  0  0  0  0  0  0
   -6.1056   18.9821   24.2630 C   0  0  0  0  0  0  0  0  0  0  0  0
   -3.3464   21.2294   22.1560 C   0  0  0  0  0  0  0  0  0  0  0  0
   -8.5467   18.6074   24.9553 C   0  0  0  0  0  0  0  0  0  0  0  0
   -4.4220   20.3997   23.0213 C   0  0  0  0  0  0  0  0  0  0  0  0
   -5.0665   20.1410   24.5151 C   0  0  0  0  0  0  0  0  0  0  0  0
   -4.1121   21.9155   20.9702 C   0  0  0  0  0  0  0  0  0  0  0  0
   -9.7917   16.2208   26.7029 C   0  0  0  0  0  0  0  0  0  0  0  0
   -3.2009   22.4315   19.9080 C   0  0  0  0  0  0  0  0  0  0  0  0
   -8.4189   17.0434   24.8769 C   0  0  0  0  0  0  0  0  0  0  0  0
   -2.1069   19.2093   22.6404 C   0  0  0  0  0  0  0  0  0  0  0  0
   -3.4276   18.1588   24.3903 C   0  0  0  0  0  0  0  0  0  0  0  0
   -8.3890   15.6677   26.8976 C   0  0  0  0  0  0  0  0  0  0  0  0
   -3.5701   19.0102   23.0954 C   0  0  0  0  0  0  0  0  0  0  0  0
   -5.3935   22.4307   21.6185 C   0  0  0  0  0  0  0  0  0  0  0  0
   -2.7884   22.2935   23.0745 C   0  0  0  0  0  0  0  0  0  0  0  0
   -7.5419   19.6224   24.5186 C   0  0  0  0  0  0  0  0  0  0  0  0
   -6.2720   16.7493   26.1920 C   0  0  0  0  0  0  0  0  0  0  0  0
  1  2  1  0
  1  8  1  0
  1 24  1  0
  2 18  1  0
  3  8  1  0
  4 16  1  0
  4 19  1  0
  4 24  1  0
  5  9  1  0
  5 17  1  0
  6 14  1  0
  6 16  1  0
  7 11  1  0
  7 21  1  0
  8 12  1  0
  8 23  1  0
  9 11  1  0
  9 13  1  0
  9 22  1  0
 10 16  1  0
 10 23  1  0
 11 12  1  0
 11 20  1  0
 13 15  1  0
 13 21  1  0
 14 19  1  0
 17 20  1  0
 18 20  1  0
M  END
>  <ID>  (1) 
conformer_0

$$$$
