
     RDKit          3D

 28 30  0  0  0  0  0  0  0  0999 V2000
   -5.3826   20.4893   26.5063 C   0  0  0  0  0  0  0  0  0  0  0  0
   -2.3586   20.2242   22.8527 C   0  0  0  0  0  0  0  0  0  0  0  0
   -2.9211   20.0522   20.2306 C   0  0  0  0  0  0  0  0  0  0  0  0
   -7.8775   16.3125   24.6102 C   0  0  0  0  0  0  0  0  0  0  0  0
   -6.7076   20.0070   25.8605 C   0  0  0  0  0  0  0  0  0  0  0  0
   -6.9850   18.8030   25.0002 C   0  0  0  0  0  0  0  0  0  0  0  0
   -2.3090   19.0386   23.8005 C   0  0  0  0  0  0  0  0  0  0  0  0
   -5.7321   15.4979   23.5855 C   0  0  0  0  0  0  0  0  0  0  0  0
   -4.6160   22.9549   21.5601 O   0  0  0  0  0  0  0  0  0  0  0  0
   -9.7852   17.0835   25.8219 O   0  0  0  0  0  0  0  0  0  0  0  0
   -5.8581   21.5506   23.3503 C   0  0  0  0  0  0  0  0  0  0  0  0
   -6.0389   17.7590   24.7451 C   0  0  0  0  0  0  0  0  0  0  0  0
   -4.7431   20.5895   23.4043 C   0  0  0  0  0  0  0  0  0  0  0  0
   -4.6703   18.0515   24.2048 C   0  0  0  0  0  0  0  0  0  0  0  0
   -5.3955   20.2471   20.7042 C   0  0  0  0  0  0  0  0  0  0  0  0
   -8.5508   16.8305   25.8762 C   0  0  0  0  0  0  0  0  0  0  0  0
   -5.4545   15.7957   25.9233 C   0  0  0  0  0  0  0  0  0  0  0  0
   -5.8342   22.5251   22.2514 C   0  0  0  0  0  0  0  0  0  0  0  0
   -6.3459   16.2708   24.7727 C   0  0  0  0  0  0  0  0  0  0  0  0
   -4.2379   19.9555   25.7904 C   0  0  0  0  0  0  0  0  0  0  0  0
   -4.6595   19.5445   24.3929 C   0  0  0  0  0  0  0  0  0  0  0  0
   -8.1938   19.1023   24.1225 C   0  0  0  0  0  0  0  0  0  0  0  0
   -7.9737   16.5547   26.9937 O   0  0  0  0  0  0  0  0  0  0  0  0
   -4.0063   20.6934   21.0419 C   0  0  0  0  0  0  0  0  0  0  0  0
   -3.6149   20.9312   22.5044 C   0  0  0  0  0  0  0  0  0  0  0  0
   -3.1095   17.7462   24.1311 C   0  0  0  0  0  0  0  0  0  0  0  0
   -8.2784   16.6090   23.1515 C   0  0  0  0  0  0  0  0  0  0  0  0
   -3.5508   22.0139   21.5862 C   0  0  0  0  0  0  0  0  0  0  0  0
  1  5  1  0
  1 20  1  0
  2  7  1  0
  2 25  1  0
  3 24  1  0
  4 16  1  0
  4 19  1  0
  4 27  1  0
  5  6  1  0
  6 12  1  0
  6 22  1  0
  7 26  1  0
  8 19  1  0
  9 18  1  0
  9 28  1  0
 10 16  2  0
 11 13  1  0
 11 18  1  0
 12 14  1  0
 12 19  1  0
 13 21  1  0
 13 25  2  0
 14 21  1  0
 14 26  1  0
 15 24  1  0
 16 23  1  0
 17 19  1  0
 20 21  1  0
 24 28  1  0
 25 28  1  0
M  END
>  <ID>  (1) 
conformer_0

$$$$
