
     RDKit          3D

 22 25  0  0  0  0  0  0  0  0999 V2000
   -7.5987   18.8702   24.9184 C   0  0  0  0  0  0  0  0  0  0  0  0
   -4.1914   16.9680   25.0485 C   0  0  0  0  0  0  0  0  0  0  0  0
   -3.6476   22.4493   21.0367 N   0  0  0  0  0  0  0  0  0  0  0  0
   -2.2586   18.8274   23.0998 C   0  0  0  0  0  0  0  0  0  0  0  0
   -7.7788   15.9624   23.8648 C   0  0  0  0  0  0  0  0  0  0  0  0
   -8.6042   15.6672   27.1756 C   0  0  0  0  0  0  0  0  0  0  0  0
   -7.2216   19.6844   23.7738 C   0  0  0  0  0  0  0  0  0  0  0  0
   -3.0842   21.3904   21.7140 C   0  0  0  0  0  0  0  0  0  0  0  0
   -7.1914   16.4550   25.2036 C   0  0  0  0  0  0  0  0  0  0  0  0
   -8.4923   16.8387   26.1497 C   0  0  0  0  0  0  0  0  0  0  0  0
   -5.1826   18.1458   25.0367 C   0  0  0  0  0  0  0  0  0  0  0  0
   -4.9731   22.6492   21.0737 C   0  0  0  0  0  0  0  0  0  0  0  0
   -5.9168   19.7966   23.2733 C   0  0  0  0  0  0  0  0  0  0  0  0
   -3.9004   20.5453   22.4498 C   0  0  0  0  0  0  0  0  0  0  0  0
   -3.5923   19.4056   23.2546 C   0  0  0  0  0  0  0  0  0  0  0  0
   -6.3601   15.6063   25.8100 O   0  0  0  0  0  0  0  0  0  0  0  0
   -5.8113   21.7964   21.7923 C   0  0  0  0  0  0  0  0  0  0  0  0
   -8.8901   18.2096   25.4339 C   0  0  0  0  0  0  0  0  0  0  0  0
   -6.6084   17.7687   24.9894 N   0  0  0  0  0  0  0  0  0  0  0  0
   -4.9591   18.9436   26.3479 C   0  0  0  0  0  0  0  0  0  0  0  0
   -5.2503   20.7672   22.4614 C   0  0  0  0  0  0  0  0  0  0  0  0
   -4.8659   18.9904   23.8172 C   0  0  0  0  0  0  0  0  0  0  0  0
  1  7  1  0
  1 18  1  0
  1 19  1  0
  2 11  1  0
  3  8  2  0
  3 12  1  0
  4 15  1  0
  5  9  1  0
  6 10  1  0
  7 13  1  0
  8 14  1  0
  9 10  1  0
  9 16  1  0
  9 19  1  0
 10 18  1  0
 11 19  1  0
 11 20  1  0
 11 22  1  0
 12 17  2  0
 13 21  1  0
 13 22  2  0
 14 15  1  0
 14 21  2  0
 15 22  1  0
 17 21  1  0
M  END
>  <ID>  (1) 
conformer_0

$$$$
