
     RDKit          3D

 42 46  0  0  0  0  0  0  0  0999 V2000
   -6.0171   16.1991   25.0921 C   0  0  0  0  0  0  0  0  0  0  0  0
   -2.6174   21.0085   22.7362 N   0  0  0  0  0  0  0  0  0  0  0  0
   -1.1581   19.4075   22.1986 O   0  0  0  0  0  0  0  0  0  0  0  0
   -2.7181   20.6832   20.1970 C   0  0  0  0  0  0  0  0  0  0  0  0
   -5.8941   22.0181   21.3846 C   0  0  0  0  0  0  0  0  0  0  0  0
   -2.4957   20.0670   19.0360 C   0  0  0  0  0  0  0  0  0  0  0  0
   -6.3030   15.4247   23.8789 O   0  0  0  0  0  0  0  0  0  0  0  0
   -2.2169   19.7029   22.6429 C   0  0  0  0  0  0  0  0  0  0  0  0
   -4.0263   22.2681   24.4891 O   0  0  0  0  0  0  0  0  0  0  0  0
   -4.5323   22.3080   23.2134 C   0  0  0  0  0  0  0  0  0  0  0  0
   -2.8851   22.0558   20.3465 C   0  0  0  0  0  0  0  0  0  0  0  0
   -3.4760   21.9706   22.2455 C   0  0  0  0  0  0  0  0  0  0  0  0
   -4.9559   15.3591   25.5558 F   0  0  0  0  0  0  0  0  0  0  0  0
  -10.9613   15.3311   22.7895 C   0  0  0  0  0  0  0  0  0  0  0  0
   -6.0977   17.6410   24.8573 O   0  0  0  0  0  0  0  0  0  0  0  0
   -2.4114   20.8675   17.9123 C   0  0  0  0  0  0  0  0  0  0  0  0
   -6.7757   21.3413   23.6996 C   0  0  0  0  0  0  0  0  0  0  0  0
   -5.6629   23.2742   21.0804 O   0  0  0  0  0  0  0  0  0  0  0  0
   -4.8282   17.6269   24.3316 C   0  0  0  0  0  0  0  0  0  0  0  0
   -7.4402   19.7017   24.9139 N   0  0  0  0  0  0  0  0  0  0  0  0
   -7.3159   15.6148   22.9226 C   0  0  0  0  0  0  0  0  0  0  0  0
   -6.8457   15.8140   26.1878 F   0  0  0  0  0  0  0  0  0  0  0  0
   -6.2290   21.0529   20.6581 O   0  0  0  0  0  0  0  0  0  0  0  0
   -7.5014   19.9876   23.4665 O   0  0  0  0  0  0  0  0  0  0  0  0
   -6.7200   18.5799   26.8169 O   0  0  0  0  0  0  0  0  0  0  0  0
  -11.3242   15.6534   24.0792 C   0  0  0  0  0  0  0  0  0  0  0  0
   -2.9689   22.9101   21.5103 O   0  0  0  0  0  0  0  0  0  0  0  0
   -4.4132   18.2799   23.1144 C   0  0  0  0  0  0  0  0  0  0  0  0
   -8.3930   17.6226   25.2833 C   0  0  0  0  0  0  0  0  0  0  0  0
   -8.6854   16.0368   23.2602 C   0  0  0  0  0  0  0  0  0  0  0  0
   -9.1409   16.6406   24.4607 C   0  0  0  0  0  0  0  0  0  0  0  0
   -3.0996   18.6977   23.2829 C   0  0  0  0  0  0  0  0  0  0  0  0
   -3.6694   17.3808   25.0197 C   0  0  0  0  0  0  0  0  0  0  0  0
   -9.4550   15.7108   20.9204 C   0  0  0  0  0  0  0  0  0  0  0  0
   -2.5770   18.0736   24.4226 C   0  0  0  0  0  0  0  0  0  0  0  0
   -2.6130   22.2222   17.9648 C   0  0  0  0  0  0  0  0  0  0  0  0
   -6.4289   20.8124   25.0488 C   0  0  0  0  0  0  0  0  0  0  0  0
   -9.7034   15.6973   22.3449 C   0  0  0  0  0  0  0  0  0  0  0  0
   -5.7697   21.7047   22.8055 C   0  0  0  0  0  0  0  0  0  0  0  0
  -10.4455   16.3739   24.8969 C   0  0  0  0  0  0  0  0  0  0  0  0
   -2.9006   22.8753   19.1289 C   0  0  0  0  0  0  0  0  0  0  0  0
   -7.1405   18.4182   25.5158 C   0  0  0  0  0  0  0  0  0  0  0  0
  1  7  1  0
  1 13  1  0
  1 22  1  0
  2  8  1  0
  2 12  1  0
  3  8  2  0
  4  6  2  0
  4 11  1  0
  5 18  2  0
  5 23  1  0
  5 39  1  0
  6 16  1  0
  7 21  1  0
  8 32  1  0
  9 10  1  0
 10 12  1  0
 10 39  1  0
 11 27  1  0
 11 41  1  0
 12 27  1  0
 14 26  2  0
 14 38  1  0
 15 19  1  0
 15 42  1  0
 16 36  1  0
 17 24  1  0
 17 37  1  0
 17 39  1  0
 19 28  1  0
 19 33  1  0
 20 24  1  0
 20 37  1  0
 20 42  1  0
 21 30  1  0
 25 42  1  0
 26 40  1  0
 28 32  1  0
 29 31  1  0
 29 42  1  0
 30 31  1  0
 30 38  1  0
 31 40  2  0
 32 35  1  0
 33 35  1  0
 34 38  1  0
 36 41  2  0
M  END
>  <ID>  (1) 
conformer_0

$$$$
