
     RDKit          3D

 28 31  0  0  0  0  0  0  0  0999 V2000
   -4.1655   18.5268   23.9696 C   0  0  0  0  0  0  0  0  0  0  0  0
   -5.4558   18.1781   23.2288 C   0  0  0  0  0  0  0  0  0  0  0  0
   -4.5540   19.7813   24.7950 C   0  0  0  0  0  0  0  0  0  0  0  0
   -8.1725   16.5797   26.1894 C   0  0  0  0  0  0  0  0  0  0  0  0
   -9.3702   15.9701   24.2338 O   0  0  0  0  0  0  0  0  0  0  0  0
   -3.4361   22.2941   20.8409 C   0  0  0  0  0  0  0  0  0  0  0  0
   -3.0919   22.6119   22.3275 C   0  0  0  0  0  0  0  0  0  0  0  0
   -5.9852   16.7115   24.7197 C   0  0  0  0  0  0  0  0  0  0  0  0
   -3.5474   21.4285   23.2137 C   0  0  0  0  0  0  0  0  0  0  0  0
   -1.8080   19.1323   23.9781 O   0  0  0  0  0  0  0  0  0  0  0  0
   -8.7492   17.0024   24.8199 C   0  0  0  0  0  0  0  0  0  0  0  0
   -3.6039   17.2092   24.5465 C   0  0  0  0  0  0  0  0  0  0  0  0
   -7.9715   17.7555   23.6762 C   0  0  0  0  0  0  0  0  0  0  0  0
   -2.4488   21.2385   20.3121 C   0  0  0  0  0  0  0  0  0  0  0  0
   -5.7580   22.4449   21.4820 O   0  0  0  0  0  0  0  0  0  0  0  0
   -7.0459   19.2784   25.2046 C   0  0  0  0  0  0  0  0  0  0  0  0
   -4.6909   16.6394   25.4539 C   0  0  0  0  0  0  0  0  0  0  0  0
   -6.0879   15.5907   23.7141 C   0  0  0  0  0  0  0  0  0  0  0  0
   -7.0170   16.6396   27.0624 O   0  0  0  0  0  0  0  0  0  0  0  0
   -6.5567   18.0525   24.3292 C   0  0  0  0  0  0  0  0  0  0  0  0
  -10.5010   16.4106   26.7409 O   0  0  0  0  0  0  0  0  0  0  0  0
   -4.8446   21.5461   20.9515 C   0  0  0  0  0  0  0  0  0  0  0  0
   -4.8916   21.0334   23.8676 C   0  0  0  0  0  0  0  0  0  0  0  0
   -3.2649   20.1817   22.3308 C   0  0  0  0  0  0  0  0  0  0  0  0
   -2.9217   19.0792   23.2465 C   0  0  0  0  0  0  0  0  0  0  0  0
   -9.2715   15.7674   26.9440 C   0  0  0  0  0  0  0  0  0  0  0  0
   -2.0277   20.3979   21.4897 C   0  0  0  0  0  0  0  0  0  0  0  0
   -4.4842   20.1473   21.4164 C   0  0  0  0  0  0  0  0  0  0  0  0
  1  2  1  0
  1  3  1  0
  1 12  1  0
  1 25  1  0
  2 20  1  0
  3 23  1  0
  4 11  1  0
  4 19  1  0
  4 26  1  0
  5 11  1  0
  6  7  1  0
  6 14  1  0
  6 22  1  0
  7  9  1  0
  8 17  1  0
  8 18  1  0
  8 20  1  0
  9 23  1  0
  9 24  1  0
 10 25  1  0
 11 13  1  0
 12 17  1  0
 13 20  1  0
 14 27  1  0
 15 22  1  0
 16 20  1  0
 21 26  1  0
 22 28  1  0
 24 25  1  0
 24 27  1  0
 24 28  1  0
M  END
>  <ID>  (1) 
conformer_0

$$$$
