
     RDKit          3D

 19 20  0  0  0  0  0  0  0  0999 V2000
   -3.6897   20.7392   21.6966 C   0  0  0  0  0  0  0  0  0  0  0  0
   -4.3679   18.7554   23.7170 C   0  0  0  0  0  0  0  0  0  0  0  0
   -7.9859   16.7334   25.8305 C   0  0  0  0  0  0  0  0  0  0  0  0
   -6.7142   18.9060   23.0402 C   0  0  0  0  0  0  0  0  0  0  0  0
   -6.9810   17.3848   25.0192 C   0  0  0  0  0  0  0  0  0  0  0  0
   -5.3999   19.2706   22.8227 C   0  0  0  0  0  0  0  0  0  0  0  0
   -2.6131   19.7641   22.2163 C   0  0  0  0  0  0  0  0  0  0  0  0
   -7.5603   15.8964   26.8918 O   0  0  0  0  0  0  0  0  0  0  0  0
   -4.5739   17.8383   24.7471 C   0  0  0  0  0  0  0  0  0  0  0  0
   -2.0318   22.5151   22.3816 C   0  0  0  0  0  0  0  0  0  0  0  0
   -9.1900   17.3364   25.9761 O   0  0  0  0  0  0  0  0  0  0  0  0
   -7.3513   18.1466   23.9580 C   0  0  0  0  0  0  0  0  0  0  0  0
   -5.6167   17.2363   25.3427 C   0  0  0  0  0  0  0  0  0  0  0  0
   -8.7715   15.2822   27.4716 C   0  0  0  0  0  0  0  0  0  0  0  0
   -5.0535   20.1661   21.7524 C   0  0  0  0  0  0  0  0  0  0  0  0
   -3.5176   22.0683   22.5020 C   0  0  0  0  0  0  0  0  0  0  0  0
   -3.3433   21.1418   20.2227 C   0  0  0  0  0  0  0  0  0  0  0  0
   -2.9463   19.2103   23.5590 C   0  0  0  0  0  0  0  0  0  0  0  0
   -5.9371   20.4497   20.7933 O   0  0  0  0  0  0  0  0  0  0  0  0
  1  7  1  0
  1 15  1  0
  1 16  1  0
  1 17  1  0
  2  6  1  0
  2  9  1  0
  2 18  1  0
  3  5  1  0
  3  8  1  0
  3 11  2  0
  4  6  1  0
  4 12  2  0
  5 12  1  0
  5 13  1  0
  6 15  2  0
  7 18  1  0
  8 14  1  0
  9 13  2  0
 10 16  1  0
 15 19  1  0
M  END
>  <ID>  (1) 
conformer_0

$$$$
