
     RDKit          3D

 31 37  0  0  0  0  0  0  0  0999 V2000
   -4.3056   22.7309   19.6641 N   0  0  0  0  0  0  0  0  0  0  0  0
   -5.4506   22.2539   21.6588 C   0  0  0  0  0  0  0  0  0  0  0  0
   -5.8050   21.0436   23.6739 C   0  0  0  0  0  0  0  0  0  0  0  0
   -9.3430   15.4699   25.6069 C   0  0  0  0  0  0  0  0  0  0  0  0
   -2.1553   20.4690   21.6958 C   0  0  0  0  0  0  0  0  0  0  0  0
   -6.7851   16.5532   24.7564 C   0  0  0  0  0  0  0  0  0  0  0  0
   -6.0539   20.2183   24.7905 C   0  0  0  0  0  0  0  0  0  0  0  0
   -2.9042   17.8746   24.4684 C   0  0  0  0  0  0  0  0  0  0  0  0
   -7.2900   18.3548   26.2942 C   0  0  0  0  0  0  0  0  0  0  0  0
   -7.4915   19.6883   26.5922 C   0  0  0  0  0  0  0  0  0  0  0  0
   -3.6016   16.6216   25.0482 C   0  0  0  0  0  0  0  0  0  0  0  0
   -6.4209   21.9943   22.7356 C   0  0  0  0  0  0  0  0  0  0  0  0
   -9.4481   14.7740   26.5977 O   0  0  0  0  0  0  0  0  0  0  0  0
   -3.2426   21.3006   21.1937 C   0  0  0  0  0  0  0  0  0  0  0  0
   -9.9672   16.4279   23.3797 C   0  0  0  0  0  0  0  0  0  0  0  0
   -6.9002   20.6176   25.8227 C   0  0  0  0  0  0  0  0  0  0  0  0
   -8.5402   16.8059   22.7812 C   0  0  0  0  0  0  0  0  0  0  0  0
   -6.4594   17.9552   25.2608 C   0  0  0  0  0  0  0  0  0  0  0  0
   -5.5197   18.9276   24.8111 C   0  0  0  0  0  0  0  0  0  0  0  0
   -3.5547   19.9591   23.6604 C   0  0  0  0  0  0  0  0  0  0  0  0
   -2.0211   18.2551   23.3197 C   0  0  0  0  0  0  0  0  0  0  0  0
   -7.0544   16.4013   23.2468 C   0  0  0  0  0  0  0  0  0  0  0  0
   -2.5650   21.1137   18.8897 C   0  0  0  0  0  0  0  0  0  0  0  0
  -10.4232   15.3612   24.5060 C   0  0  0  0  0  0  0  0  0  0  0  0
   -4.5210   20.7803   23.1419 C   0  0  0  0  0  0  0  0  0  0  0  0
   -8.1688   16.1267   25.3417 O   0  0  0  0  0  0  0  0  0  0  0  0
   -4.3403   21.4612   21.9574 C   0  0  0  0  0  0  0  0  0  0  0  0
   -2.5182   19.5256   22.7369 C   0  0  0  0  0  0  0  0  0  0  0  0
   -3.3355   21.8007   19.9049 N   0  0  0  0  0  0  0  0  0  0  0  0
   -4.0728   18.8560   24.4508 C   0  0  0  0  0  0  0  0  0  0  0  0
   -5.3177   22.9479   20.5066 N   0  0  0  0  0  0  0  0  0  0  0  0
  1 29  1  0
  1 31  1  0
  2 12  1  0
  2 27  1  0
  2 31  2  0
  3  7  1  0
  3 12  1  0
  3 25  2  0
  4 13  2  0
  4 24  1  0
  4 26  1  0
  5 14  1  0
  5 28  1  0
  6 18  1  0
  6 22  1  0
  6 26  1  0
  7 16  1  0
  7 19  1  0
  8 11  1  0
  8 21  1  0
  8 30  1  0
  9 10  1  0
  9 18  1  0
 10 16  2  0
 14 27  2  0
 14 29  1  0
 15 17  2  0
 15 24  1  0
 17 22  1  0
 18 19  1  0
 19 30  1  0
 20 25  1  0
 20 28  1  0
 20 30  1  0
 21 28  1  0
 23 29  1  0
 25 27  1  0
M  END
>  <ID>  (1) 
conformer_0

$$$$
