
     RDKit          3D

 40 45  0  0  0  0  0  0  0  0999 V2000
   -7.9542   18.4540   23.9377 C   0  0  0  0  0  0  0  0  0  0  0  0
   -8.9938   17.6368   23.4273 C   0  0  0  0  0  0  0  0  0  0  0  0
   -3.5561   17.3503   25.4844 C   0  0  0  0  0  0  0  0  0  0  0  0
   -4.6848   23.2265   22.9377 O   0  0  0  0  0  0  0  0  0  0  0  0
   -3.1397   20.9398   20.1011 C   0  0  0  0  0  0  0  0  0  0  0  0
   -9.7387   14.2491   26.5122 O   0  0  0  0  0  0  0  0  0  0  0  0
   -1.2229   19.7775   21.3684 C   0  0  0  0  0  0  0  0  0  0  0  0
   -3.6331   19.6126   20.1105 F   0  0  0  0  0  0  0  0  0  0  0  0
   -5.1829   21.9064   21.1431 C   0  0  0  0  0  0  0  0  0  0  0  0
   -6.3866   21.3805   21.8471 C   0  0  0  0  0  0  0  0  0  0  0  0
   -3.3673   21.6871   18.9702 C   0  0  0  0  0  0  0  0  0  0  0  0
   -5.3240   15.8189   25.6801 O   0  0  0  0  0  0  0  0  0  0  0  0
   -4.5986   21.8604   22.4576 C   0  0  0  0  0  0  0  0  0  0  0  0
   -1.2220   18.8981   23.5840 C   0  0  0  0  0  0  0  0  0  0  0  0
   -2.5330   21.7758   21.1474 C   0  0  0  0  0  0  0  0  0  0  0  0
   -5.6174   21.3480   19.3336 F   0  0  0  0  0  0  0  0  0  0  0  0
   -6.6263   20.0105   21.3231 F   0  0  0  0  0  0  0  0  0  0  0  0
   -0.0790   18.4937   23.8572 O   0  0  0  0  0  0  0  0  0  0  0  0
   -2.8770   23.1590   20.8898 O   0  0  0  0  0  0  0  0  0  0  0  0
   -3.3811   18.5066   24.5377 C   0  0  0  0  0  0  0  0  0  0  0  0
   -7.4868   19.9698   23.8972 C   0  0  0  0  0  0  0  0  0  0  0  0
   -6.6771   21.2688   23.3617 C   0  0  0  0  0  0  0  0  0  0  0  0
   -4.9584   16.9253   25.4356 C   0  0  0  0  0  0  0  0  0  0  0  0
   -1.6034   20.9345   20.4838 C   0  0  0  0  0  0  0  0  0  0  0  0
   -2.4830   18.1591   23.4164 C   0  0  0  0  0  0  0  0  0  0  0  0
   -7.1655   17.7322   24.6408 N   0  0  0  0  0  0  0  0  0  0  0  0
   -5.9019   18.0003   25.1391 C   0  0  0  0  0  0  0  0  0  0  0  0
   -5.8965   19.3010   25.9306 C   0  0  0  0  0  0  0  0  0  0  0  0
   -3.8252   21.0292   24.6129 O   0  0  0  0  0  0  0  0  0  0  0  0
  -10.9593   17.1224   25.8562 O   0  0  0  0  0  0  0  0  0  0  0  0
   -7.1314   20.1563   25.4847 C   0  0  0  0  0  0  0  0  0  0  0  0
   -5.1841   21.1351   23.8371 C   0  0  0  0  0  0  0  0  0  0  0  0
   -4.5146   21.7281   19.9317 C   0  0  0  0  0  0  0  0  0  0  0  0
   -9.8553   16.3974   25.4447 C   0  0  0  0  0  0  0  0  0  0  0  0
   -9.3957   15.4441   26.4881 C   0  0  0  0  0  0  0  0  0  0  0  0
   -8.4493   15.8577   27.3531 N   0  0  0  0  0  0  0  0  0  0  0  0
   -3.1949   21.4374   22.3481 C   0  0  0  0  0  0  0  0  0  0  0  0
   -2.5264   20.9370   23.5305 C   0  0  0  0  0  0  0  0  0  0  0  0
   -9.4796   16.6305   24.1203 C   0  0  0  0  0  0  0  0  0  0  0  0
   -1.3224   20.2334   22.8360 C   0  0  0  0  0  0  0  0  0  0  0  0
  1  2  1  0
  1 21  1  0
  1 26  2  0
  2 39  1  0
  3 20  1  0
  3 23  1  0
  4 13  1  0
  5  8  1  0
  5 11  1  0
  5 15  1  0
  6 35  2  0
  7 24  1  0
  7 40  1  0
  9 10  1  0
  9 13  1  0
  9 33  1  0
 10 17  1  0
 10 22  1  0
 11 33  1  0
 12 23  2  0
 13 32  1  0
 13 37  1  0
 14 18  2  0
 14 25  1  0
 14 40  1  0
 15 19  1  0
 15 24  1  0
 15 37  1  0
 16 33  1  0
 20 25  1  0
 21 22  1  0
 21 31  1  0
 22 32  1  0
 23 27  1  0
 26 27  1  0
 27 28  1  0
 28 31  1  0
 29 32  1  0
 29 38  1  0
 30 34  1  0
 34 35  1  0
 34 39  1  0
 35 36  1  0
 37 38  1  0
 38 40  1  0
M  END
>  <ID>  (1) 
conformer_0

$$$$
