
     RDKit          3D

 24 28  0  0  0  0  0  0  0  0999 V2000
   -8.5633   16.0377   26.0861 C   0  0  0  0  0  0  0  0  0  0  0  0
   -9.4799   17.7689   24.6969 C   0  0  0  0  0  0  0  0  0  0  0  0
   -3.3521   17.6961   23.8074 C   0  0  0  0  0  0  0  0  0  0  0  0
   -3.2892   20.8643   20.0754 C   0  0  0  0  0  0  0  0  0  0  0  0
   -4.1844   22.1066   20.3133 C   0  0  0  0  0  0  0  0  0  0  0  0
   -5.3010   20.1128   24.5109 C   0  0  0  0  0  0  0  0  0  0  0  0
   -5.5328   21.9222   21.1019 C   0  0  0  0  0  0  0  0  0  0  0  0
   -8.6142   15.3546   27.2863 N   0  0  0  0  0  0  0  0  0  0  0  0
   -5.4304   22.1011   22.6519 C   0  0  0  0  0  0  0  0  0  0  0  0
   -2.8257   22.3031   22.5799 C   0  0  0  0  0  0  0  0  0  0  0  0
   -5.3125   16.8730   25.8300 C   0  0  0  0  0  0  0  0  0  0  0  0
   -7.0847   18.2859   24.5840 C   0  0  0  0  0  0  0  0  0  0  0  0
   -1.8413   21.2478   22.0164 C   0  0  0  0  0  0  0  0  0  0  0  0
   -4.0380   21.4539   23.0055 C   0  0  0  0  0  0  0  0  0  0  0  0
   -5.2063   19.3564   23.1069 C   0  0  0  0  0  0  0  0  0  0  0  0
   -4.8903   17.8813   23.4538 C   0  0  0  0  0  0  0  0  0  0  0  0
   -4.0845   20.0257   22.2947 C   0  0  0  0  0  0  0  0  0  0  0  0
   -4.0085   21.0340   24.4819 C   0  0  0  0  0  0  0  0  0  0  0  0
   -7.8802   16.0343   24.8805 O   0  0  0  0  0  0  0  0  0  0  0  0
   -5.7957   17.5017   24.6296 C   0  0  0  0  0  0  0  0  0  0  0  0
   -8.1334   17.2827   24.1105 C   0  0  0  0  0  0  0  0  0  0  0  0
   -2.8254   20.0726   21.3845 C   0  0  0  0  0  0  0  0  0  0  0  0
   -9.5496   17.1285   26.0387 C   0  0  0  0  0  0  0  0  0  0  0  0
   -6.7391   19.7323   25.0462 C   0  0  0  0  0  0  0  0  0  0  0  0
  1  8  1  0
  1 19  1  0
  1 23  1  0
  2 21  1  0
  2 23  1  0
  3 16  1  0
  4  5  1  0
  4 22  1  0
  5  7  1  0
  6 15  1  0
  6 18  1  0
  6 24  1  0
  7  9  1  0
  9 14  1  0
 10 13  1  0
 10 14  1  0
 11 20  1  0
 12 20  1  0
 12 21  1  0
 12 24  1  0
 13 22  1  0
 14 17  1  0
 14 18  1  0
 15 16  1  0
 15 17  1  0
 16 20  1  0
 17 22  1  0
 19 21  1  0
M  END
>  <ID>  (1) 
conformer_0

$$$$
