
     RDKit          3D

 29 34  0  0  0  0  0  0  0  0999 V2000
   -4.4146   20.9335   19.8263 C   0  0  0  0  0  0  0  0  0  0  0  0
   -7.6349   17.7531   24.0922 C   0  0  0  0  0  0  0  0  0  0  0  0
   -9.9015   17.3443   24.9318 C   0  0  0  0  0  0  0  0  0  0  0  0
   -2.4959   21.9483   20.2286 C   0  0  0  0  0  0  0  0  0  0  0  0
   -9.2248   16.3386   27.2179 N   0  0  0  0  0  0  0  0  0  0  0  0
   -4.2219   18.8363   23.8385 C   0  0  0  0  0  0  0  0  0  0  0  0
   -8.5899   16.8360   24.5380 C   0  0  0  0  0  0  0  0  0  0  0  0
   -7.7684   18.9538   23.3069 C   0  0  0  0  0  0  0  0  0  0  0  0
   -1.2673   19.1885   23.7178 C   0  0  0  0  0  0  0  0  0  0  0  0
   -8.8999   14.9157   27.6259 C   0  0  0  0  0  0  0  0  0  0  0  0
   -6.2654   17.5908   24.3861 C   0  0  0  0  0  0  0  0  0  0  0  0
   -8.2820   15.6237   24.4338 O   0  0  0  0  0  0  0  0  0  0  0  0
   -4.1009   22.2529   20.5588 C   0  0  0  0  0  0  0  0  0  0  0  0
   -4.1315   16.8729   25.2533 C   0  0  0  0  0  0  0  0  0  0  0  0
   -1.9075   20.0079   21.6175 O   0  0  0  0  0  0  0  0  0  0  0  0
   -5.5795   18.6563   23.7848 C   0  0  0  0  0  0  0  0  0  0  0  0
   -6.4843   19.4994   23.1136 C   0  0  0  0  0  0  0  0  0  0  0  0
   -4.1831   22.1867   22.0705 C   0  0  0  0  0  0  0  0  0  0  0  0
   -3.7128   19.8862   23.1118 C   0  0  0  0  0  0  0  0  0  0  0  0
   -3.4828   17.9254   24.6003 C   0  0  0  0  0  0  0  0  0  0  0  0
   -4.6563   20.8246   22.5325 C   0  0  0  0  0  0  0  0  0  0  0  0
   -5.5156   16.6969   25.1281 C   0  0  0  0  0  0  0  0  0  0  0  0
   -2.7443   22.3340   22.5850 C   0  0  0  0  0  0  0  0  0  0  0  0
   -2.2379   19.7280   22.9361 C   0  0  0  0  0  0  0  0  0  0  0  0
   -6.0002   20.6255   22.4905 C   0  0  0  0  0  0  0  0  0  0  0  0
   -1.9434   21.4848   21.5872 C   0  0  0  0  0  0  0  0  0  0  0  0
  -10.8318   16.2299   25.3837 C   0  0  0  0  0  0  0  0  0  0  0  0
  -10.6536   16.2846   26.9165 C   0  0  0  0  0  0  0  0  0  0  0  0
   -2.9431   20.7257   19.4731 O   0  0  0  0  0  0  0  0  0  0  0  0
  1 13  1  0
  1 29  1  0
  2  7  1  0
  2  8  1  0
  2 11  1  0
  3  7  1  0
  3 27  1  0
  4 13  1  0
  4 26  1  0
  4 29  1  0
  5 10  1  0
  5 28  1  0
  6 16  2  0
  6 19  1  0
  6 20  1  0
  7 12  2  0
  8 17  1  0
  9 24  2  0
 11 16  1  0
 11 22  2  0
 13 18  1  0
 14 20  2  0
 14 22  1  0
 15 24  1  0
 15 26  1  0
 16 17  1  0
 17 25  1  0
 18 21  1  0
 18 23  1  0
 19 21  1  0
 19 24  1  0
 21 25  2  0
 23 26  1  0
 27 28  1  0
M  END
>  <ID>  (1) 
conformer_0

$$$$
