
     RDKit          3D

 16 18  0  0  0  0  0  0  0  0999 V2000
   -5.1735   16.6318   25.3521 C   0  0  0  0  0  0  0  0  0  0  0  0
   -5.2449   18.4855   23.7088 C   0  0  0  0  0  0  0  0  0  0  0  0
   -2.0131   20.0916   22.6214 C   0  0  0  0  0  0  0  0  0  0  0  0
   -6.4663   17.3946   25.6664 C   0  0  0  0  0  0  0  0  0  0  0  0
   -2.4119   20.9896   21.6554 C   0  0  0  0  0  0  0  0  0  0  0  0
   -8.7083   18.2169   25.2831 C   0  0  0  0  0  0  0  0  0  0  0  0
   -6.3356   18.6010   24.6662 N   0  0  0  0  0  0  0  0  0  0  0  0
   -3.7453   21.1130   21.3966 C   0  0  0  0  0  0  0  0  0  0  0  0
   -7.9106   16.9934   25.7036 C   0  0  0  0  0  0  0  0  0  0  0  0
   -2.9300   19.3219   23.2810 C   0  0  0  0  0  0  0  0  0  0  0  0
   -4.1762   22.3372   20.1767 Cl  0  0  0  0  0  0  0  0  0  0  0  0
   -8.1421   15.7652   25.4332 O   0  0  0  0  0  0  0  0  0  0  0  0
   -7.6734   19.2931   24.8979 C   0  0  0  0  0  0  0  0  0  0  0  0
   -4.3053   19.4197   22.9922 C   0  0  0  0  0  0  0  0  0  0  0  0
   -4.7130   20.3433   22.0191 C   0  0  0  0  0  0  0  0  0  0  0  0
   -4.5878   17.1442   24.0125 C   0  0  0  0  0  0  0  0  0  0  0  0
  1  4  1  0
  1 16  1  0
  2  7  1  0
  2 14  1  0
  2 16  1  0
  3  5  2  0
  3 10  1  0
  4  7  1  0
  4  9  1  0
  5  8  1  0
  6  9  1  0
  6 13  1  0
  7 13  1  0
  8 11  1  0
  8 15  2  0
  9 12  2  0
 10 14  2  0
 14 15  1  0
M  END
>  <ID>  (1) 
conformer_0

$$$$
