
     RDKit          3D

 32 37  0  0  0  0  0  0  0  0999 V2000
   -3.8583   19.9935   22.4489 N   0  0  0  0  0  0  0  0  0  0  0  0
  -10.0608   16.3032   26.2034 C   0  0  0  0  0  0  0  0  0  0  0  0
   -4.9791   22.2852   20.4526 O   0  0  0  0  0  0  0  0  0  0  0  0
   -5.7018   15.9304   25.8396 O   0  0  0  0  0  0  0  0  0  0  0  0
   -2.1997   18.8278   23.7944 C   0  0  0  0  0  0  0  0  0  0  0  0
  -10.0746   16.2263   23.7954 C   0  0  0  0  0  0  0  0  0  0  0  0
   -1.5191   19.5829   22.7264 C   0  0  0  0  0  0  0  0  0  0  0  0
   -3.7425   18.9183   23.5683 C   0  0  0  0  0  0  0  0  0  0  0  0
   -8.7241   17.7954   24.8830 C   0  0  0  0  0  0  0  0  0  0  0  0
   -4.2217   17.9141   24.4986 C   0  0  0  0  0  0  0  0  0  0  0  0
   -7.4600   19.8093   23.7734 C   0  0  0  0  0  0  0  0  0  0  0  0
   -4.7389   22.5597   23.0743 F   0  0  0  0  0  0  0  0  0  0  0  0
   -4.2948   16.5848   24.0082 O   0  0  0  0  0  0  0  0  0  0  0  0
   -2.5469   20.5320   22.1947 C   0  0  0  0  0  0  0  0  0  0  0  0
   -3.2868   20.5718   20.9433 C   0  0  0  0  0  0  0  0  0  0  0  0
   -5.3127   20.3303   22.2132 C   0  0  0  0  0  0  0  0  0  0  0  0
   -2.8356   22.8102   21.4514 C   0  0  0  0  0  0  0  0  0  0  0  0
   -9.1272   17.3248   26.1226 C   0  0  0  0  0  0  0  0  0  0  0  0
   -5.1666   21.9082   21.8718 C   0  0  0  0  0  0  0  0  0  0  0  0
   -5.8818   19.7590   21.0729 O   0  0  0  0  0  0  0  0  0  0  0  0
   -5.4405   15.8680   24.6122 C   0  0  0  0  0  0  0  0  0  0  0  0
   -6.5738   22.3819   22.0028 F   0  0  0  0  0  0  0  0  0  0  0  0
   -3.9283   21.9492   20.9218 C   0  0  0  0  0  0  0  0  0  0  0  0
   -6.3795   18.4269   25.0810 C   0  0  0  0  0  0  0  0  0  0  0  0
   -9.2286   17.2283   23.7172 C   0  0  0  0  0  0  0  0  0  0  0  0
   -5.3343   18.8008   24.1787 C   0  0  0  0  0  0  0  0  0  0  0  0
   -6.0608   19.7640   23.3811 C   0  0  0  0  0  0  0  0  0  0  0  0
   -6.2697   15.4229   23.6840 O   0  0  0  0  0  0  0  0  0  0  0  0
   -2.0603   21.9094   22.4131 C   0  0  0  0  0  0  0  0  0  0  0  0
   -3.7484   17.9288   25.8106 F   0  0  0  0  0  0  0  0  0  0  0  0
   -7.6730   18.7653   24.7011 C   0  0  0  0  0  0  0  0  0  0  0  0
  -10.5382   15.7265   25.0217 C   0  0  0  0  0  0  0  0  0  0  0  0
  1  8  1  0
  1 14  1  0
  1 16  1  0
  2 18  2  0
  2 32  1  0
  3 23  1  0
  4 21  2  0
  5  7  1  0
  5  8  1  0
  6 25  1  0
  6 32  2  0
  7 14  1  0
  8 10  1  0
  9 18  1  0
  9 25  2  0
  9 31  1  0
 10 13  1  0
 10 26  1  0
 10 30  1  0
 11 27  1  0
 11 31  1  0
 12 19  1  0
 13 21  1  0
 14 15  1  0
 14 29  1  0
 15 23  1  0
 16 19  1  0
 16 20  1  0
 16 27  1  0
 17 23  1  0
 17 29  1  0
 19 22  1  0
 19 23  1  0
 21 28  1  0
 24 26  1  0
 24 31  1  0
 26 27  2  0
M  END
>  <ID>  (1) 
conformer_0

$$$$
