
     RDKit          3D

 25 27  0  0  0  0  0  0  0  0999 V2000
   -9.1462   17.0915   23.0209 C   0  0  0  0  0  0  0  0  0  0  0  0
   -3.6536   18.7030   23.5360 C   0  0  0  0  0  0  0  0  0  0  0  0
   -4.3751   19.9859   23.8400 C   0  0  0  0  0  0  0  0  0  0  0  0
   -2.2246   18.9327   23.3793 C   0  0  0  0  0  0  0  0  0  0  0  0
   -4.9964   21.7841   22.0611 C   0  0  0  0  0  0  0  0  0  0  0  0
   -2.8132   20.9072   22.1662 C   0  0  0  0  0  0  0  0  0  0  0  0
   -4.6682   22.5022   20.9462 N   0  0  0  0  0  0  0  0  0  0  0  0
   -8.5661   16.6020   25.6739 C   0  0  0  0  0  0  0  0  0  0  0  0
   -5.7612   19.4236   24.1419 C   0  0  0  0  0  0  0  0  0  0  0  0
   -6.6974   19.8369   23.2442 O   0  0  0  0  0  0  0  0  0  0  0  0
   -4.0984   20.9282   22.6548 C   0  0  0  0  0  0  0  0  0  0  0  0
   -5.1514   16.7862   25.0773 C   0  0  0  0  0  0  0  0  0  0  0  0
   -8.2769   16.3590   26.9345 O   0  0  0  0  0  0  0  0  0  0  0  0
   -5.8734   19.0556   25.6188 C   0  0  0  0  0  0  0  0  0  0  0  0
   -4.0830   16.9275   25.7250 O   0  0  0  0  0  0  0  0  0  0  0  0
   -7.9668   17.5109   23.5659 C   0  0  0  0  0  0  0  0  0  0  0  0
   -7.6117   17.2898   24.8861 C   0  0  0  0  0  0  0  0  0  0  0  0
   -2.4870   21.6012   20.9956 C   0  0  0  0  0  0  0  0  0  0  0  0
   -4.0516   20.7588   24.9775 O   0  0  0  0  0  0  0  0  0  0  0  0
   -5.2712   15.9933   24.1400 O   0  0  0  0  0  0  0  0  0  0  0  0
   -3.4577   22.3920   20.4131 C   0  0  0  0  0  0  0  0  0  0  0  0
   -9.7921   16.1781   25.1251 C   0  0  0  0  0  0  0  0  0  0  0  0
  -10.0472   16.4304   23.7856 C   0  0  0  0  0  0  0  0  0  0  0  0
   -6.3431   17.5924   25.6257 C   0  0  0  0  0  0  0  0  0  0  0  0
   -1.8527   20.1478   22.8491 O   0  0  0  0  0  0  0  0  0  0  0  0
  1 16  2  0
  1 23  1  0
  2  3  1  0
  2  4  1  0
  3  9  1  0
  3 11  1  0
  3 19  1  0
  4 25  1  0
  5  7  2  0
  5 11  1  0
  6 11  2  0
  6 18  1  0
  6 25  1  0
  7 21  1  0
  8 13  1  0
  8 17  2  0
  8 22  1  0
  9 10  1  0
  9 14  1  0
 12 15  2  0
 12 20  1  0
 12 24  1  0
 14 24  1  0
 16 17  1  0
 17 24  1  0
 18 21  2  0
 22 23  2  0
M  END
>  <ID>  (1) 
conformer_0

$$$$
