
     RDKit          3D

 16 17  0  0  0  0  0  0  0  0999 V2000
   -4.6888   20.6092   24.3798 C   0  0  0  0  0  0  0  0  0  0  0  0
   -3.3463   19.1955   23.1692 C   0  0  0  0  0  0  0  0  0  0  0  0
   -7.2580   17.6736   26.1706 C   0  0  0  0  0  0  0  0  0  0  0  0
   -4.4681   19.4127   25.1238 C   0  0  0  0  0  0  0  0  0  0  0  0
   -5.1252   17.4491   23.8188 C   0  0  0  0  0  0  0  0  0  0  0  0
   -2.0674   18.8424   22.6550 Cl  0  0  0  0  0  0  0  0  0  0  0  0
   -8.0659   17.2846   24.1226 C   0  0  0  0  0  0  0  0  0  0  0  0
   -5.1928   21.9098   21.5482 C   0  0  0  0  0  0  0  0  0  0  0  0
   -3.8898   20.4868   23.2148 C   0  0  0  0  0  0  0  0  0  0  0  0
   -5.7715   16.3574   24.6637 C   0  0  0  0  0  0  0  0  0  0  0  0
   -7.9866   15.4802   25.6661 O   0  0  0  0  0  0  0  0  0  0  0  0
   -2.6077   22.2250   21.8260 C   0  0  0  0  0  0  0  0  0  0  0  0
   -4.0355   18.3995   24.1671 C   0  0  0  0  0  0  0  0  0  0  0  0
   -3.8653   21.5402   22.1952 C   0  0  0  0  0  0  0  0  0  0  0  0
   -7.1795   16.4225   25.1681 C   0  0  0  0  0  0  0  0  0  0  0  0
   -8.3372   18.3872   25.2417 C   0  0  0  0  0  0  0  0  0  0  0  0
  1  4  1  0
  1  9  1  0
  2  6  1  0
  2  9  1  0
  2 13  1  0
  3 15  1  0
  3 16  1  0
  4 13  1  0
  5 10  1  0
  5 13  1  0
  7 15  1  0
  7 16  1  0
  8 14  1  0
  9 14  1  0
 10 15  1  0
 11 15  1  0
 12 14  1  0
M  END
>  <ID>  (1) 
conformer_0

$$$$
