
     RDKit          3D

 35 40  0  0  0  0  0  0  0  0999 V2000
   -6.2733   21.2752   22.6426 C   0  0  0  0  0  0  0  0  0  0  0  0
   -8.7819   17.0698   23.0125 C   0  0  0  0  0  0  0  0  0  0  0  0
   -3.4838   19.5038   20.5159 C   0  0  0  0  0  0  0  0  0  0  0  0
   -5.7387   17.1097   25.3063 C   0  0  0  0  0  0  0  0  0  0  0  0
   -2.7133   19.2223   22.8473 C   0  0  0  0  0  0  0  0  0  0  0  0
   -4.7894   16.2307   24.5395 C   0  0  0  0  0  0  0  0  0  0  0  0
   -5.0588   19.5251   25.5007 C   0  0  0  0  0  0  0  0  0  0  0  0
  -10.2421   15.5336   24.5676 C   0  0  0  0  0  0  0  0  0  0  0  0
   -4.3289   22.2531   24.6829 C   0  0  0  0  0  0  0  0  0  0  0  0
   -6.0968   22.7304   22.3412 C   0  0  0  0  0  0  0  0  0  0  0  0
   -7.2992   18.7959   24.3464 C   0  0  0  0  0  0  0  0  0  0  0  0
   -3.8114   20.0393   23.2859 C   0  0  0  0  0  0  0  0  0  0  0  0
   -9.7826   15.9344   23.1732 C   0  0  0  0  0  0  0  0  0  0  0  0
   -3.7408   21.3394   22.3773 C   0  0  0  0  0  0  0  0  0  0  0  0
   -3.7689   16.8453   23.3925 C   0  0  0  0  0  0  0  0  0  0  0  0
   -4.2432   20.7626   20.9933 C   0  0  0  0  0  0  0  0  0  0  0  0
   -1.3241   21.1819   21.5670 C   0  0  0  0  0  0  0  0  0  0  0  0
   -9.6590   15.7533   27.1494 C   0  0  0  0  0  0  0  0  0  0  0  0
   -6.6203   15.8503   27.0847 O   0  0  0  0  0  0  0  0  0  0  0  0
   -4.7102   20.7402   24.5457 C   0  0  0  0  0  0  0  0  0  0  0  0
   -2.3522   20.7094   22.5077 C   0  0  0  0  0  0  0  0  0  0  0  0
   -2.7902   18.4480   21.4038 C   0  0  0  0  0  0  0  0  0  0  0  0
   -9.0562   14.4610   27.5341 O   0  0  0  0  0  0  0  0  0  0  0  0
   -3.6790   18.6258   25.2666 C   0  0  0  0  0  0  0  0  0  0  0  0
   -3.8536   22.0791   21.0298 C   0  0  0  0  0  0  0  0  0  0  0  0
   -3.5043   22.5844   23.4459 C   0  0  0  0  0  0  0  0  0  0  0  0
   -5.9499   18.5015   24.8418 C   0  0  0  0  0  0  0  0  0  0  0  0
   -7.7731   20.0820   24.6123 O   0  0  0  0  0  0  0  0  0  0  0  0
   -6.8965   16.6015   26.1276 C   0  0  0  0  0  0  0  0  0  0  0  0
   -1.4556   18.7973   23.4764 O   0  0  0  0  0  0  0  0  0  0  0  0
   -5.1064   20.4604   23.1799 C   0  0  0  0  0  0  0  0  0  0  0  0
   -8.2428   17.6165   24.2929 C   0  0  0  0  0  0  0  0  0  0  0  0
   -9.4103   15.9738   25.7146 C   0  0  0  0  0  0  0  0  0  0  0  0
   -3.7744   18.4452   23.6940 C   0  0  0  0  0  0  0  0  0  0  0  0
   -8.1640   16.6210   25.3858 C   0  0  0  0  0  0  0  0  0  0  0  0
  1 10  1  0
  1 31  1  0
  2 13  1  0
  2 32  1  0
  3 16  1  0
  3 22  1  0
  4  6  2  0
  4 27  1  0
  4 29  1  0
  5 12  1  0
  5 21  1  0
  5 30  1  0
  5 34  1  0
  6 15  1  0
  7 20  1  0
  7 24  1  0
  7 27  1  0
  8 13  1  0
  8 33  2  0
  9 20  1  0
  9 26  1  0
 11 27  1  0
 11 28  1  0
 11 32  1  0
 12 14  1  0
 12 31  1  0
 14 21  1  0
 14 25  1  0
 14 26  1  0
 15 34  1  0
 16 25  1  0
 17 21  1  0
 18 23  1  0
 18 33  1  0
 19 29  2  0
 20 31  1  0
 24 34  1  0
 29 35  1  0
 32 35  1  0
 33 35  1  0
M  END
>  <ID>  (1) 
conformer_0

$$$$
