
     RDKit          3D

 31 34  0  0  0  0  0  0  0  0999 V2000
   -4.9676   20.5398   23.4717 C   0  0  0  0  0  0  0  0  0  0  0  0
   -7.4916   20.6705   23.7524 O   0  0  0  0  0  0  0  0  0  0  0  0
   -2.6198   18.8721   23.2817 C   0  0  0  0  0  0  0  0  0  0  0  0
   -6.3901   16.1349   25.9482 C   0  0  0  0  0  0  0  0  0  0  0  0
   -8.6386   15.5190   26.7798 C   0  0  0  0  0  0  0  0  0  0  0  0
   -0.9451   20.4751   23.3531 O   0  0  0  0  0  0  0  0  0  0  0  0
   -3.9328   23.0187   19.5723 F   0  0  0  0  0  0  0  0  0  0  0  0
   -5.5885   20.9828   20.7164 C   0  0  0  0  0  0  0  0  0  0  0  0
   -2.7613   22.5548   22.2796 C   0  0  0  0  0  0  0  0  0  0  0  0
   -6.3466   20.5456   22.9166 C   0  0  0  0  0  0  0  0  0  0  0  0
   -9.6714   15.0930   26.2684 O   0  0  0  0  0  0  0  0  0  0  0  0
   -7.6880   20.7994   26.0813 O   0  0  0  0  0  0  0  0  0  0  0  0
   -8.1117   17.7909   25.6608 C   0  0  0  0  0  0  0  0  0  0  0  0
   -7.7515   20.0783   24.9294 C   0  0  0  0  0  0  0  0  0  0  0  0
   -5.4526   17.1208   25.4384 C   0  0  0  0  0  0  0  0  0  0  0  0
   -6.6189   20.6086   21.5949 O   0  0  0  0  0  0  0  0  0  0  0  0
   -8.0674   14.8185   27.8739 C   0  0  0  0  0  0  0  0  0  0  0  0
   -3.9577   17.4256   25.0645 O   0  0  0  0  0  0  0  0  0  0  0  0
   -4.6956   21.5707   24.3728 O   0  0  0  0  0  0  0  0  0  0  0  0
   -3.8433   19.4657   23.6770 N   0  0  0  0  0  0  0  0  0  0  0  0
   -1.8377   17.9424   23.9611 O   0  0  0  0  0  0  0  0  0  0  0  0
   -7.1795   18.7298   25.2033 C   0  0  0  0  0  0  0  0  0  0  0  0
   -2.1312   20.3600   21.3566 C   0  0  0  0  0  0  0  0  0  0  0  0
   -1.6095   19.7334   22.5042 C   0  0  0  0  0  0  0  0  0  0  0  0
   -4.3672   18.7839   24.8113 C   0  0  0  0  0  0  0  0  0  0  0  0
   -7.7314   16.4865   26.0971 C   0  0  0  0  0  0  0  0  0  0  0  0
   -5.7723   18.3089   25.0983 C   0  0  0  0  0  0  0  0  0  0  0  0
   -4.3364   21.2649   20.9052 C   0  0  0  0  0  0  0  0  0  0  0  0
   -2.7929   21.2389   19.1467 F   0  0  0  0  0  0  0  0  0  0  0  0
   -3.2270   21.3356   21.5465 C   0  0  0  0  0  0  0  0  0  0  0  0
   -3.5240   21.8289   20.0548 C   0  0  0  0  0  0  0  0  0  0  0  0
  1 10  1  0
  1 19  2  0
  1 20  1  0
  2 10  1  0
  2 14  1  0
  3 20  1  0
  3 21  2  0
  3 24  1  0
  4 15  1  0
  4 26  2  0
  5 11  2  0
  5 17  1  0
  5 26  1  0
  6 24  1  0
  7 31  1  0
  8 16  1  0
  8 28  2  0
  9 30  1  0
 10 16  1  0
 12 14  2  0
 13 22  2  0
 13 26  1  0
 14 22  1  0
 15 18  1  0
 15 27  2  0
 18 25  1  0
 20 25  1  0
 22 27  1  0
 23 24  1  0
 23 30  1  0
 25 27  1  0
 28 30  1  0
 28 31  1  0
 29 31  1  0
M  END
>  <ID>  (1) 
conformer_0

$$$$
