
     RDKit          3D

 36 40  0  0  0  0  0  0  0  0999 V2000
   -5.6673   22.1083   21.0733 C   0  0  0  0  0  0  0  0  0  0  0  0
   -5.7073   15.4935   25.8720 C   0  0  0  0  0  0  0  0  0  0  0  0
   -6.9879   15.8233   26.2131 N   0  0  0  0  0  0  0  0  0  0  0  0
   -7.6727   15.2724   27.2747 O   0  0  0  0  0  0  0  0  0  0  0  0
   -3.3417   17.1118   23.9106 C   0  0  0  0  0  0  0  0  0  0  0  0
   -8.8352   16.3885   24.7413 C   0  0  0  0  0  0  0  0  0  0  0  0
   -4.4289   22.0494   20.3955 C   0  0  0  0  0  0  0  0  0  0  0  0
   -6.5324   20.4538   22.5912 C   0  0  0  0  0  0  0  0  0  0  0  0
   -1.2555   20.4791   21.3993 F   0  0  0  0  0  0  0  0  0  0  0  0
  -11.1761   15.9793   24.6886 C   0  0  0  0  0  0  0  0  0  0  0  0
   -7.1343   20.2337   26.3382 C   0  0  0  0  0  0  0  0  0  0  0  0
   -8.7461   16.1214   23.3791 C   0  0  0  0  0  0  0  0  0  0  0  0
   -3.3101   20.8319   23.6434 C   0  0  0  0  0  0  0  0  0  0  0  0
   -3.5133   21.3569   21.1901 C   0  0  0  0  0  0  0  0  0  0  0  0
  -10.0475   16.3728   25.3766 C   0  0  0  0  0  0  0  0  0  0  0  0
  -11.0364   15.6039   23.3605 C   0  0  0  0  0  0  0  0  0  0  0  0
   -6.9381   19.6787   21.6497 O   0  0  0  0  0  0  0  0  0  0  0  0
   -2.2810   20.9688   20.6839 C   0  0  0  0  0  0  0  0  0  0  0  0
   -7.2562   18.1046   25.3093 C   0  0  0  0  0  0  0  0  0  0  0  0
   -4.0756   21.1007   22.4213 C   0  0  0  0  0  0  0  0  0  0  0  0
   -3.7873   21.4800   24.6433 O   0  0  0  0  0  0  0  0  0  0  0  0
   -6.8994   20.7603   25.0698 C   0  0  0  0  0  0  0  0  0  0  0  0
   -4.0935   22.3877   19.0905 C   0  0  0  0  0  0  0  0  0  0  0  0
   -7.3352   18.9012   26.4391 C   0  0  0  0  0  0  0  0  0  0  0  0
   -2.9035   21.8556   18.5768 C   0  0  0  0  0  0  0  0  0  0  0  0
   -2.1704   18.6049   22.8167 O   0  0  0  0  0  0  0  0  0  0  0  0
   -4.6694   16.7061   23.8546 C   0  0  0  0  0  0  0  0  0  0  0  0
   -9.8214   15.6936   22.7124 C   0  0  0  0  0  0  0  0  0  0  0  0
   -5.4495   21.2877   22.2715 N   0  0  0  0  0  0  0  0  0  0  0  0
   -7.6584   16.7383   25.4504 C   0  0  0  0  0  0  0  0  0  0  0  0
   -5.1827   15.9727   24.8260 C   0  0  0  0  0  0  0  0  0  0  0  0
   -7.0687   18.6849   24.0664 C   0  0  0  0  0  0  0  0  0  0  0  0
   -6.8397   19.9821   23.9259 C   0  0  0  0  0  0  0  0  0  0  0  0
   -1.9839   21.1486   19.3576 C   0  0  0  0  0  0  0  0  0  0  0  0
   -2.6290   19.6349   23.7032 N   0  0  0  0  0  0  0  0  0  0  0  0
   -2.9312   18.4511   24.1860 C   0  0  0  0  0  0  0  0  0  0  0  0
  1  7  1  0
  1 29  1  0
  2  3  1  0
  2 31  2  0
  3  4  1  0
  3 30  1  0
  5 27  1  0
  5 36  1  0
  6 12  2  0
  6 15  1  0
  6 30  1  0
  7 14  2  0
  7 23  1  0
  8 17  2  0
  8 29  1  0
  8 33  1  0
  9 18  1  0
 10 15  2  0
 10 16  1  0
 11 22  1  0
 11 24  2  0
 12 28  1  0
 13 20  1  0
 13 21  2  0
 13 35  1  0
 14 18  1  0
 14 20  1  0
 16 28  2  0
 18 34  2  0
 19 24  1  0
 19 30  1  0
 19 32  1  0
 20 29  1  0
 22 33  1  0
 23 25  2  0
 25 34  1  0
 26 35  1  0
 27 31  2  0
 32 33  2  0
 35 36  1  0
M  END
>  <ID>  (1) 
conformer_0

$$$$
