
     RDKit          3D

 25 27  0  0  0  0  0  0  0  0999 V2000
   -4.1355   20.6055   24.7905 C   0  0  0  0  0  0  0  0  0  0  0  0
   -1.7362   20.8383   20.7940 F   0  0  0  0  0  0  0  0  0  0  0  0
   -4.8969   20.1512   22.5541 C   0  0  0  0  0  0  0  0  0  0  0  0
   -4.0837   21.2137   23.4527 C   0  0  0  0  0  0  0  0  0  0  0  0
   -5.0750   19.4899   24.7043 C   0  0  0  0  0  0  0  0  0  0  0  0
   -3.6821   22.5186   21.0380 C   0  0  0  0  0  0  0  0  0  0  0  0
   -5.1017   22.4990   21.4813 C   0  0  0  0  0  0  0  0  0  0  0  0
   -4.6500   15.8280   25.0553 C   0  0  0  0  0  0  0  0  0  0  0  0
   -7.7613   17.6817   25.2693 C   0  0  0  0  0  0  0  0  0  0  0  0
   -5.3746   17.1229   25.2261 C   0  0  0  0  0  0  0  0  0  0  0  0
   -3.7553   20.3558   20.2300 F   0  0  0  0  0  0  0  0  0  0  0  0
   -9.8325   16.9449   26.2834 C   0  0  0  0  0  0  0  0  0  0  0  0
   -5.9700   19.3555   23.4810 C   0  0  0  0  0  0  0  0  0  0  0  0
   -5.6981   21.1218   21.6733 C   0  0  0  0  0  0  0  0  0  0  0  0
   -5.1513   18.5487   25.7901 C   0  0  0  0  0  0  0  0  0  0  0  0
   -4.5952   16.7945   24.0286 C   0  0  0  0  0  0  0  0  0  0  0  0
   -9.1180   16.3429   27.4213 O   0  0  0  0  0  0  0  0  0  0  0  0
   -2.7870   21.3020   22.7722 C   0  0  0  0  0  0  0  0  0  0  0  0
   -3.9036   18.9920   22.2798 C   0  0  0  0  0  0  0  0  0  0  0  0
   -3.0132   21.1613   21.2028 C   0  0  0  0  0  0  0  0  0  0  0  0
   -6.7278   16.7515   25.8324 C   0  0  0  0  0  0  0  0  0  0  0  0
   -8.9907   16.8425   24.9447 C   0  0  0  0  0  0  0  0  0  0  0  0
   -8.7823   15.5377   24.7177 O   0  0  0  0  0  0  0  0  0  0  0  0
   -7.2892   18.6315   24.1193 C   0  0  0  0  0  0  0  0  0  0  0  0
   -9.3003   17.1848   23.4549 C   0  0  0  0  0  0  0  0  0  0  0  0
  1  4  1  0
  1  5  1  0
  2 20  1  0
  3  4  1  0
  3 13  1  0
  3 14  1  0
  3 19  1  0
  4 18  1  0
  5 13  1  0
  5 15  1  0
  6  7  1  0
  6 20  1  0
  7 14  1  0
  8 16  1  0
  9 21  1  0
  9 22  1  0
  9 24  1  0
 10 15  1  0
 10 16  1  0
 10 21  1  0
 11 20  1  0
 12 17  1  0
 12 22  1  0
 13 24  1  0
 18 20  1  0
 22 23  1  0
 22 25  1  0
M  END
>  <ID>  (1) 
conformer_0

$$$$
