
     RDKit          3D

 30 36  0  0  0  0  0  0  0  0999 V2000
   -9.6597   16.1336   25.2137 C   0  0  0  0  0  0  0  0  0  0  0  0
   -9.6358   17.0331   23.9791 C   0  0  0  0  0  0  0  0  0  0  0  0
   -3.7130   20.4620   24.7686 C   0  0  0  0  0  0  0  0  0  0  0  0
   -6.1323   21.0960   25.3405 C   0  0  0  0  0  0  0  0  0  0  0  0
   -2.4974   20.2822   21.0787 C   0  0  0  0  0  0  0  0  0  0  0  0
   -8.8743   15.8193   27.4952 O   0  0  0  0  0  0  0  0  0  0  0  0
   -4.7012   20.1507   21.8091 C   0  0  0  0  0  0  0  0  0  0  0  0
   -7.5019   17.7848   24.7330 C   0  0  0  0  0  0  0  0  0  0  0  0
   -3.3273   20.4953   22.3310 C   0  0  0  0  0  0  0  0  0  0  0  0
   -5.4608   18.7711   23.6808 C   0  0  0  0  0  0  0  0  0  0  0  0
   -5.4995   22.2239   21.7439 C   0  0  0  0  0  0  0  0  0  0  0  0
   -4.8159   16.9374   25.5012 C   0  0  0  0  0  0  0  0  0  0  0  0
   -4.8481   21.2290   20.7010 C   0  0  0  0  0  0  0  0  0  0  0  0
   -2.9795   22.7316   21.2663 C   0  0  0  0  0  0  0  0  0  0  0  0
   -4.0069   18.3428   23.4404 C   0  0  0  0  0  0  0  0  0  0  0  0
   -1.6860   19.1996   23.6923 C   0  0  0  0  0  0  0  0  0  0  0  0
   -2.1454   22.1969   23.5791 O   0  0  0  0  0  0  0  0  0  0  0  0
   -3.3582   21.5181   20.2730 C   0  0  0  0  0  0  0  0  0  0  0  0
   -6.4340   17.6104   23.7425 C   0  0  0  0  0  0  0  0  0  0  0  0
   -5.5207   21.2959   22.9423 C   0  0  0  0  0  0  0  0  0  0  0  0
   -6.0815   16.2484   25.9502 C   0  0  0  0  0  0  0  0  0  0  0  0
   -3.0727   21.9911   22.6435 C   0  0  0  0  0  0  0  0  0  0  0  0
   -5.8167   19.8709   22.6874 C   0  0  0  0  0  0  0  0  0  0  0  0
   -9.9371   14.8229   24.8858 O   0  0  0  0  0  0  0  0  0  0  0  0
   -8.5634   16.1162   26.2243 C   0  0  0  0  0  0  0  0  0  0  0  0
   -7.3898   16.9990   25.9638 C   0  0  0  0  0  0  0  0  0  0  0  0
   -3.1373   19.6429   23.5963 C   0  0  0  0  0  0  0  0  0  0  0  0
   -4.9190   21.4020   24.3906 C   0  0  0  0  0  0  0  0  0  0  0  0
   -3.6566   17.3470   24.5535 C   0  0  0  0  0  0  0  0  0  0  0  0
   -8.7147   18.1749   24.1933 O   0  0  0  0  0  0  0  0  0  0  0  0
  1  2  1  0
  1 24  1  0
  1 25  1  0
  2 30  1  0
  3 27  1  0
  3 28  1  0
  4 28  1  0
  5  9  1  0
  5 18  1  0
  6 25  1  0
  7  9  1  0
  7 13  1  0
  7 23  1  0
  8 19  1  0
  8 26  1  0
  8 30  1  0
  9 22  1  0
  9 27  1  0
 10 15  1  0
 10 19  1  0
 10 23  1  0
 11 13  1  0
 11 20  1  0
 12 21  2  0
 12 29  2  0
 13 18  1  0
 14 18  1  0
 14 22  1  0
 15 27  1  0
 15 29  1  0
 16 27  1  0
 17 22  1  0
 20 23  1  0
 20 28  1  0
 21 26  1  0
 25 26  1  0
M  END
>  <ID>  (1) 
conformer_0

$$$$
