
     RDKit          3D

 26 28  0  0  0  0  0  0  0  0999 V2000
   -8.7891   15.0521   27.0994 O   0  0  0  0  0  0  0  0  0  0  0  0
   -5.6592   16.6144   23.8399 C   0  0  0  0  0  0  0  0  0  0  0  0
   -3.1898   20.0221   21.8411 C   0  0  0  0  0  0  0  0  0  0  0  0
   -7.9675   17.5592   24.1672 C   0  0  0  0  0  0  0  0  0  0  0  0
   -4.7406   19.1281   24.0037 C   0  0  0  0  0  0  0  0  0  0  0  0
   -8.7227   17.1420   23.1143 O   0  0  0  0  0  0  0  0  0  0  0  0
  -10.6654   17.1149   24.9260 O   0  0  0  0  0  0  0  0  0  0  0  0
   -8.4579   17.5531   25.5186 C   0  0  0  0  0  0  0  0  0  0  0  0
   -5.6809   20.7757   21.5989 C   0  0  0  0  0  0  0  0  0  0  0  0
   -3.9648   22.2129   22.5754 C   0  0  0  0  0  0  0  0  0  0  0  0
   -4.3999   16.6576   24.7055 C   0  0  0  0  0  0  0  0  0  0  0  0
   -6.5411   17.8113   23.9124 C   0  0  0  0  0  0  0  0  0  0  0  0
   -5.7335   18.5777   24.9665 C   0  0  0  0  0  0  0  0  0  0  0  0
   -1.6579   21.8437   22.0841 C   0  0  0  0  0  0  0  0  0  0  0  0
   -3.9578   18.7373   26.5155 O   0  0  0  0  0  0  0  0  0  0  0  0
   -6.4258   19.5807   25.6782 O   0  0  0  0  0  0  0  0  0  0  0  0
   -6.1262   15.4642   23.6318 O   0  0  0  0  0  0  0  0  0  0  0  0
   -6.7151   18.9129   22.7966 C   0  0  0  0  0  0  0  0  0  0  0  0
   -4.7792   17.6980   25.8113 C   0  0  0  0  0  0  0  0  0  0  0  0
   -9.5629   16.5504   25.4975 C   0  0  0  0  0  0  0  0  0  0  0  0
   -9.7220   15.8979   26.8119 C   0  0  0  0  0  0  0  0  0  0  0  0
   -1.9208   20.5080   21.7804 C   0  0  0  0  0  0  0  0  0  0  0  0
   -5.4813   19.9020   22.8722 C   0  0  0  0  0  0  0  0  0  0  0  0
   -4.3029   20.8337   22.2308 C   0  0  0  0  0  0  0  0  0  0  0  0
  -10.4385   16.4989   27.6463 O   0  0  0  0  0  0  0  0  0  0  0  0
   -2.6832   22.6721   22.5068 C   0  0  0  0  0  0  0  0  0  0  0  0
  1 21  2  0
  2 11  1  0
  2 12  1  0
  2 17  2  0
  3 22  2  0
  3 24  1  0
  4  6  1  0
  4  8  1  0
  4 12  1  0
  5 13  1  0
  5 23  1  0
  7 20  1  0
  8 20  1  0
  9 23  1  0
  9 24  1  0
 10 24  1  0
 10 26  2  0
 11 19  1  0
 12 13  1  0
 12 18  1  0
 13 16  1  0
 13 19  1  0
 14 22  1  0
 14 26  1  0
 15 19  1  0
 18 23  1  0
 20 21  1  0
 21 25  1  0
M  END
>  <ID>  (1) 
conformer_0

$$$$
