
     RDKit          3D

 31 35  0  0  0  0  0  0  0  0999 V2000
   -2.0987   20.4202   21.4715 C   0  0  0  0  0  0  0  0  0  0  0  0
   -2.9724   20.7378   20.6086 C   0  0  0  0  0  0  0  0  0  0  0  0
   -5.7968   20.7131   22.7060 C   0  0  0  0  0  0  0  0  0  0  0  0
   -9.8386   15.7489   27.4468 C   0  0  0  0  0  0  0  0  0  0  0  0
   -5.3290   20.7411   19.8174 C   0  0  0  0  0  0  0  0  0  0  0  0
   -2.4921   22.8574   22.4051 C   0  0  0  0  0  0  0  0  0  0  0  0
   -8.1528   18.4246   24.6624 C   0  0  0  0  0  0  0  0  0  0  0  0
   -3.4204   18.3479   24.0965 C   0  0  0  0  0  0  0  0  0  0  0  0
   -4.9111   16.5271   25.1603 C   0  0  0  0  0  0  0  0  0  0  0  0
   -4.1601   21.6231   20.1829 C   0  0  0  0  0  0  0  0  0  0  0  0
   -4.1872   21.5876   24.9189 O   0  0  0  0  0  0  0  0  0  0  0  0
   -4.5400   20.6616   23.9988 C   0  0  0  0  0  0  0  0  0  0  0  0
   -3.6711   22.6117   19.1119 C   0  0  0  0  0  0  0  0  0  0  0  0
   -5.8251   18.6376   24.4129 C   0  0  0  0  0  0  0  0  0  0  0  0
   -7.0509   19.4183   24.4946 C   0  0  0  0  0  0  0  0  0  0  0  0
   -3.8712   22.2900   22.3989 C   0  0  0  0  0  0  0  0  0  0  0  0
   -7.4825   17.0897   24.9698 C   0  0  0  0  0  0  0  0  0  0  0  0
   -3.2954   20.0357   21.9123 C   0  0  0  0  0  0  0  0  0  0  0  0
   -4.5401   19.2489   24.3930 C   0  0  0  0  0  0  0  0  0  0  0  0
   -1.9423   18.5038   23.6879 C   0  0  0  0  0  0  0  0  0  0  0  0
  -10.2677   16.8936   25.1763 C   0  0  0  0  0  0  0  0  0  0  0  0
  -10.5726   14.5001   26.8708 C   0  0  0  0  0  0  0  0  0  0  0  0
   -6.9703   20.7325   23.7993 C   0  0  0  0  0  0  0  0  0  0  0  0
   -4.6490   22.6898   21.2318 C   0  0  0  0  0  0  0  0  0  0  0  0
   -4.3205   20.8414   22.5956 C   0  0  0  0  0  0  0  0  0  0  0  0
   -3.5833   17.0664   24.8515 C   0  0  0  0  0  0  0  0  0  0  0  0
   -6.0449   17.3285   24.9747 C   0  0  0  0  0  0  0  0  0  0  0  0
   -9.3680   16.5756   26.3226 C   0  0  0  0  0  0  0  0  0  0  0  0
  -11.2835   14.6648   25.5591 C   0  0  0  0  0  0  0  0  0  0  0  0
   -7.9668   16.3824   26.0623 N   0  0  0  0  0  0  0  0  0  0  0  0
  -10.9087   15.6873   24.5250 C   0  0  0  0  0  0  0  0  0  0  0  0
  1  2  1  0
  1 18  1  0
  2 10  1  0
  3 23  1  0
  3 25  1  0
  4 22  1  0
  4 28  1  0
  5 10  1  0
  6 16  1  0
  7 15  1  0
  7 17  1  0
  8 19  1  0
  8 20  1  0
  8 26  1  0
  9 26  1  0
  9 27  2  0
 10 13  1  0
 10 24  1  0
 11 12  1  0
 12 19  1  0
 12 25  1  0
 14 15  1  0
 14 19  1  0
 14 27  1  0
 15 23  1  0
 16 24  1  0
 16 25  1  0
 17 27  1  0
 17 30  1  0
 18 25  1  0
 21 28  1  0
 21 31  1  0
 22 29  1  0
 28 30  1  0
 29 31  1  0
M  END
>  <ID>  (1) 
conformer_0

$$$$
