
     RDKit          3D

 28 32  0  0  0  0  0  0  0  0999 V2000
   -5.6537   19.5164   21.5034 O   0  0  0  0  0  0  0  0  0  0  0  0
   -3.6085   20.8911   19.9529 C   0  0  0  0  0  0  0  0  0  0  0  0
   -5.7972   22.2199   21.9518 C   0  0  0  0  0  0  0  0  0  0  0  0
   -8.0882   15.5223   24.3129 O   0  0  0  0  0  0  0  0  0  0  0  0
   -2.9650   19.3846   24.0304 C   0  0  0  0  0  0  0  0  0  0  0  0
   -9.2127   18.1505   25.6574 C   0  0  0  0  0  0  0  0  0  0  0  0
   -4.5102   18.3835   25.5911 C   0  0  0  0  0  0  0  0  0  0  0  0
   -4.4318   21.3581   23.8541 C   0  0  0  0  0  0  0  0  0  0  0  0
   -1.7495   18.8374   23.4088 C   0  0  0  0  0  0  0  0  0  0  0  0
   -4.3937   19.8108   22.0375 C   0  0  0  0  0  0  0  0  0  0  0  0
   -3.6633   21.1503   22.3945 C   0  0  0  0  0  0  0  0  0  0  0  0
   -8.2645   18.6504   24.5018 C   0  0  0  0  0  0  0  0  0  0  0  0
   -6.7730   18.3655   24.6839 C   0  0  0  0  0  0  0  0  0  0  0  0
   -4.1018   16.9505   25.1245 C   0  0  0  0  0  0  0  0  0  0  0  0
   -8.9711   16.6922   26.2388 C   0  0  0  0  0  0  0  0  0  0  0  0
   -6.6518   17.0386   25.4454 C   0  0  0  0  0  0  0  0  0  0  0  0
   -3.4733   20.5763   24.7430 O   0  0  0  0  0  0  0  0  0  0  0  0
   -3.8678   22.4118   20.2924 C   0  0  0  0  0  0  0  0  0  0  0  0
   -8.9102   15.5133   27.3382 C   0  0  0  0  0  0  0  0  0  0  0  0
   -4.3010   22.4147   21.6970 C   0  0  0  0  0  0  0  0  0  0  0  0
   -5.3598   18.8691   24.3324 C   0  0  0  0  0  0  0  0  0  0  0  0
   -2.2302   21.5550   22.6890 C   0  0  0  0  0  0  0  0  0  0  0  0
   -2.5514   20.9027   19.1646 O   0  0  0  0  0  0  0  0  0  0  0  0
   -5.8919   21.6370   23.3852 C   0  0  0  0  0  0  0  0  0  0  0  0
   -4.2297   18.8537   23.2541 C   0  0  0  0  0  0  0  0  0  0  0  0
   -7.8658   16.2350   25.2806 C   0  0  0  0  0  0  0  0  0  0  0  0
   -3.3816   20.0984   21.2071 C   0  0  0  0  0  0  0  0  0  0  0  0
   -5.4369   16.2562   24.9309 C   0  0  0  0  0  0  0  0  0  0  0  0
  1 10  1  0
  2 18  1  0
  2 23  1  0
  2 27  1  0
  3 20  1  0
  3 24  1  0
  4 26  2  0
  5  9  1  0
  5 17  1  0
  5 25  1  0
  6 12  1  0
  6 15  1  0
  7 14  1  0
  7 21  1  0
  8 11  1  0
  8 17  1  0
  8 24  1  0
 10 11  1  0
 10 25  1  0
 10 27  1  0
 11 20  1  0
 11 22  1  0
 12 13  1  0
 13 16  1  0
 13 21  1  0
 14 28  1  0
 15 19  1  0
 15 26  1  0
 16 26  1  0
 16 28  1  0
 18 20  1  0
 21 25  1  0
M  END
>  <ID>  (1) 
conformer_0

$$$$
