
     RDKit          3D

 29 33  0  0  0  0  0  0  0  0999 V2000
   -1.3655   18.8727   23.3358 C   0  0  0  0  0  0  0  0  0  0  0  0
   -6.0464   16.1679   24.7417 C   0  0  0  0  0  0  0  0  0  0  0  0
   -2.7268   20.1362   21.9151 C   0  0  0  0  0  0  0  0  0  0  0  0
   -5.2883   20.4846   21.6950 C   0  0  0  0  0  0  0  0  0  0  0  0
   -9.0717   18.3313   25.2798 C   0  0  0  0  0  0  0  0  0  0  0  0
   -6.4046   19.8373   21.5471 O   0  0  0  0  0  0  0  0  0  0  0  0
   -2.7707   19.4416   23.2077 C   0  0  0  0  0  0  0  0  0  0  0  0
   -8.4652   16.7783   23.4697 C   0  0  0  0  0  0  0  0  0  0  0  0
   -9.3741   15.8737   25.6087 C   0  0  0  0  0  0  0  0  0  0  0  0
   -4.5540   23.2599   20.3500 O   0  0  0  0  0  0  0  0  0  0  0  0
   -3.2890   20.8754   22.9209 C   0  0  0  0  0  0  0  0  0  0  0  0
   -5.1186   16.9623   23.7891 C   0  0  0  0  0  0  0  0  0  0  0  0
   -4.9504   22.5302   22.9371 C   0  0  0  0  0  0  0  0  0  0  0  0
   -7.8902   19.2642   24.9847 C   0  0  0  0  0  0  0  0  0  0  0  0
   -3.2810   18.9425   24.4914 O   0  0  0  0  0  0  0  0  0  0  0  0
   -3.7258   22.2290   20.8437 C   0  0  0  0  0  0  0  0  0  0  0  0
   -2.6250   22.7960   21.5271 C   0  0  0  0  0  0  0  0  0  0  0  0
   -5.4429   19.0327   25.0844 C   0  0  0  0  0  0  0  0  0  0  0  0
   -6.6888   18.4599   25.5510 C   0  0  0  0  0  0  0  0  0  0  0  0
   -4.4879   20.9556   20.5514 C   0  0  0  0  0  0  0  0  0  0  0  0
   -8.9595   15.1342   26.6306 O   0  0  0  0  0  0  0  0  0  0  0  0
   -1.8007   20.2934   21.0369 O   0  0  0  0  0  0  0  0  0  0  0  0
   -3.6132   22.3510   22.4174 C   0  0  0  0  0  0  0  0  0  0  0  0
   -5.2525   20.3987   24.4561 C   0  0  0  0  0  0  0  0  0  0  0  0
   -4.7788   20.7662   23.0622 C   0  0  0  0  0  0  0  0  0  0  0  0
   -5.0315   15.4770   25.6715 C   0  0  0  0  0  0  0  0  0  0  0  0
   -8.4731   16.9136   25.0057 C   0  0  0  0  0  0  0  0  0  0  0  0
   -7.0623   16.9902   25.5486 C   0  0  0  0  0  0  0  0  0  0  0  0
   -4.3924   18.0906   24.5658 C   0  0  0  0  0  0  0  0  0  0  0  0
  1  7  1  0
  2 12  1  0
  2 26  1  0
  2 28  1  0
  3  7  1  0
  3 11  1  0
  3 22  1  0
  4  6  1  0
  4 20  1  0
  4 25  1  0
  5 14  1  0
  5 27  1  0
  7 15  1  0
  8 27  1  0
  9 21  1  0
  9 27  1  0
 10 16  1  0
 11 23  1  0
 11 25  1  0
 12 29  1  0
 13 23  1  0
 13 25  1  0
 14 19  1  0
 15 29  1  0
 16 17  1  0
 16 20  1  0
 17 23  1  0
 18 19  1  0
 18 24  1  0
 18 29  1  0
 19 28  1  0
 24 25  1  0
 27 28  1  0
M  END
>  <ID>  (1) 
conformer_0

$$$$
