
     RDKit          3D

 27 31  0  0  0  0  0  0  0  0999 V2000
   -2.0617   19.7446   23.1304 C   0  0  0  0  0  0  0  0  0  0  0  0
   -3.7897   21.6016   22.3321 C   0  0  0  0  0  0  0  0  0  0  0  0
   -2.3232   18.4651   23.8284 C   0  0  0  0  0  0  0  0  0  0  0  0
   -4.7823   21.5962   20.1131 C   0  0  0  0  0  0  0  0  0  0  0  0
   -4.3220   21.5269   23.8550 C   0  0  0  0  0  0  0  0  0  0  0  0
   -2.7944   21.0608   21.2032 C   0  0  0  0  0  0  0  0  0  0  0  0
   -3.5591   20.7103   19.9576 C   0  0  0  0  0  0  0  0  0  0  0  0
   -4.6602   18.6739   23.3376 C   0  0  0  0  0  0  0  0  0  0  0  0
   -4.6010   22.8729   19.8251 O   0  0  0  0  0  0  0  0  0  0  0  0
   -6.5380   17.8006   24.7237 C   0  0  0  0  0  0  0  0  0  0  0  0
   -8.2352   15.9180   27.2216 O   0  0  0  0  0  0  0  0  0  0  0  0
   -7.5159   20.0215   25.5911 C   0  0  0  0  0  0  0  0  0  0  0  0
   -5.7076   16.6237   24.4845 C   0  0  0  0  0  0  0  0  0  0  0  0
   -7.3772   18.5272   25.7938 C   0  0  0  0  0  0  0  0  0  0  0  0
   -1.3906   21.4612   20.9904 C   0  0  0  0  0  0  0  0  0  0  0  0
   -3.6216   17.8049   23.9191 C   0  0  0  0  0  0  0  0  0  0  0  0
   -6.9133   16.2005   25.1389 C   0  0  0  0  0  0  0  0  0  0  0  0
   -4.2387   19.2623   22.0845 C   0  0  0  0  0  0  0  0  0  0  0  0
   -9.1934   15.5162   25.2610 O   0  0  0  0  0  0  0  0  0  0  0  0
   -8.6750   17.7362   25.8628 C   0  0  0  0  0  0  0  0  0  0  0  0
   -4.2928   16.9036   24.8881 C   0  0  0  0  0  0  0  0  0  0  0  0
   -5.1796   21.4411   21.5875 C   0  0  0  0  0  0  0  0  0  0  0  0
   -5.4930   19.9750   21.6255 C   0  0  0  0  0  0  0  0  0  0  0  0
   -5.8651   18.9137   23.9981 O   0  0  0  0  0  0  0  0  0  0  0  0
   -8.2713   16.2246   25.8828 C   0  0  0  0  0  0  0  0  0  0  0  0
   -3.1278   20.2529   22.2747 C   0  0  0  0  0  0  0  0  0  0  0  0
   -3.4763   23.1060   22.3821 C   0  0  0  0  0  0  0  0  0  0  0  0
  1  3  2  0
  1 26  1  0
  2  5  1  0
  2 22  1  0
  2 26  1  0
  2 27  1  0
  3 16  1  0
  4  7  1  0
  4  9  1  0
  4 22  1  0
  6  7  1  0
  6 15  1  0
  6 26  1  0
  8 16  1  0
  8 18  1  0
  8 24  1  0
 10 13  1  0
 10 14  1  0
 10 24  1  0
 11 25  1  0
 12 14  1  0
 13 17  1  0
 13 21  1  0
 14 20  1  0
 16 21  1  0
 17 25  1  0
 18 23  1  0
 18 26  1  0
 19 25  1  0
 20 25  1  0
 22 23  1  0
M  END
>  <ID>  (1) 
conformer_0

$$$$
