
     RDKit          3D

 28 31  0  0  0  0  0  0  0  0999 V2000
   -9.8343   15.9160   25.8832 C   0  0  0  0  0  0  0  0  0  0  0  0
  -10.9418   16.7572   25.7769 C   0  0  0  0  0  0  0  0  0  0  0  0
   -4.4111   19.7359   23.0736 C   0  0  0  0  0  0  0  0  0  0  0  0
   -4.3503   17.4010   23.8098 C   0  0  0  0  0  0  0  0  0  0  0  0
   -1.8234   20.2910   21.3671 C   0  0  0  0  0  0  0  0  0  0  0  0
   -3.9540   21.3969   20.4346 C   0  0  0  0  0  0  0  0  0  0  0  0
   -3.5019   18.6480   24.0996 C   0  0  0  0  0  0  0  0  0  0  0  0
   -2.2096   19.2588   23.6128 C   0  0  0  0  0  0  0  0  0  0  0  0
   -8.7552   17.9718   25.0589 C   0  0  0  0  0  0  0  0  0  0  0  0
   -9.8451   14.7093   25.7990 O   0  0  0  0  0  0  0  0  0  0  0  0
   -2.1069   22.7012   22.4701 C   0  0  0  0  0  0  0  0  0  0  0  0
   -5.7014   16.3587   25.5388 C   0  0  0  0  0  0  0  0  0  0  0  0
   -2.8980   21.6488   23.1147 C   0  0  0  0  0  0  0  0  0  0  0  0
   -4.7154   15.3512   25.0103 C   0  0  0  0  0  0  0  0  0  0  0  0
   -8.5052   16.6617   25.8677 C   0  0  0  0  0  0  0  0  0  0  0  0
   -5.4190   20.9675   22.8324 C   0  0  0  0  0  0  0  0  0  0  0  0
   -5.5498   20.0066   23.9771 C   0  0  0  0  0  0  0  0  0  0  0  0
   -6.0659   20.7201   25.2392 C   0  0  0  0  0  0  0  0  0  0  0  0
   -5.7193   17.5478   24.6315 C   0  0  0  0  0  0  0  0  0  0  0  0
   -7.8181   16.1928   27.0821 O   0  0  0  0  0  0  0  0  0  0  0  0
   -4.1684   22.7686   20.9119 C   0  0  0  0  0  0  0  0  0  0  0  0
   -3.0264   20.2013   22.5107 C   0  0  0  0  0  0  0  0  0  0  0  0
   -7.7373   19.0364   24.7234 C   0  0  0  0  0  0  0  0  0  0  0  0
   -4.0195   19.1803   21.8007 C   0  0  0  0  0  0  0  0  0  0  0  0
   -2.4171   21.0669   20.2479 C   0  0  0  0  0  0  0  0  0  0  0  0
   -7.1501   19.7604   25.9767 C   0  0  0  0  0  0  0  0  0  0  0  0
   -6.4756   18.7154   23.9375 C   0  0  0  0  0  0  0  0  0  0  0  0
   -4.9419   21.6525   21.5072 C   0  0  0  0  0  0  0  0  0  0  0  0
  1  2  1  0
  1 10  2  0
  1 15  1  0
  3  7  1  0
  3 17  1  0
  3 22  1  0
  3 24  1  0
  4  7  1  0
  4 19  1  0
  5 22  1  0
  5 25  1  0
  6 21  1  0
  6 25  1  0
  6 28  1  0
  7  8  1  0
  8 22  1  0
  9 15  1  0
  9 23  1  0
 11 13  1  0
 12 14  1  0
 12 19  1  0
 13 22  1  0
 15 20  1  0
 16 17  1  0
 16 28  1  0
 17 18  1  0
 17 27  1  0
 18 26  1  0
 19 27  1  0
 23 26  1  0
 23 27  1  0
M  END
>  <ID>  (1) 
conformer_0

$$$$
