
     RDKit          3D

 30 34  0  0  0  0  0  0  0  0999 V2000
   -7.7840   18.2780   25.0610 C   0  0  0  0  0  0  0  0  0  0  0  0
   -5.8237   16.9239   25.3088 C   0  0  0  0  0  0  0  0  0  0  0  0
  -10.2903   15.8105   24.7561 N   0  0  0  0  0  0  0  0  0  0  0  0
   -4.4653   16.4739   25.3344 C   0  0  0  0  0  0  0  0  0  0  0  0
  -11.1749   15.1689   25.5459 O   0  0  0  0  0  0  0  0  0  0  0  0
   -2.9429   22.7504   21.8949 C   0  0  0  0  0  0  0  0  0  0  0  0
   -5.3217   23.2906   20.9834 F   0  0  0  0  0  0  0  0  0  0  0  0
   -6.9302   16.0757   25.4575 C   0  0  0  0  0  0  0  0  0  0  0  0
  -10.7066   15.2296   26.8238 C   0  0  0  0  0  0  0  0  0  0  0  0
   -3.8900   20.1608   25.4593 O   0  0  0  0  0  0  0  0  0  0  0  0
   -6.2678   18.3280   25.3341 C   0  0  0  0  0  0  0  0  0  0  0  0
   -1.6415   20.3556   21.8013 C   0  0  0  0  0  0  0  0  0  0  0  0
   -1.4368   19.1886   23.9115 O   0  0  0  0  0  0  0  0  0  0  0  0
   -6.0186   18.8963   26.6268 O   0  0  0  0  0  0  0  0  0  0  0  0
   -3.7487   21.5702   21.4873 C   0  0  0  0  0  0  0  0  0  0  0  0
   -4.7829   21.8625   19.3892 F   0  0  0  0  0  0  0  0  0  0  0  0
   -4.9647   22.0188   20.6912 C   0  0  0  0  0  0  0  0  0  0  0  0
   -5.6312   19.0225   24.1566 C   0  0  0  0  0  0  0  0  0  0  0  0
   -8.0488   17.6337   23.8794 C   0  0  0  0  0  0  0  0  0  0  0  0
   -6.0996   21.1760   21.1395 O   0  0  0  0  0  0  0  0  0  0  0  0
   -4.3949   20.9180   22.5899 C   0  0  0  0  0  0  0  0  0  0  0  0
   -9.5478   15.8883   26.7637 C   0  0  0  0  0  0  0  0  0  0  0  0
   -9.3104   16.2635   25.4755 C   0  0  0  0  0  0  0  0  0  0  0  0
   -5.8300   20.8502   22.4775 C   0  0  0  0  0  0  0  0  0  0  0  0
   -2.7782   20.6761   20.8205 C   0  0  0  0  0  0  0  0  0  0  0  0
   -3.6129   19.8539   23.1456 C   0  0  0  0  0  0  0  0  0  0  0  0
   -4.2396   19.4225   24.4097 C   0  0  0  0  0  0  0  0  0  0  0  0
   -6.5366   19.9528   23.4022 C   0  0  0  0  0  0  0  0  0  0  0  0
   -8.0861   16.8359   25.0324 C   0  0  0  0  0  0  0  0  0  0  0  0
   -2.1766   20.0040   23.1135 C   0  0  0  0  0  0  0  0  0  0  0  0
  1 11  1  0
  1 19  1  0
  2  4  1  0
  2  8  1  0
  2 11  1  0
  3  5  1  0
  3 23  1  0
  5  9  1  0
  6 15  1  0
  7 17  1  0
  8 29  1  0
  9 22  1  0
 10 27  1  0
 11 14  1  0
 11 18  1  0
 12 25  1  0
 12 30  1  0
 13 30  1  0
 15 17  1  0
 15 21  1  0
 15 25  1  0
 16 17  1  0
 17 20  1  0
 18 27  1  0
 18 28  1  0
 19 29  1  0
 20 24  1  0
 21 24  1  0
 21 26  1  0
 22 23  1  0
 23 29  1  0
 24 28  1  0
 26 27  1  0
 26 30  1  0
M  END
>  <ID>  (1) 
conformer_0

$$$$
