
     RDKit          3D

 27 31  0  0  0  0  0  0  0  0999 V2000
   -5.7634   19.7124   23.6943 C   0  0  0  0  0  0  0  0  0  0  0  0
   -2.6665   22.5494   21.4999 C   0  0  0  0  0  0  0  0  0  0  0  0
   -2.8860   22.1592   22.9530 C   0  0  0  0  0  0  0  0  0  0  0  0
   -5.0792   20.7977   22.8911 C   0  0  0  0  0  0  0  0  0  0  0  0
   -4.9029   18.7581   24.4962 C   0  0  0  0  0  0  0  0  0  0  0  0
   -3.0781   19.8814   22.0162 C   0  0  0  0  0  0  0  0  0  0  0  0
   -3.5489   18.2991   23.8705 C   0  0  0  0  0  0  0  0  0  0  0  0
   -4.7266   19.2751   25.9368 C   0  0  0  0  0  0  0  0  0  0  0  0
   -3.1613   21.9916   19.1214 C   0  0  0  0  0  0  0  0  0  0  0  0
   -5.3476   20.3006   21.4244 C   0  0  0  0  0  0  0  0  0  0  0  0
   -9.4128   15.7455   27.1441 C   0  0  0  0  0  0  0  0  0  0  0  0
   -8.9524   16.8690   26.2689 C   0  0  0  0  0  0  0  0  0  0  0  0
   -8.0238   18.6669   24.3310 C   0  0  0  0  0  0  0  0  0  0  0  0
   -7.2652   19.8829   23.8200 C   0  0  0  0  0  0  0  0  0  0  0  0
   -6.5687   15.5747   25.5931 O   0  0  0  0  0  0  0  0  0  0  0  0
   -3.7189   21.9276   20.5250 C   0  0  0  0  0  0  0  0  0  0  0  0
   -5.7648   17.4762   24.4473 C   0  0  0  0  0  0  0  0  0  0  0  0
   -1.6131   19.7609   22.0120 C   0  0  0  0  0  0  0  0  0  0  0  0
   -3.5609   20.8298   23.1983 C   0  0  0  0  0  0  0  0  0  0  0  0
   -3.6654   18.5024   22.3698 O   0  0  0  0  0  0  0  0  0  0  0  0
   -3.8925   20.4130   20.8411 C   0  0  0  0  0  0  0  0  0  0  0  0
   -4.8734   22.6855   20.4828 O   0  0  0  0  0  0  0  0  0  0  0  0
   -7.0898   17.7137   25.0275 C   0  0  0  0  0  0  0  0  0  0  0  0
   -5.7075   22.1886   23.2413 C   0  0  0  0  0  0  0  0  0  0  0  0
   -7.6765   16.4696   25.5445 C   0  0  0  0  0  0  0  0  0  0  0  0
   -8.4878   14.7174   27.3762 O   0  0  0  0  0  0  0  0  0  0  0  0
   -5.3804   16.1205   24.9103 C   0  0  0  0  0  0  0  0  0  0  0  0
  1  4  1  0
  1  5  1  0
  1 14  1  0
  2  3  1  0
  2 16  1  0
  3 19  1  0
  4 10  1  0
  4 19  1  0
  4 24  1  0
  5  7  1  0
  5  8  1  0
  5 17  1  0
  6 18  1  0
  6 19  1  0
  6 20  1  0
  6 21  1  0
  7 20  1  0
  9 16  1  0
 10 21  1  0
 11 12  1  0
 11 26  1  0
 12 25  1  0
 13 14  1  0
 13 23  1  0
 15 25  1  0
 15 27  1  0
 16 21  1  0
 16 22  1  0
 17 23  1  0
 17 27  1  0
 23 25  1  0
M  END
>  <ID>  (1) 
conformer_0

$$$$
