
     RDKit          3D

 25 26  0  0  0  0  0  0  0  0999 V2000
   -8.6915   18.0101   23.6283 C   0  0  0  0  0  0  0  0  0  0  0  0
   -6.4207   19.3798   23.6035 C   0  0  0  0  0  0  0  0  0  0  0  0
   -4.2154   18.5950   23.9949 C   0  0  0  0  0  0  0  0  0  0  0  0
  -10.1066   16.9136   25.8895 C   0  0  0  0  0  0  0  0  0  0  0  0
   -4.9580   20.9540   20.1001 O   0  0  0  0  0  0  0  0  0  0  0  0
   -4.8623   21.1560   23.1775 C   0  0  0  0  0  0  0  0  0  0  0  0
   -7.9006   17.4060   24.7822 C   0  0  0  0  0  0  0  0  0  0  0  0
   -5.5876   20.0752   22.6498 C   0  0  0  0  0  0  0  0  0  0  0  0
   -4.1683   20.2912   22.2956 C   0  0  0  0  0  0  0  0  0  0  0  0
   -3.4072   19.1832   22.8263 C   0  0  0  0  0  0  0  0  0  0  0  0
   -6.4965   16.9748   24.2381 C   0  0  0  0  0  0  0  0  0  0  0  0
   -8.9278   16.4200   25.3350 C   0  0  0  0  0  0  0  0  0  0  0  0
   -8.8126   15.2668   25.0600 O   0  0  0  0  0  0  0  0  0  0  0  0
   -3.2339   17.9705   25.0044 C   0  0  0  0  0  0  0  0  0  0  0  0
   -5.9663   15.9909   25.1362 O   0  0  0  0  0  0  0  0  0  0  0  0
   -8.4145   19.6438   25.9203 C   0  0  0  0  0  0  0  0  0  0  0  0
   -7.5574   18.3498   25.9740 C   0  0  0  0  0  0  0  0  0  0  0  0
   -5.6506   18.3113   24.4342 C   0  0  0  0  0  0  0  0  0  0  0  0
   -2.5765   20.2880   22.9143 C   0  0  0  0  0  0  0  0  0  0  0  0
   -5.3816   22.4496   22.8736 C   0  0  0  0  0  0  0  0  0  0  0  0
   -1.7592   20.6311   21.7799 C   0  0  0  0  0  0  0  0  0  0  0  0
   -2.5658   20.8226   20.5587 C   0  0  0  0  0  0  0  0  0  0  0  0
   -6.0086   18.5764   25.9610 C   0  0  0  0  0  0  0  0  0  0  0  0
   -3.9837   20.6772   20.9005 C   0  0  0  0  0  0  0  0  0  0  0  0
   -6.3407   19.1517   22.2674 O   0  0  0  0  0  0  0  0  0  0  0  0
  1  7  1  0
  2 18  1  0
  3 10  1  0
  3 14  1  0
  3 18  1  0
  4 12  1  0
  5 24  1  0
  6  8  1  0
  6  9  1  0
  6 20  1  0
  7 11  1  0
  7 12  1  0
  7 17  1  0
  8 25  1  0
  9 10  1  0
  9 24  1  0
 10 19  1  0
 11 15  1  0
 11 18  1  0
 12 13  2  0
 16 17  1  0
 17 23  1  0
 18 23  1  0
 19 21  1  0
 21 22  1  0
 22 24  1  0
M  END
>  <ID>  (1) 
conformer_0

$$$$
