
     RDKit          3D

 27 29  0  0  0  0  0  0  0  0999 V2000
   -1.7435   19.3058   22.6122 C   0  0  0  0  0  0  0  0  0  0  0  0
   -4.8611   20.3089   22.8873 C   0  0  0  0  0  0  0  0  0  0  0  0
   -5.7811   21.4591   22.5661 C   0  0  0  0  0  0  0  0  0  0  0  0
   -8.9057   16.0281   26.8412 C   0  0  0  0  0  0  0  0  0  0  0  0
   -7.9678   19.2547   25.1075 C   0  0  0  0  0  0  0  0  0  0  0  0
   -4.6310   19.4840   21.6552 C   0  0  0  0  0  0  0  0  0  0  0  0
   -7.7305   17.7610   25.0344 C   0  0  0  0  0  0  0  0  0  0  0  0
   -3.1455   22.2953   20.2145 C   0  0  0  0  0  0  0  0  0  0  0  0
   -5.6214   17.9517   23.5377 C   0  0  0  0  0  0  0  0  0  0  0  0
   -3.5960   19.9689   20.7294 C   0  0  0  0  0  0  0  0  0  0  0  0
   -9.7090   16.4324   25.6671 C   0  0  0  0  0  0  0  0  0  0  0  0
   -5.3658   22.1160   21.2869 C   0  0  0  0  0  0  0  0  0  0  0  0
   -2.9824   21.2430   21.3103 C   0  0  0  0  0  0  0  0  0  0  0  0
   -2.3995   20.6289   22.7281 C   0  0  0  0  0  0  0  0  0  0  0  0
   -8.9864   17.1218   24.5207 C   0  0  0  0  0  0  0  0  0  0  0  0
   -4.3022   17.0419   23.3204 C   0  0  0  0  0  0  0  0  0  0  0  0
   -9.5936   15.6356   27.8607 O   0  0  0  0  0  0  0  0  0  0  0  0
  -10.9302   17.2971   26.0185 C   0  0  0  0  0  0  0  0  0  0  0  0
   -6.3219   17.3385   24.8099 C   0  0  0  0  0  0  0  0  0  0  0  0
   -3.9110   22.3804   21.3701 C   0  0  0  0  0  0  0  0  0  0  0  0
   -5.7093   19.4438   23.8465 C   0  0  0  0  0  0  0  0  0  0  0  0
   -3.5762   20.6955   23.6060 C   0  0  0  0  0  0  0  0  0  0  0  0
   -3.5120   20.4632   24.9440 O   0  0  0  0  0  0  0  0  0  0  0  0
   -6.9987   20.0686   24.3101 C   0  0  0  0  0  0  0  0  0  0  0  0
   -5.3388   17.3554   25.8381 O   0  0  0  0  0  0  0  0  0  0  0  0
   -7.6483   15.8175   26.9239 O   0  0  0  0  0  0  0  0  0  0  0  0
   -1.7288   21.5492   21.9559 C   0  0  0  0  0  0  0  0  0  0  0  0
  1 14  1  0
  2  3  1  0
  2  6  1  0
  2 21  1  0
  2 22  1  0
  3 12  1  0
  4 11  1  0
  4 17  2  0
  4 26  1  0
  5  7  1  0
  5 24  1  0
  6 10  1  0
  7 15  1  0
  7 19  1  0
  8 20  1  0
  9 16  1  0
  9 19  1  0
  9 21  1  0
 10 13  1  0
 11 15  1  0
 11 18  1  0
 12 20  1  0
 13 20  1  0
 13 27  1  0
 14 22  1  0
 14 27  1  0
 19 25  1  0
 21 24  1  0
 22 23  1  0
M  END
>  <ID>  (1) 
conformer_0

$$$$
