
     RDKit          3D

 15 15  0  0  0  0  0  0  0  0999 V2000
   -5.2575   16.8663   25.0606 C   0  0  0  0  0  0  0  0  0  0  0  0
   -3.9240   20.5203   21.8784 C   0  0  0  0  0  0  0  0  0  0  0  0
   -5.3773   20.8829   22.0929 C   0  0  0  0  0  0  0  0  0  0  0  0
   -7.6092   16.6257   24.1817 C   0  0  0  0  0  0  0  0  0  0  0  0
   -3.6956   19.1564   22.4371 C   0  0  0  0  0  0  0  0  0  0  0  0
   -5.9425   19.9214   23.1690 C   0  0  0  0  0  0  0  0  0  0  0  0
   -7.1677   18.7019   25.6424 C   0  0  0  0  0  0  0  0  0  0  0  0
   -6.6212   17.5205   24.8256 C   0  0  0  0  0  0  0  0  0  0  0  0
   -8.0032   16.2262   26.6758 N   0  0  0  0  0  0  0  0  0  0  0  0
   -4.8425   18.7747   23.3748 C   0  0  0  0  0  0  0  0  0  0  0  0
   -6.7603   20.1388   25.9235 C   0  0  0  0  0  0  0  0  0  0  0  0
   -4.1885   17.6265   24.2778 C   0  0  0  0  0  0  0  0  0  0  0  0
   -8.5301   16.0941   25.2921 C   0  0  0  0  0  0  0  0  0  0  0  0
   -3.1706   21.7500   19.8922 C   0  0  0  0  0  0  0  0  0  0  0  0
   -2.7359   21.1077   21.2052 C   0  0  0  0  0  0  0  0  0  0  0  0
  1  8  1  0
  1 12  1  0
  2  3  1  0
  2  5  1  0
  2 15  1  0
  3  6  1  0
  4  8  1  0
  4 13  1  0
  5 10  1  0
  6 10  1  0
  7  8  1  0
  7 11  1  0
  9 13  1  0
 10 12  1  0
 14 15  1  0
M  END
>  <ID>  (1) 
conformer_0

$$$$
