
     RDKit          3D

 17 16  0  0  0  0  0  0  0  0999 V2000
   -4.1086   20.1099   23.2665 C   0  0  0  0  0  0  0  0  0  0  0  0
   -6.3057   16.5995   24.9717 C   0  0  0  0  0  0  0  0  0  0  0  0
   -4.9026   17.0282   24.3374 C   0  0  0  0  0  0  0  0  0  0  0  0
   -8.9618   16.5411   26.1570 C   0  0  0  0  0  0  0  0  0  0  0  0
   -6.8895   17.9268   25.6837 C   0  0  0  0  0  0  0  0  0  0  0  0
   -3.3131   22.5182   20.4220 C   0  0  0  0  0  0  0  0  0  0  0  0
   -3.3612   21.0586   22.4089 C   0  0  0  0  0  0  0  0  0  0  0  0
   -8.8614   15.4487   25.6301 O   0  0  0  0  0  0  0  0  0  0  0  0
   -2.0740   18.5501   23.3132 C   0  0  0  0  0  0  0  0  0  0  0  0
   -2.1553   21.2767   22.6714 O   0  0  0  0  0  0  0  0  0  0  0  0
   -3.9948   21.6671   21.3357 O   0  0  0  0  0  0  0  0  0  0  0  0
   -4.0530   18.2146   24.9857 C   0  0  0  0  0  0  0  0  0  0  0  0
   -6.2948   20.6659   22.1623 N   0  0  0  0  0  0  0  0  0  0  0  0
   -5.3252   19.6509   22.5764 C   0  0  0  0  0  0  0  0  0  0  0  0
   -9.5602   16.6963   27.2467 O   0  0  0  0  0  0  0  0  0  0  0  0
   -8.4554   17.8420   25.5025 C   0  0  0  0  0  0  0  0  0  0  0  0
   -3.2876   19.1575   24.0557 C   0  0  0  0  0  0  0  0  0  0  0  0
  1  7  1  0
  1 14  1  0
  1 17  1  0
  2  3  1  0
  2  5  1  0
  3 12  1  0
  4  8  2  0
  4 15  1  0
  4 16  1  0
  5 16  1  0
  6 11  1  0
  7 10  2  0
  7 11  1  0
  9 17  1  0
 12 17  1  0
 13 14  1  0
M  END
>  <ID>  (1) 
conformer_0

$$$$
