
     RDKit          3D

 26 30  0  0  0  0  0  0  0  0999 V2000
   -1.3922   19.7254   21.6660 O   0  0  0  0  0  0  0  0  0  0  0  0
   -6.0276   20.5749   21.4087 C   0  0  0  0  0  0  0  0  0  0  0  0
   -5.8925   16.8713   25.0986 C   0  0  0  0  0  0  0  0  0  0  0  0
   -4.9383   20.1050   22.1367 C   0  0  0  0  0  0  0  0  0  0  0  0
   -3.5408   21.5136   23.3463 C   0  0  0  0  0  0  0  0  0  0  0  0
   -2.8173   21.3906   20.5862 C   0  0  0  0  0  0  0  0  0  0  0  0
   -7.2660   18.5554   24.1046 C   0  0  0  0  0  0  0  0  0  0  0  0
   -5.9950   18.0444   24.3639 C   0  0  0  0  0  0  0  0  0  0  0  0
   -4.7418   18.7094   23.9464 C   0  0  0  0  0  0  0  0  0  0  0  0
   -5.3307   20.1179   23.6206 C   0  0  0  0  0  0  0  0  0  0  0  0
   -7.0053   16.3795   25.7808 C   0  0  0  0  0  0  0  0  0  0  0  0
   -9.2521   15.8423   27.5757 N   0  0  0  0  0  0  0  0  0  0  0  0
   -4.4829   21.0745   24.4977 C   0  0  0  0  0  0  0  0  0  0  0  0
   -4.6290   22.8232   19.8389 O   0  0  0  0  0  0  0  0  0  0  0  0
   -5.0909   21.4384   21.6095 C   0  0  0  0  0  0  0  0  0  0  0  0
   -4.5991   16.1574   25.1030 C   0  0  0  0  0  0  0  0  0  0  0  0
   -9.4154   16.5223   26.4174 C   0  0  0  0  0  0  0  0  0  0  0  0
   -3.4763   20.1539   22.5770 C   0  0  0  0  0  0  0  0  0  0  0  0
   -8.4071   18.0340   24.7012 C   0  0  0  0  0  0  0  0  0  0  0  0
   -3.3231   18.9906   23.4909 C   0  0  0  0  0  0  0  0  0  0  0  0
  -10.6071   16.6910   25.9527 O   0  0  0  0  0  0  0  0  0  0  0  0
   -4.2094   21.7072   20.4249 C   0  0  0  0  0  0  0  0  0  0  0  0
   -4.6360   22.4341   22.5965 C   0  0  0  0  0  0  0  0  0  0  0  0
   -8.2703   16.9926   25.6250 C   0  0  0  0  0  0  0  0  0  0  0  0
   -2.3821   22.1240   23.4823 O   0  0  0  0  0  0  0  0  0  0  0  0
   -2.5933   20.1900   21.4137 C   0  0  0  0  0  0  0  0  0  0  0  0
  1 26  1  0
  2  4  1  0
  2 15  1  0
  3  8  2  0
  3 11  1  0
  3 16  1  0
  4 10  1  0
  4 18  1  0
  5 13  1  0
  5 18  1  0
  5 23  1  0
  5 25  1  0
  6 22  1  0
  6 26  1  0
  7  8  1  0
  7 19  2  0
  8  9  1  0
  9 10  1  0
  9 20  1  0
 10 13  1  0
 11 24  2  0
 12 17  1  0
 14 22  1  0
 15 22  1  0
 15 23  1  0
 17 21  2  0
 17 24  1  0
 18 20  1  0
 18 26  1  0
 19 24  1  0
M  END
>  <ID>  (1) 
conformer_0

$$$$
