
     RDKit          3D

 26 29  0  0  0  0  0  0  0  0999 V2000
   -3.5661   19.3026   21.6084 C   0  0  0  0  0  0  0  0  0  0  0  0
   -7.4478   18.3087   25.0041 C   0  0  0  0  0  0  0  0  0  0  0  0
   -4.9222   18.8624   25.4779 C   0  0  0  0  0  0  0  0  0  0  0  0
   -8.7693   16.0509   25.7739 S   0  0  0  0  0  4  0  0  0  0  0  0
   -4.1994   20.4230   23.7934 C   0  0  0  0  0  0  0  0  0  0  0  0
   -3.6679   23.1558   21.1020 C   0  0  0  0  0  0  0  0  0  0  0  0
   -4.1638   20.2453   25.2712 C   0  0  0  0  0  0  0  0  0  0  0  0
   -3.1989   19.5258   23.1008 C   0  0  0  0  0  0  0  0  0  0  0  0
  -10.4141   16.9094   25.5729 C   0  0  0  0  0  0  0  0  0  0  0  0
   -3.4466   21.8143   21.8007 C   0  0  0  0  0  0  0  0  0  0  0  0
   -4.5210   16.3967   24.9420 C   0  0  0  0  0  0  0  0  0  0  0  0
   -4.0296   17.8068   24.8719 C   0  0  0  0  0  0  0  0  0  0  0  0
   -6.2216   19.0535   24.8561 C   0  0  0  0  0  0  0  0  0  0  0  0
   -2.0008   21.4776   22.1571 C   0  0  0  0  0  0  0  0  0  0  0  0
   -8.5227   19.1963   25.7641 C   0  0  0  0  0  0  0  0  0  0  0  0
   -1.9427   20.3860   23.2167 C   0  0  0  0  0  0  0  0  0  0  0  0
   -4.0389   20.6066   20.9464 C   0  0  0  0  0  0  0  0  0  0  0  0
   -5.5953   20.8360   21.0451 C   0  0  0  0  0  0  0  0  0  0  0  0
   -3.4997   20.7437   19.5416 C   0  0  0  0  0  0  0  0  0  0  0  0
   -8.5907   15.3092   24.4631 O   0  0  0  0  0  1  0  0  0  0  0  0
   -4.3713   21.7246   23.0628 C   0  0  0  0  0  0  0  0  0  0  0  0
   -7.3217   17.0662   25.8877 N   0  0  0  0  0  0  0  0  0  0  0  0
   -5.8029   21.6861   22.3713 C   0  0  0  0  0  0  0  0  0  0  0  0
   -8.8931   15.1447   27.0508 O   0  0  0  0  0  1  0  0  0  0  0  0
   -3.0273   18.1884   23.8550 C   0  0  0  0  0  0  0  0  0  0  0  0
   -8.0237   17.9977   23.5116 C   0  0  0  0  0  0  0  0  0  0  0  0
  1  8  1  0
  1 17  1  0
  2 13  1  0
  2 15  1  0
  2 22  1  0
  2 26  1  0
  3  7  1  0
  3 12  1  0
  3 13  1  0
  4  9  1  0
  4 20  1  0
  4 22  1  0
  4 24  1  0
  5  7  1  0
  5  8  1  0
  5 21  1  0
  6 10  1  0
  8 16  1  0
  8 25  1  0
 10 14  1  0
 10 17  1  0
 10 21  1  0
 11 12  1  0
 12 25  1  0
 14 16  1  0
 17 18  1  0
 17 19  1  0
 18 23  1  0
 21 23  1  0
M  END
>  <ID>  (1) 
conformer_0

$$$$
