
     RDKit          3D

 27 30  0  0  0  0  0  0  0  0999 V2000
   -5.4507   19.9704   22.7793 C   0  0  0  0  0  0  0  0  0  0  0  0
   -4.3782   17.0448   25.4967 C   0  0  0  0  0  0  0  0  0  0  0  0
   -4.1549   22.8249   22.1178 C   0  0  0  0  0  0  0  0  0  0  0  0
   -9.4126   16.0302   27.7039 O   0  0  0  0  0  0  0  0  0  0  0  0
   -4.0517   21.8535   19.6521 C   0  0  0  0  0  0  0  0  0  0  0  0
   -8.1047   18.0429   25.3041 C   0  0  0  0  0  0  0  0  0  0  0  0
   -3.3553   17.8036   24.6425 C   0  0  0  0  0  0  0  0  0  0  0  0
   -5.3590   21.4241   20.3882 C   0  0  0  0  0  0  0  0  0  0  0  0
   -9.3945   15.8676   26.4335 C   0  0  0  0  0  0  0  0  0  0  0  0
   -3.9562   20.3536   22.5518 C   0  0  0  0  0  0  0  0  0  0  0  0
   -5.6930   17.6004   23.6015 O   0  0  0  0  0  0  0  0  0  0  0  0
   -3.2000   21.5702   21.9058 C   0  0  0  0  0  0  0  0  0  0  0  0
   -1.8265   21.9909   22.5278 C   0  0  0  0  0  0  0  0  0  0  0  0
   -3.1584   19.0692   22.0309 C   0  0  0  0  0  0  0  0  0  0  0  0
   -2.8710   21.2306   20.4173 C   0  0  0  0  0  0  0  0  0  0  0  0
   -6.7729   16.0034   26.4205 O   0  0  0  0  0  0  0  0  0  0  0  0
   -9.7207   14.7908   25.9117 O   0  0  0  0  0  0  0  0  0  0  0  0
   -5.6770   17.5049   24.9653 C   0  0  0  0  0  0  0  0  0  0  0  0
   -5.4819   18.9242   24.0974 C   0  0  0  0  0  0  0  0  0  0  0  0
   -7.0573   19.2838   24.5577 C   0  0  0  0  0  0  0  0  0  0  0  0
   -1.6889   19.0652   22.5859 C   0  0  0  0  0  0  0  0  0  0  0  0
   -3.9745   19.1895   24.5718 C   0  0  0  0  0  0  0  0  0  0  0  0
  -10.6767   17.6640   25.5437 O   0  0  0  0  0  0  0  0  0  0  0  0
   -3.5630   20.5276   24.1095 C   0  0  0  0  0  0  0  0  0  0  0  0
   -9.4010   17.1063   25.5369 C   0  0  0  0  0  0  0  0  0  0  0  0
   -5.5313   22.3951   21.5845 C   0  0  0  0  0  0  0  0  0  0  0  0
   -6.9112   17.1636   25.7670 C   0  0  0  0  0  0  0  0  0  0  0  0
  1 10  1  0
  1 19  1  0
  2  7  1  0
  2 18  1  0
  3 12  1  0
  3 26  1  0
  4  9  2  0
  5  8  1  0
  5 15  1  0
  6 20  1  0
  6 25  1  0
  6 27  1  0
  7 22  1  0
  8 26  1  0
  9 17  1  0
  9 25  1  0
 10 12  1  0
 10 14  1  0
 10 24  1  0
 11 18  1  0
 11 19  1  0
 12 13  1  0
 12 15  1  0
 14 21  1  0
 16 27  1  0
 18 27  1  0
 19 20  1  0
 19 22  1  0
 22 24  1  0
 23 25  1  0
M  END
>  <ID>  (1) 
conformer_0

$$$$
