
     RDKit          3D

 31 35  0  0  0  0  0  0  0  0999 V2000
   -3.4081   21.2397   21.2402 C   0  0  0  0  0  0  0  0  0  0  0  0
   -4.3248   21.6751   18.6128 C   0  0  0  0  0  0  0  0  0  0  0  0
   -4.4309   15.9398   24.4751 C   0  0  0  0  0  0  0  0  0  0  0  0
   -4.7944   21.2128   20.8976 C   0  0  0  0  0  0  0  0  0  0  0  0
   -8.9362   17.1110   23.6900 C   0  0  0  0  0  0  0  0  0  0  0  0
   -6.9180   18.4187   22.9989 O   0  0  0  0  0  0  0  0  0  0  0  0
   -7.0972   16.8540   26.2500 C   0  0  0  0  0  0  0  0  0  0  0  0
   -6.7593   17.1510   24.9131 C   0  0  0  0  0  0  0  0  0  0  0  0
   -5.3478   17.0946   24.6187 C   0  0  0  0  0  0  0  0  0  0  0  0
   -9.2609   16.3312   25.9607 C   0  0  0  0  0  0  0  0  0  0  0  0
   -2.9730   20.2448   23.6608 C   0  0  0  0  0  0  0  0  0  0  0  0
   -4.7818   18.3672   24.3380 C   0  0  0  0  0  0  0  0  0  0  0  0
  -11.0846   15.0175   23.5431 O   0  0  0  0  0  0  0  0  0  0  0  0
   -5.8203   20.7951   21.8274 C   0  0  0  0  0  0  0  0  0  0  0  0
   -2.8332   19.9991   22.1462 C   0  0  0  0  0  0  0  0  0  0  0  0
   -5.2512   21.4968   19.6232 C   0  0  0  0  0  0  0  0  0  0  0  0
   -2.5623   21.3026   20.1100 C   0  0  0  0  0  0  0  0  0  0  0  0
   -4.9305   21.1590   25.1054 O   0  0  0  0  0  0  0  0  0  0  0  0
  -11.5455   15.3636   25.5922 O   0  0  0  0  0  0  0  0  0  0  0  0
   -2.9986   21.5058   18.8775 C   0  0  0  0  0  0  0  0  0  0  0  0
   -4.0004   22.4799   23.3075 C   0  0  0  0  0  0  0  0  0  0  0  0
   -4.2984   21.0196   23.8172 C   0  0  0  0  0  0  0  0  0  0  0  0
   -5.7391   19.0280   23.4062 C   0  0  0  0  0  0  0  0  0  0  0  0
   -7.6099   17.5450   23.9012 C   0  0  0  0  0  0  0  0  0  0  0  0
   -4.6723   15.0032   25.6837 C   0  0  0  0  0  0  0  0  0  0  0  0
   -3.1336   22.3948   22.1797 C   0  0  0  0  0  0  0  0  0  0  0  0
   -9.6324   16.3875   24.7141 C   0  0  0  0  0  0  0  0  0  0  0  0
   -8.2681   16.4744   26.7884 C   0  0  0  0  0  0  0  0  0  0  0  0
   -5.2356   20.2534   22.9490 C   0  0  0  0  0  0  0  0  0  0  0  0
  -10.8941   15.6796   24.5572 C   0  0  0  0  0  0  0  0  0  0  0  0
   -1.7020   22.5873   22.4069 C   0  0  0  0  0  0  0  0  0  0  0  0
  1  4  1  0
  1 15  1  0
  1 17  1  0
  1 26  1  0
  2 16  2  0
  2 20  1  0
  3  9  1  0
  3 25  1  0
  4 14  1  0
  4 16  1  0
  5 24  2  0
  5 27  1  0
  6 23  1  0
  6 24  1  0
  7  8  1  0
  7 28  1  0
  8  9  1  0
  8 24  1  0
  9 12  1  0
 10 27  1  0
 10 28  2  0
 11 15  1  0
 11 22  1  0
 12 23  1  0
 13 30  2  0
 14 29  1  0
 17 20  2  0
 18 22  1  0
 19 30  1  0
 21 22  1  0
 21 26  1  0
 22 29  1  0
 23 29  1  0
 26 31  1  0
 27 30  1  0
M  END
>  <ID>  (1) 
conformer_0

$$$$
