
     RDKit          3D

 19 20  0  0  0  0  0  0  0  0999 V2000
   -2.3310   20.4129   22.0546 C   0  0  0  0  0  0  0  0  0  0  0  0
   -2.8176   20.8483   20.6771 C   0  0  0  0  0  0  0  0  0  0  0  0
   -4.6093   19.6204   22.6867 C   0  0  0  0  0  0  0  0  0  0  0  0
   -4.3457   20.7463   20.6284 C   0  0  0  0  0  0  0  0  0  0  0  0
   -7.7587   18.7345   24.5675 C   0  0  0  0  0  0  0  0  0  0  0  0
   -4.9698   21.9917   23.3204 C   0  0  0  0  0  0  0  0  0  0  0  0
   -3.7269   17.3737   24.3445 C   0  0  0  0  0  0  0  0  0  0  0  0
   -4.9079   20.9502   22.0791 C   0  0  0  0  0  0  0  0  0  0  0  0
   -7.4792   15.8743   27.0871 O   0  0  0  0  0  1  0  0  0  0  0  0
   -8.6690   15.5088   24.9255 N   0  0  0  0  0  0  0  0  0  0  0  0
   -5.1138   17.8985   24.2998 C   0  0  0  0  0  0  0  0  0  0  0  0
   -6.8417   19.4557   23.7710 C   0  0  0  0  0  0  0  0  0  0  0  0
   -7.3173   17.5563   25.1616 C   0  0  0  0  0  0  0  0  0  0  0  0
   -8.3148   16.4666   26.0236 S   0  0  0  0  0  4  0  0  0  0  0  0
   -9.4650   17.1111   26.5447 O   0  0  0  0  0  1  0  0  0  0  0  0
   -5.9960   17.1839   25.0254 C   0  0  0  0  0  0  0  0  0  0  0  0
   -2.0367   21.3871   22.9408 O   0  0  0  0  0  0  0  0  0  0  0  0
   -5.5216   19.0144   23.5879 C   0  0  0  0  0  0  0  0  0  0  0  0
   -3.1860   19.2662   22.5521 C   0  0  0  0  0  0  0  0  0  0  0  0
  1  2  1  0
  1 17  1  0
  1 19  1  0
  2  4  1  0
  3  8  1  0
  3 18  1  0
  3 19  1  0
  4  8  1  0
  5 12  2  0
  5 13  1  0
  6  8  1  0
  7 11  1  0
  9 14  1  0
 10 14  1  0
 11 16  1  0
 11 18  2  0
 12 18  1  0
 13 14  1  0
 13 16  2  0
 14 15  1  0
M  END
>  <ID>  (1) 
conformer_0

$$$$
