
     RDKit          3D

 32 35  0  0  0  0  0  0  0  0999 V2000
   -2.8471   17.5575   24.0305 O   0  0  0  0  0  0  0  0  0  0  0  0
   -1.4395   19.9748   21.6849 C   0  0  0  0  0  0  0  0  0  0  0  0
   -4.6697   16.1139   24.8780 C   0  0  0  0  0  0  0  0  0  0  0  0
   -4.0075   20.2612   21.4694 C   0  0  0  0  0  0  0  0  0  0  0  0
  -10.1001   16.4075   24.3277 C   0  0  0  0  0  0  0  0  0  0  0  0
   -7.0770   18.4787   23.0955 C   0  0  0  0  0  0  0  0  0  0  0  0
   -9.0090   16.9332   23.4384 C   0  0  0  0  0  0  0  0  0  0  0  0
   -2.4907   18.8878   23.6722 C   0  0  0  0  0  0  0  0  0  0  0  0
  -11.2008   15.3922   24.2643 C   0  0  0  0  0  0  0  0  0  0  0  0
   -2.1321   19.9453   22.9817 C   0  0  0  0  0  0  0  0  0  0  0  0
   -4.1284   17.4221   24.6190 C   0  0  0  0  0  0  0  0  0  0  0  0
   -3.2375   21.1412   20.6364 C   0  0  0  0  0  0  0  0  0  0  0  0
   -7.0465   18.8432   26.2100 O   0  0  0  0  0  0  0  0  0  0  0  0
   -5.7553   18.7020   23.7414 C   0  0  0  0  0  0  0  0  0  0  0  0
   -3.5621   19.4529   22.7346 C   0  0  0  0  0  0  0  0  0  0  0  0
   -1.7258   21.2517   20.8192 C   0  0  0  0  0  0  0  0  0  0  0  0
   -4.8406   18.7067   24.7065 C   0  0  0  0  0  0  0  0  0  0  0  0
   -3.3728   22.0109   23.1087 C   0  0  0  0  0  0  0  0  0  0  0  0
   -4.2929   21.1403   24.0915 C   0  0  0  0  0  0  0  0  0  0  0  0
   -9.6891   16.6007   25.6968 N   0  0  0  0  0  0  0  0  0  0  0  0
   -8.1410   17.9737   24.0529 C   0  0  0  0  0  0  0  0  0  0  0  0
  -11.7118   15.0714   25.3584 O   0  0  0  0  0  0  0  0  0  0  0  0
   -5.6505   20.8884   23.3266 C   0  0  0  0  0  0  0  0  0  0  0  0
  -11.4895   14.9285   23.1546 O   0  0  0  0  0  0  0  0  0  0  0  0
   -4.7463   19.7799   23.7137 C   0  0  0  0  0  0  0  0  0  0  0  0
   -3.5787   21.4768   19.3551 O   0  0  0  0  0  0  0  0  0  0  0  0
   -4.8901   22.7063   21.3552 O   0  0  0  0  0  0  0  0  0  0  0  0
   -7.6747   17.9086   25.4368 C   0  0  0  0  0  0  0  0  0  0  0  0
   -3.9378   21.7193   21.7096 C   0  0  0  0  0  0  0  0  0  0  0  0
   -7.6628   16.1838   27.1213 O   0  0  0  0  0  0  0  0  0  0  0  0
   -4.0248   18.8796   21.4967 C   0  0  0  0  0  0  0  0  0  0  0  0
   -8.4496   16.9007   26.2496 C   0  0  0  0  0  0  0  0  0  0  0  0
  1  8  1  0
  1 11  1  0
  2 10  1  0
  2 16  1  0
  3 11  1  0
  4 12  1  0
  4 31  1  0
  5  7  1  0
  5  9  1  0
  5 20  1  0
  6 14  1  0
  6 21  1  0
  7 21  1  0
  8 10  1  0
  8 15  1  0
  9 22  2  0
  9 24  1  0
 11 17  1  0
 12 16  1  0
 12 26  1  0
 12 29  1  0
 13 28  1  0
 14 17  1  0
 15 25  1  0
 15 31  1  0
 17 25  1  0
 18 19  1  0
 18 29  1  0
 19 25  1  0
 20 32  1  0
 21 28  1  0
 23 25  1  0
 27 29  1  0
 28 32  1  0
 30 32  2  0
M  END
>  <ID>  (1) 
conformer_0

$$$$
