
     RDKit          3D

 32 35  0  0  0  0  0  0  0  0999 V2000
   -4.4525   21.9203   22.2214 C   0  0  0  0  0  0  0  0  0  0  0  0
   -9.9406   17.0724   25.7145 C   0  0  0  0  0  0  0  0  0  0  0  0
   -7.6071   15.7591   25.0570 O   0  0  0  0  0  0  0  0  0  0  0  0
   -9.8868   16.2739   27.0227 N   0  0  0  0  0  0  0  0  0  0  0  0
   -6.8225   20.8725   25.7579 O   0  0  0  0  0  0  0  0  0  0  0  0
   -2.5876   22.4569   20.8166 C   0  0  0  0  0  0  0  0  0  0  0  0
   -3.7234   18.2193   23.5909 C   0  0  0  0  0  0  0  0  0  0  0  0
   -9.2339   15.2568   27.4808 O   0  0  0  0  0  1  0  0  0  0  0  0
   -5.0008   20.7850   21.3212 C   0  0  0  0  0  0  0  0  0  0  0  0
   -6.2863   20.9232   20.7712 O   0  0  0  0  0  0  0  0  0  0  0  0
   -3.8049   19.3894   22.7681 C   0  0  0  0  0  0  0  0  0  0  0  0
   -2.9382   21.7212   22.1589 C   0  0  0  0  0  0  0  0  0  0  0  0
   -4.0638   20.4862   20.1925 C   0  0  0  0  0  0  0  0  0  0  0  0
   -6.4254   17.6773   24.7551 C   0  0  0  0  0  0  0  0  0  0  0  0
   -6.5877   19.0431   24.4133 C   0  0  0  0  0  0  0  0  0  0  0  0
   -2.1251   22.3724   23.0996 O   0  0  0  0  0  0  0  0  0  0  0  0
   -1.6808   19.9963   21.3032 C   0  0  0  0  0  0  0  0  0  0  0  0
   -4.7261   21.8804   23.6444 O   0  0  0  0  0  0  0  0  0  0  0  0
   -8.6979   17.8154   25.5465 C   0  0  0  0  0  0  0  0  0  0  0  0
   -2.6772   20.2297   22.3715 C   0  0  0  0  0  0  0  0  0  0  0  0
   -5.2310   16.8335   24.9986 C   0  0  0  0  0  0  0  0  0  0  0  0
   -3.2799   21.6819   19.7513 C   0  0  0  0  0  0  0  0  0  0  0  0
  -10.5781   16.9567   27.8753 O   0  0  0  0  0  1  0  0  0  0  0  0
   -7.5940   17.0691   25.1478 C   0  0  0  0  0  0  0  0  0  0  0  0
   -1.2298   18.6897   23.5224 O   0  0  0  0  0  0  0  0  0  0  0  0
   -4.0527   16.9355   24.2868 C   0  0  0  0  0  0  0  0  0  0  0  0
   -4.9290   23.1487   21.7349 O   0  0  0  0  0  0  0  0  0  0  0  0
   -5.1167   19.6216   22.2758 C   0  0  0  0  0  0  0  0  0  0  0  0
   -6.2558   19.7218   23.1505 C   0  0  0  0  0  0  0  0  0  0  0  0
   -7.3416   19.7409   25.3071 C   0  0  0  0  0  0  0  0  0  0  0  0
   -8.5225   19.1957   25.7461 C   0  0  0  0  0  0  0  0  0  0  0  0
   -1.9031   19.9511   23.6613 C   0  0  0  0  0  0  0  0  0  0  0  0
  1  9  1  0
  1 12  1  0
  1 18  1  0
  1 27  1  0
  2  4  1  0
  2 19  1  0
  3 24  1  0
  4  8  1  0
  4 23  1  0
  5 30  1  0
  6 12  1  0
  6 22  1  0
  7 11  2  0
  7 26  2  0
  9 10  1  0
  9 13  1  0
  9 28  1  0
 11 20  1  0
 11 28  1  0
 12 16  1  0
 12 20  1  0
 13 22  1  0
 14 15  1  0
 14 21  1  0
 14 24  1  0
 15 29  1  0
 15 30  1  0
 17 20  1  0
 19 24  2  0
 19 31  1  0
 20 32  1  0
 21 26  1  0
 25 32  1  0
 28 29  1  0
 30 31  1  0
M  END
>  <ID>  (1) 
conformer_0

$$$$
