
     RDKit          3D

 30 33  0  0  0  0  0  0  0  0999 V2000
   -3.7103   20.7169   21.8152 C   0  0  0  0  0  0  0  0  0  0  0  0
   -4.1824   20.0516   24.2468 C   0  0  0  0  0  0  0  0  0  0  0  0
   -9.8081   16.2556   23.9449 C   0  0  0  0  0  0  0  0  0  0  0  0
   -7.6090   18.3403   25.7832 O   0  0  0  0  0  0  0  0  0  0  0  0
   -5.3088   19.5635   26.3052 O   0  0  0  0  0  0  0  0  0  0  0  0
   -9.1804   16.7219   25.1152 C   0  0  0  0  0  0  0  0  0  0  0  0
   -3.6387   18.6685   23.9464 C   0  0  0  0  0  0  0  0  0  0  0  0
   -4.6703   20.5789   22.9510 C   0  0  0  0  0  0  0  0  0  0  0  0
   -1.9538   20.2905   23.3091 N   0  0  0  0  0  0  0  0  0  0  0  0
   -7.6603   16.0057   22.8886 C   0  0  0  0  0  0  0  0  0  0  0  0
   -4.8736   21.8790   23.5463 C   0  0  0  0  0  0  0  0  0  0  0  0
   -4.7336   17.7290   23.7347 C   0  0  0  0  0  0  0  0  0  0  0  0
   -5.9907   19.8616   22.6773 C   0  0  0  0  0  0  0  0  0  0  0  0
   -4.2883   21.5866   20.7063 C   0  0  0  0  0  0  0  0  0  0  0  0
   -5.4197   19.8412   25.0467 C   0  0  0  0  0  0  0  0  0  0  0  0
   -1.9070   22.2521   21.9644 O   0  0  0  0  0  0  0  0  0  0  0  0
   -5.4877   16.4764   24.0159 C   0  0  0  0  0  0  0  0  0  0  0  0
   -9.0402   15.9431   22.8334 C   0  0  0  0  0  0  0  0  0  0  0  0
   -4.8693   15.7393   25.1526 C   0  0  0  0  0  0  0  0  0  0  0  0
   -2.4373   21.1794   22.3669 C   0  0  0  0  0  0  0  0  0  0  0  0
   -9.7663   16.7195   26.3679 O   0  0  0  0  0  0  0  0  0  0  0  0
   -9.2388   15.5982   27.2369 C   0  0  0  0  0  0  0  0  0  0  0  0
   -3.5687   21.2742   19.5959 O   0  0  0  0  0  0  0  0  0  0  0  0
   -7.8837   17.1609   24.9856 C   0  0  0  0  0  0  0  0  0  0  0  0
   -5.7243   21.4214   20.6326 C   0  0  0  0  0  0  0  0  0  0  0  0
   -7.8243   19.6157   25.0768 C   0  0  0  0  0  0  0  0  0  0  0  0
   -2.4828   18.8800   23.0806 C   0  0  0  0  0  0  0  0  0  0  0  0
   -6.6461   19.8532   24.0943 C   0  0  0  0  0  0  0  0  0  0  0  0
   -4.2270   22.9496   20.8397 F   0  0  0  0  0  0  0  0  0  0  0  0
   -7.0287   16.5469   24.0033 C   0  0  0  0  0  0  0  0  0  0  0  0
  1  8  1  0
  1 14  1  0
  1 20  1  0
  2  7  1  0
  2  8  1  0
  2 15  1  0
  3  6  1  0
  3 18  2  0
  4 24  1  0
  4 26  1  0
  5 15  1  0
  6 21  1  0
  6 24  1  0
  7 12  1  0
  7 27  1  0
  8 11  1  0
  8 13  1  0
  9 20  1  0
  9 27  1  0
 10 18  1  0
 10 30  2  0
 12 17  1  0
 13 28  1  0
 14 23  1  0
 14 25  1  0
 14 29  1  0
 15 28  2  0
 16 20  2  0
 17 19  1  0
 17 30  1  0
 21 22  1  0
 24 30  1  0
 26 28  1  0
M  END
>  <ID>  (1) 
conformer_0

$$$$
