
     RDKit          3D

 24 27  0  0  0  0  0  0  0  0999 V2000
   -4.1365   20.0730   24.7476 C   0  0  0  0  0  0  0  0  0  0  0  0
   -2.1308   20.5558   23.2753 O   0  0  0  0  0  0  0  0  0  0  0  0
   -6.5755   19.9739   24.8255 C   0  0  0  0  0  0  0  0  0  0  0  0
   -5.1410   22.3916   21.6945 C   0  0  0  0  0  0  0  0  0  0  0  0
   -3.6391   19.6318   21.9945 C   0  0  0  0  0  0  0  0  0  0  0  0
   -5.6438   21.0057   21.4360 C   0  0  0  0  0  0  0  0  0  0  0  0
   -5.2483   20.5111   20.0865 C   0  0  0  0  0  0  0  0  0  0  0  0
   -3.2483   20.9996   22.4486 C   0  0  0  0  0  0  0  0  0  0  0  0
   -7.6232   15.9688   27.2945 O   0  0  0  0  0  0  0  0  0  0  0  0
   -3.8406   22.3692   22.5402 C   0  0  0  0  0  0  0  0  0  0  0  0
   -4.1702   18.5701   24.4244 C   0  0  0  0  0  0  0  0  0  0  0  0
   -2.3754   18.9545   22.7231 C   0  0  0  0  0  0  0  0  0  0  0  0
   -2.9233   18.0278   23.8103 C   0  0  0  0  0  0  0  0  0  0  0  0
   -5.0774   20.0385   22.4850 C   0  0  0  0  0  0  0  0  0  0  0  0
   -4.9162   23.0973   20.5252 O   0  0  0  0  0  0  0  0  0  0  0  0
   -7.1308   16.3240   26.1485 C   0  0  0  0  0  0  0  0  0  0  0  0
   -5.2467   17.8391   25.0683 C   0  0  0  0  0  0  0  0  0  0  0  0
   -5.3784   20.6397   23.9020 C   0  0  0  0  0  0  0  0  0  0  0  0
   -6.6633   18.4063   24.7923 C   0  0  0  0  0  0  0  0  0  0  0  0
   -5.8523   18.7041   22.3675 C   0  0  0  0  0  0  0  0  0  0  0  0
   -6.9673   18.1462   23.2348 C   0  0  0  0  0  0  0  0  0  0  0  0
   -9.0276   18.0923   25.5412 C   0  0  0  0  0  0  0  0  0  0  0  0
   -6.4524   15.5057   25.4572 O   0  0  0  0  0  0  0  0  0  0  0  0
   -7.6657   17.5661   25.5620 C   0  0  0  0  0  0  0  0  0  0  0  0
  1 11  1  0
  1 18  1  0
  2  8  1  0
  3 18  1  0
  3 19  1  0
  4  6  1  0
  4 10  1  0
  4 15  1  0
  5  8  1  0
  5 12  1  0
  5 14  1  0
  6  7  1  0
  6 14  1  0
  8 10  1  0
  9 16  2  0
 11 13  1  0
 11 17  1  0
 12 13  1  0
 14 18  1  0
 14 20  1  0
 16 23  1  0
 16 24  1  0
 17 19  1  0
 19 21  1  0
 19 24  1  0
 20 21  1  0
 22 24  1  0
M  END
>  <ID>  (1) 
conformer_0

$$$$
