
     RDKit          3D

 19 20  0  0  0  0  0  0  0  0999 V2000
   -1.8442   19.2317   22.5883 C   0  0  0  0  0  0  0  0  0  0  0  0
   -6.4868   17.4845   25.3720 C   0  0  0  0  0  0  0  0  0  0  0  0
   -3.9445   20.2078   23.1204 C   0  0  0  0  0  0  0  0  0  0  0  0
   -3.8497   18.9373   23.8932 C   0  0  0  0  0  0  0  0  0  0  0  0
   -3.2828   22.6974   21.7678 O   0  0  0  0  0  0  0  0  0  0  0  0
   -4.8526   17.8388   23.5077 C   0  0  0  0  0  0  0  0  0  0  0  0
   -6.2149   20.0473   25.3304 C   0  0  0  0  0  0  0  0  0  0  0  0
   -7.0313   18.8187   24.8036 C   0  0  0  0  0  0  0  0  0  0  0  0
   -2.5010   21.5262   21.5199 C   0  0  0  0  0  0  0  0  0  0  0  0
   -5.2738   16.9013   24.6905 C   0  0  0  0  0  0  0  0  0  0  0  0
   -8.9213   17.3236   25.9108 C   0  0  0  0  0  0  0  0  0  0  0  0
   -9.6491   16.1903   26.7622 C   0  0  0  0  0  0  0  0  0  0  0  0
   -2.7086   20.3955   22.4101 C   0  0  0  0  0  0  0  0  0  0  0  0
   -2.4663   18.4178   23.6858 C   0  0  0  0  0  0  0  0  0  0  0  0
   -8.5001   18.8441   25.3883 C   0  0  0  0  0  0  0  0  0  0  0  0
   -7.7762   15.6484   24.5852 O   0  0  0  0  0  0  0  0  0  0  0  0
   -8.5546   15.6322   27.6230 O   0  0  0  0  0  0  0  0  0  0  0  0
   -4.9891   20.8983   22.8595 O   0  0  0  0  0  0  0  0  0  0  0  0
   -7.6468   16.5813   25.4582 C   0  0  0  0  0  0  0  0  0  0  0  0
  1 13  1  0
  1 14  1  0
  2  8  1  0
  2 10  1  0
  2 19  1  0
  3  4  1  0
  3 13  1  0
  3 18  2  0
  4  6  1  0
  4 14  1  0
  5  9  1  0
  6 10  1  0
  7  8  1  0
  8 15  1  0
  9 13  1  0
 11 12  1  0
 11 15  1  0
 11 19  1  0
 12 17  1  0
 16 19  2  0
M  END
>  <ID>  (1) 
conformer_0

$$$$
