
     RDKit          3D

 31 38  0  0  0  0  0  0  0  0999 V2000
   -9.0213   16.3137   24.9636 C   0  0  0  0  0  0  0  0  0  0  0  0
   -4.6467   21.2062   20.9210 C   0  0  0  0  0  0  0  0  0  0  0  0
   -3.8575   20.2016   21.6960 C   0  0  0  0  0  0  0  0  0  0  0  0
   -5.2821   16.4402   25.6554 C   0  0  0  0  0  0  0  0  0  0  0  0
   -7.5551   15.6812   27.0787 C   0  0  0  0  0  0  0  0  0  0  0  0
   -6.8219   18.3540   24.8826 C   0  0  0  0  0  0  0  0  0  0  0  0
   -3.6510   20.7829   23.1954 C   0  0  0  0  0  0  0  0  0  0  0  0
   -2.4895   22.9815   22.3496 C   0  0  0  0  0  0  0  0  0  0  0  0
   -2.3239   20.3271   21.4509 C   0  0  0  0  0  0  0  0  0  0  0  0
   -4.1764   22.1278   20.2054 O   0  0  0  0  0  0  0  0  0  0  0  0
   -5.4602   17.9701   25.7402 C   0  0  0  0  0  0  0  0  0  0  0  0
   -4.7351   21.9291   23.3733 C   0  0  0  0  0  0  0  0  0  0  0  0
   -2.3714   21.4847   22.5669 C   0  0  0  0  0  0  0  0  0  0  0  0
  -10.0836   16.4608   25.8006 O   0  0  0  0  0  0  0  0  0  0  0  0
   -6.5385   15.9920   24.7837 C   0  0  0  0  0  0  0  0  0  0  0  0
   -7.7268   16.3754   25.7760 C   0  0  0  0  0  0  0  0  0  0  0  0
   -1.6751   19.2440   22.3851 C   0  0  0  0  0  0  0  0  0  0  0  0
   -6.8028   19.9536   25.0321 C   0  0  0  0  0  0  0  0  0  0  0  0
   -8.9078   15.7922   23.6942 C   0  0  0  0  0  0  0  0  0  0  0  0
   -7.7232   17.9085   26.1308 C   0  0  0  0  0  0  0  0  0  0  0  0
   -6.1106   21.2581   22.9122 C   0  0  0  0  0  0  0  0  0  0  0  0
   -4.7220   22.3445   24.8731 C   0  0  0  0  0  0  0  0  0  0  0  0
   -4.4137   18.8846   22.1746 C   0  0  0  0  0  0  0  0  0  0  0  0
   -7.7955   18.1123   23.6625 C   0  0  0  0  0  0  0  0  0  0  0  0
   -4.5662   19.4766   23.7371 C   0  0  0  0  0  0  0  0  0  0  0  0
   -6.0461   19.9720   23.7231 C   0  0  0  0  0  0  0  0  0  0  0  0
   -9.0788   17.2966   23.8068 C   0  0  0  0  0  0  0  0  0  0  0  0
   -6.1062   21.2024   21.3992 C   0  0  0  0  0  0  0  0  0  0  0  0
   -1.9855   18.5111   23.6216 C   0  0  0  0  0  0  0  0  0  0  0  0
   -4.3533   18.8057   25.1168 C   0  0  0  0  0  0  0  0  0  0  0  0
   -6.6257   17.2188   23.7165 C   0  0  0  0  0  0  0  0  0  0  0  0
  1 14  1  0
  1 16  1  0
  1 19  1  0
  2  3  1  0
  2 10  2  0
  2 28  1  0
  3  7  1  0
  3  9  1  0
  3 23  1  0
  4 11  1  0
  4 15  1  0
  5 16  1  0
  6 11  1  0
  6 18  1  0
  6 20  1  0
  6 24  1  0
  7 12  1  0
  7 13  1  0
  7 25  1  0
  8 13  1  0
  9 13  1  0
  9 17  1  0
 11 30  1  0
 12 21  1  0
 12 22  1  0
 15 16  1  0
 15 31  1  0
 16 20  1  0
 17 29  1  0
 18 26  1  0
 19 27  1  0
 21 26  1  0
 21 28  1  0
 23 25  1  0
 24 27  1  0
 24 31  1  0
 25 26  1  0
 25 30  1  0
M  END
>  <ID>  (1) 
conformer_0

$$$$
