
     RDKit          3D

 30 32  0  0  0  0  0  0  0  0999 V2000
   -4.7211   20.9485   19.4320 C   0  0  0  0  0  0  0  0  0  0  0  0
   -5.4656   22.9000   21.3575 O   0  0  0  0  0  0  0  0  0  0  0  0
   -3.8499   18.4178   23.3620 C   0  0  0  0  0  0  0  0  0  0  0  0
   -1.5073   18.9767   23.4793 C   0  0  0  0  0  0  0  0  0  0  0  0
   -2.3756   20.3458   19.5053 C   0  0  0  0  0  0  0  0  0  0  0  0
   -4.0749   19.5663   22.6267 C   0  0  0  0  0  0  0  0  0  0  0  0
   -6.6519   20.4726   24.7553 C   0  0  0  0  0  0  0  0  0  0  0  0
   -6.8999   15.5085   23.5360 O   0  0  0  0  0  0  0  0  0  0  0  0
   -2.5735   18.1255   23.8262 C   0  0  0  0  0  0  0  0  0  0  0  0
   -8.6780   16.2544   26.7688 C   0  0  0  0  0  0  0  0  0  0  0  0
  -10.5934   17.0354   27.8991 O   0  0  0  0  0  0  0  0  0  0  0  0
   -5.6221   16.0383   25.5123 O   0  0  0  0  0  0  0  0  0  0  0  0
   -2.3945   22.6855   21.7247 O   0  0  0  0  0  0  0  0  0  0  0  0
   -8.0511   15.5168   27.6690 O   0  0  0  0  0  0  0  0  0  0  0  0
   -4.9881   17.5710   23.4963 C   0  0  0  0  0  0  0  0  0  0  0  0
   -3.3886   21.3588   20.0194 C   0  0  0  0  0  0  0  0  0  0  0  0
  -10.1715   16.2736   26.8008 C   0  0  0  0  0  0  0  0  0  0  0  0
   -6.4807   20.2696   23.2111 C   0  0  0  0  0  0  0  0  0  0  0  0
   -6.4344   17.7625   23.9132 C   0  0  0  0  0  0  0  0  0  0  0  0
   -4.6835   22.2614   22.1640 C   0  0  0  0  0  0  0  0  0  0  0  0
   -8.9027   17.4606   24.5865 C   0  0  0  0  0  0  0  0  0  0  0  0
   -3.3874   21.6979   21.5301 C   0  0  0  0  0  0  0  0  0  0  0  0
   -3.0203   20.4203   22.3218 C   0  0  0  0  0  0  0  0  0  0  0  0
   -1.7630   20.1172   22.7341 C   0  0  0  0  0  0  0  0  0  0  0  0
   -7.8452   18.4739   24.0915 C   0  0  0  0  0  0  0  0  0  0  0  0
   -4.8302   22.3892   23.5106 O   0  0  0  0  0  0  0  0  0  0  0  0
   -8.0521   16.4921   25.4532 C   0  0  0  0  0  0  0  0  0  0  0  0
   -6.7226   16.3346   24.6624 C   0  0  0  0  0  0  0  0  0  0  0  0
   -5.4940   19.7492   22.1740 C   0  0  0  0  0  0  0  0  0  0  0  0
   -7.5840   19.4091   25.3662 C   0  0  0  0  0  0  0  0  0  0  0  0
  1 16  1  0
  2 20  2  0
  3  6  1  0
  3  9  2  0
  3 15  1  0
  4  9  1  0
  4 24  1  0
  5 16  1  0
  6 23  1  0
  6 29  1  0
  7 18  1  0
  7 30  1  0
  8 28  1  0
 10 14  1  0
 10 17  1  0
 10 27  1  0
 11 17  1  0
 12 28  1  0
 13 22  1  0
 15 19  1  0
 16 22  1  0
 18 29  1  0
 19 25  1  0
 19 28  1  0
 20 22  1  0
 20 26  1  0
 21 25  1  0
 21 27  1  0
 22 23  1  0
 23 24  2  0
 25 30  1  0
 27 28  1  0
M  END
>  <ID>  (1) 
conformer_0

$$$$
