
     RDKit          3D

 21 24  0  0  0  0  0  0  0  0999 V2000
   -5.9318   19.7767   22.8038 C   0  0  0  0  0  0  0  0  0  0  0  0
   -3.3497   19.6416   22.3040 C   0  0  0  0  0  0  0  0  0  0  0  0
   -8.6207   16.9971   24.1788 C   0  0  0  0  0  0  0  0  0  0  0  0
   -9.8051   16.9948   26.3561 C   0  0  0  0  0  0  0  0  0  0  0  0
   -4.5081   20.3703   23.0669 C   0  0  0  0  0  0  0  0  0  0  0  0
   -3.1258   21.5057   20.4913 C   0  0  0  0  0  0  0  0  0  0  0  0
   -6.3200   16.0244   24.5267 C   0  0  0  0  0  0  0  0  0  0  0  0
   -8.6159   15.4345   27.0994 C   0  0  0  0  0  0  0  0  0  0  0  0
   -2.5289   20.4751   21.3534 C   0  0  0  0  0  0  0  0  0  0  0  0
   -6.9090   16.5596   25.9118 C   0  0  0  0  0  0  0  0  0  0  0  0
   -4.9576   16.6907   24.3061 C   0  0  0  0  0  0  0  0  0  0  0  0
   -3.2567   22.5051   22.7539 C   0  0  0  0  0  0  0  0  0  0  0  0
   -7.9203   18.4411   24.1856 C   0  0  0  0  0  0  0  0  0  0  0  0
   -6.4811   18.5309   23.5001 C   0  0  0  0  0  0  0  0  0  0  0  0
   -7.5075   16.0756   23.4847 C   0  0  0  0  0  0  0  0  0  0  0  0
   -2.2632   21.9057   21.7663 C   0  0  0  0  0  0  0  0  0  0  0  0
   -8.4978   16.4307   25.7875 C   0  0  0  0  0  0  0  0  0  0  0  0
   -5.2049   18.1668   24.3940 C   0  0  0  0  0  0  0  0  0  0  0  0
   -4.5971   21.7978   22.3803 C   0  0  0  0  0  0  0  0  0  0  0  0
   -4.2096   20.7112   24.5978 C   0  0  0  0  0  0  0  0  0  0  0  0
   -4.6177   21.6759   20.8392 C   0  0  0  0  0  0  0  0  0  0  0  0
  1  5  1  0
  1 14  1  0
  2  5  1  0
  2  9  1  0
  3 13  1  0
  3 15  1  0
  3 17  1  0
  4 17  1  0
  5 19  1  0
  5 20  1  0
  6  9  1  0
  6 21  1  0
  7 10  1  0
  7 11  1  0
  7 15  1  0
  8 17  1  0
  9 16  1  0
 10 17  1  0
 11 18  1  0
 12 16  1  0
 12 19  1  0
 13 14  1  0
 14 18  1  0
 19 21  1  0
M  END
>  <ID>  (1) 
conformer_0

$$$$
