
     RDKit          3D

 28 31  0  0  0  0  0  0  0  0999 V2000
   -5.2771   18.0612   26.6943 C   0  0  0  0  0  0  0  0  0  0  0  0
   -4.0961   16.6263   24.3956 O   0  0  0  0  0  0  0  0  0  0  0  0
   -2.3309   20.4344   22.0460 C   0  0  0  0  0  0  0  0  0  0  0  0
   -7.9532   18.9362   24.3364 C   0  0  0  0  0  0  0  0  0  0  0  0
   -8.2888   17.1148   26.0814 C   0  0  0  0  0  0  0  0  0  0  0  0
   -3.3261   21.0540   23.0140 C   0  0  0  0  0  0  0  0  0  0  0  0
   -9.2277   15.9901   26.4082 C   0  0  0  0  0  0  0  0  0  0  0  0
   -2.0643   21.0765   20.7456 C   0  0  0  0  0  0  0  0  0  0  0  0
   -5.9491   20.9301   22.8731 O   0  0  0  0  0  0  0  0  0  0  0  0
   -4.7115   19.8154   21.1894 C   0  0  0  0  0  0  0  0  0  0  0  0
   -3.3180   22.3468   19.0192 C   0  0  0  0  0  0  0  0  0  0  0  0
   -4.0313   22.5002   21.2543 C   0  0  0  0  0  0  0  0  0  0  0  0
   -2.5513   18.9388   22.0577 O   0  0  0  0  0  0  0  0  0  0  0  0
   -3.4737   22.5491   22.6760 C   0  0  0  0  0  0  0  0  0  0  0  0
   -3.0680   18.7292   23.4010 C   0  0  0  0  0  0  0  0  0  0  0  0
   -5.9702   17.8433   25.3549 C   0  0  0  0  0  0  0  0  0  0  0  0
   -4.6426   20.3523   22.5465 C   0  0  0  0  0  0  0  0  0  0  0  0
   -5.0970   19.8894   24.8710 C   0  0  0  0  0  0  0  0  0  0  0  0
   -2.7519   22.3657   20.3989 O   0  0  0  0  0  0  0  0  0  0  0  0
   -8.9613   18.1757   25.2378 C   0  0  0  0  0  0  0  0  0  0  0  0
   -6.5577   19.2080   24.9837 C   0  0  0  0  0  0  0  0  0  0  0  0
   -4.7182   21.1477   21.0023 C   0  0  0  0  0  0  0  0  0  0  0  0
  -10.1320   16.5298   27.3915 O   0  0  0  0  0  0  0  0  0  0  0  0
   -6.9815   16.7730   25.4847 C   0  0  0  0  0  0  0  0  0  0  0  0
   -6.8684   15.6673   24.8151 O   0  0  0  0  0  0  0  0  0  0  0  0
   -2.1766   19.0324   24.3074 O   0  0  0  0  0  0  0  0  0  0  0  0
   -5.0196   17.6384   24.1536 C   0  0  0  0  0  0  0  0  0  0  0  0
   -4.5042   19.0553   23.6614 C   0  0  0  0  0  0  0  0  0  0  0  0
  1 16  1  0
  2 27  1  0
  3  6  1  0
  3  8  1  0
  3 13  1  0
  4 20  1  0
  4 21  1  0
  5  7  1  0
  5 20  1  0
  5 24  1  0
  6 14  1  0
  6 17  1  0
  7 23  1  0
  8 19  1  0
  9 17  1  0
 10 17  1  0
 10 22  1  0
 11 19  1  0
 12 14  1  0
 12 22  1  0
 13 15  1  0
 15 26  2  0
 15 28  1  0
 16 21  1  0
 16 24  1  0
 16 27  1  0
 17 28  1  0
 18 21  1  0
 18 28  1  0
 24 25  1  0
 27 28  1  0
M  END
>  <ID>  (1) 
conformer_0

$$$$
