
     RDKit          3D

 21 23  0  0  0  0  0  0  0  0999 V2000
   -2.9064   19.7052   22.3339 C   0  0  0  0  0  0  0  0  0  0  0  0
   -5.0042   19.6172   24.9896 C   0  0  0  0  0  0  0  0  0  0  0  0
   -2.1718   18.5546   23.1578 C   0  0  0  0  0  0  0  0  0  0  0  0
   -9.3521   15.4731   24.9824 O   0  0  0  0  0  0  0  0  0  0  0  0
   -3.4927   20.6925   23.3862 C   0  0  0  0  0  0  0  0  0  0  0  0
   -3.7093   19.8608   21.0058 C   0  0  0  0  0  0  0  0  0  0  0  0
   -5.1610   16.9449   24.7987 S   0  0  0  0  0  0  0  0  0  0  0  0
   -7.3548   17.0246   25.4778 C   0  0  0  0  0  0  0  0  0  0  0  0
   -2.9978   20.8057   20.0132 C   0  0  0  0  0  0  0  0  0  0  0  0
   -9.7566   17.7873   25.4671 O   0  0  0  0  0  0  0  0  0  0  0  0
   -8.9062   16.6041   25.7621 C   0  0  0  0  0  0  0  0  0  0  0  0
   -3.3395   22.7107   21.8624 C   0  0  0  0  0  0  0  0  0  0  0  0
   -6.3983   16.1782   25.0591 N   0  0  0  0  0  0  0  0  0  0  0  0
   -6.0399   20.4088   25.4127 N   0  0  0  0  0  0  0  0  0  0  0  0
   -3.0083   22.0411   23.1645 C   0  0  0  0  0  0  0  0  0  0  0  0
   -3.8028   20.1744   24.5839 N   0  0  0  0  0  0  0  0  0  0  0  0
   -5.5137   18.2862   25.0641 C   0  0  0  0  0  0  0  0  0  0  0  0
   -7.0905   19.6716   25.7127 C   0  0  0  0  0  0  0  0  0  0  0  0
   -8.9921   16.1819   27.2828 N   0  0  0  0  0  0  0  0  0  0  0  0
   -3.0970   22.2394   20.4658 C   0  0  0  0  0  0  0  0  0  0  0  0
   -6.8468   18.3106   25.4932 N   0  0  0  0  0  0  0  0  0  0  0  0
  1  3  1  0
  1  5  1  0
  1  6  1  0
  2 14  1  0
  2 16  1  0
  2 17  2  0
  4 11  1  0
  5 15  1  0
  5 16  1  0
  6  9  1  0
  7 13  1  0
  7 17  1  0
  8 11  1  0
  8 13  2  0
  8 21  1  0
  9 20  1  0
 10 11  1  0
 11 19  1  0
 12 15  1  0
 12 20  1  0
 14 18  1  0
 17 21  1  0
 18 21  1  0
M  END
>  <ID>  (1) 
conformer_0

$$$$
