
     RDKit          3D

 33 37  0  0  0  0  0  0  0  0999 V2000
   -2.1416   22.6715   21.2118 C   0  0  0  0  0  0  0  0  0  0  0  0
   -3.8251   18.2995   25.2764 C   0  0  0  0  0  0  0  0  0  0  0  0
   -6.3084   21.4452   22.8120 C   0  0  0  0  0  0  0  0  0  0  0  0
  -10.7052   15.1887   22.3924 C   0  0  0  0  0  0  0  0  0  0  0  0
   -8.7904   17.3858   25.4179 C   0  0  0  0  0  0  0  0  0  0  0  0
   -6.1015   18.0186   24.3679 C   0  0  0  0  0  0  0  0  0  0  0  0
   -5.7436   22.0587   21.6003 C   0  0  0  0  0  0  0  0  0  0  0  0
   -3.8028   20.6370   22.0998 C   0  0  0  0  0  0  0  0  0  0  0  0
   -4.3478   21.7096   21.4652 C   0  0  0  0  0  0  0  0  0  0  0  0
   -3.8264   16.9209   25.5183 C   0  0  0  0  0  0  0  0  0  0  0  0
   -4.2630   18.3642   21.8118 O   0  0  0  0  0  0  0  0  0  0  0  0
   -8.0212   19.5618   26.0802 C   0  0  0  0  0  0  0  0  0  0  0  0
   -4.9987   18.8414   24.7650 C   0  0  0  0  0  0  0  0  0  0  0  0
   -8.9648   16.7234   22.9288 C   0  0  0  0  0  0  0  0  0  0  0  0
   -3.4634   22.5733   20.7813 C   0  0  0  0  0  0  0  0  0  0  0  0
   -6.0159   16.6855   24.6058 C   0  0  0  0  0  0  0  0  0  0  0  0
   -9.6262   15.9505   21.9802 C   0  0  0  0  0  0  0  0  0  0  0  0
   -9.3095   16.6694   26.6068 N   0  0  0  0  0  0  0  0  0  0  0  0
   -1.7081   21.7468   22.1394 C   0  0  0  0  0  0  0  0  0  0  0  0
   -9.3090   16.6416   24.2662 C   0  0  0  0  0  0  0  0  0  0  0  0
   -5.0668   20.2300   24.9447 O   0  0  0  0  0  0  0  0  0  0  0  0
   -8.4015   18.7609   24.8758 C   0  0  0  0  0  0  0  0  0  0  0  0
   -4.7699   19.5595   22.2515 C   0  0  0  0  0  0  0  0  0  0  0  0
   -7.3821   18.5824   23.8730 C   0  0  0  0  0  0  0  0  0  0  0  0
  -11.0411   15.0589   23.7455 C   0  0  0  0  0  0  0  0  0  0  0  0
   -4.9122   16.1201   25.1957 C   0  0  0  0  0  0  0  0  0  0  0  0
  -10.2791   15.6321   26.1055 C   0  0  0  0  0  0  0  0  0  0  0  0
   -8.2037   16.0135   27.3074 O   0  0  0  0  0  0  0  0  0  0  0  0
   -2.5029   20.6868   22.5421 C   0  0  0  0  0  0  0  0  0  0  0  0
  -10.2672   15.7593   24.7030 C   0  0  0  0  0  0  0  0  0  0  0  0
   -6.1006   20.0019   22.5619 C   0  0  0  0  0  0  0  0  0  0  0  0
   -3.9484   23.1385   19.7308 O   0  0  0  0  0  0  0  0  0  0  0  0
   -7.3599   19.3553   22.7500 O   0  0  0  0  0  0  0  0  0  0  0  0
  1 15  2  0
  1 19  1  0
  2 10  2  0
  2 13  1  0
  3  7  1  0
  3 31  1  0
  4 17  2  0
  4 25  1  0
  5 18  1  0
  5 20  1  0
  5 22  1  0
  6 13  2  0
  6 16  1  0
  6 24  1  0
  7  9  1  0
  8  9  1  0
  8 23  1  0
  8 29  2  0
  9 15  1  0
 10 26  1  0
 11 23  1  0
 12 22  1  0
 13 21  1  0
 14 17  1  0
 14 20  2  0
 15 32  1  0
 16 26  2  0
 18 27  1  0
 18 28  1  0
 19 29  1  0
 20 30  1  0
 22 24  1  0
 23 31  2  0
 24 33  1  0
 25 30  2  0
 27 30  1  0
 31 33  1  0
M  END
>  <ID>  (1) 
conformer_0

$$$$
