
     RDKit          3D

 31 36  0  0  0  0  0  0  0  0999 V2000
   -3.6305   17.8284   23.8802 C   0  0  0  0  0  0  0  0  0  0  0  0
   -8.2004   20.3633   24.9418 C   0  0  0  0  0  0  0  0  0  0  0  0
   -9.3118   15.4270   26.9127 C   0  0  0  0  0  0  0  0  0  0  0  0
   -6.1195   19.4753   23.6985 C   0  0  0  0  0  0  0  0  0  0  0  0
   -1.4988   20.9470   22.9710 C   0  0  0  0  0  0  0  0  0  0  0  0
   -2.2768   18.4249   23.4590 C   0  0  0  0  0  0  0  0  0  0  0  0
   -9.6172   17.5062   25.2394 C   0  0  0  0  0  0  0  0  0  0  0  0
   -5.7015   17.6588   25.2216 C   0  0  0  0  0  0  0  0  0  0  0  0
   -6.5125   18.8798   22.3012 C   0  0  0  0  0  0  0  0  0  0  0  0
   -9.8037   14.5084   26.2658 O   0  0  0  0  0  0  0  0  0  0  0  0
   -7.3524   19.2092   24.5895 C   0  0  0  0  0  0  0  0  0  0  0  0
   -3.1249   22.1416   21.5282 C   0  0  0  0  0  0  0  0  0  0  0  0
   -3.6598   20.3780   23.6206 C   0  0  0  0  0  0  0  0  0  0  0  0
   -4.6167   21.7452   21.7181 C   0  0  0  0  0  0  0  0  0  0  0  0
   -4.8921   18.7073   24.3533 C   0  0  0  0  0  0  0  0  0  0  0  0
   -8.2951   17.4490   26.0334 C   0  0  0  0  0  0  0  0  0  0  0  0
   -3.5623   21.2244   19.3862 C   0  0  0  0  0  0  0  0  0  0  0  0
   -2.6733   20.9478   20.6482 C   0  0  0  0  0  0  0  0  0  0  0  0
   -9.7891   16.1014   27.8489 O   0  0  0  0  0  0  0  0  0  0  0  0
   -7.9956   16.0188   26.3808 C   0  0  0  0  0  0  0  0  0  0  0  0
   -2.6774   22.0344   18.6387 F   0  0  0  0  0  0  0  0  0  0  0  0
   -4.0389   22.7459   19.4609 C   0  0  0  0  0  0  0  0  0  0  0  0
   -5.1902   16.6248   25.6830 O   0  0  0  0  0  0  0  0  0  0  0  0
   -2.3618   22.2349   22.7380 O   0  0  0  0  0  0  0  0  0  0  0  0
   -2.4738   19.8094   22.8226 C   0  0  0  0  0  0  0  0  0  0  0  0
   -5.9788   21.0034   23.5549 C   0  0  0  0  0  0  0  0  0  0  0  0
   -4.0523   19.8870   24.9472 C   0  0  0  0  0  0  0  0  0  0  0  0
   -4.7256   20.7921   22.7303 C   0  0  0  0  0  0  0  0  0  0  0  0
   -7.1109   18.0642   25.4653 C   0  0  0  0  0  0  0  0  0  0  0  0
   -2.6845   19.6188   21.2735 C   0  0  0  0  0  0  0  0  0  0  0  0
   -3.2640   23.4124   20.6298 C   0  0  0  0  0  0  0  0  0  0  0  0
  1  6  1  0
  1 15  1  0
  2 11  1  0
  3 10  2  0
  3 19  1  0
  3 20  1  0
  4  9  1  0
  4 11  1  0
  4 15  1  0
  4 26  1  0
  5 24  1  0
  5 25  1  0
  6 25  1  0
  7 16  1  0
  8 15  1  0
  8 23  2  0
  8 29  1  0
 11 29  1  0
 12 14  1  0
 12 18  1  0
 12 24  1  0
 12 31  1  0
 13 25  1  0
 13 27  1  0
 13 28  1  0
 14 28  1  0
 15 27  1  0
 16 20  1  0
 16 29  1  0
 17 18  1  0
 17 21  1  0
 17 22  1  0
 18 30  1  0
 22 31  1  0
 25 30  1  0
 26 28  1  0
M  END
>  <ID>  (1) 
conformer_0

$$$$
