
     RDKit          3D

 33 37  0  0  0  0  0  0  0  0999 V2000
   -3.2492   17.2262   24.4263 C   0  0  0  0  0  0  0  0  0  0  0  0
   -4.5623   20.7110   24.4876 C   0  0  0  0  0  0  0  0  0  0  0  0
   -6.5891   20.4169   21.8072 O   0  0  0  0  0  0  0  0  0  0  0  0
   -7.2005   15.9515   26.9163 O   0  0  0  0  0  0  0  0  0  0  0  0
   -4.8714   19.1983   24.3923 C   0  0  0  0  0  0  0  0  0  0  0  0
   -3.5284   18.6444   24.0139 C   0  0  0  0  0  0  0  0  0  0  0  0
   -1.8538   19.7258   22.1262 C   0  0  0  0  0  0  0  0  0  0  0  0
   -6.5443   16.2297   25.8120 C   0  0  0  0  0  0  0  0  0  0  0  0
  -10.4036   15.9198   25.2649 C   0  0  0  0  0  0  0  0  0  0  0  0
   -8.4648   17.5461   25.3392 C   0  0  0  0  0  0  0  0  0  0  0  0
   -8.2412   18.3629   23.0731 C   0  0  0  0  0  0  0  0  0  0  0  0
   -4.9655   19.7176   25.7415 O   0  0  0  0  0  0  0  0  0  0  0  0
   -5.8464   21.4226   23.8919 C   0  0  0  0  0  0  0  0  0  0  0  0
   -9.1256   17.0589   23.1168 C   0  0  0  0  0  0  0  0  0  0  0  0
  -10.8083   16.2672   26.3609 O   0  0  0  0  0  0  0  0  0  0  0  0
   -2.6850   19.7102   23.3773 C   0  0  0  0  0  0  0  0  0  0  0  0
   -7.2487   16.8367   24.6937 O   0  0  0  0  0  0  0  0  0  0  0  0
   -5.9450   17.9330   24.3451 C   0  0  0  0  0  0  0  0  0  0  0  0
   -1.9263   20.7306   21.0571 C   0  0  0  0  0  0  0  0  0  0  0  0
  -10.4270   14.8348   24.7868 O   0  0  0  0  0  0  0  0  0  0  0  0
   -3.2648   21.3868   20.8429 C   0  0  0  0  0  0  0  0  0  0  0  0
   -4.2160   21.1693   22.0044 C   0  0  0  0  0  0  0  0  0  0  0  0
   -4.2817   15.2061   25.2963 O   0  0  0  0  0  0  0  0  0  0  0  0
   -4.1816   16.4873   25.2386 C   0  0  0  0  0  0  0  0  0  0  0  0
   -5.4711   17.2037   25.5977 C   0  0  0  0  0  0  0  0  0  0  0  0
   -4.3520   20.7252   20.4559 C   0  0  0  0  0  0  0  0  0  0  0  0
   -5.6903   21.0240   22.4194 C   0  0  0  0  0  0  0  0  0  0  0  0
   -8.2643   18.9343   24.5571 C   0  0  0  0  0  0  0  0  0  0  0  0
   -3.5363   20.9333   23.3670 C   0  0  0  0  0  0  0  0  0  0  0  0
   -2.2744   22.9035   22.8109 C   0  0  0  0  0  0  0  0  0  0  0  0
   -3.1697   22.7059   20.3775 O   0  0  0  0  0  0  0  0  0  0  0  0
   -3.5909   22.2665   22.9631 C   0  0  0  0  0  0  0  0  0  0  0  0
   -9.7120   17.0164   24.5293 C   0  0  0  0  0  0  0  0  0  0  0  0
  1  6  2  0
  1 24  1  0
  2  5  1  0
  2 13  1  0
  2 29  1  0
  3 27  2  0
  4  8  1  0
  5  6  1  0
  5 12  1  0
  5 18  1  0
  6 16  1  0
  7 16  1  0
  7 19  1  0
  8 17  1  0
  8 25  1  0
  9 15  2  0
  9 20  1  0
  9 33  1  0
 10 17  1  0
 10 28  1  0
 10 33  1  0
 11 14  1  0
 11 28  1  0
 13 27  1  0
 14 33  1  0
 16 29  1  0
 18 25  1  0
 19 21  1  0
 21 22  1  0
 21 26  1  0
 21 31  1  0
 22 27  1  0
 22 29  1  0
 23 24  1  0
 24 25  1  0
 29 32  1  0
 30 32  1  0
M  END
>  <ID>  (1) 
conformer_0

$$$$
