
     RDKit          3D

 28 31  0  0  0  0  0  0  0  0999 V2000
  -10.2762   15.8227   27.1528 O   0  0  0  0  0  0  0  0  0  0  0  0
   -4.3717   17.1102   25.3337 O   0  0  0  0  0  0  0  0  0  0  0  0
   -7.7984   19.4508   24.7688 C   0  0  0  0  0  0  0  0  0  0  0  0
   -5.3404   20.0187   22.2951 C   0  0  0  0  0  0  0  0  0  0  0  0
   -3.9093   21.5280   21.1463 C   0  0  0  0  0  0  0  0  0  0  0  0
   -4.4868   19.1390   24.3829 N   0  0  0  0  0  0  0  0  0  0  0  0
   -4.7884   18.3179   25.4803 C   0  0  0  0  0  0  0  0  0  0  0  0
   -9.2233   16.2510   26.4171 C   0  0  0  0  0  0  0  0  0  0  0  0
   -5.6457   19.5094   23.6266 C   0  0  0  0  0  0  0  0  0  0  0  0
   -3.1469   19.3237   24.0512 C   0  0  0  0  0  0  0  0  0  0  0  0
   -4.1335   20.6439   22.1783 C   0  0  0  0  0  0  0  0  0  0  0  0
   -2.9452   20.4741   23.1276 C   0  0  0  0  0  0  0  0  0  0  0  0
   -4.7291   21.5365   20.0444 C   0  0  0  0  0  0  0  0  0  0  0  0
   -5.8829   20.7497   20.1034 C   0  0  0  0  0  0  0  0  0  0  0  0
   -6.1966   19.9999   21.2068 C   0  0  0  0  0  0  0  0  0  0  0  0
   -1.6514   20.1425   22.3915 C   0  0  0  0  0  0  0  0  0  0  0  0
   -6.5603   20.2755   24.4871 C   0  0  0  0  0  0  0  0  0  0  0  0
   -8.6459   17.3371   22.8912 O   0  0  0  0  0  0  0  0  0  0  0  0
   -7.0103   17.8700   26.3636 C   0  0  0  0  0  0  0  0  0  0  0  0
   -2.5087   22.7738   22.6622 C   0  0  0  0  0  0  0  0  0  0  0  0
   -5.7345   18.7715   26.5132 C   0  0  0  0  0  0  0  0  0  0  0  0
   -2.8773   22.4362   21.3155 O   0  0  0  0  0  0  0  0  0  0  0  0
   -9.7332   16.5677   25.0225 C   0  0  0  0  0  0  0  0  0  0  0  0
  -10.7242   16.0258   24.2157 O   0  0  0  0  0  0  0  0  0  0  0  0
   -8.0774   15.7626   27.0300 O   0  0  0  0  0  0  0  0  0  0  0  0
   -7.6353   17.9593   24.9623 C   0  0  0  0  0  0  0  0  0  0  0  0
   -8.8644   17.4316   24.2138 C   0  0  0  0  0  0  0  0  0  0  0  0
   -2.8179   21.7838   23.8418 C   0  0  0  0  0  0  0  0  0  0  0  0
  1  8  2  0
  2  7  2  0
  3 17  1  0
  3 26  1  0
  4  9  1  0
  4 11  1  0
  4 15  2  0
  5 11  1  0
  5 13  1  0
  5 22  1  0
  6  7  1  0
  6  9  1  0
  6 10  1  0
  7 21  1  0
  8 23  1  0
  8 25  1  0
  9 17  1  0
 10 12  1  0
 11 12  1  0
 12 16  1  0
 12 28  1  0
 13 14  2  0
 14 15  1  0
 18 27  1  0
 19 21  1  0
 19 26  1  0
 20 22  1  0
 20 28  1  0
 23 24  1  0
 23 27  1  0
 26 27  1  0
M  END
>  <ID>  (1) 
conformer_0

$$$$
