
     RDKit          3D

 33 37  0  0  0  0  0  0  0  0999 V2000
   -2.4944   21.1150   21.9314 C   0  0  0  0  0  0  0  0  0  0  0  0
   -2.0953   20.1716   19.7895 O   0  0  0  0  0  0  0  0  0  0  0  0
   -6.4532   20.2477   25.5505 C   0  0  0  0  0  0  0  0  0  0  0  0
   -8.6721   18.3291   25.7275 C   0  0  0  0  0  0  0  0  0  0  0  0
   -6.8982   16.4829   25.1911 C   0  0  0  0  0  0  0  0  0  0  0  0
   -4.6004   21.1584   23.5242 C   0  0  0  0  0  0  0  0  0  0  0  0
   -2.1245   22.4268   22.3901 C   0  0  0  0  0  0  0  0  0  0  0  0
   -7.8200   19.6059   25.8114 C   0  0  0  0  0  0  0  0  0  0  0  0
   -4.9216   20.7541   22.0310 C   0  0  0  0  0  0  0  0  0  0  0  0
   -7.4969   15.9910   26.5699 C   0  0  0  0  0  0  0  0  0  0  0  0
   -5.5377   20.2026   24.3506 C   0  0  0  0  0  0  0  0  0  0  0  0
   -4.2551   22.7368   23.7154 C   0  0  0  0  0  0  0  0  0  0  0  0
   -3.6490   20.5311   22.6391 C   0  0  0  0  0  0  0  0  0  0  0  0
   -4.1488   23.0774   21.0874 C   0  0  0  0  0  0  0  0  0  0  0  0
   -5.3841   22.0131   21.3308 C   0  0  0  0  0  0  0  0  0  0  0  0
   -7.7806   19.5721   22.7653 F   0  0  0  0  0  0  0  0  0  0  0  0
   -8.7597   15.8177   27.2162 N   0  0  0  0  0  0  0  0  0  0  0  0
   -7.2117   15.5684   24.2399 O   0  0  0  0  0  0  0  0  0  0  0  0
   -8.7706   17.9612   24.2038 C   0  0  0  0  0  0  0  0  0  0  0  0
   -5.6376   17.2276   25.5543 C   0  0  0  0  0  0  0  0  0  0  0  0
   -6.4503   22.8590   22.0516 C   0  0  0  0  0  0  0  0  0  0  0  0
   -1.0858   21.2741   21.9416 C   0  0  0  0  0  0  0  0  0  0  0  0
   -4.5388   18.1178   23.0963 C   0  0  0  0  0  0  0  0  0  0  0  0
   -4.5545   16.2239   25.1835 C   0  0  0  0  0  0  0  0  0  0  0  0
   -7.2564   18.3596   23.6020 C   0  0  0  0  0  0  0  0  0  0  0  0
   -3.3233   18.5634   24.1081 C   0  0  0  0  0  0  0  0  0  0  0  0
   -6.4245   17.7898   24.5735 C   0  0  0  0  0  0  0  0  0  0  0  0
   -3.5010   23.3357   22.4468 C   0  0  0  0  0  0  0  0  0  0  0  0
   -2.9455   20.9832   20.4563 C   0  0  0  0  0  0  0  0  0  0  0  0
   -3.2961   22.4369   20.0484 C   0  0  0  0  0  0  0  0  0  0  0  0
   -9.9881   16.4402   27.2809 O   0  0  0  0  0  0  0  0  0  0  0  0
   -2.5953   19.7249   23.3375 C   0  0  0  0  0  0  0  0  0  0  0  0
   -5.7765   18.8075   23.6874 C   0  0  0  0  0  0  0  0  0  0  0  0
  1  7  1  0
  1 13  1  0
  1 22  1  0
  1 29  1  0
  2 29  1  0
  3  8  1  0
  3 11  1  0
  4  8  1  0
  4 19  1  0
  5 10  1  0
  5 18  1  0
  5 20  1  0
  6 11  1  0
  6 12  1  0
  6 13  1  0
  7 28  1  0
  9 13  1  0
  9 15  1  0
 10 17  1  0
 11 33  1  0
 12 28  1  0
 13 32  1  0
 14 15  1  0
 14 28  1  0
 14 30  1  0
 15 21  1  0
 16 25  1  0
 17 31  1  0
 19 25  1  0
 20 24  1  0
 20 27  1  0
 23 26  1  0
 23 33  1  0
 25 27  1  0
 26 32  1  0
 27 33  1  0
 29 30  1  0
M  END
>  <ID>  (1) 
conformer_0

$$$$
