
     RDKit          3D

 25 27  0  0  0  0  0  0  0  0999 V2000
   -5.5273   19.8597   22.4513 C   0  0  0  0  0  0  0  0  0  0  0  0
   -8.5857   17.1427   25.9396 C   0  0  0  0  0  0  0  0  0  0  0  0
   -6.1330   18.7665   26.7867 O   0  0  0  0  0  0  0  0  0  0  0  0
   -6.0026   17.9660   25.7289 C   0  0  0  0  0  0  0  0  0  0  0  0
   -6.7259   16.1431   24.3645 C   0  0  0  0  0  0  0  0  0  0  0  0
   -5.1742   18.1818   24.3766 C   0  0  0  0  0  0  0  0  0  0  0  0
   -3.7505   18.4742   24.0467 O   0  0  0  0  0  0  0  0  0  0  0  0
   -5.5532   22.6566   22.7309 C   0  0  0  0  0  0  0  0  0  0  0  0
   -7.7836   18.1432   24.0177 O   0  0  0  0  0  0  0  0  0  0  0  0
   -2.9988   22.7849   22.7575 C   0  0  0  0  0  0  0  0  0  0  0  0
   -9.6394   16.8639   24.8174 C   0  0  0  0  0  0  0  0  0  0  0  0
   -5.2249   16.5334   24.0524 C   0  0  0  0  0  0  0  0  0  0  0  0
   -4.5007   15.9086   25.1623 O   0  0  0  0  0  0  0  0  0  0  0  0
   -7.2829   17.3218   25.1780 C   0  0  0  0  0  0  0  0  0  0  0  0
   -3.3183   19.6465   23.4780 C   0  0  0  0  0  0  0  0  0  0  0  0
   -5.5215   20.7300   24.9145 C   0  0  0  0  0  0  0  0  0  0  0  0
   -4.0531   20.4157   22.3935 C   0  0  0  0  0  0  0  0  0  0  0  0
   -4.2499   22.1279   20.7181 C   0  0  0  0  0  0  0  0  0  0  0  0
   -3.3627   20.2701   21.0291 C   0  0  0  0  0  0  0  0  0  0  0  0
   -2.0296   19.8983   23.6013 N   0  0  0  0  0  0  0  0  0  0  0  0
   -8.6923   16.4583   27.0591 O   0  0  0  0  0  0  0  0  0  0  0  0
   -8.9293   17.3280   23.5196 C   0  0  0  0  0  0  0  0  0  0  0  0
   -5.7905   19.5963   23.9332 C   0  0  0  0  0  0  0  0  0  0  0  0
   -4.2299   22.0331   22.3049 C   0  0  0  0  0  0  0  0  0  0  0  0
   -1.3353   19.0554   22.6784 C   0  0  0  0  0  0  0  0  0  0  0  0
  1 17  1  0
  1 23  1  0
  2 11  1  0
  2 14  1  0
  2 21  1  0
  3  4  1  0
  4  6  1  0
  4 14  1  0
  5 12  1  0
  5 14  1  0
  6  7  1  0
  6 12  1  0
  6 23  1  0
  7 15  1  0
  8 24  1  0
  9 14  1  0
  9 22  1  0
 10 24  1  0
 11 22  1  0
 12 13  1  0
 15 17  1  0
 15 20  1  0
 16 23  1  0
 17 19  1  0
 17 24  1  0
 18 24  1  0
 20 25  1  0
M  END
>  <ID>  (1) 
conformer_0

$$$$
