
     RDKit          3D

 24 28  0  0  0  0  0  0  0  0999 V2000
   -9.9916   16.7718   24.8156 C   0  0  0  0  0  0  0  0  0  0  0  0
   -4.2513   18.2097   25.7917 O   0  0  0  0  0  0  0  0  0  0  0  0
   -7.4902   19.4732   24.6324 C   0  0  0  0  0  0  0  0  0  0  0  0
   -9.7408   15.5184   23.9593 C   0  0  0  0  0  0  0  0  0  0  0  0
   -8.7180   17.3249   25.1897 N   0  0  0  0  0  0  0  0  0  0  0  0
   -3.0144   22.5291   22.2166 C   0  0  0  0  0  0  0  0  0  0  0  0
   -7.7077   16.5820   25.9931 C   0  0  0  0  0  0  0  0  0  0  0  0
   -4.0451   20.8684   23.5422 C   0  0  0  0  0  0  0  0  0  0  0  0
   -8.5950   18.7808   25.4118 C   0  0  0  0  0  0  0  0  0  0  0  0
   -3.0257   21.2645   21.3729 C   0  0  0  0  0  0  0  0  0  0  0  0
   -3.4564   20.0481   22.3781 C   0  0  0  0  0  0  0  0  0  0  0  0
   -4.0403   21.4781   20.2286 C   0  0  0  0  0  0  0  0  0  0  0  0
   -6.0806   19.5775   25.1736 C   0  0  0  0  0  0  0  0  0  0  0  0
   -6.7336   15.5290   23.7251 C   0  0  0  0  0  0  0  0  0  0  0  0
   -6.3389   17.1005   25.6700 C   0  0  0  0  0  0  0  0  0  0  0  0
   -3.6281   22.1592   23.5287 O   0  0  0  0  0  0  0  0  0  0  0  0
   -5.6029   16.3334   24.5717 C   0  0  0  0  0  0  0  0  0  0  0  0
   -5.7343   18.4173   26.0762 C   0  0  0  0  0  0  0  0  0  0  0  0
   -2.9828   18.7481   23.3321 C   0  0  0  0  0  0  0  0  0  0  0  0
   -4.4131   19.2860   21.5821 O   0  0  0  0  0  0  0  0  0  0  0  0
   -4.8914   19.9321   24.3515 C   0  0  0  0  0  0  0  0  0  0  0  0
   -1.7889   20.8754   20.8533 O   0  0  0  0  0  0  0  0  0  0  0  0
   -3.9820   18.7137   24.4881 C   0  0  0  0  0  0  0  0  0  0  0  0
   -8.2832   15.6114   23.3129 C   0  0  0  0  0  0  0  0  0  0  0  0
  1  4  1  0
  1  5  1  0
  2 18  1  0
  2 23  1  0
  3  9  1  0
  3 13  1  0
  4 24  1  0
  5  7  1  0
  5  9  1  0
  6 10  1  0
  6 16  1  0
  7 15  1  0
  8 11  1  0
  8 16  1  0
  8 21  1  0
 10 11  1  0
 10 12  1  0
 10 22  1  0
 11 19  1  0
 11 20  1  0
 13 18  1  0
 13 21  1  0
 14 17  1  0
 14 24  1  0
 15 17  1  0
 15 18  1  0
 19 23  1  0
 21 23  1  0
M  END
>  <ID>  (1) 
conformer_0

$$$$
