
     RDKit          3D

 18 19  0  0  0  0  0  0  0  0999 V2000
   -7.0216   17.6678   25.9775 C   0  0  0  0  0  0  0  0  0  0  0  0
   -5.0237   21.2743   22.9220 C   0  0  0  0  0  0  0  0  0  0  0  0
   -5.2565   23.2754   21.4766 C   0  0  0  0  0  0  0  0  0  0  0  0
   -3.4982   17.9580   24.2795 S   0  0  0  0  0  0  0  0  0  0  0  0
   -7.4477   16.2517   26.1519 C   0  0  0  0  0  0  0  0  0  0  0  0
   -5.6941   17.9555   25.3827 C   0  0  0  0  0  0  0  0  0  0  0  0
   -4.5819   21.0567   20.4390 C   0  0  0  0  0  0  0  0  0  0  0  0
   -9.4528   15.0562   26.6086 O   0  0  0  0  0  0  0  0  0  0  0  0
   -4.5221   21.9470   21.6805 C   0  0  0  0  0  0  0  0  0  0  0  0
   -3.8821   20.3829   23.3849 N   0  0  0  0  0  0  0  0  0  0  0  0
   -9.0053   16.1613   26.2780 C   0  0  0  0  0  0  0  0  0  0  0  0
   -5.3829   19.1995   24.8531 C   0  0  0  0  0  0  0  0  0  0  0  0
   -2.9745   22.1281   21.9953 C   0  0  0  0  0  0  0  0  0  0  0  0
   -4.2168   19.2802   24.1565 C   0  0  0  0  0  0  0  0  0  0  0  0
   -9.6317   17.1564   25.8359 O   0  0  0  0  0  0  0  0  0  0  0  0
   -2.7319   20.7272   22.6763 C   0  0  0  0  0  0  0  0  0  0  0  0
   -1.8992   19.8744   22.3334 O   0  0  0  0  0  0  0  0  0  0  0  0
   -4.5639   17.1288   25.1643 N   0  0  0  0  0  0  0  0  0  0  0  0
  1  5  1  0
  1  6  2  3
  2  9  1  0
  2 10  1  0
  3  9  1  0
  4 14  1  0
  4 18  1  0
  5 11  1  0
  6 12  1  0
  6 18  1  0
  7  9  1  0
  8 11  2  0
  9 13  1  0
 10 14  1  0
 10 16  1  0
 11 15  1  0
 12 14  2  0
 13 16  1  0
 16 17  2  0
M  END
>  <ID>  (1) 
conformer_0

$$$$
