
     RDKit          3D

 23 24  0  0  0  0  0  0  0  0999 V2000
   -5.6184   17.7611   24.9749 C   0  0  0  0  0  0  0  0  0  0  0  0
   -8.3603   15.4508   23.5863 O   0  0  0  0  0  0  0  0  0  0  0  0
   -4.5689   21.4573   22.1673 C   0  0  0  0  0  0  0  0  0  0  0  0
   -4.7670   19.5730   23.6221 C   0  0  0  0  0  0  0  0  0  0  0  0
   -8.0538   17.9793   25.6075 O   0  0  0  0  0  0  0  0  0  0  0  0
   -4.7171   22.9520   20.3446 O   0  0  0  0  0  0  0  0  0  0  0  0
   -2.7130   19.8907   22.2029 C   0  0  0  0  0  0  0  0  0  0  0  0
  -10.7083   16.9132   25.9513 O   0  0  0  0  0  0  0  0  0  0  0  0
  -10.4801   15.9917   23.0759 O   0  0  0  0  0  0  0  0  0  0  0  0
   -4.0041   22.0168   20.9706 C   0  0  0  0  0  0  0  0  0  0  0  0
   -6.8876   18.4282   25.0514 C   0  0  0  0  0  0  0  0  0  0  0  0
   -9.6905   16.3471   25.2918 C   0  0  0  0  0  0  0  0  0  0  0  0
   -4.5497   18.3305   24.2540 C   0  0  0  0  0  0  0  0  0  0  0  0
   -5.9943   20.1487   23.8550 C   0  0  0  0  0  0  0  0  0  0  0  0
   -2.0069   18.7751   22.8583 C   0  0  0  0  0  0  0  0  0  0  0  0
   -9.5303   15.9016   23.9168 C   0  0  0  0  0  0  0  0  0  0  0  0
   -2.1461   20.5058   21.1178 C   0  0  0  0  0  0  0  0  0  0  0  0
   -5.6495   22.1546   22.7543 C   0  0  0  0  0  0  0  0  0  0  0  0
   -3.9492   20.2889   22.6823 C   0  0  0  0  0  0  0  0  0  0  0  0
   -7.4384   16.1890   26.8824 O   0  0  0  0  0  0  0  0  0  0  0  0
   -8.3777   16.7041   25.9549 C   0  0  0  0  0  0  0  0  0  0  0  0
   -2.7996   21.5660   20.4694 C   0  0  0  0  0  0  0  0  0  0  0  0
   -7.0227   19.6805   24.4814 C   0  0  0  0  0  0  0  0  0  0  0  0
  1 11  2  0
  1 13  1  0
  2 16  2  0
  3 10  1  0
  3 18  1  0
  3 19  1  0
  4 13  2  0
  4 14  1  0
  4 19  1  0
  5 11  1  0
  5 21  1  0
  6 10  1  0
  7 15  1  0
  7 17  2  0
  7 19  1  0
  8 12  1  0
  9 16  1  0
 10 22  2  0
 11 23  1  0
 12 16  1  0
 12 21  1  0
 14 23  2  0
 17 22  1  0
 20 21  2  0
M  END
>  <ID>  (1) 
conformer_0

$$$$
