
     RDKit          3D

 23 25  0  0  0  0  0  0  0  0999 V2000
   -2.6821   18.0284   23.5711 C   0  0  0  0  0  0  0  0  0  0  0  0
   -7.5424   16.2268   24.7981 C   0  0  0  0  0  0  0  0  0  0  0  0
   -3.9553   19.0135   23.3285 C   0  0  0  0  0  0  0  0  0  0  0  0
   -8.3876   15.4188   25.4466 O   0  0  0  0  0  0  0  0  0  0  0  0
   -4.5735   22.4786   22.3880 C   0  0  0  0  0  0  0  0  0  0  0  0
   -3.2571   21.6182   20.4780 C   0  0  0  0  0  0  0  0  0  0  0  0
   -3.9576   21.7578   23.5924 C   0  0  0  0  0  0  0  0  0  0  0  0
   -4.7711   21.8338   20.9631 C   0  0  0  0  0  0  0  0  0  0  0  0
   -3.6432   19.5348   21.8302 C   0  0  0  0  0  0  0  0  0  0  0  0
   -1.5909   21.4803   22.3195 C   0  0  0  0  0  0  0  0  0  0  0  0
   -6.2689   16.4464   25.4233 C   0  0  0  0  0  0  0  0  0  0  0  0
   -2.6496   20.6835   21.5594 C   0  0  0  0  0  0  0  0  0  0  0  0
   -5.1333   18.1766   23.9963 C   0  0  0  0  0  0  0  0  0  0  0  0
   -6.4757   18.8448   24.3633 C   0  0  0  0  0  0  0  0  0  0  0  0
   -3.7302   20.2493   25.4861 O   0  0  0  0  0  0  0  0  0  0  0  0
   -8.4991   17.4689   24.4946 C   0  0  0  0  0  0  0  0  0  0  0  0
   -8.3679   18.1995   25.8973 C   0  0  0  0  0  0  0  0  0  0  0  0
   -6.4735   20.3209   23.8554 C   0  0  0  0  0  0  0  0  0  0  0  0
   -3.7897   20.3487   24.1809 C   0  0  0  0  0  0  0  0  0  0  0  0
   -6.9112   18.7396   25.8705 C   0  0  0  0  0  0  0  0  0  0  0  0
   -6.5853   15.9193   23.8835 C   0  0  0  0  0  0  0  0  0  0  0  0
   -7.7083   18.3457   23.5113 C   0  0  0  0  0  0  0  0  0  0  0  0
   -4.9242   17.1441   25.1818 C   0  0  0  0  0  0  0  0  0  0  0  0
  1  3  1  0
  2  4  1  0
  2 11  1  0
  2 16  1  0
  2 21  1  0
  3  9  1  0
  3 13  1  0
  3 19  1  0
  5  7  1  0
  5  8  1  0
  6  8  1  0
  6 12  1  0
  7 19  1  0
  9 12  1  0
 10 12  1  0
 11 23  1  0
 13 14  1  0
 13 23  1  0
 14 18  1  0
 14 20  1  0
 14 22  1  0
 15 19  1  0
 16 17  1  0
 16 22  1  0
 17 20  1  0
M  END
>  <ID>  (1) 
conformer_0

$$$$
