
     RDKit          3D

 28 32  0  0  0  0  0  0  0  0999 V2000
   -4.4011   19.0049   23.9766 C   0  0  0  0  0  0  0  0  0  0  0  0
   -6.0772   20.5781   23.6147 C   0  0  0  0  0  0  0  0  0  0  0  0
   -3.4440   21.1753   18.9976 F   0  0  0  0  0  0  0  0  0  0  0  0
   -4.4166   22.0183   20.8008 C   0  0  0  0  0  0  0  0  0  0  0  0
   -6.6398   18.3488   24.7441 C   0  0  0  0  0  0  0  0  0  0  0  0
   -2.7406   22.5806   22.2985 O   0  0  0  0  0  0  0  0  0  0  0  0
   -4.9501   16.7398   24.8931 C   0  0  0  0  0  0  0  0  0  0  0  0
   -5.7327   19.2542   24.1590 C   0  0  0  0  0  0  0  0  0  0  0  0
   -3.0103   21.7780   21.2782 C   0  0  0  0  0  0  0  0  0  0  0  0
   -2.4025   20.5173   21.4127 N   0  0  0  0  0  0  0  0  0  0  0  0
   -6.3068   17.0120   24.9952 C   0  0  0  0  0  0  0  0  0  0  0  0
   -3.7460   20.1773   23.3265 C   0  0  0  0  0  0  0  0  0  0  0  0
   -3.3289   22.0607   19.9807 C   0  0  0  0  0  0  0  0  0  0  0  0
   -8.1877   15.8482   26.4522 C   0  0  0  0  0  0  0  0  0  0  0  0
   -2.9905   23.2267   19.4366 F   0  0  0  0  0  0  0  0  0  0  0  0
   -9.3454   16.8533   26.4799 C   0  0  0  0  0  0  0  0  0  0  0  0
   -7.7665   15.4941   27.6530 O   0  0  0  0  0  0  0  0  0  0  0  0
   -5.2386   23.1155   20.5968 F   0  0  0  0  0  0  0  0  0  0  0  0
   -9.0738   17.8839   25.4236 N   0  0  0  0  0  0  0  0  0  0  0  0
   -7.3682   16.0287   25.2624 C   0  0  0  0  0  0  0  0  0  0  0  0
   -4.0114   17.6900   24.3979 C   0  0  0  0  0  0  0  0  0  0  0  0
   -8.2704   16.0913   24.0092 C   0  0  0  0  0  0  0  0  0  0  0  0
   -4.8756   21.0155   22.8523 C   0  0  0  0  0  0  0  0  0  0  0  0
   -2.4819   19.8720   22.6875 C   0  0  0  0  0  0  0  0  0  0  0  0
   -9.3470   17.1823   24.1221 C   0  0  0  0  0  0  0  0  0  0  0  0
   -1.5798   19.2075   23.2088 O   0  0  0  0  0  0  0  0  0  0  0  0
   -7.9857   18.8075   25.1780 C   0  0  0  0  0  0  0  0  0  0  0  0
   -5.1610   20.9345   21.4023 C   0  0  0  0  0  0  0  0  0  0  0  0
  1  8  2  0
  1 12  1  0
  1 21  1  0
  2  8  1  0
  2 23  1  0
  3 13  1  0
  4 13  1  0
  4 18  1  0
  4 28  1  0
  5  8  1  0
  5 11  1  0
  5 27  1  0
  6  9  2  0
  7 11  2  0
  7 21  1  0
  9 10  1  0
  9 13  1  0
 10 24  1  0
 11 20  1  0
 12 23  1  0
 12 24  1  0
 13 15  1  0
 14 16  1  0
 14 17  1  0
 14 20  1  0
 16 19  1  0
 19 25  1  0
 19 27  1  0
 20 22  1  0
 22 25  1  0
 23 28  1  0
 24 26  2  0
M  END
>  <ID>  (1) 
conformer_0

$$$$
