
     RDKit          3D

 39 42  0  0  0  0  0  0  0  0999 V2000
   -4.1302   22.5937   20.6306 C   0  0  0  0  0  0  0  0  0  0  0  0
   -4.3981   20.4153   18.9292 O   0  0  0  0  0  0  0  0  0  0  0  0
   -7.7564   19.1396   25.7968 C   0  0  0  0  0  0  0  0  0  0  0  0
   -2.0254   19.7153   22.8680 C   0  0  0  0  0  0  0  0  0  0  0  0
   -6.5681   15.8488   24.8937 C   0  0  0  0  0  0  0  0  0  0  0  0
   -4.0285   16.8047   24.5827 O   0  0  0  0  0  0  0  0  0  0  0  0
   -3.0359   20.9880   19.2419 C   0  0  0  0  0  0  0  0  0  0  0  0
   -5.6262   18.6964   24.7880 C   0  0  0  0  0  0  0  0  0  0  0  0
   -2.7843   20.9396   22.5761 C   0  0  0  0  0  0  0  0  0  0  0  0
   -5.7296   21.4095   22.1309 C   0  0  0  0  0  0  0  0  0  0  0  0
   -4.6989   21.2678   21.1069 C   0  0  0  0  0  0  0  0  0  0  0  0
   -5.1459   23.5227   20.6468 O   0  0  0  0  0  0  0  0  0  0  0  0
   -3.4137   21.2374   23.7042 C   0  0  0  0  0  0  0  0  0  0  0  0
   -2.0996   21.7121   21.4411 C   0  0  0  0  0  0  0  0  0  0  0  0
   -2.4405   20.5607   20.5637 C   0  0  0  0  0  0  0  0  0  0  0  0
   -7.4139   16.9628   24.5530 C   0  0  0  0  0  0  0  0  0  0  0  0
   -9.7489   16.2391   25.1663 C   0  0  0  0  0  0  0  0  0  0  0  0
   -9.0307   15.2502   25.9486 O   0  0  0  0  0  0  0  0  0  0  0  0
   -3.6526   20.3019   21.3917 C   0  0  0  0  0  0  0  0  0  0  0  0
   -6.4889   20.1960   20.0235 O   0  0  0  0  0  0  0  0  0  0  0  0
   -9.2916   15.3657   27.3243 C   0  0  0  0  0  0  0  0  0  0  0  0
   -4.4362   17.9864   24.0339 C   0  0  0  0  0  0  0  0  0  0  0  0
   -2.1185   18.1108   24.0221 O   0  0  0  0  0  0  0  0  0  0  0  0
   -4.0663   22.2649   24.1881 O   0  0  0  0  0  0  0  0  0  0  0  0
   -0.8718   22.0448   21.9468 O   0  0  0  0  0  0  0  0  0  0  0  0
   -5.2932   20.7348   19.8445 O   0  0  0  0  0  0  0  0  0  0  0  0
   -6.0486   15.8031   26.2744 O   0  0  0  0  0  0  0  0  0  0  0  0
   -5.2664   19.9331   25.1812 C   0  0  0  0  0  0  0  0  0  0  0  0
   -6.0882   20.8365   25.7713 C   0  0  0  0  0  0  0  0  0  0  0  0
  -10.5129   17.2373   26.0685 C   0  0  0  0  0  0  0  0  0  0  0  0
   -2.0613   20.9093   18.2837 O   0  0  0  0  0  0  0  0  0  0  0  0
   -0.8852   19.4106   22.2986 O   0  0  0  0  0  0  0  0  0  0  0  0
   -3.2187   18.6758   23.2425 C   0  0  0  0  0  0  0  0  0  0  0  0
   -6.9278   18.2541   25.0550 C   0  0  0  0  0  0  0  0  0  0  0  0
   -4.0286   19.0107   21.9386 C   0  0  0  0  0  0  0  0  0  0  0  0
   -2.9351   23.0611   21.3428 F   0  0  0  0  0  0  0  0  0  0  0  0
   -7.3645   20.4039   26.1940 C   0  0  0  0  0  0  0  0  0  0  0  0
   -8.8251   16.9057   24.1706 C   0  0  0  0  0  0  0  0  0  0  0  0
   -3.4481   22.4546   19.3715 C   0  0  0  0  0  0  0  0  0  0  0  0
  1 11  1  0
  1 12  1  0
  1 36  1  0
  1 39  1  0
  2  7  1  0
  2 26  1  0
  3 34  2  0
  3 37  1  0
  4  9  1  0
  4 32  1  0
  4 33  1  0
  5 16  1  0
  5 27  1  0
  6 22  1  0
  7 15  1  0
  7 31  1  0
  7 39  1  0
  8 22  1  0
  8 28  2  0
  8 34  1  0
  9 13  1  0
  9 14  1  0
  9 19  1  0
 10 11  1  0
 11 19  1  0
 13 24  1  0
 14 15  1  0
 14 25  1  0
 15 19  1  0
 16 34  1  0
 16 38  1  0
 17 18  1  0
 17 30  1  0
 17 38  1  0
 18 21  1  0
 19 35  1  0
 20 26  1  0
 22 33  1  0
 23 33  1  0
 28 29  1  0
 29 37  2  0
 33 35  1  0
M  END
>  <ID>  (1) 
conformer_0

$$$$
