
     RDKit          3D

 22 24  0  0  0  0  0  0  0  0999 V2000
   -6.2445   21.4902   21.3377 O   0  0  0  0  0  0  0  0  0  0  0  0
   -8.7690   15.8482   26.7041 C   0  0  0  0  0  0  0  0  0  0  0  0
   -6.3483   20.5505   24.0359 O   0  0  0  0  0  0  0  0  0  0  0  0
   -2.9601   22.5531   21.1799 C   0  0  0  0  0  0  0  0  0  0  0  0
   -3.5994   21.4033   23.5293 C   0  0  0  0  0  0  0  0  0  0  0  0
   -5.4348   19.7532   23.3816 C   0  0  0  0  0  0  0  0  0  0  0  0
   -4.6961   18.5804   24.0077 C   0  0  0  0  0  0  0  0  0  0  0  0
   -2.1582   21.2772   23.1509 C   0  0  0  0  0  0  0  0  0  0  0  0
   -5.6476   17.1631   25.7954 C   0  0  0  0  0  0  0  0  0  0  0  0
   -2.5433   20.0455   21.1281 C   0  0  0  0  0  0  0  0  0  0  0  0
   -3.2101   18.8113   23.5494 C   0  0  0  0  0  0  0  0  0  0  0  0
   -4.4271   20.5461   22.5633 C   0  0  0  0  0  0  0  0  0  0  0  0
   -3.4355   19.4086   22.1677 C   0  0  0  0  0  0  0  0  0  0  0  0
   -8.1977   17.0479   26.0256 C   0  0  0  0  0  0  0  0  0  0  0  0
   -4.6593   17.1720   24.6301 C   0  0  0  0  0  0  0  0  0  0  0  0
   -4.9861   21.1629   21.3637 C   0  0  0  0  0  0  0  0  0  0  0  0
   -2.0917   21.3937   21.6581 C   0  0  0  0  0  0  0  0  0  0  0  0
   -6.9660   16.5909   25.2750 C   0  0  0  0  0  0  0  0  0  0  0  0
   -9.2030   17.7384   25.1162 C   0  0  0  0  0  0  0  0  0  0  0  0
   -5.5844   18.4047   26.5100 O   0  0  0  0  0  0  0  0  0  0  0  0
   -4.1525   21.9600   20.4183 C   0  0  0  0  0  0  0  0  0  0  0  0
   -7.7627   15.0888   27.3807 O   0  0  0  0  0  0  0  0  0  0  0  0
  1 16  1  0
  2 14  1  0
  2 22  1  0
  3  6  1  0
  4 17  1  0
  4 21  1  0
  5  8  1  0
  5 12  1  0
  6  7  1  0
  6 12  1  0
  7 11  1  0
  7 15  1  0
  8 17  1  0
  9 15  1  0
  9 18  1  0
  9 20  1  0
 10 13  1  0
 10 17  1  0
 11 13  1  0
 12 13  1  0
 12 16  1  0
 14 18  1  0
 14 19  1  0
 16 21  1  0
M  END
>  <ID>  (1) 
conformer_0

$$$$
