
     RDKit          3D

 13 14  0  0  0  0  0  0  0  0999 V2000
   32.7898   19.6704   36.3285 C   0  0  0  0  0  0  0  0  0  0  0  0
   34.0034   19.4984   36.4443 C   0  0  0  0  0  0  0  0  0  0  0  0
   34.5742   18.2560   36.4817 C   0  0  0  0  0  0  0  0  0  0  0  0
   33.7879   17.1565   36.5365 C   0  0  0  0  0  0  0  0  0  0  0  0
   34.3953   15.9105   36.8258 N   0  0  0  0  0  0  0  0  0  0  0  0
   36.0089   18.0245   36.6945 C   0  0  0  0  0  0  0  0  0  0  0  0
   36.9356   19.0596   36.8812 O   0  0  0  0  0  0  0  0  0  0  0  0
   35.6618   15.6789   36.9890 C   0  0  0  0  0  0  0  0  0  0  0  0
   36.1990   14.4104   37.2420 N   0  0  0  0  0  0  0  0  0  0  0  0
   32.5185   17.3940   36.1136 C   0  0  0  0  0  0  0  0  0  0  0  0
   36.5821   16.7328   37.1301 C   0  0  0  0  0  0  0  0  0  0  0  0
   31.9946   18.6345   35.9796 C   0  0  0  0  0  0  0  0  0  0  0  0
   38.2638   18.8544   36.7132 C   0  0  0  0  0  0  0  0  0  0  0  0
  1  2  1  0
  2  3  2  0
  3  4  1  0
  4  5  1  0
  3  6  1  0
  6  7  1  0
  5  8  2  0
  8  9  1  0
  4 10  2  0
  6 11  2  0
  8 11  1  0
  1 12  2  0
 10 12  1  0
  7 13  1  0
M  END
>  <ID>  (1) 
conformer_0

$$$$
