
     RDKit          3D

 13 14  0  0  0  0  0  0  0  0999 V2000
   31.1157   18.6098   35.1113 O   0  0  0  0  0  0  0  0  0  0  0  0
   32.2289   18.4358   35.7906 C   0  0  0  0  0  0  0  0  0  0  0  0
   33.2189   19.5013   35.8033 N   0  0  0  0  0  0  0  0  0  0  0  0
   34.3898   19.2969   36.2239 C   0  0  0  0  0  0  0  0  0  0  0  0
   35.4014   20.0778   35.8090 N   0  0  0  0  0  0  0  0  0  0  0  0
   34.6455   17.9561   36.7425 C   0  0  0  0  0  0  0  0  0  0  0  0
   33.8765   16.9349   36.6872 C   0  0  0  0  0  0  0  0  0  0  0  0
   36.0869   17.8037   37.0882 C   0  0  0  0  0  0  0  0  0  0  0  0
   36.6794   19.8666   36.3263 C   0  0  0  0  0  0  0  0  0  0  0  0
   37.0147   18.8004   36.9394 N   0  0  0  0  0  0  0  0  0  0  0  0
   37.5881   20.7452   36.1366 O   0  0  0  0  0  0  0  0  0  0  0  0
   32.5566   17.2483   36.2987 N   0  0  0  0  0  0  0  0  0  0  0  0
   38.3553   18.5467   37.4461 C   0  0  0  0  0  0  0  0  0  0  0  0
  1  2  2  0
  2  3  1  0
  3  4  1  0
  4  5  2  0
  4  6  1  0
  6  7  1  0
  6  8  2  0
  5  9  1  0
  8 10  1  0
  9 10  1  0
  9 11  2  0
  2 12  1  0
  7 12  2  0
 10 13  1  0
M  END
>  <ID>  (1) 
conformer_0

$$$$
