
     RDKit          3D

 14 14  0  0  0  0  0  0  0  0999 V2000
   33.1064   20.1683   35.7441 O   0  0  0  0  0  0  0  0  0  0  0  0
   33.8455   19.1885   36.0538 C   0  0  0  0  0  0  0  0  0  0  0  0
   35.2516   19.3244   36.0232 C   0  0  0  0  0  0  0  0  0  0  0  0
   36.0832   18.2763   36.4528 C   0  0  0  0  0  0  0  0  0  0  0  0
   33.2112   17.9983   36.5049 C   0  0  0  0  0  0  0  0  0  0  0  0
   31.8129   17.9962   36.6054 C   0  0  0  0  0  0  0  0  0  0  0  0
   35.4438   17.1823   37.0626 C   0  0  0  0  0  0  0  0  0  0  0  0
   37.6129   18.4375   36.3776 C   0  0  0  0  0  0  0  0  0  0  0  0
   38.2249   18.1001   37.3773 O   0  0  0  0  0  0  0  0  0  0  0  0
   36.2785   16.1664   37.6139 O   0  0  0  0  0  0  0  0  0  0  0  0
   31.1812   17.7750   37.5741 O   0  0  0  0  0  0  0  0  0  0  0  0
   34.0756   17.0530   37.1428 C   0  0  0  0  0  0  0  0  0  0  0  0
   38.1733   18.7042   35.3142 O   0  0  0  0  0  0  0  0  0  0  0  0
   31.2246   17.8975   35.3837 O   0  0  0  0  0  0  0  0  0  0  0  0
  1  2  1  0
  2  3  2  0
  3  4  1  0
  2  5  1  0
  5  6  1  0
  4  7  2  0
  4  8  1  0
  8  9  2  0
  7 10  1  0
  6 11  2  0
  5 12  2  0
  7 12  1  0
  8 13  1  0
  6 14  1  0
M  END
>  <ID>  (1) 
conformer_0

$$$$
