
     RDKit          3D

 14 16  0  0  0  0  0  0  0  0999 V2000
   33.8716   18.4014   36.8206 C   0  0  0  0  0  0  0  0  0  0  0  0
   33.0471   19.1009   36.2406 C   0  0  0  0  0  0  0  0  0  0  0  0
   35.1047   18.3011   36.6995 C   0  0  0  0  0  0  0  0  0  0  0  0
   35.9685   17.4499   37.4981 C   0  0  0  0  0  0  0  0  0  0  0  0
   33.5595   20.1096   35.4131 N   0  0  0  0  0  0  0  0  0  0  0  0
   35.6849   19.2402   35.8697 C   0  0  0  0  0  0  0  0  0  0  0  0
   35.5379   16.2740   38.0929 C   0  0  0  0  0  0  0  0  0  0  0  0
   34.8590   20.1744   35.2288 C   0  0  0  0  0  0  0  0  0  0  0  0
   37.3696   17.4829   37.1875 C   0  0  0  0  0  0  0  0  0  0  0  0
   34.1288   15.9984   38.1989 C   0  0  0  0  0  0  0  0  0  0  0  0
   37.2029   19.3679   35.7602 C   0  0  0  0  0  0  0  0  0  0  0  0
   33.3975   16.9560   37.4708 N   0  0  0  0  0  0  0  0  0  0  0  0
   31.5403   19.1300   36.2801 C   0  0  0  0  0  0  0  0  0  0  0  0
   37.9335   18.5186   36.4360 C   0  0  0  0  0  0  0  0  0  0  0  0
  1  2  2  0
  1  3  1  0
  3  4  1  0
  2  5  1  0
  3  6  2  0
  4  7  1  0
  5  8  2  0
  6  8  1  0
  4  9  2  0
  7 10  1  0
  6 11  1  0
  1 12  1  0
 10 12  2  0
  2 13  1  0
  9 14  1  0
 11 14  2  0
M  END
>  <ID>  (1) 
conformer_0

$$$$
