
     RDKit          3D

 12 12  0  0  0  0  0  0  0  0999 V2000
   35.7243   19.4797   36.4796 O   0  0  0  0  0  0  0  0  0  0  0  0
   36.9405   18.9400   36.5370 C   0  0  0  0  0  0  0  0  0  0  0  0
   37.0682   17.6531   36.9949 C   0  0  0  0  0  0  0  0  0  0  0  0
   36.0833   16.7961   36.9030 C   0  0  0  0  0  0  0  0  0  0  0  0
   36.3176   15.5306   37.4565 C   0  0  0  0  0  0  0  0  0  0  0  0
   34.6248   18.8288   36.3062 C   0  0  0  0  0  0  0  0  0  0  0  0
   37.6302   17.6948   38.4604 O   0  0  0  0  0  0  0  0  0  0  0  0
   34.6527   17.4378   36.8248 C   0  0  0  0  0  0  0  0  0  0  0  0
   37.9062   19.7485   36.0864 O   0  0  0  0  0  0  0  0  0  0  0  0
   33.6276   16.6843   36.1003 O   0  0  0  0  0  0  0  0  0  0  0  0
   33.3708   19.6265   36.5270 C   0  0  0  0  0  0  0  0  0  0  0  0
   33.2008   20.5854   35.8197 O   0  0  0  0  0  0  0  0  0  0  0  0
  1  2  1  0
  2  3  1  0
  3  4  1  0
  4  5  1  0
  1  6  1  0
  3  7  1  0
  4  8  1  0
  6  8  1  0
  2  9  2  0
  8 10  1  0
  6 11  1  0
 11 12  1  0
M  END
>  <ID>  (1) 
conformer_0

$$$$
