
     RDKit          3D

 12 13  0  0  0  0  0  0  0  0999 V2000
   32.7898   19.6704   36.3285 C   0  0  0  0  0  0  0  0  0  0  0  0
   34.0034   19.4984   36.4443 C   0  0  0  0  0  0  0  0  0  0  0  0
   34.8401   19.6444   35.4733 O   0  0  0  0  0  0  0  0  0  0  0  0
   34.3768   18.0197   36.8090 C   0  0  0  0  0  0  0  0  0  0  0  0
   32.0838   18.5631   35.6577 C   0  0  0  0  0  0  0  0  0  0  0  0
   35.7123   17.7296   36.3863 C   0  0  0  0  0  0  0  0  0  0  0  0
   31.2121   18.8001   34.6949 O   0  0  0  0  0  0  0  0  0  0  0  0
   36.2594   19.2441   35.6566 C   0  0  0  0  0  0  0  0  0  0  0  0
   33.4606   17.1685   36.0619 N   0  0  0  0  0  0  0  0  0  0  0  0
   32.3747   17.5439   35.6386 C   0  0  0  0  0  0  0  0  0  0  0  0
   36.9769   19.9865   36.5758 C   0  0  0  0  0  0  0  0  0  0  0  0
   38.2950   19.9754   36.2444 O   0  0  0  0  0  0  0  0  0  0  0  0
  1  2  1  0
  2  3  1  0
  2  4  1  0
  1  5  1  0
  4  6  1  0
  5  7  1  0
  3  8  1  0
  6  8  1  0
  4  9  1  0
  5 10  1  0
  9 10  1  0
  8 11  1  0
 11 12  1  0
M  END
>  <ID>  (1) 
conformer_0

$$$$
