
     RDKit          3D

 11 10  0  0  0  0  0  0  0  0999 V2000
   31.1340   18.7072   35.4026 O   0  0  0  0  0  0  0  0  0  0  0  0
   32.0743   18.1990   35.9851 C   0  0  0  0  0  0  0  0  0  0  0  0
   33.3449   18.8759   36.1085 C   0  0  0  0  0  0  0  0  0  0  0  0
   34.4683   18.2019   36.4826 C   0  0  0  0  0  0  0  0  0  0  0  0
   35.7917   18.8319   36.1271 C   0  0  0  0  0  0  0  0  0  0  0  0
   36.8321   18.7569   37.1947 C   0  0  0  0  0  0  0  0  0  0  0  0
   31.9825   17.0730   36.5642 O   0  0  0  0  0  0  0  0  0  0  0  0
   37.4308   17.7778   37.5064 O   0  0  0  0  0  0  0  0  0  0  0  0
   33.5902   19.5253   34.8289 O   0  0  0  0  0  0  0  0  0  0  0  0
   36.1194   19.1543   34.9183 C   0  0  0  0  0  0  0  0  0  0  0  0
   37.7611   19.7971   36.9239 O   0  0  0  0  0  0  0  0  0  0  0  0
  1  2  2  0
  2  3  1  0
  3  4  1  0
  4  5  1  0
  5  6  1  0
  2  7  1  0
  6  8  1  0
  3  9  1  0
  5 10  2  0
  6 11  1  0
M  END
>  <ID>  (1) 
conformer_0

$$$$
