
     RDKit          3D

 11 11  0  0  0  0  0  0  0  0999 V2000
   33.8716   18.4014   36.8206 C   0  0  0  0  0  0  0  0  0  0  0  0
   33.0471   19.1009   36.2406 C   0  0  0  0  0  0  0  0  0  0  0  0
   35.1047   18.3011   36.6995 C   0  0  0  0  0  0  0  0  0  0  0  0
   35.9685   17.4499   37.4981 C   0  0  0  0  0  0  0  0  0  0  0  0
   35.7576   19.2450   35.9755 C   0  0  0  0  0  0  0  0  0  0  0  0
   37.2169   19.3280   36.0151 C   0  0  0  0  0  0  0  0  0  0  0  0
   31.7540   18.9056   35.9747 O   0  0  0  0  0  0  0  0  0  0  0  0
   33.5521   20.3556   35.6162 O   0  0  0  0  0  0  0  0  0  0  0  0
   37.9774   18.4386   36.7294 C   0  0  0  0  0  0  0  0  0  0  0  0
   37.3212   17.5309   37.5283 C   0  0  0  0  0  0  0  0  0  0  0  0
   37.8141   20.2986   35.1466 O   0  0  0  0  0  0  0  0  0  0  0  0
  1  2  2  3
  1  3  1  0
  3  4  2  0
  3  5  1  0
  5  6  2  0
  2  7  1  0
  2  8  1  0
  6  9  1  0
  4 10  1  0
  9 10  2  0
  6 11  1  0
M  END
>  <ID>  (1) 
conformer_0

$$$$
