
     RDKit          3D

 14 15  0  0  0  0  0  0  0  0999 V2000
   32.7898   19.6704   36.3285 C   0  0  0  0  0  0  0  0  0  0  0  0
   34.0034   19.4984   36.4443 C   0  0  0  0  0  0  0  0  0  0  0  0
   34.5002   18.3439   36.2457 C   0  0  0  0  0  0  0  0  0  0  0  0
   31.8795   18.6915   35.9316 C   0  0  0  0  0  0  0  0  0  0  0  0
   30.5085   18.9934   35.7299 O   0  0  0  0  0  0  0  0  0  0  0  0
   33.5996   17.2856   35.9736 C   0  0  0  0  0  0  0  0  0  0  0  0
   32.3402   17.4771   35.7966 C   0  0  0  0  0  0  0  0  0  0  0  0
   36.0252   18.0330   36.5297 C   0  0  0  0  0  0  0  0  0  0  0  0
   36.9194   18.8256   35.7515 C   0  0  0  0  0  0  0  0  0  0  0  0
   36.4832   17.0854   37.3508 C   0  0  0  0  0  0  0  0  0  0  0  0
   37.9002   17.1805   37.5748 C   0  0  0  0  0  0  0  0  0  0  0  0
   38.3590   16.2724   38.5561 O   0  0  0  0  0  0  0  0  0  0  0  0
   38.7452   17.9162   36.8899 C   0  0  0  0  0  0  0  0  0  0  0  0
   38.2940   18.8060   35.9271 C   0  0  0  0  0  0  0  0  0  0  0  0
  1  2  1  0
  2  3  2  0
  1  4  2  0
  4  5  1  0
  3  6  1  0
  4  7  1  0
  6  7  2  0
  3  8  1  0
  8  9  1  0
  8 10  2  0
 10 11  1  0
 11 12  1  0
 11 13  2  0
  9 14  2  0
 13 14  1  0
M  END
>  <ID>  (1) 
conformer_0

$$$$
