
     RDKit          3D

 14 14  0  0  0  0  0  0  0  0999 V2000
   36.3301   17.5365   37.4867 C   0  0  0  0  0  0  0  0  0  0  0  0
   35.3583   17.8088   36.7869 C   0  0  0  0  0  0  0  0  0  0  0  0
   36.5775   16.4168   38.2293 C   0  0  0  0  0  0  0  0  0  0  0  0
   37.5364   18.4758   37.3914 C   0  0  0  0  0  0  0  0  0  0  0  0
   34.0706   17.1125   37.1260 C   0  0  0  0  0  0  0  0  0  0  0  0
   38.7400   17.9514   37.6344 O   0  0  0  0  0  0  0  0  0  0  0  0
   32.7871   17.6227   36.5751 C   0  0  0  0  0  0  0  0  0  0  0  0
   37.3804   19.5973   36.9016 O   0  0  0  0  0  0  0  0  0  0  0  0
   31.7451   17.3346   37.1383 O   0  0  0  0  0  0  0  0  0  0  0  0
   35.3789   15.6649   38.4826 C   0  0  0  0  0  0  0  0  0  0  0  0
   35.4246   14.4261   39.2126 C   0  0  0  0  0  0  0  0  0  0  0  0
   34.1525   16.0044   37.8764 C   0  0  0  0  0  0  0  0  0  0  0  0
   32.7282   18.4505   35.4594 N   0  0  0  0  0  0  0  0  0  0  0  0
   31.5604   18.8848   34.9257 O   0  0  0  0  0  0  0  0  0  0  0  0
  1  2  1  0
  1  3  2  0
  1  4  1  0
  2  5  2  0
  4  6  1  0
  5  7  1  0
  4  8  2  0
  7  9  2  0
  3 10  1  0
 10 11  1  0
  5 12  1  0
 10 12  2  0
  7 13  1  0
 13 14  1  0
M  END
>  <ID>  (1) 
conformer_0

$$$$
