
     RDKit          3D

 14 15  0  0  0  0  0  0  0  0999 V2000
   36.3301   17.5365   37.4867 C   0  0  0  0  0  0  0  0  0  0  0  0
   35.3583   17.8088   36.7869 C   0  0  0  0  0  0  0  0  0  0  0  0
   37.5672   18.3314   37.0769 C   0  0  0  0  0  0  0  0  0  0  0  0
   35.0560   18.8923   36.0000 C   0  0  0  0  0  0  0  0  0  0  0  0
   33.7945   19.2540   35.4770 N   0  0  0  0  0  0  0  0  0  0  0  0
   37.4278   19.4089   36.2764 C   0  0  0  0  0  0  0  0  0  0  0  0
   36.2290   19.6869   35.7045 N   0  0  0  0  0  0  0  0  0  0  0  0
   32.8078   18.2768   35.6153 C   0  0  0  0  0  0  0  0  0  0  0  0
   32.5351   17.7797   36.6216 N   0  0  0  0  0  0  0  0  0  0  0  0
   33.8640   17.2146   37.2342 C   0  0  0  0  0  0  0  0  0  0  0  0
   38.7930   18.0145   37.8211 C   0  0  0  0  0  0  0  0  0  0  0  0
   38.4911   20.1272   35.7836 O   0  0  0  0  0  0  0  0  0  0  0  0
   31.5716   18.8371   34.9422 N   0  0  0  0  0  0  0  0  0  0  0  0
   33.9129   16.5909   38.2348 O   0  0  0  0  0  0  0  0  0  0  0  0
  1  2  1  0
  1  3  2  0
  2  4  2  0
  4  5  1  0
  3  6  1  0
  4  7  1  0
  6  7  2  0
  5  8  1  0
  8  9  2  0
  2 10  1  0
  9 10  1  0
  3 11  1  0
  6 12  1  0
  8 13  1  0
 10 14  2  0
M  END
>  <ID>  (1) 
conformer_0

$$$$
