
     RDKit          3D

 13 14  0  0  0  0  0  0  0  0999 V2000
   36.3301   17.5365   37.4867 C   0  0  0  0  0  0  0  0  0  0  0  0
   35.3583   17.8088   36.7869 C   0  0  0  0  0  0  0  0  0  0  0  0
   37.5672   18.3314   37.0769 C   0  0  0  0  0  0  0  0  0  0  0  0
   35.0560   18.8923   36.0000 C   0  0  0  0  0  0  0  0  0  0  0  0
   33.7945   19.2540   35.4770 N   0  0  0  0  0  0  0  0  0  0  0  0
   36.1800   19.6915   35.6730 N   0  0  0  0  0  0  0  0  0  0  0  0
   37.5177   19.3053   36.2718 C   0  0  0  0  0  0  0  0  0  0  0  0
   38.3016   19.8992   35.8205 O   0  0  0  0  0  0  0  0  0  0  0  0
   32.7622   18.3385   35.5377 C   0  0  0  0  0  0  0  0  0  0  0  0
   31.6536   18.8111   34.9989 O   0  0  0  0  0  0  0  0  0  0  0  0
   34.0398   16.9578   37.1571 C   0  0  0  0  0  0  0  0  0  0  0  0
   38.8117   18.0861   37.7788 C   0  0  0  0  0  0  0  0  0  0  0  0
   32.7807   17.3372   36.5401 C   0  0  0  0  0  0  0  0  0  0  0  0
  1  2  1  0
  1  3  2  0
  2  4  2  0
  4  5  1  0
  4  6  1  0
  3  7  1  0
  6  7  1  0
  7  8  2  0
  5  9  1  0
  9 10  2  0
  2 11  1  0
  3 12  1  0
  9 13  1  0
 11 13  2  0
M  END
>  <ID>  (1) 
conformer_0

$$$$
