
     RDKit          3D

 10  9  0  0  0  0  0  0  0  0999 V2000
   31.6860   18.8817   35.2335 O   0  0  0  0  0  0  0  0  0  0  0  0
   32.7590   18.7237   35.9950 C   0  0  0  0  0  0  0  0  0  0  0  0
   33.7902   19.5976   35.7947 C   0  0  0  0  0  0  0  0  0  0  0  0
   35.0214   19.1473   36.5222 C   0  0  0  0  0  0  0  0  0  0  0  0
   32.4177   18.4567   37.2220 O   0  0  0  0  0  0  0  0  0  0  0  0
   35.6537   17.8979   36.0801 C   0  0  0  0  0  0  0  0  0  0  0  0
   37.0823   17.8909   36.3277 N   0  0  0  0  0  0  0  0  0  0  0  0
   35.2045   16.9565   35.5178 O   0  0  0  0  0  0  0  0  0  0  0  0
   37.8587   18.9136   36.9720 C   0  0  0  0  0  0  0  0  0  0  0  0
   37.8774   16.7696   35.6470 C   0  0  0  0  0  0  0  0  0  0  0  0
  1  2  1  0
  2  3  1  0
  3  4  1  0
  2  5  2  0
  4  6  1  0
  6  7  1  0
  6  8  2  0
  7  9  1  0
  7 10  1  0
M  END
>  <ID>  (1) 
conformer_0

$$$$
