
     RDKit          3D

 14 15  0  0  0  0  0  0  0  0999 V2000
   35.7243   19.4797   36.4796 O   0  0  0  0  0  0  0  0  0  0  0  0
   36.9405   18.9400   36.5370 C   0  0  0  0  0  0  0  0  0  0  0  0
   34.5886   18.6735   36.5593 C   0  0  0  0  0  0  0  0  0  0  0  0
   34.6713   17.4002   36.7417 C   0  0  0  0  0  0  0  0  0  0  0  0
   38.0214   19.7072   36.4063 O   0  0  0  0  0  0  0  0  0  0  0  0
   33.2514   19.2789   36.3911 C   0  0  0  0  0  0  0  0  0  0  0  0
   35.8433   16.9407   37.3386 C   0  0  0  0  0  0  0  0  0  0  0  0
   37.0279   17.6122   36.9551 C   0  0  0  0  0  0  0  0  0  0  0  0
   33.1823   20.5989   36.0405 O   0  0  0  0  0  0  0  0  0  0  0  0
   32.0029   18.6774   36.4452 C   0  0  0  0  0  0  0  0  0  0  0  0
   30.9060   19.2211   36.1440 O   0  0  0  0  0  0  0  0  0  0  0  0
   32.1292   17.2423   36.6797 C   0  0  0  0  0  0  0  0  0  0  0  0
   33.3979   16.6616   36.9098 C   0  0  0  0  0  0  0  0  0  0  0  0
   38.2885   17.1343   37.1357 O   0  0  0  0  0  0  0  0  0  0  0  0
  1  2  1  0
  1  3  1  0
  3  4  1  0
  2  5  2  0
  3  6  2  0
  4  7  1  0
  2  8  1  0
  7  8  2  0
  6  9  1  0
  6 10  1  0
 10 11  1  0
 10 12  2  0
  4 13  2  0
 12 13  1  0
  8 14  1  0
M  END
>  <ID>  (1) 
conformer_0

$$$$
