
     RDKit          3D

 14 16  0  0  0  0  0  0  0  0999 V2000
   32.7898   19.6704   36.3285 C   0  0  0  0  0  0  0  0  0  0  0  0
   32.7093   18.3861   36.1811 C   0  0  0  0  0  0  0  0  0  0  0  0
   33.7926   17.6097   36.0767 N   0  0  0  0  0  0  0  0  0  0  0  0
   31.7290   17.9510   37.0562 O   0  0  0  0  0  0  0  0  0  0  0  0
   35.0303   18.3099   35.9192 C   0  0  0  0  0  0  0  0  0  0  0  0
   34.0036   16.3943   36.5464 C   0  0  0  0  0  0  0  0  0  0  0  0
   31.9147   20.4681   35.5255 O   0  0  0  0  0  0  0  0  0  0  0  0
   34.1080   20.2317   35.5824 O   0  0  0  0  0  0  0  0  0  0  0  0
   35.2313   19.6175   35.7398 C   0  0  0  0  0  0  0  0  0  0  0  0
   36.2436   17.4098   35.9958 C   0  0  0  0  0  0  0  0  0  0  0  0
   35.7519   16.0833   36.3404 C   0  0  0  0  0  0  0  0  0  0  0  0
   36.5628   20.1728   35.5354 C   0  0  0  0  0  0  0  0  0  0  0  0
   37.6378   19.3103   35.6709 C   0  0  0  0  0  0  0  0  0  0  0  0
   37.4971   17.9473   35.9037 C   0  0  0  0  0  0  0  0  0  0  0  0
  1  2  1  0
  2  3  1  0
  2  4  1  0
  3  5  1  0
  3  6  1  0
  1  7  1  0
  1  8  1  0
  5  9  2  0
  8  9  1  0
  5 10  1  0
  6 11  2  0
 10 11  1  0
  9 12  1  0
 12 13  2  0
 10 14  2  0
 13 14  1  0
M  END
>  <ID>  (1) 
conformer_0

$$$$
