
     RDKit          3D

 11 11  0  0  0  0  0  0  0  0999 V2000
   34.6476   19.7571   36.2470 O   0  0  0  0  0  0  0  0  0  0  0  0
   33.5490   19.1779   35.9949 C   0  0  0  0  0  0  0  0  0  0  0  0
   35.7198   18.8787   36.4449 C   0  0  0  0  0  0  0  0  0  0  0  0
   35.5916   17.6317   36.7299 C   0  0  0  0  0  0  0  0  0  0  0  0
   36.9082   19.5082   37.1840 C   0  0  0  0  0  0  0  0  0  0  0  0
   32.4865   19.9680   35.6609 O   0  0  0  0  0  0  0  0  0  0  0  0
   36.3118   18.9534   34.9387 C   0  0  0  0  0  0  0  0  0  0  0  0
   33.1337   18.0456   36.9313 C   0  0  0  0  0  0  0  0  0  0  0  0
   34.3075   17.2397   37.2016 C   0  0  0  0  0  0  0  0  0  0  0  0
   38.1505   19.6035   36.5875 O   0  0  0  0  0  0  0  0  0  0  0  0
   31.9907   17.6000   37.0730 O   0  0  0  0  0  0  0  0  0  0  0  0
  1  2  1  0
  1  3  1  0
  3  4  1  0
  3  5  1  0
  2  6  1  0
  3  7  1  0
  2  8  1  0
  4  9  1  0
  8  9  1  0
  5 10  1  0
  8 11  2  0
M  END
>  <ID>  (1) 
conformer_0

$$$$
