
     RDKit          3D

 12 13  0  0  0  0  0  0  0  0999 V2000
   31.1157   18.6098   35.1113 O   0  0  0  0  0  0  0  0  0  0  0  0
   32.2289   18.4358   35.7906 C   0  0  0  0  0  0  0  0  0  0  0  0
   33.2189   19.5013   35.8033 N   0  0  0  0  0  0  0  0  0  0  0  0
   34.3898   19.2969   36.2239 C   0  0  0  0  0  0  0  0  0  0  0  0
   35.4014   20.0778   35.8090 N   0  0  0  0  0  0  0  0  0  0  0  0
   34.6455   17.9561   36.7425 C   0  0  0  0  0  0  0  0  0  0  0  0
   33.9458   17.0264   36.7878 C   0  0  0  0  0  0  0  0  0  0  0  0
   34.1888   15.7943   37.4105 N   0  0  0  0  0  0  0  0  0  0  0  0
   36.6435   19.8282   36.3119 C   0  0  0  0  0  0  0  0  0  0  0  0
   32.5478   17.1647   36.3512 N   0  0  0  0  0  0  0  0  0  0  0  0
   36.0603   17.8004   37.1922 C   0  0  0  0  0  0  0  0  0  0  0  0
   37.0002   18.7049   36.9799 N   0  0  0  0  0  0  0  0  0  0  0  0
  1  2  2  0
  2  3  1  0
  3  4  1  0
  4  5  2  0
  4  6  1  0
  6  7  1  0
  7  8  1  0
  5  9  1  0
  2 10  1  0
  7 10  2  0
  6 11  2  0
  9 12  2  0
 11 12  1  0
M  END
>  <ID>  (1) 
conformer_0

$$$$
