
     RDKit          3D

 14 15  0  0  0  0  0  0  0  0999 V2000
   31.2958   18.5112   35.3173 O   0  0  0  0  0  0  0  0  0  0  0  0
   32.3696   18.9083   35.7918 C   0  0  0  0  0  0  0  0  0  0  0  0
   33.3768   17.9688   36.1640 N   0  0  0  0  0  0  0  0  0  0  0  0
   32.6285   20.3096   35.9552 N   0  0  0  0  0  0  0  0  0  0  0  0
   34.7413   18.3784   36.2309 C   0  0  0  0  0  0  0  0  0  0  0  0
   35.4916   17.6236   37.2625 C   0  0  0  0  0  0  0  0  0  0  0  0
   34.8921   16.4256   37.8126 C   0  0  0  0  0  0  0  0  0  0  0  0
   36.6859   17.8605   37.1715 C   0  0  0  0  0  0  0  0  0  0  0  0
   37.2917   18.9718   36.5228 C   0  0  0  0  0  0  0  0  0  0  0  0
   32.8862   16.8968   36.9546 C   0  0  0  0  0  0  0  0  0  0  0  0
   38.4424   19.4379   36.7393 O   0  0  0  0  0  0  0  0  0  0  0  0
   36.5639   19.3551   35.3689 C   0  0  0  0  0  0  0  0  0  0  0  0
   33.6512   16.1367   37.4500 C   0  0  0  0  0  0  0  0  0  0  0  0
   35.2720   19.1364   35.3207 C   0  0  0  0  0  0  0  0  0  0  0  0
  1  2  2  0
  2  3  1  0
  2  4  1  0
  3  5  1  0
  5  6  1  0
  6  7  1  0
  6  8  2  0
  8  9  1  0
  3 10  1  0
  9 11  2  0
  9 12  1  0
  7 13  1  0
 10 13  1  0
  5 14  1  0
 12 14  2  0
M  END
>  <ID>  (1) 
conformer_0

$$$$
