
     RDKit          3D

 14 15  0  0  0  0  0  0  0  0999 V2000
   35.7243   19.4797   36.4796 O   0  0  0  0  0  0  0  0  0  0  0  0
   36.9405   18.9400   36.5370 C   0  0  0  0  0  0  0  0  0  0  0  0
   34.6502   18.6371   36.7211 C   0  0  0  0  0  0  0  0  0  0  0  0
   37.9301   19.4876   35.9468 C   0  0  0  0  0  0  0  0  0  0  0  0
   39.0978   18.9370   35.8800 C   0  0  0  0  0  0  0  0  0  0  0  0
   34.7948   17.3070   36.9258 C   0  0  0  0  0  0  0  0  0  0  0  0
   39.3220   17.6975   36.3722 C   0  0  0  0  0  0  0  0  0  0  0  0
   36.8898   17.5654   37.2539 C   0  0  0  0  0  0  0  0  0  0  0  0
   33.2659   19.2470   36.2447 C   0  0  0  0  0  0  0  0  0  0  0  0
   37.6687   20.7520   35.4349 O   0  0  0  0  0  0  0  0  0  0  0  0
   35.8795   16.8982   37.3336 N   0  0  0  0  0  0  0  0  0  0  0  0
   38.2287   16.9549   37.1042 C   0  0  0  0  0  0  0  0  0  0  0  0
   33.3055   20.4181   35.9028 O   0  0  0  0  0  0  0  0  0  0  0  0
   32.1735   18.5291   36.2390 O   0  0  0  0  0  0  0  0  0  0  0  0
  1  2  1  0
  1  3  1  0
  2  4  2  0
  4  5  1  0
  3  6  2  0
  5  7  2  0
  2  8  1  0
  3  9  1  0
  4 10  1  0
  6 11  1  0
  8 11  2  0
  7 12  1  0
  8 12  1  0
  9 13  2  0
  9 14  1  0
M  END
>  <ID>  (1) 
conformer_0

$$$$
