
     RDKit          3D

 14 15  0  0  0  0  0  0  0  0999 V2000
   37.5756   19.9561   35.6456 O   0  0  0  0  0  0  0  0  0  0  0  0
   37.2188   18.9737   35.4144 C   0  0  0  0  0  0  0  0  0  0  0  0
   36.4778   18.2673   36.3438 C   0  0  0  0  0  0  0  0  0  0  0  0
   36.9553   17.2398   36.9903 C   0  0  0  0  0  0  0  0  0  0  0  0
   34.9686   18.1473   36.1571 C   0  0  0  0  0  0  0  0  0  0  0  0
   37.3007   18.7617   34.3117 O   0  0  0  0  0  0  0  0  0  0  0  0
   35.9226   16.5810   37.8671 C   0  0  0  0  0  0  0  0  0  0  0  0
   34.2394   17.4166   37.0522 C   0  0  0  0  0  0  0  0  0  0  0  0
   34.1819   19.2021   35.4377 N   0  0  0  0  0  0  0  0  0  0  0  0
   36.6951   15.5128   38.7394 C   0  0  0  0  0  0  0  0  0  0  0  0
   34.8660   16.5754   37.8719 C   0  0  0  0  0  0  0  0  0  0  0  0
   32.7303   17.8146   36.8791 C   0  0  0  0  0  0  0  0  0  0  0  0
   32.8801   19.0794   35.7485 C   0  0  0  0  0  0  0  0  0  0  0  0
   31.8409   18.6988   34.8241 O   0  0  0  0  0  0  0  0  0  0  0  0
  1  2  1  0
  2  3  1  0
  3  4  2  0
  3  5  1  0
  2  6  2  0
  4  7  1  0
  5  8  2  0
  5  9  1  0
  7 10  1  0
  7 11  2  0
  8 11  1  0
  8 12  1  0
  9 13  1  0
 12 13  1  0
 13 14  1  0
M  END
>  <ID>  (1) 
conformer_0

$$$$
