
     RDKit          3D

 11 11  0  0  0  0  0  0  0  0999 V2000
   34.6476   19.7571   36.2470 C   0  0  0  0  0  0  0  0  0  0  0  0
   33.4738   18.9995   36.3271 C   0  0  0  0  0  0  0  0  0  0  0  0
   33.2965   17.8443   36.7775 N   0  0  0  0  0  0  0  0  0  0  0  0
   35.7610   19.0476   36.4943 C   0  0  0  0  0  0  0  0  0  0  0  0
   32.1682   19.6266   35.8209 O   0  0  0  0  0  0  0  0  0  0  0  0
   37.0720   19.7363   36.4097 C   0  0  0  0  0  0  0  0  0  0  0  0
   34.4415   17.2532   37.2712 C   0  0  0  0  0  0  0  0  0  0  0  0
   37.3781   20.2315   35.3844 O   0  0  0  0  0  0  0  0  0  0  0  0
   34.3100   15.9729   37.9340 C   0  0  0  0  0  0  0  0  0  0  0  0
   37.8264   19.5650   37.3169 O   0  0  0  0  0  0  0  0  0  0  0  0
   35.6521   17.8397   37.1625 C   0  0  0  0  0  0  0  0  0  0  0  0
  1  2  1  0
  2  3  2  0
  1  4  2  0
  2  5  1  0
  4  6  1  0
  3  7  1  0
  6  8  2  0
  7  9  1  0
  6 10  1  0
  4 11  1  0
  7 11  2  0
M  END
>  <ID>  (1) 
conformer_0

$$$$
