
     RDKit          3D

 13 14  0  0  0  0  0  0  0  0999 V2000
   32.7898   19.6704   36.3285 C   0  0  0  0  0  0  0  0  0  0  0  0
   34.0034   19.4984   36.4443 C   0  0  0  0  0  0  0  0  0  0  0  0
   34.5742   18.2560   36.4817 C   0  0  0  0  0  0  0  0  0  0  0  0
   33.7879   17.1565   36.5365 C   0  0  0  0  0  0  0  0  0  0  0  0
   31.9004   18.5708   36.3455 C   0  0  0  0  0  0  0  0  0  0  0  0
   34.4010   15.8905   36.7577 C   0  0  0  0  0  0  0  0  0  0  0  0
   36.0424   18.0354   36.5693 C   0  0  0  0  0  0  0  0  0  0  0  0
   30.5274   18.8038   36.2354 O   0  0  0  0  0  0  0  0  0  0  0  0
   36.7085   18.7782   35.9465 O   0  0  0  0  0  0  0  0  0  0  0  0
   32.3409   17.2202   36.4181 C   0  0  0  0  0  0  0  0  0  0  0  0
   36.5246   16.8183   36.8773 C   0  0  0  0  0  0  0  0  0  0  0  0
   37.8177   19.5115   36.6578 C   0  0  0  0  0  0  0  0  0  0  0  0
   35.7217   15.7535   37.0228 C   0  0  0  0  0  0  0  0  0  0  0  0
  1  2  1  0
  2  3  2  0
  3  4  1  0
  1  5  2  0
  4  6  1  0
  3  7  1  0
  5  8  1  0
  7  9  1  0
  4 10  2  0
  5 10  1  0
  7 11  2  0
  9 12  1  0
  6 13  2  0
 11 13  1  0
M  END
>  <ID>  (1) 
conformer_0

$$$$
