
     RDKit          3D

 14 15  0  0  0  0  0  0  0  0999 V2000
   31.1157   18.6098   35.1113 O   0  0  0  0  0  0  0  0  0  0  0  0
   32.2289   18.4358   35.7906 C   0  0  0  0  0  0  0  0  0  0  0  0
   33.2189   19.5013   35.8033 N   0  0  0  0  0  0  0  0  0  0  0  0
   34.3898   19.2969   36.2239 C   0  0  0  0  0  0  0  0  0  0  0  0
   35.4014   20.0778   35.8090 N   0  0  0  0  0  0  0  0  0  0  0  0
   36.5771   19.5616   36.1912 C   0  0  0  0  0  0  0  0  0  0  0  0
   36.4855   18.3197   36.6541 C   0  0  0  0  0  0  0  0  0  0  0  0
   37.5124   17.5293   37.2246 C   0  0  0  0  0  0  0  0  0  0  0  0
   38.4716   17.4734   36.6856 O   0  0  0  0  0  0  0  0  0  0  0  0
   32.5495   17.2565   36.4597 C   0  0  0  0  0  0  0  0  0  0  0  0
   35.0337   18.1570   36.6392 C   0  0  0  0  0  0  0  0  0  0  0  0
   37.1890   16.7730   38.2929 N   0  0  0  0  0  0  0  0  0  0  0  0
   37.7589   20.2188   35.9312 O   0  0  0  0  0  0  0  0  0  0  0  0
   34.0056   17.1095   36.8557 C   0  0  0  0  0  0  0  0  0  0  0  0
  1  2  2  0
  2  3  1  0
  3  4  1  0
  4  5  2  0
  5  6  1  0
  6  7  1  0
  7  8  1  0
  8  9  2  0
  2 10  1  0
  4 11  1  0
  7 11  2  0
  8 12  1  0
  6 13  2  0
 10 14  1  0
 11 14  1  0
M  END
>  <ID>  (1) 
conformer_0

$$$$
