
     RDKit          3D

  9  8  0  0  0  0  0  0  0  0999 V2000
   34.5797   20.0945   35.3865 O   0  0  0  0  0  0  0  0  0  0  0  0
   35.2114   19.0912   35.5732 C   0  0  0  0  0  0  0  0  0  0  0  0
   36.5700   19.0932   35.3819 C   0  0  0  0  0  0  0  0  0  0  0  0
   37.4402   18.3476   36.1472 C   0  0  0  0  0  0  0  0  0  0  0  0
   37.0994   18.1223   37.3258 C   0  0  0  0  0  0  0  0  0  0  0  0
   37.6232   17.1176   35.3382 C   0  0  0  0  0  0  0  0  0  0  0  0
   38.7963   19.1773   36.1764 O   0  0  0  0  0  0  0  0  0  0  0  0
   36.8843   19.3647   34.0162 O   0  0  0  0  0  0  0  0  0  0  0  0
   34.5711   17.8884   35.4055 O   0  0  0  0  0  0  0  0  0  0  0  0
  1  2  1  0
  2  3  1  0
  3  4  1  0
  4  5  1  0
  4  6  1  0
  4  7  1  0
  3  8  1  0
  2  9  2  0
M  END
>  <ID>  (1) 
conformer_0

$$$$
