
     RDKit          3D

 10  9  0  0  0  0  0  0  0  0999 V2000
   33.1064   20.1683   35.7441 O   0  0  0  0  0  0  0  0  0  0  0  0
   32.7926   18.9668   35.9512 C   0  0  0  0  0  0  0  0  0  0  0  0
   33.7877   18.0655   36.5533 C   0  0  0  0  0  0  0  0  0  0  0  0
   35.1000   18.2990   35.9690 N   0  0  0  0  0  0  0  0  0  0  0  0
   31.6665   18.5072   35.6392 O   0  0  0  0  0  0  0  0  0  0  0  0
   36.2412   17.9569   36.5143 C   0  0  0  0  0  0  0  0  0  0  0  0
   37.4866   18.4929   36.0093 C   0  0  0  0  0  0  0  0  0  0  0  0
   36.3411   16.5960   36.8477 O   0  0  0  0  0  0  0  0  0  0  0  0
   37.2811   19.5237   34.9137 C   0  0  0  0  0  0  0  0  0  0  0  0
   38.6340   18.3982   36.5908 O   0  0  0  0  0  0  0  0  0  0  0  0
  1  2  1  0
  2  3  1  0
  3  4  1  0
  2  5  2  0
  4  6  1  0
  6  7  1  0
  6  8  1  0
  7  9  1  0
  7 10  2  0
M  END
>  <ID>  (1) 
conformer_0

$$$$
