
     RDKit          3D

 12 12  0  0  0  0  0  0  0  0999 V2000
   36.3301   17.5365   37.4867 C   0  0  0  0  0  0  0  0  0  0  0  0
   35.3583   17.8088   36.7869 C   0  0  0  0  0  0  0  0  0  0  0  0
   37.5672   18.3314   37.0769 C   0  0  0  0  0  0  0  0  0  0  0  0
   35.0560   18.8923   36.0000 C   0  0  0  0  0  0  0  0  0  0  0  0
   33.7945   19.2540   35.4770 N   0  0  0  0  0  0  0  0  0  0  0  0
   36.1077   19.6817   35.5811 C   0  0  0  0  0  0  0  0  0  0  0  0
   37.4146   19.3435   36.1564 C   0  0  0  0  0  0  0  0  0  0  0  0
   38.4967   20.0822   35.6963 O   0  0  0  0  0  0  0  0  0  0  0  0
   32.6243   18.7128   35.9890 C   0  0  0  0  0  0  0  0  0  0  0  0
   38.7107   18.0173   37.7188 O   0  0  0  0  0  0  0  0  0  0  0  0
   32.4814   18.4036   37.1689 O   0  0  0  0  0  0  0  0  0  0  0  0
   31.5298   19.0166   35.1158 O   0  0  0  0  0  0  0  0  0  0  0  0
  1  2  1  0
  1  3  2  0
  2  4  2  0
  4  5  1  0
  4  6  1  0
  3  7  1  0
  6  7  2  0
  7  8  1  0
  5  9  1  0
  3 10  1  0
  9 11  2  0
  9 12  1  0
M  END
>  <ID>  (1) 
conformer_0

$$$$
