
     RDKit          3D

 10 10  0  0  0  0  0  0  0  0999 V2000
   33.8716   18.4014   36.8206 C   0  0  0  0  0  0  0  0  0  0  0  0
   33.0471   19.1009   36.2406 C   0  0  0  0  0  0  0  0  0  0  0  0
   35.0802   18.5057   36.6813 C   0  0  0  0  0  0  0  0  0  0  0  0
   35.6121   19.2684   35.6881 C   0  0  0  0  0  0  0  0  0  0  0  0
   31.5750   19.0210   36.3900 O   0  0  0  0  0  0  0  0  0  0  0  0
   37.0405   19.3633   35.4179 C   0  0  0  0  0  0  0  0  0  0  0  0
   37.7630   20.0148   36.0148 O   0  0  0  0  0  0  0  0  0  0  0  0
   33.3579   19.9776   35.2125 N   0  0  0  0  0  0  0  0  0  0  0  0
   34.7709   19.9738   34.8876 C   0  0  0  0  0  0  0  0  0  0  0  0
   37.5536   18.7152   34.3897 O   0  0  0  0  0  0  0  0  0  0  0  0
  1  2  1  0
  1  3  2  0
  3  4  1  0
  2  5  1  0
  4  6  1  0
  6  7  1  0
  2  8  2  0
  4  9  2  0
  8  9  1  0
  6 10  2  0
M  END
>  <ID>  (1) 
conformer_0

$$$$
