
     RDKit          3D

  8  7  0  0  0  0  0  0  0  0999 V2000
   31.6860   18.8817   35.2335 O   0  0  0  0  0  0  0  0  0  0  0  0
   32.7590   18.7237   35.9950 C   0  0  0  0  0  0  0  0  0  0  0  0
   33.7902   19.5976   35.7947 C   0  0  0  0  0  0  0  0  0  0  0  0
   35.0214   19.1473   36.5222 C   0  0  0  0  0  0  0  0  0  0  0  0
   36.2917   19.6173   35.9370 C   0  0  0  0  0  0  0  0  0  0  0  0
   32.4750   18.2196   37.1608 O   0  0  0  0  0  0  0  0  0  0  0  0
   36.6039   19.5389   34.7573 O   0  0  0  0  0  0  0  0  0  0  0  0
   37.2245   20.2739   36.6079 O   0  0  0  0  0  0  0  0  0  0  0  0
  1  2  1  0
  2  3  1  0
  3  4  1  0
  4  5  1  0
  2  6  2  0
  5  7  1  0
  5  8  2  0
M  END
>  <ID>  (1) 
conformer_0

$$$$
