
     RDKit          3D

 10 10  0  0  0  0  0  0  0  0999 V2000
   34.6476   19.7571   36.2470 C   0  0  0  0  0  0  0  0  0  0  0  0
   33.4738   18.9995   36.3271 C   0  0  0  0  0  0  0  0  0  0  0  0
   33.2965   17.8443   36.7775 N   0  0  0  0  0  0  0  0  0  0  0  0
   35.7610   19.0476   36.4943 C   0  0  0  0  0  0  0  0  0  0  0  0
   32.1682   19.6266   35.8209 O   0  0  0  0  0  0  0  0  0  0  0  0
   37.0720   19.7363   36.4097 C   0  0  0  0  0  0  0  0  0  0  0  0
   34.4415   17.2532   37.2712 C   0  0  0  0  0  0  0  0  0  0  0  0
   37.3781   20.2315   35.3844 O   0  0  0  0  0  0  0  0  0  0  0  0
   35.6884   17.8274   37.1615 C   0  0  0  0  0  0  0  0  0  0  0  0
   38.0022   19.3610   37.1620 O   0  0  0  0  0  0  0  0  0  0  0  0
  1  2  1  0
  2  3  2  0
  1  4  2  0
  2  5  1  0
  4  6  1  0
  3  7  1  0
  6  8  2  0
  4  9  1  0
  7  9  2  0
  6 10  1  0
M  END
>  <ID>  (1) 
conformer_0

$$$$
