
     RDKit          3D

 11 11  0  0  0  0  0  0  0  0999 V2000
   34.6476   19.7571   36.2470 C   0  0  0  0  0  0  0  0  0  0  0  0
   33.4738   18.9995   36.3271 C   0  0  0  0  0  0  0  0  0  0  0  0
   33.2965   17.8443   36.7775 N   0  0  0  0  0  0  0  0  0  0  0  0
   35.7610   19.0476   36.4943 C   0  0  0  0  0  0  0  0  0  0  0  0
   32.1697   19.6435   35.9818 O   0  0  0  0  0  0  0  0  0  0  0  0
   35.7106   17.8071   37.1259 N   0  0  0  0  0  0  0  0  0  0  0  0
   37.0766   19.5159   36.4459 C   0  0  0  0  0  0  0  0  0  0  0  0
   38.0424   18.8487   36.5038 O   0  0  0  0  0  0  0  0  0  0  0  0
   34.4477   17.2486   37.2904 C   0  0  0  0  0  0  0  0  0  0  0  0
   31.3177   18.8599   35.2484 C   0  0  0  0  0  0  0  0  0  0  0  0
   37.2545   20.7887   36.3350 O   0  0  0  0  0  0  0  0  0  0  0  0
  1  2  1  0
  2  3  2  0
  1  4  2  0
  2  5  1  0
  4  6  1  0
  4  7  1  0
  7  8  2  0
  3  9  1  0
  6  9  2  0
  5 10  1  0
  7 11  1  0
M  END
>  <ID>  (1) 
conformer_0

$$$$
