
     RDKit          3D

 10 10  0  0  0  0  0  0  0  0999 V2000
   34.6476   19.7571   36.2470 C   0  0  0  0  0  0  0  0  0  0  0  0
   33.4738   18.9995   36.3271 C   0  0  0  0  0  0  0  0  0  0  0  0
   33.2965   17.8443   36.7775 N   0  0  0  0  0  0  0  0  0  0  0  0
   35.7610   19.0476   36.4943 C   0  0  0  0  0  0  0  0  0  0  0  0
   34.5292   17.2352   37.1459 C   0  0  0  0  0  0  0  0  0  0  0  0
   37.0951   19.7177   36.3845 C   0  0  0  0  0  0  0  0  0  0  0  0
   38.0197   19.0750   36.6311 O   0  0  0  0  0  0  0  0  0  0  0  0
   37.1103   20.8557   35.9720 O   0  0  0  0  0  0  0  0  0  0  0  0
   32.1771   19.6650   36.0078 N   0  0  0  0  0  0  0  0  0  0  0  0
   35.6880   17.7888   37.0301 N   0  0  0  0  0  0  0  0  0  0  0  0
  1  2  1  0
  2  3  2  0
  1  4  2  0
  3  5  1  0
  4  6  1  0
  6  7  1  0
  6  8  2  0
  2  9  1  0
  4 10  1  0
  5 10  2  0
M  END
>  <ID>  (1) 
conformer_0

$$$$
