
     RDKit          3D

 13 13  0  0  0  0  0  0  0  0999 V2000
   34.6476   19.7571   36.2470 O   0  0  0  0  0  0  0  0  0  0  0  0
   35.3596   18.8509   36.2847 C   0  0  0  0  0  0  0  0  0  0  0  0
   34.8433   17.6272   36.5342 N   0  0  0  0  0  0  0  0  0  0  0  0
   35.8171   16.6574   36.8946 C   0  0  0  0  0  0  0  0  0  0  0  0
   37.0912   17.0199   36.7449 C   0  0  0  0  0  0  0  0  0  0  0  0
   33.4300   17.6122   36.6700 C   0  0  0  0  0  0  0  0  0  0  0  0
   37.5804   18.2531   36.3344 C   0  0  0  0  0  0  0  0  0  0  0  0
   32.6251   18.3275   35.8339 C   0  0  0  0  0  0  0  0  0  0  0  0
   36.6496   19.2494   36.1544 N   0  0  0  0  0  0  0  0  0  0  0  0
   37.1831   20.5052   35.7798 C   0  0  0  0  0  0  0  0  0  0  0  0
   38.8230   18.4981   36.3240 O   0  0  0  0  0  0  0  0  0  0  0  0
   31.6738   19.1550   36.1820 O   0  0  0  0  0  0  0  0  0  0  0  0
   32.0116   17.6300   34.7124 O   0  0  0  0  0  0  0  0  0  0  0  0
  1  2  2  0
  2  3  1  0
  3  4  1  0
  4  5  2  0
  3  6  1  0
  5  7  1  0
  6  8  1  0
  2  9  1  0
  7  9  1  0
  9 10  1  0
  7 11  2  0
  8 12  1  0
  8 13  1  0
M  END
>  <ID>  (1) 
conformer_0

$$$$
