
     RDKit          3D

 13 14  0  0  0  0  0  0  0  0999 V2000
   32.2962   18.6357   35.7479 C   0  0  0  0  0  0  0  0  0  0  0  0
   33.4670   18.4443   36.1114 C   0  0  0  0  0  0  0  0  0  0  0  0
   34.5242   19.5178   35.8756 C   0  0  0  0  0  0  0  0  0  0  0  0
   34.0555   17.1541   35.6695 N   0  0  0  0  0  0  0  0  0  0  0  0
   31.3525   17.9049   36.1463 O   0  0  0  0  0  0  0  0  0  0  0  0
   31.9249   19.5866   34.9697 O   0  0  0  0  0  0  0  0  0  0  0  0
   35.9134   19.0609   36.0932 C   0  0  0  0  0  0  0  0  0  0  0  0
   36.2581   17.7572   36.3436 C   0  0  0  0  0  0  0  0  0  0  0  0
   37.5648   17.4708   36.8726 C   0  0  0  0  0  0  0  0  0  0  0  0
   38.5443   18.4794   36.9715 C   0  0  0  0  0  0  0  0  0  0  0  0
   35.2848   16.7670   36.1085 C   0  0  0  0  0  0  0  0  0  0  0  0
   38.1399   19.7784   36.6072 C   0  0  0  0  0  0  0  0  0  0  0  0
   36.8413   20.0739   36.2643 N   0  0  0  0  0  0  0  0  0  0  0  0
  1  2  1  0
  2  3  1  0
  2  4  1  0
  1  5  1  0
  1  6  2  0
  3  7  1  0
  7  8  1  0
  8  9  2  0
  9 10  1  0
  4 11  1  0
  8 11  1  0
 10 12  2  0
  7 13  2  0
 12 13  1  0
M  END
>  <ID>  (1) 
conformer_0

$$$$
