
     RDKit          3D

 12 12  0  0  0  0  0  0  0  0999 V2000
   35.7243   19.4797   36.4796 O   0  0  0  0  0  0  0  0  0  0  0  0
   36.9405   18.9400   36.5370 C   0  0  0  0  0  0  0  0  0  0  0  0
   37.0682   17.6531   36.9949 C   0  0  0  0  0  0  0  0  0  0  0  0
   36.0833   16.7961   36.9030 C   0  0  0  0  0  0  0  0  0  0  0  0
   36.3176   15.5306   37.4565 C   0  0  0  0  0  0  0  0  0  0  0  0
   34.6248   18.8288   36.3062 C   0  0  0  0  0  0  0  0  0  0  0  0
   37.6302   17.6948   38.4604 O   0  0  0  0  0  0  0  0  0  0  0  0
   33.3353   19.4289   36.2057 C   0  0  0  0  0  0  0  0  0  0  0  0
   37.8266   19.3315   35.5327 O   0  0  0  0  0  0  0  0  0  0  0  0
   34.6605   17.4647   36.7950 C   0  0  0  0  0  0  0  0  0  0  0  0
   33.3294   20.5765   36.0926 O   0  0  0  0  0  0  0  0  0  0  0  0
   32.2730   18.7783   35.6536 O   0  0  0  0  0  0  0  0  0  0  0  0
  1  2  1  0
  2  3  1  0
  3  4  1  0
  4  5  1  0
  1  6  1  0
  3  7  1  0
  6  8  1  0
  2  9  1  0
  4 10  2  0
  6 10  1  0
  8 11  2  0
  8 12  1  0
M  END
>  <ID>  (1) 
conformer_0

$$$$
