
     RDKit          3D

 14 15  0  0  0  0  0  0  0  0999 V2000
   31.1157   18.6098   35.1113 O   0  0  0  0  0  0  0  0  0  0  0  0
   32.2289   18.4358   35.7906 C   0  0  0  0  0  0  0  0  0  0  0  0
   33.2189   19.5013   35.8033 N   0  0  0  0  0  0  0  0  0  0  0  0
   34.3898   19.2969   36.2239 C   0  0  0  0  0  0  0  0  0  0  0  0
   35.4014   20.0778   35.8090 N   0  0  0  0  0  0  0  0  0  0  0  0
   36.5771   19.5616   36.1912 C   0  0  0  0  0  0  0  0  0  0  0  0
   34.7839   18.0644   36.8521 C   0  0  0  0  0  0  0  0  0  0  0  0
   36.2170   18.3250   36.9950 C   0  0  0  0  0  0  0  0  0  0  0  0
   37.9227   20.0044   36.1566 C   0  0  0  0  0  0  0  0  0  0  0  0
   33.8380   17.1729   37.1184 C   0  0  0  0  0  0  0  0  0  0  0  0
   34.1098   16.0305   37.9211 N   0  0  0  0  0  0  0  0  0  0  0  0
   32.5815   17.3685   36.6325 N   0  0  0  0  0  0  0  0  0  0  0  0
   38.0341   21.0599   35.8710 O   0  0  0  0  0  0  0  0  0  0  0  0
   38.8491   19.1473   36.5496 O   0  0  0  0  0  0  0  0  0  0  0  0
  1  2  2  0
  2  3  1  0
  3  4  1  0
  4  5  2  0
  5  6  1  0
  4  7  1  0
  6  8  2  0
  7  8  1  0
  6  9  1  0
  7 10  2  0
 10 11  1  0
  2 12  1  0
 10 12  1  0
  9 13  2  0
  9 14  1  0
M  END
>  <ID>  (1) 
conformer_0

$$$$
