
     RDKit          3D

 12 13  0  0  0  0  0  0  0  0999 V2000
   34.5797   20.0945   35.3865 O   0  0  0  0  0  0  0  0  0  0  0  0
   35.2114   19.0912   35.5732 C   0  0  0  0  0  0  0  0  0  0  0  0
   36.5700   19.0932   35.3819 C   0  0  0  0  0  0  0  0  0  0  0  0
   37.4402   18.3476   36.1472 C   0  0  0  0  0  0  0  0  0  0  0  0
   37.0994   18.1223   37.3258 C   0  0  0  0  0  0  0  0  0  0  0  0
   37.6232   17.1176   35.3382 C   0  0  0  0  0  0  0  0  0  0  0  0
   32.9883   19.8590   35.8394 C   0  0  0  0  0  0  0  0  0  0  0  0
   36.5166   16.3078   35.5879 C   0  0  0  0  0  0  0  0  0  0  0  0
   34.6650   17.8102   35.3343 C   0  0  0  0  0  0  0  0  0  0  0  0
   36.1404   17.0283   37.5905 C   0  0  0  0  0  0  0  0  0  0  0  0
   35.4031   16.6764   36.3552 C   0  0  0  0  0  0  0  0  0  0  0  0
   32.2063   19.3057   35.0037 O   0  0  0  0  0  0  0  0  0  0  0  0
  1  2  1  0
  2  3  1  0
  3  4  1  0
  4  5  1  0
  4  6  1  0
  1  7  1  0
  6  8  1  0
  2  9  1  0
  5 10  1  0
  8 11  1  0
  9 11  1  0
 10 11  1  0
  7 12  1  0
M  END
>  <ID>  (1) 
conformer_0

$$$$
