
     RDKit          3D

 14 15  0  0  0  0  0  0  0  0999 V2000
   35.7243   19.4797   36.4796 O   0  0  0  0  0  0  0  0  0  0  0  0
   36.9405   18.9400   36.5370 C   0  0  0  0  0  0  0  0  0  0  0  0
   34.6502   18.6371   36.7211 C   0  0  0  0  0  0  0  0  0  0  0  0
   34.9098   17.3368   36.9123 C   0  0  0  0  0  0  0  0  0  0  0  0
   37.1898   17.6977   36.9503 C   0  0  0  0  0  0  0  0  0  0  0  0
   33.7562   16.4831   37.2597 C   0  0  0  0  0  0  0  0  0  0  0  0
   32.4864   17.0065   37.2174 C   0  0  0  0  0  0  0  0  0  0  0  0
   33.2936   19.1403   36.4662 C   0  0  0  0  0  0  0  0  0  0  0  0
   38.4489   17.2152   37.3503 O   0  0  0  0  0  0  0  0  0  0  0  0
   36.1797   16.8253   37.2007 N   0  0  0  0  0  0  0  0  0  0  0  0
   33.0647   20.4094   36.0477 O   0  0  0  0  0  0  0  0  0  0  0  0
   38.0104   19.7817   36.1713 O   0  0  0  0  0  0  0  0  0  0  0  0
   32.2416   18.2976   36.7954 C   0  0  0  0  0  0  0  0  0  0  0  0
   30.9269   18.8017   36.6588 O   0  0  0  0  0  0  0  0  0  0  0  0
  1  2  1  0
  1  3  1  0
  3  4  2  0
  2  5  1  0
  4  6  1  0
  6  7  2  0
  3  8  1  0
  5  9  2  0
  4 10  1  0
  5 10  1  0
  8 11  1  0
  2 12  2  0
  7 13  1  0
  8 13  2  0
 13 14  1  0
M  END
>  <ID>  (1) 
conformer_0

$$$$
