
     RDKit          3D

 12 12  0  0  0  0  0  0  0  0999 V2000
   33.9377   20.2717   35.6874 O   0  0  0  0  0  0  0  0  0  0  0  0
   33.8721   19.0012   36.0595 C   0  0  0  0  0  0  0  0  0  0  0  0
   32.6242   18.4365   35.9968 C   0  0  0  0  0  0  0  0  0  0  0  0
   34.9797   18.1729   36.3110 C   0  0  0  0  0  0  0  0  0  0  0  0
   36.3450   18.6635   36.4015 C   0  0  0  0  0  0  0  0  0  0  0  0
   32.4082   17.2186   36.4180 C   0  0  0  0  0  0  0  0  0  0  0  0
   34.6920   16.8791   36.7669 C   0  0  0  0  0  0  0  0  0  0  0  0
   33.3638   16.4299   36.8179 C   0  0  0  0  0  0  0  0  0  0  0  0
   36.6963   19.5362   35.5765 O   0  0  0  0  0  0  0  0  0  0  0  0
   37.1548   18.3281   37.2593 O   0  0  0  0  0  0  0  0  0  0  0  0
   31.4345   19.3799   35.5871 O   0  0  0  0  0  0  0  0  0  0  0  0
   30.8629   16.7069   36.3968 C   0  0  0  0  0  0  0  0  0  0  0  0
  1  2  1  0
  2  3  2  0
  2  4  1  0
  4  5  1  0
  3  6  1  0
  4  7  2  0
  6  8  2  0
  7  8  1  0
  5  9  1  0
  5 10  2  0
  3 11  1  0
  6 12  1  0
M  END
>  <ID>  (1) 
conformer_0

$$$$
