
     RDKit          3D

 13 14  0  0  0  0  0  0  0  0999 V2000
   35.7243   19.4797   36.4796 O   0  0  0  0  0  0  0  0  0  0  0  0
   36.9405   18.9400   36.5370 C   0  0  0  0  0  0  0  0  0  0  0  0
   34.5886   18.6735   36.5593 C   0  0  0  0  0  0  0  0  0  0  0  0
   34.6713   17.4002   36.7417 C   0  0  0  0  0  0  0  0  0  0  0  0
   38.0214   19.7072   36.4063 O   0  0  0  0  0  0  0  0  0  0  0  0
   33.2514   19.2789   36.3911 C   0  0  0  0  0  0  0  0  0  0  0  0
   35.8433   16.9407   37.3386 C   0  0  0  0  0  0  0  0  0  0  0  0
   32.2837   18.5933   36.1175 C   0  0  0  0  0  0  0  0  0  0  0  0
   32.2837   17.2471   36.4973 C   0  0  0  0  0  0  0  0  0  0  0  0
   31.1672   19.0540   35.7227 O   0  0  0  0  0  0  0  0  0  0  0  0
   37.0948   17.6319   37.1113 C   0  0  0  0  0  0  0  0  0  0  0  0
   33.4587   16.6772   36.7556 C   0  0  0  0  0  0  0  0  0  0  0  0
   38.3461   17.1643   37.4955 O   0  0  0  0  0  0  0  0  0  0  0  0
  1  2  1  0
  1  3  1  0
  3  4  1  0
  2  5  2  0
  3  6  2  0
  4  7  1  0
  6  8  1  0
  8  9  2  0
  8 10  1  0
  2 11  1  0
  7 11  2  0
  4 12  2  0
  9 12  1  0
 11 13  1  0
M  END
>  <ID>  (1) 
conformer_0

$$$$
