
     RDKit          3D

  9  8  0  0  0  0  0  0  0  0999 V2000
   32.2962   18.6357   35.7479 C   0  0  0  0  0  0  0  0  0  0  0  0
   33.4670   18.4443   36.1114 C   0  0  0  0  0  0  0  0  0  0  0  0
   34.5242   19.5178   35.8756 C   0  0  0  0  0  0  0  0  0  0  0  0
   35.8809   19.1548   36.2298 C   0  0  0  0  0  0  0  0  0  0  0  0
   36.8924   19.0126   35.1250 C   0  0  0  0  0  0  0  0  0  0  0  0
   37.7201   18.2702   34.9940 O   0  0  0  0  0  0  0  0  0  0  0  0
   31.3921   18.1137   36.2130 O   0  0  0  0  0  0  0  0  0  0  0  0
   36.6686   19.9063   34.1583 O   0  0  0  0  0  0  0  0  0  0  0  0
   32.1249   19.2953   34.6044 O   0  0  0  0  0  0  0  0  0  0  0  0
  1  2  1  0
  2  3  1  0
  3  4  1  0
  4  5  1  0
  5  6  1  0
  1  7  2  0
  5  8  2  0
  1  9  1  0
M  END
>  <ID>  (1) 
conformer_0

$$$$
