
     RDKit          3D

  9  9  0  0  0  0  0  0  0  0999 V2000
   31.6860   18.8817   35.2335 O   0  0  0  0  0  0  0  0  0  0  0  0
   32.7590   18.7237   35.9950 C   0  0  0  0  0  0  0  0  0  0  0  0
   33.7902   19.5976   35.7947 C   0  0  0  0  0  0  0  0  0  0  0  0
   33.1615   17.4073   36.2164 C   0  0  0  0  0  0  0  0  0  0  0  0
   34.3706   17.0986   36.7633 C   0  0  0  0  0  0  0  0  0  0  0  0
   34.6654   15.8100   37.2141 O   0  0  0  0  0  0  0  0  0  0  0  0
   35.3478   18.0598   36.8088 C   0  0  0  0  0  0  0  0  0  0  0  0
   35.0583   19.3664   36.4434 C   0  0  0  0  0  0  0  0  0  0  0  0
   35.7793   15.2194   36.9771 C   0  0  0  0  0  0  0  0  0  0  0  0
  1  2  1  0
  2  3  1  0
  2  4  2  0
  4  5  1  0
  5  6  1  0
  5  7  2  0
  3  8  2  0
  7  8  1  0
  6  9  1  0
M  END
>  <ID>  (1) 
conformer_0

$$$$
