
     RDKit          3D

 12 12  0  0  0  0  0  0  0  0999 V2000
   32.7898   19.6704   36.3285 C   0  0  0  0  0  0  0  0  0  0  0  0
   34.0034   19.4984   36.4443 C   0  0  0  0  0  0  0  0  0  0  0  0
   34.5002   18.3439   36.2457 C   0  0  0  0  0  0  0  0  0  0  0  0
   33.7117   17.2290   36.1109 C   0  0  0  0  0  0  0  0  0  0  0  0
   35.9867   18.0323   36.3347 C   0  0  0  0  0  0  0  0  0  0  0  0
   36.7527   18.4426   37.2730 C   0  0  0  0  0  0  0  0  0  0  0  0
   31.8458   18.7369   36.0595 C   0  0  0  0  0  0  0  0  0  0  0  0
   36.5417   18.7352   35.0542 C   0  0  0  0  0  0  0  0  0  0  0  0
   30.5287   19.0012   35.9364 O   0  0  0  0  0  0  0  0  0  0  0  0
   32.2902   17.3810   35.9401 C   0  0  0  0  0  0  0  0  0  0  0  0
   37.2479   17.7402   38.2248 O   0  0  0  0  0  0  0  0  0  0  0  0
   36.9163   19.6500   37.4946 O   0  0  0  0  0  0  0  0  0  0  0  0
  1  2  1  0
  2  3  2  0
  3  4  1  0
  3  5  1  0
  5  6  1  0
  1  7  2  0
  5  8  1  0
  7  9  1  0
  4 10  2  0
  7 10  1  0
  6 11  1  0
  6 12  2  0
M  END
>  <ID>  (1) 
conformer_0

$$$$
