
     RDKit          3D

 13 14  0  0  0  0  0  0  0  0999 V2000
   31.1157   18.6098   35.1113 O   0  0  0  0  0  0  0  0  0  0  0  0
   32.2289   18.4358   35.7906 C   0  0  0  0  0  0  0  0  0  0  0  0
   33.2189   19.5013   35.8033 N   0  0  0  0  0  0  0  0  0  0  0  0
   34.3898   19.2969   36.2239 C   0  0  0  0  0  0  0  0  0  0  0  0
   35.4014   20.0778   35.8090 N   0  0  0  0  0  0  0  0  0  0  0  0
   36.5771   19.5616   36.1912 C   0  0  0  0  0  0  0  0  0  0  0  0
   34.7839   18.0644   36.8521 C   0  0  0  0  0  0  0  0  0  0  0  0
   36.2061   18.3472   37.0192 C   0  0  0  0  0  0  0  0  0  0  0  0
   37.1575   17.4706   37.8029 C   0  0  0  0  0  0  0  0  0  0  0  0
   37.8546   20.0835   36.1340 N   0  0  0  0  0  0  0  0  0  0  0  0
   33.8191   17.1964   37.1593 C   0  0  0  0  0  0  0  0  0  0  0  0
   32.5577   17.3895   36.6543 N   0  0  0  0  0  0  0  0  0  0  0  0
   31.5794   16.3708   36.9830 C   0  0  0  0  0  0  0  0  0  0  0  0
  1  2  2  0
  2  3  1  0
  3  4  1  0
  4  5  2  0
  5  6  1  0
  4  7  1  0
  6  8  2  0
  7  8  1  0
  8  9  1  0
  6 10  1  0
  7 11  2  0
  2 12  1  0
 11 12  1  0
 12 13  1  0
M  END
>  <ID>  (1) 
conformer_0

$$$$
