
     RDKit          3D

 11 11  0  0  0  0  0  0  0  0999 V2000
   32.7898   19.6704   36.3285 C   0  0  0  0  0  0  0  0  0  0  0  0
   34.0034   19.4984   36.4443 C   0  0  0  0  0  0  0  0  0  0  0  0
   34.5002   18.3439   36.2457 C   0  0  0  0  0  0  0  0  0  0  0  0
   31.8795   18.6915   35.9316 C   0  0  0  0  0  0  0  0  0  0  0  0
   33.6485   17.2976   36.0052 C   0  0  0  0  0  0  0  0  0  0  0  0
   35.9918   18.0921   36.4819 C   0  0  0  0  0  0  0  0  0  0  0  0
   34.2157   15.9555   35.8441 N   0  0  0  0  0  0  0  0  0  0  0  0
   36.5417   17.2635   36.7864 O   0  0  0  0  0  0  0  0  0  0  0  0
   32.3870   17.4190   35.7386 C   0  0  0  0  0  0  0  0  0  0  0  0
   36.7174   19.3553   36.4784 N   0  0  0  0  0  0  0  0  0  0  0  0
   38.0997   19.4188   36.6614 O   0  0  0  0  0  0  0  0  0  0  0  0
  1  2  1  0
  2  3  2  0
  1  4  2  0
  3  5  1  0
  3  6  1  0
  5  7  1  0
  6  8  2  0
  4  9  1  0
  5  9  2  0
  6 10  1  0
 10 11  1  0
M  END
>  <ID>  (1) 
conformer_0

$$$$
