
     RDKit          3D

 12 12  0  0  0  0  0  0  0  0999 V2000
   35.7243   19.4797   36.4796 O   0  0  0  0  0  0  0  0  0  0  0  0
   36.9405   18.9400   36.5370 C   0  0  0  0  0  0  0  0  0  0  0  0
   37.0682   17.6531   36.9949 C   0  0  0  0  0  0  0  0  0  0  0  0
   36.0833   16.7961   36.9030 C   0  0  0  0  0  0  0  0  0  0  0  0
   34.7002   18.6623   36.2799 C   0  0  0  0  0  0  0  0  0  0  0  0
   34.6893   17.4104   36.9230 C   0  0  0  0  0  0  0  0  0  0  0  0
   37.9011   19.7298   36.1828 O   0  0  0  0  0  0  0  0  0  0  0  0
   33.6331   16.5494   36.8786 O   0  0  0  0  0  0  0  0  0  0  0  0
   36.1247   15.7224   37.8012 O   0  0  0  0  0  0  0  0  0  0  0  0
   37.6672   17.9115   38.3350 O   0  0  0  0  0  0  0  0  0  0  0  0
   33.3492   19.5363   36.3665 C   0  0  0  0  0  0  0  0  0  0  0  0
   32.1595   18.8462   36.2022 O   0  0  0  0  0  0  0  0  0  0  0  0
  1  2  1  0
  2  3  1  0
  3  4  1  0
  1  5  1  0
  4  6  1  0
  5  6  1  0
  2  7  2  0
  6  8  1  0
  4  9  1  0
  3 10  1  0
  5 11  1  0
 11 12  1  0
M  END
>  <ID>  (1) 
conformer_0

$$$$
