
     RDKit          3D

 12 12  0  0  0  0  0  0  0  0999 V2000
   35.7243   19.4797   36.4796 O   0  0  0  0  0  0  0  0  0  0  0  0
   36.9405   18.9400   36.5370 C   0  0  0  0  0  0  0  0  0  0  0  0
   37.0682   17.6531   36.9949 C   0  0  0  0  0  0  0  0  0  0  0  0
   36.0833   16.7961   36.9030 C   0  0  0  0  0  0  0  0  0  0  0  0
   34.7002   18.6623   36.2799 C   0  0  0  0  0  0  0  0  0  0  0  0
   33.3322   19.3196   36.3068 C   0  0  0  0  0  0  0  0  0  0  0  0
   38.3910   17.0035   36.4974 O   0  0  0  0  0  0  0  0  0  0  0  0
   34.7467   17.4503   37.0676 C   0  0  0  0  0  0  0  0  0  0  0  0
   33.6413   16.5579   37.0260 O   0  0  0  0  0  0  0  0  0  0  0  0
   36.2732   15.7774   37.9114 O   0  0  0  0  0  0  0  0  0  0  0  0
   37.9216   19.9621   36.9004 O   0  0  0  0  0  0  0  0  0  0  0  0
   32.3011   19.0414   35.4092 O   0  0  0  0  0  0  0  0  0  0  0  0
  1  2  1  0
  2  3  1  0
  3  4  1  0
  1  5  1  0
  5  6  1  0
  3  7  1  0
  4  8  1  0
  5  8  1  0
  8  9  1  0
  4 10  1  0
  2 11  1  0
  6 12  1  0
M  END
>  <ID>  (1) 
conformer_0

$$$$
