
     RDKit          3D

 13 13  0  0  0  0  0  0  0  0999 V2000
   35.7243   19.4797   36.4796 O   0  0  0  0  0  0  0  0  0  0  0  0
   36.9405   18.9400   36.5370 C   0  0  0  0  0  0  0  0  0  0  0  0
   34.6502   18.6371   36.7211 C   0  0  0  0  0  0  0  0  0  0  0  0
   34.9098   17.3368   36.9123 C   0  0  0  0  0  0  0  0  0  0  0  0
   33.3252   19.2100   36.5911 C   0  0  0  0  0  0  0  0  0  0  0  0
   33.8497   16.4808   37.3583 C   0  0  0  0  0  0  0  0  0  0  0  0
   37.6009   19.1186   35.4852 C   0  0  0  0  0  0  0  0  0  0  0  0
   32.4838   16.9908   37.2679 C   0  0  0  0  0  0  0  0  0  0  0  0
   38.3596   20.1398   35.3163 O   0  0  0  0  0  0  0  0  0  0  0  0
   33.0771   20.4573   36.1681 O   0  0  0  0  0  0  0  0  0  0  0  0
   32.2465   18.3124   36.9058 C   0  0  0  0  0  0  0  0  0  0  0  0
   37.9262   18.1203   34.6760 O   0  0  0  0  0  0  0  0  0  0  0  0
   30.8370   18.8279   36.6847 O   0  0  0  0  0  0  0  0  0  0  0  0
  1  2  1  0
  1  3  1  0
  3  4  2  0
  3  5  1  0
  4  6  1  0
  2  7  1  0
  6  8  2  0
  7  9  2  0
  5 10  1  0
  5 11  2  0
  8 11  1  0
  7 12  1  0
 11 13  1  0
M  END
>  <ID>  (1) 
conformer_0

$$$$
