
     RDKit          3D

 12 12  0  0  0  0  0  0  0  0999 V2000
   33.9377   20.2717   35.6874 O   0  0  0  0  0  0  0  0  0  0  0  0
   33.8721   19.0012   36.0595 C   0  0  0  0  0  0  0  0  0  0  0  0
   32.6242   18.4365   35.9968 C   0  0  0  0  0  0  0  0  0  0  0  0
   34.9797   18.1729   36.3110 C   0  0  0  0  0  0  0  0  0  0  0  0
   36.3450   18.6635   36.4015 C   0  0  0  0  0  0  0  0  0  0  0  0
   32.4082   17.2186   36.4180 C   0  0  0  0  0  0  0  0  0  0  0  0
   34.6920   16.8791   36.7669 C   0  0  0  0  0  0  0  0  0  0  0  0
   36.8193   19.3002   35.4890 O   0  0  0  0  0  0  0  0  0  0  0  0
   37.0144   18.6654   37.5205 O   0  0  0  0  0  0  0  0  0  0  0  0
   35.7653   15.9727   37.1630 N   0  0  0  0  0  0  0  0  0  0  0  0
   31.5181   19.3706   35.6148 O   0  0  0  0  0  0  0  0  0  0  0  0
   33.3780   16.3983   36.7481 C   0  0  0  0  0  0  0  0  0  0  0  0
  1  2  1  0
  2  3  2  0
  2  4  1  0
  4  5  1  0
  3  6  1  0
  4  7  2  0
  5  8  2  0
  5  9  1  0
  7 10  1  0
  3 11  1  0
  6 12  2  0
  7 12  1  0
M  END
>  <ID>  (1) 
conformer_0

$$$$
