
     RDKit          3D

 13 14  0  0  0  0  0  0  0  0999 V2000
   32.7898   19.6704   36.3285 C   0  0  0  0  0  0  0  0  0  0  0  0
   34.0034   19.4984   36.4443 C   0  0  0  0  0  0  0  0  0  0  0  0
   34.5742   18.2560   36.4817 C   0  0  0  0  0  0  0  0  0  0  0  0
   33.7879   17.1565   36.5365 C   0  0  0  0  0  0  0  0  0  0  0  0
   34.3953   15.9105   36.8258 N   0  0  0  0  0  0  0  0  0  0  0  0
   36.0089   18.0245   36.6945 C   0  0  0  0  0  0  0  0  0  0  0  0
   36.9356   19.0596   36.8812 O   0  0  0  0  0  0  0  0  0  0  0  0
   35.6618   15.6789   36.9890 C   0  0  0  0  0  0  0  0  0  0  0  0
   32.4645   17.3013   36.3936 C   0  0  0  0  0  0  0  0  0  0  0  0
   36.1932   14.3955   37.2436 C   0  0  0  0  0  0  0  0  0  0  0  0
   38.2769   19.0679   36.5646 C   0  0  0  0  0  0  0  0  0  0  0  0
   31.9465   18.5894   36.1899 C   0  0  0  0  0  0  0  0  0  0  0  0
   36.6078   16.7949   37.0653 C   0  0  0  0  0  0  0  0  0  0  0  0
  1  2  1  0
  2  3  2  0
  3  4  1  0
  4  5  1  0
  3  6  1  0
  6  7  1  0
  5  8  2  0
  4  9  2  0
  8 10  1  0
  7 11  1  0
  1 12  2  0
  9 12  1  0
  6 13  2  0
  8 13  1  0
M  END
>  <ID>  (1) 
conformer_0

$$$$
