
     RDKit          3D

 14 14  0  0  0  0  0  0  0  0999 V2000
   35.7243   19.4797   36.4796 O   0  0  0  0  0  0  0  0  0  0  0  0
   36.9405   18.9400   36.5370 C   0  0  0  0  0  0  0  0  0  0  0  0
   34.6502   18.6371   36.7211 C   0  0  0  0  0  0  0  0  0  0  0  0
   37.9301   19.4876   35.9468 C   0  0  0  0  0  0  0  0  0  0  0  0
   39.0978   18.9370   35.8800 C   0  0  0  0  0  0  0  0  0  0  0  0
   37.7355   20.9115   35.6153 O   0  0  0  0  0  0  0  0  0  0  0  0
   33.3077   19.0911   36.1205 C   0  0  0  0  0  0  0  0  0  0  0  0
   39.3542   17.7190   36.4154 C   0  0  0  0  0  0  0  0  0  0  0  0
   32.3940   18.3084   35.5537 C   0  0  0  0  0  0  0  0  0  0  0  0
   32.3947   17.0517   35.8310 O   0  0  0  0  0  0  0  0  0  0  0  0
   31.3926   18.7380   34.8503 O   0  0  0  0  0  0  0  0  0  0  0  0
   36.8779   17.5699   37.2413 C   0  0  0  0  0  0  0  0  0  0  0  0
   33.6710   20.0844   35.1918 O   0  0  0  0  0  0  0  0  0  0  0  0
   38.2251   17.0073   37.1181 C   0  0  0  0  0  0  0  0  0  0  0  0
  1  2  1  0
  1  3  1  0
  2  4  2  0
  4  5  1  0
  4  6  1  0
  3  7  1  0
  5  8  2  0
  7  9  1  0
  9 10  2  0
  9 11  1  0
  2 12  1  0
  7 13  1  0
  8 14  1  0
 12 14  2  0
M  END
>  <ID>  (1) 
conformer_0

$$$$
