
     RDKit          3D

 14 15  0  0  0  0  0  0  0  0999 V2000
   37.5756   19.9561   35.6456 O   0  0  0  0  0  0  0  0  0  0  0  0
   37.2188   18.9737   35.4144 C   0  0  0  0  0  0  0  0  0  0  0  0
   36.4778   18.2673   36.3438 C   0  0  0  0  0  0  0  0  0  0  0  0
   36.9553   17.2398   36.9903 C   0  0  0  0  0  0  0  0  0  0  0  0
   34.9686   18.1473   36.1571 C   0  0  0  0  0  0  0  0  0  0  0  0
   37.3007   18.7617   34.3117 O   0  0  0  0  0  0  0  0  0  0  0  0
   35.9226   16.5810   37.8671 C   0  0  0  0  0  0  0  0  0  0  0  0
   34.2818   19.1860   35.4079 N   0  0  0  0  0  0  0  0  0  0  0  0
   32.9017   19.3524   35.6525 C   0  0  0  0  0  0  0  0  0  0  0  0
   34.1576   17.4946   37.0084 C   0  0  0  0  0  0  0  0  0  0  0  0
   32.6677   17.6688   36.9451 C   0  0  0  0  0  0  0  0  0  0  0  0
   32.1531   18.3536   36.0201 C   0  0  0  0  0  0  0  0  0  0  0  0
   30.8249   18.3494   35.6849 O   0  0  0  0  0  0  0  0  0  0  0  0
   34.7536   16.6633   37.8201 C   0  0  0  0  0  0  0  0  0  0  0  0
  1  2  1  0
  2  3  1  0
  3  4  2  0
  3  5  1  0
  2  6  2  0
  4  7  1  0
  5  8  1  0
  8  9  1  0
  5 10  2  0
 10 11  1  0
  9 12  1  0
 11 12  1  0
 12 13  2  0
  7 14  2  0
 10 14  1  0
M  END
>  <ID>  (1) 
conformer_0

$$$$
