
     RDKit          3D

 13 14  0  0  0  0  0  0  0  0999 V2000
   32.7898   19.6704   36.3285 C   0  0  0  0  0  0  0  0  0  0  0  0
   34.0034   19.4984   36.4443 C   0  0  0  0  0  0  0  0  0  0  0  0
   34.5002   18.3439   36.2457 C   0  0  0  0  0  0  0  0  0  0  0  0
   33.7117   17.2290   36.1109 C   0  0  0  0  0  0  0  0  0  0  0  0
   35.9867   18.0323   36.3347 C   0  0  0  0  0  0  0  0  0  0  0  0
   36.7527   18.4426   37.2730 C   0  0  0  0  0  0  0  0  0  0  0  0
   36.5576   17.4112   35.2183 C   0  0  0  0  0  0  0  0  0  0  0  0
   38.1218   18.1979   37.3101 C   0  0  0  0  0  0  0  0  0  0  0  0
   38.8726   18.5757   38.4429 O   0  0  0  0  0  0  0  0  0  0  0  0
   32.3534   17.4496   36.0399 C   0  0  0  0  0  0  0  0  0  0  0  0
   31.8418   18.7308   36.0971 C   0  0  0  0  0  0  0  0  0  0  0  0
   37.9577   17.1624   35.1935 C   0  0  0  0  0  0  0  0  0  0  0  0
   38.7512   17.5719   36.2502 C   0  0  0  0  0  0  0  0  0  0  0  0
  1  2  1  0
  2  3  2  0
  3  4  1  0
  3  5  1  0
  5  6  1  0
  5  7  2  0
  6  8  2  0
  8  9  1  0
  4 10  2  0
  1 11  2  0
 10 11  1  0
  7 12  1  0
  8 13  1  0
 12 13  2  0
M  END
>  <ID>  (1) 
conformer_0

$$$$
