
     RDKit          3D

 14 14  0  0  0  0  0  0  0  0999 V2000
   32.7898   19.6704   36.3285 C   0  0  0  0  0  0  0  0  0  0  0  0
   32.7093   18.3861   36.1811 C   0  0  0  0  0  0  0  0  0  0  0  0
   33.7926   17.6097   36.0767 N   0  0  0  0  0  0  0  0  0  0  0  0
   31.7290   17.9510   37.0562 O   0  0  0  0  0  0  0  0  0  0  0  0
   31.9062   18.2401   34.8705 O   0  0  0  0  0  0  0  0  0  0  0  0
   34.2373   20.1162   35.9245 O   0  0  0  0  0  0  0  0  0  0  0  0
   34.0290   16.3817   36.0699 C   0  0  0  0  0  0  0  0  0  0  0  0
   35.0640   18.5141   36.1316 C   0  0  0  0  0  0  0  0  0  0  0  0
   36.2117   17.6405   36.1466 C   0  0  0  0  0  0  0  0  0  0  0  0
   36.3236   16.2995   36.1658 C   0  0  0  0  0  0  0  0  0  0  0  0
   37.4920   18.4969   36.3376 C   0  0  0  0  0  0  0  0  0  0  0  0
   37.7073   19.5520   35.7114 O   0  0  0  0  0  0  0  0  0  0  0  0
   35.1245   15.6493   36.0862 C   0  0  0  0  0  0  0  0  0  0  0  0
   38.4817   17.9094   36.9562 O   0  0  0  0  0  0  0  0  0  0  0  0
  1  2  1  0
  2  3  1  0
  2  4  1  0
  2  5  1  0
  1  6  1  0
  3  7  1  0
  3  8  1  0
  8  9  2  0
  9 10  1  0
  9 11  1  0
 11 12  2  0
  7 13  2  0
 10 13  1  0
 11 14  1  0
M  END
>  <ID>  (1) 
conformer_0

$$$$
