
     RDKit          3D

  9  9  0  0  0  0  0  0  0  0999 V2000
   34.6476   19.7571   36.2470 O   0  0  0  0  0  0  0  0  0  0  0  0
   35.3596   18.8509   36.2847 C   0  0  0  0  0  0  0  0  0  0  0  0
   36.6767   18.9537   36.2900 N   0  0  0  0  0  0  0  0  0  0  0  0
   37.4931   17.9325   36.5550 C   0  0  0  0  0  0  0  0  0  0  0  0
   37.0294   16.7286   36.9041 C   0  0  0  0  0  0  0  0  0  0  0  0
   35.5131   16.7532   36.8183 C   0  0  0  0  0  0  0  0  0  0  0  0
   37.1268   20.3541   35.8610 C   0  0  0  0  0  0  0  0  0  0  0  0
   34.7814   17.7042   36.5835 N   0  0  0  0  0  0  0  0  0  0  0  0
   34.9856   15.2946   37.1109 N   0  0  0  0  0  0  0  0  0  0  0  0
  1  2  2  0
  2  3  1  0
  3  4  1  0
  4  5  2  0
  5  6  1  0
  3  7  1  0
  2  8  1  0
  6  8  2  0
  6  9  1  0
M  END
>  <ID>  (1) 
conformer_0

$$$$
