
     RDKit          3D

 13 14  0  0  0  0  0  0  0  0999 V2000
   35.7243   19.4797   36.4796 O   0  0  0  0  0  0  0  0  0  0  0  0
   36.9405   18.9400   36.5370 C   0  0  0  0  0  0  0  0  0  0  0  0
   37.0682   17.6531   36.9949 C   0  0  0  0  0  0  0  0  0  0  0  0
   37.9566   19.7757   36.6999 O   0  0  0  0  0  0  0  0  0  0  0  0
   34.6157   18.6536   36.6400 C   0  0  0  0  0  0  0  0  0  0  0  0
   33.3110   19.2163   36.2778 C   0  0  0  0  0  0  0  0  0  0  0  0
   34.7068   17.3144   36.9143 C   0  0  0  0  0  0  0  0  0  0  0  0
   38.4235   17.1883   37.3609 C   0  0  0  0  0  0  0  0  0  0  0  0
   32.2474   18.4061   36.2439 C   0  0  0  0  0  0  0  0  0  0  0  0
   30.9588   19.0747   35.9539 O   0  0  0  0  0  0  0  0  0  0  0  0
   32.2606   17.1102   36.5839 C   0  0  0  0  0  0  0  0  0  0  0  0
   35.9211   16.7327   37.2222 C   0  0  0  0  0  0  0  0  0  0  0  0
   33.4862   16.5534   36.8895 C   0  0  0  0  0  0  0  0  0  0  0  0
  1  2  1  0
  2  3  1  0
  2  4  2  0
  1  5  1  0
  5  6  1  0
  5  7  2  0
  3  8  1  0
  6  9  2  0
  9 10  1  0
  9 11  1  0
  3 12  2  0
  7 12  1  0
  7 13  1  0
 11 13  2  0
M  END
>  <ID>  (1) 
conformer_0

$$$$
