
     RDKit          3D

 13 14  0  0  0  0  0  0  0  0999 V2000
   31.1157   18.6098   35.1113 O   0  0  0  0  0  0  0  0  0  0  0  0
   32.2289   18.4358   35.7906 C   0  0  0  0  0  0  0  0  0  0  0  0
   33.2189   19.5013   35.8033 N   0  0  0  0  0  0  0  0  0  0  0  0
   34.3898   19.2969   36.2239 C   0  0  0  0  0  0  0  0  0  0  0  0
   35.4014   20.0778   35.8090 N   0  0  0  0  0  0  0  0  0  0  0  0
   34.6455   17.9561   36.7425 C   0  0  0  0  0  0  0  0  0  0  0  0
   33.8765   16.9349   36.6872 C   0  0  0  0  0  0  0  0  0  0  0  0
   36.0869   17.8037   37.0882 C   0  0  0  0  0  0  0  0  0  0  0  0
   36.6794   19.8666   36.3263 C   0  0  0  0  0  0  0  0  0  0  0  0
   32.5742   17.2027   36.2779 N   0  0  0  0  0  0  0  0  0  0  0  0
   37.1099   18.8072   36.8070 N   0  0  0  0  0  0  0  0  0  0  0  0
   31.4582   16.2929   36.3939 C   0  0  0  0  0  0  0  0  0  0  0  0
   34.2681   15.6730   36.4660 O   0  0  0  0  0  0  0  0  0  0  0  0
  1  2  2  0
  2  3  1  0
  3  4  1  0
  4  5  2  0
  4  6  1  0
  6  7  1  0
  6  8  2  0
  5  9  1  0
  2 10  1  0
  7 10  1  0
  8 11  1  0
  9 11  2  0
 10 12  1  0
  7 13  2  0
M  END
>  <ID>  (1) 
conformer_0

$$$$
