
     RDKit          3D

  9  9  0  0  0  0  0  0  0  0999 V2000
   34.6476   19.7571   36.2470 C   0  0  0  0  0  0  0  0  0  0  0  0
   33.4738   18.9995   36.3271 C   0  0  0  0  0  0  0  0  0  0  0  0
   33.2965   17.8443   36.7775 N   0  0  0  0  0  0  0  0  0  0  0  0
   32.2796   19.4990   35.4754 N   0  0  0  0  0  0  0  0  0  0  0  0
   35.7531   19.1337   36.7022 C   0  0  0  0  0  0  0  0  0  0  0  0
   37.0219   19.8295   36.6515 C   0  0  0  0  0  0  0  0  0  0  0  0
   38.0402   19.0963   36.3771 O   0  0  0  0  0  0  0  0  0  0  0  0
   34.5530   17.4061   37.4297 C   0  0  0  0  0  0  0  0  0  0  0  0
   35.6728   17.9828   37.3865 N   0  0  0  0  0  0  0  0  0  0  0  0
  1  2  1  0
  2  3  2  0
  2  4  1  0
  1  5  2  0
  5  6  1  0
  6  7  1  0
  3  8  1  0
  5  9  1  0
  8  9  2  0
M  END
>  <ID>  (1) 
conformer_0

$$$$
