
     RDKit          3D

 12 13  0  0  0  0  0  0  0  0999 V2000
   31.1157   18.6098   35.1113 O   0  0  0  0  0  0  0  0  0  0  0  0
   32.2289   18.4358   35.7906 C   0  0  0  0  0  0  0  0  0  0  0  0
   33.2189   19.5013   35.8033 N   0  0  0  0  0  0  0  0  0  0  0  0
   34.3898   19.2969   36.2239 C   0  0  0  0  0  0  0  0  0  0  0  0
   35.4014   20.0778   35.8090 N   0  0  0  0  0  0  0  0  0  0  0  0
   36.5771   19.5616   36.1912 C   0  0  0  0  0  0  0  0  0  0  0  0
   34.7839   18.0644   36.8521 C   0  0  0  0  0  0  0  0  0  0  0  0
   32.4456   17.2295   36.4802 C   0  0  0  0  0  0  0  0  0  0  0  0
   33.7271   17.1619   37.0892 C   0  0  0  0  0  0  0  0  0  0  0  0
   36.2210   18.1624   37.0990 C   0  0  0  0  0  0  0  0  0  0  0  0
   37.8595   19.8246   36.1863 O   0  0  0  0  0  0  0  0  0  0  0  0
   36.9159   17.4648   37.9072 N   0  0  0  0  0  0  0  0  0  0  0  0
  1  2  2  0
  2  3  1  0
  3  4  1  0
  4  5  2  0
  5  6  1  0
  4  7  1  0
  2  8  1  0
  7  9  1  0
  8  9  2  0
  6 10  1  0
  7 10  2  0
  6 11  2  0
 10 12  1  0
M  END
>  <ID>  (1) 
conformer_0

$$$$
