
     RDKit          3D

  7  7  0  0  0  0  0  0  0  0999 V2000
   37.5756   19.9561   35.6456 O   0  0  0  0  0  0  0  0  0  0  0  0
   37.2561   18.9055   36.1005 C   0  0  0  0  0  0  0  0  0  0  0  0
   37.7661   18.2951   37.0808 N   0  0  0  0  0  0  0  0  0  0  0  0
   36.2699   18.2006   35.2577 C   0  0  0  0  0  0  0  0  0  0  0  0
   37.1621   17.1573   37.7568 C   0  0  0  0  0  0  0  0  0  0  0  0
   36.1471   16.5704   37.0392 C   0  0  0  0  0  0  0  0  0  0  0  0
   35.6145   17.0709   35.9024 C   0  0  0  0  0  0  0  0  0  0  0  0
  1  2  2  0
  2  3  1  0
  2  4  1  0
  3  5  1  0
  5  6  2  0
  4  7  2  0
  6  7  1  0
M  END
>  <ID>  (1) 
conformer_0

$$$$
