
     RDKit          3D

 13 14  0  0  0  0  0  0  0  0999 V2000
   34.6476   19.7571   36.2470 C   0  0  0  0  0  0  0  0  0  0  0  0
   33.4738   18.9995   36.3271 C   0  0  0  0  0  0  0  0  0  0  0  0
   33.2965   17.8443   36.7775 N   0  0  0  0  0  0  0  0  0  0  0  0
   32.2796   19.4990   35.4754 N   0  0  0  0  0  0  0  0  0  0  0  0
   35.7531   19.1337   36.7022 C   0  0  0  0  0  0  0  0  0  0  0  0
   37.0219   19.8295   36.6515 C   0  0  0  0  0  0  0  0  0  0  0  0
   35.6913   17.9278   37.3737 C   0  0  0  0  0  0  0  0  0  0  0  0
   38.0768   19.0946   36.2889 C   0  0  0  0  0  0  0  0  0  0  0  0
   39.0565   19.4252   35.9686 O   0  0  0  0  0  0  0  0  0  0  0  0
   37.8942   17.6750   36.4189 N   0  0  0  0  0  0  0  0  0  0  0  0
   39.0816   16.8021   36.4762 C   0  0  0  0  0  0  0  0  0  0  0  0
   34.4349   17.3227   37.4530 C   0  0  0  0  0  0  0  0  0  0  0  0
   36.9393   17.2717   37.7819 C   0  0  0  0  0  0  0  0  0  0  0  0
  1  2  1  0
  2  3  2  0
  2  4  1  0
  1  5  2  0
  5  6  1  0
  5  7  1  0
  6  8  1  0
  8  9  2  0
  8 10  1  0
 10 11  1  0
  3 12  1  0
  7 12  2  0
  7 13  1  0
 10 13  1  0
M  END
>  <ID>  (1) 
conformer_0

$$$$
