
     RDKit          3D

 14 14  0  0  0  0  0  0  0  0999 V2000
   36.3301   17.5365   37.4867 C   0  0  0  0  0  0  0  0  0  0  0  0
   35.3583   17.8088   36.7869 C   0  0  0  0  0  0  0  0  0  0  0  0
   36.5775   16.4168   38.2293 C   0  0  0  0  0  0  0  0  0  0  0  0
   37.5364   18.4758   37.3914 C   0  0  0  0  0  0  0  0  0  0  0  0
   38.6612   17.9171   37.8402 O   0  0  0  0  0  0  0  0  0  0  0  0
   37.7061   16.0179   38.8099 O   0  0  0  0  0  0  0  0  0  0  0  0
   34.0759   17.1161   37.1133 C   0  0  0  0  0  0  0  0  0  0  0  0
   32.8415   17.6117   36.5381 C   0  0  0  0  0  0  0  0  0  0  0  0
   34.2255   16.0318   37.9059 C   0  0  0  0  0  0  0  0  0  0  0  0
   35.3987   15.6387   38.4368 C   0  0  0  0  0  0  0  0  0  0  0  0
   32.8355   18.9052   35.8864 C   0  0  0  0  0  0  0  0  0  0  0  0
   31.8237   19.1851   35.1475 O   0  0  0  0  0  0  0  0  0  0  0  0
   37.4849   19.5480   36.8413 O   0  0  0  0  0  0  0  0  0  0  0  0
   33.5683   19.8886   36.3229 O   0  0  0  0  0  0  0  0  0  0  0  0
  1  2  1  0
  1  3  2  0
  1  4  1  0
  4  5  2  0
  3  6  1  0
  2  7  2  0
  7  8  1  0
  7  9  1  0
  3 10  1  0
  9 10  2  0
  8 11  1  0
 11 12  2  0
  4 13  1  0
 11 14  1  0
M  END
>  <ID>  (1) 
conformer_0

$$$$
