
     RDKit          3D

 14 15  0  0  0  0  0  0  0  0999 V2000
   35.7243   19.4797   36.4796 O   0  0  0  0  0  0  0  0  0  0  0  0
   36.9405   18.9400   36.5370 C   0  0  0  0  0  0  0  0  0  0  0  0
   34.6502   18.6371   36.7211 C   0  0  0  0  0  0  0  0  0  0  0  0
   37.9301   19.4876   35.9468 C   0  0  0  0  0  0  0  0  0  0  0  0
   39.0978   18.9370   35.8800 C   0  0  0  0  0  0  0  0  0  0  0  0
   34.7948   17.3070   36.9258 C   0  0  0  0  0  0  0  0  0  0  0  0
   39.3220   17.6975   36.3722 C   0  0  0  0  0  0  0  0  0  0  0  0
   36.8898   17.5654   37.2539 C   0  0  0  0  0  0  0  0  0  0  0  0
   36.0007   16.7651   37.2626 C   0  0  0  0  0  0  0  0  0  0  0  0
   38.2646   16.9408   37.0594 C   0  0  0  0  0  0  0  0  0  0  0  0
   33.3037   19.3765   36.4027 C   0  0  0  0  0  0  0  0  0  0  0  0
   32.3044   18.7051   36.2507 C   0  0  0  0  0  0  0  0  0  0  0  0
   37.7685   20.8016   35.4884 O   0  0  0  0  0  0  0  0  0  0  0  0
   31.7673   18.6557   34.9375 N   0  0  0  0  0  0  0  0  0  0  0  0
  1  2  1  0
  1  3  1  0
  2  4  2  0
  4  5  1  0
  3  6  2  0
  5  7  2  0
  2  8  1  0
  6  9  1  0
  8  9  1  0
  7 10  1  0
  8 10  2  0
  3 11  1  0
 11 12  1  0
  4 13  1  0
 12 14  1  0
M  END
>  <ID>  (1) 
conformer_0

$$$$
