
     RDKit          3D

  9  8  0  0  0  0  0  0  0  0999 V2000
   33.0342   19.9371   35.8677 O   0  0  0  0  0  0  0  0  0  0  0  0
   33.2412   18.7399   36.0947 C   0  0  0  0  0  0  0  0  0  0  0  0
   34.4907   18.2248   36.3757 C   0  0  0  0  0  0  0  0  0  0  0  0
   35.7217   19.1007   36.2252 C   0  0  0  0  0  0  0  0  0  0  0  0
   32.1132   18.0841   36.2699 O   0  0  0  0  0  0  0  0  0  0  0  0
   37.0333   18.4884   36.6555 C   0  0  0  0  0  0  0  0  0  0  0  0
   37.9973   18.8192   35.9441 C   0  0  0  0  0  0  0  0  0  0  0  0
   39.2907   18.3422   36.3578 C   0  0  0  0  0  0  0  0  0  0  0  0
   37.9056   19.8329   34.9457 C   0  0  0  0  0  0  0  0  0  0  0  0
  1  2  2  0
  2  3  1  0
  3  4  1  0
  2  5  1  0
  4  6  1  0
  6  7  2  3
  7  8  1  0
  7  9  1  0
M  END
>  <ID>  (1) 
conformer_0

$$$$
