
     RDKit          3D

 10 10  0  0  0  0  0  0  0  0999 V2000
   34.6476   19.7571   36.2470 O   0  0  0  0  0  0  0  0  0  0  0  0
   33.5490   19.1779   35.9949 C   0  0  0  0  0  0  0  0  0  0  0  0
   35.7198   18.8787   36.4449 C   0  0  0  0  0  0  0  0  0  0  0  0
   35.5916   17.6317   36.7299 C   0  0  0  0  0  0  0  0  0  0  0  0
   36.9082   19.5082   37.1840 C   0  0  0  0  0  0  0  0  0  0  0  0
   32.4865   19.9680   35.6609 O   0  0  0  0  0  0  0  0  0  0  0  0
   38.1785   19.4262   36.6421 O   0  0  0  0  0  0  0  0  0  0  0  0
   34.3381   17.0060   36.4322 C   0  0  0  0  0  0  0  0  0  0  0  0
   33.2111   17.9252   36.5279 C   0  0  0  0  0  0  0  0  0  0  0  0
   32.0266   17.3326   35.9781 N   0  0  0  0  0  0  0  0  0  0  0  0
  1  2  1  0
  1  3  1  0
  3  4  1  0
  3  5  1  0
  2  6  1  0
  5  7  1  0
  4  8  1  0
  2  9  1  0
  8  9  1  0
  9 10  1  0
M  END
>  <ID>  (1) 
conformer_0

$$$$
