
     RDKit          3D

 14 15  0  0  0  0  0  0  0  0999 V2000
   35.7243   19.4797   36.4796 O   0  0  0  0  0  0  0  0  0  0  0  0
   36.9405   18.9400   36.5370 C   0  0  0  0  0  0  0  0  0  0  0  0
   34.6502   18.6371   36.7211 C   0  0  0  0  0  0  0  0  0  0  0  0
   37.9301   19.4876   35.9468 C   0  0  0  0  0  0  0  0  0  0  0  0
   37.0425   17.6136   37.1005 C   0  0  0  0  0  0  0  0  0  0  0  0
   35.9846   16.8341   37.6851 C   0  0  0  0  0  0  0  0  0  0  0  0
   39.1110   18.9337   35.9436 C   0  0  0  0  0  0  0  0  0  0  0  0
   40.1174   19.6827   35.3844 O   0  0  0  0  0  0  0  0  0  0  0  0
   39.4579   17.8899   36.6426 C   0  0  0  0  0  0  0  0  0  0  0  0
   33.2754   19.1103   36.4143 C   0  0  0  0  0  0  0  0  0  0  0  0
   34.7330   17.3868   37.3459 C   0  0  0  0  0  0  0  0  0  0  0  0
   33.2675   20.2734   35.8366 O   0  0  0  0  0  0  0  0  0  0  0  0
   32.2273   18.4780   36.5292 O   0  0  0  0  0  0  0  0  0  0  0  0
   38.3484   17.1100   37.2194 C   0  0  0  0  0  0  0  0  0  0  0  0
  1  2  1  0
  1  3  1  0
  2  4  2  0
  2  5  1  0
  5  6  1  0
  4  7  1  0
  7  8  1  0
  7  9  2  0
  3 10  1  0
  3 11  1  0
  6 11  1  0
 10 12  2  0
 10 13  1  0
  5 14  2  0
  9 14  1  0
M  END
>  <ID>  (1) 
conformer_0

$$$$
