
     RDKit          3D

 13 13  0  0  0  0  0  0  0  0999 V2000
   33.1064   20.1683   35.7441 O   0  0  0  0  0  0  0  0  0  0  0  0
   33.8455   19.1885   36.0538 C   0  0  0  0  0  0  0  0  0  0  0  0
   33.2941   17.9731   36.4028 C   0  0  0  0  0  0  0  0  0  0  0  0
   35.0984   19.3686   36.6695 C   0  0  0  0  0  0  0  0  0  0  0  0
   31.8928   17.7958   35.8926 C   0  0  0  0  0  0  0  0  0  0  0  0
   35.9161   18.4196   37.1495 C   0  0  0  0  0  0  0  0  0  0  0  0
   37.2913   18.7057   37.5732 C   0  0  0  0  0  0  0  0  0  0  0  0
   34.0154   17.0229   36.7926 C   0  0  0  0  0  0  0  0  0  0  0  0
   31.4780   18.3052   34.9328 O   0  0  0  0  0  0  0  0  0  0  0  0
   31.2165   16.8036   36.3597 O   0  0  0  0  0  0  0  0  0  0  0  0
   37.7876   18.1283   38.5007 O   0  0  0  0  0  0  0  0  0  0  0  0
   35.3843   17.1957   37.2638 C   0  0  0  0  0  0  0  0  0  0  0  0
   37.9485   19.4959   36.8161 O   0  0  0  0  0  0  0  0  0  0  0  0
  1  2  1  0
  2  3  1  0
  2  4  2  0
  3  5  1  0
  4  6  1  0
  6  7  1  0
  3  8  2  0
  5  9  2  0
  5 10  1  0
  7 11  1  0
  6 12  2  0
  8 12  1  0
  7 13  2  0
M  END
>  <ID>  (1) 
conformer_0

$$$$
