
     RDKit          3D

 13 13  0  0  0  0  0  0  0  0999 V2000
   34.6476   19.7571   36.2470 O   0  0  0  0  0  0  0  0  0  0  0  0
   33.5490   19.1779   35.9949 C   0  0  0  0  0  0  0  0  0  0  0  0
   35.7198   18.8787   36.4449 C   0  0  0  0  0  0  0  0  0  0  0  0
   35.5916   17.6317   36.7299 C   0  0  0  0  0  0  0  0  0  0  0  0
   36.9082   19.5082   37.1840 C   0  0  0  0  0  0  0  0  0  0  0  0
   32.4865   19.9680   35.6609 O   0  0  0  0  0  0  0  0  0  0  0  0
   34.3506   16.9822   36.4279 N   0  0  0  0  0  0  0  0  0  0  0  0
   33.2750   17.7845   36.0335 C   0  0  0  0  0  0  0  0  0  0  0  0
   36.1401   19.0300   34.8630 C   0  0  0  0  0  0  0  0  0  0  0  0
   32.0250   17.3540   36.0306 O   0  0  0  0  0  0  0  0  0  0  0  0
   37.7259   18.5939   37.5768 O   0  0  0  0  0  0  0  0  0  0  0  0
   33.8974   15.7094   36.8971 C   0  0  0  0  0  0  0  0  0  0  0  0
   37.0949   20.6796   37.2388 O   0  0  0  0  0  0  0  0  0  0  0  0
  1  2  1  0
  1  3  1  0
  3  4  1  0
  3  5  1  0
  2  6  1  0
  4  7  1  0
  2  8  1  0
  7  8  1  0
  3  9  1  0
  8 10  2  0
  5 11  2  0
  7 12  1  0
  5 13  1  0
M  END
>  <ID>  (1) 
conformer_0

$$$$
