
     RDKit          3D

 14 15  0  0  0  0  0  0  0  0999 V2000
   32.7898   19.6704   36.3285 C   0  0  0  0  0  0  0  0  0  0  0  0
   34.0034   19.4984   36.4443 C   0  0  0  0  0  0  0  0  0  0  0  0
   34.5742   18.2560   36.4817 C   0  0  0  0  0  0  0  0  0  0  0  0
   33.7879   17.1565   36.5365 C   0  0  0  0  0  0  0  0  0  0  0  0
   34.3953   15.9105   36.8258 N   0  0  0  0  0  0  0  0  0  0  0  0
   36.0089   18.0245   36.6945 C   0  0  0  0  0  0  0  0  0  0  0  0
   36.9356   19.0596   36.8812 O   0  0  0  0  0  0  0  0  0  0  0  0
   35.6618   15.6789   36.9890 C   0  0  0  0  0  0  0  0  0  0  0  0
   32.4645   17.3013   36.3936 C   0  0  0  0  0  0  0  0  0  0  0  0
   31.9735   18.6886   36.0300 C   0  0  0  0  0  0  0  0  0  0  0  0
   36.5230   16.8240   36.9789 C   0  0  0  0  0  0  0  0  0  0  0  0
   37.7516   19.4911   35.9158 C   0  0  0  0  0  0  0  0  0  0  0  0
   37.9843   18.7653   34.9858 O   0  0  0  0  0  0  0  0  0  0  0  0
   38.2772   20.7152   36.0297 O   0  0  0  0  0  0  0  0  0  0  0  0
  1  2  1  0
  2  3  2  0
  3  4  1  0
  4  5  1  0
  3  6  1  0
  6  7  1  0
  5  8  2  0
  4  9  2  0
  1 10  2  0
  9 10  1  0
  6 11  2  0
  8 11  1  0
  7 12  1  0
 12 13  2  0
 12 14  1  0
M  END
>  <ID>  (1) 
conformer_0

$$$$
