
     RDKit          3D

  7  6  0  0  0  0  0  0  0  0999 V2000
   34.6476   19.7571   36.2470 C   0  0  0  0  0  0  0  0  0  0  0  0
   33.4738   18.9995   36.3271 C   0  0  0  0  0  0  0  0  0  0  0  0
   32.3998   19.4899   35.5832 O   0  0  0  0  0  0  0  0  0  0  0  0
   35.7870   18.9282   36.4925 C   0  0  0  0  0  0  0  0  0  0  0  0
   34.7120   20.1701   34.7952 O   0  0  0  0  0  0  0  0  0  0  0  0
   37.0506   19.5842   36.4089 O   0  0  0  0  0  0  0  0  0  0  0  0
   38.3335   18.9953   36.2567 C   0  0  0  0  0  0  0  0  0  0  0  0
  1  2  1  0
  2  3  1  0
  1  4  1  0
  1  5  1  0
  4  6  1  0
  6  7  1  0
M  END
>  <ID>  (1) 
conformer_0

$$$$
