
     RDKit          3D

 12 13  0  0  0  0  0  0  0  0999 V2000
   34.6476   19.7571   36.2470 C   0  0  0  0  0  0  0  0  0  0  0  0
   33.4738   18.9995   36.3271 C   0  0  0  0  0  0  0  0  0  0  0  0
   33.2965   17.8443   36.7775 N   0  0  0  0  0  0  0  0  0  0  0  0
   32.2796   19.4990   35.4754 N   0  0  0  0  0  0  0  0  0  0  0  0
   35.7531   19.1337   36.7022 C   0  0  0  0  0  0  0  0  0  0  0  0
   37.0219   19.8295   36.6515 C   0  0  0  0  0  0  0  0  0  0  0  0
   38.0402   19.0963   36.3771 C   0  0  0  0  0  0  0  0  0  0  0  0
   39.0339   19.4003   35.9155 O   0  0  0  0  0  0  0  0  0  0  0  0
   35.6278   17.9179   37.2596 C   0  0  0  0  0  0  0  0  0  0  0  0
   36.8735   17.2959   37.7679 C   0  0  0  0  0  0  0  0  0  0  0  0
   38.0272   17.7487   36.9253 N   0  0  0  0  0  0  0  0  0  0  0  0
   34.4243   17.3043   37.3582 C   0  0  0  0  0  0  0  0  0  0  0  0
  1  2  1  0
  2  3  2  0
  2  4  1  0
  1  5  2  0
  5  6  1  0
  6  7  1  0
  7  8  2  0
  5  9  1  0
  9 10  1  0
  7 11  1  0
 10 11  1  0
  3 12  1  0
  9 12  2  0
M  END
>  <ID>  (1) 
conformer_0

$$$$
