
     RDKit          3D

 13 14  0  0  0  0  0  0  0  0999 V2000
   36.3301   17.5365   37.4867 C   0  0  0  0  0  0  0  0  0  0  0  0
   35.3583   17.8088   36.7869 C   0  0  0  0  0  0  0  0  0  0  0  0
   37.5672   18.3314   37.0769 C   0  0  0  0  0  0  0  0  0  0  0  0
   35.0560   18.8923   36.0000 C   0  0  0  0  0  0  0  0  0  0  0  0
   33.7945   19.2540   35.4770 N   0  0  0  0  0  0  0  0  0  0  0  0
   37.4278   19.4089   36.2764 C   0  0  0  0  0  0  0  0  0  0  0  0
   36.2290   19.6869   35.7045 N   0  0  0  0  0  0  0  0  0  0  0  0
   32.8078   18.2768   35.6153 C   0  0  0  0  0  0  0  0  0  0  0  0
   38.8339   17.9704   37.8184 C   0  0  0  0  0  0  0  0  0  0  0  0
   32.5304   17.7979   36.6356 N   0  0  0  0  0  0  0  0  0  0  0  0
   31.5140   18.8345   34.8625 N   0  0  0  0  0  0  0  0  0  0  0  0
   33.9080   17.2142   37.1890 C   0  0  0  0  0  0  0  0  0  0  0  0
   38.4642   20.1487   35.7844 O   0  0  0  0  0  0  0  0  0  0  0  0
  1  2  1  0
  1  3  2  0
  2  4  2  0
  4  5  1  0
  3  6  1  0
  4  7  1  0
  6  7  2  0
  5  8  1  0
  3  9  1  0
  8 10  2  0
  8 11  1  0
  2 12  1  0
 10 12  1  0
  6 13  1  0
M  END
>  <ID>  (1) 
conformer_0

$$$$
