
     RDKit          3D

 12 13  0  0  0  0  0  0  0  0999 V2000
   31.1157   18.6098   35.1113 O   0  0  0  0  0  0  0  0  0  0  0  0
   32.2289   18.4358   35.7906 C   0  0  0  0  0  0  0  0  0  0  0  0
   33.2189   19.5013   35.8033 N   0  0  0  0  0  0  0  0  0  0  0  0
   34.3898   19.2969   36.2239 C   0  0  0  0  0  0  0  0  0  0  0  0
   35.4014   20.0778   35.8090 N   0  0  0  0  0  0  0  0  0  0  0  0
   34.6455   17.9561   36.7425 C   0  0  0  0  0  0  0  0  0  0  0  0
   33.8765   16.9349   36.6872 C   0  0  0  0  0  0  0  0  0  0  0  0
   32.5671   17.1736   36.2875 N   0  0  0  0  0  0  0  0  0  0  0  0
   36.5909   19.3676   36.4708 C   0  0  0  0  0  0  0  0  0  0  0  0
   36.1449   18.1597   36.9560 C   0  0  0  0  0  0  0  0  0  0  0  0
   36.9453   17.2477   37.7951 C   0  0  0  0  0  0  0  0  0  0  0  0
   37.7981   19.8047   36.3925 O   0  0  0  0  0  0  0  0  0  0  0  0
  1  2  2  0
  2  3  1  0
  3  4  1  0
  4  5  2  0
  4  6  1  0
  6  7  1  0
  2  8  1  0
  7  8  2  0
  5  9  1  0
  6 10  2  0
  9 10  1  0
 10 11  1  0
  9 12  2  0
M  END
>  <ID>  (1) 
conformer_0

$$$$
