
     RDKit          3D

 14 15  0  0  0  0  0  0  0  0999 V2000
   35.7243   19.4797   36.4796 O   0  0  0  0  0  0  0  0  0  0  0  0
   36.9405   18.9400   36.5370 C   0  0  0  0  0  0  0  0  0  0  0  0
   34.6502   18.6371   36.7211 C   0  0  0  0  0  0  0  0  0  0  0  0
   37.9301   19.4876   35.9468 C   0  0  0  0  0  0  0  0  0  0  0  0
   39.0978   18.9370   35.8800 C   0  0  0  0  0  0  0  0  0  0  0  0
   37.0752   17.6938   37.1866 C   0  0  0  0  0  0  0  0  0  0  0  0
   37.6057   20.7235   35.1975 O   0  0  0  0  0  0  0  0  0  0  0  0
   33.2776   19.2304   36.1784 C   0  0  0  0  0  0  0  0  0  0  0  0
   36.0619   17.0655   37.9324 C   0  0  0  0  0  0  0  0  0  0  0  0
   38.3442   17.1877   37.2462 C   0  0  0  0  0  0  0  0  0  0  0  0
   34.7450   17.5240   37.5099 C   0  0  0  0  0  0  0  0  0  0  0  0
   33.1532   20.4013   36.1100 O   0  0  0  0  0  0  0  0  0  0  0  0
   32.3807   18.3826   35.8270 O   0  0  0  0  0  0  0  0  0  0  0  0
   39.4401   17.8871   36.5994 C   0  0  0  0  0  0  0  0  0  0  0  0
  1  2  1  0
  1  3  1  0
  2  4  2  0
  4  5  1  0
  2  6  1  0
  4  7  1  0
  3  8  1  0
  6  9  1  0
  6 10  2  0
  3 11  1  0
  9 11  1  0
  8 12  1  0
  8 13  2  0
  5 14  2  0
 10 14  1  0
M  END
>  <ID>  (1) 
conformer_0

$$$$
