
     RDKit          3D

 12 13  0  0  0  0  0  0  0  0999 V2000
   31.1157   18.6098   35.1113 O   0  0  0  0  0  0  0  0  0  0  0  0
   32.2289   18.4358   35.7906 C   0  0  0  0  0  0  0  0  0  0  0  0
   33.2189   19.5013   35.8033 N   0  0  0  0  0  0  0  0  0  0  0  0
   34.3898   19.2969   36.2239 C   0  0  0  0  0  0  0  0  0  0  0  0
   35.4014   20.0778   35.8090 N   0  0  0  0  0  0  0  0  0  0  0  0
   36.5771   19.5616   36.1912 C   0  0  0  0  0  0  0  0  0  0  0  0
   36.7465   18.4037   36.8723 C   0  0  0  0  0  0  0  0  0  0  0  0
   34.3969   18.0212   37.0188 C   0  0  0  0  0  0  0  0  0  0  0  0
   35.6158   17.6065   37.3281 C   0  0  0  0  0  0  0  0  0  0  0  0
   38.0771   17.8789   37.3779 C   0  0  0  0  0  0  0  0  0  0  0  0
   33.0595   17.4508   37.0389 C   0  0  0  0  0  0  0  0  0  0  0  0
   37.7443   20.3122   35.8919 O   0  0  0  0  0  0  0  0  0  0  0  0
  1  2  2  0
  2  3  1  0
  3  4  1  0
  4  5  2  0
  5  6  1  0
  6  7  2  0
  4  8  1  0
  7  9  1  0
  8  9  2  0
  7 10  1  0
  2 11  1  0
  8 11  1  0
  6 12  1  0
M  END
>  <ID>  (1) 
conformer_0

$$$$
