
     RDKit          3D

 14 15  0  0  0  0  0  0  0  0999 V2000
   13.9414   58.2343   79.8472 C   0  0  0  0  0  0  0  0  0  0  0  0
   13.7414   57.0343   80.5472 C   0  0  0  0  0  0  0  0  0  0  0  0
   12.9414   59.1343   79.4472 C   0  0  0  0  0  0  0  0  0  0  0  0
   13.0414   60.0343   78.5472 O   0  0  0  0  0  0  0  0  0  0  0  0
   14.9414   56.2343   80.8472 C   0  0  0  0  0  0  0  0  0  0  0  0
   15.3414   58.4343   79.7472 O   0  0  0  0  0  0  0  0  0  0  0  0
   16.0414   57.2343   80.2472 C   0  0  0  0  0  0  0  0  0  0  0  0
   12.4414   56.6343   80.7472 O   0  0  0  0  0  0  0  0  0  0  0  0
   11.8414   58.9343   80.4472 C   0  0  0  0  0  0  0  0  0  0  0  0
   11.3414   57.4343   80.6472 C   0  0  0  0  0  0  0  0  0  0  0  0
   10.6414   59.6343   80.1472 O   0  0  0  0  0  0  0  0  0  0  0  0
   17.1414   56.7343   80.1472 O   0  0  0  0  0  0  0  0  0  0  0  0
   10.1414   57.1343   81.0472 O   0  0  0  0  0  0  0  0  0  0  0  0
   15.3414   55.8343   82.0472 O   0  0  0  0  0  0  0  0  0  0  0  0
  2  1  2  0
  3  1  1  0
  4  3  2  0
  5  2  1  0
  6  1  1  0
  7  5  1  0
  7  6  1  0
  8  2  1  0
  9  3  1  0
 10  8  1  0
 10  9  1  0
 11  9  1  0
 12  7  2  0
 13 10  2  0
 14  5  1  0
M  END
>  <ID>  (1) 
conformer_0

$$$$
