
     RDKit          3D

 15 15  0  0  0  0  0  0  0  0999 V2000
   11.9980   59.4258   78.6191 O   0  0  0  0  0  0  0  0  0  0  0  0
   11.9980   58.4258   79.7191 C   0  0  0  0  0  0  0  0  0  0  0  0
   13.3980   58.3258   80.2191 C   0  0  0  0  0  0  0  0  0  0  0  0
   14.0980   57.0258   80.3191 C   0  0  0  0  0  0  0  0  0  0  0  0
   15.4980   57.0258   80.2191 C   0  0  0  0  0  0  0  0  0  0  0  0
   14.3980   59.1258   79.5191 O   0  0  0  0  0  0  0  0  0  0  0  0
   15.5980   59.2258   79.1191 C   0  0  0  0  0  0  0  0  0  0  0  0
   16.4980   58.0258   79.7191 C   0  0  0  0  0  0  0  0  0  0  0  0
   17.4980   58.4258   80.5191 O   0  0  0  0  0  0  0  0  0  0  0  0
   16.1980   56.0258   81.0191 O   0  0  0  0  0  0  0  0  0  0  0  0
   13.2980   56.0258   80.9191 O   0  0  0  0  0  0  0  0  0  0  0  0
   11.0980   58.8258   80.7191 C   0  0  0  0  0  0  0  0  0  0  0  0
    9.7980   59.1258   80.3191 O   0  0  0  0  0  0  0  0  0  0  0  0
   11.4980   60.0258   81.5191 C   0  0  0  0  0  0  0  0  0  0  0  0
   11.0980   59.9258   82.8191 O   0  0  0  0  0  0  0  0  0  0  0  0
  2  1  1  0
  3  2  1  0
  4  3  1  0
  5  4  1  0
  6  3  1  0
  7  6  1  0
  8  5  1  0
  8  7  1  0
  9  8  1  0
 10  5  1  0
 11  4  1  0
 12  2  1  0
 13 12  1  0
 14 12  1  0
 15 14  1  0
M  END
>  <ID>  (1) 
conformer_0

$$$$
