
     RDKit          3D

 15 16  0  0  0  0  0  0  0  0999 V2000
   11.8953   59.7083   79.0170 O   0  0  0  0  0  0  0  0  0  0  0  0
   12.5953   58.6083   79.5170 C   0  0  0  0  0  0  0  0  0  0  0  0
   13.8953   58.4083   79.9170 C   0  0  0  0  0  0  0  0  0  0  0  0
   14.5953   57.3083   80.4170 C   0  0  0  0  0  0  0  0  0  0  0  0
   15.9953   57.3083   80.1170 C   0  0  0  0  0  0  0  0  0  0  0  0
   14.6953   59.0083   78.9170 O   0  0  0  0  0  0  0  0  0  0  0  0
   13.8953   56.2083   80.8170 O   0  0  0  0  0  0  0  0  0  0  0  0
   12.4953   56.5083   80.9170 C   0  0  0  0  0  0  0  0  0  0  0  0
   11.6953   57.6083   80.3170 C   0  0  0  0  0  0  0  0  0  0  0  0
   15.9953   59.4083   78.9170 C   0  0  0  0  0  0  0  0  0  0  0  0
   16.4953   60.2083   79.8170 O   0  0  0  0  0  0  0  0  0  0  0  0
   10.4953   57.5083   79.9170 O   0  0  0  0  0  0  0  0  0  0  0  0
   11.6953   55.3083   81.1170 O   0  0  0  0  0  0  0  0  0  0  0  0
   17.2953   59.1083   79.2170 C   0  0  0  0  0  0  0  0  0  0  0  0
   16.8953   57.2083   81.1170 O   0  0  0  0  0  0  0  0  0  0  0  0
  2  1  1  0
  3  2  1  0
  4  3  1  0
  5  4  1  0
  6  3  1  0
  7  4  1  0
  8  7  1  0
  9  2  1  0
  9  8  1  0
 10  6  1  0
 11 10  1  0
 12  9  2  0
 13  8  2  0
 14 10  1  0
 14 11  1  0
 15  5  1  0
M  END
>  <ID>  (1) 
conformer_0

$$$$
