
     RDKit          3D

 14 14  0  0  0  0  0  0  0  0999 V2000
   14.1626   58.2956   80.0285 C   0  0  0  0  0  0  0  0  0  0  0  0
   14.5626   56.8956   80.3285 C   0  0  0  0  0  0  0  0  0  0  0  0
   12.7626   58.4956   79.8285 C   0  0  0  0  0  0  0  0  0  0  0  0
   12.1626   59.3956   78.9285 O   0  0  0  0  0  0  0  0  0  0  0  0
   15.9626   56.5956   80.4285 C   0  0  0  0  0  0  0  0  0  0  0  0
   15.2626   58.9956   79.5285 O   0  0  0  0  0  0  0  0  0  0  0  0
   13.4626   56.1956   80.8285 O   0  0  0  0  0  0  0  0  0  0  0  0
   12.1626   56.4956   80.9285 C   0  0  0  0  0  0  0  0  0  0  0  0
   11.6626   57.7956   80.5285 C   0  0  0  0  0  0  0  0  0  0  0  0
   16.8626   57.4956   80.9285 O   0  0  0  0  0  0  0  0  0  0  0  0
   11.3626   55.4956   81.0285 O   0  0  0  0  0  0  0  0  0  0  0  0
   10.3626   57.7956   80.1284 O   0  0  0  0  0  0  0  0  0  0  0  0
   16.6626   59.2956   79.1284 C   0  0  0  0  0  0  0  0  0  0  0  0
   17.3626   59.9956   79.9285 O   0  0  0  0  0  0  0  0  0  0  0  0
  2  1  1  0
  3  1  1  0
  4  3  1  0
  5  2  1  0
  6  1  1  0
  7  2  1  0
  8  7  1  0
  9  3  1  0
  9  8  1  0
 10  5  1  0
 11  8  2  0
 12  9  1  0
 13  6  1  0
 14 13  2  0
M  END
>  <ID>  (1) 
conformer_0

$$$$
