
     RDKit          3D

 12 13  0  0  0  0  0  0  0  0999 V2000
   12.2048   59.3949   78.9430 O   0  0  0  0  0  0  0  0  0  0  0  0
   11.9048   58.2949   79.7430 C   0  0  0  0  0  0  0  0  0  0  0  0
   13.1048   57.5949   80.2430 C   0  0  0  0  0  0  0  0  0  0  0  0
   14.4048   58.0949   79.9430 C   0  0  0  0  0  0  0  0  0  0  0  0
   15.5048   57.1949   80.2430 C   0  0  0  0  0  0  0  0  0  0  0  0
   13.1048   56.3949   80.8430 O   0  0  0  0  0  0  0  0  0  0  0  0
   14.1048   55.8949   81.7430 C   0  0  0  0  0  0  0  0  0  0  0  0
   15.4048   56.4949   81.5430 C   0  0  0  0  0  0  0  0  0  0  0  0
   16.0048   57.1949   82.6430 O   0  0  0  0  0  0  0  0  0  0  0  0
   13.7048   55.3949   83.0430 O   0  0  0  0  0  0  0  0  0  0  0  0
   16.8048   57.6949   80.1430 O   0  0  0  0  0  0  0  0  0  0  0  0
   13.8048   58.3949   81.2430 O   0  0  0  0  0  0  0  0  0  0  0  0
  2  1  1  0
  3  2  1  0
  4  3  1  0
  5  4  1  0
  6  3  1  0
  7  6  1  0
  8  5  1  0
  8  7  1  0
  9  8  1  0
 10  7  2  0
 11  5  1  0
 12  3  1  0
 12  4  1  0
M  END
>  <ID>  (1) 
conformer_0

$$$$
