
     RDKit          3D

 15 16  0  0  0  0  0  0  0  0999 V2000
   13.9414   58.2343   79.8472 C   0  0  0  0  0  0  0  0  0  0  0  0
   13.7414   57.0343   80.5472 C   0  0  0  0  0  0  0  0  0  0  0  0
   12.9414   59.1343   79.4472 C   0  0  0  0  0  0  0  0  0  0  0  0
   13.0414   59.9343   78.2472 O   0  0  0  0  0  0  0  0  0  0  0  0
   15.0414   56.4343   80.9472 C   0  0  0  0  0  0  0  0  0  0  0  0
   15.3414   58.4343   79.5472 O   0  0  0  0  0  0  0  0  0  0  0  0
   16.1414   57.4343   80.2472 C   0  0  0  0  0  0  0  0  0  0  0  0
   12.5414   56.3343   80.6472 O   0  0  0  0  0  0  0  0  0  0  0  0
   17.0414   57.8343   80.7472 O   0  0  0  0  0  0  0  0  0  0  0  0
   12.5414   55.4343   81.6472 C   0  0  0  0  0  0  0  0  0  0  0  0
   13.1414   55.5343   82.8472 O   0  0  0  0  0  0  0  0  0  0  0  0
   14.5414   55.3343   83.2472 C   0  0  0  0  0  0  0  0  0  0  0  0
   11.2414   54.7343   81.6472 C   0  0  0  0  0  0  0  0  0  0  0  0
   11.1414   53.7343   82.6472 O   0  0  0  0  0  0  0  0  0  0  0  0
   15.4414   56.2343   82.3472 C   0  0  0  0  0  0  0  0  0  0  0  0
  2  1  1  0
  3  1  1  0
  4  3  1  0
  5  2  1  0
  6  1  1  0
  7  5  1  0
  7  6  1  0
  8  2  1  0
  9  7  1  0
 10  8  1  0
 11 10  1  0
 12 11  1  0
 13 10  1  0
 14 13  1  0
 15  5  1  0
 15 12  1  0
M  END
>  <ID>  (1) 
conformer_0

$$$$
