
     RDKit          3D

 12 13  0  0  0  0  0  0  0  0999 V2000
   13.8403   57.9482   79.9181 C   0  0  0  0  0  0  0  0  0  0  0  0
   14.6403   56.9482   80.5181 C   0  0  0  0  0  0  0  0  0  0  0  0
   16.0403   57.1482   80.1180 C   0  0  0  0  0  0  0  0  0  0  0  0
   14.6403   58.8482   79.1180 C   0  0  0  0  0  0  0  0  0  0  0  0
   16.0403   58.3482   79.3180 O   0  0  0  0  0  0  0  0  0  0  0  0
   12.4403   57.9482   79.9181 O   0  0  0  0  0  0  0  0  0  0  0  0
   11.6403   57.2482   80.7181 C   0  0  0  0  0  0  0  0  0  0  0  0
   10.2403   56.7482   80.6181 C   0  0  0  0  0  0  0  0  0  0  0  0
   12.4403   56.3482   81.5181 C   0  0  0  0  0  0  0  0  0  0  0  0
   10.3403   55.3482   80.8181 O   0  0  0  0  0  0  0  0  0  0  0  0
   13.6403   55.8482   81.0181 O   0  0  0  0  0  0  0  0  0  0  0  0
   12.0403   55.9482   82.8181 O   0  0  0  0  0  0  0  0  0  0  0  0
  2  1  1  0
  3  2  2  0
  4  1  2  0
  5  3  1  0
  5  4  1  0
  6  1  1  0
  7  6  1  0
  8  7  1  0
  9  7  1  0
 10  8  1  0
 11  2  1  0
 11  9  1  0
 12  9  2  0
M  END
>  <ID>  (1) 
conformer_0

$$$$
