
     RDKit          3D

 12 12  0  0  0  0  0  0  0  0999 V2000
   13.9414   58.2343   79.8472 C   0  0  0  0  0  0  0  0  0  0  0  0
   13.7414   57.0343   80.5472 C   0  0  0  0  0  0  0  0  0  0  0  0
   12.9414   59.1343   79.4472 C   0  0  0  0  0  0  0  0  0  0  0  0
   13.0414   60.0343   78.5472 O   0  0  0  0  0  0  0  0  0  0  0  0
   14.9414   56.2343   80.8472 C   0  0  0  0  0  0  0  0  0  0  0  0
   15.3414   58.4343   79.7472 O   0  0  0  0  0  0  0  0  0  0  0  0
   16.1414   57.2343   80.1472 C   0  0  0  0  0  0  0  0  0  0  0  0
   12.5414   56.3343   80.8472 O   0  0  0  0  0  0  0  0  0  0  0  0
   12.6414   55.4343   81.9472 C   0  0  0  0  0  0  0  0  0  0  0  0
   16.8414   57.7343   80.9472 O   0  0  0  0  0  0  0  0  0  0  0  0
   13.6414   55.6343   82.9472 O   0  0  0  0  0  0  0  0  0  0  0  0
   14.9414   55.6343   83.3472 C   0  0  0  0  0  0  0  0  0  0  0  0
  2  1  2  0
  3  1  1  0
  4  3  2  0
  5  2  1  0
  6  1  1  0
  7  5  1  0
  7  6  1  0
  8  2  1  0
  9  8  1  0
 10  7  1  0
 11  9  1  0
 12 11  1  0
M  END
>  <ID>  (1) 
conformer_0

$$$$
