
     RDKit          3D

 12 13  0  0  0  0  0  0  0  0999 V2000
   12.4419   60.0948   79.0863 O   0  0  0  0  0  0  0  0  0  0  0  0
   12.7419   58.7948   79.5863 C   0  0  0  0  0  0  0  0  0  0  0  0
   14.1419   58.3948   79.8863 C   0  0  0  0  0  0  0  0  0  0  0  0
   14.2419   56.9948   80.3863 C   0  0  0  0  0  0  0  0  0  0  0  0
   12.8419   56.5948   80.6863 O   0  0  0  0  0  0  0  0  0  0  0  0
   11.9419   57.6948   80.4863 C   0  0  0  0  0  0  0  0  0  0  0  0
   15.5419   56.4948   80.5863 C   0  0  0  0  0  0  0  0  0  0  0  0
   15.5419   58.6948   79.4863 O   0  0  0  0  0  0  0  0  0  0  0  0
   16.4419   57.6948   79.9863 C   0  0  0  0  0  0  0  0  0  0  0  0
   17.4419   58.0948   80.4863 O   0  0  0  0  0  0  0  0  0  0  0  0
   10.7419   57.6948   79.7863 O   0  0  0  0  0  0  0  0  0  0  0  0
   16.0419   56.0948   81.7863 O   0  0  0  0  0  0  0  0  0  0  0  0
  2  1  1  0
  3  2  1  0
  4  3  2  0
  5  4  1  0
  6  2  1  0
  6  5  1  0
  7  4  1  0
  8  3  1  0
  9  7  1  0
  9  8  1  0
 10  9  2  0
 11  6  1  0
 12  7  1  0
M  END
>  <ID>  (1) 
conformer_0

$$$$
