
     RDKit          3D

 12 12  0  0  0  0  0  0  0  0999 V2000
   12.1216   59.4221   78.7082 O   0  0  0  0  0  0  0  0  0  0  0  0
   12.5216   58.5221   79.7082 C   0  0  0  0  0  0  0  0  0  0  0  0
   13.9216   58.1221   79.9082 C   0  0  0  0  0  0  0  0  0  0  0  0
   14.2216   56.9221   80.6082 C   0  0  0  0  0  0  0  0  0  0  0  0
   15.5216   56.5221   80.9082 C   0  0  0  0  0  0  0  0  0  0  0  0
   13.1216   56.1221   81.0082 O   0  0  0  0  0  0  0  0  0  0  0  0
   11.4216   57.8221   80.4082 C   0  0  0  0  0  0  0  0  0  0  0  0
   11.8216   56.6221   81.1082 C   0  0  0  0  0  0  0  0  0  0  0  0
   10.3216   58.6221   80.7082 O   0  0  0  0  0  0  0  0  0  0  0  0
   15.0216   58.7221   79.3082 O   0  0  0  0  0  0  0  0  0  0  0  0
   16.6216   57.4221   81.0082 O   0  0  0  0  0  0  0  0  0  0  0  0
   10.8216   55.8221   81.6082 O   0  0  0  0  0  0  0  0  0  0  0  0
  2  1  1  0
  3  2  1  0
  4  3  2  0
  5  4  1  0
  6  4  1  0
  7  2  1  0
  8  6  1  0
  8  7  1  0
  9  7  1  0
 10  3  1  0
 11  5  1  0
 12  8  2  0
M  END
>  <ID>  (1) 
conformer_0

$$$$
