
     RDKit          3D

 13 14  0  0  0  0  0  0  0  0999 V2000
   13.9414   58.2343   79.8472 C   0  0  0  0  0  0  0  0  0  0  0  0
   13.7414   57.0343   80.5472 C   0  0  0  0  0  0  0  0  0  0  0  0
   12.9414   59.1343   79.4472 C   0  0  0  0  0  0  0  0  0  0  0  0
   13.0414   59.9343   78.2472 O   0  0  0  0  0  0  0  0  0  0  0  0
   15.0414   56.4343   80.9472 C   0  0  0  0  0  0  0  0  0  0  0  0
   15.3414   58.4343   79.5472 O   0  0  0  0  0  0  0  0  0  0  0  0
   16.0414   57.2343   80.0472 C   0  0  0  0  0  0  0  0  0  0  0  0
   12.5414   56.5343   80.9472 O   0  0  0  0  0  0  0  0  0  0  0  0
   17.2414   57.6343   80.6472 O   0  0  0  0  0  0  0  0  0  0  0  0
   12.2414   55.2343   81.4472 C   0  0  0  0  0  0  0  0  0  0  0  0
   12.1414   55.0343   82.8472 O   0  0  0  0  0  0  0  0  0  0  0  0
   13.4414   54.9343   82.3472 C   0  0  0  0  0  0  0  0  0  0  0  0
   15.5414   56.3343   82.3472 O   0  0  0  0  0  0  0  0  0  0  0  0
  2  1  2  0
  3  1  1  0
  4  3  1  0
  5  2  1  0
  6  1  1  0
  7  5  1  0
  7  6  1  0
  8  2  1  0
  9  7  1  0
 10  8  1  0
 11 10  1  0
 12 10  1  0
 12 11  1  0
 13  5  1  0
M  END
>  <ID>  (1) 
conformer_0

$$$$
