
     RDKit          3D

 14 15  0  0  0  0  0  0  0  0999 V2000
   12.4033   59.8126   78.5232 O   0  0  0  0  0  0  0  0  0  0  0  0
   12.3033   58.8126   79.5232 C   0  0  0  0  0  0  0  0  0  0  0  0
   13.6033   58.3126   79.9232 C   0  0  0  0  0  0  0  0  0  0  0  0
   13.7033   57.0126   80.5232 C   0  0  0  0  0  0  0  0  0  0  0  0
   15.1033   56.7126   80.9232 C   0  0  0  0  0  0  0  0  0  0  0  0
   14.9033   58.8126   79.5232 O   0  0  0  0  0  0  0  0  0  0  0  0
   12.7033   56.2126   80.8232 O   0  0  0  0  0  0  0  0  0  0  0  0
   15.9033   57.9126   80.1232 C   0  0  0  0  0  0  0  0  0  0  0  0
   17.1033   57.9126   80.5232 O   0  0  0  0  0  0  0  0  0  0  0  0
   11.3033   56.7126   80.6232 C   0  0  0  0  0  0  0  0  0  0  0  0
   11.4033   58.2126   80.4232 C   0  0  0  0  0  0  0  0  0  0  0  0
   10.0033   58.6126   80.3232 O   0  0  0  0  0  0  0  0  0  0  0  0
   10.3033   56.0126   81.1232 O   0  0  0  0  0  0  0  0  0  0  0  0
   15.4033   57.1126   82.2232 O   0  0  0  0  0  0  0  0  0  0  0  0
  2  1  1  0
  3  2  1  0
  4  3  1  0
  5  4  1  0
  6  3  1  0
  7  4  1  0
  8  5  1  0
  8  6  1  0
  9  8  2  0
 10  7  1  0
 11  2  1  0
 11 10  1  0
 12 11  1  0
 13 10  2  0
 14  5  1  0
M  END
>  <ID>  (1) 
conformer_0

$$$$
