
     RDKit          3D

 10 10  0  0  0  0  0  0  0  0999 V2000
   11.6856   59.5267   79.0225 O   0  0  0  0  0  0  0  0  0  0  0  0
   12.8856   59.0267   79.5225 C   0  0  0  0  0  0  0  0  0  0  0  0
   13.5856   57.9267   80.0225 C   0  0  0  0  0  0  0  0  0  0  0  0
   14.9856   57.8267   80.0225 C   0  0  0  0  0  0  0  0  0  0  0  0
   15.5856   56.5267   80.4225 C   0  0  0  0  0  0  0  0  0  0  0  0
   14.5856   56.0267   81.4225 C   0  0  0  0  0  0  0  0  0  0  0  0
   12.5856   56.9267   80.5225 O   0  0  0  0  0  0  0  0  0  0  0  0
   13.2856   55.8267   81.2225 C   0  0  0  0  0  0  0  0  0  0  0  0
   15.1856   55.7267   82.7225 O   0  0  0  0  0  0  0  0  0  0  0  0
   15.6856   56.3267   83.6225 C   0  0  0  0  0  0  0  0  0  0  0  0
  2  1  1  0
  3  2  1  0
  4  3  2  0
  5  4  1  0
  6  5  1  0
  7  3  1  0
  8  6  1  0
  8  7  1  0
  9  6  1  0
 10  9  1  0
M  END
>  <ID>  (1) 
conformer_0

$$$$
