
     RDKit          3D

 16 17  0  0  0  0  0  0  0  0999 V2000
   12.9421   59.1539   79.6925 C   0  0  0  0  0  0  0  0  0  0  0  0
   12.8421   59.8539   78.3925 O   0  0  0  0  0  0  0  0  0  0  0  0
   13.9421   58.1539   79.9925 C   0  0  0  0  0  0  0  0  0  0  0  0
   13.6421   57.0539   80.8925 C   0  0  0  0  0  0  0  0  0  0  0  0
   14.7421   56.1539   81.0925 C   0  0  0  0  0  0  0  0  0  0  0  0
   15.2421   58.2539   79.5925 O   0  0  0  0  0  0  0  0  0  0  0  0
   16.4421   57.7539   80.1925 C   0  0  0  0  0  0  0  0  0  0  0  0
   16.0421   56.4539   80.5925 C   0  0  0  0  0  0  0  0  0  0  0  0
   12.3421   56.5539   80.6925 O   0  0  0  0  0  0  0  0  0  0  0  0
   11.2421   57.4539   80.4925 C   0  0  0  0  0  0  0  0  0  0  0  0
   11.6421   58.8539   80.2925 C   0  0  0  0  0  0  0  0  0  0  0  0
   10.5421   59.6539   79.7925 O   0  0  0  0  0  0  0  0  0  0  0  0
   10.0421   56.9539   80.0925 O   0  0  0  0  0  0  0  0  0  0  0  0
   17.6421   58.1539   79.4925 C   0  0  0  0  0  0  0  0  0  0  0  0
   17.4421   59.1539   78.5925 O   0  0  0  0  0  0  0  0  0  0  0  0
   14.8421   55.7539   82.4925 O   0  0  0  0  0  0  0  0  0  0  0  0
  2  1  1  0
  3  1  1  0
  4  3  1  0
  5  4  1  0
  6  3  1  0
  7  6  1  0
  8  5  1  0
  8  7  1  0
  9  4  1  0
 10  9  1  0
 11  1  1  0
 11 10  1  0
 12 11  1  0
 13 10  2  0
 14  7  1  0
 15 14  1  0
 16  5  1  0
M  END
>  <ID>  (1) 
conformer_0

$$$$
