
     RDKit          3D

  6  6  0  0  0  0  0  0  0  0999 V2000
   13.9985   57.3935   80.3501 C   0  0  0  0  0  0  0  0  0  0  0  0
   13.4985   58.5935   79.7501 C   0  0  0  0  0  0  0  0  0  0  0  0
   12.0985   58.5935   79.3501 O   0  0  0  0  0  0  0  0  0  0  0  0
   12.9985   56.3935   80.7501 O   0  0  0  0  0  0  0  0  0  0  0  0
   11.7985   57.0935   81.0501 C   0  0  0  0  0  0  0  0  0  0  0  0
   11.1985   57.9935   80.2501 C   0  0  0  0  0  0  0  0  0  0  0  0
  2  1  2  0
  3  2  1  0
  4  1  1  0
  5  4  1  0
  6  3  1  0
  6  5  1  0
M  END
>  <ID>  (1) 
conformer_0

$$$$
