
     RDKit          3D

 15 16  0  0  0  0  0  0  0  0999 V2000
   12.9421   59.1539   79.6925 C   0  0  0  0  0  0  0  0  0  0  0  0
   12.8421   59.8539   78.3925 O   0  0  0  0  0  0  0  0  0  0  0  0
   13.9421   58.1539   79.9925 C   0  0  0  0  0  0  0  0  0  0  0  0
   13.6421   57.0539   80.8925 C   0  0  0  0  0  0  0  0  0  0  0  0
   14.7421   56.1539   81.1925 C   0  0  0  0  0  0  0  0  0  0  0  0
   15.2421   58.0539   79.4925 O   0  0  0  0  0  0  0  0  0  0  0  0
   16.3421   57.5539   80.0925 C   0  0  0  0  0  0  0  0  0  0  0  0
   16.0421   56.3539   80.7925 C   0  0  0  0  0  0  0  0  0  0  0  0
   12.3421   56.5539   80.8925 O   0  0  0  0  0  0  0  0  0  0  0  0
   11.3421   57.5539   80.4925 C   0  0  0  0  0  0  0  0  0  0  0  0
   11.6421   59.0539   80.3925 C   0  0  0  0  0  0  0  0  0  0  0  0
   10.5421   59.7539   79.8925 O   0  0  0  0  0  0  0  0  0  0  0  0
   17.4421   58.1539   80.3925 O   0  0  0  0  0  0  0  0  0  0  0  0
   10.0421   57.2539   80.7925 O   0  0  0  0  0  0  0  0  0  0  0  0
   14.2421   55.1539   82.0925 O   0  0  0  0  0  0  0  0  0  0  0  0
  2  1  1  0
  3  1  1  0
  4  3  1  0
  5  4  1  0
  6  3  1  0
  7  6  1  0
  8  5  2  0
  8  7  1  0
  9  4  1  0
 10  9  1  0
 11  1  1  0
 11 10  1  0
 12 11  1  0
 13  7  2  0
 14 10  2  0
 15  5  1  0
M  END
>  <ID>  (1) 
conformer_0

$$$$
