
     RDKit          3D

 13 13  0  0  0  0  0  0  0  0999 V2000
   13.9919   58.3805   79.8058 C   0  0  0  0  0  0  0  0  0  0  0  0
   13.6919   57.0805   80.3058 C   0  0  0  0  0  0  0  0  0  0  0  0
   12.2919   56.8805   80.6058 O   0  0  0  0  0  0  0  0  0  0  0  0
   12.6919   59.0805   79.6058 C   0  0  0  0  0  0  0  0  0  0  0  0
   12.7919   59.9805   78.5058 O   0  0  0  0  0  0  0  0  0  0  0  0
   11.5919   58.1805   80.0058 C   0  0  0  0  0  0  0  0  0  0  0  0
   14.5919   56.2805   80.9058 C   0  0  0  0  0  0  0  0  0  0  0  0
   13.9919   55.0805   81.4058 O   0  0  0  0  0  0  0  0  0  0  0  0
   15.0919   58.7805   79.2058 O   0  0  0  0  0  0  0  0  0  0  0  0
   10.6919   58.8805   80.9058 C   0  0  0  0  0  0  0  0  0  0  0  0
   10.9919   58.4805   82.3058 O   0  0  0  0  0  0  0  0  0  0  0  0
   15.9919   56.5805   80.6058 C   0  0  0  0  0  0  0  0  0  0  0  0
   16.6919   57.5805   81.0058 O   0  0  0  0  0  0  0  0  0  0  0  0
  2  1  1  0
  3  2  1  0
  4  1  1  0
  5  4  1  0
  6  3  1  0
  6  4  1  0
  7  2  1  0
  8  7  1  0
  9  1  1  0
 10  6  1  0
 11 10  1  0
 12  7  1  0
 13 12  2  0
M  END
>  <ID>  (1) 
conformer_0

$$$$
