
     RDKit          3D

 15 16  0  0  0  0  0  0  0  0999 V2000
   12.9421   59.1539   79.6925 C   0  0  0  0  0  0  0  0  0  0  0  0
   12.8421   59.8539   78.3925 O   0  0  0  0  0  0  0  0  0  0  0  0
   13.9421   58.1539   79.9925 C   0  0  0  0  0  0  0  0  0  0  0  0
   13.6421   57.0539   80.8925 C   0  0  0  0  0  0  0  0  0  0  0  0
   14.7421   56.1539   81.0925 C   0  0  0  0  0  0  0  0  0  0  0  0
   15.2421   58.2539   79.5925 O   0  0  0  0  0  0  0  0  0  0  0  0
   16.4421   57.7539   80.1925 C   0  0  0  0  0  0  0  0  0  0  0  0
   16.0421   56.4539   80.5925 C   0  0  0  0  0  0  0  0  0  0  0  0
   12.3421   56.5539   80.8925 O   0  0  0  0  0  0  0  0  0  0  0  0
   11.2421   57.3539   80.4925 C   0  0  0  0  0  0  0  0  0  0  0  0
   11.6421   58.7539   80.1925 C   0  0  0  0  0  0  0  0  0  0  0  0
   17.5421   58.3539   80.3925 O   0  0  0  0  0  0  0  0  0  0  0  0
   10.5421   59.5539   79.7925 O   0  0  0  0  0  0  0  0  0  0  0  0
    9.9421   57.0539   80.3925 O   0  0  0  0  0  0  0  0  0  0  0  0
   14.8421   55.5539   82.3925 O   0  0  0  0  0  0  0  0  0  0  0  0
  2  1  1  0
  3  1  1  0
  4  3  1  0
  5  4  1  0
  6  3  1  0
  7  6  1  0
  8  5  1  0
  8  7  1  0
  9  4  1  0
 10  9  1  0
 11  1  1  0
 11 10  1  0
 12  7  2  0
 13 11  1  0
 14 10  2  0
 15  5  1  0
M  END
>  <ID>  (1) 
conformer_0

$$$$
