
     RDKit          3D

 15 16  0  0  0  0  0  0  0  0999 V2000
   11.8953   59.7083   79.0170 O   0  0  0  0  0  0  0  0  0  0  0  0
   12.6953   58.8083   79.4170 C   0  0  0  0  0  0  0  0  0  0  0  0
   13.8953   58.2083   79.8170 C   0  0  0  0  0  0  0  0  0  0  0  0
   14.0953   57.1083   80.6170 C   0  0  0  0  0  0  0  0  0  0  0  0
   15.4953   56.6083   80.6170 C   0  0  0  0  0  0  0  0  0  0  0  0
   16.2953   57.7083   80.0170 C   0  0  0  0  0  0  0  0  0  0  0  0
   15.1953   58.6083   79.4170 O   0  0  0  0  0  0  0  0  0  0  0  0
   17.3953   58.0083   80.4170 O   0  0  0  0  0  0  0  0  0  0  0  0
   13.0953   56.0083   80.8170 O   0  0  0  0  0  0  0  0  0  0  0  0
   13.2953   55.1083   81.8170 C   0  0  0  0  0  0  0  0  0  0  0  0
   15.5953   55.9083   81.9170 O   0  0  0  0  0  0  0  0  0  0  0  0
   14.3953   55.6083   82.7170 C   0  0  0  0  0  0  0  0  0  0  0  0
   14.7953   54.6083   83.7170 C   0  0  0  0  0  0  0  0  0  0  0  0
   13.5953   53.7083   83.7170 O   0  0  0  0  0  0  0  0  0  0  0  0
   12.0953   54.9083   82.5170 O   0  0  0  0  0  0  0  0  0  0  0  0
  2  1  2  0
  3  2  2  0
  4  3  1  0
  5  4  1  0
  6  5  1  0
  7  3  1  0
  7  6  1  0
  8  6  2  0
  9  4  1  0
 10  9  1  0
 11  5  1  0
 12 10  1  0
 12 11  1  0
 13 12  1  0
 14 13  1  0
 15 10  1  0
M  END
>  <ID>  (1) 
conformer_0

$$$$
