
     RDKit          3D

 13 13  0  0  0  0  0  0  0  0999 V2000
   14.1626   58.2956   80.0285 C   0  0  0  0  0  0  0  0  0  0  0  0
   14.5626   56.8956   80.3285 C   0  0  0  0  0  0  0  0  0  0  0  0
   12.7626   58.4956   79.8285 C   0  0  0  0  0  0  0  0  0  0  0  0
   12.1626   59.3956   78.9285 O   0  0  0  0  0  0  0  0  0  0  0  0
   15.9626   56.5956   80.4285 C   0  0  0  0  0  0  0  0  0  0  0  0
   15.2626   58.9956   79.5285 O   0  0  0  0  0  0  0  0  0  0  0  0
   13.6626   55.9956   80.8285 O   0  0  0  0  0  0  0  0  0  0  0  0
   11.8626   57.5956   80.4285 C   0  0  0  0  0  0  0  0  0  0  0  0
   12.2626   56.2956   81.1285 C   0  0  0  0  0  0  0  0  0  0  0  0
   16.7626   57.5956   81.0285 O   0  0  0  0  0  0  0  0  0  0  0  0
   10.4626   57.6956   80.1284 O   0  0  0  0  0  0  0  0  0  0  0  0
   11.2626   55.3956   81.0285 O   0  0  0  0  0  0  0  0  0  0  0  0
   16.5626   58.7956   79.1284 C   0  0  0  0  0  0  0  0  0  0  0  0
  2  1  1  0
  3  1  1  0
  4  3  1  0
  5  2  1  0
  6  1  1  0
  7  2  1  0
  8  3  2  0
  9  7  1  0
  9  8  1  0
 10  5  1  0
 11  8  1  0
 12  9  1  0
 13  6  1  0
M  END
>  <ID>  (1) 
conformer_0

$$$$
