
     RDKit          3D

 11 12  0  0  0  0  0  0  0  0999 V2000
   14.8130   57.8265   80.1868 C   0  0  0  0  0  0  0  0  0  0  0  0
   13.4130   57.6264   80.2868 C   0  0  0  0  0  0  0  0  0  0  0  0
   15.7130   56.7265   80.4868 C   0  0  0  0  0  0  0  0  0  0  0  0
   12.6130   58.6264   79.6868 C   0  0  0  0  0  0  0  0  0  0  0  0
   11.7130   59.0265   78.8868 O   0  0  0  0  0  0  0  0  0  0  0  0
   13.2130   56.3265   80.8868 O   0  0  0  0  0  0  0  0  0  0  0  0
   13.9130   56.1264   82.0868 C   0  0  0  0  0  0  0  0  0  0  0  0
   15.4130   56.2265   81.7868 C   0  0  0  0  0  0  0  0  0  0  0  0
   13.5130   55.5265   83.2868 O   0  0  0  0  0  0  0  0  0  0  0  0
   14.3130   58.4264   81.2868 O   0  0  0  0  0  0  0  0  0  0  0  0
   15.9130   57.0265   82.7868 O   0  0  0  0  0  0  0  0  0  0  0  0
  2  1  1  0
  3  1  1  0
  4  2  1  0
  5  4  2  0
  6  2  1  0
  7  6  1  0
  8  3  1  0
  8  7  1  0
  9  7  2  0
 10  1  1  0
 10  2  1  0
 11  8  1  0
M  END
>  <ID>  (1) 
conformer_0

$$$$
