
     RDKit          3D

 14 15  0  0  0  0  0  0  0  0999 V2000
   13.9414   58.2343   79.8472 C   0  0  0  0  0  0  0  0  0  0  0  0
   13.7414   57.0343   80.5472 C   0  0  0  0  0  0  0  0  0  0  0  0
   12.9414   59.1343   79.4472 C   0  0  0  0  0  0  0  0  0  0  0  0
   13.0414   60.0343   78.5472 O   0  0  0  0  0  0  0  0  0  0  0  0
   14.9414   56.2343   80.7472 C   0  0  0  0  0  0  0  0  0  0  0  0
   15.3414   58.4343   79.5472 O   0  0  0  0  0  0  0  0  0  0  0  0
   16.0414   57.3343   80.2472 C   0  0  0  0  0  0  0  0  0  0  0  0
   12.4414   56.6343   80.7472 O   0  0  0  0  0  0  0  0  0  0  0  0
   11.6414   58.8343   79.9472 C   0  0  0  0  0  0  0  0  0  0  0  0
   10.6414   58.9343   78.8472 O   0  0  0  0  0  0  0  0  0  0  0  0
   11.3414   57.5343   80.7472 C   0  0  0  0  0  0  0  0  0  0  0  0
   16.8414   57.7343   80.9472 O   0  0  0  0  0  0  0  0  0  0  0  0
   10.1414   56.9343   80.3472 O   0  0  0  0  0  0  0  0  0  0  0  0
   15.4414   55.8343   82.0472 O   0  0  0  0  0  0  0  0  0  0  0  0
  2  1  2  0
  3  1  1  0
  4  3  2  0
  5  2  1  0
  6  1  1  0
  7  5  1  0
  7  6  1  0
  8  2  1  0
  9  3  1  0
 10  9  1  0
 11  8  1  0
 11  9  1  0
 12  7  1  0
 13 11  1  0
 14  5  1  0
M  END
>  <ID>  (1) 
conformer_0

$$$$
