
     RDKit          3D

 14 14  0  0  0  0  0  0  0  0999 V2000
   11.8953   59.7083   79.0170 O   0  0  0  0  0  0  0  0  0  0  0  0
   12.6953   58.8083   79.4170 C   0  0  0  0  0  0  0  0  0  0  0  0
   13.8953   58.2083   79.8170 C   0  0  0  0  0  0  0  0  0  0  0  0
   13.6953   56.9083   80.5170 C   0  0  0  0  0  0  0  0  0  0  0  0
   14.8953   56.3083   80.9170 C   0  0  0  0  0  0  0  0  0  0  0  0
   12.3953   56.5083   80.5170 O   0  0  0  0  0  0  0  0  0  0  0  0
   15.2953   58.3083   79.6170 O   0  0  0  0  0  0  0  0  0  0  0  0
   15.9953   57.2083   80.3170 C   0  0  0  0  0  0  0  0  0  0  0  0
   16.9953   57.6083   80.9170 O   0  0  0  0  0  0  0  0  0  0  0  0
   11.1953   57.1083   80.5170 C   0  0  0  0  0  0  0  0  0  0  0  0
   10.3953   57.9083   79.9170 O   0  0  0  0  0  0  0  0  0  0  0  0
   15.3953   55.8083   82.2170 O   0  0  0  0  0  0  0  0  0  0  0  0
   10.3953   56.7083   81.7170 C   0  0  0  0  0  0  0  0  0  0  0  0
   10.7953   57.5083   82.8170 O   0  0  0  0  0  0  0  0  0  0  0  0
  2  1  2  0
  3  2  2  0
  4  3  1  0
  5  4  1  0
  6  4  1  0
  7  3  1  0
  8  5  1  0
  8  7  1  0
  9  8  1  0
 10  6  1  0
 11 10  2  0
 12  5  1  0
 13 10  1  0
 14 13  1  0
M  END
>  <ID>  (1) 
conformer_0

$$$$
