
     RDKit          3D

 11 12  0  0  0  0  0  0  0  0999 V2000
   11.9327   59.5108   79.1180 O   0  0  0  0  0  0  0  0  0  0  0  0
   12.7327   58.6108   79.8180 C   0  0  0  0  0  0  0  0  0  0  0  0
   14.1327   58.4108   79.8180 C   0  0  0  0  0  0  0  0  0  0  0  0
   14.8327   57.2108   80.3180 C   0  0  0  0  0  0  0  0  0  0  0  0
   16.2327   57.1108   80.1180 C   0  0  0  0  0  0  0  0  0  0  0  0
   15.0327   59.3108   79.1180 O   0  0  0  0  0  0  0  0  0  0  0  0
   12.3327   57.5108   80.7180 C   0  0  0  0  0  0  0  0  0  0  0  0
   14.2327   56.0108   80.8180 O   0  0  0  0  0  0  0  0  0  0  0  0
   17.2327   58.0108   80.3180 O   0  0  0  0  0  0  0  0  0  0  0  0
   12.8327   57.6108   82.0180 O   0  0  0  0  0  0  0  0  0  0  0  0
   12.9327   56.5108   81.2180 C   0  0  0  0  0  0  0  0  0  0  0  0
  2  1  1  0
  3  2  2  0
  4  3  1  0
  5  4  1  0
  6  3  1  0
  7  2  1  0
  8  4  1  0
  9  5  1  0
 10  7  1  0
 11  7  1  0
 11  8  1  0
 11 10  1  0
M  END
>  <ID>  (1) 
conformer_0

$$$$
