
     RDKit          3D

 10 11  0  0  0  0  0  0  0  0999 V2000
   13.8448   58.5049   80.1251 C   0  0  0  0  0  0  0  0  0  0  0  0
   13.8448   57.1049   80.3251 C   0  0  0  0  0  0  0  0  0  0  0  0
   12.7448   59.0049   79.4251 C   0  0  0  0  0  0  0  0  0  0  0  0
   15.0448   56.4049   80.7251 C   0  0  0  0  0  0  0  0  0  0  0  0
   12.6448   56.5049   80.9250 C   0  0  0  0  0  0  0  0  0  0  0  0
   11.6448   57.6049   80.9250 C   0  0  0  0  0  0  0  0  0  0  0  0
   11.4448   58.3049   79.6250 C   0  0  0  0  0  0  0  0  0  0  0  0
   16.3448   56.8049   80.2251 C   0  0  0  0  0  0  0  0  0  0  0  0
   16.4448   58.2049   79.8251 C   0  0  0  0  0  0  0  0  0  0  0  0
   15.1448   58.6049   79.5250 N   0  0  0  0  0  0  0  0  0  0  0  0
  2  1  1  0
  3  1  1  0
  4  2  1  0
  5  2  1  0
  6  5  1  0
  7  3  1  0
  7  6  1  0
  8  4  1  0
  9  8  1  0
 10  1  1  0
 10  9  1  0
M  END
>  <ID>  (1) 
conformer_0

$$$$
