
     RDKit          3D

  7  7  0  0  0  0  0  0  0  0999 V2000
   11.8008   59.2856   79.3369 O   0  0  0  0  0  0  0  0  0  0  0  0
   12.5008   58.2856   79.9369 C   0  0  0  0  0  0  0  0  0  0  0  0
   13.9008   58.2856   80.1369 C   0  0  0  0  0  0  0  0  0  0  0  0
   14.5008   56.9856   80.3369 C   0  0  0  0  0  0  0  0  0  0  0  0
   11.9008   57.1856   80.7369 C   0  0  0  0  0  0  0  0  0  0  0  0
   14.1008   55.9856   81.3369 C   0  0  0  0  0  0  0  0  0  0  0  0
   12.7008   56.3856   81.6369 C   0  0  0  0  0  0  0  0  0  0  0  0
  2  1  1  0
  3  2  1  0
  4  3  1  0
  5  2  2  0
  6  4  1  0
  7  5  1  0
  7  6  1  0
M  END
>  <ID>  (1) 
conformer_0

$$$$
