
     RDKit          3D

 11 11  0  0  0  0  0  0  0  0999 V2000
   11.0455   58.7302   79.0053 O   0  0  0  0  0  0  0  0  0  0  0  0
   12.3455   58.7302   79.6053 C   0  0  0  0  0  0  0  0  0  0  0  0
   13.1455   57.7302   80.2053 C   0  0  0  0  0  0  0  0  0  0  0  0
   14.5455   57.9302   79.9053 C   0  0  0  0  0  0  0  0  0  0  0  0
   15.3455   56.9302   80.6053 C   0  0  0  0  0  0  0  0  0  0  0  0
   12.9455   56.6302   80.9053 O   0  0  0  0  0  0  0  0  0  0  0  0
   14.2455   55.9302   81.1053 C   0  0  0  0  0  0  0  0  0  0  0  0
   16.3455   57.2302   81.5053 O   0  0  0  0  0  0  0  0  0  0  0  0
   14.6455   55.6302   82.5053 C   0  0  0  0  0  0  0  0  0  0  0  0
   13.3455   55.3302   83.1053 O   0  0  0  0  0  0  0  0  0  0  0  0
   14.7455   59.0302   78.9053 O   0  0  0  0  0  0  0  0  0  0  0  0
  2  1  1  0
  3  2  1  0
  4  3  2  0
  5  4  1  0
  6  3  1  0
  7  5  1  0
  7  6  1  0
  8  5  1  0
  9  7  1  0
 10  9  1  0
 11  4  1  0
M  END
>  <ID>  (1) 
conformer_0

$$$$
