
     RDKit          3D

 11 12  0  0  0  0  0  0  0  0999 V2000
   12.9222   58.5803   79.9416 C   0  0  0  0  0  0  0  0  0  0  0  0
   12.3222   59.3803   78.9416 O   0  0  0  0  0  0  0  0  0  0  0  0
   14.2222   57.9803   80.0416 C   0  0  0  0  0  0  0  0  0  0  0  0
   14.4222   56.6803   80.7416 C   0  0  0  0  0  0  0  0  0  0  0  0
   15.8222   56.3803   80.6416 C   0  0  0  0  0  0  0  0  0  0  0  0
   15.4222   58.6803   79.5416 O   0  0  0  0  0  0  0  0  0  0  0  0
   16.4222   57.6803   79.9416 C   0  0  0  0  0  0  0  0  0  0  0  0
   17.4222   58.0803   80.3416 O   0  0  0  0  0  0  0  0  0  0  0  0
   13.0222   56.2803   80.8416 O   0  0  0  0  0  0  0  0  0  0  0  0
   12.1222   57.3803   80.6416 C   0  0  0  0  0  0  0  0  0  0  0  0
   10.8222   57.4803   80.1416 O   0  0  0  0  0  0  0  0  0  0  0  0
  2  1  1  0
  3  1  1  0
  4  3  2  0
  5  4  1  0
  6  3  1  0
  7  5  1  0
  7  6  1  0
  8  7  2  0
  9  4  1  0
 10  1  1  0
 10  9  1  0
 11 10  2  0
M  END
>  <ID>  (1) 
conformer_0

$$$$
