
     RDKit          3D

 13 13  0  0  0  0  0  0  0  0999 V2000
   12.4033   59.8126   78.5232 O   0  0  0  0  0  0  0  0  0  0  0  0
   12.3033   58.8126   79.5232 C   0  0  0  0  0  0  0  0  0  0  0  0
   13.6033   58.3126   79.9232 C   0  0  0  0  0  0  0  0  0  0  0  0
   13.7033   57.0126   80.5232 C   0  0  0  0  0  0  0  0  0  0  0  0
   15.1033   56.7126   80.9232 C   0  0  0  0  0  0  0  0  0  0  0  0
   14.9033   58.8126   79.5232 O   0  0  0  0  0  0  0  0  0  0  0  0
   12.7033   56.2126   80.8232 O   0  0  0  0  0  0  0  0  0  0  0  0
   15.8033   57.7126   79.9232 C   0  0  0  0  0  0  0  0  0  0  0  0
   17.2033   57.6126   79.8232 C   0  0  0  0  0  0  0  0  0  0  0  0
   18.1033   58.6126   79.2232 C   0  0  0  0  0  0  0  0  0  0  0  0
   19.0033   58.3126   78.2232 O   0  0  0  0  0  0  0  0  0  0  0  0
   19.5033   57.0126   78.7232 C   0  0  0  0  0  0  0  0  0  0  0  0
   16.0033   56.9126   82.0232 O   0  0  0  0  0  0  0  0  0  0  0  0
  2  1  1  0
  3  2  1  0
  4  3  1  0
  5  4  1  0
  6  3  1  0
  7  4  1  0
  8  5  1  0
  8  6  1  0
  9  8  2  3
 10  9  1  0
 11 10  1  0
 12 11  1  0
 13  5  1  0
M  END
>  <ID>  (1) 
conformer_0

$$$$
