
     RDKit          3D

 16 17  0  0  0  0  0  0  0  0999 V2000
   10.8464   58.5833   78.8967 O   0  0  0  0  0  0  0  0  0  0  0  0
   12.0464   58.6833   79.6967 C   0  0  0  0  0  0  0  0  0  0  0  0
   12.8464   57.5833   80.2967 C   0  0  0  0  0  0  0  0  0  0  0  0
   14.2464   57.5833   80.1967 C   0  0  0  0  0  0  0  0  0  0  0  0
   15.0464   56.4833   80.7967 C   0  0  0  0  0  0  0  0  0  0  0  0
   12.1464   56.4833   80.7967 O   0  0  0  0  0  0  0  0  0  0  0  0
   12.7464   55.3833   81.3967 C   0  0  0  0  0  0  0  0  0  0  0  0
   14.1464   55.7833   81.6967 C   0  0  0  0  0  0  0  0  0  0  0  0
   12.4464   54.0833   81.4967 O   0  0  0  0  0  0  0  0  0  0  0  0
   14.5464   55.2833   82.8967 O   0  0  0  0  0  0  0  0  0  0  0  0
   14.9464   58.8833   80.3967 O   0  0  0  0  0  0  0  0  0  0  0  0
   16.1464   57.0833   81.4967 O   0  0  0  0  0  0  0  0  0  0  0  0
   14.3464   59.7833   79.3967 C   0  0  0  0  0  0  0  0  0  0  0  0
   12.9464   59.7833   79.2967 C   0  0  0  0  0  0  0  0  0  0  0  0
   12.3464   60.8833   78.7967 O   0  0  0  0  0  0  0  0  0  0  0  0
   15.0464   60.9833   79.1967 O   0  0  0  0  0  0  0  0  0  0  0  0
  2  1  1  0
  3  2  1  0
  4  3  1  0
  5  4  1  0
  6  3  1  0
  7  6  1  0
  8  5  1  0
  8  7  1  0
  9  7  2  0
 10  8  1  0
 11  4  1  0
 12  5  1  0
 13 11  1  0
 14  2  1  0
 14 13  1  0
 15 14  1  0
 16 13  2  0
M  END
>  <ID>  (1) 
conformer_0

$$$$
