
     RDKit          3D

 10 10  0  0  0  0  0  0  0  0999 V2000
   13.9414   58.2343   79.8472 C   0  0  0  0  0  0  0  0  0  0  0  0
   13.7414   57.0343   80.5472 C   0  0  0  0  0  0  0  0  0  0  0  0
   12.9414   59.1343   79.4472 C   0  0  0  0  0  0  0  0  0  0  0  0
   13.0414   60.0343   78.5472 O   0  0  0  0  0  0  0  0  0  0  0  0
   14.7414   56.2343   81.1472 C   0  0  0  0  0  0  0  0  0  0  0  0
   12.4414   56.4343   80.8472 O   0  0  0  0  0  0  0  0  0  0  0  0
   11.3414   57.3343   80.4472 C   0  0  0  0  0  0  0  0  0  0  0  0
   11.6414   58.7343   80.0472 C   0  0  0  0  0  0  0  0  0  0  0  0
   10.6414   59.0343   79.1472 O   0  0  0  0  0  0  0  0  0  0  0  0
   14.0414   55.0343   81.6472 O   0  0  0  0  0  0  0  0  0  0  0  0
  2  1  2  0
  3  1  1  0
  4  3  2  0
  5  2  1  0
  6  2  1  0
  7  6  1  0
  8  3  1  0
  8  7  1  0
  9  8  1  0
 10  5  1  0
M  END
>  <ID>  (1) 
conformer_0

$$$$
