
     RDKit          3D

 14 17  0  0  0  0  0  0  0  0999 V2000
   12.9421   59.1539   79.6925 C   0  0  0  0  0  0  0  0  0  0  0  0
   12.8421   59.8539   78.3925 O   0  0  0  0  0  0  0  0  0  0  0  0
   13.9421   58.1539   79.9925 C   0  0  0  0  0  0  0  0  0  0  0  0
   13.6421   57.0539   80.8925 C   0  0  0  0  0  0  0  0  0  0  0  0
   14.7421   56.1539   81.1925 C   0  0  0  0  0  0  0  0  0  0  0  0
   15.2421   58.0539   79.4925 O   0  0  0  0  0  0  0  0  0  0  0  0
   16.3421   57.5539   80.0925 C   0  0  0  0  0  0  0  0  0  0  0  0
   16.7421   57.5539   81.1925 O   0  0  0  0  0  0  0  0  0  0  0  0
   15.9421   56.3539   80.7925 C   0  0  0  0  0  0  0  0  0  0  0  0
   12.3421   56.4539   80.6925 O   0  0  0  0  0  0  0  0  0  0  0  0
   11.7421   58.8539   80.3925 C   0  0  0  0  0  0  0  0  0  0  0  0
   10.5421   58.4539   79.5925 O   0  0  0  0  0  0  0  0  0  0  0  0
   11.3421   57.4539   80.2925 C   0  0  0  0  0  0  0  0  0  0  0  0
   14.3421   55.2539   82.1925 O   0  0  0  0  0  0  0  0  0  0  0  0
  2  1  1  0
  3  1  1  0
  4  3  1  0
  5  4  1  0
  6  3  1  0
  7  6  1  0
  8  7  1  0
  9  5  1  0
  9  7  1  0
  9  8  1  0
 10  4  1  0
 11  1  1  0
 12 11  1  0
 13 10  1  0
 13 11  1  0
 13 12  1  0
 14  5  1  0
M  END
>  <ID>  (1) 
conformer_0

$$$$
