
     RDKit          3D

 16 17  0  0  0  0  0  0  0  0999 V2000
   13.9414   58.2343   79.8472 C   0  0  0  0  0  0  0  0  0  0  0  0
   13.7414   57.0343   80.5472 C   0  0  0  0  0  0  0  0  0  0  0  0
   12.9414   59.1343   79.4472 C   0  0  0  0  0  0  0  0  0  0  0  0
   13.0414   59.9343   78.2472 O   0  0  0  0  0  0  0  0  0  0  0  0
   15.0414   56.4343   80.9472 C   0  0  0  0  0  0  0  0  0  0  0  0
   15.2414   58.4343   79.5472 O   0  0  0  0  0  0  0  0  0  0  0  0
   16.0414   57.4343   80.2472 C   0  0  0  0  0  0  0  0  0  0  0  0
   12.5414   56.4343   80.7472 O   0  0  0  0  0  0  0  0  0  0  0  0
   17.1414   57.9343   80.4472 O   0  0  0  0  0  0  0  0  0  0  0  0
   12.3414   55.5343   81.8472 C   0  0  0  0  0  0  0  0  0  0  0  0
   13.3414   55.4343   82.7472 O   0  0  0  0  0  0  0  0  0  0  0  0
   14.6414   55.5343   83.1472 C   0  0  0  0  0  0  0  0  0  0  0  0
   15.5414   56.4343   83.5472 C   0  0  0  0  0  0  0  0  0  0  0  0
   11.0414   54.9343   82.1472 C   0  0  0  0  0  0  0  0  0  0  0  0
   14.5414   57.5343   81.7472 O   0  0  0  0  0  0  0  0  0  0  0  0
   10.0414   55.5343   81.2472 O   0  0  0  0  0  0  0  0  0  0  0  0
  2  1  1  0
  3  1  1  0
  4  3  1  0
  5  2  1  0
  6  1  1  0
  7  5  1  0
  7  6  1  0
  8  2  1  0
  9  7  2  0
 10  8  1  0
 11 10  1  0
 12 11  1  0
 13 12  2  0
 14 10  1  0
 15  2  1  0
 15  5  1  0
 16 14  1  0
M  END
>  <ID>  (1) 
conformer_0

$$$$
