
     RDKit          3D

 14 15  0  0  0  0  0  0  0  0999 V2000
   12.2048   59.3949   78.9430 O   0  0  0  0  0  0  0  0  0  0  0  0
   11.9048   58.2949   79.7430 C   0  0  0  0  0  0  0  0  0  0  0  0
   13.1048   57.5949   80.2430 C   0  0  0  0  0  0  0  0  0  0  0  0
   14.4048   58.0949   79.9430 C   0  0  0  0  0  0  0  0  0  0  0  0
   15.5048   57.1949   80.2430 C   0  0  0  0  0  0  0  0  0  0  0  0
   13.1048   56.3949   80.8430 O   0  0  0  0  0  0  0  0  0  0  0  0
   14.1048   55.9949   81.8430 C   0  0  0  0  0  0  0  0  0  0  0  0
   15.5048   56.3949   81.4430 C   0  0  0  0  0  0  0  0  0  0  0  0
   13.7048   55.3949   83.0430 O   0  0  0  0  0  0  0  0  0  0  0  0
   14.9048   54.8949   83.7430 C   0  0  0  0  0  0  0  0  0  0  0  0
   16.0048   56.8949   82.7430 O   0  0  0  0  0  0  0  0  0  0  0  0
   15.6048   56.1949   83.8430 C   0  0  0  0  0  0  0  0  0  0  0  0
   14.7048   59.0949   78.9430 O   0  0  0  0  0  0  0  0  0  0  0  0
   16.7048   57.4949   79.6430 O   0  0  0  0  0  0  0  0  0  0  0  0
  2  1  1  0
  3  2  1  0
  4  3  1  0
  5  4  1  0
  6  3  1  0
  7  6  1  0
  8  5  1  0
  8  7  1  0
  9  7  1  0
 10  9  1  0
 11  8  1  0
 12 10  1  0
 12 11  1  0
 13  4  1  0
 14  5  1  0
M  END
>  <ID>  (1) 
conformer_0

$$$$
