
     RDKit          3D

  6  5  0  0  0  0  0  0  0  0999 V2000
   12.4096   58.5159   79.8682 C   0  0  0  0  0  0  0  0  0  0  0  0
   13.6096   58.0159   80.0682 C   0  0  0  0  0  0  0  0  0  0  0  0
   12.1096   59.4159   78.9682 O   0  0  0  0  0  0  0  0  0  0  0  0
   14.2096   56.8159   80.5682 C   0  0  0  0  0  0  0  0  0  0  0  0
   15.6096   56.5159   80.5682 C   0  0  0  0  0  0  0  0  0  0  0  0
   16.5096   57.4159   79.8682 C   0  0  0  0  0  0  0  0  0  0  0  0
  2  1  1  0
  3  1  1  0
  4  2  2  3
  5  4  1  0
  6  5  1  0
M  END
>  <ID>  (1) 
conformer_0

$$$$
