
     RDKit          3D

 11 12  0  0  0  0  0  0  0  0999 V2000
   11.9327   59.5108   79.1180 O   0  0  0  0  0  0  0  0  0  0  0  0
   12.7327   58.6108   79.8180 C   0  0  0  0  0  0  0  0  0  0  0  0
   14.1327   58.4108   79.8180 C   0  0  0  0  0  0  0  0  0  0  0  0
   14.7327   57.2108   80.3180 C   0  0  0  0  0  0  0  0  0  0  0  0
   16.1327   56.9108   80.3180 C   0  0  0  0  0  0  0  0  0  0  0  0
   12.2327   57.5108   80.6180 C   0  0  0  0  0  0  0  0  0  0  0  0
   15.0327   59.0108   78.8180 O   0  0  0  0  0  0  0  0  0  0  0  0
   14.1327   56.1108   80.9180 O   0  0  0  0  0  0  0  0  0  0  0  0
   16.9327   58.1108   80.5180 O   0  0  0  0  0  0  0  0  0  0  0  0
   12.5327   57.5108   82.0180 O   0  0  0  0  0  0  0  0  0  0  0  0
   12.8327   56.5108   81.1180 C   0  0  0  0  0  0  0  0  0  0  0  0
  2  1  1  0
  3  2  2  0
  4  3  1  0
  5  4  1  0
  6  2  1  0
  7  3  1  0
  8  4  1  0
  9  5  1  0
 10  6  1  0
 11  6  2  0
 11  8  1  0
 11 10  1  0
M  END
>  <ID>  (1) 
conformer_0

$$$$
