
     RDKit          3D

 13 14  0  0  0  0  0  0  0  0999 V2000
   12.2048   59.3949   78.9430 O   0  0  0  0  0  0  0  0  0  0  0  0
   11.9048   58.2949   79.7430 C   0  0  0  0  0  0  0  0  0  0  0  0
   13.1048   57.5949   80.2430 C   0  0  0  0  0  0  0  0  0  0  0  0
   14.4048   58.0949   79.9430 C   0  0  0  0  0  0  0  0  0  0  0  0
   15.5048   57.1949   80.2430 C   0  0  0  0  0  0  0  0  0  0  0  0
   13.1048   56.3949   80.8430 O   0  0  0  0  0  0  0  0  0  0  0  0
   14.1048   55.9949   81.8430 C   0  0  0  0  0  0  0  0  0  0  0  0
   15.4048   56.6949   81.7430 C   0  0  0  0  0  0  0  0  0  0  0  0
   16.7048   57.8949   80.0430 O   0  0  0  0  0  0  0  0  0  0  0  0
   13.9048   58.5949   81.1430 O   0  0  0  0  0  0  0  0  0  0  0  0
   15.9048   57.3949   82.7430 O   0  0  0  0  0  0  0  0  0  0  0  0
   13.6048   54.9949   82.7430 C   0  0  0  0  0  0  0  0  0  0  0  0
   12.2048   55.2948   83.1430 O   0  0  0  0  0  0  0  0  0  0  0  0
  2  1  1  0
  3  2  1  0
  4  3  1  0
  5  4  1  0
  6  3  1  0
  7  6  1  0
  8  5  1  0
  8  7  1  0
  9  5  1  0
 10  3  1  0
 10  4  1  0
 11  8  1  0
 12  7  1  0
 13 12  1  0
M  END
>  <ID>  (1) 
conformer_0

$$$$
