
     RDKit          3D

 11 11  0  0  0  0  0  0  0  0999 V2000
   12.4419   60.0948   79.0863 O   0  0  0  0  0  0  0  0  0  0  0  0
   12.7419   58.7948   79.5863 C   0  0  0  0  0  0  0  0  0  0  0  0
   14.1419   58.3948   79.8863 C   0  0  0  0  0  0  0  0  0  0  0  0
   14.2419   57.0948   80.4863 C   0  0  0  0  0  0  0  0  0  0  0  0
   15.4419   56.4948   80.6863 C   0  0  0  0  0  0  0  0  0  0  0  0
   12.9419   56.5948   80.8863 O   0  0  0  0  0  0  0  0  0  0  0  0
   11.9419   57.5948   80.4863 C   0  0  0  0  0  0  0  0  0  0  0  0
   15.1419   58.8948   78.9863 O   0  0  0  0  0  0  0  0  0  0  0  0
   16.4419   57.4948   81.1863 O   0  0  0  0  0  0  0  0  0  0  0  0
   10.7419   57.9948   80.9863 C   0  0  0  0  0  0  0  0  0  0  0  0
   10.2419   59.0948   80.2863 O   0  0  0  0  0  0  0  0  0  0  0  0
  2  1  1  0
  3  2  1  0
  4  3  1  0
  5  4  1  0
  6  4  1  0
  7  2  1  0
  7  6  1  0
  8  3  1  0
  9  5  1  0
 10  7  1  0
 11 10  1  0
M  END
>  <ID>  (1) 
conformer_0

$$$$
