
     RDKit          3D

 11 11  0  0  0  0  0  0  0  0999 V2000
   14.0450   58.0739   79.9211 C   0  0  0  0  0  0  0  0  0  0  0  0
   15.1450   57.1739   80.3211 C   0  0  0  0  0  0  0  0  0  0  0  0
   12.9450   58.2739   80.8211 C   0  0  0  0  0  0  0  0  0  0  0  0
   14.5450   56.3739   81.4211 C   0  0  0  0  0  0  0  0  0  0  0  0
   12.2450   56.9739   80.8211 C   0  0  0  0  0  0  0  0  0  0  0  0
   13.1450   55.9739   81.2211 C   0  0  0  0  0  0  0  0  0  0  0  0
   12.0450   59.2739   80.3211 O   0  0  0  0  0  0  0  0  0  0  0  0
   10.6450   59.0739   80.8211 C   0  0  0  0  0  0  0  0  0  0  0  0
    9.9450   57.8739   80.3211 C   0  0  0  0  0  0  0  0  0  0  0  0
   15.3450   55.5739   82.2211 O   0  0  0  0  0  0  0  0  0  0  0  0
   15.0450   55.0739   83.5211 C   0  0  0  0  0  0  0  0  0  0  0  0
  2  1  1  0
  3  1  1  0
  4  2  1  0
  5  3  1  0
  6  4  1  0
  6  5  1  0
  7  3  1  0
  8  7  1  0
  9  8  1  0
 10  4  1  0
 11 10  1  0
M  END
>  <ID>  (1) 
conformer_0

$$$$
