
     RDKit          3D

  9 10  0  0  0  0  0  0  0  0999 V2000
   12.4419   60.0948   79.0863 O   0  0  0  0  0  0  0  0  0  0  0  0
   12.7419   58.7948   79.5863 C   0  0  0  0  0  0  0  0  0  0  0  0
   14.1419   58.3948   79.7863 C   0  0  0  0  0  0  0  0  0  0  0  0
   11.9419   58.4948   80.7863 C   0  0  0  0  0  0  0  0  0  0  0  0
   14.0419   57.0948   80.4863 C   0  0  0  0  0  0  0  0  0  0  0  0
   12.9419   57.2948   81.4863 C   0  0  0  0  0  0  0  0  0  0  0  0
   12.9419   56.3948   80.4863 O   0  0  0  0  0  0  0  0  0  0  0  0
   10.7419   57.7948   80.3863 O   0  0  0  0  0  0  0  0  0  0  0  0
   15.0419   58.9948   78.9863 O   0  0  0  0  0  0  0  0  0  0  0  0
  2  1  1  0
  3  2  1  0
  4  2  1  0
  5  3  1  0
  6  4  1  0
  6  5  1  0
  7  5  1  0
  7  6  1  0
  8  4  1  0
  9  3  1  0
M  END
>  <ID>  (1) 
conformer_0

$$$$
