
     RDKit          3D

 13 15  0  0  0  0  0  0  0  0999 V2000
   14.1626   58.2956   80.0285 C   0  0  0  0  0  0  0  0  0  0  0  0
   13.7626   56.9956   80.5285 C   0  0  0  0  0  0  0  0  0  0  0  0
   12.3626   56.7956   80.6284 O   0  0  0  0  0  0  0  0  0  0  0  0
   12.9626   58.8956   79.5285 C   0  0  0  0  0  0  0  0  0  0  0  0
   12.6626   59.8956   78.7284 O   0  0  0  0  0  0  0  0  0  0  0  0
   11.7626   57.9956   80.1284 C   0  0  0  0  0  0  0  0  0  0  0  0
   14.8626   56.1956   81.0285 C   0  0  0  0  0  0  0  0  0  0  0  0
   16.1626   56.6956   80.5285 C   0  0  0  0  0  0  0  0  0  0  0  0
   15.3626   58.5956   79.4285 O   0  0  0  0  0  0  0  0  0  0  0  0
   16.5626   57.8956   79.8285 C   0  0  0  0  0  0  0  0  0  0  0  0
   10.5626   58.5956   80.1284 O   0  0  0  0  0  0  0  0  0  0  0  0
   15.1626   55.7956   82.4285 O   0  0  0  0  0  0  0  0  0  0  0  0
   16.6626   57.7956   81.2285 O   0  0  0  0  0  0  0  0  0  0  0  0
  2  1  1  0
  3  2  1  0
  4  1  2  0
  5  4  1  0
  6  3  1  0
  6  4  1  0
  7  2  1  0
  8  7  1  0
  9  1  1  0
 10  8  1  0
 10  9  1  0
 11  6  2  0
 12  7  1  0
 13  8  1  0
 13 10  1  0
M  END
>  <ID>  (1) 
conformer_0

$$$$
