
     RDKit          3D

 12 12  0  0  0  0  0  0  0  0999 V2000
   11.0455   58.7302   79.0053 O   0  0  0  0  0  0  0  0  0  0  0  0
   12.3455   58.7302   79.6053 C   0  0  0  0  0  0  0  0  0  0  0  0
   13.1455   57.8302   80.2053 C   0  0  0  0  0  0  0  0  0  0  0  0
   14.5455   57.6302   79.9053 C   0  0  0  0  0  0  0  0  0  0  0  0
   12.4455   56.7302   80.8053 O   0  0  0  0  0  0  0  0  0  0  0  0
   13.4455   55.9302   81.5053 C   0  0  0  0  0  0  0  0  0  0  0  0
   14.4455   56.5302   82.1053 C   0  0  0  0  0  0  0  0  0  0  0  0
   15.4455   56.3302   83.2053 C   0  0  0  0  0  0  0  0  0  0  0  0
   15.8455   57.1302   84.1053 O   0  0  0  0  0  0  0  0  0  0  0  0
   15.2455   57.5302   81.2053 O   0  0  0  0  0  0  0  0  0  0  0  0
   14.9455   58.9302   79.3053 C   0  0  0  0  0  0  0  0  0  0  0  0
   14.2455   59.6302   78.2053 O   0  0  0  0  0  0  0  0  0  0  0  0
  2  1  1  0
  3  2  1  0
  4  3  1  0
  5  3  1  0
  6  5  1  0
  7  6  1  0
  8  7  1  0
  9  8  2  0
 10  4  1  0
 10  7  1  0
 11  4  1  0
 12 11  1  0
M  END
>  <ID>  (1) 
conformer_0

$$$$
