
     RDKit          3D

 15 16  0  0  0  0  0  0  0  0999 V2000
   12.1216   59.4221   78.7082 O   0  0  0  0  0  0  0  0  0  0  0  0
   12.5216   58.5221   79.7082 C   0  0  0  0  0  0  0  0  0  0  0  0
   13.9216   58.1221   79.9082 C   0  0  0  0  0  0  0  0  0  0  0  0
   14.2216   56.8221   80.5082 C   0  0  0  0  0  0  0  0  0  0  0  0
   15.6216   56.6221   80.8082 C   0  0  0  0  0  0  0  0  0  0  0  0
   15.1216   58.6221   79.3082 O   0  0  0  0  0  0  0  0  0  0  0  0
   16.2216   57.8221   79.9082 C   0  0  0  0  0  0  0  0  0  0  0  0
   17.4216   58.1221   80.4082 O   0  0  0  0  0  0  0  0  0  0  0  0
   13.0216   56.3221   80.9082 O   0  0  0  0  0  0  0  0  0  0  0  0
   11.9216   56.9221   81.6082 C   0  0  0  0  0  0  0  0  0  0  0  0
   11.4216   57.9221   80.6082 C   0  0  0  0  0  0  0  0  0  0  0  0
   10.4216   58.8221   81.0082 O   0  0  0  0  0  0  0  0  0  0  0  0
    9.1216   59.2221   80.8082 C   0  0  0  0  0  0  0  0  0  0  0  0
   15.9216   56.9221   82.2082 O   0  0  0  0  0  0  0  0  0  0  0  0
   11.2216   56.9221   82.6082 O   0  0  0  0  0  0  0  0  0  0  0  0
  2  1  1  0
  3  2  1  0
  4  3  1  0
  5  4  1  0
  6  3  1  0
  7  5  1  0
  7  6  1  0
  8  7  2  0
  9  4  1  0
 10  9  1  0
 11  2  1  0
 11 10  1  0
 12 11  1  0
 13 12  1  0
 14  5  1  0
 15 10  2  0
M  END
>  <ID>  (1) 
conformer_0

$$$$
