
     RDKit          3D

 16 16  0  0  0  0  0  0  0  0999 V2000
   12.4033   59.8126   78.5232 O   0  0  0  0  0  0  0  0  0  0  0  0
   12.3033   58.8126   79.5232 C   0  0  0  0  0  0  0  0  0  0  0  0
   13.6033   58.3126   79.9232 C   0  0  0  0  0  0  0  0  0  0  0  0
   13.7033   57.0126   80.5232 C   0  0  0  0  0  0  0  0  0  0  0  0
   15.1033   56.7126   80.9232 C   0  0  0  0  0  0  0  0  0  0  0  0
   14.8033   58.8126   79.4232 O   0  0  0  0  0  0  0  0  0  0  0  0
   12.7033   56.2126   81.0232 O   0  0  0  0  0  0  0  0  0  0  0  0
   13.2033   55.4126   82.1232 C   0  0  0  0  0  0  0  0  0  0  0  0
   16.3033   57.1126   80.2232 C   0  0  0  0  0  0  0  0  0  0  0  0
   16.1033   58.5126   79.7232 C   0  0  0  0  0  0  0  0  0  0  0  0
   17.2033   58.9126   78.8232 O   0  0  0  0  0  0  0  0  0  0  0  0
   18.4033   58.1126   79.1232 C   0  0  0  0  0  0  0  0  0  0  0  0
   15.4033   56.1126   82.2232 O   0  0  0  0  0  0  0  0  0  0  0  0
   12.7033   55.4126   83.3232 O   0  0  0  0  0  0  0  0  0  0  0  0
   17.4033   56.3126   80.2232 O   0  0  0  0  0  0  0  0  0  0  0  0
   13.1033   54.2126   81.5232 O   0  0  0  0  0  0  0  0  0  0  0  0
  2  1  1  0
  3  2  1  0
  4  3  1  0
  5  4  2  0
  6  3  1  0
  7  4  1  0
  8  7  1  0
  9  5  1  0
 10  6  1  0
 10  9  2  0
 11 10  1  0
 12 11  1  0
 13  5  1  0
 14  8  1  0
 15  9  1  0
 16  8  1  0
M  END
>  <ID>  (1) 
conformer_0

$$$$
