
     RDKit          3D

 13 15  0  0  0  0  0  0  0  0999 V2000
   12.8022   58.5076   79.8822 C   0  0  0  0  0  0  0  0  0  0  0  0
   13.7022   57.4076   80.2822 C   0  0  0  0  0  0  0  0  0  0  0  0
   11.4022   58.3076   79.8822 O   0  0  0  0  0  0  0  0  0  0  0  0
   15.0022   57.6076   79.8822 C   0  0  0  0  0  0  0  0  0  0  0  0
   13.0022   56.4076   80.9822 C   0  0  0  0  0  0  0  0  0  0  0  0
   13.4022   59.5076   78.9822 C   0  0  0  0  0  0  0  0  0  0  0  0
   16.1022   56.8076   80.3822 C   0  0  0  0  0  0  0  0  0  0  0  0
   15.5022   56.3076   81.5822 C   0  0  0  0  0  0  0  0  0  0  0  0
   14.2022   55.8076   81.9822 C   0  0  0  0  0  0  0  0  0  0  0  0
   14.8022   57.2076   82.4822 O   0  0  0  0  0  0  0  0  0  0  0  0
   10.7022   57.7076   80.8822 C   0  0  0  0  0  0  0  0  0  0  0  0
    9.3022   57.2076   80.8822 C   0  0  0  0  0  0  0  0  0  0  0  0
   11.7022   56.9076   81.5822 O   0  0  0  0  0  0  0  0  0  0  0  0
  2  1  1  0
  3  1  1  0
  4  2  2  0
  5  2  1  0
  6  1  1  0
  7  4  1  0
  8  7  1  0
  9  5  1  0
  9  8  1  0
 10  8  1  0
 10  9  1  0
 11  3  1  0
 12 11  1  0
 13  5  1  0
 13 11  1  0
M  END
>  <ID>  (1) 
conformer_0

$$$$
