
     RDKit          3D

 11 12  0  0  0  0  0  0  0  0999 V2000
   14.1626   58.2956   80.0285 C   0  0  0  0  0  0  0  0  0  0  0  0
   14.5626   56.8956   80.3285 C   0  0  0  0  0  0  0  0  0  0  0  0
   12.7626   58.4956   79.8285 C   0  0  0  0  0  0  0  0  0  0  0  0
   12.1626   59.3956   78.9285 O   0  0  0  0  0  0  0  0  0  0  0  0
   15.9626   56.5956   80.4285 C   0  0  0  0  0  0  0  0  0  0  0  0
   15.3626   58.7956   79.3285 O   0  0  0  0  0  0  0  0  0  0  0  0
   16.5626   57.9956   79.7285 C   0  0  0  0  0  0  0  0  0  0  0  0
   17.7626   58.0956   80.2285 O   0  0  0  0  0  0  0  0  0  0  0  0
   13.3626   56.2956   80.8285 O   0  0  0  0  0  0  0  0  0  0  0  0
   12.1626   57.0956   80.4285 C   0  0  0  0  0  0  0  0  0  0  0  0
   10.9626   56.8956   80.0285 O   0  0  0  0  0  0  0  0  0  0  0  0
  2  1  1  0
  3  1  1  0
  4  3  1  0
  5  2  1  0
  6  1  1  0
  7  5  1  0
  7  6  1  0
  8  7  2  0
  9  2  1  0
 10  3  1  0
 10  9  1  0
 11 10  2  0
M  END
>  <ID>  (1) 
conformer_0

$$$$
