
     RDKit          3D

 12 12  0  0  0  0  0  0  0  0999 V2000
   12.1216   59.4221   78.7082 O   0  0  0  0  0  0  0  0  0  0  0  0
   12.5216   58.5221   79.7082 C   0  0  0  0  0  0  0  0  0  0  0  0
   13.9216   58.2221   79.9082 C   0  0  0  0  0  0  0  0  0  0  0  0
   14.2216   56.9221   80.4082 C   0  0  0  0  0  0  0  0  0  0  0  0
   15.6216   56.6221   80.8082 C   0  0  0  0  0  0  0  0  0  0  0  0
   15.0216   58.8221   79.4082 O   0  0  0  0  0  0  0  0  0  0  0  0
   13.0216   56.3221   80.8082 O   0  0  0  0  0  0  0  0  0  0  0  0
   11.9216   57.2221   80.5082 C   0  0  0  0  0  0  0  0  0  0  0  0
   16.5216   57.5221   81.2082 O   0  0  0  0  0  0  0  0  0  0  0  0
   10.7216   57.1221   80.2082 O   0  0  0  0  0  0  0  0  0  0  0  0
   16.3216   59.1221   79.1082 C   0  0  0  0  0  0  0  0  0  0  0  0
   16.7216   60.2221   79.9082 O   0  0  0  0  0  0  0  0  0  0  0  0
  2  1  1  0
  3  2  1  0
  4  3  1  0
  5  4  1  0
  6  3  1  0
  7  4  1  0
  8  2  1  0
  8  7  1  0
  9  5  1  0
 10  8  2  0
 11  6  1  0
 12 11  1  0
M  END
>  <ID>  (1) 
conformer_0

$$$$
