
     RDKit          3D

 16 17  0  0  0  0  0  0  0  0999 V2000
   14.1626   58.2956   80.0285 C   0  0  0  0  0  0  0  0  0  0  0  0
   12.7626   58.6956   79.7284 C   0  0  0  0  0  0  0  0  0  0  0  0
   12.6626   59.6956   78.6284 O   0  0  0  0  0  0  0  0  0  0  0  0
   14.2626   56.9956   80.7284 C   0  0  0  0  0  0  0  0  0  0  0  0
   15.5626   56.4956   80.7284 C   0  0  0  0  0  0  0  0  0  0  0  0
   15.2626   58.5956   79.3285 O   0  0  0  0  0  0  0  0  0  0  0  0
   13.1626   56.1956   80.9284 O   0  0  0  0  0  0  0  0  0  0  0  0
   11.6626   57.9956   80.4284 C   0  0  0  0  0  0  0  0  0  0  0  0
   11.8626   56.7956   81.1284 C   0  0  0  0  0  0  0  0  0  0  0  0
   16.6626   57.3956   81.1284 O   0  0  0  0  0  0  0  0  0  0  0  0
   10.4626   58.5956   80.5284 O   0  0  0  0  0  0  0  0  0  0  0  0
   10.9626   55.7956   80.9284 O   0  0  0  0  0  0  0  0  0  0  0  0
    9.4626   57.5956   80.8284 C   0  0  0  0  0  0  0  0  0  0  0  0
    9.7626   56.2956   80.2284 C   0  0  0  0  0  0  0  0  0  0  0  0
   16.4626   59.0956   79.2285 C   0  0  0  0  0  0  0  0  0  0  0  0
   16.8626   60.1956   79.7285 O   0  0  0  0  0  0  0  0  0  0  0  0
  2  1  1  0
  3  2  1  0
  4  1  1  0
  5  4  1  0
  6  1  1  0
  7  4  1  0
  8  2  1  0
  9  7  1  0
  9  8  1  0
 10  5  1  0
 11  8  1  0
 12  9  1  0
 13 11  1  0
 14 12  1  0
 14 13  1  0
 15  6  1  0
 16 15  2  0
M  END
>  <ID>  (1) 
conformer_0

$$$$
