
     RDKit          3D

 14 14  0  0  0  0  0  0  0  0999 V2000
   11.9980   59.4258   78.6191 O   0  0  0  0  0  0  0  0  0  0  0  0
   12.4980   58.7258   79.7191 C   0  0  0  0  0  0  0  0  0  0  0  0
   13.8980   58.3258   79.8191 C   0  0  0  0  0  0  0  0  0  0  0  0
   14.1980   57.0258   80.3191 C   0  0  0  0  0  0  0  0  0  0  0  0
   15.5980   56.7258   80.5191 C   0  0  0  0  0  0  0  0  0  0  0  0
   13.0980   56.4258   80.9191 O   0  0  0  0  0  0  0  0  0  0  0  0
   11.9980   57.0258   81.5191 C   0  0  0  0  0  0  0  0  0  0  0  0
   11.5980   58.2258   80.7191 C   0  0  0  0  0  0  0  0  0  0  0  0
   10.1980   58.6258   80.9191 O   0  0  0  0  0  0  0  0  0  0  0  0
   16.3980   57.4258   81.4191 O   0  0  0  0  0  0  0  0  0  0  0  0
   14.9980   59.0258   79.3191 O   0  0  0  0  0  0  0  0  0  0  0  0
   11.3980   56.7258   82.6191 O   0  0  0  0  0  0  0  0  0  0  0  0
    9.6980   59.8258   81.2191 C   0  0  0  0  0  0  0  0  0  0  0  0
    8.8980   60.4258   82.2191 O   0  0  0  0  0  0  0  0  0  0  0  0
  2  1  1  0
  3  2  1  0
  4  3  2  0
  5  4  1  0
  6  4  1  0
  7  6  1  0
  8  2  1  0
  8  7  1  0
  9  8  1  0
 10  5  1  0
 11  3  1  0
 12  7  2  0
 13  9  1  0
 14 13  1  0
M  END
>  <ID>  (1) 
conformer_0

$$$$
