
     RDKit          3D

 10 10  0  0  0  0  0  0  0  0999 V2000
   11.8953   59.7083   79.0170 O   0  0  0  0  0  0  0  0  0  0  0  0
   12.5953   58.6083   79.5170 C   0  0  0  0  0  0  0  0  0  0  0  0
   13.8953   58.4083   79.9170 C   0  0  0  0  0  0  0  0  0  0  0  0
   14.1953   57.0083   80.3170 C   0  0  0  0  0  0  0  0  0  0  0  0
   12.8953   56.5083   80.7170 O   0  0  0  0  0  0  0  0  0  0  0  0
   11.7953   57.4083   80.4170 C   0  0  0  0  0  0  0  0  0  0  0  0
   15.4953   56.6083   80.7170 C   0  0  0  0  0  0  0  0  0  0  0  0
   15.0953   59.0083   79.7170 O   0  0  0  0  0  0  0  0  0  0  0  0
   16.4953   57.4083   81.2170 O   0  0  0  0  0  0  0  0  0  0  0  0
   10.5953   57.5083   80.1170 O   0  0  0  0  0  0  0  0  0  0  0  0
  2  1  1  0
  3  2  1  0
  4  3  1  0
  5  4  1  0
  6  2  1  0
  6  5  1  0
  7  4  1  0
  8  3  1  0
  9  7  1  0
 10  6  2  0
M  END
>  <ID>  (1) 
conformer_0

$$$$
