
     RDKit          3D

 16 16  0  0  0  0  0  0  0  0999 V2000
   12.4033   59.8126   78.5232 O   0  0  0  0  0  0  0  0  0  0  0  0
   12.3033   58.8126   79.5232 C   0  0  0  0  0  0  0  0  0  0  0  0
   13.6033   58.3126   79.9232 C   0  0  0  0  0  0  0  0  0  0  0  0
   13.7033   57.0126   80.5232 C   0  0  0  0  0  0  0  0  0  0  0  0
   15.1033   56.7126   80.9232 C   0  0  0  0  0  0  0  0  0  0  0  0
   14.8033   58.8126   79.4232 O   0  0  0  0  0  0  0  0  0  0  0  0
   12.7033   56.2126   81.0232 O   0  0  0  0  0  0  0  0  0  0  0  0
   13.2033   55.4126   82.1232 C   0  0  0  0  0  0  0  0  0  0  0  0
   14.4033   55.5126   82.9232 C   0  0  0  0  0  0  0  0  0  0  0  0
   15.4033   56.4126   82.3232 C   0  0  0  0  0  0  0  0  0  0  0  0
   14.3033   55.4126   84.3232 O   0  0  0  0  0  0  0  0  0  0  0  0
   12.0033   55.1126   82.9232 O   0  0  0  0  0  0  0  0  0  0  0  0
   16.0033   57.3126   83.3232 O   0  0  0  0  0  0  0  0  0  0  0  0
   16.2033   56.9126   80.0232 O   0  0  0  0  0  0  0  0  0  0  0  0
   15.0033   60.2126   79.4232 C   0  0  0  0  0  0  0  0  0  0  0  0
   14.7033   61.4126   79.4232 O   0  0  0  0  0  0  0  0  0  0  0  0
  2  1  1  0
  3  2  1  0
  4  3  1  0
  5  4  1  0
  6  3  1  0
  7  4  1  0
  8  7  1  0
  9  8  1  0
 10  5  1  0
 10  9  1  0
 11  9  1  0
 12  8  2  0
 13 10  1  0
 14  5  1  0
 15  6  1  0
 16 15  1  0
M  END
>  <ID>  (1) 
conformer_0

$$$$
