
     RDKit          3D

 12 13  0  0  0  0  0  0  0  0999 V2000
   13.8403   57.9482   79.9181 C   0  0  0  0  0  0  0  0  0  0  0  0
   14.6403   56.9482   80.5181 C   0  0  0  0  0  0  0  0  0  0  0  0
   16.0403   57.1482   80.1180 C   0  0  0  0  0  0  0  0  0  0  0  0
   14.6403   59.0482   79.3181 C   0  0  0  0  0  0  0  0  0  0  0  0
   16.0403   58.4482   79.4181 O   0  0  0  0  0  0  0  0  0  0  0  0
   12.4403   57.8482   80.0181 O   0  0  0  0  0  0  0  0  0  0  0  0
   12.1403   56.6482   80.8181 C   0  0  0  0  0  0  0  0  0  0  0  0
   14.4403   55.6482   80.9181 O   0  0  0  0  0  0  0  0  0  0  0  0
   13.0403   55.6482   81.4181 C   0  0  0  0  0  0  0  0  0  0  0  0
   10.8403   56.7482   81.5181 C   0  0  0  0  0  0  0  0  0  0  0  0
   10.6403   57.1482   82.8181 O   0  0  0  0  0  0  0  0  0  0  0  0
   12.8403   55.7482   82.8181 O   0  0  0  0  0  0  0  0  0  0  0  0
  2  1  1  0
  3  2  2  0
  4  1  2  0
  5  3  1  0
  5  4  1  0
  6  1  1  0
  7  6  1  0
  8  2  1  0
  9  7  1  0
  9  8  1  0
 10  7  1  0
 11 10  1  0
 12  9  1  0
M  END
>  <ID>  (1) 
conformer_0

$$$$
