
     RDKit          3D

 10 10  0  0  0  0  0  0  0  0999 V2000
   12.1880   59.4941   78.9428 O   0  0  0  0  0  0  0  0  0  0  0  0
   13.0880   58.6941   79.6428 C   0  0  0  0  0  0  0  0  0  0  0  0
   14.2880   57.9941   79.6428 C   0  0  0  0  0  0  0  0  0  0  0  0
   14.7880   56.9941   80.5428 C   0  0  0  0  0  0  0  0  0  0  0  0
   16.1880   56.5941   80.4428 C   0  0  0  0  0  0  0  0  0  0  0  0
   16.7880   57.7941   79.8428 C   0  0  0  0  0  0  0  0  0  0  0  0
   15.5880   58.6941   79.4428 O   0  0  0  0  0  0  0  0  0  0  0  0
   18.0880   58.0941   79.4428 C   0  0  0  0  0  0  0  0  0  0  0  0
   18.5880   58.5941   78.2428 O   0  0  0  0  0  0  0  0  0  0  0  0
   14.5880   57.5941   81.8428 O   0  0  0  0  0  0  0  0  0  0  0  0
  2  1  1  0
  3  2  1  0
  4  3  1  0
  5  4  1  0
  6  5  1  0
  7  3  1  0
  7  6  1  0
  8  6  1  0
  9  8  1  0
 10  4  1  0
M  END
>  <ID>  (1) 
conformer_0

$$$$
