
     RDKit          3D

 12 12  0  0  0  0  0  0  0  0999 V2000
   12.8337   58.1513   79.8249 C   0  0  0  0  0  0  0  0  0  0  0  0
   12.1337   59.0513   79.0249 O   0  0  0  0  0  0  0  0  0  0  0  0
   14.2337   58.3513   80.1249 C   0  0  0  0  0  0  0  0  0  0  0  0
   12.0337   57.4513   80.8249 C   0  0  0  0  0  0  0  0  0  0  0  0
   14.6337   57.0513   80.7249 C   0  0  0  0  0  0  0  0  0  0  0  0
   16.0337   56.6513   80.4249 C   0  0  0  0  0  0  0  0  0  0  0  0
   13.8337   55.9513   81.2249 O   0  0  0  0  0  0  0  0  0  0  0  0
   12.4337   56.2513   81.4249 C   0  0  0  0  0  0  0  0  0  0  0  0
   15.0337   59.0513   79.3249 O   0  0  0  0  0  0  0  0  0  0  0  0
   17.0337   57.6513   80.7249 O   0  0  0  0  0  0  0  0  0  0  0  0
   10.6337   57.3513   80.3249 O   0  0  0  0  0  0  0  0  0  0  0  0
   11.9337   55.9513   82.7249 O   0  0  0  0  0  0  0  0  0  0  0  0
  2  1  1  0
  3  1  1  0
  4  1  1  0
  5  3  1  0
  6  5  1  0
  7  5  1  0
  8  4  1  0
  8  7  1  0
  9  3  1  0
 10  6  1  0
 11  4  1  0
 12  8  2  0
M  END
>  <ID>  (1) 
conformer_0

$$$$
