
     RDKit          3D

 14 14  0  0  0  0  0  0  0  0999 V2000
   12.4033   59.8126   78.5232 O   0  0  0  0  0  0  0  0  0  0  0  0
   12.3033   58.8126   79.5232 C   0  0  0  0  0  0  0  0  0  0  0  0
   13.6033   58.3126   79.9232 C   0  0  0  0  0  0  0  0  0  0  0  0
   13.7033   57.0126   80.5232 C   0  0  0  0  0  0  0  0  0  0  0  0
   15.1033   56.7126   80.9232 C   0  0  0  0  0  0  0  0  0  0  0  0
   14.9033   58.8126   79.5232 O   0  0  0  0  0  0  0  0  0  0  0  0
   12.7033   56.2126   80.8232 O   0  0  0  0  0  0  0  0  0  0  0  0
   15.8033   57.7126   79.9232 C   0  0  0  0  0  0  0  0  0  0  0  0
   17.1033   57.9126   80.3232 O   0  0  0  0  0  0  0  0  0  0  0  0
   12.4033   55.2126   81.7232 C   0  0  0  0  0  0  0  0  0  0  0  0
   12.4033   55.4126   83.1232 O   0  0  0  0  0  0  0  0  0  0  0  0
   11.5033   54.1126   81.3232 C   0  0  0  0  0  0  0  0  0  0  0  0
   15.3033   57.3126   82.2232 O   0  0  0  0  0  0  0  0  0  0  0  0
   10.2033   54.7126   81.1232 O   0  0  0  0  0  0  0  0  0  0  0  0
  2  1  1  0
  3  2  1  0
  4  3  1  0
  5  4  1  0
  6  3  1  0
  7  4  1  0
  8  5  1  0
  8  6  1  0
  9  8  1  0
 10  7  1  0
 11 10  2  0
 12 10  1  0
 13  5  1  0
 14 12  1  0
M  END
>  <ID>  (1) 
conformer_0

$$$$
