
     RDKit          3D

  7  8  0  0  0  0  0  0  0  0999 V2000
   13.9919   58.3805   79.8058 C   0  0  0  0  0  0  0  0  0  0  0  0
   13.0919   57.4805   80.4058 C   0  0  0  0  0  0  0  0  0  0  0  0
   13.5919   56.6805   81.4058 C   0  0  0  0  0  0  0  0  0  0  0  0
   15.3919   57.9805   80.1058 C   0  0  0  0  0  0  0  0  0  0  0  0
   15.7919   56.6805   80.5058 C   0  0  0  0  0  0  0  0  0  0  0  0
   14.8919   56.0805   81.5058 C   0  0  0  0  0  0  0  0  0  0  0  0
   14.3919   57.2805   82.3058 O   0  0  0  0  0  0  0  0  0  0  0  0
  2  1  1  0
  3  2  1  0
  4  1  1  0
  5  4  1  0
  6  3  1  0
  6  5  1  0
  7  3  1  0
  7  6  1  0
M  END
>  <ID>  (1) 
conformer_0

$$$$
