
     RDKit          3D

 14 14  0  0  0  0  0  0  0  0999 V2000
   11.0455   58.7302   79.0053 O   0  0  0  0  0  0  0  0  0  0  0  0
   12.2455   58.7302   79.6053 C   0  0  0  0  0  0  0  0  0  0  0  0
   12.6455   57.7302   80.5053 C   0  0  0  0  0  0  0  0  0  0  0  0
   14.0455   57.4302   80.3053 C   0  0  0  0  0  0  0  0  0  0  0  0
   14.7455   58.4302   79.6053 C   0  0  0  0  0  0  0  0  0  0  0  0
   11.8455   56.5302   80.6053 O   0  0  0  0  0  0  0  0  0  0  0  0
   14.5455   56.2302   80.8053 O   0  0  0  0  0  0  0  0  0  0  0  0
   12.3455   55.4302   81.4053 C   0  0  0  0  0  0  0  0  0  0  0  0
   13.6455   55.8302   81.9053 C   0  0  0  0  0  0  0  0  0  0  0  0
   16.0455   58.2302   79.4053 O   0  0  0  0  0  0  0  0  0  0  0  0
   14.2455   55.3302   83.1053 C   0  0  0  0  0  0  0  0  0  0  0  0
   15.4455   56.1302   83.5053 C   0  0  0  0  0  0  0  0  0  0  0  0
   15.9455   57.2302   82.7053 O   0  0  0  0  0  0  0  0  0  0  0  0
   13.8455   54.0302   83.4053 O   0  0  0  0  0  0  0  0  0  0  0  0
  2  1  1  0
  3  2  1  0
  4  3  1  0
  5  4  2  3
  6  3  1  0
  7  4  1  0
  8  6  1  0
  9  7  1  0
  9  8  1  0
 10  5  1  0
 11  9  1  0
 12 11  1  0
 13 12  1  0
 14 11  1  0
M  END
>  <ID>  (1) 
conformer_0

$$$$
