
     RDKit          3D

  7  6  0  0  0  0  0  0  0  0999 V2000
   12.8022   58.5076   79.8822 C   0  0  0  0  0  0  0  0  0  0  0  0
   13.7022   57.4076   80.2822 C   0  0  0  0  0  0  0  0  0  0  0  0
   11.4022   58.3076   79.8822 O   0  0  0  0  0  0  0  0  0  0  0  0
   15.1022   57.8076   79.9822 C   0  0  0  0  0  0  0  0  0  0  0  0
   11.2022   57.1076   80.6822 C   0  0  0  0  0  0  0  0  0  0  0  0
   16.1022   56.8076   80.2822 C   0  0  0  0  0  0  0  0  0  0  0  0
   15.5022   59.1076   80.3822 O   0  0  0  0  0  0  0  0  0  0  0  0
  2  1  1  0
  3  1  1  0
  4  2  1  0
  5  3  1  0
  6  4  1  0
  7  4  1  0
M  END
>  <ID>  (1) 
conformer_0

$$$$
