
     RDKit          3D

 11 11  0  0  0  0  0  0  0  0999 V2000
  130.0761   52.4572   32.3337 N   0  0  0  0  0  0  0  0  0  0  0  0
  129.3761   51.2572   32.4337 C   0  0  0  0  0  0  0  0  0  0  0  0
  131.3761   52.2572   32.7337 C   0  0  0  0  0  0  0  0  0  0  0  0
  132.3761   53.3572   32.8337 C   0  0  0  0  0  0  0  0  0  0  0  0
  133.6761   52.9572   33.4337 C   0  0  0  0  0  0  0  0  0  0  0  0
  134.7761   53.8572   33.0337 C   0  0  0  0  0  0  0  0  0  0  0  0
  134.2761   54.5572   32.0337 N   0  0  0  0  0  0  0  0  0  0  0  0
  132.8761   54.4572   31.8337 C   0  0  0  0  0  0  0  0  0  0  0  0
  135.7761   54.1572   33.7337 O   0  0  0  0  0  0  0  0  0  0  0  0
  128.5761   51.3572   31.2337 O   0  0  0  0  0  0  0  0  0  0  0  0
  128.6761   52.1572   30.3337 O   0  0  0  0  0  0  0  0  0  0  0  0
  2  1  1  0
  3  1  1  0
  4  3  1  0
  5  4  1  0
  6  5  1  0
  7  6  1  0
  8  4  1  0
  8  7  1  0
  9  6  2  0
 10  2  1  0
 11 10  1  0
M  END
>  <ID>  (1) 
conformer_0

$$$$
