
     RDKit          3D

  7  6  0  0  0  0  0  0  0  0999 V2000
  129.1850   51.3448   32.5946 C   0  0  0  0  0  0  0  0  0  0  0  0
  130.2850   52.2448   32.3946 N   0  0  0  0  0  0  0  0  0  0  0  0
  131.5851   52.0448   32.8946 C   0  0  0  0  0  0  0  0  0  0  0  0
  132.4850   53.0448   33.2946 C   0  0  0  0  0  0  0  0  0  0  0  0
  133.7850   52.5448   33.5946 C   0  0  0  0  0  0  0  0  0  0  0  0
  134.8851   53.4448   33.6946 C   0  0  0  0  0  0  0  0  0  0  0  0
  135.8851   53.1448   34.6946 N   0  0  0  0  0  0  0  0  0  0  0  0
  2  1  1  0
  3  2  1  0
  4  3  1  0
  5  4  1  0
  6  5  1  0
  7  6  1  0
M  END
>  <ID>  (1) 
conformer_0

$$$$
