
     RDKit          3D

 10 10  0  0  0  0  0  0  0  0999 V2000
  130.3182   52.1711   32.2617 N   0  0  0  0  0  0  0  0  0  0  0  0
  129.3182   51.2711   32.2617 C   0  0  0  0  0  0  0  0  0  0  0  0
  131.5182   52.0711   32.8617 C   0  0  0  0  0  0  0  0  0  0  0  0
  132.5182   53.0711   33.2617 C   0  0  0  0  0  0  0  0  0  0  0  0
  133.8182   52.6711   33.5617 C   0  0  0  0  0  0  0  0  0  0  0  0
  134.9182   53.6711   33.3617 C   0  0  0  0  0  0  0  0  0  0  0  0
  134.2182   54.5711   32.6617 N   0  0  0  0  0  0  0  0  0  0  0  0
  132.8182   54.3711   32.2617 C   0  0  0  0  0  0  0  0  0  0  0  0
  136.0182   53.8711   33.8617 O   0  0  0  0  0  0  0  0  0  0  0  0
  128.4182   51.4711   31.1617 O   0  0  0  0  0  0  0  0  0  0  0  0
  2  1  1  0
  3  1  1  0
  4  3  1  0
  5  4  1  0
  6  5  1  0
  7  6  1  0
  8  4  1  0
  8  7  1  0
  9  6  2  0
 10  2  1  0
M  END
>  <ID>  (1) 
conformer_0

$$$$
