
     RDKit          3D

  9  8  0  0  0  0  0  0  0  0999 V2000
  130.3182   52.1711   32.2617 N   0  0  0  0  0  0  0  0  0  0  0  0
  129.3182   51.2711   32.2617 C   0  0  0  0  0  0  0  0  0  0  0  0
  131.5182   52.0711   32.8617 C   0  0  0  0  0  0  0  0  0  0  0  0
  132.5182   53.0711   33.2617 C   0  0  0  0  0  0  0  0  0  0  0  0
  133.8182   52.6711   33.5617 C   0  0  0  0  0  0  0  0  0  0  0  0
  134.8182   53.5711   34.1617 C   0  0  0  0  0  0  0  0  0  0  0  0
  128.4182   51.6711   31.1617 O   0  0  0  0  0  0  0  0  0  0  0  0
  129.0182   52.5711   30.2617 O   0  0  0  0  0  0  0  0  0  0  0  0
  135.6182   52.9711   35.2617 N   0  0  0  0  0  0  0  0  0  0  0  0
  2  1  1  0
  3  1  1  0
  4  3  2  3
  5  4  1  0
  6  5  1  0
  7  2  1  0
  8  7  1  0
  9  6  1  0
M  END
>  <ID>  (1) 
conformer_0

$$$$
