
     RDKit          3D

  9  8  0  0  0  0  0  0  0  0999 V2000
  129.1850   51.3448   32.5946 C   0  0  0  0  0  0  0  0  0  0  0  0
  130.1850   52.3448   32.4946 N   0  0  0  0  0  0  0  0  0  0  0  0
  131.4850   52.0448   32.7946 C   0  0  0  0  0  0  0  0  0  0  0  0
  132.4850   52.7448   33.4946 C   0  0  0  0  0  0  0  0  0  0  0  0
  133.8850   52.8448   33.4946 C   0  0  0  0  0  0  0  0  0  0  0  0
  129.9850   53.2448   31.3946 C   0  0  0  0  0  0  0  0  0  0  0  0
  134.4850   53.9448   32.7946 N   0  0  0  0  0  0  0  0  0  0  0  0
  135.6850   53.8448   31.9946 C   0  0  0  0  0  0  0  0  0  0  0  0
  133.4850   54.9448   32.2946 C   0  0  0  0  0  0  0  0  0  0  0  0
  2  1  1  0
  3  2  1  0
  4  3  1  0
  5  4  1  0
  6  2  1  0
  7  5  1  0
  8  7  1  0
  9  7  1  0
M  END
>  <ID>  (1) 
conformer_0

$$$$
