
     RDKit          3D

 10 12  0  0  0  0  0  0  0  0999 V2000
  131.7202   52.0159   32.8969 C   0  0  0  0  0  0  0  0  0  0  0  0
  132.9202   52.7159   33.3969 C   0  0  0  0  0  0  0  0  0  0  0  0
  130.6202   52.9159   32.5969 N   0  0  0  0  0  0  0  0  0  0  0  0
  129.5202   52.1159   32.0969 C   0  0  0  0  0  0  0  0  0  0  0  0
  129.5202   50.8159   32.6969 C   0  0  0  0  0  0  0  0  0  0  0  0
  133.1202   54.1159   32.9969 C   0  0  0  0  0  0  0  0  0  0  0  0
  131.1202   53.8159   31.5969 C   0  0  0  0  0  0  0  0  0  0  0  0
  132.5202   54.3159   31.6969 C   0  0  0  0  0  0  0  0  0  0  0  0
  128.7202   51.9159   32.7969 O   0  0  0  0  0  0  0  0  0  0  0  0
  130.9202   50.6159   33.0969 C   0  0  0  0  0  0  0  0  0  0  0  0
  2  1  1  0
  3  1  1  0
  4  3  1  0
  5  4  1  0
  6  2  1  0
  7  3  1  0
  8  6  1  0
  8  7  1  0
  9  4  1  0
  9  5  1  0
 10  1  1  0
 10  5  1  0
M  END
>  <ID>  (1) 
conformer_0

$$$$
