
     RDKit          3D

 11 12  0  0  0  0  0  0  0  0999 V2000
  130.8640   51.4744   32.6445 C   0  0  0  0  0  0  0  0  0  0  0  0
  129.5639   50.8744   32.5445 C   0  0  0  0  0  0  0  0  0  0  0  0
  130.8640   52.8744   32.7445 N   0  0  0  0  0  0  0  0  0  0  0  0
  132.2639   53.3744   32.8445 C   0  0  0  0  0  0  0  0  0  0  0  0
  129.9640   53.1744   31.7445 C   0  0  0  0  0  0  0  0  0  0  0  0
  130.1640   53.5744   30.7445 O   0  0  0  0  0  0  0  0  0  0  0  0
  128.9639   51.8744   31.6445 C   0  0  0  0  0  0  0  0  0  0  0  0
  133.2639   52.3744   33.3445 C   0  0  0  0  0  0  0  0  0  0  0  0
  132.8640   54.3744   31.9445 C   0  0  0  0  0  0  0  0  0  0  0  0
  134.5639   53.0744   33.1445 C   0  0  0  0  0  0  0  0  0  0  0  0
  134.3640   54.0744   32.0445 C   0  0  0  0  0  0  0  0  0  0  0  0
  2  1  1  0
  3  1  1  0
  4  3  1  0
  5  3  1  0
  6  5  1  0
  7  2  1  0
  7  5  1  0
  8  4  1  0
  9  4  1  0
 10  8  1  0
 11  9  1  0
 11 10  1  0
M  END
>  <ID>  (1) 
conformer_0

$$$$
