
     RDKit          3D

  8  7  0  0  0  0  0  0  0  0999 V2000
  130.5254   52.6954   32.5830 N   0  0  0  0  0  0  0  0  0  0  0  0
  129.7254   51.5955   32.2830 C   0  0  0  0  0  0  0  0  0  0  0  0
  131.8254   52.7954   32.9830 C   0  0  0  0  0  0  0  0  0  0  0  0
  132.8254   53.7954   32.5830 C   0  0  0  0  0  0  0  0  0  0  0  0
  134.1254   53.4954   33.1830 C   0  0  0  0  0  0  0  0  0  0  0  0
  134.6254   52.2954   33.6830 N   0  0  0  0  0  0  0  0  0  0  0  0
  128.6254   51.4955   31.4830 O   0  0  0  0  0  0  0  0  0  0  0  0
  130.1254   50.3955   32.9830 C   0  0  0  0  0  0  0  0  0  0  0  0
  2  1  1  0
  3  1  1  0
  4  3  1  0
  5  4  1  0
  6  5  1  0
  7  2  2  0
  8  2  1  0
M  END
>  <ID>  (1) 
conformer_0

$$$$
