
     RDKit          3D

  6  5  0  0  0  0  0  0  0  0999 V2000
  128.9700   51.6071   32.2531 C   0  0  0  0  0  0  0  0  0  0  0  0
  130.3700   51.4071   32.5531 C   0  0  0  0  0  0  0  0  0  0  0  0
  131.0700   52.6071   32.9531 N   0  0  0  0  0  0  0  0  0  0  0  0
  132.3700   52.5071   33.3531 C   0  0  0  0  0  0  0  0  0  0  0  0
  132.9700   52.9071   34.2531 O   0  0  0  0  0  0  0  0  0  0  0  0
  128.4700   51.7071   30.8531 O   0  0  0  0  0  0  0  0  0  0  0  0
  2  1  1  0
  3  2  1  0
  4  3  1  0
  5  4  2  0
  6  1  1  0
M  END
>  <ID>  (1) 
conformer_0

$$$$
