
     RDKit          3D

  7  7  0  0  0  0  0  0  0  0999 V2000
  130.1758   52.1057   32.2355 C   0  0  0  0  0  0  0  0  0  0  0  0
  129.3758   50.9057   32.4355 C   0  0  0  0  0  0  0  0  0  0  0  0
  131.4758   52.2057   32.8354 C   0  0  0  0  0  0  0  0  0  0  0  0
  129.8758   53.0057   31.2355 O   0  0  0  0  0  0  0  0  0  0  0  0
  131.9758   53.5057   32.4354 C   0  0  0  0  0  0  0  0  0  0  0  0
  131.0758   53.8057   31.0354 C   0  0  0  0  0  0  0  0  0  0  0  0
  133.2758   53.8057   32.1354 O   0  0  0  0  0  0  0  0  0  0  0  0
  2  1  1  0
  3  1  1  0
  4  1  1  0
  5  3  1  0
  6  4  1  0
  6  5  1  0
  7  5  1  0
M  END
>  <ID>  (1) 
conformer_0

$$$$
