
     RDKit          3D

  8  8  0  0  0  0  0  0  0  0999 V2000
  130.8788   51.4482   32.6033 C   0  0  0  0  0  0  0  0  0  0  0  0
  129.4788   51.1482   32.5033 C   0  0  0  0  0  0  0  0  0  0  0  0
  131.1788   52.8482   32.9033 N   0  0  0  0  0  0  0  0  0  0  0  0
  132.5788   52.8482   33.3033 C   0  0  0  0  0  0  0  0  0  0  0  0
  130.4788   53.3482   31.9033 C   0  0  0  0  0  0  0  0  0  0  0  0
  129.8788   53.0482   31.0033 O   0  0  0  0  0  0  0  0  0  0  0  0
  128.4788   51.9482   33.0033 N   0  0  0  0  0  0  0  0  0  0  0  0
  128.5788   51.6482   31.7033 C   0  0  0  0  0  0  0  0  0  0  0  0
  2  1  1  0
  3  1  1  0
  4  3  1  0
  5  3  1  0
  6  5  2  0
  7  2  1  0
  8  2  1  0
  8  7  1  0
M  END
>  <ID>  (1) 
conformer_0

$$$$
