
     RDKit          3D

  3  2  0  0  0  0  0  0  0  0999 V2000
  130.1385   52.8145   32.6643 N   0  0  0  0  0  0  0  0  0  0  0  0
  129.3385   51.8145   32.0643 C   0  0  0  0  0  0  0  0  0  0  0  0
  131.5385   52.4145   32.7643 C   0  0  0  0  0  0  0  0  0  0  0  0
  2  1  1  0
  3  1  1  0
M  END
>  <ID>  (1) 
conformer_0

$$$$
