
     RDKit          3D

 10  9  0  0  0  0  0  0  0  0999 V2000
  130.8640   51.4744   32.6445 C   0  0  0  0  0  0  0  0  0  0  0  0
  129.4640   51.1744   32.5445 C   0  0  0  0  0  0  0  0  0  0  0  0
  131.2639   52.7744   33.0445 N   0  0  0  0  0  0  0  0  0  0  0  0
  132.6639   52.9744   33.1445 C   0  0  0  0  0  0  0  0  0  0  0  0
  133.0639   52.8744   34.3445 O   0  0  0  0  0  0  0  0  0  0  0  0
  133.0639   54.2744   32.5445 C   0  0  0  0  0  0  0  0  0  0  0  0
  134.4639   54.4744   32.1445 C   0  0  0  0  0  0  0  0  0  0  0  0
  134.7639   55.8744   31.7445 C   0  0  0  0  0  0  0  0  0  0  0  0
  128.4640   51.9744   32.8445 O   0  0  0  0  0  0  0  0  0  0  0  0
  133.8639   56.7744   32.4445 N   0  0  0  0  0  0  0  0  0  0  0  0
  2  1  2  3
  3  1  1  0
  4  3  1  0
  5  4  1  0
  6  4  1  0
  7  6  1  0
  8  7  1  0
  9  2  1  0
 10  8  1  0
M  END
>  <ID>  (1) 
conformer_0

$$$$
