
     RDKit          3D

  9  9  0  0  0  0  0  0  0  0999 V2000
  131.9372   52.2916   33.1598 C   0  0  0  0  0  0  0  0  0  0  0  0
  130.6372   52.5916   32.7598 N   0  0  0  0  0  0  0  0  0  0  0  0
  129.8372   51.4916   32.3598 C   0  0  0  0  0  0  0  0  0  0  0  0
  133.1372   52.9916   33.3598 C   0  0  0  0  0  0  0  0  0  0  0  0
  128.7372   51.6916   31.5598 C   0  0  0  0  0  0  0  0  0  0  0  0
  130.4372   53.6916   31.7598 C   0  0  0  0  0  0  0  0  0  0  0  0
  130.0372   53.5916   30.5598 O   0  0  0  0  0  0  0  0  0  0  0  0
  131.8372   54.1916   31.6598 N   0  0  0  0  0  0  0  0  0  0  0  0
  132.7372   54.3916   32.6598 C   0  0  0  0  0  0  0  0  0  0  0  0
  2  1  1  0
  3  2  1  0
  4  1  1  0
  5  3  2  0
  6  2  1  0
  7  6  1  0
  8  6  1  0
  9  4  1  0
  9  8  1  0
M  END
>  <ID>  (1) 
conformer_0

$$$$
