
     RDKit          3D

  7  6  0  0  0  0  0  0  0  0999 V2000
  130.1758   52.1057   32.2355 C   0  0  0  0  0  0  0  0  0  0  0  0
  129.4758   50.9057   32.5354 C   0  0  0  0  0  0  0  0  0  0  0  0
  131.2758   52.4057   33.1355 N   0  0  0  0  0  0  0  0  0  0  0  0
  132.2758   53.3057   32.9355 C   0  0  0  0  0  0  0  0  0  0  0  0
  133.5758   53.0057   33.5354 C   0  0  0  0  0  0  0  0  0  0  0  0
  129.7758   53.0057   31.4355 O   0  0  0  0  0  0  0  0  0  0  0  0
  132.2758   54.3057   31.8355 C   0  0  0  0  0  0  0  0  0  0  0  0
  2  1  1  0
  3  1  1  0
  4  3  1  0
  5  4  1  0
  6  1  2  0
  7  4  1  0
M  END
>  <ID>  (1) 
conformer_0

$$$$
