
     RDKit          3D

  7  7  0  0  0  0  0  0  0  0999 V2000
  129.7009   51.0991   32.6365 C   0  0  0  0  0  0  0  0  0  0  0  0
  130.0009   52.2991   32.3365 N   0  0  0  0  0  0  0  0  0  0  0  0
  130.9009   53.1991   32.1365 C   0  0  0  0  0  0  0  0  0  0  0  0
  132.2009   53.0991   32.8365 C   0  0  0  0  0  0  0  0  0  0  0  0
  133.1009   54.1991   32.5365 C   0  0  0  0  0  0  0  0  0  0  0  0
  133.0009   54.6991   31.1365 C   0  0  0  0  0  0  0  0  0  0  0  0
  129.0009   51.6991   31.7365 C   0  0  0  0  0  0  0  0  0  0  0  0
  2  1  1  0
  3  2  1  0
  4  3  1  0
  5  4  1  0
  6  5  1  0
  7  1  1  0
  7  2  1  0
M  END
>  <ID>  (1) 
conformer_0

$$$$
