
     RDKit          3D

 10 10  0  0  0  0  0  0  0  0999 V2000
  130.3182   52.1711   32.2617 N   0  0  0  0  0  0  0  0  0  0  0  0
  129.3182   51.2711   32.2617 C   0  0  0  0  0  0  0  0  0  0  0  0
  131.5182   52.0711   32.9618 C   0  0  0  0  0  0  0  0  0  0  0  0
  132.3182   53.2711   32.7617 C   0  0  0  0  0  0  0  0  0  0  0  0
  133.6182   53.0711   33.3617 C   0  0  0  0  0  0  0  0  0  0  0  0
  131.9182   53.9711   31.5617 C   0  0  0  0  0  0  0  0  0  0  0  0
  130.3182   53.3711   31.5617 C   0  0  0  0  0  0  0  0  0  0  0  0
  131.0182   53.9711   30.9617 O   0  0  0  0  0  0  0  0  0  0  0  0
  134.2182   53.9711   34.2617 N   0  0  0  0  0  0  0  0  0  0  0  0
  134.3182   51.9711   33.3617 O   0  0  0  0  0  0  0  0  0  0  0  0
  2  1  1  0
  3  1  1  0
  4  3  1  0
  5  4  1  0
  6  4  1  0
  7  1  1  0
  8  6  1  0
  8  7  1  0
  9  5  1  0
 10  5  2  0
M  END
>  <ID>  (1) 
conformer_0

$$$$
