
     RDKit          3D

  4  3  0  0  0  0  0  0  0  0999 V2000
  130.5081   51.5622   32.6629 C   0  0  0  0  0  0  0  0  0  0  0  0
  129.3081   51.0622   32.5629 C   0  0  0  0  0  0  0  0  0  0  0  0
  130.9081   52.8622   32.8629 N   0  0  0  0  0  0  0  0  0  0  0  0
  132.2081   53.4622   32.9629 C   0  0  0  0  0  0  0  0  0  0  0  0
  2  1  2  0
  3  1  1  0
  4  3  1  0
M  END
>  <ID>  (1) 
conformer_0

$$$$
