
     RDKit          3D

  5  4  0  0  0  0  0  0  0  0999 V2000
  130.8640   51.4744   32.6445 C   0  0  0  0  0  0  0  0  0  0  0  0
  129.4640   50.9744   32.4445 C   0  0  0  0  0  0  0  0  0  0  0  0
  130.8640   52.9744   32.6445 N   0  0  0  0  0  0  0  0  0  0  0  0
  130.0639   53.2744   31.5445 C   0  0  0  0  0  0  0  0  0  0  0  0
  129.4639   52.6744   30.6445 O   0  0  0  0  0  0  0  0  0  0  0  0
  2  1  1  0
  3  1  1  0
  4  3  1  0
  5  4  2  0
M  END
>  <ID>  (1) 
conformer_0

$$$$
