
     RDKit          3D

  8  8  0  0  0  0  0  0  0  0999 V2000
  129.1222   51.2019   32.5061 C   0  0  0  0  0  0  0  0  0  0  0  0
  130.1222   52.3019   32.5061 N   0  0  0  0  0  0  0  0  0  0  0  0
  131.5222   52.0019   32.8061 C   0  0  0  0  0  0  0  0  0  0  0  0
  130.2222   53.2019   31.4061 C   0  0  0  0  0  0  0  0  0  0  0  0
  129.6222   52.9019   30.3061 O   0  0  0  0  0  0  0  0  0  0  0  0
  131.4222   54.0019   31.3061 C   0  0  0  0  0  0  0  0  0  0  0  0
  132.5222   52.9019   33.3061 C   0  0  0  0  0  0  0  0  0  0  0  0
  132.5222   54.0019   32.2061 C   0  0  0  0  0  0  0  0  0  0  0  0
  2  1  1  0
  3  2  1  0
  4  2  1  0
  5  4  2  0
  6  4  1  0
  7  3  1  0
  8  6  2  0
  8  7  1  0
M  END
>  <ID>  (1) 
conformer_0

$$$$
