
     RDKit          3D

  5  4  0  0  0  0  0  0  0  0999 V2000
  130.1385   52.8145   32.6643 N   0  0  0  0  0  0  0  0  0  0  0  0
  129.3385   51.8145   32.0643 C   0  0  0  0  0  0  0  0  0  0  0  0
  131.5385   52.6145   32.6643 C   0  0  0  0  0  0  0  0  0  0  0  0
  132.4384   53.6145   33.0643 C   0  0  0  0  0  0  0  0  0  0  0  0
  129.3385   50.6145   32.7643 C   0  0  0  0  0  0  0  0  0  0  0  0
  2  1  1  0
  3  1  2  3
  4  3  1  0
  5  2  1  0
M  END
>  <ID>  (1) 
conformer_0

$$$$
