
     RDKit          3D

  7  6  0  0  0  0  0  0  0  0999 V2000
  130.8788   51.4482   32.6033 C   0  0  0  0  0  0  0  0  0  0  0  0
  129.4788   51.1482   32.5033 C   0  0  0  0  0  0  0  0  0  0  0  0
  131.1788   52.8482   32.9033 N   0  0  0  0  0  0  0  0  0  0  0  0
  132.5788   52.8482   33.3033 C   0  0  0  0  0  0  0  0  0  0  0  0
  130.5788   53.4482   31.7033 C   0  0  0  0  0  0  0  0  0  0  0  0
  129.8788   52.9482   30.9033 O   0  0  0  0  0  0  0  0  0  0  0  0
  131.6788   54.2482   31.1033 C   0  0  0  0  0  0  0  0  0  0  0  0
  2  1  1  0
  3  1  1  0
  4  3  1  0
  5  3  1  0
  6  5  2  0
  7  5  1  0
M  END
>  <ID>  (1) 
conformer_0

$$$$
