
     RDKit          3D

  7  7  0  0  0  0  0  0  0  0999 V2000
  129.2561   50.9356   32.5860 C   0  0  0  0  0  0  0  0  0  0  0  0
  130.2561   51.8356   32.6860 N   0  0  0  0  0  0  0  0  0  0  0  0
  131.5561   51.9356   32.8860 C   0  0  0  0  0  0  0  0  0  0  0  0
  132.2561   53.2356   32.7860 C   0  0  0  0  0  0  0  0  0  0  0  0
  133.5561   53.0356   33.4860 C   0  0  0  0  0  0  0  0  0  0  0  0
  128.5561   51.4356   31.3860 O   0  0  0  0  0  0  0  0  0  0  0  0
  129.5561   52.5356   31.4860 C   0  0  0  0  0  0  0  0  0  0  0  0
  2  1  1  0
  3  2  1  0
  4  3  1  0
  5  4  1  0
  6  1  1  0
  7  2  1  0
  7  6  1  0
M  END
>  <ID>  (1) 
conformer_0

$$$$
