
     RDKit          3D

 11 12  0  0  0  0  0  0  0  0999 V2000
  131.4780   52.0277   32.8008 C   0  0  0  0  0  0  0  0  0  0  0  0
  130.1780   51.3277   32.6008 C   0  0  0  0  0  0  0  0  0  0  0  0
  129.0780   52.0277   32.0008 C   0  0  0  0  0  0  0  0  0  0  0  0
  131.2780   53.3277   32.2008 C   0  0  0  0  0  0  0  0  0  0  0  0
  132.4780   54.1277   32.3008 N   0  0  0  0  0  0  0  0  0  0  0  0
  130.4780   53.7277   31.0008 C   0  0  0  0  0  0  0  0  0  0  0  0
  133.4780   53.4277   33.1008 C   0  0  0  0  0  0  0  0  0  0  0  0
  129.3780   52.7277   30.8008 O   0  0  0  0  0  0  0  0  0  0  0  0
  132.7780   54.9277   31.1008 C   0  0  0  0  0  0  0  0  0  0  0  0
  134.5780   53.4277   32.6008 O   0  0  0  0  0  0  0  0  0  0  0  0
  132.8780   52.1277   33.4008 N   0  0  0  0  0  0  0  0  0  0  0  0
  2  1  2  0
  3  2  1  0
  4  1  1  0
  5  4  1  0
  6  4  1  0
  7  5  1  0
  8  3  1  0
  8  6  1  0
  9  5  1  0
 10  7  1  0
 11  1  1  0
 11  7  1  0
M  END
>  <ID>  (1) 
conformer_0

$$$$
