
     RDKit          3D

  7  6  0  0  0  0  0  0  0  0999 V2000
  128.9700   51.6071   32.2531 C   0  0  0  0  0  0  0  0  0  0  0  0
  130.3700   51.4071   32.5531 C   0  0  0  0  0  0  0  0  0  0  0  0
  131.0700   52.6071   32.9531 N   0  0  0  0  0  0  0  0  0  0  0  0
  132.4700   52.4071   33.2531 C   0  0  0  0  0  0  0  0  0  0  0  0
  130.6700   53.5071   32.0531 C   0  0  0  0  0  0  0  0  0  0  0  0
  129.8700   53.5071   31.2531 O   0  0  0  0  0  0  0  0  0  0  0  0
  128.3700   51.5071   30.9531 O   0  0  0  0  0  0  0  0  0  0  0  0
  2  1  1  0
  3  2  1  0
  4  3  1  0
  5  3  1  0
  6  5  2  0
  7  1  1  0
M  END
>  <ID>  (1) 
conformer_0

$$$$
