
     RDKit          3D

  9  8  0  0  0  0  0  0  0  0999 V2000
  130.3000   52.4907   32.3343 N   0  0  0  0  0  0  0  0  0  0  0  0
  129.5000   51.3908   32.4343 C   0  0  0  0  0  0  0  0  0  0  0  0
  131.5000   52.4907   32.8343 C   0  0  0  0  0  0  0  0  0  0  0  0
  132.5000   53.4907   32.9343 C   0  0  0  0  0  0  0  0  0  0  0  0
  133.8000   52.8908   33.3343 C   0  0  0  0  0  0  0  0  0  0  0  0
  134.7000   53.5908   34.2343 C   0  0  0  0  0  0  0  0  0  0  0  0
  128.6000   51.3908   31.3343 O   0  0  0  0  0  0  0  0  0  0  0  0
  128.6000   51.2908   33.5343 N   0  0  0  0  0  0  0  0  0  0  0  0
  135.7000   52.9908   34.8343 N   0  0  0  0  0  0  0  0  0  0  0  0
  2  1  1  0
  3  1  2  3
  4  3  1  0
  5  4  1  0
  6  5  1  0
  7  2  1  0
  8  2  1  0
  9  6  2  0
M  END
>  <ID>  (1) 
conformer_0

$$$$
