
     RDKit          3D

 10  9  0  0  0  0  0  0  0  0999 V2000
  130.8640   51.4744   32.6445 C   0  0  0  0  0  0  0  0  0  0  0  0
  129.4640   51.1744   32.5445 C   0  0  0  0  0  0  0  0  0  0  0  0
  131.2639   52.7744   33.0445 N   0  0  0  0  0  0  0  0  0  0  0  0
  132.5639   53.1744   33.0445 C   0  0  0  0  0  0  0  0  0  0  0  0
  133.4639   52.3744   33.4445 O   0  0  0  0  0  0  0  0  0  0  0  0
  133.0639   54.3744   32.3445 C   0  0  0  0  0  0  0  0  0  0  0  0
  134.4639   54.4744   32.1445 C   0  0  0  0  0  0  0  0  0  0  0  0
  128.7640   51.7744   31.6445 C   0  0  0  0  0  0  0  0  0  0  0  0
  129.3640   52.6744   30.6445 O   0  0  0  0  0  0  0  0  0  0  0  0
  135.4639   54.2744   33.1445 N   0  0  0  0  0  0  0  0  0  0  0  0
  2  1  1  0
  3  1  2  3
  4  3  1  0
  5  4  2  0
  6  4  1  0
  7  6  1  0
  8  2  2  3
  9  8  1  0
 10  7  1  0
M  END
>  <ID>  (1) 
conformer_0

$$$$
