
     RDKit          3D

  6  5  0  0  0  0  0  0  0  0999 V2000
  130.8640   51.4744   32.6445 C   0  0  0  0  0  0  0  0  0  0  0  0
  129.5639   50.8744   32.5445 C   0  0  0  0  0  0  0  0  0  0  0  0
  130.8640   52.8744   32.7445 N   0  0  0  0  0  0  0  0  0  0  0  0
  132.2639   53.3744   32.8445 C   0  0  0  0  0  0  0  0  0  0  0  0
  130.0639   53.2744   31.5445 C   0  0  0  0  0  0  0  0  0  0  0  0
  129.3640   52.5744   31.0445 O   0  0  0  0  0  0  0  0  0  0  0  0
  2  1  1  0
  3  1  1  0
  4  3  1  0
  5  3  1  0
  6  5  2  0
M  END
>  <ID>  (1) 
conformer_0

$$$$
