
     RDKit          3D

 10 10  0  0  0  0  0  0  0  0999 V2000
  129.2561   50.9356   32.5860 C   0  0  0  0  0  0  0  0  0  0  0  0
  130.2561   51.8356   32.6860 N   0  0  0  0  0  0  0  0  0  0  0  0
  131.5561   52.0356   32.8860 C   0  0  0  0  0  0  0  0  0  0  0  0
  132.1561   53.3356   32.4860 C   0  0  0  0  0  0  0  0  0  0  0  0
  133.3561   53.5356   33.2860 C   0  0  0  0  0  0  0  0  0  0  0  0
  133.5561   54.8356   33.6860 N   0  0  0  0  0  0  0  0  0  0  0  0
  131.4561   53.8356   31.3860 C   0  0  0  0  0  0  0  0  0  0  0  0
  131.8561   54.8356   30.5860 O   0  0  0  0  0  0  0  0  0  0  0  0
  130.2561   53.4356   31.1860 N   0  0  0  0  0  0  0  0  0  0  0  0
  129.7561   52.5356   31.8860 C   0  0  0  0  0  0  0  0  0  0  0  0
  2  1  1  0
  3  2  1  0
  4  3  1  0
  5  4  1  0
  6  5  1  0
  7  4  1  0
  8  7  2  0
  9  7  1  0
 10  2  1  0
 10  9  2  0
M  END
>  <ID>  (1) 
conformer_0

$$$$
