
     RDKit          3D

  7  7  0  0  0  0  0  0  0  0999 V2000
  131.3114   51.6755   32.9129 C   0  0  0  0  0  0  0  0  0  0  0  0
  132.3114   52.6755   33.3129 C   0  0  0  0  0  0  0  0  0  0  0  0
  130.1115   52.2755   32.3129 N   0  0  0  0  0  0  0  0  0  0  0  0
  129.0114   51.4755   32.0129 C   0  0  0  0  0  0  0  0  0  0  0  0
  130.5114   53.4755   31.8129 C   0  0  0  0  0  0  0  0  0  0  0  0
  131.9114   53.7755   32.2129 C   0  0  0  0  0  0  0  0  0  0  0  0
  128.5114   51.6755   30.8129 O   0  0  0  0  0  0  0  0  0  0  0  0
  2  1  1  0
  3  1  1  0
  4  3  1  0
  5  3  1  0
  6  2  1  0
  6  5  1  0
  7  4  1  0
M  END
>  <ID>  (1) 
conformer_0

$$$$
