
     RDKit          3D

 10  9  0  0  0  0  0  0  0  0999 V2000
  130.8640   51.4744   32.6445 C   0  0  0  0  0  0  0  0  0  0  0  0
  129.4640   51.1744   32.5445 C   0  0  0  0  0  0  0  0  0  0  0  0
  131.2639   52.7744   33.0445 N   0  0  0  0  0  0  0  0  0  0  0  0
  132.5639   53.1744   33.0445 C   0  0  0  0  0  0  0  0  0  0  0  0
  133.2639   52.8744   34.1445 O   0  0  0  0  0  0  0  0  0  0  0  0
  132.9639   54.3744   32.2445 C   0  0  0  0  0  0  0  0  0  0  0  0
  134.3639   54.3744   31.7445 C   0  0  0  0  0  0  0  0  0  0  0  0
  128.6640   51.9744   31.7445 C   0  0  0  0  0  0  0  0  0  0  0  0
  129.2640   52.6744   30.6445 O   0  0  0  0  0  0  0  0  0  0  0  0
  135.3639   54.4744   32.7445 N   0  0  0  0  0  0  0  0  0  0  0  0
  2  1  1  0
  3  1  2  3
  4  3  1  0
  5  4  2  0
  6  4  1  0
  7  6  1  0
  8  2  1  0
  9  8  1  0
 10  7  1  0
M  END
>  <ID>  (1) 
conformer_0

$$$$
