
     RDKit          3D

  6  6  0  0  0  0  0  0  0  0999 V2000
  131.0523   52.3442   33.1147 N   0  0  0  0  0  0  0  0  0  0  0  0
  130.2523   51.7442   32.3147 C   0  0  0  0  0  0  0  0  0  0  0  0
  129.1523   50.9442   32.6147 C   0  0  0  0  0  0  0  0  0  0  0  0
  129.7523   52.7442   31.3147 N   0  0  0  0  0  0  0  0  0  0  0  0
  128.7523   52.0442   30.7147 O   0  0  0  0  0  0  0  0  0  0  0  0
  128.3522   51.0442   31.5147 C   0  0  0  0  0  0  0  0  0  0  0  0
  2  1  1  0
  3  2  1  0
  4  2  2  0
  5  4  1  0
  6  3  2  0
  6  5  1  0
M  END
>  <ID>  (1) 
conformer_0

$$$$
