
     RDKit          3D

  8  8  0  0  0  0  0  0  0  0999 V2000
  129.0286   51.8742   32.1758 C   0  0  0  0  0  0  0  0  0  0  0  0
  129.5286   50.6742   32.6758 C   0  0  0  0  0  0  0  0  0  0  0  0
  129.9286   52.9742   32.2758 N   0  0  0  0  0  0  0  0  0  0  0  0
  131.2286   52.3742   32.6758 C   0  0  0  0  0  0  0  0  0  0  0  0
  132.3286   53.3742   32.8758 C   0  0  0  0  0  0  0  0  0  0  0  0
  133.5286   52.5742   33.2758 C   0  0  0  0  0  0  0  0  0  0  0  0
  130.2286   53.7742   31.0758 C   0  0  0  0  0  0  0  0  0  0  0  0
  131.1286   51.0742   33.0758 C   0  0  0  0  0  0  0  0  0  0  0  0
  2  1  1  0
  3  1  1  0
  4  3  1  0
  5  4  1  0
  6  5  1  0
  7  3  1  0
  8  2  1  0
  8  4  1  0
M  END
>  <ID>  (1) 
conformer_0

$$$$
