
     RDKit          3D

 10 11  0  0  0  0  0  0  0  0999 V2000
  130.5620   53.2616   31.8221 C   0  0  0  0  0  0  0  0  0  0  0  0
  129.8620   52.2616   32.4221 N   0  0  0  0  0  0  0  0  0  0  0  0
  129.2620   51.1616   32.4221 C   0  0  0  0  0  0  0  0  0  0  0  0
  130.0620   53.6616   30.7221 O   0  0  0  0  0  0  0  0  0  0  0  0
  131.9620   53.5616   32.2221 C   0  0  0  0  0  0  0  0  0  0  0  0
  132.2620   52.6616   33.3221 C   0  0  0  0  0  0  0  0  0  0  0  0
  130.6620   51.3616   32.8221 C   0  0  0  0  0  0  0  0  0  0  0  0
  132.8620   54.4616   31.6221 C   0  0  0  0  0  0  0  0  0  0  0  0
  132.9620   55.5616   31.2221 N   0  0  0  0  0  0  0  0  0  0  0  0
  131.9620   51.3616   33.2221 C   0  0  0  0  0  0  0  0  0  0  0  0
  2  1  1  0
  3  2  1  0
  4  1  2  0
  5  1  1  0
  6  5  1  0
  7  2  1  0
  7  3  1  0
  8  5  1  0
  9  8  2  0
 10  6  1  0
 10  7  1  0
M  END
>  <ID>  (1) 
conformer_0

$$$$
