
     RDKit          3D

  4  3  0  0  0  0  0  0  0  0999 V2000
  130.1719   53.4168   31.5719 C   0  0  0  0  0  0  0  0  0  0  0  0
  129.4719   52.6168   32.4719 N   0  0  0  0  0  0  0  0  0  0  0  0
  129.4719   51.1168   32.4719 C   0  0  0  0  0  0  0  0  0  0  0  0
  129.8719   53.4168   30.2719 O   0  0  0  0  0  0  0  0  0  0  0  0
  2  1  1  0
  3  2  1  0
  4  1  1  0
M  END
>  <ID>  (1) 
conformer_0

$$$$
