
     RDKit          3D

  6  5  0  0  0  0  0  0  0  0999 V2000
  129.4438   51.0112   32.6500 C   0  0  0  0  0  0  0  0  0  0  0  0
  130.1438   52.3112   32.4500 N   0  0  0  0  0  0  0  0  0  0  0  0
  131.5438   52.2112   32.7500 C   0  0  0  0  0  0  0  0  0  0  0  0
  129.9438   53.1112   31.3500 C   0  0  0  0  0  0  0  0  0  0  0  0
  130.2438   54.0112   30.7500 O   0  0  0  0  0  0  0  0  0  0  0  0
  128.9438   52.4112   30.5500 O   0  0  0  0  0  0  0  0  0  0  0  0
  2  1  1  0
  3  2  1  0
  4  2  1  0
  5  4  2  0
  6  4  1  0
M  END
>  <ID>  (1) 
conformer_0

$$$$
