
     RDKit          3D

  6  7  0  0  0  0  0  0  0  0999 V2000
  131.1826   51.5930   32.8392 C   0  0  0  0  0  0  0  0  0  0  0  0
  129.7826   51.3930   32.5392 C   0  0  0  0  0  0  0  0  0  0  0  0
  132.1826   52.5930   33.1392 C   0  0  0  0  0  0  0  0  0  0  0  0
  132.1826   53.6930   32.1392 C   0  0  0  0  0  0  0  0  0  0  0  0
  130.0826   52.5930   32.3392 N   0  0  0  0  0  0  0  0  0  0  0  0
  130.8826   53.4930   31.4392 C   0  0  0  0  0  0  0  0  0  0  0  0
  2  1  1  0
  3  1  1  0
  4  3  1  0
  5  1  1  0
  5  2  1  0
  6  4  1  0
  6  5  1  0
M  END
>  <ID>  (1) 
conformer_0

$$$$
