
     RDKit          3D

  5  4  0  0  0  0  0  0  0  0999 V2000
  130.0761   52.4572   32.3337 N   0  0  0  0  0  0  0  0  0  0  0  0
  129.4761   51.1572   32.5337 C   0  0  0  0  0  0  0  0  0  0  0  0
  131.4761   52.3572   32.8337 C   0  0  0  0  0  0  0  0  0  0  0  0
  129.9761   53.3572   31.3337 C   0  0  0  0  0  0  0  0  0  0  0  0
  129.6761   53.2572   30.1337 O   0  0  0  0  0  0  0  0  0  0  0  0
  2  1  1  0
  3  1  1  0
  4  1  1  0
  5  4  2  0
M  END
>  <ID>  (1) 
conformer_0

$$$$
