
     RDKit          3D

  8  8  0  0  0  0  0  0  0  0999 V2000
  129.0286   51.8742   32.1758 C   0  0  0  0  0  0  0  0  0  0  0  0
  129.6286   50.6742   32.6758 C   0  0  0  0  0  0  0  0  0  0  0  0
  129.8286   52.9742   32.4758 N   0  0  0  0  0  0  0  0  0  0  0  0
  131.2286   52.5742   32.4758 C   0  0  0  0  0  0  0  0  0  0  0  0
  132.2286   53.5742   32.8758 C   0  0  0  0  0  0  0  0  0  0  0  0
  133.4286   52.8742   33.3758 C   0  0  0  0  0  0  0  0  0  0  0  0
  131.0286   51.0742   32.9758 C   0  0  0  0  0  0  0  0  0  0  0  0
  134.0286   53.3742   34.5758 N   0  0  0  0  0  0  0  0  0  0  0  0
  2  1  1  0
  3  1  1  0
  4  3  1  0
  5  4  1  0
  6  5  1  0
  7  2  1  0
  7  4  1  0
  8  6  1  0
M  END
>  <ID>  (1) 
conformer_0

$$$$
