
     RDKit          3D

  9  9  0  0  0  0  0  0  0  0999 V2000
  129.1850   51.3448   32.5946 C   0  0  0  0  0  0  0  0  0  0  0  0
  130.1850   52.3448   32.4946 N   0  0  0  0  0  0  0  0  0  0  0  0
  131.4850   52.0448   32.7946 C   0  0  0  0  0  0  0  0  0  0  0  0
  132.3850   53.0448   33.1946 C   0  0  0  0  0  0  0  0  0  0  0  0
  133.7850   52.6448   33.4946 C   0  0  0  0  0  0  0  0  0  0  0  0
  130.0850   53.3448   31.4946 C   0  0  0  0  0  0  0  0  0  0  0  0
  132.3850   54.1448   32.1946 C   0  0  0  0  0  0  0  0  0  0  0  0
  131.2850   54.1448   31.1946 C   0  0  0  0  0  0  0  0  0  0  0  0
  134.3850   53.0448   34.5946 N   0  0  0  0  0  0  0  0  0  0  0  0
  2  1  1  0
  3  2  1  0
  4  3  1  0
  5  4  1  0
  6  2  1  0
  7  4  1  0
  8  6  1  0
  8  7  1  0
  9  5  2  0
M  END
>  <ID>  (1) 
conformer_0

$$$$
