
     RDKit          3D

 11 12  0  0  0  0  0  0  0  0999 V2000
  130.3182   52.1711   32.2617 N   0  0  0  0  0  0  0  0  0  0  0  0
  129.3182   51.2711   32.2617 C   0  0  0  0  0  0  0  0  0  0  0  0
  131.5182   52.0711   32.9618 C   0  0  0  0  0  0  0  0  0  0  0  0
  132.3182   53.2711   32.7617 C   0  0  0  0  0  0  0  0  0  0  0  0
  133.6182   52.9711   33.3617 C   0  0  0  0  0  0  0  0  0  0  0  0
  131.9182   53.9711   31.5617 C   0  0  0  0  0  0  0  0  0  0  0  0
  130.3182   53.3711   31.4618 C   0  0  0  0  0  0  0  0  0  0  0  0
  134.1182   53.8711   34.3617 N   0  0  0  0  0  0  0  0  0  0  0  0
  134.8182   53.1711   35.2617 N   0  0  0  0  0  0  0  0  0  0  0  0
  128.5182   51.5711   31.0617 O   0  0  0  0  0  0  0  0  0  0  0  0
  128.1182   52.0711   32.2617 C   0  0  0  0  0  0  0  0  0  0  0  0
  2  1  1  0
  3  1  1  0
  4  3  1  0
  5  4  1  0
  6  4  1  0
  7  1  1  0
  7  6  1  0
  8  5  1  0
  9  8  1  0
 10  2  1  0
 11  2  1  0
 11 10  1  0
M  END
>  <ID>  (1) 
conformer_0

$$$$
