
     RDKit          3D

  4  3  0  0  0  0  0  0  0  0999 V2000
  130.0760   53.3059   31.4853 C   0  0  0  0  0  0  0  0  0  0  0  0
  130.1760   52.4059   32.4853 N   0  0  0  0  0  0  0  0  0  0  0  0
  129.4760   51.1059   32.4853 C   0  0  0  0  0  0  0  0  0  0  0  0
  129.6760   53.2059   30.2853 O   0  0  0  0  0  0  0  0  0  0  0  0
  2  1  1  0
  3  2  1  0
  4  1  2  0
M  END
>  <ID>  (1) 
conformer_0

$$$$
