
     RDKit          3D

 10 12  0  0  0  0  0  0  0  0999 V2000
  129.4658   52.3102   32.2936 N   0  0  0  0  0  0  0  0  0  0  0  0
  129.2658   51.0102   32.4936 C   0  0  0  0  0  0  0  0  0  0  0  0
  130.7658   52.8102   31.9936 C   0  0  0  0  0  0  0  0  0  0  0  0
  131.5658   52.0102   32.8937 C   0  0  0  0  0  0  0  0  0  0  0  0
  132.8658   52.5102   33.3937 C   0  0  0  0  0  0  0  0  0  0  0  0
  133.0658   53.8102   32.6936 C   0  0  0  0  0  0  0  0  0  0  0  0
  133.4658   54.9102   33.2936 N   0  0  0  0  0  0  0  0  0  0  0  0
  131.7658   53.9102   31.7936 C   0  0  0  0  0  0  0  0  0  0  0  0
  131.8658   52.7102   34.0937 O   0  0  0  0  0  0  0  0  0  0  0  0
  128.6658   51.8102   31.4936 C   0  0  0  0  0  0  0  0  0  0  0  0
  2  1  1  0
  3  1  1  0
  4  3  1  0
  5  4  1  0
  6  5  1  0
  7  6  1  0
  8  3  1  0
  8  6  1  0
  9  4  1  0
  9  5  1  0
 10  1  1  0
 10  2  1  0
M  END
>  <ID>  (1) 
conformer_0

$$$$
