
     RDKit          3D

  9  8  0  0  0  0  0  0  0  0999 V2000
  130.3182   52.1711   32.2617 N   0  0  0  0  0  0  0  0  0  0  0  0
  129.3182   51.2711   32.2617 C   0  0  0  0  0  0  0  0  0  0  0  0
  131.5182   52.0711   32.9618 C   0  0  0  0  0  0  0  0  0  0  0  0
  132.6182   52.9711   33.0617 C   0  0  0  0  0  0  0  0  0  0  0  0
  132.6182   54.0711   32.0617 C   0  0  0  0  0  0  0  0  0  0  0  0
  133.9182   54.7711   32.0617 C   0  0  0  0  0  0  0  0  0  0  0  0
  134.9182   53.8711   32.3617 C   0  0  0  0  0  0  0  0  0  0  0  0
  128.4182   51.4711   31.1617 O   0  0  0  0  0  0  0  0  0  0  0  0
  128.8182   52.4711   30.2617 O   0  0  0  0  0  0  0  0  0  0  0  0
  2  1  1  0
  3  1  2  3
  4  3  1  0
  5  4  1  0
  6  5  1  0
  7  6  1  0
  8  2  1  0
  9  8  1  0
M  END
>  <ID>  (1) 
conformer_0

$$$$
