
     RDKit          3D

  9  9  0  0  0  0  0  0  0  0999 V2000
  131.7202   52.0159   32.8969 C   0  0  0  0  0  0  0  0  0  0  0  0
  132.9202   52.7159   33.3969 C   0  0  0  0  0  0  0  0  0  0  0  0
  130.6202   52.9159   32.5969 N   0  0  0  0  0  0  0  0  0  0  0  0
  129.5202   52.1159   32.0969 C   0  0  0  0  0  0  0  0  0  0  0  0
  129.4202   50.7159   32.5969 C   0  0  0  0  0  0  0  0  0  0  0  0
  132.7202   54.1159   32.9969 C   0  0  0  0  0  0  0  0  0  0  0  0
  132.4202   54.3159   31.5969 N   0  0  0  0  0  0  0  0  0  0  0  0
  131.2202   53.6159   31.5969 C   0  0  0  0  0  0  0  0  0  0  0  0
  130.3202   53.9159   30.5969 O   0  0  0  0  0  0  0  0  0  0  0  0
  2  1  1  0
  3  1  1  0
  4  3  1  0
  5  4  1  0
  6  2  1  0
  7  6  1  0
  8  3  1  0
  8  7  1  0
  9  8  2  0
M  END
>  <ID>  (1) 
conformer_0

$$$$
