
     RDKit          3D

  8  8  0  0  0  0  0  0  0  0999 V2000
  131.3114   51.6755   32.9129 C   0  0  0  0  0  0  0  0  0  0  0  0
  132.3114   52.6755   33.3129 C   0  0  0  0  0  0  0  0  0  0  0  0
  130.1115   52.2755   32.3129 N   0  0  0  0  0  0  0  0  0  0  0  0
  129.0114   51.4755   32.0129 C   0  0  0  0  0  0  0  0  0  0  0  0
  130.5114   53.4755   31.6129 C   0  0  0  0  0  0  0  0  0  0  0  0
  132.6115   53.9755   32.9129 C   0  0  0  0  0  0  0  0  0  0  0  0
  131.8114   53.9755   31.4129 C   0  0  0  0  0  0  0  0  0  0  0  0
  128.5114   51.7755   30.7129 O   0  0  0  0  0  0  0  0  0  0  0  0
  2  1  1  0
  3  1  1  0
  4  3  1  0
  5  3  1  0
  6  2  1  0
  7  5  1  0
  7  6  1  0
  8  4  1  0
M  END
>  <ID>  (1) 
conformer_0

$$$$
