
     RDKit          3D

  9  9  0  0  0  0  0  0  0  0999 V2000
  131.7202   52.0159   32.8969 C   0  0  0  0  0  0  0  0  0  0  0  0
  132.9202   52.7159   33.3969 C   0  0  0  0  0  0  0  0  0  0  0  0
  130.5202   52.8159   32.6969 N   0  0  0  0  0  0  0  0  0  0  0  0
  129.4202   52.1159   31.9969 C   0  0  0  0  0  0  0  0  0  0  0  0
  132.8202   54.0159   32.6969 C   0  0  0  0  0  0  0  0  0  0  0  0
  129.3202   50.8159   32.4969 C   0  0  0  0  0  0  0  0  0  0  0  0
  133.8202   54.9159   32.9969 N   0  0  0  0  0  0  0  0  0  0  0  0
  132.2202   54.1159   31.5969 O   0  0  0  0  0  0  0  0  0  0  0  0
  130.8202   53.8159   31.6969 C   0  0  0  0  0  0  0  0  0  0  0  0
  2  1  1  0
  3  1  1  0
  4  3  1  0
  5  2  1  0
  6  4  1  0
  7  5  1  0
  8  5  1  0
  9  3  1  0
  9  8  1  0
M  END
>  <ID>  (1) 
conformer_0

$$$$
