
     RDKit          3D

  4  3  0  0  0  0  0  0  0  0999 V2000
  129.2298   51.2063   32.2588 C   0  0  0  0  0  0  0  0  0  0  0  0
  130.0298   52.3063   32.5588 N   0  0  0  0  0  0  0  0  0  0  0  0
  131.4297   52.0063   32.8588 C   0  0  0  0  0  0  0  0  0  0  0  0
  130.2298   53.3063   31.4588 C   0  0  0  0  0  0  0  0  0  0  0  0
  2  1  1  0
  3  2  1  0
  4  2  1  0
M  END
>  <ID>  (1) 
conformer_0

$$$$
