
     RDKit          3D

 10 10  0  0  0  0  0  0  0  0999 V2000
  130.8640   51.4744   32.6445 C   0  0  0  0  0  0  0  0  0  0  0  0
  129.4640   50.9744   32.4445 C   0  0  0  0  0  0  0  0  0  0  0  0
  130.8640   52.8744   32.7445 N   0  0  0  0  0  0  0  0  0  0  0  0
  131.9640   53.6744   32.4445 C   0  0  0  0  0  0  0  0  0  0  0  0
  128.8640   51.9744   31.5445 C   0  0  0  0  0  0  0  0  0  0  0  0
  129.7639   53.1744   31.8445 C   0  0  0  0  0  0  0  0  0  0  0  0
  132.4640   54.1744   33.5445 O   0  0  0  0  0  0  0  0  0  0  0  0
  132.4640   54.3744   31.2445 C   0  0  0  0  0  0  0  0  0  0  0  0
  133.6640   55.0744   31.0445 C   0  0  0  0  0  0  0  0  0  0  0  0
  131.3640   54.5744   30.3445 O   0  0  0  0  0  0  0  0  0  0  0  0
  2  1  1  0
  3  1  1  0
  4  3  1  0
  5  2  1  0
  6  3  1  0
  6  5  1  0
  7  4  2  0
  8  4  1  0
  9  8  1  0
 10  8  1  0
M  END
>  <ID>  (1) 
conformer_0

$$$$
