
     RDKit          3D

  7  6  0  0  0  0  0  0  0  0999 V2000
  130.8788   51.4482   32.6033 C   0  0  0  0  0  0  0  0  0  0  0  0
  129.4788   51.1482   32.6033 C   0  0  0  0  0  0  0  0  0  0  0  0
  131.2788   52.7482   33.0033 N   0  0  0  0  0  0  0  0  0  0  0  0
  132.2788   53.5482   32.6033 C   0  0  0  0  0  0  0  0  0  0  0  0
  132.6788   54.3482   33.5033 O   0  0  0  0  0  0  0  0  0  0  0  0
  128.8788   51.9482   31.6033 C   0  0  0  0  0  0  0  0  0  0  0  0
  129.2788   52.7482   30.7033 O   0  0  0  0  0  0  0  0  0  0  0  0
  2  1  1  0
  3  1  1  0
  4  3  1  0
  5  4  1  0
  6  2  1  0
  7  6  2  0
M  END
>  <ID>  (1) 
conformer_0

$$$$
