
     RDKit          3D

 10 11  0  0  0  0  0  0  0  0999 V2000
  132.4191   52.2928   33.1126 C   0  0  0  0  0  0  0  0  0  0  0  0
  131.1191   52.6928   32.8126 N   0  0  0  0  0  0  0  0  0  0  0  0
  130.0191   51.9928   32.3126 C   0  0  0  0  0  0  0  0  0  0  0  0
  129.2191   50.8928   32.6126 C   0  0  0  0  0  0  0  0  0  0  0  0
  133.6191   52.9928   33.2126 C   0  0  0  0  0  0  0  0  0  0  0  0
  129.6191   52.5928   31.0126 O   0  0  0  0  0  0  0  0  0  0  0  0
  133.7191   54.3928   32.7126 C   0  0  0  0  0  0  0  0  0  0  0  0
  132.6191   54.4928   31.7126 N   0  0  0  0  0  0  0  0  0  0  0  0
  131.4191   53.8928   31.9126 C   0  0  0  0  0  0  0  0  0  0  0  0
  130.3191   53.7928   30.8126 C   0  0  0  0  0  0  0  0  0  0  0  0
  2  1  1  0
  3  2  1  0
  4  3  1  0
  5  1  2  0
  6  3  1  0
  7  5  1  0
  8  7  1  0
  9  2  1  0
  9  8  1  0
 10  6  1  0
 10  9  1  0
M  END
>  <ID>  (1) 
conformer_0

$$$$
