
     RDKit          3D

  5  4  0  0  0  0  0  0  0  0999 V2000
  129.1850   51.3448   32.5946 C   0  0  0  0  0  0  0  0  0  0  0  0
  130.1850   52.3448   32.4946 N   0  0  0  0  0  0  0  0  0  0  0  0
  131.4850   52.0448   32.7946 C   0  0  0  0  0  0  0  0  0  0  0  0
  132.4850   53.0448   33.1946 C   0  0  0  0  0  0  0  0  0  0  0  0
  132.6850   54.1448   32.2946 C   0  0  0  0  0  0  0  0  0  0  0  0
  2  1  1  0
  3  2  1  0
  4  3  1  0
  5  4  1  0
M  END
>  <ID>  (1) 
conformer_0

$$$$
