
     RDKit          3D

 10  9  0  0  0  0  0  0  0  0999 V2000
  129.2298   51.2063   32.2588 C   0  0  0  0  0  0  0  0  0  0  0  0
  130.6297   51.4063   32.6588 C   0  0  0  0  0  0  0  0  0  0  0  0
  130.9297   52.8063   32.7588 N   0  0  0  0  0  0  0  0  0  0  0  0
  132.2298   53.1063   33.1588 C   0  0  0  0  0  0  0  0  0  0  0  0
  132.7298   52.6063   34.0588 O   0  0  0  0  0  0  0  0  0  0  0  0
  132.9297   54.2063   32.4588 C   0  0  0  0  0  0  0  0  0  0  0  0
  134.3297   54.3063   32.7588 C   0  0  0  0  0  0  0  0  0  0  0  0
  134.8297   55.7063   32.8588 C   0  0  0  0  0  0  0  0  0  0  0  0
  136.0297   55.9063   33.6588 N   0  0  0  0  0  0  0  0  0  0  0  0
  128.6297   51.6063   31.0588 O   0  0  0  0  0  0  0  0  0  0  0  0
  2  1  1  0
  3  2  1  0
  4  3  1  0
  5  4  2  0
  6  4  1  0
  7  6  1  0
  8  7  1  0
  9  8  1  0
 10  1  1  0
M  END
>  <ID>  (1) 
conformer_0

$$$$
