
     RDKit          3D

  8  7  0  0  0  0  0  0  0  0999 V2000
  129.3574   51.7643   32.1047 C   0  0  0  0  0  0  0  0  0  0  0  0
  130.5574   52.3643   32.5047 N   0  0  0  0  0  0  0  0  0  0  0  0
  131.7574   51.9643   33.0047 C   0  0  0  0  0  0  0  0  0  0  0  0
  132.8574   52.8643   33.2047 C   0  0  0  0  0  0  0  0  0  0  0  0
  132.9574   54.1643   32.5047 C   0  0  0  0  0  0  0  0  0  0  0  0
  133.5574   55.1643   33.4047 C   0  0  0  0  0  0  0  0  0  0  0  0
  129.0574   52.2643   30.9047 O   0  0  0  0  0  0  0  0  0  0  0  0
  134.5574   54.4643   34.2047 C   0  0  0  0  0  0  0  0  0  0  0  0
  2  1  1  0
  3  2  2  3
  4  3  1  0
  5  4  1  0
  6  5  1  0
  7  1  1  0
  8  6  1  0
M  END
>  <ID>  (1) 
conformer_0

$$$$
