
     RDKit          3D

 10  9  0  0  0  0  0  0  0  0999 V2000
  129.3574   51.7643   32.1047 C   0  0  0  0  0  0  0  0  0  0  0  0
  130.5574   52.4643   32.6047 N   0  0  0  0  0  0  0  0  0  0  0  0
  131.6574   52.0643   32.9047 C   0  0  0  0  0  0  0  0  0  0  0  0
  132.8574   52.8643   33.3047 C   0  0  0  0  0  0  0  0  0  0  0  0
  132.8574   54.1643   32.6047 C   0  0  0  0  0  0  0  0  0  0  0  0
  128.9574   51.9643   31.0047 O   0  0  0  0  0  0  0  0  0  0  0  0
  129.1574   50.5643   32.7047 C   0  0  0  0  0  0  0  0  0  0  0  0
  133.8574   54.9643   33.1047 N   0  0  0  0  0  0  0  0  0  0  0  0
  134.5574   55.9643   32.4047 C   0  0  0  0  0  0  0  0  0  0  0  0
  134.5574   54.4643   34.3047 C   0  0  0  0  0  0  0  0  0  0  0  0
  2  1  1  0
  3  2  2  3
  4  3  1  0
  5  4  1  0
  6  1  2  0
  7  1  1  0
  8  5  1  0
  9  8  1  0
 10  8  1  0
M  END
>  <ID>  (1) 
conformer_0

$$$$
