
     RDKit          3D

  5  4  0  0  0  0  0  0  0  0999 V2000
  129.1663   51.3498   32.2789 C   0  0  0  0  0  0  0  0  0  0  0  0
  130.2663   52.3498   32.4789 N   0  0  0  0  0  0  0  0  0  0  0  0
  131.4663   51.8498   32.7789 C   0  0  0  0  0  0  0  0  0  0  0  0
  132.5663   52.6498   33.3789 C   0  0  0  0  0  0  0  0  0  0  0  0
  130.1663   53.3498   31.3789 C   0  0  0  0  0  0  0  0  0  0  0  0
  2  1  1  0
  3  2  1  0
  4  3  1  0
  5  2  1  0
M  END
>  <ID>  (1) 
conformer_0

$$$$
