
     RDKit          3D

 11 11  0  0  0  0  0  0  0  0999 V2000
  129.1850   51.3448   32.5946 C   0  0  0  0  0  0  0  0  0  0  0  0
  130.1850   52.3448   32.4946 N   0  0  0  0  0  0  0  0  0  0  0  0
  131.4850   52.0448   32.7946 C   0  0  0  0  0  0  0  0  0  0  0  0
  132.3850   53.0448   33.1946 C   0  0  0  0  0  0  0  0  0  0  0  0
  133.7850   52.6448   33.4946 C   0  0  0  0  0  0  0  0  0  0  0  0
  130.1850   53.3448   31.3946 C   0  0  0  0  0  0  0  0  0  0  0  0
  132.3850   54.2448   32.2946 C   0  0  0  0  0  0  0  0  0  0  0  0
  131.3850   54.1448   31.1946 C   0  0  0  0  0  0  0  0  0  0  0  0
  128.4850   51.3448   31.4946 O   0  0  0  0  0  0  0  0  0  0  0  0
  129.5850   49.9448   32.8946 C   0  0  0  0  0  0  0  0  0  0  0  0
  134.5850   52.9448   34.5946 N   0  0  0  0  0  0  0  0  0  0  0  0
  2  1  1  0
  3  2  1  0
  4  3  1  0
  5  4  1  0
  6  2  1  0
  7  4  1  0
  8  6  1  0
  8  7  1  0
  9  1  1  0
 10  1  1  0
 11  5  1  0
M  END
>  <ID>  (1) 
conformer_0

$$$$
