
     RDKit          3D

  9  8  0  0  0  0  0  0  0  0999 V2000
  129.3574   51.7643   32.1047 C   0  0  0  0  0  0  0  0  0  0  0  0
  130.5574   52.4643   32.6047 N   0  0  0  0  0  0  0  0  0  0  0  0
  131.6574   52.0643   32.9047 C   0  0  0  0  0  0  0  0  0  0  0  0
  132.8574   52.8643   33.3047 C   0  0  0  0  0  0  0  0  0  0  0  0
  132.9574   54.1643   32.6047 C   0  0  0  0  0  0  0  0  0  0  0  0
  129.2574   50.4643   32.6047 C   0  0  0  0  0  0  0  0  0  0  0  0
  133.9574   54.9643   33.3047 N   0  0  0  0  0  0  0  0  0  0  0  0
  133.7574   56.3643   33.5047 C   0  0  0  0  0  0  0  0  0  0  0  0
  134.8574   54.1643   34.1047 C   0  0  0  0  0  0  0  0  0  0  0  0
  2  1  1  0
  3  2  2  3
  4  3  1  0
  5  4  1  0
  6  1  1  0
  7  5  1  0
  8  7  1  0
  9  7  1  0
M  END
>  <ID>  (1) 
conformer_0

$$$$
