
     RDKit          3D

  6  5  0  0  0  0  0  0  0  0999 V2000
  128.9700   51.6071   32.2531 C   0  0  0  0  0  0  0  0  0  0  0  0
  130.3700   51.4071   32.5531 C   0  0  0  0  0  0  0  0  0  0  0  0
  131.0700   52.6071   32.9531 N   0  0  0  0  0  0  0  0  0  0  0  0
  132.3700   52.5071   33.2531 C   0  0  0  0  0  0  0  0  0  0  0  0
  133.3700   53.6071   33.1531 C   0  0  0  0  0  0  0  0  0  0  0  0
  132.8700   54.3071   31.9531 C   0  0  0  0  0  0  0  0  0  0  0  0
  2  1  1  0
  3  2  1  0
  4  3  1  0
  5  4  1  0
  6  5  1  0
M  END
>  <ID>  (1) 
conformer_0

$$$$
