
     RDKit          3D

  6  5  0  0  0  0  0  0  0  0999 V2000
  130.5081   51.5622   32.6629 C   0  0  0  0  0  0  0  0  0  0  0  0
  129.3081   50.9622   32.5629 C   0  0  0  0  0  0  0  0  0  0  0  0
  130.6081   52.9622   32.4629 N   0  0  0  0  0  0  0  0  0  0  0  0
  131.9081   53.5622   32.5629 C   0  0  0  0  0  0  0  0  0  0  0  0
  129.8081   53.2622   31.4629 C   0  0  0  0  0  0  0  0  0  0  0  0
  129.0081   52.4622   30.6629 O   0  0  0  0  0  0  0  0  0  0  0  0
  2  1  2  0
  3  1  1  0
  4  3  1  0
  5  3  1  0
  6  5  1  0
M  END
>  <ID>  (1) 
conformer_0

$$$$
