
     RDKit          3D

 11 11  0  0  0  0  0  0  0  0999 V2000
  129.1663   51.3498   32.2789 C   0  0  0  0  0  0  0  0  0  0  0  0
  130.2663   52.3498   32.4789 N   0  0  0  0  0  0  0  0  0  0  0  0
  131.4663   51.8498   32.7789 C   0  0  0  0  0  0  0  0  0  0  0  0
  132.5663   52.4498   33.4789 C   0  0  0  0  0  0  0  0  0  0  0  0
  132.8663   53.7498   32.8789 C   0  0  0  0  0  0  0  0  0  0  0  0
  132.0663   53.9498   31.6789 C   0  0  0  0  0  0  0  0  0  0  0  0
  130.7663   53.2498   31.8789 C   0  0  0  0  0  0  0  0  0  0  0  0
  134.2663   54.0498   32.7789 N   0  0  0  0  0  0  0  0  0  0  0  0
  135.0663   52.8498   33.1789 C   0  0  0  0  0  0  0  0  0  0  0  0
  134.9663   55.3498   32.7789 C   0  0  0  0  0  0  0  0  0  0  0  0
  136.0663   55.1498   32.1789 O   0  0  0  0  0  0  0  0  0  0  0  0
  2  1  1  0
  3  2  1  0
  4  3  1  0
  5  4  1  0
  6  5  1  0
  7  2  1  0
  7  6  1  0
  8  5  1  0
  9  8  1  0
 10  8  1  0
 11 10  1  0
M  END
>  <ID>  (1) 
conformer_0

$$$$
