
     RDKit          3D

  5  5  0  0  0  0  0  0  0  0999 V2000
  129.7009   51.0991   32.6365 C   0  0  0  0  0  0  0  0  0  0  0  0
  130.0009   52.3991   32.4365 N   0  0  0  0  0  0  0  0  0  0  0  0
  131.0009   53.0991   32.1365 C   0  0  0  0  0  0  0  0  0  0  0  0
  132.3009   53.6991   32.5365 C   0  0  0  0  0  0  0  0  0  0  0  0
  129.1009   51.7991   31.5365 C   0  0  0  0  0  0  0  0  0  0  0  0
  2  1  1  0
  3  2  1  0
  4  3  1  0
  5  1  1  0
  5  2  1  0
M  END
>  <ID>  (1) 
conformer_0

$$$$
