
     RDKit          3D

  7  6  0  0  0  0  0  0  0  0999 V2000
  130.0761   52.4572   32.3337 N   0  0  0  0  0  0  0  0  0  0  0  0
  129.2761   51.2572   32.3337 C   0  0  0  0  0  0  0  0  0  0  0  0
  131.3761   52.2572   32.7337 C   0  0  0  0  0  0  0  0  0  0  0  0
  132.3761   53.2572   33.1337 C   0  0  0  0  0  0  0  0  0  0  0  0
  133.6761   52.7572   33.5337 C   0  0  0  0  0  0  0  0  0  0  0  0
  134.2761   53.7572   34.4337 C   0  0  0  0  0  0  0  0  0  0  0  0
  131.6761   51.0572   33.2337 C   0  0  0  0  0  0  0  0  0  0  0  0
  2  1  1  0
  3  1  1  0
  4  3  1  0
  5  4  1  0
  6  5  1  0
  7  3  2  0
M  END
>  <ID>  (1) 
conformer_0

$$$$
