
     RDKit          3D

 11 13  0  0  0  0  0  0  0  0999 V2000
  131.0552   52.0314   32.9093 C   0  0  0  0  0  0  0  0  0  0  0  0
  129.8552   51.4314   32.4093 C   0  0  0  0  0  0  0  0  0  0  0  0
  128.6552   52.0314   32.7093 O   0  0  0  0  0  0  0  0  0  0  0  0
  131.6552   53.3314   32.5093 C   0  0  0  0  0  0  0  0  0  0  0  0
  132.9552   53.5314   33.1093 C   0  0  0  0  0  0  0  0  0  0  0  0
  133.3552   54.8314   33.6093 N   0  0  0  0  0  0  0  0  0  0  0  0
  131.2552   53.8314   31.3093 C   0  0  0  0  0  0  0  0  0  0  0  0
  129.2552   52.5314   31.6093 C   0  0  0  0  0  0  0  0  0  0  0  0
  129.9552   53.4314   30.7093 C   0  0  0  0  0  0  0  0  0  0  0  0
  134.6552   54.8314   34.3093 C   0  0  0  0  0  0  0  0  0  0  0  0
  133.6552   54.4314   32.2093 C   0  0  0  0  0  0  0  0  0  0  0  0
  2  1  1  0
  3  2  1  0
  4  1  1  0
  5  4  1  0
  6  5  1  0
  7  4  1  0
  8  2  1  0
  8  3  1  0
  9  7  1  0
  9  8  1  0
 10  6  1  0
 11  5  1  0
 11  6  1  0
M  END
>  <ID>  (1) 
conformer_0

$$$$
