
     RDKit          3D

  7  6  0  0  0  0  0  0  0  0999 V2000
  130.8640   51.4744   32.6445 C   0  0  0  0  0  0  0  0  0  0  0  0
  129.5639   50.8744   32.5445 C   0  0  0  0  0  0  0  0  0  0  0  0
  130.9640   52.7744   32.9445 N   0  0  0  0  0  0  0  0  0  0  0  0
  132.2640   53.2744   32.9445 C   0  0  0  0  0  0  0  0  0  0  0  0
  132.6640   54.1744   33.6445 O   0  0  0  0  0  0  0  0  0  0  0  0
  128.7639   51.8744   31.8445 C   0  0  0  0  0  0  0  0  0  0  0  0
  129.3640   52.4744   30.7445 O   0  0  0  0  0  0  0  0  0  0  0  0
  2  1  1  0
  3  1  1  0
  4  3  1  0
  5  4  2  0
  6  2  1  0
  7  6  1  0
M  END
>  <ID>  (1) 
conformer_0

$$$$
