
     RDKit          3D

  9  9  0  0  0  0  0  0  0  0999 V2000
  130.0761   52.4572   32.3337 N   0  0  0  0  0  0  0  0  0  0  0  0
  129.3761   51.2572   32.4337 C   0  0  0  0  0  0  0  0  0  0  0  0
  131.3761   52.2572   32.7337 C   0  0  0  0  0  0  0  0  0  0  0  0
  132.3761   53.3572   32.8337 C   0  0  0  0  0  0  0  0  0  0  0  0
  133.6761   52.9572   33.4337 C   0  0  0  0  0  0  0  0  0  0  0  0
  134.7761   53.8572   33.0337 C   0  0  0  0  0  0  0  0  0  0  0  0
  134.0761   54.9572   32.4337 N   0  0  0  0  0  0  0  0  0  0  0  0
  132.6761   54.4572   31.9337 C   0  0  0  0  0  0  0  0  0  0  0  0
  128.6761   51.0572   33.3337 N   0  0  0  0  0  0  0  0  0  0  0  0
  2  1  1  0
  3  1  1  0
  4  3  1  0
  5  4  1  0
  6  5  1  0
  7  6  1  0
  8  4  1  0
  8  7  1  0
  9  2  2  0
M  END
>  <ID>  (1) 
conformer_0

$$$$
