
     RDKit          3D

  9  8  0  0  0  0  0  0  0  0999 V2000
  130.0632   51.2491   32.4507 C   0  0  0  0  0  0  0  0  0  0  0  0
  130.7632   52.4491   32.7507 N   0  0  0  0  0  0  0  0  0  0  0  0
  132.0632   52.4491   33.0507 C   0  0  0  0  0  0  0  0  0  0  0  0
  133.0632   53.5491   33.2507 C   0  0  0  0  0  0  0  0  0  0  0  0
  133.1633   54.3491   32.0507 C   0  0  0  0  0  0  0  0  0  0  0  0
  128.8633   51.5491   31.6507 C   0  0  0  0  0  0  0  0  0  0  0  0
  133.6633   55.6491   32.0507 C   0  0  0  0  0  0  0  0  0  0  0  0
  134.3633   55.8491   33.3507 C   0  0  0  0  0  0  0  0  0  0  0  0
  132.6633   51.3491   33.2507 O   0  0  0  0  0  0  0  0  0  0  0  0
  2  1  1  0
  3  2  1  0
  4  3  1  0
  5  4  1  0
  6  1  1  0
  7  5  1  0
  8  7  1  0
  9  3  2  0
M  END
>  <ID>  (1) 
conformer_0

$$$$
