
     RDKit          3D

  6  6  0  0  0  0  0  0  0  0999 V2000
  128.8526   51.6812   31.7324 C   0  0  0  0  0  0  0  0  0  0  0  0
  129.6526   50.8812   32.6324 C   0  0  0  0  0  0  0  0  0  0  0  0
  130.9527   51.5812   32.7324 C   0  0  0  0  0  0  0  0  0  0  0  0
  130.7527   52.9812   32.6324 N   0  0  0  0  0  0  0  0  0  0  0  0
  130.2527   53.5812   31.4324 C   0  0  0  0  0  0  0  0  0  0  0  0
  129.5526   52.4812   30.8324 O   0  0  0  0  0  0  0  0  0  0  0  0
  2  1  1  0
  3  2  1  0
  4  3  1  0
  5  4  1  0
  6  1  1  0
  6  5  1  0
M  END
>  <ID>  (1) 
conformer_0

$$$$
