
     RDKit          3D

 10 11  0  0  0  0  0  0  0  0999 V2000
  129.7009   51.0991   32.6365 C   0  0  0  0  0  0  0  0  0  0  0  0
  130.0009   52.2991   32.3365 N   0  0  0  0  0  0  0  0  0  0  0  0
  130.9009   53.1991   32.1365 C   0  0  0  0  0  0  0  0  0  0  0  0
  132.2009   53.0991   32.8365 C   0  0  0  0  0  0  0  0  0  0  0  0
  133.1009   54.1991   32.5365 C   0  0  0  0  0  0  0  0  0  0  0  0
  132.8009   54.5991   31.1365 C   0  0  0  0  0  0  0  0  0  0  0  0
  131.3009   53.9991   31.0365 N   0  0  0  0  0  0  0  0  0  0  0  0
  133.5009   55.1991   33.5365 C   0  0  0  0  0  0  0  0  0  0  0  0
  132.2009   51.6991   33.3365 C   0  0  0  0  0  0  0  0  0  0  0  0
  128.9009   51.6991   31.7365 C   0  0  0  0  0  0  0  0  0  0  0  0
  2  1  1  0
  3  2  1  0
  4  3  1  0
  5  4  1  0
  6  5  1  0
  7  3  1  0
  7  6  1  0
  8  5  1  0
  9  4  1  0
 10  1  1  0
 10  2  1  0
M  END
>  <ID>  (1) 
conformer_0

$$$$
