
     RDKit          3D

 21 23  0  0  0  0  0  0  0  0999 V2000
  -10.5196   -7.1160    4.1633 C   0  0  0  0  0  0  0  0  0  0  0  0
  -21.9121   -7.7012    4.7901 C   0  0  0  0  0  0  0  0  0  0  0  0
  -16.3708   -5.8105    4.6510 C   0  0  0  0  0  0  0  0  0  0  0  0
  -20.8862   -8.4492    3.9796 C   0  0  0  0  0  0  0  0  0  0  0  0
  -17.0953   -4.5678    4.4507 C   0  0  0  0  0  0  0  0  0  0  0  0
  -12.3000   -5.7809    2.9145 O   0  0  0  0  0  0  0  0  0  0  0  0
  -19.2918   -5.6394    4.7419 N   0  0  0  0  0  0  0  0  0  0  0  0
  -18.4789   -4.5372    4.6075 C   0  0  0  0  0  0  0  0  0  0  0  0
  -11.5903   -6.1613    4.0300 C   0  0  0  0  0  0  0  0  0  0  0  0
  -13.7054   -6.0391    3.0975 C   0  0  0  0  0  0  0  0  0  0  0  0
  -18.7292   -6.9067    4.6037 C   0  0  0  0  0  0  0  0  0  0  0  0
  -14.9407   -5.3955    5.0817 C   0  0  0  0  0  0  0  0  0  0  0  0
  -13.8986   -6.3467    4.5595 C   0  0  0  0  0  0  0  0  0  0  0  0
  -17.3230   -6.9232    4.5924 C   0  0  0  0  0  0  0  0  0  0  0  0
  -12.2136   -6.9424    6.2068 O   0  0  0  0  0  0  0  0  0  0  0  0
  -19.5783   -7.8798    3.9524 C   0  0  0  0  0  0  0  0  0  0  0  0
  -21.2033   -6.6821    5.5848 C   0  0  0  0  0  0  0  0  0  0  0  0
  -20.7319   -5.5623    4.6258 C   0  0  0  0  0  0  0  0  0  0  0  0
  -12.5489   -6.1388    5.1463 C   0  0  0  0  0  0  0  0  0  0  0  0
  -20.6193   -6.3324    6.9544 C   0  0  0  0  0  0  0  0  0  0  0  0
  -14.4231   -7.5913    4.8563 O   0  0  0  0  0  0  0  0  0  0  0  0
  1  9  1  0
  2  4  1  0
  2 17  1  0
  3  5  1  0
  3 12  1  0
  3 14  1  0
  4 16  2  0
  5  8  2  0
  6  9  1  0
  6 10  1  0
  7  8  1  0
  7 11  1  0
  7 18  1  0
  9 19  1  0
 10 13  1  0
 11 14  1  0
 11 16  1  0
 12 13  1  0
 13 19  1  0
 13 21  1  0
 15 19  1  0
 17 18  1  0
 17 20  1  0
M  END
>  <ID>  (1) 
conformer_0

$$$$
