
     RDKit          3D

 12 12  0  0  0  0  0  0  0  0999 V2000
  -17.7123   -5.8036    5.4507 C   0  0  0  0  0  0  0  0  0  0  0  0
  -15.8862   -6.2200    3.7828 O   0  0  0  0  0  0  0  0  0  0  0  0
  -12.6692   -5.9862    5.3878 C   0  0  0  0  0  0  0  0  0  0  0  0
  -15.1835   -5.8105    5.7801 C   0  0  0  0  0  0  0  0  0  0  0  0
  -11.7098   -6.6266    4.4213 C   0  0  0  0  0  0  0  0  0  0  0  0
  -14.5177   -6.2931    3.8000 N   0  0  0  0  0  0  0  0  0  0  0  0
  -11.8516   -6.4404    3.0314 C   0  0  0  0  0  0  0  0  0  0  0  0
  -14.1059   -6.0280    5.0121 C   0  0  0  0  0  0  0  0  0  0  0  0
  -17.9029   -5.6995    6.6605 O   0  0  0  0  0  0  0  0  0  0  0  0
  -16.3124   -5.9342    5.0076 C   0  0  0  0  0  0  0  0  0  0  0  0
  -18.6653   -5.7398    4.4234 C   0  0  0  0  0  0  0  0  0  0  0  0
  -10.9113   -7.4130    4.8594 O   0  0  0  0  0  0  0  0  0  0  0  0
  1  9  2  0
  1 10  1  0
  1 11  1  0
  2  6  1  0
  2 10  1  0
  3  5  1  0
  3  8  1  0
  4  8  1  0
  4 10  1  0
  5  7  1  0
  5 12  2  0
  6  8  1  0
M  END
>  <ID>  (1) 
conformer_0

$$$$
