
     RDKit          3D

 35 35  0  0  0  0  0  0  0  0999 V2000
  -12.5610   -6.7642    5.8587 N   0  0  0  0  0  0  0  0  0  0  0  0
  -18.8271   -5.2510    5.4617 C   0  0  0  0  0  0  0  0  0  0  0  0
  -11.9260   -1.7047   -2.9148 N   0  0  0  0  0  0  0  0  0  0  0  0
  -24.9154   -3.2190    1.5924 C   0  0  0  0  0  0  0  0  0  0  0  0
  -22.5386   -7.2210    5.4407 C   0  0  0  0  0  0  0  0  0  0  0  0
  -21.3597   -5.3530    4.3436 C   0  0  0  0  0  0  0  0  0  0  0  0
  -25.6554   -1.9640    1.5339 C   0  0  0  0  0  0  0  0  0  0  0  0
  -24.7218   -0.8438    2.0488 C   0  0  0  0  0  0  0  0  0  0  0  0
  -22.4133   -9.3766    6.7214 O   0  0  0  0  0  0  0  0  0  0  0  0
  -23.8180   -3.2744    2.7052 C   0  0  0  0  0  0  0  0  0  0  0  0
  -16.8165   -5.8915    4.0909 C   0  0  0  0  0  0  0  0  0  0  0  0
  -11.3908   -6.1243    2.6683 N   0  0  0  0  0  0  0  0  0  0  0  0
  -12.7342   -6.4569    4.5772 C   0  0  0  0  0  0  0  0  0  0  0  0
  -13.8613   -6.0847    3.9457 N   0  0  0  0  0  0  0  0  0  0  0  0
  -12.0587   -3.5139    0.1912 C   0  0  0  0  0  0  0  0  0  0  0  0
  -26.1840   -0.1025    0.1616 C   0  0  0  0  0  0  0  0  0  0  0  0
  -22.8759   -5.2273    4.1375 C   0  0  0  0  0  0  0  0  0  0  0  0
  -25.2218    0.3087    2.3842 C   0  0  0  0  0  0  0  0  0  0  0  0
  -23.5647   -6.3483    4.8525 C   0  0  0  0  0  0  0  0  0  0  0  0
  -24.1565   -7.8865    7.2688 O   0  0  0  0  0  0  0  0  0  0  0  0
  -15.2274   -6.7733    5.5296 C   0  0  0  0  0  0  0  0  0  0  0  0
  -11.4752   -6.5326    3.8131 C   0  0  0  0  0  0  0  0  0  0  0  0
  -20.0470   -7.2087    4.8139 C   0  0  0  0  0  0  0  0  0  0  0  0
  -23.4754   -4.7180    2.9253 C   0  0  0  0  0  0  0  0  0  0  0  0
  -11.7297   -2.1892   -1.7077 C   0  0  0  0  0  0  0  0  0  0  0  0
  -12.0587   -3.4710   -1.1266 C   0  0  0  0  0  0  0  0  0  0  0  0
  -19.5736   -5.7399    4.1144 C   0  0  0  0  0  0  0  0  0  0  0  0
  -25.8045    0.4888    1.2792 C   0  0  0  0  0  0  0  0  0  0  0  0
  -15.2375   -6.0658    4.3440 C   0  0  0  0  0  0  0  0  0  0  0  0
  -21.9531   -7.2712    7.8673 O   0  0  0  0  0  0  0  0  0  0  0  0
  -17.5679   -6.1838    5.4145 C   0  0  0  0  0  0  0  0  0  0  0  0
  -11.9974   -4.6235    0.8474 N   0  0  0  0  0  0  0  0  0  0  0  0
  -22.7409   -7.9652    6.8999 C   0  0  0  0  0  0  0  0  0  0  0  0
  -21.2610   -6.4686    5.3557 N   0  0  0  0  0  0  0  0  0  0  0  0
  -12.0611   -5.2889    1.9734 N   0  0  0  0  0  0  0  0  0  0  0  0
  1 13  2  0
  2 27  1  0
  2 31  1  0
  3 25  2  0
  4  7  1  0
  4 10  1  0
  5 19  1  0
  5 33  1  0
  5 34  1  0
  6 17  1  0
  6 34  1  0
  7  8  1  0
  8 18  1  0
  9 33  1  0
 10 24  1  0
 11 29  1  0
 11 31  1  0
 12 22  1  0
 12 35  2  3
 13 14  1  0
 13 22  1  0
 14 29  2  3
 15 26  1  0
 15 32  2  3
 16 28  2  0
 17 19  1  0
 17 24  1  0
 18 28  1  0
 20 33  1  0
 21 29  1  0
 23 27  1  0
 23 34  1  0
 25 26  1  0
 30 33  1  0
 32 35  1  0
M  END
>  <ID>  (1) 
conformer_0

$$$$
