
     RDKit          3D

 11 11  0  0  0  0  0  0  0  0999 V2000
  -18.2249   -6.2916    4.0238 C   0  0  0  0  0  0  0  0  0  0  0  0
  -16.6429   -6.0632    5.8327 S   0  0  0  0  0  0  0  0  0  0  0  0
  -16.9236   -6.1800    3.4964 C   0  0  0  0  0  0  0  0  0  0  0  0
  -11.7895   -6.2466    5.9240 O   0  0  0  0  0  0  0  0  0  0  0  0
  -12.2725   -6.4664    4.8068 C   0  0  0  0  0  0  0  0  0  0  0  0
  -19.3901   -6.4406    3.2667 C   0  0  0  0  0  0  0  0  0  0  0  0
  -15.9747   -6.0074    4.4825 C   0  0  0  0  0  0  0  0  0  0  0  0
  -18.1402   -6.2490    5.4224 C   0  0  0  0  0  0  0  0  0  0  0  0
  -11.6308   -6.7093    3.7568 O   0  0  0  0  0  0  0  0  0  0  0  0
  -14.6235   -5.7724    4.2857 O   0  0  0  0  0  0  0  0  0  0  0  0
  -13.7357   -6.6653    4.8010 C   0  0  0  0  0  0  0  0  0  0  0  0
  1  3  1  0
  1  6  1  0
  1  8  1  0
  2  7  1  0
  2  8  1  0
  3  7  1  0
  4  5  2  0
  5  9  1  0
  5 11  1  0
  7 10  1  0
 10 11  1  0
M  END
>  <ID>  (1) 
conformer_0

$$$$
