
     RDKit          3D

  6  5  0  0  0  0  0  0  0  0999 V2000
  -12.4543   -6.6732    3.7454 O   0  0  0  0  0  0  0  0  0  0  0  0
  -16.1655   -6.1987    6.2006 O   0  0  0  0  0  0  0  0  0  0  0  0
  -13.1484   -6.3636    4.7554 C   0  0  0  0  0  0  0  0  0  0  0  0
  -15.6006   -6.9191    5.0891 C   0  0  0  0  0  0  0  0  0  0  0  0
  -12.7934   -6.5713    5.9056 O   0  0  0  0  0  0  0  0  0  0  0  0
  -14.5992   -5.8681    4.4403 C   0  0  0  0  0  0  0  0  0  0  0  0
  1  3  2  0
  2  4  1  0
  3  5  1  0
  3  6  1  0
  4  6  1  0
M  END
>  <ID>  (1) 
conformer_0

$$$$
