
     RDKit          3D

 11 11  0  0  0  0  0  0  0  0999 V2000
  -18.1001   -6.2496    5.6901 C   0  0  0  0  0  0  0  0  0  0  0  0
  -12.1699   -6.5438    4.4820 C   0  0  0  0  0  0  0  0  0  0  0  0
  -16.7669   -6.2812    5.9934 C   0  0  0  0  0  0  0  0  0  0  0  0
  -15.8226   -6.3050    4.9582 C   0  0  0  0  0  0  0  0  0  0  0  0
  -17.5658   -6.2583    3.3644 C   0  0  0  0  0  0  0  0  0  0  0  0
  -14.4011   -6.2758    5.2400 C   0  0  0  0  0  0  0  0  0  0  0  0
  -13.5430   -6.4890    4.1003 N   0  0  0  0  0  0  0  0  0  0  0  0
  -11.8200   -5.9261    5.4712 O   0  0  0  0  0  0  0  0  0  0  0  0
  -11.4571   -7.3323    3.8230 O   0  0  0  0  0  0  0  0  0  0  0  0
  -16.2250   -6.3247    3.6426 C   0  0  0  0  0  0  0  0  0  0  0  0
  -18.5085   -6.2173    4.3792 C   0  0  0  0  0  0  0  0  0  0  0  0
  1  3  2  0
  1 11  1  0
  2  7  1  0
  2  8  2  0
  2  9  1  0
  3  4  1  0
  4  6  1  0
  4 10  2  0
  5 10  1  0
  5 11  2  0
  6  7  1  0
M  END
>  <ID>  (1) 
conformer_0

$$$$
