
     RDKit          3D

 18 19  0  0  0  0  0  0  0  0999 V2000
  -20.0356   -5.2037    4.9826 C   0  0  0  0  0  0  0  0  0  0  0  0
  -17.6479   -4.7613    5.0888 O   0  0  0  0  0  0  0  0  0  0  0  0
  -15.2840   -5.1086    5.2867 C   0  0  0  0  0  0  0  0  0  0  0  0
  -21.3209   -7.1753    4.4858 C   0  0  0  0  0  0  0  0  0  0  0  0
  -18.7454   -5.5993    4.8024 C   0  0  0  0  0  0  0  0  0  0  0  0
  -19.0406   -7.9237    4.0126 C   0  0  0  0  0  0  0  0  0  0  0  0
  -11.4401   -6.5990    4.8336 C   0  0  0  0  0  0  0  0  0  0  0  0
  -12.4218   -6.8398    3.9024 N   0  0  0  0  0  0  0  0  0  0  0  0
  -18.2593   -6.8500    4.3710 C   0  0  0  0  0  0  0  0  0  0  0  0
  -16.5233   -5.5916    4.8806 C   0  0  0  0  0  0  0  0  0  0  0  0
  -16.8778   -6.8252    4.3895 C   0  0  0  0  0  0  0  0  0  0  0  0
  -11.8024   -5.9547    5.9777 N   0  0  0  0  0  0  0  0  0  0  0  0
  -21.2217   -5.8796    4.8804 C   0  0  0  0  0  0  0  0  0  0  0  0
  -14.1630   -5.6670    5.0600 C   0  0  0  0  0  0  0  0  0  0  0  0
  -12.1280   -7.5067    2.8827 N   0  0  0  0  0  0  0  0  0  0  0  0
  -13.6728   -6.4844    4.1869 C   0  0  0  0  0  0  0  0  0  0  0  0
  -10.2142   -6.9450    4.7112 O   0  0  0  0  0  0  0  0  0  0  0  0
  -20.3862   -8.0438    4.0908 C   0  0  0  0  0  0  0  0  0  0  0  0
  1  5  1  0
  1 13  2  0
  2  5  1  0
  2 10  1  0
  3 10  2  3
  3 14  1  0
  4 13  1  0
  4 18  2  0
  5  9  1  0
  6  9  2  0
  6 18  1  0
  7  8  1  0
  7 12  1  0
  7 17  2  0
  8 15  1  0
  8 16  1  0
  9 11  1  0
 10 11  1  0
 14 16  2  3
M  END
>  <ID>  (1) 
conformer_0

$$$$
