
     RDKit          3D

 29 30  0  0  0  0  0  0  0  0999 V2000
  -18.7348   -6.0479    4.5767 C   0  0  0  0  0  0  0  0  0  0  0  0
  -21.6657   -2.8070    3.4200 O   0  0  0  0  0  0  0  0  0  0  0  0
  -25.2945   -7.7389    5.3580 N   0  0  0  0  0  0  0  0  0  0  0  0
  -12.9026   -6.4075    4.5389 C   0  0  0  0  0  0  0  0  0  0  0  0
  -11.5400   -7.0619    2.7411 N   0  0  0  0  0  0  0  0  0  0  0  0
  -10.5521   -6.8253    4.9334 N   0  0  0  0  0  0  0  0  0  0  0  0
  -20.9387   -5.3852    4.4551 C   0  0  0  0  0  0  0  0  0  0  0  0
  -14.0645   -6.2233    5.1594 N   0  0  0  0  0  0  0  0  0  0  0  0
  -24.0844   -8.2256    5.8731 C   0  0  0  0  0  0  0  0  0  0  0  0
  -20.0532   -6.4689    4.7541 C   0  0  0  0  0  0  0  0  0  0  0  0
  -18.7275   -4.7281    4.1811 O   0  0  0  0  0  0  0  0  0  0  0  0
  -23.3463   -6.0008    4.9362 C   0  0  0  0  0  0  0  0  0  0  0  0
  -26.1233   -8.6979    4.9286 O   0  0  0  0  0  1  0  0  0  0  0  0
  -20.1300   -4.3344    4.1213 C   0  0  0  0  0  0  0  0  0  0  0  0
  -16.2635   -5.9904    3.9937 C   0  0  0  0  0  0  0  0  0  0  0  0
  -11.9522   -6.2850    6.6308 N   0  0  0  0  0  0  0  0  0  0  0  0
  -21.7974   -8.1011    5.7878 C   0  0  0  0  0  0  0  0  0  0  0  0
  -22.3365   -5.2417    4.4133 O   0  0  0  0  0  0  0  0  0  0  0  0
  -15.1977   -5.5268    4.8869 C   0  0  0  0  0  0  0  0  0  0  0  0
  -19.5081   -2.0380    3.8043 C   0  0  0  0  0  0  0  0  0  0  0  0
   -9.2821   -7.6279    3.1288 N   0  0  0  0  0  0  0  0  0  0  0  0
  -12.6855   -6.6580    3.2115 C   0  0  0  0  0  0  0  0  0  0  0  0
  -17.3575   -6.8599    4.7736 S   0  0  0  0  0  0  0  0  0  0  0  0
  -20.5543   -2.9832    3.7479 C   0  0  0  0  0  0  0  0  0  0  0  0
  -11.7438   -6.4768    5.3762 C   0  0  0  0  0  0  0  0  0  0  0  0
  -25.7476   -6.5301    5.5191 O   0  0  0  0  0  1  0  0  0  0  0  0
  -21.5577   -8.7924    4.6298 O   0  0  0  0  0  0  0  0  0  0  0  0
  -22.9441   -7.1849    5.7944 C   0  0  0  0  0  0  0  0  0  0  0  0
  -10.4339   -7.1895    3.6324 C   0  0  0  0  0  0  0  0  0  0  0  0
  1 10  1  0
  1 11  1  0
  1 23  1  0
  2 24  2  0
  3  9  1  0
  3 13  1  0
  3 26  1  0
  4  8  1  0
  4 22  1  0
  4 25  1  0
  5 22  2  0
  5 29  1  0
  6 25  1  0
  6 29  1  0
  7 10  1  0
  7 14  2  0
  7 18  1  0
  8 19  1  0
  9 28  1  0
 11 14  1  0
 12 18  1  0
 12 28  1  0
 14 24  1  0
 15 19  1  0
 15 23  1  0
 16 25  2  0
 17 27  1  0
 17 28  1  0
 20 24  1  0
 21 29  2  0
M  END
>  <ID>  (1) 
conformer_0

$$$$
