
     RDKit          3D

 15 15  0  0  0  0  0  0  0  0999 V2000
  -12.0239   -6.5705    2.7873 N   0  0  0  0  0  0  0  0  0  0  0  0
  -20.1231   -5.6593    5.7324 C   0  0  0  0  0  0  0  0  0  0  0  0
  -17.5788   -6.6610    5.4497 C   0  0  0  0  0  0  0  0  0  0  0  0
  -20.0269   -7.1352    5.1918 C   0  0  0  0  0  0  0  0  0  0  0  0
  -13.8325   -6.1533    4.5155 C   0  0  0  0  0  0  0  0  0  0  0  0
  -18.6652   -7.1404    4.4160 C   0  0  0  0  0  0  0  0  0  0  0  0
  -16.2011   -5.0351    4.2200 C   0  0  0  0  0  0  0  0  0  0  0  0
  -14.9360   -6.8132    5.2627 C   0  0  0  0  0  0  0  0  0  0  0  0
  -19.5265   -4.8024    4.5722 C   0  0  0  0  0  0  0  0  0  0  0  0
  -12.4941   -6.2831    5.1124 C   0  0  0  0  0  0  0  0  0  0  0  0
  -11.4937   -6.6795    4.0446 C   0  0  0  0  0  0  0  0  0  0  0  0
  -10.3753   -7.0533    4.4373 O   0  0  0  0  0  0  0  0  0  0  0  0
  -12.2301   -6.8562    6.2662 O   0  0  0  0  0  0  0  0  0  0  0  0
  -16.2693   -6.5043    4.6966 C   0  0  0  0  0  0  0  0  0  0  0  0
  -18.8855   -5.8214    3.5119 C   0  0  0  0  0  0  0  0  0  0  0  0
  1 11  1  0
  2  4  1  0
  2  9  1  0
  3  6  1  0
  3 14  1  0
  4  6  1  0
  5  8  1  0
  5 10  1  0
  6 15  1  0
  7 14  1  0
  8 14  1  0
  9 15  1  0
 10 11  1  0
 10 13  1  0
 11 12  2  0
M  END
>  <ID>  (1) 
conformer_0

$$$$
