
     RDKit          3D

 27 29  0  0  0  0  0  0  0  0999 V2000
  -18.0604   -4.7335    3.7900 C   0  0  0  0  0  0  0  0  0  0  0  0
  -25.0700   -2.4042    3.0049 C   0  0  0  0  0  0  0  0  0  0  0  0
  -13.9694   -6.5841    3.7037 N   0  0  0  0  0  0  0  0  0  0  0  0
  -22.9940   -5.3597    4.6595 C   0  0  0  0  0  0  0  0  0  0  0  0
   -9.3627   -7.6999    3.5558 N   0  0  0  0  0  0  0  0  0  0  0  0
  -10.1007   -7.0920    4.2487 C   0  0  0  0  0  0  0  0  0  0  0  0
  -27.4104   -2.7785    2.3944 C   0  0  0  0  0  0  0  0  0  0  0  0
  -15.5674   -6.5769    5.6018 C   0  0  0  0  0  0  0  0  0  0  0  0
  -23.5628   -4.2699    3.8001 C   0  0  0  0  0  0  0  0  0  0  0  0
  -14.3571   -6.2993    4.9533 C   0  0  0  0  0  0  0  0  0  0  0  0
  -12.6738   -6.7333    3.6405 C   0  0  0  0  0  0  0  0  0  0  0  0
  -20.8055   -6.1979    5.7760 C   0  0  0  0  0  0  0  0  0  0  0  0
  -16.8583   -6.1600    5.1435 C   0  0  0  0  0  0  0  0  0  0  0  0
  -10.8758   -6.7540    5.1618 N   0  0  0  0  0  0  0  0  0  0  0  0
  -19.3101   -5.2500    4.2564 C   0  0  0  0  0  0  0  0  0  0  0  0
  -25.6647   -3.5821    3.5177 C   0  0  0  0  0  0  0  0  0  0  0  0
  -26.3100   -3.6082    4.6262 O   0  0  0  0  0  0  0  0  0  0  0  0
  -21.6005   -5.5108    4.7503 C   0  0  0  0  0  0  0  0  0  0  0  0
  -26.8327   -3.8345    2.8701 O   0  0  0  0  0  0  0  0  0  0  0  0
  -24.8209   -4.5902    3.3901 O   0  0  0  0  0  0  0  0  0  0  0  0
  -16.9358   -5.4043    4.0476 N   0  0  0  0  0  0  0  0  0  0  0  0
  -20.6464   -4.7591    3.9683 C   0  0  0  0  0  0  0  0  0  0  0  0
  -12.1636   -6.5019    4.9418 C   0  0  0  0  0  0  0  0  0  0  0  0
  -18.0364   -6.3409    5.9384 C   0  0  0  0  0  0  0  0  0  0  0  0
  -13.1917   -6.2502    5.6886 N   0  0  0  0  0  0  0  0  0  0  0  0
  -19.3471   -6.0709    5.4216 C   0  0  0  0  0  0  0  0  0  0  0  0
  -20.7818   -3.5646    3.5752 O   0  0  0  0  0  0  0  0  0  0  0  0
  1 15  1  0
  1 21  1  0
  2 16  1  0
  3 10  2  0
  3 11  1  0
  4  9  1  0
  4 18  2  3
  5  6  3  0
  6 14  1  0
  7 19  1  0
  8 10  1  0
  8 13  1  0
  9 20  1  0
 10 25  1  0
 11 23  1  0
 12 18  1  0
 12 26  1  0
 13 21  2  0
 13 24  1  0
 14 23  2  3
 15 22  1  0
 15 26  2  0
 16 17  1  0
 16 19  1  0
 16 20  1  0
 18 22  1  0
 22 27  2  0
 23 25  1  0
 24 26  1  0
M  END
>  <ID>  (1) 
conformer_0

$$$$
