
     RDKit          3D

 21 24  0  0  0  0  0  0  0  0999 V2000
  -20.2763   -6.7845    3.4349 C   0  0  0  0  0  0  0  0  0  0  0  0
  -22.1269   -8.4203    4.3605 C   0  0  0  0  0  0  0  0  0  0  0  0
  -21.1042   -8.0342    5.2233 C   0  0  0  0  0  0  0  0  0  0  0  0
  -15.9284   -6.0227    4.5057 C   0  0  0  0  0  0  0  0  0  0  0  0
  -21.4997   -6.3104    1.5876 O   0  0  0  0  0  0  0  0  0  0  0  0
  -18.2241   -6.2246    3.8889 C   0  0  0  0  0  0  0  0  0  0  0  0
  -11.6923   -6.5044    5.9135 N   0  0  0  0  0  0  0  0  0  0  0  0
  -18.7222   -6.6047    5.1264 C   0  0  0  0  0  0  0  0  0  0  0  0
  -12.4589   -6.6949    3.3588 C   0  0  0  0  0  0  0  0  0  0  0  0
  -21.4154   -6.9901    2.6483 C   0  0  0  0  0  0  0  0  0  0  0  0
  -13.3960   -6.3506    4.3354 C   0  0  0  0  0  0  0  0  0  0  0  0
  -22.2889   -7.8825    3.1089 N   0  0  0  0  0  0  0  0  0  0  0  0
  -14.6603   -6.0799    4.0026 N   0  0  0  0  0  0  0  0  0  0  0  0
  -16.9060   -6.0053    3.5683 C   0  0  0  0  0  0  0  0  0  0  0  0
  -20.0586   -7.1760    4.8354 C   0  0  0  0  0  0  0  0  0  0  0  0
  -16.4104   -6.0198    5.8081 C   0  0  0  0  0  0  0  0  0  0  0  0
  -11.1656   -6.9571    3.7488 C   0  0  0  0  0  0  0  0  0  0  0  0
  -10.7942   -6.8530    5.0230 N   0  0  0  0  0  0  0  0  0  0  0  0
  -19.1508   -6.1724    2.9066 C   0  0  0  0  0  0  0  0  0  0  0  0
  -12.9455   -6.2632    5.6146 C   0  0  0  0  0  0  0  0  0  0  0  0
  -17.7708   -6.3022    6.1208 C   0  0  0  0  0  0  0  0  0  0  0  0
  1 10  1  0
  1 15  2  0
  1 19  1  0
  2  3  1  0
  2 12  2  0
  3 15  1  0
  4 13  2  3
  4 14  1  0
  4 16  1  0
  5 10  2  0
  6  8  1  0
  6 14  2  0
  6 19  1  0
  7 18  2  0
  7 20  1  0
  8 15  1  0
  8 21  1  0
  9 11  1  0
  9 17  2  0
 10 12  1  0
 11 13  1  0
 11 20  2  0
 16 21  2  0
 17 18  1  0
M  END
>  <ID>  (1) 
conformer_0

$$$$
