
     RDKit          3D

 17 18  0  0  0  0  0  0  0  0999 V2000
  -11.6521   -6.4458    5.9175 O   0  0  0  0  0  0  0  0  0  0  0  0
  -14.6489   -5.1917    4.1207 C   0  0  0  0  0  0  0  0  0  0  0  0
  -15.6542   -7.3183    5.6321 C   0  0  0  0  0  0  0  0  0  0  0  0
  -19.9147   -5.8731    5.0762 C   0  0  0  0  0  0  0  0  0  0  0  0
  -19.1744   -7.9162    3.9841 C   0  0  0  0  0  0  0  0  0  0  0  0
  -12.6722   -6.4205    3.8532 N   0  0  0  0  0  0  0  0  0  0  0  0
  -17.7408   -6.5269    5.2306 N   0  0  0  0  0  0  0  0  0  0  0  0
  -10.4374   -7.0351    4.0880 N   0  0  0  0  0  0  0  0  0  0  0  0
  -14.3299   -7.2172    5.3315 N   0  0  0  0  0  0  0  0  0  0  0  0
  -16.4610   -6.3580    5.0893 C   0  0  0  0  0  0  0  0  0  0  0  0
  -20.4853   -8.1382    3.5781 C   0  0  0  0  0  0  0  0  0  0  0  0
  -15.9594   -5.2560    4.4672 C   0  0  0  0  0  0  0  0  0  0  0  0
  -21.1922   -6.1015    4.6593 C   0  0  0  0  0  0  0  0  0  0  0  0
  -18.9294   -6.7729    4.7374 C   0  0  0  0  0  0  0  0  0  0  0  0
  -11.6222   -6.6547    4.7122 C   0  0  0  0  0  0  0  0  0  0  0  0
  -21.4747   -7.2311    3.9125 C   0  0  0  0  0  0  0  0  0  0  0  0
  -13.9188   -6.2747    4.4651 C   0  0  0  0  0  0  0  0  0  0  0  0
  1 15  2  0
  2 12  1  0
  2 17  1  0
  3  9  2  0
  3 10  1  0
  4 13  2  0
  4 14  1  0
  5 11  1  0
  5 14  2  0
  6 15  1  0
  6 17  2  3
  7 10  1  0
  7 14  1  0
  8 15  1  0
  9 17  1  0
 10 12  2  0
 11 16  2  0
 13 16  1  0
M  END
>  <ID>  (1) 
conformer_0

$$$$
