
     RDKit          3D

 29 31  0  0  0  0  0  0  0  0999 V2000
  -18.9318   -6.0313    3.1254 N   0  0  0  0  0  0  0  0  0  0  0  0
  -23.1898  -10.2958    4.3569 C   0  0  0  0  0  0  0  0  0  0  0  0
  -19.4942   -5.8736    5.3869 C   0  0  0  0  0  0  0  0  0  0  0  0
  -15.7311   -7.0571    6.1398 O   0  0  0  0  0  0  0  0  0  0  0  0
  -10.0231   -6.9230    4.9555 N   0  0  0  0  0  0  0  0  0  0  0  0
  -13.4752   -6.2743    4.7772 C   0  0  0  0  0  0  0  0  0  0  0  0
  -21.1757   -8.0224    5.1126 O   0  0  0  0  0  0  0  0  0  0  0  0
  -21.2820   -5.2767    3.4366 C   0  0  0  0  0  0  0  0  0  0  0  0
  -25.3326   -9.6813    1.7764 C   0  0  0  0  0  0  0  0  0  0  0  0
  -15.8422   -6.3553    5.1236 C   0  0  0  0  0  0  0  0  0  0  0  0
  -21.4174   -7.7129    2.7213 C   0  0  0  0  0  0  0  0  0  0  0  0
  -17.2001   -6.0394    4.6882 N   0  0  0  0  0  0  0  0  0  0  0  0
  -22.6460  -11.4318    5.1695 C   0  0  0  0  0  0  0  0  0  0  0  0
  -14.6753   -6.0156    4.4061 C   0  0  0  0  0  0  0  0  0  0  0  0
  -12.1860   -6.5878    4.6643 C   0  0  0  0  0  0  0  0  0  0  0  0
  -23.2207  -10.6583    2.8569 C   0  0  0  0  0  0  0  0  0  0  0  0
  -21.9646  -12.4879    4.2730 C   0  0  0  0  0  0  0  0  0  0  0  0
  -18.1540   -5.8914    5.6870 C   0  0  0  0  0  0  0  0  0  0  0  0
  -21.6863   -6.1883    2.1622 C   0  0  0  0  0  0  0  0  0  0  0  0
  -22.9308   -9.4733    1.9883 C   0  0  0  0  0  0  0  0  0  0  0  0
  -22.6992   -8.3272    2.8629 N   0  0  0  0  0  0  0  0  0  0  0  0
  -10.3391   -7.2469    3.6900 C   0  0  0  0  0  0  0  0  0  0  0  0
  -24.1709   -9.1043    1.1699 C   0  0  0  0  0  0  0  0  0  0  0  0
  -11.6731   -7.0368    3.5067 N   0  0  0  0  0  0  0  0  0  0  0  0
  -20.8357   -7.4576    4.1026 C   0  0  0  0  0  0  0  0  0  0  0  0
  -21.2837   -3.8684    3.0782 C   0  0  0  0  0  0  0  0  0  0  0  0
  -11.1659   -6.5142    5.5677 N   0  0  0  0  0  0  0  0  0  0  0  0
  -17.6357   -6.0206    3.3998 C   0  0  0  0  0  0  0  0  0  0  0  0
  -19.9759   -6.1551    4.0598 C   0  0  0  0  0  0  0  0  0  0  0  0
  1 28  2  0
  1 29  1  0
  2 13  1  0
  2 16  1  0
  3 18  2  0
  3 29  1  0
  4 10  2  0
  5 22  1  0
  5 27  1  0
  6 14  2  0
  6 15  2  0
  7 25  2  0
  8 19  1  0
  8 26  1  0
  8 29  1  0
  9 23  1  0
 10 12  1  0
 10 14  1  0
 11 19  1  0
 11 21  1  0
 11 25  1  0
 12 18  1  0
 12 28  1  0
 13 17  1  0
 15 24  1  0
 15 27  1  0
 16 20  1  0
 20 21  1  0
 20 23  1  0
 22 24  1  0
 25 29  1  0
M  END
>  <ID>  (1) 
conformer_0

$$$$
