
     RDKit          3D

 30 32  0  0  0  0  0  0  0  0999 V2000
  -19.0773   -5.8525    5.1562 N   0  0  0  0  0  0  0  0  0  0  0  0
  -13.6709   -6.2009    4.3444 C   0  0  0  0  0  0  0  0  0  0  0  0
  -26.0971   -6.0428    2.3375 C   0  0  0  0  0  0  0  0  0  0  0  0
   -9.6446   -7.6866    2.8500 N   0  0  0  0  0  0  0  0  0  0  0  0
  -27.6803   -7.9538    3.4893 C   0  0  0  0  0  0  0  0  0  0  0  0
  -28.0086   -7.1271    2.6051 C   0  0  0  0  0  0  0  0  0  0  0  0
  -11.9410   -7.1546    2.9282 N   0  0  0  0  0  0  0  0  0  0  0  0
  -17.6509   -5.8385    4.7816 C   0  0  0  0  0  0  0  0  0  0  0  0
  -23.2217   -7.7119    2.8323 C   0  0  0  0  0  0  0  0  0  0  0  0
  -17.7805   -6.4174    3.4828 C   0  0  0  0  0  0  0  0  0  0  0  0
  -23.6702   -6.4201    4.7837 C   0  0  0  0  0  0  0  0  0  0  0  0
  -21.8877   -5.6554    6.2016 C   0  0  0  0  0  0  0  0  0  0  0  0
  -18.9740   -6.8591    3.2653 N   0  0  0  0  0  0  0  0  0  0  0  0
  -16.0548   -5.6511    5.0998 C   0  0  0  0  0  0  0  0  0  0  0  0
  -26.8656   -8.3861    4.1954 C   0  0  0  0  0  0  0  0  0  0  0  0
  -11.6056   -6.1992    5.5975 N   0  0  0  0  0  0  0  0  0  0  0  0
   -9.4428   -7.1708    5.4802 O   0  0  0  0  0  0  0  0  0  0  0  0
  -23.9921   -6.5365    3.3170 O   0  0  0  0  0  0  0  0  0  0  0  0
  -10.5796   -6.8753    4.9461 C   0  0  0  0  0  0  0  0  0  0  0  0
  -27.3554   -6.2354    2.0710 C   0  0  0  0  0  0  0  0  0  0  0  0
  -21.8072   -7.6155    3.0211 C   0  0  0  0  0  0  0  0  0  0  0  0
  -25.9433   -7.7506    3.9206 C   0  0  0  0  0  0  0  0  0  0  0  0
  -25.4136   -6.7615    3.1836 C   0  0  0  0  0  0  0  0  0  0  0  0
  -12.9305   -6.1114    5.5081 C   0  0  0  0  0  0  0  0  0  0  0  0
  -21.3043   -6.7457    4.0545 C   0  0  0  0  0  0  0  0  0  0  0  0
  -15.1131   -5.9615    4.1230 C   0  0  0  0  0  0  0  0  0  0  0  0
  -10.7515   -7.2519    3.5352 C   0  0  0  0  0  0  0  0  0  0  0  0
  -22.2536   -6.3589    4.9661 N   0  0  0  0  0  0  0  0  0  0  0  0
  -19.7586   -6.4974    4.2212 C   0  0  0  0  0  0  0  0  0  0  0  0
  -13.0083   -6.6321    3.1940 C   0  0  0  0  0  0  0  0  0  0  0  0
  1  8  1  0
  1 29  1  0
  2 24  1  0
  2 26  1  0
  2 30  2  0
  3 20  2  0
  3 23  1  0
  4 27  2  0
  5  6  2  0
  5 15  1  0
  6 20  1  0
  7 27  1  0
  7 30  1  0
  8 10  1  0
  8 14  1  0
  9 18  1  0
  9 21  1  0
 10 13  1  0
 11 28  1  0
 12 28  1  0
 13 29  1  0
 14 26  2  3
 15 22  1  0
 16 19  1  0
 16 24  1  0
 17 19  2  0
 18 23  1  0
 19 27  1  0
 21 25  1  0
 22 23  2  0
 25 28  1  0
 25 29  2  3
M  END
>  <ID>  (1) 
conformer_0

$$$$
