
     RDKit          3D

 30 35  0  0  0  0  0  0  0  0999 V2000
  -22.8827   -2.1953    1.4658 C   0  0  0  0  0  0  0  0  0  0  0  0
  -15.5903   -6.8573    4.6651 C   0  0  0  0  0  0  0  0  0  0  0  0
  -22.1783   -4.5205    2.6145 C   0  0  0  0  0  0  0  0  0  0  0  0
  -21.9234   -4.7356    1.2421 C   0  0  0  0  0  0  0  0  0  0  0  0
  -17.7911   -5.9213    4.2699 C   0  0  0  0  0  0  0  0  0  0  0  0
  -19.0716   -6.8667    4.2191 C   0  0  0  0  0  0  0  0  0  0  0  0
  -19.6447   -4.1347    3.8578 C   0  0  0  0  0  0  0  0  0  0  0  0
  -12.2937   -6.5027    4.8831 C   0  0  0  0  0  0  0  0  0  0  0  0
  -10.2060   -7.0482    4.3749 N   0  0  0  0  0  0  0  0  0  0  0  0
  -10.9895   -7.4243    3.3648 N   0  0  0  0  0  0  0  0  0  0  0  0
  -16.7782   -6.2733    5.2272 C   0  0  0  0  0  0  0  0  0  0  0  0
  -21.5462   -1.8896    1.9136 C   0  0  0  0  0  0  0  0  0  0  0  0
  -19.5625   -9.1036    3.0246 C   0  0  0  0  0  0  0  0  0  0  0  0
  -14.7287   -5.7796    4.9076 C   0  0  0  0  0  0  0  0  0  0  0  0
  -18.2499   -4.4536    4.3611 C   0  0  0  0  0  0  0  0  0  0  0  0
  -21.0587   -6.7707    2.7739 C   0  0  0  0  0  0  0  0  0  0  0  0
  -19.5221   -6.5038    2.7194 C   0  0  0  0  0  0  0  0  0  0  0  0
  -21.2881   -7.7041    1.5360 C   0  0  0  0  0  0  0  0  0  0  0  0
  -23.1259   -3.6224    3.3537 C   0  0  0  0  0  0  0  0  0  0  0  0
  -19.9151   -8.3378    4.2863 C   0  0  0  0  0  0  0  0  0  0  0  0
  -21.7216   -5.6115    3.5212 C   0  0  0  0  0  0  0  0  0  0  0  0
  -15.8821   -5.0443    5.4530 C   0  0  0  0  0  0  0  0  0  0  0  0
  -13.4577   -5.9193    5.4324 C   0  0  0  0  0  0  0  0  0  0  0  0
  -12.2389   -7.0108    3.6354 N   0  0  0  0  0  0  0  0  0  0  0  0
  -21.4050   -7.7527    3.9631 C   0  0  0  0  0  0  0  0  0  0  0  0
  -19.9718   -6.1199    5.3927 C   0  0  0  0  0  0  0  0  0  0  0  0
  -20.7532   -5.0580    4.5838 C   0  0  0  0  0  0  0  0  0  0  0  0
  -11.0155   -6.5710    5.3290 N   0  0  0  0  0  0  0  0  0  0  0  0
  -20.5328   -8.9963    1.8522 C   0  0  0  0  0  0  0  0  0  0  0  0
  -23.8741   -2.8235    2.3094 C   0  0  0  0  0  0  0  0  0  0  0  0
  1 12  1  0
  1 30  1  0
  2 11  1  0
  2 14  1  0
  3  4  1  0
  3 19  1  0
  3 21  1  0
  5  6  1  0
  5 11  1  0
  5 15  1  0
  6 17  1  0
  6 20  1  0
  6 26  1  0
  7 15  1  0
  7 27  1  0
  8 23  2  3
  8 24  1  0
  8 28  1  0
  9 10  1  0
  9 28  1  0
 10 24  1  0
 11 22  1  0
 13 20  1  0
 13 29  1  0
 14 22  1  0
 14 23  1  0
 16 17  1  0
 16 18  1  0
 16 21  1  0
 16 25  1  0
 18 29  1  0
 19 30  1  0
 20 25  1  0
 21 27  1  0
 26 27  1  0
M  END
>  <ID>  (1) 
conformer_0

$$$$
