
     RDKit          3D

 21 23  0  0  0  0  0  0  0  0999 V2000
  -22.0181   -5.6032    5.1905 C   0  0  0  0  0  0  0  0  0  0  0  0
  -10.1181   -6.9046    4.8109 O   0  0  0  0  0  0  0  0  0  0  0  0
  -19.8724   -5.9458    6.0507 C   0  0  0  0  0  0  0  0  0  0  0  0
  -14.2095   -5.1089    5.2310 N   0  0  0  0  0  0  0  0  0  0  0  0
  -17.9296   -6.0430    4.6267 C   0  0  0  0  0  0  0  0  0  0  0  0
  -11.1421   -7.0165    4.1529 C   0  0  0  0  0  0  0  0  0  0  0  0
  -20.7282   -5.8181    4.9847 C   0  0  0  0  0  0  0  0  0  0  0  0
  -22.9155   -5.5108    4.1972 C   0  0  0  0  0  0  0  0  0  0  0  0
  -15.5917   -4.8939    4.8955 C   0  0  0  0  0  0  0  0  0  0  0  0
  -12.6397   -6.7408    6.1101 O   0  0  0  0  0  0  0  0  0  0  0  0
  -14.3290   -7.1901    4.3467 N   0  0  0  0  0  0  0  0  0  0  0  0
  -20.2084   -5.9158    3.6769 C   0  0  0  0  0  0  0  0  0  0  0  0
  -11.4943   -8.0895    3.5654 O   0  0  0  0  0  0  0  0  0  0  0  0
  -21.1222   -5.8881    2.6612 C   0  0  0  0  0  0  0  0  0  0  0  0
  -15.6784   -7.1160    4.5061 N   0  0  0  0  0  0  0  0  0  0  0  0
  -18.8375   -6.0330    3.5311 C   0  0  0  0  0  0  0  0  0  0  0  0
  -13.3619   -6.2962    5.0192 C   0  0  0  0  0  0  0  0  0  0  0  0
  -12.1758   -5.9419    4.1388 C   0  0  0  0  0  0  0  0  0  0  0  0
  -22.4617   -5.6709    2.9050 C   0  0  0  0  0  0  0  0  0  0  0  0
  -18.5322   -6.0664    5.8646 C   0  0  0  0  0  0  0  0  0  0  0  0
  -16.4717   -5.9772    4.4864 C   0  0  0  0  0  0  0  0  0  0  0  0
  1  7  2  0
  1  8  1  0
  2  6  2  0
  3  7  1  0
  3 20  2  0
  4  9  2  0
  4 17  1  0
  5 16  2  0
  5 20  1  0
  5 21  1  0
  6 13  1  0
  6 18  1  0
  7 12  1  0
  8 19  2  0
  9 21  1  0
 10 17  1  0
 11 15  1  0
 11 17  1  0
 12 14  2  0
 12 16  1  0
 14 19  1  0
 15 21  1  0
 17 18  1  0
M  END
>  <ID>  (1) 
conformer_0

$$$$
