
     RDKit          3D

 20 22  0  0  0  0  0  0  0  0999 V2000
  -17.3849   -6.5202    3.6418 C   0  0  0  0  0  0  0  0  0  0  0  0
  -16.7967   -6.1902    4.8114 C   0  0  0  0  0  0  0  0  0  0  0  0
  -13.3078   -6.8560    5.9883 O   0  0  0  0  0  0  0  0  0  0  0  0
  -10.8301   -6.8962    4.9449 O   0  0  0  0  0  0  0  0  0  0  0  0
  -21.1019   -6.3060    6.1681 C   0  0  0  0  0  0  0  0  0  0  0  0
  -13.1144   -6.2411    4.8510 N   0  0  0  0  0  0  0  0  0  0  0  0
  -15.3742   -6.0577    5.0004 C   0  0  0  0  0  0  0  0  0  0  0  0
  -11.8297   -6.5388    4.2812 C   0  0  0  0  0  0  0  0  0  0  0  0
  -18.9598   -6.1456    5.7993 C   0  0  0  0  0  0  0  0  0  0  0  0
  -19.5722   -6.5302    4.6257 C   0  0  0  0  0  0  0  0  0  0  0  0
  -18.7869   -6.7339    3.5332 C   0  0  0  0  0  0  0  0  0  0  0  0
  -20.8813   -6.6396    4.8029 N   0  0  0  0  0  0  0  0  0  0  0  0
  -21.6231   -6.9894    1.1484 O   0  0  0  0  0  0  0  0  0  0  0  0
  -19.5183   -7.2004    2.3092 C   0  0  0  0  0  0  0  0  0  0  0  0
  -21.0048   -7.3814    2.3808 C   0  0  0  0  0  0  0  0  0  0  0  0
  -21.7459   -7.0524    3.6312 C   0  0  0  0  0  0  0  0  0  0  0  0
  -11.8457   -6.5825    2.9160 N   0  0  0  0  0  0  0  0  0  0  0  0
  -19.9516   -6.0146    6.7605 C   0  0  0  0  0  0  0  0  0  0  0  0
  -14.3187   -5.9860    4.1348 O   0  0  0  0  0  0  0  0  0  0  0  0
  -17.6161   -5.9632    5.9113 C   0  0  0  0  0  0  0  0  0  0  0  0
  1  2  2  0
  1 11  1  0
  2  7  1  0
  2 20  1  0
  3  6  1  0
  4  8  2  0
  5 12  1  0
  5 18  1  0
  6  8  1  0
  6 19  1  0
  7 19  1  0
  8 17  1  0
  9 10  1  0
  9 18  1  0
  9 20  2  0
 10 11  2  0
 10 12  1  0
 11 14  1  0
 12 16  1  0
 13 15  1  0
 14 15  1  0
 15 16  1  0
M  END
>  <ID>  (1) 
conformer_0

$$$$
