
     RDKit          3D

 31 33  0  0  0  0  0  0  0  0999 V2000
  -20.3706   -7.6628    2.3678 O   0  0  0  0  0  0  0  0  0  0  0  0
  -25.7857   -6.4399    3.0443 C   0  0  0  0  0  0  0  0  0  0  0  0
  -22.0730   -5.3527    3.5138 C   0  0  0  0  0  0  0  0  0  0  0  0
  -13.4945   -6.4082    4.1552 C   0  0  0  0  0  0  0  0  0  0  0  0
  -20.6400   -9.0245    2.3416 C   0  0  0  0  0  0  0  0  0  0  0  0
  -16.0364   -6.9455    5.7712 C   0  0  0  0  0  0  0  0  0  0  0  0
  -14.8470   -5.8988    3.8982 C   0  0  0  0  0  0  0  0  0  0  0  0
  -18.8443   -7.9474    3.9679 O   0  0  0  0  0  0  0  0  0  0  0  0
  -19.7953   -9.9866    2.0375 O   0  0  0  0  0  0  0  0  0  0  0  0
  -20.3539   -3.6557    3.9754 C   0  0  0  0  0  0  0  0  0  0  0  0
  -22.8814   -6.5570    3.4229 C   0  0  0  0  0  0  0  0  0  0  0  0
  -24.3860   -6.0418    3.2804 C   0  0  0  0  0  0  0  0  0  0  0  0
  -22.0946   -9.4432    2.4853 C   0  0  0  0  0  0  0  0  0  0  0  0
  -11.3837   -6.1685    5.1721 N   0  0  0  0  0  0  0  0  0  0  0  0
  -22.3290   -9.5955    4.0413 C   0  0  0  0  0  0  0  0  0  0  0  0
  -19.5100   -7.1428    3.3372 C   0  0  0  0  0  0  0  0  0  0  0  0
  -20.6992   -4.9951    3.6864 N   0  0  0  0  0  0  0  0  0  0  0  0
  -17.0420   -5.0262    4.4770 C   0  0  0  0  0  0  0  0  0  0  0  0
  -18.4685   -4.9005    4.1710 C   0  0  0  0  0  0  0  0  0  0  0  0
  -12.7754   -6.7916    3.1176 N   0  0  0  0  0  0  0  0  0  0  0  0
  -26.4042   -6.9332    3.9454 O   0  0  0  0  0  0  0  0  0  0  0  0
  -19.5519   -5.7468    3.7200 C   0  0  0  0  0  0  0  0  0  0  0  0
  -13.0935   -6.9368    6.4132 O   0  0  0  0  0  0  0  0  0  0  0  0
  -10.7259   -6.8173    4.1643 C   0  0  0  0  0  0  0  0  0  0  0  0
  -26.3762   -5.7531    2.0502 O   0  0  0  0  0  0  0  0  0  0  0  0
  -11.6273   -7.4005    3.2515 C   0  0  0  0  0  0  0  0  0  0  0  0
  -15.9374   -5.7490    4.7622 C   0  0  0  0  0  0  0  0  0  0  0  0
  -24.2740   -4.6506    3.3044 C   0  0  0  0  0  0  0  0  0  0  0  0
  -12.6788   -6.3856    5.3610 C   0  0  0  0  0  0  0  0  0  0  0  0
  -22.9442   -4.2789    3.4445 C   0  0  0  0  0  0  0  0  0  0  0  0
  -18.9984   -3.5963    4.3081 C   0  0  0  0  0  0  0  0  0  0  0  0
  1  5  1  0
  1 16  1  0
  2 12  1  0
  2 21  2  0
  2 25  1  0
  3 11  1  0
  3 17  1  0
  3 30  1  0
  4  7  1  0
  4 20  1  0
  4 29  1  0
  5  9  2  0
  5 13  1  0
  6 27  1  0
  7 27  1  0
  8 16  2  0
 10 17  1  0
 10 31  1  0
 11 12  1  0
 12 28  1  0
 13 15  1  0
 14 24  1  0
 14 29  1  0
 16 22  1  0
 17 22  1  0
 18 19  1  0
 18 27  1  0
 19 22  2  0
 19 31  1  0
 20 26  1  0
 23 29  2  0
 24 26  1  0
 28 30  1  0
M  END
>  <ID>  (1) 
conformer_0

$$$$
