
     RDKit          3D

 22 25  0  0  0  0  0  0  0  0999 V2000
  -18.5571   -6.3764    3.8579 C   0  0  0  0  0  0  0  0  0  0  0  0
  -24.3426   -5.6965    3.0128 C   0  0  0  0  0  0  0  0  0  0  0  0
  -17.8348   -5.9644    6.0929 C   0  0  0  0  0  0  0  0  0  0  0  0
  -20.9043   -6.3895    4.1422 C   0  0  0  0  0  0  0  0  0  0  0  0
  -13.1050   -6.0952    5.5382 C   0  0  0  0  0  0  0  0  0  0  0  0
  -14.8896   -6.3086    3.8940 N   0  0  0  0  0  0  0  0  0  0  0  0
  -23.3230   -6.2858    3.8678 O   0  0  0  0  0  0  0  0  0  0  0  0
  -19.7626   -6.4834    3.1834 C   0  0  0  0  0  0  0  0  0  0  0  0
  -20.2605   -6.2735    5.4438 O   0  0  0  0  0  0  0  0  0  0  0  0
  -11.3388   -6.9596    3.7951 C   0  0  0  0  0  0  0  0  0  0  0  0
  -11.8182   -6.2344    5.8243 N   0  0  0  0  0  0  0  0  0  0  0  0
  -22.5300   -6.2564    1.0242 O   0  0  0  0  0  0  0  0  0  0  0  0
  -10.9005   -6.6820    4.9915 N   0  0  0  0  0  0  0  0  0  0  0  0
  -12.6242   -6.8089    3.4198 N   0  0  0  0  0  0  0  0  0  0  0  0
  -18.8577   -6.2017    5.2063 C   0  0  0  0  0  0  0  0  0  0  0  0
  -20.3162   -6.5277    1.9037 C   0  0  0  0  0  0  0  0  0  0  0  0
  -16.1850   -6.2040    4.3512 C   0  0  0  0  0  0  0  0  0  0  0  0
  -22.1054   -6.3565    3.3890 C   0  0  0  0  0  0  0  0  0  0  0  0
  -13.6027   -6.3957    4.2997 C   0  0  0  0  0  0  0  0  0  0  0  0
  -16.5105   -5.9367    5.6558 C   0  0  0  0  0  0  0  0  0  0  0  0
  -21.7681   -6.3864    1.9935 C   0  0  0  0  0  0  0  0  0  0  0  0
  -17.2334   -6.3728    3.4441 C   0  0  0  0  0  0  0  0  0  0  0  0
  1  8  1  0
  1 15  1  0
  1 22  2  0
  2  7  1  0
  3 15  2  0
  3 20  1  0
  4  8  1  0
  4  9  1  0
  4 18  2  0
  5 11  2  0
  5 19  1  0
  6 17  1  0
  6 19  2  3
  7 18  1  0
  8 16  1  0
  9 15  1  0
 10 13  1  0
 10 14  2  0
 11 13  1  0
 12 21  2  0
 14 19  1  0
 16 21  1  0
 17 20  2  0
 17 22  1  0
 18 21  1  0
M  END
>  <ID>  (1) 
conformer_0

$$$$
