
     RDKit          3D

 25 26  0  0  0  0  0  0  0  0999 V2000
  -16.3046   -4.6221    4.5008 N   0  0  0  0  0  0  0  0  0  0  0  0
  -22.4265   -9.7973    0.5801 C   0  0  0  0  0  0  0  0  0  0  0  0
  -18.4683   -4.9296    4.3800 C   0  0  0  0  0  0  0  0  0  0  0  0
  -20.3597   -6.9078    4.1258 C   0  0  0  0  0  0  0  0  0  0  0  0
  -17.4498   -3.9125    4.5220 C   0  0  0  0  0  0  0  0  0  0  0  0
  -12.0533   -6.9381    3.9133 N   0  0  0  0  0  0  0  0  0  0  0  0
  -21.4300   -9.9353    1.7054 C   0  0  0  0  0  0  0  0  0  0  0  0
  -10.7664   -7.2496    3.8558 C   0  0  0  0  0  0  0  0  0  0  0  0
  -13.9447   -5.8152    4.6517 N   0  0  0  0  0  0  0  0  0  0  0  0
  -15.0703   -6.5173    4.8129 C   0  0  0  0  0  0  0  0  0  0  0  0
  -21.4522   -7.9669    4.0984 C   0  0  0  0  0  0  0  0  0  0  0  0
   -9.8227   -7.1036    4.7014 N   0  0  0  0  0  0  0  0  0  0  0  0
  -22.2804   -7.9546    5.3520 C   0  0  0  0  0  0  0  0  0  0  0  0
  -18.0041   -6.1717    4.2842 C   0  0  0  0  0  0  0  0  0  0  0  0
  -18.9593   -7.2487    4.0995 C   0  0  0  0  0  0  0  0  0  0  0  0
  -21.0071   -8.4141    1.7827 C   0  0  0  0  0  0  0  0  0  0  0  0
  -12.0014   -5.9935    5.9914 O   0  0  0  0  0  0  0  0  0  0  0  0
  -22.7540   -8.6161    0.1178 O   0  0  0  0  0  0  0  0  0  0  0  0
  -12.6459   -6.2991    4.9619 C   0  0  0  0  0  0  0  0  0  0  0  0
  -22.0733   -7.9473    2.7459 N   0  0  0  0  0  0  0  0  0  0  0  0
  -16.4805   -6.0263    4.3994 C   0  0  0  0  0  0  0  0  0  0  0  0
  -15.0908   -7.4787    5.6425 N   0  0  0  0  0  0  0  0  0  0  0  0
  -19.8455   -4.6433    4.3740 C   0  0  0  0  0  0  0  0  0  0  0  0
  -20.1498   -3.3709    4.4926 F   0  0  0  0  0  0  0  0  0  0  0  0
  -20.7463   -5.6195    4.2513 N   0  0  0  0  0  0  0  0  0  0  0  0
  1  5  1  0
  1 21  1  0
  2  7  1  0
  2 18  1  0
  3  5  1  0
  3 14  2  0
  3 23  1  0
  4 11  1  0
  4 15  2  0
  4 25  1  0
  6  8  1  0
  6 19  1  0
  7 16  1  0
  8 12  2  0
  9 10  1  0
  9 19  1  0
 10 21  1  0
 10 22  2  0
 11 13  1  0
 11 20  1  0
 14 15  1  0
 14 21  1  0
 16 20  1  0
 17 19  2  0
 23 24  1  0
 23 25  2  0
M  END
>  <ID>  (1) 
conformer_0

$$$$
