
     RDKit          3D

 24 25  0  0  0  0  0  0  0  0999 V2000
  -20.4026   -7.5255    2.7100 N   0  0  0  0  0  0  0  0  0  0  0  0
  -22.7826   -7.2385    5.4911 C   0  0  0  0  0  0  0  0  0  0  0  0
  -21.0771   -7.2814    3.8299 C   0  0  0  0  0  0  0  0  0  0  0  0
  -12.1159   -6.8672    3.8055 C   0  0  0  0  0  0  0  0  0  0  0  0
  -10.7088   -7.1140    3.7705 C   0  0  0  0  0  0  0  0  0  0  0  0
  -13.9580   -5.9104    5.0741 C   0  0  0  0  0  0  0  0  0  0  0  0
  -16.8196   -5.4074    4.2024 C   0  0  0  0  0  0  0  0  0  0  0  0
  -12.5778   -6.3707    5.0267 C   0  0  0  0  0  0  0  0  0  0  0  0
  -24.8474   -8.0127    4.6527 N   0  0  0  0  0  0  0  0  0  0  0  0
  -22.3036   -7.6006    4.2519 C   0  0  0  0  0  0  0  0  0  0  0  0
  -25.8062   -7.1977    4.2257 C   0  0  0  0  0  0  0  0  0  0  0  0
  -20.2501   -6.5333    4.6340 C   0  0  0  0  0  0  0  0  0  0  0  0
  -24.6044   -8.8528    3.6098 C   0  0  0  0  0  0  0  0  0  0  0  0
  -14.9737   -6.8950    4.5927 C   0  0  0  0  0  0  0  0  0  0  0  0
  -19.1322   -6.2316    3.9470 N   0  0  0  0  0  0  0  0  0  0  0  0
  -15.9319   -4.4221    4.6034 O   0  0  0  0  0  0  0  0  0  0  0  0
  -24.2001   -7.4838    5.8255 C   0  0  0  0  0  0  0  0  0  0  0  0
  -18.2560   -5.1332    4.3205 C   0  0  0  0  0  0  0  0  0  0  0  0
  -20.5850   -6.2191    5.9382 C   0  0  0  0  0  0  0  0  0  0  0  0
  -19.2848   -6.9194    2.7978 C   0  0  0  0  0  0  0  0  0  0  0  0
  -21.8459   -6.6041    6.3674 C   0  0  0  0  0  0  0  0  0  0  0  0
  -16.4718   -6.7792    4.4864 C   0  0  0  0  0  0  0  0  0  0  0  0
  -12.0797   -6.5063    6.2139 N   0  0  0  0  0  0  0  0  0  0  0  0
  -10.0276   -7.0332    4.9259 N   0  0  0  0  0  0  0  0  0  0  0  0
  1  3  1  0
  1 20  1  0
  2 10  1  0
  2 17  1  0
  2 21  2  0
  3 10  2  0
  3 12  1  0
  4  5  1  0
  4  8  1  0
  5 24  1  0
  6  8  1  0
  6 14  2  3
  7 16  1  0
  7 18  1  0
  7 22  1  0
  8 23  2  0
  9 11  1  0
  9 13  1  0
  9 17  1  0
 12 15  1  0
 12 19  2  0
 14 22  1  0
 15 18  1  0
 15 20  1  0
 19 21  1  0
M  END
>  <ID>  (1) 
conformer_0

$$$$
