
     RDKit          3D

 27 30  0  0  0  0  0  0  0  0999 V2000
  -17.9992   -6.4815    4.5557 C   0  0  0  0  0  0  0  0  0  0  0  0
  -19.4082   -4.6474    3.9508 N   0  0  0  0  0  0  0  0  0  0  0  0
  -10.1058   -7.1048    4.5900 O   0  0  0  0  0  0  0  0  0  0  0  0
  -23.3358   -8.4545    0.7640 C   0  0  0  0  0  0  0  0  0  0  0  0
  -16.6172   -6.8258    4.8390 C   0  0  0  0  0  0  0  0  0  0  0  0
  -21.7543   -6.2348    1.9274 C   0  0  0  0  0  0  0  0  0  0  0  0
  -15.5406   -5.9012    4.8306 C   0  0  0  0  0  0  0  0  0  0  0  0
  -21.1069   -7.6846    5.2781 O   0  0  0  0  0  0  0  0  0  0  0  0
  -22.0282   -8.4346    2.7838 C   0  0  0  0  0  0  0  0  0  0  0  0
  -14.0795   -6.0856    4.7920 C   0  0  0  0  0  0  0  0  0  0  0  0
  -21.6417   -4.0526    3.3664 O   0  0  0  0  0  1  0  0  0  0  0  0
  -21.5061   -7.1943    2.8788 C   0  0  0  0  0  0  0  0  0  0  0  0
  -17.1246   -4.1918    4.3897 C   0  0  0  0  0  0  0  0  0  0  0  0
  -13.5483   -6.5964    3.6599 C   0  0  0  0  0  0  0  0  0  0  0  0
  -20.6424   -6.8860    4.0831 C   0  0  0  0  0  0  0  0  0  0  0  0
  -21.5698   -4.9873    5.5289 O   0  0  0  0  0  1  0  0  0  0  0  0
  -20.8952   -5.0181    4.2306 S   0  0  0  0  0  4  0  0  0  0  0  0
  -19.1718   -7.1449    3.9891 N   0  0  0  0  0  0  0  0  0  0  0  0
  -13.2242   -5.7953    5.8017 N   0  0  0  0  0  0  0  0  0  0  0  0
  -22.4515   -6.2044    0.8318 C   0  0  0  0  0  0  0  0  0  0  0  0
  -18.2080   -5.0547    4.3790 C   0  0  0  0  0  0  0  0  0  0  0  0
  -11.3869   -6.6753    4.6599 C   0  0  0  0  0  0  0  0  0  0  0  0
  -11.9227   -6.1150    5.7376 N   0  0  0  0  0  0  0  0  0  0  0  0
  -23.1638   -7.1919    0.2805 C   0  0  0  0  0  0  0  0  0  0  0  0
  -15.9113   -4.5861    4.6764 N   0  0  0  0  0  0  0  0  0  0  0  0
  -12.2360   -6.8919    3.5897 C   0  0  0  0  0  0  0  0  0  0  0  0
  -22.8145   -8.9565    1.8799 C   0  0  0  0  0  0  0  0  0  0  0  0
  1  5  1  0
  1 18  1  0
  1 21  1  0
  2 17  1  0
  2 21  1  0
  3 22  2  0
  4 24  2  0
  4 27  1  0
  5  7  2  0
  6 12  1  0
  6 20  2  0
  7 10  1  0
  7 25  1  0
  8 15  1  0
  9 12  1  0
  9 27  2  0
 10 14  1  0
 10 19  2  0
 11 17  1  0
 12 15  1  0
 13 21  1  0
 13 25  2  0
 14 26  2  0
 15 17  1  0
 15 18  1  0
 16 17  1  0
 19 23  1  0
 20 24  1  0
 22 23  1  0
 22 26  1  0
M  END
>  <ID>  (1) 
conformer_0

$$$$
