
     RDKit          3D

 14 14  0  0  0  0  0  0  0  0999 V2000
  -11.3986   -6.7136    4.1344 C   0  0  0  0  0  0  0  0  0  0  0  0
  -19.4534   -5.2266    4.1601 C   0  0  0  0  0  0  0  0  0  0  0  0
  -19.6785   -6.5503    4.4006 N   0  0  0  0  0  0  0  0  0  0  0  0
  -12.2663   -6.3384    5.2619 C   0  0  0  0  0  0  0  0  0  0  0  0
  -11.9570   -6.8071    2.9724 O   0  0  0  0  0  0  0  0  0  0  0  0
  -18.2138   -4.6785    4.2073 C   0  0  0  0  0  0  0  0  0  0  0  0
  -18.6144   -7.3636    4.6779 C   0  0  0  0  0  0  0  0  0  0  0  0
  -15.7112   -5.0088    4.5011 C   0  0  0  0  0  0  0  0  0  0  0  0
  -14.7132   -6.2296    4.6093 C   0  0  0  0  0  0  0  0  0  0  0  0
  -12.1508   -7.1129    6.3133 O   0  0  0  0  0  0  0  0  0  0  0  0
  -13.4360   -5.5758    5.1283 C   0  0  0  0  0  0  0  0  0  0  0  0
  -17.1565   -5.5217    4.4814 C   0  0  0  0  0  0  0  0  0  0  0  0
  -10.2327   -7.1456    4.4575 O   0  0  0  0  0  0  0  0  0  0  0  0
  -17.3506   -6.8919    4.7296 C   0  0  0  0  0  0  0  0  0  0  0  0
  1  4  1  0
  1  5  2  0
  1 13  1  0
  2  3  2  0
  2  6  1  0
  3  7  1  0
  4 10  1  0
  4 11  1  0
  6 12  2  0
  7 14  2  0
  8  9  1  0
  8 12  1  0
  9 11  1  0
 12 14  1  0
M  END
>  <ID>  (1) 
conformer_0

$$$$
