
     RDKit          3D

 28 30  0  0  0  0  0  0  0  0999 V2000
  -10.7810   -6.9903    3.9712 C   0  0  0  0  0  0  0  0  0  0  0  0
  -21.9368   -6.6259    3.7865 N   0  0  0  0  0  0  0  0  0  0  0  0
  -20.5919   -7.0130    3.7809 C   0  0  0  0  0  0  0  0  0  0  0  0
  -18.3490   -4.3369    5.1855 C   0  0  0  0  0  0  0  0  0  0  0  0
  -15.7724   -6.7112    4.2524 N   0  0  0  0  0  0  0  0  0  0  0  0
  -25.7940   -5.5383    3.6594 O   0  0  0  0  0  0  0  0  0  0  0  0
  -19.4857   -6.1624    4.0456 C   0  0  0  0  0  0  0  0  0  0  0  0
  -14.7461   -4.9180    4.9699 O   0  0  0  0  0  0  0  0  0  0  0  0
  -13.1874   -6.5402    4.1942 C   0  0  0  0  0  0  0  0  0  0  0  0
  -23.6383   -4.9212    3.9648 C   0  0  0  0  0  0  0  0  0  0  0  0
  -22.9791   -7.5821    3.5593 C   0  0  0  0  0  0  0  0  0  0  0  0
  -20.1597   -8.4306    3.7096 C   0  0  0  0  0  0  0  0  0  0  0  0
  -17.3830   -5.3699    5.6009 C   0  0  0  0  0  0  0  0  0  0  0  0
  -17.0627   -6.2769    4.5077 C   0  0  0  0  0  0  0  0  0  0  0  0
  -24.2177   -7.1056    3.5740 N   0  0  0  0  0  0  0  0  0  0  0  0
  -11.0050   -6.4873    5.1686 N   0  0  0  0  0  0  0  0  0  0  0  0
  -12.3317   -6.3527    5.3799 C   0  0  0  0  0  0  0  0  0  0  0  0
   -9.6287   -7.4761    3.5455 N   0  0  0  0  0  0  0  0  0  0  0  0
  -22.3875   -5.4072    3.9605 C   0  0  0  0  0  0  0  0  0  0  0  0
  -22.7930   -9.0063    3.2506 C   0  0  0  0  0  0  0  0  0  0  0  0
  -24.5597   -5.8998    3.7679 C   0  0  0  0  0  0  0  0  0  0  0  0
  -18.1887   -6.6874    3.7704 C   0  0  0  0  0  0  0  0  0  0  0  0
  -20.3967   -3.1833    3.1020 C   0  0  0  0  0  0  0  0  0  0  0  0
  -14.6247   -6.0413    4.4842 C   0  0  0  0  0  0  0  0  0  0  0  0
  -19.5793   -4.9027    4.6439 N   0  0  0  0  0  0  0  0  0  0  0  0
  -12.8119   -6.7780    6.4791 O   0  0  0  0  0  0  0  0  0  0  0  0
  -12.0734   -7.0405    3.2640 C   0  0  0  0  0  0  0  0  0  0  0  0
  -20.5386   -3.7823    4.5390 C   0  0  0  0  0  0  0  0  0  0  0  0
  1 16  1  0
  1 18  2  0
  1 27  1  0
  2  3  1  0
  2 11  1  0
  2 19  1  0
  3  7  1  0
  3 12  1  0
  4 13  1  0
  4 25  1  0
  5 14  1  0
  5 24  1  0
  6 21  2  0
  7 22  1  0
  7 25  1  0
  8 24  2  0
  9 17  1  0
  9 24  1  0
  9 27  1  0
 10 19  1  0
 10 21  1  0
 11 15  2  0
 11 20  1  0
 13 14  1  0
 14 22  2  0
 15 21  1  0
 16 17  1  0
 17 26  2  0
 23 28  1  0
 25 28  1  0
M  END
>  <ID>  (1) 
conformer_0

$$$$
