
     RDKit          3D

 21 23  0  0  0  0  0  0  0  0999 V2000
  -21.8104   -4.0307    3.8884 C   0  0  0  0  0  0  0  0  0  0  0  0
  -11.3923   -7.0239    3.1891 C   0  0  0  0  0  0  0  0  0  0  0  0
  -11.7096   -6.6717    5.3953 N   0  0  0  0  0  0  0  0  0  0  0  0
  -23.7851   -5.0086    4.8168 O   0  0  0  0  0  0  0  0  0  0  0  0
  -15.4396   -6.3224    5.1269 C   0  0  0  0  0  0  0  0  0  0  0  0
  -22.5504   -5.1950    4.4718 C   0  0  0  0  0  0  0  0  0  0  0  0
  -17.0094   -5.9751    3.4036 C   0  0  0  0  0  0  0  0  0  0  0  0
  -19.1206   -6.2578    6.6042 S   0  0  0  0  0  0  0  0  0  0  0  0
  -20.2539   -6.0973    5.1240 C   0  0  0  0  0  0  0  0  0  0  0  0
  -12.9362   -6.4781    4.8701 C   0  0  0  0  0  0  0  0  0  0  0  0
  -18.0777   -6.0512    4.2600 C   0  0  0  0  0  0  0  0  0  0  0  0
  -21.3643   -4.1997    2.3853 C   0  0  0  0  0  0  0  0  0  0  0  0
  -17.7539   -6.2088    5.6043 C   0  0  0  0  0  0  0  0  0  0  0  0
  -22.7318   -2.7677    3.9485 C   0  0  0  0  0  0  0  0  0  0  0  0
  -16.4516   -6.3369    6.0491 C   0  0  0  0  0  0  0  0  0  0  0  0
  -14.0947   -6.5923    5.5328 O   0  0  0  0  0  0  0  0  0  0  0  0
  -10.7397   -6.9205    4.4484 C   0  0  0  0  0  0  0  0  0  0  0  0
  -19.4292   -6.0054    4.0244 C   0  0  0  0  0  0  0  0  0  0  0  0
  -21.7733   -6.3271    5.2004 C   0  0  0  0  0  0  0  0  0  0  0  0
  -12.7612   -6.4740    3.4420 C   0  0  0  0  0  0  0  0  0  0  0  0
  -15.7182   -6.0917    3.8380 C   0  0  0  0  0  0  0  0  0  0  0  0
  1  6  1  0
  1 12  1  0
  1 14  1  0
  2 17  1  0
  2 20  1  0
  3 10  1  0
  3 17  1  0
  4  6  1  0
  5 15  1  0
  5 16  1  0
  5 21  2  0
  6 19  1  0
  7 11  2  0
  7 21  1  0
  8  9  1  0
  8 13  1  0
  9 18  2  0
  9 19  1  0
 10 16  1  0
 10 20  1  0
 11 13  1  0
 11 18  1  0
 13 15  2  0
M  END
>  <ID>  (1) 
conformer_0

$$$$
