
     RDKit          3D

 11 10  0  0  0  0  0  0  0  0999 V2000
  -13.2180   -6.6212    4.1082 C   0  0  0  0  0  0  0  0  0  0  0  0
  -19.3370   -7.4243    4.6962 C   0  0  0  0  0  0  0  0  0  0  0  0
  -14.3056   -5.1328    5.6478 O   0  0  0  0  0  0  0  0  0  0  0  0
  -14.4166   -6.3149    4.9923 C   0  0  0  0  0  0  0  0  0  0  0  0
  -15.7183   -6.3727    4.1642 C   0  0  0  0  0  0  0  0  0  0  0  0
  -10.8706   -6.8218    4.2366 O   0  0  0  0  0  0  0  0  0  0  0  0
  -11.9721   -6.5147    4.8823 C   0  0  0  0  0  0  0  0  0  0  0  0
  -12.0418   -6.5219    6.1307 O   0  0  0  0  0  0  0  0  0  0  0  0
  -17.0337   -6.3569    5.0317 C   0  0  0  0  0  0  0  0  0  0  0  0
  -18.1690   -6.7785    4.1499 C   0  0  0  0  0  0  0  0  0  0  0  0
  -18.0230   -6.5636    2.8754 O   0  0  0  0  0  0  0  0  0  0  0  0
  1  4  1  0
  1  7  1  0
  2 10  1  0
  3  4  1  0
  4  5  1  0
  5  9  1  0
  6  7  2  0
  7  8  1  0
  9 10  1  0
 10 11  1  0
M  END
>  <ID>  (1) 
conformer_0

$$$$
