
     RDKit          3D

 21 23  0  0  0  0  0  0  0  0999 V2000
  -19.6310   -4.9075    5.7690 C   0  0  0  0  0  0  0  0  0  0  0  0
  -21.3805   -9.0026    3.9716 C   0  0  0  0  0  0  0  0  0  0  0  0
  -21.4835   -5.9948    6.6484 O   0  0  0  0  0  0  0  0  0  0  0  0
  -17.5392   -5.7258    4.7421 C   0  0  0  0  0  0  0  0  0  0  0  0
  -16.2151   -5.4807    4.9719 N   0  0  0  0  0  0  0  0  0  0  0  0
  -14.0139   -6.2106    4.6203 C   0  0  0  0  0  0  0  0  0  0  0  0
  -19.3547   -8.3010    2.9938 C   0  0  0  0  0  0  0  0  0  0  0  0
  -15.3715   -6.2245    4.3476 N   0  0  0  0  0  0  0  0  0  0  0  0
  -20.2974   -7.0606    4.8527 C   0  0  0  0  0  0  0  0  0  0  0  0
  -20.4045   -9.1438    3.0068 C   0  0  0  0  0  0  0  0  0  0  0  0
  -17.9880   -6.7308    3.9985 N   0  0  0  0  0  0  0  0  0  0  0  0
  -10.7239   -7.1816    3.8484 C   0  0  0  0  0  0  0  0  0  0  0  0
  -13.3803   -5.8850    5.7515 N   0  0  0  0  0  0  0  0  0  0  0  0
  -13.0891   -6.6951    3.7521 N   0  0  0  0  0  0  0  0  0  0  0  0
  -21.3287   -7.9908    4.8828 C   0  0  0  0  0  0  0  0  0  0  0  0
   -9.6894   -7.1773    4.7135 N   0  0  0  0  0  0  0  0  0  0  0  0
  -19.2082   -7.2896    3.9787 C   0  0  0  0  0  0  0  0  0  0  0  0
  -18.4358   -4.8727    5.3391 C   0  0  0  0  0  0  0  0  0  0  0  0
  -11.9181   -6.6759    4.3774 C   0  0  0  0  0  0  0  0  0  0  0  0
  -12.0457   -6.2126    5.6213 C   0  0  0  0  0  0  0  0  0  0  0  0
  -20.5132   -5.9489    5.7765 N   0  0  0  0  0  0  0  0  0  0  0  0
  1 18  2  0
  1 21  1  0
  2 10  1  0
  2 15  2  0
  3 21  1  0
  4  5  2  3
  4 11  1  0
  4 18  1  0
  5  8  1  0
  6  8  2  3
  6 13  1  0
  6 14  1  0
  7 10  2  0
  7 17  1  0
  9 15  1  0
  9 17  1  0
  9 21  1  0
 11 17  2  0
 12 16  1  0
 12 19  1  0
 13 20  1  0
 14 19  1  0
 19 20  1  0
M  END
>  <ID>  (1) 
conformer_0

$$$$
