
     RDKit          3D

 18 19  0  0  0  0  0  0  0  0999 V2000
  -12.0881   -7.0093    6.2750 O   0  0  0  0  0  0  0  0  0  0  0  0
  -15.8959   -5.2046    4.9816 C   0  0  0  0  0  0  0  0  0  0  0  0
  -20.3219   -7.3697    5.3010 C   0  0  0  0  0  0  0  0  0  0  0  0
  -12.3341   -6.5895    2.8581 N   0  0  0  0  0  0  0  0  0  0  0  0
  -19.7305   -6.3857    6.0940 C   0  0  0  0  0  0  0  0  0  0  0  0
  -10.2474   -7.1234    4.3465 O   0  0  0  0  0  0  0  0  0  0  0  0
  -17.7148   -6.6983    4.8760 C   0  0  0  0  0  0  0  0  0  0  0  0
  -22.1519   -8.6691    4.6714 C   0  0  0  0  0  0  0  0  0  0  0  0
  -12.2721   -6.2448    5.1599 C   0  0  0  0  0  0  0  0  0  0  0  0
  -16.2968   -6.5446    4.7881 O   0  0  0  0  0  0  0  0  0  0  0  0
  -13.7084   -6.2828    4.6868 C   0  0  0  0  0  0  0  0  0  0  0  0
  -14.4573   -5.1580    5.3685 C   0  0  0  0  0  0  0  0  0  0  0  0
  -11.4538   -6.6328    3.9867 C   0  0  0  0  0  0  0  0  0  0  0  0
  -13.6292   -6.1273    3.2182 C   0  0  0  0  0  0  0  0  0  0  0  0
  -18.4307   -6.0304    5.8577 C   0  0  0  0  0  0  0  0  0  0  0  0
  -21.5554   -7.8534    5.6350 O   0  0  0  0  0  0  0  0  0  0  0  0
  -19.6192   -7.8895    4.2154 C   0  0  0  0  0  0  0  0  0  0  0  0
  -18.3252   -7.5545    3.9925 C   0  0  0  0  0  0  0  0  0  0  0  0
  1  9  1  0
  2 10  1  0
  2 12  1  0
  3  5  2  0
  3 16  1  0
  3 17  1  0
  4 13  1  0
  4 14  1  0
  5 15  1  0
  6 13  2  0
  7 10  1  0
  7 15  2  0
  7 18  1  0
  8 16  1  0
  9 11  1  0
  9 13  1  0
 11 12  1  0
 11 14  1  0
 17 18  2  0
M  END
>  <ID>  (1) 
conformer_0

$$$$
