
     RDKit          3D

 18 19  0  0  0  0  0  0  0  0999 V2000
  -10.7247   -8.0850    4.1048 O   0  0  0  0  0  0  0  0  0  0  0  0
  -19.6301   -6.9954    4.1970 C   0  0  0  0  0  0  0  0  0  0  0  0
  -12.7745   -6.4986    4.8703 C   0  0  0  0  0  0  0  0  0  0  0  0
  -16.4635   -5.9932    5.6657 C   0  0  0  0  0  0  0  0  0  0  0  0
  -17.5670   -6.3390    4.8395 C   0  0  0  0  0  0  0  0  0  0  0  0
  -17.6311   -6.3002    3.4881 C   0  0  0  0  0  0  0  0  0  0  0  0
  -18.8426   -6.5784    3.0892 N   0  0  0  0  0  0  0  0  0  0  0  0
  -11.9310   -6.1552    3.7790 N   0  0  0  0  0  0  0  0  0  0  0  0
  -21.6591   -7.3709    5.5533 C   0  0  0  0  0  0  0  0  0  0  0  0
  -22.4186   -8.3341    4.6492 C   0  0  0  0  0  0  0  0  0  0  0  0
  -20.9939   -6.4933    4.4818 C   0  0  0  0  0  0  0  0  0  0  0  0
  -14.1945   -5.9260    4.6115 C   0  0  0  0  0  0  0  0  0  0  0  0
  -10.6716   -6.7453    3.9304 C   0  0  0  0  0  0  0  0  0  0  0  0
  -18.8130   -6.6225    5.3200 C   0  0  0  0  0  0  0  0  0  0  0  0
  -15.2145   -6.7332    5.4499 C   0  0  0  0  0  0  0  0  0  0  0  0
  -20.0574   -8.3557    3.9962 C   0  0  0  0  0  0  0  0  0  0  0  0
  -12.1663   -6.7680    5.9772 O   0  0  0  0  0  0  0  0  0  0  0  0
  -21.3545   -8.8922    3.8103 C   0  0  0  0  0  0  0  0  0  0  0  0
  1 13  1  0
  2  7  1  0
  2 11  1  0
  2 14  1  0
  2 16  1  0
  3  8  1  0
  3 12  1  0
  3 17  2  0
  4  5  1  0
  4 15  1  0
  5  6  1  0
  5 14  1  0
  6  7  1  0
  8 13  1  0
  9 10  1  0
  9 11  1  0
 10 18  1  0
 12 15  1  0
 16 18  1  0
M  END
>  <ID>  (1) 
conformer_0

$$$$
