
     RDKit          3D

 28 30  0  0  0  0  0  0  0  0999 V2000
  -20.7978   -5.1261    3.7884 C   0  0  0  0  0  0  0  0  0  0  0  0
  -22.0682  -10.5408    3.4953 C   0  0  0  0  0  0  0  0  0  0  0  0
  -17.4747   -5.9619    6.0095 C   0  0  0  0  0  0  0  0  0  0  0  0
  -23.7163   -3.7039    2.2765 O   0  0  0  0  0  0  0  0  0  0  0  0
  -21.2344   -9.6975    2.8370 C   0  0  0  0  0  0  0  0  0  0  0  0
  -21.3703   -8.3550    2.9881 N   0  0  0  0  0  0  0  0  0  0  0  0
  -14.0627   -5.9205    5.5200 C   0  0  0  0  0  0  0  0  0  0  0  0
  -20.0093   -6.1746    3.3518 C   0  0  0  0  0  0  0  0  0  0  0  0
  -18.6303   -6.2735    3.4508 C   0  0  0  0  0  0  0  0  0  0  0  0
  -23.1810   -3.5301    4.4454 N   0  0  0  0  0  0  0  0  0  0  0  0
  -14.2280   -6.3268    4.2513 N   0  0  0  0  0  0  0  0  0  0  0  0
  -13.1196   -6.7272    3.6409 C   0  0  0  0  0  0  0  0  0  0  0  0
  -22.2611   -6.1820    2.1561 S   0  0  0  0  0  0  0  0  0  0  0  0
  -23.0739   -4.0534    3.2862 C   0  0  0  0  0  0  0  0  0  0  0  0
  -20.4871  -11.7581    2.5019 N   0  0  0  0  0  0  0  0  0  0  0  0
  -12.8113   -5.8892    6.0278 N   0  0  0  0  0  0  0  0  0  0  0  0
  -15.1520   -6.0370    4.9381 C   0  0  0  0  0  0  0  0  0  0  0  0
  -20.2237  -10.4967    2.2233 C   0  0  0  0  0  0  0  0  0  0  0  0
  -18.6500   -5.9137    6.4321 S   0  0  0  0  0  0  0  0  0  0  0  0
  -11.8350   -6.8228    4.2334 C   0  0  0  0  0  0  0  0  0  0  0  0
  -20.0568   -7.4735    1.2820 O   0  0  0  0  0  0  0  0  0  0  0  0
  -17.3847   -6.1626    3.6706 C   0  0  0  0  0  0  0  0  0  0  0  0
  -10.8324   -7.3698    3.6136 O   0  0  0  0  0  0  0  0  0  0  0  0
  -11.7269   -6.3368    5.4937 N   0  0  0  0  0  0  0  0  0  0  0  0
  -21.6134  -11.8134    3.2755 N   0  0  0  0  0  0  0  0  0  0  0  0
  -22.0406   -5.0639    3.1375 C   0  0  0  0  0  0  0  0  0  0  0  0
  -20.8167   -7.1391    2.4644 C   0  0  0  0  0  0  0  0  0  0  0  0
  -16.5727   -6.0599    4.8623 C   0  0  0  0  0  0  0  0  0  0  0  0
  1  8  1  0
  1 26  1  0
  2  5  1  0
  2 25  1  0
  3 19  2  0
  3 28  1  0
  4 14  2  0
  5  6  1  0
  5 18  1  0
  6 27  1  0
  7 16  1  0
  7 17  1  0
  8  9  2  0
  8 27  1  0
  9 22  2  0
 10 14  1  0
 11 12  1  0
 11 17  1  0
 12 20  1  0
 13 26  1  0
 13 27  1  0
 14 26  1  0
 15 18  1  0
 15 25  1  0
 16 24  2  0
 17 28  1  0
 20 23  2  0
 20 24  1  0
 21 27  1  0
 22 28  1  0
M  END
>  <ID>  (1) 
conformer_0

$$$$
