
     RDKit          3D

 15 16  0  0  0  0  0  0  0  0999 V2000
  -10.5599   -6.9778    3.9915 C   0  0  0  0  0  0  0  0  0  0  0  0
  -17.8926   -5.7814    6.4050 C   0  0  0  0  0  0  0  0  0  0  0  0
  -19.8296   -6.8311    5.1826 C   0  0  0  0  0  0  0  0  0  0  0  0
  -19.3570   -7.3463    2.9208 C   0  0  0  0  0  0  0  0  0  0  0  0
  -17.6035   -6.6040    4.3197 C   0  0  0  0  0  0  0  0  0  0  0  0
  -16.5740   -5.6713    6.1005 N   0  0  0  0  0  0  0  0  0  0  0  0
  -12.1184   -6.9136    6.0127 O   0  0  0  0  0  0  0  0  0  0  0  0
  -11.9507   -6.5301    3.7761 N   0  0  0  0  0  0  0  0  0  0  0  0
  -14.0403   -5.8994    4.8213 C   0  0  0  0  0  0  0  0  0  0  0  0
  -12.7041   -6.5365    4.9446 C   0  0  0  0  0  0  0  0  0  0  0  0
  -18.0435   -6.9927    3.0957 C   0  0  0  0  0  0  0  0  0  0  0  0
  -15.1419   -6.6781    4.5906 O   0  0  0  0  0  0  0  0  0  0  0  0
  -16.3601   -6.2861    4.9265 C   0  0  0  0  0  0  0  0  0  0  0  0
  -20.2235   -7.2929    3.9793 C   0  0  0  0  0  0  0  0  0  0  0  0
  -18.5761   -6.4145    5.3463 C   0  0  0  0  0  0  0  0  0  0  0  0
  1  8  1  0
  2  6  1  0
  2 15  1  0
  3 14  1  0
  3 15  2  0
  4 11  1  0
  4 14  2  0
  5 11  2  0
  5 13  1  0
  5 15  1  0
  6 13  1  0
  7 10  2  0
  8 10  1  0
  9 10  1  0
  9 12  1  0
 12 13  1  0
M  END
>  <ID>  (1) 
conformer_0

$$$$
