
     RDKit          3D

 19 20  0  0  0  0  0  0  0  0999 V2000
  -12.2968   -6.7343    3.0785 N   0  0  0  0  0  0  0  0  0  0  0  0
  -21.2358   -6.4234    6.0720 C   0  0  0  0  0  0  0  0  0  0  0  0
  -18.2510   -4.9667    4.2063 C   0  0  0  0  0  0  0  0  0  0  0  0
  -19.6204   -5.3479    4.6375 C   0  0  0  0  0  0  0  0  0  0  0  0
  -12.2308   -6.6184    6.4039 N   0  0  0  0  0  0  0  0  0  0  0  0
  -22.2423   -5.8413    5.3208 C   0  0  0  0  0  0  0  0  0  0  0  0
  -19.9407   -6.1839    5.7219 C   0  0  0  0  0  0  0  0  0  0  0  0
  -15.8866   -5.6660    4.2992 N   0  0  0  0  0  0  0  0  0  0  0  0
  -20.6589   -4.8023    3.9180 C   0  0  0  0  0  0  0  0  0  0  0  0
  -12.4910   -6.4230    5.2362 C   0  0  0  0  0  0  0  0  0  0  0  0
  -17.2321   -5.9358    4.8798 C   0  0  0  0  0  0  0  0  0  0  0  0
  -17.2093   -5.6360    6.2841 O   0  0  0  0  0  0  0  0  0  0  0  0
  -14.8466   -5.8675    5.1713 C   0  0  0  0  0  0  0  0  0  0  0  0
  -13.6948   -6.2316    4.5721 C   0  0  0  0  0  0  0  0  0  0  0  0
  -17.5715   -7.2957    4.5334 O   0  0  0  0  0  0  0  0  0  0  0  0
  -11.5526   -6.7389    4.2239 C   0  0  0  0  0  0  0  0  0  0  0  0
  -10.3567   -7.0826    4.6217 N   0  0  0  0  0  0  0  0  0  0  0  0
  -21.9535   -5.0312    4.2489 C   0  0  0  0  0  0  0  0  0  0  0  0
  -13.5789   -6.4323    3.3079 N   0  0  0  0  0  0  0  0  0  0  0  0
  1 16  1  0
  1 19  1  0
  2  6  1  0
  2  7  2  0
  3  4  1  0
  3 11  1  0
  4  7  1  0
  4  9  1  0
  5 10  2  0
  6 18  1  0
  8 11  1  0
  8 13  1  0
  9 18  2  0
 10 14  1  0
 10 16  1  0
 11 12  1  0
 11 15  1  0
 13 14  1  0
 14 19  1  0
 16 17  2  0
M  END
>  <ID>  (1) 
conformer_0

$$$$
