
     RDKit          3D

 26 28  0  0  0  0  0  0  0  0999 V2000
  -11.7087   -6.1796    3.5636 C   0  0  0  0  0  0  0  0  0  0  0  0
  -13.5510   -6.5315    5.1027 C   0  0  0  0  0  0  0  0  0  0  0  0
  -11.9721   -1.8201   -3.3671 C   0  0  0  0  0  0  0  0  0  0  0  0
  -20.6221   -5.4518    5.2934 C   0  0  0  0  0  0  0  0  0  0  0  0
  -18.3967   -5.7427    5.0466 C   0  0  0  0  0  0  0  0  0  0  0  0
  -20.4302   -6.8114    5.0889 C   0  0  0  0  0  0  0  0  0  0  0  0
  -11.6822   -2.0436   -0.8799 C   0  0  0  0  0  0  0  0  0  0  0  0
  -15.8336   -5.7218    4.4936 C   0  0  0  0  0  0  0  0  0  0  0  0
  -23.0184   -5.3099    6.1769 C   0  0  0  0  0  0  0  0  0  0  0  0
  -15.0185   -6.8533    5.2112 C   0  0  0  0  0  0  0  0  0  0  0  0
  -17.0367   -5.4322    5.1404 C   0  0  0  0  0  0  0  0  0  0  0  0
  -11.2540   -5.7195    2.3069 N   0  0  0  0  0  0  0  0  0  0  0  0
  -11.9076   -4.3239    0.3644 C   0  0  0  0  0  0  0  0  0  0  0  0
  -12.0148   -3.4201   -0.8705 C   0  0  0  0  0  0  0  0  0  0  0  0
  -12.3986   -3.9315   -2.0946 C   0  0  0  0  0  0  0  0  0  0  0  0
  -19.3937   -4.8331    5.2251 C   0  0  0  0  0  0  0  0  0  0  0  0
  -12.3699   -3.1828   -3.3249 C   0  0  0  0  0  0  0  0  0  0  0  0
  -12.2344   -5.1514    1.5843 N   0  0  0  0  0  0  0  0  0  0  0  0
  -21.4182   -7.9474    5.0952 C   0  0  0  0  0  0  0  0  0  0  0  0
  -19.0295   -7.0591    4.8876 O   0  0  0  0  0  0  0  0  0  0  0  0
  -22.5531   -7.7929    6.0999 C   0  0  0  0  0  0  0  0  0  0  0  0
  -13.0745   -6.1298    3.7476 C   0  0  0  0  0  0  0  0  0  0  0  0
  -11.6280   -1.2605   -2.0956 C   0  0  0  0  0  0  0  0  0  0  0  0
  -21.8342   -4.6835    5.5494 C   0  0  0  0  0  0  0  0  0  0  0  0
  -10.9892   -6.7101    4.4585 O   0  0  0  0  0  0  0  0  0  0  0  0
  -23.4643   -6.6332    5.5958 C   0  0  0  0  0  0  0  0  0  0  0  0
  1 12  1  0
  1 22  1  0
  1 25  2  0
  2 10  1  0
  2 22  2  3
  3 17  1  0
  3 23  1  0
  4  6  2  0
  4 16  1  0
  4 24  1  0
  5 11  1  0
  5 16  1  0
  5 20  1  0
  6 19  1  0
  6 20  1  0
  7 14  1  0
  7 23  2  0
  8 10  1  0
  8 11  1  0
  9 24  1  0
  9 26  1  0
 12 18  1  0
 13 14  1  0
 13 18  1  0
 14 15  2  0
 15 17  1  0
 19 21  1  0
 21 26  1  0
M  END
>  <ID>  (1) 
conformer_0

$$$$
