
     RDKit          3D

 30 32  0  0  0  0  0  0  0  0999 V2000
  -25.5845  -11.3915    3.4575 F   0  0  0  0  0  0  0  0  0  0  0  0
  -23.0603   -6.1576    4.4353 C   0  0  0  0  0  0  0  0  0  0  0  0
  -13.6669   -6.3770    5.0275 C   0  0  0  0  0  0  0  0  0  0  0  0
  -17.1178   -4.7298    4.1655 O   0  0  0  0  0  0  0  0  0  0  0  0
  -20.9446   -7.1432    2.4513 C   0  0  0  0  0  0  0  0  0  0  0  0
  -20.7544   -5.3915    4.1628 C   0  0  0  0  0  0  0  0  0  0  0  0
  -25.4861  -10.0048    3.3455 C   0  0  0  0  0  0  0  0  0  0  0  0
  -22.2361   -7.6501    2.4622 C   0  0  0  0  0  0  0  0  0  0  0  0
  -14.6582   -5.8411    4.2433 N   0  0  0  0  0  0  0  0  0  0  0  0
  -19.6473   -4.6050    4.6937 C   0  0  0  0  0  0  0  0  0  0  0  0
  -18.8177   -6.1918    3.1761 C   0  0  0  0  0  0  0  0  0  0  0  0
  -23.0192  -10.1714    3.5830 C   0  0  0  0  0  0  0  0  0  0  0  0
  -13.9221   -6.9359    6.1198 N   0  0  0  0  0  0  0  0  0  0  0  0
  -16.7084   -6.7253    5.4383 C   0  0  0  0  0  0  0  0  0  0  0  0
  -24.2362   -9.3925    3.4835 C   0  0  0  0  0  0  0  0  0  0  0  0
  -24.0166   -5.9033    5.1236 O   0  0  0  0  0  0  0  0  0  0  0  0
  -18.4591   -5.1715    4.0289 C   0  0  0  0  0  0  0  0  0  0  0  0
  -23.1492  -11.5427    3.7034 C   0  0  0  0  0  0  0  0  0  0  0  0
  -12.2130   -6.4701    4.6313 C   0  0  0  0  0  0  0  0  0  0  0  0
  -11.8642   -6.8592    3.3859 C   0  0  0  0  0  0  0  0  0  0  0  0
  -21.9716   -5.3516    4.5805 N   0  0  0  0  0  0  0  0  0  0  0  0
  -20.2628   -6.2770    3.2229 C   0  0  0  0  0  0  0  0  0  0  0  0
  -16.1039   -5.6909    4.4110 C   0  0  0  0  0  0  0  0  0  0  0  0
  -10.1486   -6.9865    4.6662 C   0  0  0  0  0  0  0  0  0  0  0  0
  -10.5677   -7.1779    3.4412 N   0  0  0  0  0  0  0  0  0  0  0  0
  -24.3429   -7.9695    3.6994 C   0  0  0  0  0  0  0  0  0  0  0  0
  -11.1557   -6.6403    5.4059 N   0  0  0  0  0  0  0  0  0  0  0  0
  -22.5478   -8.3100    1.4593 O   0  0  0  0  0  0  0  0  0  0  0  0
  -24.4200  -12.1344    3.6659 C   0  0  0  0  0  0  0  0  0  0  0  0
  -23.0902   -7.2247    3.5325 N   0  0  0  0  0  0  0  0  0  0  0  0
  1  7  1  0
  2 16  2  0
  2 21  1  0
  2 30  1  0
  3  9  1  0
  3 13  2  0
  3 19  1  0
  4 17  1  0
  4 23  1  0
  5  8  1  0
  5 22  2  0
  6 10  1  0
  6 21  2  0
  6 22  1  0
  7 15  2  3
  8 28  2  0
  8 30  1  0
  9 23  1  0
 10 17  1  0
 11 17  1  0
 11 22  1  0
 12 15  1  0
 12 18  2  3
 14 23  1  0
 15 26  1  0
 18 29  1  0
 19 20  1  0
 19 27  1  0
 20 25  1  0
 24 25  1  0
 24 27  1  0
 26 30  1  0
M  END
>  <ID>  (1) 
conformer_0

$$$$
