
     RDKit          3D

 19 20  0  0  0  0  0  0  0  0999 V2000
  -11.2413   -6.9476    3.9707 C   0  0  0  0  0  0  0  0  0  0  0  0
  -12.4786   -6.4264    4.6695 C   0  0  0  0  0  0  0  0  0  0  0  0
  -16.4643   -6.1251    4.6780 C   0  0  0  0  0  0  0  0  0  0  0  0
  -18.5202   -5.6423    3.4826 C   0  0  0  0  0  0  0  0  0  0  0  0
  -14.5454   -5.6521    5.5575 C   0  0  0  0  0  0  0  0  0  0  0  0
  -22.7435   -5.2517    5.4069 O   0  0  0  0  0  0  0  0  0  0  0  0
  -19.8529   -5.2700    3.4706 C   0  0  0  0  0  0  0  0  0  0  0  0
  -17.8791   -6.0244    4.6160 C   0  0  0  0  0  0  0  0  0  0  0  0
  -11.4972   -7.5478    2.8803 O   0  0  0  0  0  0  0  0  0  0  0  0
  -22.0273   -3.6363    4.1208 O   0  0  0  0  0  0  0  0  0  0  0  0
  -15.5305   -6.3814    3.8131 N   0  0  0  0  0  0  0  0  0  0  0  0
  -15.8082   -5.7235    5.7383 N   0  0  0  0  0  0  0  0  0  0  0  0
  -21.8997   -4.7138    4.7107 C   0  0  0  0  0  0  0  0  0  0  0  0
  -18.6564   -6.2645    5.7137 C   0  0  0  0  0  0  0  0  0  0  0  0
  -20.5906   -5.3216    4.6311 C   0  0  0  0  0  0  0  0  0  0  0  0
  -14.0743   -6.3203    4.4211 C   0  0  0  0  0  0  0  0  0  0  0  0
  -10.1275   -6.9676    4.5687 O   0  0  0  0  0  0  0  0  0  0  0  0
  -12.0801   -6.1752    5.9667 N   0  0  0  0  0  0  0  0  0  0  0  0
  -20.0247   -5.9453    5.7312 C   0  0  0  0  0  0  0  0  0  0  0  0
  1  2  1  0
  1  9  2  0
  1 17  1  0
  2 16  1  0
  2 18  1  0
  3  8  1  0
  3 11  2  0
  3 12  1  0
  4  7  2  0
  4  8  1  0
  5 12  1  0
  5 16  1  0
  6 13  2  0
  7 15  1  0
  8 14  2  0
 10 13  1  0
 11 16  1  0
 13 15  1  0
 14 19  1  0
 15 19  2  0
M  END
>  <ID>  (1) 
conformer_0

$$$$
