
     RDKit          3D

 20 21  0  0  0  0  0  0  0  0999 V2000
  -22.8239   -6.2555    5.1356 C   0  0  0  0  0  0  0  0  0  0  0  0
  -10.8978   -7.1625    3.8969 N   0  0  0  0  0  0  0  0  0  0  0  0
  -18.0409   -4.3285    4.4128 C   0  0  0  0  0  0  0  0  0  0  0  0
  -18.0311   -6.7258    4.7132 C   0  0  0  0  0  0  0  0  0  0  0  0
  -22.1431   -6.7649    3.8413 C   0  0  0  0  0  0  0  0  0  0  0  0
  -12.5555   -6.1027    2.7616 O   0  0  0  0  0  0  0  0  0  0  0  0
  -15.0982   -5.9564    4.2801 C   0  0  0  0  0  0  0  0  0  0  0  0
  -14.0971   -6.2755    5.3052 C   0  0  0  0  0  0  0  0  0  0  0  0
  -18.8009   -5.5014    4.7950 C   0  0  0  0  0  0  0  0  0  0  0  0
  -22.3301   -4.4144    3.7283 C   0  0  0  0  0  0  0  0  0  0  0  0
  -12.0567   -6.9249    6.1789 O   0  0  0  0  0  0  0  0  0  0  0  0
  -20.7132   -6.8954    4.2900 C   0  0  0  0  0  0  0  0  0  0  0  0
  -20.1756   -5.5505    4.5371 C   0  0  0  0  0  0  0  0  0  0  0  0
  -12.0473   -6.4937    3.8888 C   0  0  0  0  0  0  0  0  0  0  0  0
  -23.4874   -4.9105    3.1266 C   0  0  0  0  0  0  0  0  0  0  0  0
  -21.1697   -4.4838    4.5602 C   0  0  0  0  0  0  0  0  0  0  0  0
  -16.5181   -6.4977    4.6888 C   0  0  0  0  0  0  0  0  0  0  0  0
  -12.6754   -6.3494    5.1015 N   0  0  0  0  0  0  0  0  0  0  0  0
  -22.3278   -5.6261    2.8589 C   0  0  0  0  0  0  0  0  0  0  0  0
  -22.3970   -4.8095    5.1717 C   0  0  0  0  0  0  0  0  0  0  0  0
  1  5  1  0
  1 20  1  0
  2 14  1  0
  3  9  1  0
  4  9  1  0
  4 17  1  0
  5 12  1  0
  5 19  1  0
  6 14  2  0
  7  8  1  0
  7 17  1  0
  8 18  1  0
  9 13  1  0
 10 15  1  0
 10 16  1  0
 11 18  1  0
 12 13  1  0
 13 16  1  0
 14 18  1  0
 15 19  1  0
 16 20  1  0
M  END
>  <ID>  (1) 
conformer_0

$$$$
