
     RDKit          3D

 13 12  0  0  0  0  0  0  0  0999 V2000
  -18.7296   -6.8647    4.9651 C   0  0  0  0  0  0  0  0  0  0  0  0
  -12.8472   -6.0761    2.8033 O   0  0  0  0  0  0  0  0  0  0  0  0
  -11.7250   -6.8377    5.9604 O   0  0  0  0  0  0  0  0  0  0  0  0
  -11.6072   -6.7386    4.6830 C   0  0  0  0  0  0  0  0  0  0  0  0
  -18.1001   -5.6198    7.0787 O   0  0  0  0  0  0  0  0  0  0  0  0
  -15.1707   -5.7130    4.2318 C   0  0  0  0  0  0  0  0  0  0  0  0
  -20.2510   -5.8661    6.4870 O   0  0  0  0  0  0  0  0  0  0  0  0
  -10.5939   -7.0967    3.9637 O   0  0  0  0  0  0  0  0  0  0  0  0
  -16.3934   -5.9444    5.1688 C   0  0  0  0  0  0  0  0  0  0  0  0
  -17.5767   -6.2447    4.0927 C   0  0  0  0  0  0  0  0  0  0  0  0
  -13.9709   -6.3442    4.9372 C   0  0  0  0  0  0  0  0  0  0  0  0
  -18.9792   -5.9920    6.2342 C   0  0  0  0  0  0  0  0  0  0  0  0
  -12.9008   -6.7126    3.9677 C   0  0  0  0  0  0  0  0  0  0  0  0
  1 10  1  0
  1 12  1  0
  2 13  1  0
  3  4  2  0
  4  8  1  0
  4 13  1  0
  5 12  2  0
  6  9  1  0
  6 11  1  0
  7 12  1  0
  9 10  1  0
 11 13  1  0
M  END
>  <ID>  (1) 
conformer_0

$$$$
