
     RDKit          3D

 13 13  0  0  0  0  0  0  0  0999 V2000
  -12.6343   -6.8512    3.1238 C   0  0  0  0  0  0  0  0  0  0  0  0
  -15.1045   -6.4010    3.6707 C   0  0  0  0  0  0  0  0  0  0  0  0
  -10.5650   -6.7632    4.4984 O   0  0  0  0  0  0  0  0  0  0  0  0
  -17.4228   -5.7176    6.4009 F   0  0  0  0  0  0  0  0  0  0  0  0
  -12.2264   -7.0568    6.4052 O   0  0  0  0  0  0  0  0  0  0  0  0
  -15.3376   -5.8606    5.1394 C   0  0  0  0  0  0  0  0  0  0  0  0
  -11.7960   -6.2936    4.2109 C   0  0  0  0  0  0  0  0  0  0  0  0
  -13.9747   -6.9415    3.2641 N   0  0  0  0  0  0  0  0  0  0  0  0
  -17.2695   -7.2194    4.8650 F   0  0  0  0  0  0  0  0  0  0  0  0
  -12.6679   -6.2289    5.4437 C   0  0  0  0  0  0  0  0  0  0  0  0
  -17.4161   -5.1058    4.3139 F   0  0  0  0  0  0  0  0  0  0  0  0
  -13.9506   -5.6099    5.5320 C   0  0  0  0  0  0  0  0  0  0  0  0
  -16.9298   -5.9528    5.2083 C   0  0  0  0  0  0  0  0  0  0  0  0
  1  7  1  0
  1  8  1  0
  2  6  1  0
  2  8  1  0
  3  7  1  0
  4 13  1  0
  5 10  1  0
  6 12  1  0
  6 13  1  0
  7 10  1  0
  9 13  1  0
 10 12  1  0
 11 13  1  0
M  END
>  <ID>  (1) 
conformer_0

$$$$
