
     RDKit          3D

 27 30  0  0  0  0  0  0  0  0999 V2000
  -16.8743   -6.5029    4.3191 C   0  0  0  0  0  0  0  0  0  0  0  0
  -16.9216   -6.3423    2.9932 F   0  0  0  0  0  0  0  0  0  0  0  0
  -20.1458   -5.5384    3.5257 C   0  0  0  0  0  0  0  0  0  0  0  0
  -18.4721   -4.7713    5.5892 C   0  0  0  0  0  0  0  0  0  0  0  0
  -14.4127   -6.2028    4.0240 C   0  0  0  0  0  0  0  0  0  0  0  0
  -20.8805   -6.5297    2.5810 C   0  0  0  0  0  0  0  0  0  0  0  0
  -20.9414   -4.1871    3.3902 C   0  0  0  0  0  0  0  0  0  0  0  0
  -19.9532   -4.6736    5.7414 C   0  0  0  0  0  0  0  0  0  0  0  0
  -11.8546   -6.4027    3.0918 C   0  0  0  0  0  0  0  0  0  0  0  0
  -18.0905   -5.9417    4.9066 C   0  0  0  0  0  0  0  0  0  0  0  0
  -22.7932   -6.1068    3.5880 O   0  0  0  0  0  0  0  0  0  0  0  0
  -23.4396   -4.6854    3.5891 C   0  0  0  0  0  0  0  0  0  0  0  0
  -20.8792   -7.8533    3.3752 C   0  0  0  0  0  0  0  0  0  0  0  0
  -12.7409   -5.2731    5.5019 O   0  0  0  0  0  0  0  0  0  0  0  0
  -15.7516   -4.4116    4.9852 C   0  0  0  0  0  0  0  0  0  0  0  0
  -19.4454   -7.8541    3.9762 C   0  0  0  0  0  0  0  0  0  0  0  0
  -21.4547   -6.6279    5.6456 C   0  0  0  0  0  0  0  0  0  0  0  0
  -22.0226   -5.9115    4.7593 C   0  0  0  0  0  0  0  0  0  0  0  0
  -20.4935   -5.8549    4.9491 C   0  0  0  0  0  0  0  0  0  0  0  0
  -19.3310   -6.4545    4.3525 C   0  0  0  0  0  0  0  0  0  0  0  0
  -16.7542   -7.7953    4.6737 F   0  0  0  0  0  0  0  0  0  0  0  0
  -13.2011   -6.4272    5.0047 C   0  0  0  0  0  0  0  0  0  0  0  0
  -13.8019   -7.2027    5.9858 O   0  0  0  0  0  0  0  0  0  0  0  0
  -15.6295   -5.8054    4.7906 C   0  0  0  0  0  0  0  0  0  0  0  0
  -22.1651   -6.0809    2.1993 C   0  0  0  0  0  0  0  0  0  0  0  0
  -12.1386   -7.1088    4.2660 O   0  0  0  0  0  0  0  0  0  0  0  0
  -22.2145   -4.4612    4.2623 C   0  0  0  0  0  0  0  0  0  0  0  0
  1  2  1  0
  1 10  1  0
  1 21  1  0
  1 24  1  0
  3  6  1  0
  3  7  1  0
  3 20  1  0
  4  8  1  0
  4 10  1  0
  5 22  1  0
  5 24  1  0
  6 13  1  0
  6 25  1  0
  7 27  1  0
  8 19  1  0
  9 26  1  0
 10 20  1  0
 11 18  1  0
 11 25  1  0
 12 27  1  0
 13 16  1  0
 14 22  1  0
 15 24  1  0
 16 20  1  0
 17 18  1  0
 17 19  1  0
 18 27  1  0
 19 20  1  0
 22 23  1  0
 22 26  1  0
M  END
>  <ID>  (1) 
conformer_0

$$$$
