
     RDKit          3D

 11 10  0  0  0  0  0  0  0  0999 V2000
  -12.5361   -6.2157    2.5816 O   0  0  0  0  0  0  0  0  0  0  0  0
  -11.8096   -6.5592    4.7895 C   0  0  0  0  0  0  0  0  0  0  0  0
  -18.1619   -5.7259    6.9631 O   0  0  0  0  0  0  0  0  0  0  0  0
  -19.4972   -5.6620    4.9428 C   0  0  0  0  0  0  0  0  0  0  0  0
  -14.6871   -6.8129    5.3803 P   0  0  0  0  0  0  0  0  0  0  0  0
  -11.9468   -6.1237    6.0010 O   0  0  0  0  0  0  0  0  0  0  0  0
  -16.0188   -6.6311    5.6833 C   0  0  0  0  0  0  0  0  0  0  0  0
  -14.1052   -6.0857    4.3304 C   0  0  0  0  0  0  0  0  0  0  0  0
  -12.8369   -6.3980    3.8909 N   0  0  0  0  0  0  0  0  0  0  0  0
  -18.3457   -5.7213    5.6671 C   0  0  0  0  0  0  0  0  0  0  0  0
  -17.0388   -5.9285    4.8451 C   0  0  0  0  0  0  0  0  0  0  0  0
  1  9  1  0
  2  6  1  0
  2  9  1  0
  3 10  1  0
  4 10  2  0
  5  7  2  3
  5  8  1  0
  7 11  1  0
  8  9  1  0
 10 11  1  0
M  END
>  <ID>  (1) 
conformer_0

$$$$
