
     RDKit          3D

 16 17  0  0  0  0  0  0  0  0999 V2000
  -14.8334   -6.0772    4.0234 N   0  0  0  0  0  0  0  0  0  0  0  0
  -11.5113   -6.7251    5.2846 C   0  0  0  0  0  0  0  0  0  0  0  0
  -17.9135   -6.4689    5.8953 C   0  0  0  0  0  0  0  0  0  0  0  0
  -19.6377   -7.0262    4.3632 C   0  0  0  0  0  0  0  0  0  0  0  0
  -12.7099   -6.0381    2.9048 C   0  0  0  0  0  0  0  0  0  0  0  0
  -12.8473   -6.6268    5.2654 C   0  0  0  0  0  0  0  0  0  0  0  0
  -15.5957   -6.5027    5.1203 C   0  0  0  0  0  0  0  0  0  0  0  0
  -20.8626   -7.4860    4.1148 F   0  0  0  0  0  0  0  0  0  0  0  0
  -18.8015   -6.8250    3.3186 C   0  0  0  0  0  0  0  0  0  0  0  0
  -17.4757   -6.5095    3.5406 C   0  0  0  0  0  0  0  0  0  0  0  0
  -13.4436   -6.2470    4.0712 C   0  0  0  0  0  0  0  0  0  0  0  0
  -19.2271   -6.7721    5.6424 C   0  0  0  0  0  0  0  0  0  0  0  0
  -11.3773   -6.1463    3.0135 C   0  0  0  0  0  0  0  0  0  0  0  0
  -10.8140   -6.4700    4.2231 N   0  0  0  0  0  0  0  0  0  0  0  0
  -15.2131   -7.2145    6.0655 O   0  0  0  0  0  0  0  0  0  0  0  0
  -17.0136   -6.4504    4.8516 C   0  0  0  0  0  0  0  0  0  0  0  0
  1  7  1  0
  1 11  1  0
  2  6  2  0
  2 14  1  0
  3 12  2  0
  3 16  1  0
  4  8  1  0
  4  9  2  0
  4 12  1  0
  5 11  2  0
  5 13  1  0
  6 11  1  0
  7 15  2  0
  7 16  1  0
  9 10  1  0
 10 16  2  0
 13 14  2  0
M  END
>  <ID>  (1) 
conformer_0

$$$$
