
     RDKit          3D

 25 27  0  0  0  0  0  0  0  0999 V2000
  -16.5057   -6.6412    4.9368 C   0  0  0  0  0  0  0  0  0  0  0  0
  -13.2454   -5.6941    5.7728 N   0  0  0  0  0  0  0  0  0  0  0  0
  -23.7762   -8.6711    1.2023 N   0  0  0  0  0  0  0  0  0  0  0  0
  -22.3502  -10.5895    1.4559 C   0  0  0  0  0  0  0  0  0  0  0  0
  -13.9437   -6.1429    4.7199 C   0  0  0  0  0  0  0  0  0  0  0  0
  -21.6264   -5.5158    4.4215 C   0  0  0  0  0  0  0  0  0  0  0  0
  -15.8078   -4.5982    4.4484 N   0  0  0  0  0  0  0  0  0  0  0  0
  -21.8301   -4.6555    3.5595 O   0  0  0  0  0  0  0  0  0  0  0  0
  -10.5762   -7.1611    4.0110 O   0  0  0  0  0  0  0  0  0  0  0  0
  -13.0507   -6.7386    3.8776 C   0  0  0  0  0  0  0  0  0  0  0  0
  -22.7877   -9.2544    1.8156 C   0  0  0  0  0  0  0  0  0  0  0  0
  -21.0498   -5.1665    5.7507 C   0  0  0  0  0  0  0  0  0  0  0  0
  -19.6467   -4.6090    5.7378 C   0  0  0  0  0  0  0  0  0  0  0  0
  -17.5481   -5.7349    5.1095 N   0  0  0  0  0  0  0  0  0  0  0  0
  -22.1506   -8.5465    2.8469 C   0  0  0  0  0  0  0  0  0  0  0  0
  -17.1189   -4.5478    4.6778 C   0  0  0  0  0  0  0  0  0  0  0  0
  -15.4138   -5.8781    4.6208 C   0  0  0  0  0  0  0  0  0  0  0  0
  -22.4947   -7.1944    2.9609 C   0  0  0  0  0  0  0  0  0  0  0  0
  -24.4022   -7.5048    1.6289 C   0  0  0  0  0  0  0  0  0  0  0  0
  -18.7329   -5.9622    5.9618 C   0  0  0  0  0  0  0  0  0  0  0  0
  -21.2642   -7.5865    2.5376 C   0  0  0  0  0  0  0  0  0  0  0  0
  -11.7386   -6.7003    4.5188 C   0  0  0  0  0  0  0  0  0  0  0  0
  -23.5587   -6.6563    2.3267 N   0  0  0  0  0  0  0  0  0  0  0  0
  -22.4136   -6.7776    4.3932 C   0  0  0  0  0  0  0  0  0  0  0  0
  -11.9534   -6.0774    5.6853 C   0  0  0  0  0  0  0  0  0  0  0  0
  1 14  1  0
  1 17  1  0
  2  5  1  0
  2 25  1  0
  3 11  2  0
  3 19  1  0
  4 11  1  0
  5 10  1  0
  5 17  1  0
  6  8  2  0
  6 12  1  0
  6 24  1  0
  7 16  1  0
  7 17  1  0
  9 22  1  0
 10 22  1  0
 11 15  1  0
 12 13  1  0
 13 20  1  0
 14 16  1  0
 14 20  1  0
 15 21  1  0
 18 21  1  0
 18 23  1  0
 18 24  1  0
 19 23  1  0
 22 25  1  0
M  END
>  <ID>  (1) 
conformer_0

$$$$
