
     RDKit          3D

 14 15  0  0  0  0  0  0  0  0999 V2000
  -19.7171   -5.0212    4.2114 C   0  0  0  0  0  0  0  0  0  0  0  0
  -13.0179   -5.9788    5.8808 O   0  0  0  0  0  0  0  0  0  0  0  0
  -17.4883   -5.6899    4.6204 C   0  0  0  0  0  0  0  0  0  0  0  0
  -10.6851   -7.3048    3.6800 O   0  0  0  0  0  0  0  0  0  0  0  0
  -17.8908   -7.0166    4.7437 C   0  0  0  0  0  0  0  0  0  0  0  0
  -16.0737   -5.3901    4.7853 N   0  0  0  0  0  0  0  0  0  0  0  0
  -15.2120   -6.5348    4.7774 C   0  0  0  0  0  0  0  0  0  0  0  0
  -12.9919   -6.8239    3.8089 N   0  0  0  0  0  0  0  0  0  0  0  0
  -18.3808   -4.6889    4.3378 C   0  0  0  0  0  0  0  0  0  0  0  0
  -11.7192   -6.2982    5.5298 N   0  0  0  0  0  0  0  0  0  0  0  0
  -19.2047   -7.3364    4.6295 C   0  0  0  0  0  0  0  0  0  0  0  0
  -13.7838   -6.3836    4.8181 C   0  0  0  0  0  0  0  0  0  0  0  0
  -11.6990   -6.8201    4.3088 C   0  0  0  0  0  0  0  0  0  0  0  0
  -20.1445   -6.3342    4.3738 C   0  0  0  0  0  0  0  0  0  0  0  0
  1  9  2  0
  1 14  1  0
  2 10  1  0
  2 12  1  0
  3  5  2  0
  3  6  1  0
  3  9  1  0
  4 13  2  0
  5 11  1  0
  6  7  1  0
  7 12  1  0
  8 12  1  0
  8 13  1  0
 10 13  1  0
 11 14  2  0
M  END
>  <ID>  (1) 
conformer_0

$$$$
