
     RDKit          3D

 22 24  0  0  0  0  0  0  0  0999 V2000
  -13.3538   -6.4304    4.8739 C   0  0  0  0  0  0  0  0  0  0  0  0
  -22.3687   -7.0809    5.5722 C   0  0  0  0  0  0  0  0  0  0  0  0
  -10.9894   -6.9460    3.8336 C   0  0  0  0  0  0  0  0  0  0  0  0
  -19.8987   -4.6026    4.9737 C   0  0  0  0  0  0  0  0  0  0  0  0
  -20.7232   -8.0871    4.0036 C   0  0  0  0  0  0  0  0  0  0  0  0
  -14.6779   -6.3100    5.5153 C   0  0  0  0  0  0  0  0  0  0  0  0
  -18.5665   -4.5404    4.7150 C   0  0  0  0  0  0  0  0  0  0  0  0
  -20.5979   -5.7766    4.8627 C   0  0  0  0  0  0  0  0  0  0  0  0
  -21.7089   -8.3325    5.1222 C   0  0  0  0  0  0  0  0  0  0  0  0
  -12.2710   -6.3246    5.6419 N   0  0  0  0  0  0  0  0  0  0  0  0
  -18.6272   -6.8869    4.1668 C   0  0  0  0  0  0  0  0  0  0  0  0
  -23.8161   -8.9815    4.1988 O   0  0  0  0  0  0  0  0  0  0  0  0
  -17.9206   -5.7164    4.3316 C   0  0  0  0  0  0  0  0  0  0  0  0
  -21.8828   -5.8613    5.2158 O   0  0  0  0  0  0  0  0  0  0  0  0
  -19.9793   -6.9089    4.3593 C   0  0  0  0  0  0  0  0  0  0  0  0
  -13.2919   -6.6423    3.5341 N   0  0  0  0  0  0  0  0  0  0  0  0
  -15.8083   -6.8019    4.7850 C   0  0  0  0  0  0  0  0  0  0  0  0
  -23.4709   -7.2655    6.2350 O   0  0  0  0  0  0  0  0  0  0  0  0
  -22.5554   -9.5004    4.7662 C   0  0  0  0  0  0  0  0  0  0  0  0
  -16.4441   -5.6651    4.0712 C   0  0  0  0  0  0  0  0  0  0  0  0
  -12.1004   -6.8959    3.0362 C   0  0  0  0  0  0  0  0  0  0  0  0
  -11.1178   -6.6304    5.1285 C   0  0  0  0  0  0  0  0  0  0  0  0
  1  6  1  0
  1 10  1  0
  1 16  1  0
  2  9  1  0
  2 14  1  0
  2 18  2  0
  3 21  1  0
  3 22  1  0
  4  7  1  0
  4  8  2  0
  5  9  1  0
  5 15  1  0
  6 17  1  0
  7 13  2  0
  8 14  1  0
  8 15  1  0
  9 19  1  0
 10 22  2  0
 11 13  1  0
 11 15  2  0
 12 19  1  0
 13 20  1  0
 16 21  2  0
 17 20  1  0
M  END
>  <ID>  (1) 
conformer_0

$$$$
