
     RDKit          3D

 32 36  0  0  0  0  0  0  0  0999 V2000
  -21.4997   -8.3219    4.2976 C   0  0  0  0  0  0  0  0  0  0  0  0
  -18.2098   -6.2204    5.6411 C   0  0  0  0  0  0  0  0  0  0  0  0
  -19.6447   -6.2306    3.7860 C   0  0  0  0  0  0  0  0  0  0  0  0
  -12.8509   -5.8776    5.9131 N   0  0  0  0  0  0  0  0  0  0  0  0
  -17.0979   -6.2714    4.8372 C   0  0  0  0  0  0  0  0  0  0  0  0
  -21.8563   -9.6564    4.2559 C   0  0  0  0  0  0  0  0  0  0  0  0
   -9.8800   -7.2808    4.5170 C   0  0  0  0  0  0  0  0  0  0  0  0
  -18.5798   -6.2331    2.9769 N   0  0  0  0  0  0  0  0  0  0  0  0
  -25.8232   -2.9535    3.0665 N   0  0  0  0  0  0  0  0  0  0  0  0
  -25.0036   -4.1000    3.0726 C   0  0  0  0  0  0  0  0  0  0  0  0
  -14.7381   -6.1878    4.2468 C   0  0  0  0  0  0  0  0  0  0  0  0
  -11.5486   -6.1479    6.0219 N   0  0  0  0  0  0  0  0  0  0  0  0
  -23.6329   -3.6875    3.1967 N   0  0  0  0  0  0  0  0  0  0  0  0
  -22.2321  -10.2029    3.0550 C   0  0  0  0  0  0  0  0  0  0  0  0
  -22.2217   -9.4428    1.9103 C   0  0  0  0  0  0  0  0  0  0  0  0
  -21.8524   -8.1062    1.9488 C   0  0  0  0  0  0  0  0  0  0  0  0
  -23.5504   -2.2891    3.2930 C   0  0  0  0  0  0  0  0  0  0  0  0
  -20.9505   -6.2715    3.1691 N   0  0  0  0  0  0  0  0  0  0  0  0
  -24.9824   -1.7460    2.9245 C   0  0  0  0  0  0  0  0  0  0  0  0
  -12.1910   -6.8008    3.9902 C   0  0  0  0  0  0  0  0  0  0  0  0
  -22.5873   -4.5064    3.6209 C   0  0  0  0  0  0  0  0  0  0  0  0
  -13.3182   -6.3008    4.6856 C   0  0  0  0  0  0  0  0  0  0  0  0
  -21.4851   -7.6015    3.1370 C   0  0  0  0  0  0  0  0  0  0  0  0
  -12.0162   -7.2125    2.6998 C   0  0  0  0  0  0  0  0  0  0  0  0
   -9.7285   -7.6663    3.1653 C   0  0  0  0  0  0  0  0  0  0  0  0
  -11.1167   -6.7608    4.8733 C   0  0  0  0  0  0  0  0  0  0  0  0
  -19.4717   -6.1871    5.1171 N   0  0  0  0  0  0  0  0  0  0  0  0
  -15.7211   -6.3300    5.3427 C   0  0  0  0  0  0  0  0  0  0  0  0
  -10.7465   -7.6213    2.2301 C   0  0  0  0  0  0  0  0  0  0  0  0
  -17.3333   -6.2403    3.5155 C   0  0  0  0  0  0  0  0  0  0  0  0
  -22.6107   -1.7569    3.9075 O   0  0  0  0  0  0  0  0  0  0  0  0
  -21.6944   -5.1798    2.5556 C   0  0  0  0  0  0  0  0  0  0  0  0
  1  6  2  0
  1 23  1  0
  2  5  1  0
  2 27  1  0
  3  8  1  0
  3 18  1  0
  3 27  2  0
  4 12  1  0
  4 22  1  0
  5 28  1  0
  5 30  2  0
  6 14  1  0
  7 25  1  0
  7 26  2  0
  8 30  1  0
  9 10  1  0
  9 19  1  0
 10 13  1  0
 11 22  1  0
 11 28  1  0
 12 26  1  0
 13 17  1  0
 13 21  1  0
 14 15  2  0
 15 16  1  0
 16 23  2  0
 17 19  1  0
 17 31  2  0
 18 23  1  0
 18 32  1  0
 20 22  1  0
 20 24  2  0
 20 26  1  0
 21 32  1  0
 24 29  1  0
 25 29  2  0
M  END
>  <ID>  (1) 
conformer_0

$$$$
