
     RDKit          3D

 31 32  0  0  0  0  0  0  0  0999 V2000
  -20.2564   -6.7674    1.5701 C   0  0  0  0  0  0  0  0  0  0  0  0
  -17.1214   -4.6157    4.2311 C   0  0  0  0  0  0  0  0  0  0  0  0
  -23.9975   -4.2384    2.9386 C   0  0  0  0  0  0  0  0  0  0  0  0
  -19.5135   -6.1297    5.0139 C   0  0  0  0  0  0  0  0  0  0  0  0
  -20.4195   -6.9044    5.9123 C   0  0  0  0  0  0  0  0  0  0  0  0
  -20.4128   -7.5543   -1.0099 C   0  0  0  0  0  0  0  0  0  0  0  0
  -21.3875   -4.7115    3.6014 C   0  0  0  0  0  0  0  0  0  0  0  0
  -14.5315   -5.7473    4.1817 C   0  0  0  0  0  0  0  0  0  0  0  0
  -18.0705   -6.6441    4.9989 C   0  0  0  0  0  0  0  0  0  0  0  0
  -21.3181   -6.6431   -0.5425 C   0  0  0  0  0  0  0  0  0  0  0  0
  -10.5607   -6.8837    3.8231 C   0  0  0  0  0  0  0  0  0  0  0  0
  -15.2295   -7.2338    5.8856 O   0  0  0  0  0  0  0  0  0  0  0  0
  -22.6723   -5.2395    2.7454 C   0  0  0  0  0  0  0  0  0  0  0  0
  -17.4982   -6.0410    6.1508 O   0  0  0  0  0  0  0  0  0  0  0  0
  -21.2548   -6.2278    0.7761 C   0  0  0  0  0  0  0  0  0  0  0  0
  -11.0504   -6.5806    5.0436 C   0  0  0  0  0  0  0  0  0  0  0  0
  -18.4203   -3.9985    4.4284 C   0  0  0  0  0  0  0  0  0  0  0  0
  -10.9749   -7.8499    3.1778 F   0  0  0  0  0  0  0  0  0  0  0  0
  -19.3400   -7.6786    1.1371 C   0  0  0  0  0  0  0  0  0  0  0  0
  -21.7554   -4.5939    5.1003 C   0  0  0  0  0  0  0  0  0  0  0  0
  -13.2278   -6.4629    4.0818 C   0  0  0  0  0  0  0  0  0  0  0  0
  -12.5991   -6.3069    2.8169 C   0  0  0  0  0  0  0  0  0  0  0  0
  -15.5423   -6.3749    4.9503 C   0  0  0  0  0  0  0  0  0  0  0  0
  -22.2790   -5.2108    1.1545 S   0  0  0  0  0  0  0  0  0  0  0  0
  -16.9393   -5.7953    4.9945 C   0  0  0  0  0  0  0  0  0  0  0  0
  -22.9906   -6.6069    3.1759 O   0  0  0  0  0  0  0  0  0  0  0  0
  -20.5749   -4.0214    5.8570 C   0  0  0  0  0  0  0  0  0  0  0  0
  -19.4158   -8.0981   -0.1872 C   0  0  0  0  0  0  0  0  0  0  0  0
  -19.3617   -4.6509    5.3561 C   0  0  0  0  0  0  0  0  0  0  0  0
  -11.2597   -6.7244    2.6863 C   0  0  0  0  0  0  0  0  0  0  0  0
  -12.3568   -6.4390    5.2472 C   0  0  0  0  0  0  0  0  0  0  0  0
  1 15  1  0
  1 19  2  0
  2 17  1  0
  2 25  1  0
  3 13  1  0
  4  5  1  0
  4  9  1  0
  4 29  1  0
  6 10  2  0
  6 28  1  0
  7 13  1  0
  7 20  1  0
  8 21  1  0
  8 23  1  0
  9 25  1  0
 10 15  1  0
 11 16  1  0
 11 18  1  0
 12 23  1  0
 13 24  1  0
 13 26  1  0
 14 25  1  0
 15 24  1  0
 16 31  2  3
 17 29  1  0
 19 28  1  0
 20 27  1  0
 21 22  1  0
 21 31  1  0
 22 30  1  0
 23 25  1  0
 27 29  1  0
M  END
>  <ID>  (1) 
conformer_0

$$$$
