
     RDKit          3D

 29 28  0  0  0  0  0  0  0  0999 V2000
  -23.3631   -6.7069    2.3606 C   0  0  0  0  0  0  0  0  0  0  0  0
  -17.8536   -5.4164    4.4169 C   0  0  0  0  0  0  0  0  0  0  0  0
  -22.1322   -8.5062    5.1917 C   0  0  0  0  0  0  0  0  0  0  0  0
  -22.3512   -8.6851    3.5432 S   0  0  0  0  0  3  0  0  0  0  0  0
  -20.0859   -6.2355    3.5693 C   0  0  0  0  0  0  0  0  0  0  0  0
  -11.4449   -6.2016    1.9040 C   0  0  0  0  0  0  0  0  0  0  0  0
  -16.8851   -6.3898    3.9653 C   0  0  0  0  0  0  0  0  0  0  0  0
  -15.6742   -6.3743    4.7666 C   0  0  0  0  0  0  0  0  0  0  0  0
  -23.4476   -4.9192    4.5227 C   0  0  0  0  0  0  0  0  0  0  0  0
  -21.1333   -9.6036    3.0075 C   0  0  0  0  0  0  0  0  0  0  0  0
  -10.5387   -7.4087    3.8681 C   0  0  0  0  0  0  0  0  0  0  0  0
  -22.2839   -7.2084    3.0808 N   0  0  0  0  0  0  0  0  0  0  0  0
  -21.5241   -7.1016    5.3817 C   0  0  0  0  0  0  0  0  0  0  0  0
  -10.0118   -7.0570    5.0645 O   0  0  0  0  0  0  0  0  0  0  0  0
  -23.5298   -9.2874    3.2819 O   0  0  0  0  0  1  0  0  0  0  0  0
  -21.6704   -4.0566    3.3246 O   0  0  0  0  0  0  0  0  0  0  0  0
  -21.5182   -6.3964    3.9963 C   0  0  0  0  0  0  0  0  0  0  0  0
  -11.2723   -6.3630    3.3283 C   0  0  0  0  0  0  0  0  0  0  0  0
  -15.7542   -6.8430    5.9670 O   0  0  0  0  0  0  0  0  0  0  0  0
  -19.2794   -7.1350    2.5190 C   0  0  0  0  0  0  0  0  0  0  0  0
  -22.1419   -5.0410    3.9602 C   0  0  0  0  0  0  0  0  0  0  0  0
  -17.2281   -4.3227    4.8811 O   0  0  0  0  0  0  0  0  0  0  0  0
  -13.0674   -6.2160    4.8074 C   0  0  0  0  0  0  0  0  0  0  0  0
  -19.3346   -5.2732    4.3632 C   0  0  0  0  0  0  0  0  0  0  0  0
  -12.8607   -6.8254    5.8566 O   0  0  0  0  0  0  0  0  0  0  0  0
  -14.3634   -6.1680    4.1967 N   0  0  0  0  0  0  0  0  0  0  0  0
  -12.4940   -5.0899    1.6947 C   0  0  0  0  0  0  0  0  0  0  0  0
  -12.0734   -5.5608    4.1727 O   0  0  0  0  0  0  0  0  0  0  0  0
  -19.8914   -4.6053    5.5942 C   0  0  0  0  0  0  0  0  0  0  0  0
  1 12  1  0
  2  7  1  0
  2 22  1  0
  2 24  1  0
  3 13  1  0
  4 10  1  0
  4 12  1  0
  4 15  2  0
  5 17  1  0
  5 20  1  0
  5 24  1  0
  6 18  1  0
  6 27  1  0
  7  8  1  0
  8 19  2  0
  8 26  1  0
  9 21  1  0
 11 14  1  0
 11 18  1  0
 12 17  1  0
 13 17  1  0
 16 21  2  0
 17 21  1  0
 18 28  1  0
 23 25  2  0
 23 26  1  0
 23 28  1  0
 24 29  1  0
M  END
>  <ID>  (1) 
conformer_0

$$$$
