
     RDKit          3D

 22 24  0  0  0  0  0  0  0  0999 V2000
  -21.4800   -8.9815    4.3438 C   0  0  0  0  0  0  0  0  0  0  0  0
  -11.7812   -6.9085    2.8292 C   0  0  0  0  0  0  0  0  0  0  0  0
  -22.7937   -8.8984    4.6485 C   0  0  0  0  0  0  0  0  0  0  0  0
  -21.5249   -6.0231    4.9335 C   0  0  0  0  0  0  0  0  0  0  0  0
  -13.1652   -5.9781    5.4952 C   0  0  0  0  0  0  0  0  0  0  0  0
  -18.6178   -5.0356    4.6857 C   0  0  0  0  0  0  0  0  0  0  0  0
  -16.8878   -7.0256    4.0061 C   0  0  0  0  0  0  0  0  0  0  0  0
  -19.0885   -6.2762    4.4796 C   0  0  0  0  0  0  0  0  0  0  0  0
  -20.4427   -6.7390    4.6136 C   0  0  0  0  0  0  0  0  0  0  0  0
  -13.0105   -6.5235    3.3098 N   0  0  0  0  0  0  0  0  0  0  0  0
  -17.2525   -4.7957    4.5418 C   0  0  0  0  0  0  0  0  0  0  0  0
   -9.9261   -8.1794    3.7102 O   0  0  0  0  0  0  0  0  0  0  0  0
  -10.6666   -7.1227    3.7853 C   0  0  0  0  0  0  0  0  0  0  0  0
  -16.3796   -5.7878    4.2295 C   0  0  0  0  0  0  0  0  0  0  0  0
  -15.0147   -5.5874    4.0686 N   0  0  0  0  0  0  0  0  0  0  0  0
  -22.7591   -6.5033    5.0684 C   0  0  0  0  0  0  0  0  0  0  0  0
  -18.1852   -7.2650    4.1271 C   0  0  0  0  0  0  0  0  0  0  0  0
  -20.5856   -8.1123    4.3513 C   0  0  0  0  0  0  0  0  0  0  0  0
  -11.9574   -6.6355    5.7072 C   0  0  0  0  0  0  0  0  0  0  0  0
  -23.3412   -7.6891    4.9816 C   0  0  0  0  0  0  0  0  0  0  0  0
  -10.8388   -6.6197    5.0537 N   0  0  0  0  0  0  0  0  0  0  0  0
  -13.8837   -6.2387    4.2511 C   0  0  0  0  0  0  0  0  0  0  0  0
  1  3  1  0
  1 18  2  0
  2 10  2  0
  2 13  1  0
  3 20  1  0
  4  9  2  0
  4 16  1  0
  5 19  1  0
  5 22  1  0
  6  8  2  0
  6 11  1  0
  7 14  1  0
  7 17  2  0
  8  9  1  0
  8 17  1  0
  9 18  1  0
 10 22  1  0
 11 14  2  0
 12 13  2  0
 13 21  1  0
 14 15  1  0
 15 22  2  3
 16 20  2  0
 19 21  1  0
M  END
>  <ID>  (1) 
conformer_0

$$$$
