
     RDKit          3D

 23 24  0  0  0  0  0  0  0  0999 V2000
  -22.2374   -8.4830    2.9364 C   0  0  0  0  0  0  0  0  0  0  0  0
  -11.9984   -5.3910    2.0300 C   0  0  0  0  0  0  0  0  0  0  0  0
  -12.3714   -6.3150    4.1798 C   0  0  0  0  0  0  0  0  0  0  0  0
  -17.1633   -5.9831    5.3703 C   0  0  0  0  0  0  0  0  0  0  0  0
  -15.1272   -6.2774    4.2278 N   0  0  0  0  0  0  0  0  0  0  0  0
  -13.0772   -6.3604    5.3233 N   0  0  0  0  0  0  0  0  0  0  0  0
  -22.4809   -8.0521    4.3201 C   0  0  0  0  0  0  0  0  0  0  0  0
  -10.3594   -6.9824    2.7843 N   0  0  0  0  0  0  0  0  0  0  0  0
  -22.0286   -7.3100    2.0451 C   0  0  0  0  0  0  0  0  0  0  0  0
  -11.1788   -5.5729    1.1143 C   0  0  0  0  0  0  0  0  0  0  0  0
  -19.3398   -4.4118    4.2198 O   0  0  0  0  0  0  0  0  0  0  0  0
  -20.6984   -6.3535    4.0407 N   0  0  0  0  0  0  0  0  0  0  0  0
  -14.4511   -6.0830    5.2023 C   0  0  0  0  0  0  0  0  0  0  0  0
  -16.5283   -6.1044    4.0320 C   0  0  0  0  0  0  0  0  0  0  0  0
  -19.0998   -6.1052    6.7674 O   0  0  0  0  0  0  0  0  0  0  0  0
  -18.6245   -6.3447    5.4708 C   0  0  0  0  0  0  0  0  0  0  0  0
  -23.1705   -8.8618    5.0921 O   0  0  0  0  0  0  0  0  0  0  0  0
  -21.2286   -6.2166    2.6865 C   0  0  0  0  0  0  0  0  0  0  0  0
  -19.4753   -5.7234    4.4195 C   0  0  0  0  0  0  0  0  0  0  0  0
  -12.7760   -5.9398    3.0547 N   0  0  0  0  0  0  0  0  0  0  0  0
  -10.9915   -6.6646    3.8613 C   0  0  0  0  0  0  0  0  0  0  0  0
  -21.4611   -7.1658    4.9590 C   0  0  0  0  0  0  0  0  0  0  0  0
  -10.1932   -6.5006    1.6243 C   0  0  0  0  0  0  0  0  0  0  0  0
  1  7  1  0
  1  9  1  0
  2 10  1  0
  2 20  1  0
  3  6  2  3
  3 20  1  0
  3 21  1  0
  4 14  1  0
  4 16  1  0
  5 13  2  3
  5 14  1  0
  6 13  1  0
  7 17  1  0
  7 22  1  0
  8 21  1  0
  8 23  1  0
  9 18  1  0
 10 23  1  0
 11 19  2  0
 12 18  1  0
 12 19  1  0
 12 22  1  0
 15 16  1  0
 16 19  1  0
M  END
>  <ID>  (1) 
conformer_0

$$$$
