
     RDKit          3D

 13 13  0  0  0  0  0  0  0  0999 V2000
  -17.0098   -5.9688    5.9018 C   0  0  0  0  0  0  0  0  0  0  0  0
  -12.1008   -6.9610    3.5780 N   0  0  0  0  0  0  0  0  0  0  0  0
  -16.8455   -6.1984    3.5211 C   0  0  0  0  0  0  0  0  0  0  0  0
  -18.8986   -6.6633    4.6547 C   0  0  0  0  0  0  0  0  0  0  0  0
  -12.6150   -6.4135    4.7483 C   0  0  0  0  0  0  0  0  0  0  0  0
  -18.1615   -6.5809    3.4819 C   0  0  0  0  0  0  0  0  0  0  0  0
  -16.2848   -5.9113    4.7429 C   0  0  0  0  0  0  0  0  0  0  0  0
  -18.3218   -6.3642    5.8565 C   0  0  0  0  0  0  0  0  0  0  0  0
  -14.9063   -5.5927    4.7807 N   0  0  0  0  0  0  0  0  0  0  0  0
  -10.8479   -7.3988    3.5465 C   0  0  0  0  0  0  0  0  0  0  0  0
  -11.9358   -5.9373    5.7242 N   0  0  0  0  0  0  0  0  0  0  0  0
  -14.0097   -6.5762    4.8516 C   0  0  0  0  0  0  0  0  0  0  0  0
   -9.8602   -7.1399    4.4543 C   0  0  0  0  0  0  0  0  0  0  0  0
  1  7  2  0
  1  8  1  0
  2  5  1  0
  2 10  2  3
  3  6  2  0
  3  7  1  0
  4  6  1  0
  4  8  2  0
  5 11  2  0
  5 12  1  0
  7  9  1  0
  9 12  2  3
 10 13  1  0
M  END
>  <ID>  (1) 
conformer_0

$$$$
