
     RDKit          3D

 15 15  0  0  0  0  0  0  0  0999 V2000
  -17.6219   -5.8637    5.2903 C   0  0  0  0  0  0  0  0  0  0  0  0
  -20.5913   -6.3920    3.0448 C   0  0  0  0  0  0  0  0  0  0  0  0
  -16.4680   -5.7461    4.5423 N   0  0  0  0  0  0  0  0  0  0  0  0
  -12.8527   -6.6356    4.5773 C   0  0  0  0  0  0  0  0  0  0  0  0
  -18.8707   -6.2334    4.6447 C   0  0  0  0  0  0  0  0  0  0  0  0
  -19.3492   -5.6749    3.4205 C   0  0  0  0  0  0  0  0  0  0  0  0
  -10.4837   -7.0880    4.2743 C   0  0  0  0  0  0  0  0  0  0  0  0
  -15.2023   -6.1525    5.0246 C   0  0  0  0  0  0  0  0  0  0  0  0
  -19.8131   -7.1858    5.1192 C   0  0  0  0  0  0  0  0  0  0  0  0
  -14.1114   -6.0620    4.0437 C   0  0  0  0  0  0  0  0  0  0  0  0
  -20.7859   -7.3527    4.0595 N   0  0  0  0  0  0  0  0  0  0  0  0
  -17.5815   -5.7010    6.5150 O   0  0  0  0  0  0  0  0  0  0  0  0
  -12.4966   -5.8774    5.6938 O   0  0  0  0  0  0  0  0  0  0  0  0
  -11.7323   -6.6637    3.5689 C   0  0  0  0  0  0  0  0  0  0  0  0
  -15.1687   -7.1011    5.8813 O   0  0  0  0  0  0  0  0  0  0  0  0
  1  3  1  0
  1  5  1  0
  1 12  2  0
  2  6  1  0
  2 11  1  0
  3  8  1  0
  4 10  1  0
  4 13  1  0
  4 14  1  0
  5  6  1  0
  5  9  1  0
  7 14  1  0
  8 10  1  0
  8 15  2  0
  9 11  1  0
M  END
>  <ID>  (1) 
conformer_0

$$$$
