
     RDKit          3D

 13 13  0  0  0  0  0  0  0  0999 V2000
  -13.4557   -6.2309    4.1586 N   0  0  0  0  0  0  0  0  0  0  0  0
  -17.1261   -6.2223    4.3113 C   0  0  0  0  0  0  0  0  0  0  0  0
  -15.7551   -5.9659    4.1260 N   0  0  0  0  0  0  0  0  0  0  0  0
  -12.2401   -6.5970    4.6954 C   0  0  0  0  0  0  0  0  0  0  0  0
  -19.8303   -6.7406    4.5603 C   0  0  0  0  0  0  0  0  0  0  0  0
  -14.6900   -6.3177    4.8269 C   0  0  0  0  0  0  0  0  0  0  0  0
  -14.7376   -6.9755    5.8864 O   0  0  0  0  0  0  0  0  0  0  0  0
  -11.3758   -7.1652    3.8184 O   0  0  0  0  0  0  0  0  0  0  0  0
  -11.9593   -6.6680    5.9039 O   0  0  0  0  0  0  0  0  0  0  0  0
  -17.7066   -6.3778    5.5503 C   0  0  0  0  0  0  0  0  0  0  0  0
  -17.9276   -6.3159    3.1896 C   0  0  0  0  0  0  0  0  0  0  0  0
  -19.2684   -6.5742    3.3248 C   0  0  0  0  0  0  0  0  0  0  0  0
  -19.0449   -6.6415    5.6815 C   0  0  0  0  0  0  0  0  0  0  0  0
  1  4  1  0
  1  6  1  0
  2  3  1  0
  2 10  2  0
  2 11  1  0
  3  6  1  0
  4  8  2  0
  4  9  1  0
  5 12  1  0
  5 13  2  0
  6  7  2  0
 10 13  1  0
 11 12  2  0
M  END
>  <ID>  (1) 
conformer_0

$$$$
