
     RDKit          3D

 23 23  0  0  0  0  0  0  0  0999 V2000
  -13.0373   -5.6004    2.4821 C   0  0  0  0  0  0  0  0  0  0  0  0
  -14.7985   -6.3272    4.1109 C   0  0  0  0  0  0  0  0  0  0  0  0
  -13.4244   -6.0444    4.7877 C   0  0  0  0  0  0  0  0  0  0  0  0
  -18.9006   -5.4530    4.6337 C   0  0  0  0  0  0  0  0  0  0  0  0
  -12.4066   -4.0401    0.6627 N   0  0  0  0  0  0  0  0  0  0  0  0
  -21.1213   -4.5618    3.9841 C   0  0  0  0  0  0  0  0  0  0  0  0
  -11.0346   -6.7202    5.4100 O   0  0  0  0  0  0  0  0  0  0  0  0
  -12.4593   -5.1446    1.3270 C   0  0  0  0  0  0  0  0  0  0  0  0
  -22.1873   -4.9050    3.2008 F   0  0  0  0  0  0  0  0  0  0  0  0
  -12.2701   -3.7510   -0.7115 C   0  0  0  0  0  0  0  0  0  0  0  0
  -19.3993   -7.8835    3.4655 C   0  0  0  0  0  0  0  0  0  0  0  0
  -15.7571   -5.3516    4.8581 C   0  0  0  0  0  0  0  0  0  0  0  0
  -18.2444   -7.6741    4.1454 C   0  0  0  0  0  0  0  0  0  0  0  0
  -20.5280   -3.4203    3.4753 F   0  0  0  0  0  0  0  0  0  0  0  0
  -16.7718   -6.2699    5.5630 C   0  0  0  0  0  0  0  0  0  0  0  0
  -11.2610   -6.7045    4.1678 C   0  0  0  0  0  0  0  0  0  0  0  0
  -20.1021   -5.6785    3.9870 C   0  0  0  0  0  0  0  0  0  0  0  0
  -12.4021   -5.9241    3.6874 C   0  0  0  0  0  0  0  0  0  0  0  0
  -10.7531   -7.5614    3.4309 O   0  0  0  0  0  0  0  0  0  0  0  0
  -17.9944   -6.4758    4.7393 C   0  0  0  0  0  0  0  0  0  0  0  0
  -20.3208   -6.8785    3.4000 C   0  0  0  0  0  0  0  0  0  0  0  0
  -21.5172   -4.3193    5.2906 F   0  0  0  0  0  0  0  0  0  0  0  0
  -18.5655   -4.3189    5.1931 F   0  0  0  0  0  0  0  0  0  0  0  0
  1  8  1  0
  1 18  1  0
  2  3  1  0
  2 12  1  0
  3 18  1  0
  4 17  2  0
  4 20  1  0
  4 23  1  0
  5  8  1  0
  5 10  1  0
  6  9  1  0
  6 14  1  0
  6 17  1  0
  6 22  1  0
  7 16  2  0
 11 13  1  0
 11 21  2  0
 12 15  1  0
 13 20  2  0
 15 20  1  0
 16 18  1  0
 16 19  1  0
 17 21  1  0
M  END
>  <ID>  (1) 
conformer_0

$$$$
