
     RDKit          3D

 13 13  0  0  0  0  0  0  0  0999 V2000
  -17.5523   -4.4388    4.5177 C   0  0  0  0  0  0  0  0  0  0  0  0
  -16.7941   -5.6713    4.5044 C   0  0  0  0  0  0  0  0  0  0  0  0
  -11.0271   -6.7379    4.3363 O   0  0  0  0  0  0  0  0  0  0  0  0
  -18.9927   -4.4912    4.3548 C   0  0  0  0  0  0  0  0  0  0  0  0
  -19.6001   -5.7996    4.0578 C   0  0  0  0  0  0  0  0  0  0  0  0
  -18.8478   -7.0985    4.2298 C   0  0  0  0  0  0  0  0  0  0  0  0
  -13.3149   -6.5053    4.2334 N   0  0  0  0  0  0  0  0  0  0  0  0
  -14.5440   -6.6244    4.9066 C   0  0  0  0  0  0  0  0  0  0  0  0
  -15.3618   -5.4468    4.6115 C   0  0  0  0  0  0  0  0  0  0  0  0
  -20.8871   -5.8534    3.8815 O   0  0  0  0  0  0  0  0  0  0  0  0
  -12.1345   -6.5421    4.9682 C   0  0  0  0  0  0  0  0  0  0  0  0
  -12.2052   -6.5659    6.1879 O   0  0  0  0  0  0  0  0  0  0  0  0
  -17.3787   -7.0002    4.5700 C   0  0  0  0  0  0  0  0  0  0  0  0
  1  2  2  0
  1  4  1  0
  2  9  1  0
  2 13  1  0
  3 11  2  0
  4  5  2  0
  5  6  1  0
  5 10  1  0
  6 13  2  0
  7  8  1  0
  7 11  1  0
  8  9  1  0
 11 12  1  0
M  END
>  <ID>  (1) 
conformer_0

$$$$
