
     RDKit          3D

 24 26  0  0  0  0  0  0  0  0999 V2000
  -15.9817   -6.5095    4.7743 C   0  0  0  0  0  0  0  0  0  0  0  0
  -11.3421   -2.5146    0.3024 C   0  0  0  0  0  0  0  0  0  0  0  0
  -11.4434   -1.6740   -0.8080 C   0  0  0  0  0  0  0  0  0  0  0  0
  -18.0635   -4.9175    4.3848 C   0  0  0  0  0  0  0  0  0  0  0  0
  -21.4326   -6.6614    4.7442 C   0  0  0  0  0  0  0  0  0  0  0  0
  -20.9872   -4.4874    3.8028 C   0  0  0  0  0  0  0  0  0  0  0  0
  -18.7084   -7.2011    4.7531 C   0  0  0  0  0  0  0  0  0  0  0  0
  -19.6379   -4.9840    4.3950 C   0  0  0  0  0  0  0  0  0  0  0  0
  -12.4458   -3.4366   -2.0584 N   0  0  0  0  0  0  0  0  0  0  0  0
  -13.7754   -6.2829    3.8740 N   0  0  0  0  0  0  0  0  0  0  0  0
  -15.0547   -6.0090    3.9516 N   0  0  0  0  0  0  0  0  0  0  0  0
  -12.2461   -6.6293    5.5322 O   0  0  0  0  0  0  0  0  0  0  0  0
  -11.4495   -6.1064    3.3371 C   0  0  0  0  0  0  0  0  0  0  0  0
  -15.6230   -7.0808    5.8097 O   0  0  0  0  0  0  0  0  0  0  0  0
  -11.8409   -5.7739    2.0286 C   0  0  0  0  0  0  0  0  0  0  0  0
  -12.5998   -6.2780    4.4057 C   0  0  0  0  0  0  0  0  0  0  0  0
  -11.7092   -4.6230    1.4136 N   0  0  0  0  0  0  0  0  0  0  0  0
  -11.8240   -3.8395    0.2884 C   0  0  0  0  0  0  0  0  0  0  0  0
  -19.9747   -6.3324    4.9975 C   0  0  0  0  0  0  0  0  0  0  0  0
  -10.4054   -6.8787    3.6712 O   0  0  0  0  0  0  0  0  0  0  0  0
  -11.9788   -2.1143   -2.0329 C   0  0  0  0  0  0  0  0  0  0  0  0
  -12.3790   -4.2729   -0.9303 C   0  0  0  0  0  0  0  0  0  0  0  0
  -17.4782   -6.2818    4.6107 C   0  0  0  0  0  0  0  0  0  0  0  0
  -22.1046   -5.4352    4.1991 C   0  0  0  0  0  0  0  0  0  0  0  0
  1 11  1  0
  1 14  2  0
  1 23  1  0
  2  3  2  0
  2 18  1  0
  3 21  1  0
  4  8  1  0
  4 23  1  0
  5 19  1  0
  5 24  1  0
  6  8  1  0
  6 24  1  0
  7 19  1  0
  7 23  1  0
  8 19  1  0
  9 21  2  0
  9 22  1  0
 10 11  1  0
 10 16  1  0
 12 16  2  0
 13 15  1  0
 13 16  1  0
 13 20  1  0
 15 17  2  3
 17 18  1  0
 18 22  2  0
M  END
>  <ID>  (1) 
conformer_0

$$$$
