
     RDKit          3D

 27 31  0  0  0  0  0  0  0  0999 V2000
  -11.9316   -6.4502    5.6207 N   0  0  0  0  0  0  0  0  0  0  0  0
  -21.4398   -8.2367    3.7614 C   0  0  0  0  0  0  0  0  0  0  0  0
  -17.9758   -5.5112    4.4896 C   0  0  0  0  0  0  0  0  0  0  0  0
  -20.1548   -4.1298    3.6029 C   0  0  0  0  0  0  0  0  0  0  0  0
  -14.1250   -6.0517    4.8050 C   0  0  0  0  0  0  0  0  0  0  0  0
  -19.6672   -2.9329    3.4959 F   0  0  0  0  0  0  0  0  0  0  0  0
  -20.2005   -7.7301    4.0665 S   0  0  0  0  0  0  0  0  0  0  0  0
  -21.4853   -4.5066    3.3371 N   0  0  0  0  0  0  0  0  0  0  0  0
  -17.7519   -6.6490    5.2717 C   0  0  0  0  0  0  0  0  0  0  0  0
  -22.4462   -7.2101    3.4153 C   0  0  0  0  0  0  0  0  0  0  0  0
  -21.6290   -5.9847    3.5202 N   0  0  0  0  0  0  0  0  0  0  0  0
  -21.9426   -9.5281    3.6687 N   0  0  0  0  0  0  0  0  0  0  0  0
  -23.6430   -7.9348    3.1411 C   0  0  0  0  0  0  0  0  0  0  0  0
  -12.3415   -6.5374    3.3602 N   0  0  0  0  0  0  0  0  0  0  0  0
  -24.8516   -7.4454    2.7536 N   0  0  0  0  0  0  0  0  0  0  0  0
  -25.6857   -8.3271    2.3386 O   0  0  0  0  0  0  0  0  0  0  0  0
  -16.3850   -6.8094    5.5290 C   0  0  0  0  0  0  0  0  0  0  0  0
  -15.6169   -5.8526    4.8876 N   0  0  0  0  0  0  0  0  0  0  0  0
  -11.4906   -6.7651    4.4007 C   0  0  0  0  0  0  0  0  0  0  0  0
  -13.2046   -6.1433    5.8206 N   0  0  0  0  0  0  0  0  0  0  0  0
  -16.6751   -4.9047    4.2727 C   0  0  0  0  0  0  0  0  0  0  0  0
  -25.1443   -6.1407    2.6321 C   0  0  0  0  0  0  0  0  0  0  0  0
  -20.3953   -6.3421    3.9028 C   0  0  0  0  0  0  0  0  0  0  0  0
  -13.5757   -6.1983    3.5553 C   0  0  0  0  0  0  0  0  0  0  0  0
  -23.3551   -9.3024    3.2734 C   0  0  0  0  0  0  0  0  0  0  0  0
  -10.1433   -7.3303    4.1384 C   0  0  0  0  0  0  0  0  0  0  0  0
  -19.3966   -5.2763    4.0057 C   0  0  0  0  0  0  0  0  0  0  0  0
  1 19  2  0
  1 20  1  0
  2  7  1  0
  2 10  1  0
  2 12  1  0
  3  9  1  0
  3 21  1  0
  3 27  1  0
  4  6  1  0
  4  8  1  0
  4 27  2  0
  5 18  1  0
  5 20  2  0
  5 24  1  0
  7 23  1  0
  8 11  1  0
  9 17  1  0
 10 11  1  0
 10 13  2  0
 11 23  1  0
 12 25  1  0
 13 15  1  0
 13 25  1  0
 14 19  1  0
 14 24  2  0
 15 16  1  0
 15 22  1  0
 17 18  1  0
 18 21  1  0
 19 26  1  0
 23 27  1  0
M  END
>  <ID>  (1) 
conformer_0

$$$$
