
     RDKit          3D

 30 32  0  0  0  0  0  0  0  0999 V2000
  -22.3130   -6.2598    5.1710 C   0  0  0  0  0  0  0  0  0  0  0  0
  -11.7286   -1.7640   -2.0015 C   0  0  0  0  0  0  0  0  0  0  0  0
  -18.8600   -7.5514    4.3993 C   0  0  0  0  0  0  0  0  0  0  0  0
  -11.7266   -4.8020    0.4291 C   0  0  0  0  0  0  0  0  0  0  0  0
  -24.2691   -7.4468    6.3564 C   0  0  0  0  0  0  0  0  0  0  0  0
  -20.1025   -5.1708    4.8485 N   0  0  0  0  0  0  0  0  0  0  0  0
  -12.1835   -3.7973   -0.6587 C   0  0  0  0  0  0  0  0  0  0  0  0
  -11.5259   -5.6435    1.7589 C   0  0  0  0  0  0  0  0  0  0  0  0
  -24.8783   -5.9322    4.5795 C   0  0  0  0  0  0  0  0  0  0  0  0
  -10.5394   -7.4865    2.9540 O   0  0  0  0  0  0  0  0  0  0  0  0
  -22.7267   -7.2959    6.2311 C   0  0  0  0  0  0  0  0  0  0  0  0
  -26.0495   -5.8639    6.6814 C   0  0  0  0  0  0  0  0  0  0  0  0
  -15.7061   -5.7821    4.5348 C   0  0  0  0  0  0  0  0  0  0  0  0
  -11.9563   -2.3289   -0.5625 C   0  0  0  0  0  0  0  0  0  0  0  0
  -20.2426   -7.4852    4.5362 C   0  0  0  0  0  0  0  0  0  0  0  0
  -11.9720   -6.0942    4.2486 C   0  0  0  0  0  0  0  0  0  0  0  0
  -15.7769   -4.5015    4.3931 O   0  0  0  0  0  0  0  0  0  0  0  0
  -20.8815   -6.3096    4.8409 C   0  0  0  0  0  0  0  0  0  0  0  0
  -16.6822   -6.6380    4.6342 O   0  0  0  0  0  0  0  0  0  0  0  0
  -14.4923   -7.2504    5.9684 O   0  0  0  0  0  0  0  0  0  0  0  0
  -11.0715   -6.2180    2.9552 C   0  0  0  0  0  0  0  0  0  0  0  0
  -14.3272   -6.2110    5.0770 C   0  0  0  0  0  0  0  0  0  0  0  0
  -18.0472   -6.4494    4.5692 C   0  0  0  0  0  0  0  0  0  0  0  0
  -11.9043   -2.8641   -2.9229 O   0  0  0  0  0  0  0  0  0  0  0  0
  -11.9381   -4.1466   -2.1513 C   0  0  0  0  0  0  0  0  0  0  0  0
  -23.4308   -6.1907    4.1616 C   0  0  0  0  0  0  0  0  0  0  0  0
  -11.5445   -6.6539    5.3878 O   0  0  0  0  0  0  0  0  0  0  0  0
  -13.3186   -6.4053    3.9661 C   0  0  0  0  0  0  0  0  0  0  0  0
  -24.9151   -6.2570    6.0019 N   0  0  0  0  0  0  0  0  0  0  0  0
  -18.7329   -5.2547    4.7234 C   0  0  0  0  0  0  0  0  0  0  0  0
  1 11  1  0
  1 18  1  0
  1 26  1  0
  2 14  1  0
  2 24  1  0
  3 15  2  0
  3 23  1  0
  4  7  1  0
  4  8  3  0
  5 11  1  0
  5 29  1  0
  6 18  2  0
  6 30  1  0
  7 14  1  0
  7 25  1  0
  8 21  1  0
  9 26  1  0
  9 29  1  0
 10 21  1  0
 12 29  1  0
 13 17  2  0
 13 19  1  0
 13 22  1  0
 15 18  1  0
 16 21  1  0
 16 27  1  0
 16 28  1  0
 19 23  1  0
 20 22  1  0
 22 28  1  0
 23 30  2  0
 24 25  1  0
M  END
>  <ID>  (1) 
conformer_0

$$$$
