
     RDKit          3D

 19 21  0  0  0  0  0  0  0  0999 V2000
  -14.3210   -5.9972    4.8770 N   0  0  0  0  0  0  0  0  0  0  0  0
  -22.3433   -6.2964    2.5642 C   0  0  0  0  0  0  0  0  0  0  0  0
  -16.3796   -7.1742    4.5718 N   0  0  0  0  0  0  0  0  0  0  0  0
  -12.4210   -6.6599    3.5328 O   0  0  0  0  0  0  0  0  0  0  0  0
  -10.9389   -6.6889    5.1933 C   0  0  0  0  0  0  0  0  0  0  0  0
  -18.4760   -6.0491    4.4926 C   0  0  0  0  0  0  0  0  0  0  0  0
  -20.5122   -4.8232    4.0105 C   0  0  0  0  0  0  0  0  0  0  0  0
  -13.0874   -6.3419    4.7286 N   0  0  0  0  0  0  0  0  0  0  0  0
  -16.4270   -4.8773    4.7971 C   0  0  0  0  0  0  0  0  0  0  0  0
  -12.1079   -6.3225    5.6945 N   0  0  0  0  0  0  0  0  0  0  0  0
  -22.3741   -7.6124    3.0118 N   0  0  0  0  0  0  0  0  0  0  0  0
  -17.7305   -7.1914    4.4525 C   0  0  0  0  0  0  0  0  0  0  0  0
  -11.0479   -6.9140    3.8741 N   0  0  0  0  0  0  0  0  0  0  0  0
  -21.6406   -5.0468    3.0009 C   0  0  0  0  0  0  0  0  0  0  0  0
  -17.7542   -4.9103    4.6740 N   0  0  0  0  0  0  0  0  0  0  0  0
  -15.6444   -6.0600    4.7277 C   0  0  0  0  0  0  0  0  0  0  0  0
  -19.8432   -6.0508    4.3854 N   0  0  0  0  0  0  0  0  0  0  0  0
  -21.1762   -8.1441    3.6609 C   0  0  0  0  0  0  0  0  0  0  0  0
  -20.7009   -7.1334    4.7525 C   0  0  0  0  0  0  0  0  0  0  0  0
  1  8  1  0
  1 16  1  0
  2 11  1  0
  2 14  2  0
  3 12  2  0
  3 16  1  0
  4  8  1  0
  4 13  1  0
  5 10  1  0
  5 13  1  0
  6 12  1  0
  6 15  2  0
  6 17  1  0
  7 14  1  0
  7 17  1  0
  8 10  1  0
  9 15  1  0
  9 16  2  0
 11 18  1  0
 17 19  1  0
 18 19  1  0
M  END
>  <ID>  (1) 
conformer_0

$$$$
