
     RDKit          3D

 21 23  0  0  0  0  0  0  0  0999 V2000
  -12.2153   -6.1843    5.9629 N   0  0  0  0  0  0  0  0  0  0  0  0
  -14.8379   -5.9896    3.5362 N   0  0  0  0  0  0  0  0  0  0  0  0
  -11.1885   -6.5993    5.2700 N   0  0  0  0  0  0  0  0  0  0  0  0
  -10.5717   -7.7330    3.4017 N   0  0  0  0  0  0  0  0  0  0  0  0
  -11.4198   -6.9426    3.9914 C   0  0  0  0  0  0  0  0  0  0  0  0
  -14.3181   -7.1810    6.0660 O   0  0  0  0  0  0  0  0  0  0  0  0
  -13.4608   -6.4354    5.4573 C   0  0  0  0  0  0  0  0  0  0  0  0
  -20.0818   -4.9653    5.9168 C   0  0  0  0  0  0  0  0  0  0  0  0
  -20.1797   -5.6262    3.1986 C   0  0  0  0  0  0  0  0  0  0  0  0
  -17.8688   -6.4325    3.5026 N   0  0  0  0  0  0  0  0  0  0  0  0
  -16.9578   -6.3672    4.5643 C   0  0  0  0  0  0  0  0  0  0  0  0
  -13.6198   -6.2871    4.0242 C   0  0  0  0  0  0  0  0  0  0  0  0
  -17.7469   -6.0349    5.8183 C   0  0  0  0  0  0  0  0  0  0  0  0
  -21.2305   -4.9376    3.7971 C   0  0  0  0  0  0  0  0  0  0  0  0
  -21.1838   -4.6466    5.1389 C   0  0  0  0  0  0  0  0  0  0  0  0
  -15.8096   -5.4675    4.3581 C   0  0  0  0  0  0  0  0  0  0  0  0
  -20.1628   -6.0367    1.9664 F   0  0  0  0  0  0  0  0  0  0  0  0
  -19.0259   -5.5950    5.3065 C   0  0  0  0  0  0  0  0  0  0  0  0
  -19.0606   -5.8917    3.9886 C   0  0  0  0  0  0  0  0  0  0  0  0
  -22.2078   -4.6254    3.0311 F   0  0  0  0  0  0  0  0  0  0  0  0
  -12.5721   -6.6628    3.3512 N   0  0  0  0  0  0  0  0  0  0  0  0
  1  3  1  0
  1  7  1  0
  2 12  1  0
  2 16  1  0
  3  5  1  0
  4  5  2  0
  5 21  1  0
  6  7  2  0
  7 12  1  0
  8 15  2  0
  8 18  1  0
  9 14  2  0
  9 17  1  0
  9 19  1  0
 10 11  1  0
 10 19  1  0
 11 13  1  0
 11 16  1  0
 12 21  2  0
 13 18  1  0
 14 15  1  0
 14 20  1  0
 18 19  2  0
M  END
>  <ID>  (1) 
conformer_0

$$$$
