
     RDKit          3D

 12 11  0  0  0  0  0  0  0  0999 V2000
  -14.9660   -7.4848    5.9014 O   0  0  0  0  0  0  0  0  0  0  0  0
  -14.5427   -6.6416    4.9348 C   0  0  0  0  0  0  0  0  0  0  0  0
  -13.0934   -6.3995    4.8814 C   0  0  0  0  0  0  0  0  0  0  0  0
  -12.5470   -6.6244    3.7660 O   0  0  0  0  0  0  0  0  0  0  0  0
  -12.4425   -6.4132    5.9256 O   0  0  0  0  0  0  0  0  0  0  0  0
  -18.9824   -7.2569    4.8516 C   0  0  0  0  0  0  0  0  0  0  0  0
  -18.6574   -6.1650    3.7503 C   0  0  0  0  0  0  0  0  0  0  0  0
  -17.0651   -6.1187    3.7655 C   0  0  0  0  0  0  0  0  0  0  0  0
  -16.7878   -5.8979    5.2143 O   0  0  0  0  0  0  0  0  0  0  0  0
  -15.5890   -5.6347    4.5576 C   0  0  0  0  0  0  0  0  0  0  0  0
  -19.0738   -6.7621    2.5430 O   0  0  0  0  0  0  0  0  0  0  0  0
  -20.3274   -7.2882    5.0387 O   0  0  0  0  0  0  0  0  0  0  0  0
  1  2  1  0
  2  3  1  0
  2 10  1  0
  3  4  2  0
  3  5  1  0
  6  7  1  0
  6 12  1  0
  7  8  1  0
  7 11  1  0
  8  9  1  0
  9 10  1  0
M  END
>  <ID>  (1) 
conformer_0

$$$$
