
     RDKit          3D

 18 20  0  0  0  0  0  0  0  0999 V2000
  -20.1253   -6.0137    2.5251 C   0  0  0  0  0  0  0  0  0  0  0  0
  -20.4610   -4.9771    3.3767 C   0  0  0  0  0  0  0  0  0  0  0  0
  -13.7585   -6.1272    5.1600 C   0  0  0  0  0  0  0  0  0  0  0  0
  -12.7346   -6.2595    5.9734 N   0  0  0  0  0  0  0  0  0  0  0  0
  -16.2840   -6.0241    5.0095 C   0  0  0  0  0  0  0  0  0  0  0  0
  -17.4334   -5.2598    5.6363 C   0  0  0  0  0  0  0  0  0  0  0  0
  -12.2652   -6.6222    3.3616 C   0  0  0  0  0  0  0  0  0  0  0  0
  -16.8509   -6.7204    3.9782 O   0  0  0  0  0  0  0  0  0  0  0  0
  -18.9537   -6.6871    2.7163 C   0  0  0  0  0  0  0  0  0  0  0  0
  -21.5234   -4.2625    3.1099 O   0  0  0  0  0  0  0  0  0  0  0  0
  -19.6763   -4.7095    4.4894 C   0  0  0  0  0  0  0  0  0  0  0  0
  -11.5558   -6.5176    5.5439 N   0  0  0  0  0  0  0  0  0  0  0  0
  -15.0454   -5.6872    5.5202 C   0  0  0  0  0  0  0  0  0  0  0  0
  -18.4942   -5.3960    4.6550 C   0  0  0  0  0  0  0  0  0  0  0  0
  -11.2897   -6.5529    4.2445 N   0  0  0  0  0  0  0  0  0  0  0  0
  -13.5883   -6.4192    3.7830 C   0  0  0  0  0  0  0  0  0  0  0  0
  -18.1191   -6.3181    3.7357 C   0  0  0  0  0  0  0  0  0  0  0  0
  -14.5380   -6.3888    2.9317 N   0  0  0  0  0  0  0  0  0  0  0  0
  1  2  2  0
  1  9  1  0
  2 10  1  0
  2 11  1  0
  3  4  2  0
  3 13  1  0
  3 16  1  0
  4 12  1  0
  5  6  1  0
  5  8  1  0
  5 13  2  3
  6 14  1  0
  7 15  2  0
  7 16  1  0
  8 17  1  0
  9 17  2  0
 11 14  2  0
 12 15  1  0
 14 17  1  0
 16 18  2  0
M  END
>  <ID>  (1) 
conformer_0

$$$$
