
     RDKit          3D

 15 15  0  0  0  0  0  0  0  0999 V2000
  -20.3108   -7.0088    3.4935 C   0  0  0  0  0  0  0  0  0  0  0  0
  -11.6624   -6.0455    5.1406 C   0  0  0  0  0  0  0  0  0  0  0  0
  -19.3736   -7.8364    4.0801 C   0  0  0  0  0  0  0  0  0  0  0  0
  -14.1622   -5.8198    5.1955 C   0  0  0  0  0  0  0  0  0  0  0  0
  -21.4352   -7.5337    3.0131 O   0  0  0  0  0  0  0  0  0  0  0  0
  -12.1753   -6.6673    3.8277 C   0  0  0  0  0  0  0  0  0  0  0  0
  -13.6321   -6.4434    3.9802 N   0  0  0  0  0  0  0  0  0  0  0  0
  -11.1175   -7.5867    3.5516 O   0  0  0  0  0  0  0  0  0  0  0  0
  -16.2831   -5.7324    4.0267 C   0  0  0  0  0  0  0  0  0  0  0  0
  -18.7701   -5.1881    3.6655 C   0  0  0  0  0  0  0  0  0  0  0  0
  -17.7492   -6.0696    4.0471 C   0  0  0  0  0  0  0  0  0  0  0  0
  -15.6324   -5.9331    5.3333 C   0  0  0  0  0  0  0  0  0  0  0  0
  -12.0364   -6.8689    6.2030 O   0  0  0  0  0  0  0  0  0  0  0  0
  -20.0191   -5.6660    3.3755 C   0  0  0  0  0  0  0  0  0  0  0  0
  -18.1194   -7.3671    4.3669 C   0  0  0  0  0  0  0  0  0  0  0  0
  1  3  2  0
  1  5  1  0
  1 14  1  0
  2  6  1  0
  2 13  1  0
  3 15  1  0
  4  7  1  0
  4 12  1  0
  6  7  1  0
  6  8  2  0
  9 11  1  0
  9 12  1  0
 10 11  1  0
 10 14  2  0
 11 15  2  0
M  END
>  <ID>  (1) 
conformer_0

$$$$
