
     RDKit          3D

 32 35  0  0  0  0  0  0  0  0999 V2000
  -10.4172   -6.8350    4.8339 C   0  0  0  0  0  0  0  0  0  0  0  0
  -23.2579   -2.5504   -0.7474 F   0  0  0  0  0  0  0  0  0  0  0  0
  -28.1197   -1.6754    2.1997 O   0  0  0  0  0  0  0  0  0  0  0  0
  -18.4120   -4.3845    4.3936 N   0  0  0  0  0  0  0  0  0  0  0  0
  -23.9416   -2.1789    2.7304 C   0  0  0  0  0  0  0  0  0  0  0  0
  -20.0224   -7.2648    5.5117 O   0  0  0  0  0  0  0  0  0  0  0  0
  -22.7373   -1.6667    4.7206 O   0  0  0  0  0  0  0  0  0  0  0  0
  -20.7421   -5.0858    4.3314 C   0  0  0  0  0  0  0  0  0  0  0  0
  -21.7596   -3.1419    3.3930 N   0  0  0  0  0  0  0  0  0  0  0  0
  -16.2780   -6.4784    4.3430 C   0  0  0  0  0  0  0  0  0  0  0  0
  -25.9731   -1.8148    1.4707 C   0  0  0  0  0  0  0  0  0  0  0  0
  -17.4435   -6.5544    5.2323 C   0  0  0  0  0  0  0  0  0  0  0  0
  -12.1009   -6.9811    3.5096 N   0  0  0  0  0  0  0  0  0  0  0  0
  -22.8668   -2.3496    3.7326 C   0  0  0  0  0  0  0  0  0  0  0  0
  -19.8002   -6.0481    4.9334 N   0  0  0  0  0  0  0  0  0  0  0  0
  -12.5534   -6.6434    4.7001 C   0  0  0  0  0  0  0  0  0  0  0  0
  -25.2759   -1.8602    2.7466 C   0  0  0  0  0  0  0  0  0  0  0  0
  -13.9608   -6.5578    5.0619 C   0  0  0  0  0  0  0  0  0  0  0  0
  -11.5151   -6.5522    5.5102 N   0  0  0  0  0  0  0  0  0  0  0  0
  -14.9606   -5.6904    4.4675 C   0  0  0  0  0  0  0  0  0  0  0  0
  -14.3865   -7.3500    5.9767 O   0  0  0  0  0  0  0  0  0  0  0  0
  -18.5129   -5.6270    4.8547 C   0  0  0  0  0  0  0  0  0  0  0  0
  -25.3415   -2.0075    0.2717 C   0  0  0  0  0  0  0  0  0  0  0  0
  -23.3799   -2.4202    1.5098 C   0  0  0  0  0  0  0  0  0  0  0  0
  -19.6449   -3.9549    4.0498 C   0  0  0  0  0  0  0  0  0  0  0  0
  -24.0291   -2.3112    0.3762 C   0  0  0  0  0  0  0  0  0  0  0  0
  -10.7573   -7.0877    3.6077 C   0  0  0  0  0  0  0  0  0  0  0  0
  -20.4507   -2.7827    3.7318 C   0  0  0  0  0  0  0  0  0  0  0  0
  -26.2315   -1.8217    2.5212 C   0  0  0  0  0  0  0  0  0  0  0  0
  -21.3083   -7.1867    6.2769 C   0  0  0  0  0  0  0  0  0  0  0  0
  -27.5107   -1.7954    3.1564 C   0  0  0  0  0  0  0  0  0  0  0  0
  -21.7838   -4.5454    3.4280 N   0  0  0  0  0  0  0  0  0  0  0  0
  1 19  1  0
  1 27  1  0
  2 26  1  0
  3 31  1  0
  4 22  2  0
  4 25  1  0
  5 14  1  0
  5 17  2  0
  5 24  1  0
  6 15  1  0
  6 30  1  0
  7 14  2  0
  8 15  1  0
  8 25  1  0
  8 32  2  0
  9 14  1  0
  9 28  1  0
  9 32  1  0
 10 12  1  0
 10 20  1  0
 11 23  1  0
 11 29  1  0
 12 22  1  0
 13 16  2  0
 13 27  1  0
 15 22  1  0
 16 18  1  0
 16 19  1  0
 17 29  2  0
 18 20  1  0
 18 21  2  0
 23 26  1  0
 24 26  2  0
 25 28  1  0
 29 31  1  0
M  END
>  <ID>  (1) 
conformer_0

$$$$
