
     RDKit          3D

 30 32  0  0  0  0  0  0  0  0999 V2000
  -24.5625   -5.2323    2.6492 C   0  0  0  0  0  0  0  0  0  0  0  0
  -10.8659   -6.6091    4.8958 C   0  0  0  0  0  0  0  0  0  0  0  0
  -19.2411   -5.6282    6.3743 C   0  0  0  0  0  0  0  0  0  0  0  0
  -14.4681   -5.0813    5.8144 C   0  0  0  0  0  0  0  0  0  0  0  0
  -18.9997   -5.6143    4.9638 C   0  0  0  0  0  0  0  0  0  0  0  0
  -10.4102   -7.2246    3.7602 C   0  0  0  0  0  0  0  0  0  0  0  0
  -12.2319   -6.5980    5.1085 C   0  0  0  0  0  0  0  0  0  0  0  0
  -23.3142   -5.8284    4.5865 C   0  0  0  0  0  0  0  0  0  0  0  0
  -17.6803   -5.8485    4.5498 C   0  0  0  0  0  0  0  0  0  0  0  0
  -23.2819   -5.0575    2.1100 C   0  0  0  0  0  0  0  0  0  0  0  0
  -15.3121   -5.9763    5.0933 C   0  0  0  0  0  0  0  0  0  0  0  0
  -23.4644   -4.6456    0.7485 C   0  0  0  0  0  0  0  0  0  0  0  0
  -25.5960   -5.2957    1.8681 N   0  0  0  0  0  0  0  0  0  0  0  0
   -9.1839   -7.7118    3.7863 N   0  0  0  0  0  0  0  0  0  0  0  0
  -15.7596   -7.0922    5.8819 F   0  0  0  0  0  0  0  0  0  0  0  0
  -19.0984   -6.5262    2.8411 C   0  0  0  0  0  0  0  0  0  0  0  0
  -12.6060   -6.8932    6.2948 O   0  0  0  0  0  0  0  0  0  0  0  0
  -13.1915   -6.6082    4.0130 N   0  0  0  0  0  0  0  0  0  0  0  0
  -19.7162   -5.4033    3.6719 C   0  0  0  0  0  0  0  0  0  0  0  0
  -21.0503   -5.3008    1.4082 O   0  0  0  0  0  0  0  0  0  0  0  0
  -21.8272   -5.6637    4.9914 C   0  0  0  0  0  0  0  0  0  0  0  0
  -11.2514   -7.2903    2.6730 N   0  0  0  0  0  0  0  0  0  0  0  0
  -17.7173   -6.7142    3.4187 C   0  0  0  0  0  0  0  0  0  0  0  0
  -14.6503   -6.4659    3.8559 O   0  0  0  0  0  0  0  0  0  0  0  0
  -12.5103   -6.8214    2.7721 C   0  0  0  0  0  0  0  0  0  0  0  0
  -21.1473   -5.5763    3.7221 N   0  0  0  0  0  0  0  0  0  0  0  0
  -16.5338   -5.0498    4.8730 C   0  0  0  0  0  0  0  0  0  0  0  0
  -24.6555   -5.5563    3.9681 C   0  0  0  0  0  0  0  0  0  0  0  0
  -21.8608   -5.3089    2.4722 C   0  0  0  0  0  0  0  0  0  0  0  0
  -19.3785   -4.0949    3.2878 O   0  0  0  0  0  0  0  0  0  0  0  0
  1 10  1  0
  1 13  2  0
  1 28  1  0
  2  6  1  0
  2  7  1  0
  3  5  1  0
  4 11  1  0
  5  9  1  0
  5 19  1  0
  6 14  2  0
  6 22  1  0
  7 17  2  0
  7 18  1  0
  8 21  1  0
  8 28  1  0
  9 23  1  0
  9 27  1  0
 10 12  1  0
 10 29  1  0
 11 15  1  0
 11 24  1  0
 11 27  1  0
 16 19  1  0
 16 23  1  0
 18 24  1  0
 18 25  1  0
 19 26  1  0
 19 30  1  0
 20 29  2  0
 21 26  1  0
 22 25  1  0
 26 29  1  0
M  END
>  <ID>  (1) 
conformer_0

$$$$
