
     RDKit          3D

 22 23  0  0  0  0  0  0  0  0999 V2000
  -18.3638   -6.5235    4.6661 C   0  0  0  0  0  0  0  0  0  0  0  0
  -13.7120   -6.4112    4.4487 C   0  0  0  0  0  0  0  0  0  0  0  0
  -17.1810   -6.1363    3.8525 C   0  0  0  0  0  0  0  0  0  0  0  0
  -19.6372   -6.2457    3.9816 O   0  0  0  0  0  0  0  0  0  0  0  0
  -23.7337   -7.0614    1.5114 C   0  0  0  0  0  0  0  0  0  0  0  0
  -22.7351   -7.7062    3.9293 C   0  0  0  0  0  0  0  0  0  0  0  0
  -14.7851   -5.9353    3.7908 N   0  0  0  0  0  0  0  0  0  0  0  0
  -22.4885   -6.7754    2.4826 S   0  0  0  0  0  4  0  0  0  0  0  0
  -21.5054   -7.6410    4.8248 C   0  0  0  0  0  0  0  0  0  0  0  0
  -15.4553   -6.8184    5.6164 C   0  0  0  0  0  0  0  0  0  0  0  0
  -11.3206   -6.6826    4.6889 C   0  0  0  0  0  0  0  0  0  0  0  0
  -19.4116   -4.9575    6.2421 C   0  0  0  0  0  0  0  0  0  0  0  0
  -11.3507   -6.4296    5.9063 O   0  0  0  0  0  0  0  0  0  0  0  0
  -21.2646   -7.1857    1.8999 O   0  0  0  0  0  0  0  0  0  0  0  0
  -14.1300   -6.8621    5.6095 N   0  0  0  0  0  0  0  0  0  0  0  0
  -18.2638   -5.9617    6.0693 C   0  0  0  0  0  0  0  0  0  0  0  0
  -20.7559   -5.6021    5.9409 C   0  0  0  0  0  0  0  0  0  0  0  0
  -22.5560   -5.2516    2.9033 C   0  0  0  0  0  0  0  0  0  0  0  0
  -15.8927   -6.3015    4.5147 N   0  0  0  0  0  0  0  0  0  0  0  0
  -10.2220   -7.1388    4.0811 O   0  0  0  0  0  0  0  0  0  0  0  0
  -12.4469   -6.4661    3.8850 N   0  0  0  0  0  0  0  0  0  0  0  0
  -20.7463   -6.3950    4.7486 N   0  0  0  0  0  0  0  0  0  0  0  0
  1  3  1  0
  1  4  1  0
  1 16  1  0
  2  7  2  0
  2 15  1  0
  2 21  1  0
  3 19  1  0
  4 22  1  0
  5  8  1  0
  6  8  1  0
  6  9  1  0
  7 19  1  0
  8 14  1  0
  8 18  1  0
  9 22  1  0
 10 15  1  0
 10 19  1  0
 11 13  2  0
 11 20  1  0
 11 21  1  0
 12 16  1  0
 12 17  1  0
 17 22  1  0
M  END
>  <ID>  (1) 
conformer_0

$$$$
