
     RDKit          3D

  9  9  0  0  0  0  0  0  0  0999 V2000
  -12.6583   -6.4499    4.7534 C   0  0  0  0  0  0  0  0  0  0  0  0
  -18.0745   -7.2573    4.6572 O   0  0  0  0  0  0  0  0  0  0  0  0
  -15.0242   -6.6162    5.2542 C   0  0  0  0  0  0  0  0  0  0  0  0
  -18.4780   -5.8225    4.2947 C   0  0  0  0  0  0  0  0  0  0  0  0
  -14.0204   -6.1065    4.3479 O   0  0  0  0  0  0  0  0  0  0  0  0
  -16.9887   -5.3458    4.3809 C   0  0  0  0  0  0  0  0  0  0  0  0
  -16.5165   -6.7710    4.8325 C   0  0  0  0  0  0  0  0  0  0  0  0
  -12.3313   -6.2522    5.9036 O   0  0  0  0  0  0  0  0  0  0  0  0
  -11.9672   -6.9907    3.8642 O   0  0  0  0  0  0  0  0  0  0  0  0
  1  5  1  0
  1  8  2  0
  1  9  1  0
  2  4  1  0
  2  7  1  0
  3  5  1  0
  3  7  1  0
  4  6  1  0
  6  7  1  0
M  END
>  <ID>  (1) 
conformer_0

$$$$
