
     RDKit          3D

 32 35  0  0  0  0  0  0  0  0999 V2000
  -11.5161   -6.1649    3.3626 C   0  0  0  0  0  0  0  0  0  0  0  0
  -20.3916   -9.5902    2.6153 C   0  0  0  0  0  0  0  0  0  0  0  0
  -11.5833   -2.3513   -2.3410 C   0  0  0  0  0  0  0  0  0  0  0  0
  -21.7872   -9.5891    2.8676 C   0  0  0  0  0  0  0  0  0  0  0  0
  -20.0869   -2.2146    4.0463 C   0  0  0  0  0  0  0  0  0  0  0  0
  -19.5603   -8.6677    3.0800 C   0  0  0  0  0  0  0  0  0  0  0  0
  -19.0509   -3.1044    4.4654 C   0  0  0  0  0  0  0  0  0  0  0  0
  -17.3091   -5.8924    4.6133 C   0  0  0  0  0  0  0  0  0  0  0  0
  -10.3265   -2.2893   -2.2829 N   0  0  0  0  0  0  0  0  0  0  0  0
  -14.7586   -6.2705    5.1821 C   0  0  0  0  0  0  0  0  0  0  0  0
  -21.1030   -2.9349    3.4616 C   0  0  0  0  0  0  0  0  0  0  0  0
  -13.7553   -5.6027    2.9450 N   0  0  0  0  0  0  0  0  0  0  0  0
  -22.0581  -11.8357    2.1531 O   0  0  0  0  0  0  0  0  0  0  0  0
  -11.7896   -3.6144   -0.0692 C   0  0  0  0  0  0  0  0  0  0  0  0
  -17.8392   -6.9170    4.4040 N   0  0  0  0  0  0  0  0  0  0  0  0
  -21.3768   -7.5030    4.1399 C   0  0  0  0  0  0  0  0  0  0  0  0
  -12.2361   -1.8017   -3.2162 O   0  0  0  0  0  0  0  0  0  0  0  0
  -12.3327   -6.4284    4.5884 C   0  0  0  0  0  0  0  0  0  0  0  0
  -22.2336   -8.4951    3.6754 C   0  0  0  0  0  0  0  0  0  0  0  0
  -23.6691  -10.4045    1.7618 O   0  0  0  0  0  0  0  0  0  0  0  0
  -12.3032   -3.2356   -1.2951 C   0  0  0  0  0  0  0  0  0  0  0  0
  -15.8971   -5.4873    4.7841 C   0  0  0  0  0  0  0  0  0  0  0  0
  -20.0190   -7.5638    3.8118 C   0  0  0  0  0  0  0  0  0  0  0  0
  -13.5936   -6.0945    4.3163 N   0  0  0  0  0  0  0  0  0  0  0  0
  -20.7256   -4.3395    3.5106 C   0  0  0  0  0  0  0  0  0  0  0  0
  -12.4988   -5.5104    2.4387 C   0  0  0  0  0  0  0  0  0  0  0  0
  -22.5959  -10.6841    2.2694 C   0  0  0  0  0  0  0  0  0  0  0  0
  -12.3300   -4.6945    1.0534 C   0  0  0  0  0  0  0  0  0  0  0  0
  -19.4785   -4.3708    4.1220 C   0  0  0  0  0  0  0  0  0  0  0  0
  -11.8681   -6.8729    5.6847 O   0  0  0  0  0  0  0  0  0  0  0  0
  -18.8105   -5.5253    4.3282 N   0  0  0  0  0  0  0  0  0  0  0  0
  -19.0623   -6.7061    4.1806 N   0  0  0  0  0  0  0  0  0  0  0  0
  1 18  1  0
  1 26  1  0
  2  4  2  0
  2  6  1  0
  3  9  1  0
  3 17  2  0
  3 21  1  0
  4 19  1  0
  4 27  1  0
  5  7  1  0
  5 11  1  0
  6 23  2  0
  7 29  1  0
  8 15  2  0
  8 22  1  0
  8 31  1  0
 10 22  1  0
 10 24  1  0
 11 25  1  0
 12 24  1  0
 12 26  1  0
 13 27  2  0
 14 21  1  0
 14 28  2  0
 15 32  1  0
 16 19  2  0
 16 23  1  0
 18 24  1  0
 18 30  2  0
 20 27  1  0
 23 32  1  0
 25 29  1  0
 26 28  2  0
 29 31  1  0
 31 32  1  0
M  END
>  <ID>  (1) 
conformer_0

$$$$
