
     RDKit          3D

 21 23  0  0  0  0  0  0  0  0999 V2000
  -20.8951   -9.2389    3.2396 C   0  0  0  0  0  0  0  0  0  0  0  0
  -19.0493   -5.8565    4.1408 C   0  0  0  0  0  0  0  0  0  0  0  0
  -20.2543   -8.0571    3.3576 C   0  0  0  0  0  0  0  0  0  0  0  0
  -20.9542   -6.8178    3.2396 C   0  0  0  0  0  0  0  0  0  0  0  0
  -11.2894   -7.1352    3.2594 C   0  0  0  0  0  0  0  0  0  0  0  0
  -18.7806   -5.7152    5.4762 C   0  0  0  0  0  0  0  0  0  0  0  0
  -10.6101   -7.1455    4.4187 N   0  0  0  0  0  0  0  0  0  0  0  0
  -17.4478   -5.9110    5.9223 C   0  0  0  0  0  0  0  0  0  0  0  0
  -11.3929   -6.5278    5.4350 N   0  0  0  0  0  0  0  0  0  0  0  0
  -15.0604   -6.5381    5.4417 C   0  0  0  0  0  0  0  0  0  0  0  0
   -9.2926   -7.2360    4.6742 N   0  0  0  0  0  0  0  0  0  0  0  0
  -22.9195   -8.0431    2.7014 C   0  0  0  0  0  0  0  0  0  0  0  0
  -20.3512   -5.5489    3.6000 C   0  0  0  0  0  0  0  0  0  0  0  0
  -13.8695   -6.0178    5.2844 N   0  0  0  0  0  0  0  0  0  0  0  0
  -16.4180   -6.2512    5.0548 C   0  0  0  0  0  0  0  0  0  0  0  0
  -22.2355   -9.2255    2.9084 C   0  0  0  0  0  0  0  0  0  0  0  0
  -12.5299   -6.6683    3.5686 N   0  0  0  0  0  0  0  0  0  0  0  0
  -12.5974   -6.3726    4.8960 C   0  0  0  0  0  0  0  0  0  0  0  0
  -16.7567   -6.3681    3.7313 C   0  0  0  0  0  0  0  0  0  0  0  0
  -18.0237   -6.2103    3.2806 C   0  0  0  0  0  0  0  0  0  0  0  0
  -22.2603   -6.8430    2.8733 C   0  0  0  0  0  0  0  0  0  0  0  0
  1  3  2  0
  1 16  1  0
  2  6  2  0
  2 13  1  0
  2 20  1  0
  3  4  1  0
  4 13  1  0
  4 21  2  0
  5  7  1  0
  5 17  1  0
  6  8  1  0
  7  9  1  0
  7 11  1  0
  8 15  2  0
  9 18  2  0
 10 14  1  0
 10 15  1  0
 12 16  2  0
 12 21  1  0
 14 18  1  0
 15 19  1  0
 17 18  1  0
 19 20  2  0
M  END
>  <ID>  (1) 
conformer_0

$$$$
