
     RDKit          3D

 22 22  0  0  0  0  0  0  0  0999 V2000
  -16.9129   -6.0581    4.8493 C   0  0  0  0  0  0  0  0  0  0  0  0
  -12.7408   -6.5713    5.8644 O   0  0  0  0  0  0  0  0  0  0  0  0
   -9.6129   -7.1083    5.0715 O   0  0  0  0  0  0  0  0  0  0  0  0
  -23.6130   -5.6985    4.0681 O   0  0  0  0  0  0  0  0  0  0  0  0
  -13.1987   -6.4268    4.7442 C   0  0  0  0  0  0  0  0  0  0  0  0
  -22.8304   -7.7451    4.9555 C   0  0  0  0  0  0  0  0  0  0  0  0
  -19.0930   -5.3258    5.6293 O   0  0  0  0  0  0  0  0  0  0  0  0
  -12.4695   -6.7435    3.6465 N   0  0  0  0  0  0  0  0  0  0  0  0
  -20.8375   -7.2255    3.0956 C   0  0  0  0  0  0  0  0  0  0  0  0
  -19.2401   -5.8665    4.3707 C   0  0  0  0  0  0  0  0  0  0  0  0
  -20.9149   -8.6962    3.5821 C   0  0  0  0  0  0  0  0  0  0  0  0
  -16.5855   -4.5985    4.5420 C   0  0  0  0  0  0  0  0  0  0  0  0
  -18.0071   -6.5955    3.9555 C   0  0  0  0  0  0  0  0  0  0  0  0
  -20.5001   -6.4420    4.2410 N   0  0  0  0  0  0  0  0  0  0  0  0
  -11.1477   -6.4086    3.4226 C   0  0  0  0  0  0  0  0  0  0  0  0
  -22.7759   -6.3339    4.6054 C   0  0  0  0  0  0  0  0  0  0  0  0
  -14.5614   -5.8383    4.5322 C   0  0  0  0  0  0  0  0  0  0  0  0
  -21.5390   -5.6321    4.9477 C   0  0  0  0  0  0  0  0  0  0  0  0
  -15.6809   -6.7632    5.0984 C   0  0  0  0  0  0  0  0  0  0  0  0
   -9.6445   -8.1634    3.2192 O   0  0  0  0  0  0  0  0  0  0  0  0
  -10.1549   -7.3216    3.9973 C   0  0  0  0  0  0  0  0  0  0  0  0
  -22.2096   -8.8708    4.3154 C   0  0  0  0  0  0  0  0  0  0  0  0
  1 12  1  0
  1 13  1  0
  1 19  1  0
  2  5  2  0
  3 21  2  0
  4 16  2  0
  5  8  1  0
  5 17  1  0
  6 16  1  0
  6 22  1  0
  7 10  1  0
  8 15  1  0
  9 11  1  0
  9 14  1  0
 10 13  1  0
 10 14  1  0
 11 22  1  0
 14 18  1  0
 15 21  1  0
 16 18  1  0
 17 19  1  0
 20 21  1  0
M  END
>  <ID>  (1) 
conformer_0

$$$$
