
     RDKit          3D

 12 13  0  0  0  0  0  0  0  0999 V2000
  -19.9786   -5.8809    4.8915 N   0  0  0  0  0  0  0  0  0  0  0  0
  -17.6463   -5.9378    5.7259 C   0  0  0  0  0  0  0  0  0  0  0  0
  -12.6476   -5.8738    5.7862 N   0  0  0  0  0  0  0  0  0  0  0  0
  -15.7795   -6.1147    4.1232 N   0  0  0  0  0  0  0  0  0  0  0  0
  -12.3631   -6.7725    4.0003 C   0  0  0  0  0  0  0  0  0  0  0  0
  -18.1206   -6.1445    3.3632 C   0  0  0  0  0  0  0  0  0  0  0  0
  -19.0331   -6.4607    5.8274 C   0  0  0  0  0  0  0  0  0  0  0  0
  -11.4558   -6.5405    5.1394 C   0  0  0  0  0  0  0  0  0  0  0  0
  -19.3280   -5.3245    3.7314 C   0  0  0  0  0  0  0  0  0  0  0  0
  -13.4871   -6.2017    4.7598 C   0  0  0  0  0  0  0  0  0  0  0  0
  -14.7140   -6.1212    4.5935 N   0  0  0  0  0  0  0  0  0  0  0  0
  -17.0768   -6.0710    4.3922 C   0  0  0  0  0  0  0  0  0  0  0  0
  1  7  1  0
  1  9  1  0
  2  7  1  0
  2 12  1  0
  3  8  1  0
  3 10  2  0
  4 11  1  0
  4 12  2  3
  5  8  1  0
  5 10  1  0
  6  9  1  0
  6 12  1  0
 10 11  1  0
M  END
>  <ID>  (1) 
conformer_0

$$$$
