
     RDKit          3D

 21 23  0  0  0  0  0  0  0  0999 V2000
  -20.0192   -5.6015    4.7532 C   0  0  0  0  0  0  0  0  0  0  0  0
  -13.7319   -6.2313    4.3281 C   0  0  0  0  0  0  0  0  0  0  0  0
  -19.2715   -5.4875    5.9006 C   0  0  0  0  0  0  0  0  0  0  0  0
  -21.4286   -5.2091    4.7208 C   0  0  0  0  0  0  0  0  0  0  0  0
  -17.2809   -6.0495    4.7233 C   0  0  0  0  0  0  0  0  0  0  0  0
  -20.0551   -6.4598    2.4652 F   0  0  0  0  0  0  0  0  0  0  0  0
   -9.8016   -7.9929    3.0035 C   0  0  0  0  0  0  0  0  0  0  0  0
  -17.8946   -5.7179    5.9001 C   0  0  0  0  0  0  0  0  0  0  0  0
  -22.0002   -4.9622    3.6440 O   0  0  0  0  0  0  0  0  0  0  0  0
  -12.3454   -6.5966    6.2907 O   0  0  0  0  0  0  0  0  0  0  0  0
  -10.0664   -6.8843    4.9864 N   0  0  0  0  0  0  0  0  0  0  0  0
  -18.0130   -6.2629    3.5994 C   0  0  0  0  0  0  0  0  0  0  0  0
  -14.8282   -6.1880    5.4883 C   0  0  0  0  0  0  0  0  0  0  0  0
  -21.9755   -5.0647    5.8143 O   0  0  0  0  0  0  0  0  0  0  0  0
  -11.1670   -7.7358    3.2723 C   0  0  0  0  0  0  0  0  0  0  0  0
  -15.9277   -6.1216    4.6807 N   0  0  0  0  0  0  0  0  0  0  0  0
   -9.1029   -7.3540    4.1347 C   0  0  0  0  0  0  0  0  0  0  0  0
  -19.3987   -6.0928    3.5964 C   0  0  0  0  0  0  0  0  0  0  0  0
  -15.1951   -5.7384    3.5251 C   0  0  0  0  0  0  0  0  0  0  0  0
  -12.3876   -6.5072    5.0495 C   0  0  0  0  0  0  0  0  0  0  0  0
  -11.2416   -6.8518    4.3239 N   0  0  0  0  0  0  0  0  0  0  0  0
  1  3  2  0
  1  4  1  0
  1 18  1  0
  2 13  1  0
  2 19  1  0
  2 20  1  0
  3  8  1  0
  4  9  2  0
  4 14  1  0
  5  8  2  0
  5 12  1  0
  5 16  1  0
  6 18  1  0
  7 15  1  0
  7 17  1  0
 10 20  2  0
 11 17  1  0
 11 21  1  0
 12 18  2  0
 13 16  1  0
 15 21  1  0
 16 19  1  0
 20 21  1  0
M  END
>  <ID>  (1) 
conformer_0

$$$$
