
     RDKit          3D

 17 18  0  0  0  0  0  0  0  0999 V2000
  -21.0152   -8.0059    1.3921 O   0  0  0  0  0  0  0  0  0  0  0  0
  -15.5530   -6.4987    5.7991 C   0  0  0  0  0  0  0  0  0  0  0  0
  -20.4532   -6.8916    5.3583 C   0  0  0  0  0  0  0  0  0  0  0  0
  -15.8526   -6.1463    4.5195 C   0  0  0  0  0  0  0  0  0  0  0  0
  -12.2276   -6.6128    4.2432 C   0  0  0  0  0  0  0  0  0  0  0  0
  -14.6365   -6.0171    3.7905 C   0  0  0  0  0  0  0  0  0  0  0  0
  -12.0504   -6.5453    2.9090 N   0  0  0  0  0  0  0  0  0  0  0  0
  -11.3175   -6.9119    4.9841 O   0  0  0  0  0  0  0  0  0  0  0  0
  -17.1413   -5.9994    4.0872 C   0  0  0  0  0  0  0  0  0  0  0  0
  -21.8862   -7.7075    3.6082 C   0  0  0  0  0  0  0  0  0  0  0  0
  -20.9019   -7.6020    2.6624 C   0  0  0  0  0  0  0  0  0  0  0  0
  -19.4994   -6.7326    4.3744 C   0  0  0  0  0  0  0  0  0  0  0  0
  -19.7098   -7.0687    3.0510 C   0  0  0  0  0  0  0  0  0  0  0  0
  -18.2820   -6.2130    4.7175 C   0  0  0  0  0  0  0  0  0  0  0  0
  -21.6574   -7.3792    4.9658 C   0  0  0  0  0  0  0  0  0  0  0  0
  -14.1298   -6.6839    5.8502 C   0  0  0  0  0  0  0  0  0  0  0  0
  -13.6037   -6.4233    4.6323 C   0  0  0  0  0  0  0  0  0  0  0  0
  1 11  1  0
  2  4  1  0
  2 16  1  0
  3 12  1  0
  3 15  2  0
  4  6  1  0
  4  9  2  3
  5  7  1  0
  5  8  2  0
  5 17  1  0
  6 17  1  0
  9 14  1  0
 10 11  1  0
 10 15  1  0
 11 13  2  0
 12 13  1  0
 12 14  2  3
 16 17  1  0
M  END
>  <ID>  (1) 
conformer_0

$$$$
