
     RDKit          3D

 14 13  0  0  0  0  0  0  0  0999 V2000
  -19.6665   -8.5430    3.4740 O   0  0  0  0  0  0  0  0  0  0  0  0
  -19.4304   -7.3817    3.0629 C   0  0  0  0  0  0  0  0  0  0  0  0
  -12.3079   -6.5561    4.4337 C   0  0  0  0  0  0  0  0  0  0  0  0
  -20.0557   -6.6227    2.3640 O   0  0  0  0  0  0  0  0  0  0  0  0
  -17.6186   -5.7978    6.0108 C   0  0  0  0  0  0  0  0  0  0  0  0
  -11.4353   -6.6610    5.3512 O   0  0  0  0  0  0  0  0  0  0  0  0
  -14.5197   -5.6290    3.9842 C   0  0  0  0  0  0  0  0  0  0  0  0
  -15.9959   -5.6825    4.1232 C   0  0  0  0  0  0  0  0  0  0  0  0
  -16.3699   -6.3824    5.4304 C   0  0  0  0  0  0  0  0  0  0  0  0
  -14.0020   -7.1278    5.9346 O   0  0  0  0  0  0  0  0  0  0  0  0
  -13.7291   -6.4918    4.8535 C   0  0  0  0  0  0  0  0  0  0  0  0
  -18.8057   -6.4381    5.2329 C   0  0  0  0  0  0  0  0  0  0  0  0
  -18.2492   -6.7566    3.7878 N   0  0  0  0  0  0  0  0  0  0  0  0
  -12.1089   -6.6500    3.1453 O   0  0  0  0  0  0  0  0  0  0  0  0
  1  2  2  0
  2  4  1  0
  2 13  1  0
  3  6  2  0
  3 11  1  0
  3 14  1  0
  5  9  1  0
  5 12  1  0
  7  8  1  0
  7 11  1  0
  8  9  1  0
 10 11  2  0
 12 13  1  0
M  END
>  <ID>  (1) 
conformer_0

$$$$
