
     RDKit          3D

 23 24  0  0  0  0  0  0  0  0999 V2000
  -15.8785   -6.8115    5.0943 C   0  0  0  0  0  0  0  0  0  0  0  0
  -14.9823   -4.8203    4.2680 O   0  0  0  0  0  0  0  0  0  0  0  0
  -11.5451   -6.1646    5.4027 N   0  0  0  0  0  0  0  0  0  0  0  0
  -19.0817   -5.6544    4.7220 N   0  0  0  0  0  0  0  0  0  0  0  0
  -13.6618   -6.6921    4.0672 N   0  0  0  0  0  0  0  0  0  0  0  0
  -20.4427   -5.4581    4.9888 C   0  0  0  0  0  0  0  0  0  0  0  0
  -19.3608   -2.2905    3.7103 C   0  0  0  0  0  0  0  0  0  0  0  0
  -11.3098   -6.6977    4.1554 C   0  0  0  0  0  0  0  0  0  0  0  0
  -19.7864   -0.3854    2.6148 C   0  0  0  0  0  0  0  0  0  0  0  0
  -18.5237   -4.4906    4.3156 C   0  0  0  0  0  0  0  0  0  0  0  0
  -18.2251   -1.5284    3.8203 C   0  0  0  0  0  0  0  0  0  0  0  0
  -18.4710   -0.3175    3.1768 C   0  0  0  0  0  0  0  0  0  0  0  0
  -16.9770   -6.2364    4.7683 C   0  0  0  0  0  0  0  0  0  0  0  0
  -14.6754   -5.9697    4.5799 C   0  0  0  0  0  0  0  0  0  0  0  0
  -16.8277   -5.5968    5.9555 O   0  0  0  0  0  0  0  0  0  0  0  0
  -20.3130   -1.6376    2.9720 C   0  0  0  0  0  0  0  0  0  0  0  0
  -20.7260   -4.1892    4.5818 C   0  0  0  0  0  0  0  0  0  0  0  0
  -12.5182   -6.5918    3.3008 C   0  0  0  0  0  0  0  0  0  0  0  0
  -18.2704   -6.9174    4.6905 C   0  0  0  0  0  0  0  0  0  0  0  0
  -21.1382   -6.3083    5.5480 O   0  0  0  0  0  0  0  0  0  0  0  0
  -12.2629   -6.9190    6.2994 O   0  0  0  0  0  0  0  0  0  0  0  0
  -10.2453   -7.2242    3.8600 O   0  0  0  0  0  0  0  0  0  0  0  0
  -19.5232   -3.5896    4.1947 C   0  0  0  0  0  0  0  0  0  0  0  0
  1 13  1  0
  1 14  1  0
  2 14  2  0
  3  8  1  0
  3 21  1  0
  4  6  1  0
  4 10  1  0
  4 19  1  0
  5 14  1  0
  5 18  1  0
  6 17  1  0
  6 20  2  0
  7 11  1  0
  7 16  1  0
  7 23  1  0
  8 18  1  0
  8 22  2  0
  9 12  1  0
  9 16  1  0
 10 23  1  0
 11 12  1  0
 13 15  1  0
 13 19  1  0
 17 23  1  0
M  END
>  <ID>  (1) 
conformer_0

$$$$
