
     RDKit          3D

 26 27  0  0  0  0  0  0  0  0999 V2000
  -21.6076   -6.1398    3.8595 C   0  0  0  0  0  0  0  0  0  0  0  0
  -10.4273   -6.7216    4.2551 C   0  0  0  0  0  0  0  0  0  0  0  0
  -11.6047   -5.9091    4.7198 C   0  0  0  0  0  0  0  0  0  0  0  0
  -12.7472   -6.4606    3.9175 C   0  0  0  0  0  0  0  0  0  0  0  0
  -18.4634   -5.9196    5.9160 C   0  0  0  0  0  0  0  0  0  0  0  0
  -20.2719   -7.8920    2.9363 C   0  0  0  0  0  0  0  0  0  0  0  0
  -20.5657   -5.0272    6.3436 O   0  0  0  0  0  0  0  0  0  0  0  0
  -19.8227   -5.6057    5.5269 C   0  0  0  0  0  0  0  0  0  0  0  0
  -20.6347   -8.8109    3.8777 F   0  0  0  0  0  0  0  0  0  0  0  0
  -11.9642   -6.0208    6.0238 O   0  0  0  0  0  0  0  0  0  0  0  0
  -19.3660   -6.8916    3.5762 C   0  0  0  0  0  0  0  0  0  0  0  0
  -14.9054   -6.9117    4.6783 C   0  0  0  0  0  0  0  0  0  0  0  0
  -19.7635   -8.5025    1.8390 F   0  0  0  0  0  0  0  0  0  0  0  0
  -16.2927   -5.0705    5.2230 C   0  0  0  0  0  0  0  0  0  0  0  0
  -13.5450   -7.3060    4.5147 O   0  0  0  0  0  0  0  0  0  0  0  0
  -17.9457   -6.5428    3.6697 C   0  0  0  0  0  0  0  0  0  0  0  0
  -21.5657   -6.9937    2.5909 C   0  0  0  0  0  0  0  0  0  0  0  0
  -20.2481   -6.1569    4.3807 N   0  0  0  0  0  0  0  0  0  0  0  0
  -15.0431   -5.4431    4.4577 C   0  0  0  0  0  0  0  0  0  0  0  0
  -15.7823   -7.8134    5.1303 O   0  0  0  0  0  0  0  0  0  0  0  0
  -21.2090   -6.2568    1.4746 O   0  0  0  0  0  0  0  0  0  0  0  0
  -10.8035   -8.0313    4.0443 O   0  0  0  0  0  0  0  0  0  0  0  0
  -17.4667   -5.9497    4.9127 C   0  0  0  0  0  0  0  0  0  0  0  0
  -22.7405   -7.8458    2.4300 C   0  0  0  0  0  0  0  0  0  0  0  0
  -18.1159   -5.7117    7.2308 C   0  0  0  0  0  0  0  0  0  0  0  0
  -12.8672   -5.9816    2.7137 O   0  0  0  0  0  0  0  0  0  0  0  0
  1 17  1  0
  1 18  1  0
  2  3  1  0
  2 22  1  0
  3  4  1  0
  3 10  1  0
  4 15  1  0
  4 26  2  0
  5  8  1  0
  5 23  1  0
  5 25  2  0
  6  9  1  0
  6 11  1  0
  6 13  1  0
  6 17  1  0
  7  8  2  0
  8 18  1  0
 11 16  1  0
 11 18  1  0
 12 15  1  0
 12 19  1  0
 12 20  2  0
 14 19  1  0
 14 23  1  0
 16 23  1  0
 17 21  1  0
 17 24  1  0
M  END
>  <ID>  (1) 
conformer_0

$$$$
