
     RDKit          3D

 22 23  0  0  0  0  0  0  0  0999 V2000
  -10.4313   -7.1438    4.0442 C   0  0  0  0  0  0  0  0  0  0  0  0
  -20.4255   -6.0797    5.0346 C   0  0  0  0  0  0  0  0  0  0  0  0
  -21.7211   -8.2076    4.5747 C   0  0  0  0  0  0  0  0  0  0  0  0
  -18.2643   -6.0722    4.2626 C   0  0  0  0  0  0  0  0  0  0  0  0
  -10.4040   -6.5780    5.2874 N   0  0  0  0  0  0  0  0  0  0  0  0
  -14.8524   -6.9349    5.2950 C   0  0  0  0  0  0  0  0  0  0  0  0
  -22.9867   -4.0267    6.7227 C   0  0  0  0  0  0  0  0  0  0  0  0
  -21.4016   -5.5834    5.9088 N   0  0  0  0  0  0  0  0  0  0  0  0
  -16.2876   -4.6910    4.4581 C   0  0  0  0  0  0  0  0  0  0  0  0
  -11.6526   -6.2140    5.6142 C   0  0  0  0  0  0  0  0  0  0  0  0
  -21.0666   -3.0792    5.3943 C   0  0  0  0  0  0  0  0  0  0  0  0
   -9.3856   -7.6642    3.3230 N   0  0  0  0  0  0  0  0  0  0  0  0
  -11.7971   -7.1419    3.5665 O   0  0  0  0  0  0  0  0  0  0  0  0
  -16.9050   -5.8900    4.6190 C   0  0  0  0  0  0  0  0  0  0  0  0
  -12.5070   -6.6044    4.6387 C   0  0  0  0  0  0  0  0  0  0  0  0
  -20.6662   -7.1923    4.2435 C   0  0  0  0  0  0  0  0  0  0  0  0
  -13.7906   -6.5533    4.6799 C   0  0  0  0  0  0  0  0  0  0  0  0
  -19.2180   -5.5037    5.0199 C   0  0  0  0  0  0  0  0  0  0  0  0
  -21.5379   -4.2349    6.2483 C   0  0  0  0  0  0  0  0  0  0  0  0
  -16.1289   -6.8584    5.2151 C   0  0  0  0  0  0  0  0  0  0  0  0
  -19.8097   -7.4752    3.1886 C   0  0  0  0  0  0  0  0  0  0  0  0
  -18.5602   -6.8892    3.1891 C   0  0  0  0  0  0  0  0  0  0  0  0
  1  5  1  0
  1 12  2  0
  1 13  1  0
  2  8  1  0
  2 16  1  0
  2 18  2  0
  3 16  1  0
  4 14  1  0
  4 18  1  0
  4 22  1  0
  5 10  1  0
  6 17  2  3
  6 20  1  0
  7 19  1  0
  8 19  1  0
  9 14  2  0
 10 15  1  0
 11 19  1  0
 13 15  1  0
 14 20  1  0
 15 17  1  0
 16 21  1  0
 21 22  2  0
M  END
>  <ID>  (1) 
conformer_0

$$$$
