
     RDKit          3D

 24 26  0  0  0  0  0  0  0  0999 V2000
  -10.1091   -6.8938    4.9575 N   0  0  0  0  0  0  0  0  0  0  0  0
  -17.6286   -6.2738    3.4593 C   0  0  0  0  0  0  0  0  0  0  0  0
  -17.3315   -5.8673    5.7213 C   0  0  0  0  0  0  0  0  0  0  0  0
  -23.1591   -6.0546    3.8054 C   0  0  0  0  0  0  0  0  0  0  0  0
  -13.3929   -6.6288    3.5057 N   0  0  0  0  0  0  0  0  0  0  0  0
  -12.1095   -6.9432    3.6160 C   0  0  0  0  0  0  0  0  0  0  0  0
   -9.4930   -7.4628    3.9526 C   0  0  0  0  0  0  0  0  0  0  0  0
  -16.8022   -6.0132    4.5028 C   0  0  0  0  0  0  0  0  0  0  0  0
  -12.1642   -5.9690    5.7436 C   0  0  0  0  0  0  0  0  0  0  0  0
  -21.9376   -8.0981    6.7254 O   0  0  0  0  0  0  0  0  0  0  0  0
  -13.4562   -5.8620    5.5827 N   0  0  0  0  0  0  0  0  0  0  0  0
  -24.0341   -7.3035    6.9306 O   0  0  0  0  0  0  0  0  0  0  0  0
  -18.7053   -5.9452    5.9561 C   0  0  0  0  0  0  0  0  0  0  0  0
   -9.8758   -8.3992    3.1879 N   0  0  0  0  0  0  0  0  0  0  0  0
  -15.4441   -5.8742    4.2557 N   0  0  0  0  0  0  0  0  0  0  0  0
  -18.9984   -6.3318    3.6690 N   0  0  0  0  0  0  0  0  0  0  0  0
  -21.0595   -6.0771    5.1041 C   0  0  0  0  0  0  0  0  0  0  0  0
  -21.6961   -6.0094    3.7341 N   0  0  0  0  0  0  0  0  0  0  0  0
  -19.5815   -6.1351    4.9076 C   0  0  0  0  0  0  0  0  0  0  0  0
  -11.4305   -6.6434    4.7965 C   0  0  0  0  0  0  0  0  0  0  0  0
  -22.3270   -5.8366    6.0337 C   0  0  0  0  0  0  0  0  0  0  0  0
  -22.7805   -7.2144    6.6254 C   0  0  0  0  0  0  0  0  0  0  0  0
  -23.5746   -5.4125    5.1179 C   0  0  0  0  0  0  0  0  0  0  0  0
  -14.1525   -6.1605    4.4863 C   0  0  0  0  0  0  0  0  0  0  0  0
  1  7  1  0
  1 20  1  0
  2  8  2  0
  2 16  1  0
  3  8  1  0
  3 13  2  0
  4 18  1  0
  4 23  1  0
  5  6  2  0
  5 24  1  0
  6 20  1  0
  7 14  2  0
  8 15  1  0
  9 11  1  0
  9 20  2  0
 10 22  2  0
 11 24  2  0
 12 22  1  0
 13 19  1  0
 15 24  1  0
 16 19  2  0
 17 18  1  0
 17 19  1  0
 17 21  1  0
 21 22  1  0
 21 23  1  0
M  END
>  <ID>  (1) 
conformer_0

$$$$
