
     RDKit          3D

 21 23  0  0  0  0  0  0  0  0999 V2000
  -19.6002   -7.7222    4.2035 C   0  0  0  0  0  0  0  0  0  0  0  0
  -10.5856   -6.9461    3.2077 C   0  0  0  0  0  0  0  0  0  0  0  0
  -21.5844   -6.6637    5.3870 C   0  0  0  0  0  0  0  0  0  0  0  0
  -11.6024   -6.6358    5.1916 C   0  0  0  0  0  0  0  0  0  0  0  0
  -24.3071   -5.8894    5.3146 C   0  0  0  0  0  0  0  0  0  0  0  0
  -11.9239   -6.6193    2.9423 C   0  0  0  0  0  0  0  0  0  0  0  0
  -23.2351   -4.8466    5.3797 C   0  0  0  0  0  0  0  0  0  0  0  0
  -20.1726   -6.8719    5.0879 C   0  0  0  0  0  0  0  0  0  0  0  0
  -11.9978   -6.7138    6.4060 N   0  0  0  0  0  0  0  0  0  0  0  0
  -14.7108   -5.9245    4.9802 C   0  0  0  0  0  0  0  0  0  0  0  0
  -13.6877   -6.0013    4.3035 N   0  0  0  0  0  0  0  0  0  0  0  0
  -12.5420   -6.4406    4.1302 C   0  0  0  0  0  0  0  0  0  0  0  0
  -21.9532   -5.3855    5.8098 N   0  0  0  0  0  0  0  0  0  0  0  0
  -15.9326   -6.0535    4.2589 N   0  0  0  0  0  0  0  0  0  0  0  0
  -19.3127   -5.9113    5.3942 N   0  0  0  0  0  0  0  0  0  0  0  0
  -17.0327   -5.3437    4.7247 C   0  0  0  0  0  0  0  0  0  0  0  0
  -18.2241   -6.2071    4.7174 C   0  0  0  0  0  0  0  0  0  0  0  0
  -22.5625   -7.4408    4.6740 C   0  0  0  0  0  0  0  0  0  0  0  0
  -10.4764   -6.9405    4.6196 N   0  0  0  0  0  0  0  0  0  0  0  0
  -23.8442   -7.0023    4.5525 N   0  0  0  0  0  0  0  0  0  0  0  0
  -18.3770   -7.2881    3.9815 N   0  0  0  0  0  0  0  0  0  0  0  0
  1  8  1  0
  1 21  1  0
  2  6  1  0
  2 19  1  0
  3  8  1  0
  3 13  1  0
  3 18  1  0
  4  9  2  0
  4 12  1  0
  4 19  1  0
  5  7  1  0
  5 20  1  0
  6 12  1  0
  7 13  1  0
  8 15  1  0
 10 11  1  0
 10 14  1  0
 11 12  1  0
 14 16  1  0
 15 17  2  0
 16 17  1  0
 17 21  1  0
 18 20  2  0
M  END
>  <ID>  (1) 
conformer_0

$$$$
