
     RDKit          3D

 26 27  0  0  0  0  0  0  0  0999 V2000
  -23.3928   -7.4534    3.9462 O   0  0  0  0  0  0  0  0  0  0  0  0
  -19.4683   -5.5862    5.6638 C   0  0  0  0  0  0  0  0  0  0  0  0
  -21.4760   -8.2926    2.9322 C   0  0  0  0  0  0  0  0  0  0  0  0
  -13.0699   -6.6409    3.7073 N   0  0  0  0  0  0  0  0  0  0  0  0
  -22.4329   -8.2995    4.0864 C   0  0  0  0  0  0  0  0  0  0  0  0
  -10.8288   -7.4501    3.7190 N   0  0  0  0  0  0  0  0  0  0  0  0
  -20.1583   -3.6617    3.0341 O   0  0  0  0  0  0  0  0  0  0  0  0
  -21.4368   -3.7606    3.5992 C   0  0  0  0  0  0  0  0  0  0  0  0
  -16.0555   -5.2912    4.3691 C   0  0  0  0  0  0  0  0  0  0  0  0
  -19.0046   -7.6322    3.0991 C   0  0  0  0  0  0  0  0  0  0  0  0
  -11.8053   -6.7861    4.2418 C   0  0  0  0  0  0  0  0  0  0  0  0
  -18.3230   -6.7908    3.6757 C   0  0  0  0  0  0  0  0  0  0  0  0
  -20.7441   -5.0187    5.6992 C   0  0  0  0  0  0  0  0  0  0  0  0
  -11.8222   -6.2776    5.4959 N   0  0  0  0  0  0  0  0  0  0  0  0
  -20.2353   -5.7725    7.7617 C   0  0  0  0  0  0  0  0  0  0  0  0
  -21.2538   -5.1974    7.0663 C   0  0  0  0  0  0  0  0  0  0  0  0
  -13.0788   -5.8721    5.7659 C   0  0  0  0  0  0  0  0  0  0  0  0
  -21.5613   -4.2167    4.9024 O   0  0  0  0  0  0  0  0  0  0  0  0
  -22.1411   -9.0495    5.1352 O   0  0  0  0  0  0  0  0  0  0  0  0
  -17.2784   -4.9154    4.6312 C   0  0  0  0  0  0  0  0  0  0  0  0
  -20.2133   -7.9929    3.3445 C   0  0  0  0  0  0  0  0  0  0  0  0
  -15.1986   -6.3026    4.5964 C   0  0  0  0  0  0  0  0  0  0  0  0
  -21.8216   -7.9073    1.7011 O   0  0  0  0  0  0  0  0  0  0  0  0
  -18.4412   -5.7788    4.6496 C   0  0  0  0  0  0  0  0  0  0  0  0
  -19.1450   -6.0043    6.9515 N   0  0  0  0  0  0  0  0  0  0  0  0
  -13.8523   -6.1830    4.6793 C   0  0  0  0  0  0  0  0  0  0  0  0
  1  5  2  0
  2 13  2  0
  2 24  1  0
  2 25  1  0
  3  5  1  0
  3 21  1  0
  3 23  1  0
  4 11  1  0
  4 26  1  0
  5 19  1  0
  6 11  2  0
  7  8  1  0
  8 18  1  0
  9 20  1  0
  9 22  1  0
 10 12  2  3
 10 21  1  0
 11 14  1  0
 12 24  1  0
 13 16  1  0
 13 18  1  0
 14 17  1  0
 15 16  1  0
 15 25  1  0
 17 26  1  0
 20 24  1  0
 22 26  1  0
M  END
>  <ID>  (1) 
conformer_0

$$$$
