
     RDKit          3D

 19 21  0  0  0  0  0  0  0  0999 V2000
  -13.6990   -6.3024    5.9455 N   0  0  0  0  0  0  0  0  0  0  0  0
  -18.0522   -6.3316    4.2405 C   0  0  0  0  0  0  0  0  0  0  0  0
  -16.0459   -4.5474    4.7820 C   0  0  0  0  0  0  0  0  0  0  0  0
  -15.6741   -5.8650    4.5830 C   0  0  0  0  0  0  0  0  0  0  0  0
  -20.7048   -8.3803    2.6063 C   0  0  0  0  0  0  0  0  0  0  0  0
  -20.0298   -7.2549    5.1688 C   0  0  0  0  0  0  0  0  0  0  0  0
  -12.0473   -6.6079    4.6058 C   0  0  0  0  0  0  0  0  0  0  0  0
  -19.5929   -7.6934    2.8523 C   0  0  0  0  0  0  0  0  0  0  0  0
  -17.3308   -4.0948    4.7288 C   0  0  0  0  0  0  0  0  0  0  0  0
  -18.3251   -4.9922    4.4658 C   0  0  0  0  0  0  0  0  0  0  0  0
  -13.2464   -6.3951    3.8463 C   0  0  0  0  0  0  0  0  0  0  0  0
  -19.2244   -7.1403    4.0617 C   0  0  0  0  0  0  0  0  0  0  0  0
  -21.7304   -8.7526    3.3153 C   0  0  0  0  0  0  0  0  0  0  0  0
  -12.3831   -6.5058    5.8510 N   0  0  0  0  0  0  0  0  0  0  0  0
  -21.1336   -7.8301    5.4360 C   0  0  0  0  0  0  0  0  0  0  0  0
  -16.7046   -6.7647    4.2943 C   0  0  0  0  0  0  0  0  0  0  0  0
  -10.8889   -6.9197    4.1196 N   0  0  0  0  0  0  0  0  0  0  0  0
  -21.9822   -8.5498    4.6331 C   0  0  0  0  0  0  0  0  0  0  0  0
  -14.2805   -6.2140    4.7199 C   0  0  0  0  0  0  0  0  0  0  0  0
  1 14  1  0
  1 19  1  0
  2 10  1  0
  2 12  1  0
  2 16  2  0
  3  4  2  0
  3  9  1  0
  4 16  1  0
  4 19  1  0
  5  8  1  0
  5 13  2  0
  6 12  1  0
  6 15  2  0
  7 11  1  0
  7 14  1  0
  7 17  2  0
  8 12  2  0
  9 10  2  0
 11 19  1  0
 13 18  1  0
 15 18  1  0
M  END
>  <ID>  (1) 
conformer_0

$$$$
