
     RDKit          3D

 22 22  0  0  0  0  0  0  0  0999 V2000
  -12.0216   -6.8086    6.0352 O   0  0  0  0  0  0  0  0  0  0  0  0
  -13.4396   -6.3569    4.1362 C   0  0  0  0  0  0  0  0  0  0  0  0
  -14.9283   -7.2824    5.8805 O   0  0  0  0  0  0  0  0  0  0  0  0
  -20.5694   -7.9096    2.7697 N   0  0  0  0  0  0  0  0  0  0  0  0
  -16.7152   -6.7177    4.2126 N   0  0  0  0  0  0  0  0  0  0  0  0
  -19.0717   -6.7054    4.3943 C   0  0  0  0  0  0  0  0  0  0  0  0
  -19.9838   -5.8956    6.4372 C   0  0  0  0  0  0  0  0  0  0  0  0
  -20.2604   -9.3306    2.9602 C   0  0  0  0  0  0  0  0  0  0  0  0
  -21.2612   -6.2224    5.9783 C   0  0  0  0  0  0  0  0  0  0  0  0
  -20.3406   -7.1286    3.9350 C   0  0  0  0  0  0  0  0  0  0  0  0
   -9.8078   -7.0447    4.5941 O   0  0  0  0  0  0  0  0  0  0  0  0
  -14.5617   -6.1860    5.1088 C   0  0  0  0  0  0  0  0  0  0  0  0
  -11.0068   -6.9137    3.8840 C   0  0  0  0  0  0  0  0  0  0  0  0
  -21.5658   -7.4988    1.8170 C   0  0  0  0  0  0  0  0  0  0  0  0
  -18.8928   -6.1381    5.6088 C   0  0  0  0  0  0  0  0  0  0  0  0
  -12.1341   -6.4442    4.7805 C   0  0  0  0  0  0  0  0  0  0  0  0
  -22.8393   -7.1224    4.2927 C   0  0  0  0  0  0  0  0  0  0  0  0
  -17.9901   -6.8874    2.3409 O   0  0  0  0  0  0  0  0  0  0  0  0
  -15.8318   -4.3905    4.1815 O   0  0  0  0  0  0  0  0  0  0  0  0
  -21.4522   -6.8147    4.7450 C   0  0  0  0  0  0  0  0  0  0  0  0
  -17.8776   -6.8448    3.5786 C   0  0  0  0  0  0  0  0  0  0  0  0
  -15.8269   -5.7122    4.3653 C   0  0  0  0  0  0  0  0  0  0  0  0
  1 16  1  0
  2 12  1  0
  2 16  1  0
  3 12  1  0
  4  8  1  0
  4 10  1  0
  4 14  1  0
  5 21  1  0
  5 22  1  0
  6 10  1  0
  6 15  2  0
  6 21  1  0
  7  9  1  0
  7 15  1  0
  9 20  2  0
 10 20  1  0
 11 13  1  0
 12 22  1  0
 13 16  1  0
 17 20  1  0
 18 21  2  0
 19 22  2  0
M  END
>  <ID>  (1) 
conformer_0

$$$$
