
     RDKit          3D

 14 14  0  0  0  0  0  0  0  0999 V2000
  -11.7560   -6.5930    4.4063 C   0  0  0  0  0  0  0  0  0  0  0  0
  -18.0602   -5.1451    4.0297 C   0  0  0  0  0  0  0  0  0  0  0  0
  -16.3522   -6.7839    4.7707 C   0  0  0  0  0  0  0  0  0  0  0  0
  -20.0197   -7.1090    4.0984 C   0  0  0  0  0  0  0  0  0  0  0  0
  -15.2935   -5.7262    4.3964 C   0  0  0  0  0  0  0  0  0  0  0  0
  -13.9724   -6.3154    4.9532 C   0  0  0  0  0  0  0  0  0  0  0  0
  -10.9405   -7.2287    3.5680 N   0  0  0  0  0  0  0  0  0  0  0  0
  -11.3430   -6.2496    5.4907 O   0  0  0  0  0  0  0  0  0  0  0  0
  -14.0249   -6.9878    5.9728 O   0  0  0  0  0  0  0  0  0  0  0  0
  -13.0306   -6.4551    3.9788 N   0  0  0  0  0  0  0  0  0  0  0  0
  -19.3511   -4.8508    3.6892 C   0  0  0  0  0  0  0  0  0  0  0  0
  -20.3410   -5.8189    3.7347 C   0  0  0  0  0  0  0  0  0  0  0  0
  -18.7258   -7.4358    4.4469 C   0  0  0  0  0  0  0  0  0  0  0  0
  -17.7352   -6.4549    4.4148 C   0  0  0  0  0  0  0  0  0  0  0  0
  1  7  1  0
  1  8  2  0
  1 10  1  0
  2 11  2  0
  2 14  1  0
  3  5  1  0
  3 14  2  3
  4 12  1  0
  4 13  2  0
  5  6  1  0
  6  9  2  0
  6 10  1  0
 11 12  1  0
 13 14  1  0
M  END
>  <ID>  (1) 
conformer_0

$$$$
