
     RDKit          3D

 28 30  0  0  0  0  0  0  0  0999 V2000
  -23.4119   -3.3170    5.6008 C   0  0  0  0  0  0  0  0  0  0  0  0
  -18.0730   -3.9337    4.9528 C   0  0  0  0  0  0  0  0  0  0  0  0
  -23.9863   -2.4062    3.5942 C   0  0  0  0  0  0  0  0  0  0  0  0
  -21.8633   -4.8540    4.5777 C   0  0  0  0  0  0  0  0  0  0  0  0
  -10.6682   -7.0861    4.0612 C   0  0  0  0  0  0  0  0  0  0  0  0
  -22.6400   -2.8174    3.2637 N   0  0  0  0  0  0  0  0  0  0  0  0
  -15.3116   -6.2019    4.1938 N   0  0  0  0  0  0  0  0  0  0  0  0
  -22.5632   -7.2519    4.2724 C   0  0  0  0  0  0  0  0  0  0  0  0
  -16.8203   -4.4404    4.7644 C   0  0  0  0  0  0  0  0  0  0  0  0
  -12.0609   -6.1977    6.0996 O   0  0  0  0  0  0  0  0  0  0  0  0
  -19.0960   -5.9880    4.3208 C   0  0  0  0  0  0  0  0  0  0  0  0
  -10.1893   -7.8944    3.0520 O   0  0  0  0  0  0  0  0  0  0  0  0
  -12.0057   -6.7126    3.9060 N   0  0  0  0  0  0  0  0  0  0  0  0
  -23.3338   -4.6014    4.8316 C   0  0  0  0  0  0  0  0  0  0  0  0
  -17.7988   -6.5424    4.1740 C   0  0  0  0  0  0  0  0  0  0  0  0
  -21.5228   -3.5902    3.7826 C   0  0  0  0  0  0  0  0  0  0  0  0
  -20.1344   -8.0296    3.3653 C   0  0  0  0  0  0  0  0  0  0  0  0
  -21.1817   -8.8611    3.2537 N   0  0  0  0  0  0  0  0  0  0  0  0
   -9.7949   -7.0172    5.0096 O   0  0  0  0  0  0  0  0  0  0  0  0
  -22.3938   -9.4178    3.3131 F   0  0  0  0  0  0  0  0  0  0  0  0
  -21.5886   -6.3327    4.3122 C   0  0  0  0  0  0  0  0  0  0  0  0
  -19.1930   -4.6681    4.7672 C   0  0  0  0  0  0  0  0  0  0  0  0
  -22.2627   -8.4413    3.7281 C   0  0  0  0  0  0  0  0  0  0  0  0
  -14.2281   -6.3454    4.9595 C   0  0  0  0  0  0  0  0  0  0  0  0
  -20.2911   -6.7995    3.9921 C   0  0  0  0  0  0  0  0  0  0  0  0
  -16.6643   -5.7540    4.3844 C   0  0  0  0  0  0  0  0  0  0  0  0
  -12.7757   -6.3347    5.0160 C   0  0  0  0  0  0  0  0  0  0  0  0
  -24.2912   -2.4527    4.9454 N   0  0  0  0  0  0  0  0  0  0  0  0
  1 14  1  0
  1 28  1  0
  2  9  2  0
  2 22  1  0
  3  6  1  0
  3 28  1  0
  4 14  1  0
  4 16  1  0
  4 21  1  0
  5 12  2  0
  5 13  1  0
  5 19  1  0
  6 16  1  0
  7 24  1  0
  7 26  1  0
  8 21  2  0
  8 23  1  0
  9 26  1  0
 10 27  2  0
 11 15  1  0
 11 22  2  0
 11 25  1  0
 13 27  1  0
 15 26  2  0
 17 18  1  0
 17 25  2  0
 18 23  2  0
 20 23  1  0
 21 25  1  0
 24 27  1  0
M  END
>  <ID>  (1) 
conformer_0

$$$$
