
     RDKit          3D

  9  8  0  0  0  0  0  0  0  0999 V2000
  -13.1671   -6.4974    4.2123 N   0  0  0  0  0  0  0  0  0  0  0  0
  -10.8844   -6.6052    4.1182 O   0  0  0  0  0  0  0  0  0  0  0  0
  -15.4349   -5.5636    4.3400 C   0  0  0  0  0  0  0  0  0  0  0  0
  -14.2760   -6.2183    5.1315 C   0  0  0  0  0  0  0  0  0  0  0  0
  -16.9065   -6.2926    5.9923 O   0  0  0  0  0  0  0  0  0  0  0  0
  -11.9190   -6.9184    6.0414 O   0  0  0  0  0  0  0  0  0  0  0  0
  -11.9249   -6.6346    4.8453 C   0  0  0  0  0  0  0  0  0  0  0  0
  -16.8035   -6.0066    4.8063 C   0  0  0  0  0  0  0  0  0  0  0  0
  -17.6685   -6.0240    3.8399 O   0  0  0  0  0  0  0  0  0  0  0  0
  1  4  1  0
  1  7  1  0
  2  7  2  0
  3  4  1  0
  3  8  1  0
  5  8  2  0
  6  7  1  0
  8  9  1  0
M  END
>  <ID>  (1) 
conformer_0

$$$$
