
     RDKit          3D

 23 25  0  0  0  0  0  0  0  0999 V2000
  -13.6149   -6.0248    5.3855 N   0  0  0  0  0  0  0  0  0  0  0  0
  -10.1452   -7.3036    3.5548 C   0  0  0  0  0  0  0  0  0  0  0  0
  -19.8342   -6.7883    3.5421 C   0  0  0  0  0  0  0  0  0  0  0  0
  -16.7472   -5.8938    5.1166 C   0  0  0  0  0  0  0  0  0  0  0  0
  -11.3025   -7.2054    2.8127 C   0  0  0  0  0  0  0  0  0  0  0  0
  -11.2040   -6.5658    5.4917 N   0  0  0  0  0  0  0  0  0  0  0  0
  -21.1477   -7.0705    3.7100 C   0  0  0  0  0  0  0  0  0  0  0  0
  -12.4337   -6.7628    3.4640 C   0  0  0  0  0  0  0  0  0  0  0  0
  -22.9538   -7.2124    5.1724 C   0  0  0  0  0  0  0  0  0  0  0  0
  -21.6435   -6.9291    5.0005 C   0  0  0  0  0  0  0  0  0  0  0  0
  -14.5006   -5.5926    4.4285 C   0  0  0  0  0  0  0  0  0  0  0  0
  -15.6854   -6.2512    4.1072 C   0  0  0  0  0  0  0  0  0  0  0  0
  -20.8857   -6.5246    6.1081 C   0  0  0  0  0  0  0  0  0  0  0  0
  -16.2309   -5.3307    6.1769 N   0  0  0  0  0  0  0  0  0  0  0  0
  -18.7846   -5.8592    6.8857 O   0  0  0  0  0  0  0  0  0  0  0  0
  -19.0444   -6.3863    4.5843 C   0  0  0  0  0  0  0  0  0  0  0  0
  -19.5194   -6.2360    5.9116 C   0  0  0  0  0  0  0  0  0  0  0  0
  -23.5619   -7.1056    6.3816 C   0  0  0  0  0  0  0  0  0  0  0  0
  -12.3965   -6.4518    4.8117 C   0  0  0  0  0  0  0  0  0  0  0  0
  -17.8270   -6.0490    4.3891 N   0  0  0  0  0  0  0  0  0  0  0  0
  -22.8140   -6.7097    7.5011 C   0  0  0  0  0  0  0  0  0  0  0  0
  -21.4690   -6.4155    7.3412 C   0  0  0  0  0  0  0  0  0  0  0  0
  -10.1391   -6.9774    4.8803 N   0  0  0  0  0  0  0  0  0  0  0  0
  1 11  1  0
  1 19  1  0
  2  5  2  0
  2 23  1  0
  3  7  1  0
  3 16  2  0
  4 12  1  0
  4 14  2  0
  4 20  1  0
  5  8  1  0
  6 19  1  0
  6 23  2  0
  7 10  2  0
  8 19  2  0
  9 10  1  0
  9 18  2  0
 10 13  1  0
 11 12  1  0
 13 17  1  0
 13 22  2  0
 15 17  2  0
 16 17  1  0
 16 20  1  0
 18 21  1  0
 21 22  1  0
M  END
>  <ID>  (1) 
conformer_0

$$$$
