
     RDKit          3D

 17 18  0  0  0  0  0  0  0  0999 V2000
  -10.2051   -6.8825    4.2703 O   0  0  0  0  0  0  0  0  0  0  0  0
  -20.7719   -8.1211    4.0563 C   0  0  0  0  0  0  0  0  0  0  0  0
  -11.4926   -6.8668    3.8036 C   0  0  0  0  0  0  0  0  0  0  0  0
  -15.4060   -5.9542    5.8530 C   0  0  0  0  0  0  0  0  0  0  0  0
  -12.5859   -6.4789    4.8565 C   0  0  0  0  0  0  0  0  0  0  0  0
  -18.9211   -6.6366    3.6987 C   0  0  0  0  0  0  0  0  0  0  0  0
  -20.7890   -6.5981    2.2243 C   0  0  0  0  0  0  0  0  0  0  0  0
  -15.2081   -6.2499    4.5483 C   0  0  0  0  0  0  0  0  0  0  0  0
  -17.6088   -6.2688    4.2593 C   0  0  0  0  0  0  0  0  0  0  0  0
  -16.3172   -6.3323    3.6958 C   0  0  0  0  0  0  0  0  0  0  0  0
  -13.8691   -6.4583    4.2601 N   0  0  0  0  0  0  0  0  0  0  0  0
  -12.1412   -6.8284    6.0044 O   0  0  0  0  0  0  0  0  0  0  0  0
  -19.5942   -7.6326    4.4468 C   0  0  0  0  0  0  0  0  0  0  0  0
  -21.3913   -7.6041    2.9415 C   0  0  0  0  0  0  0  0  0  0  0  0
  -19.5462   -6.1264    2.6167 C   0  0  0  0  0  0  0  0  0  0  0  0
  -16.6481   -5.7924    6.3511 C   0  0  0  0  0  0  0  0  0  0  0  0
  -17.7201   -5.9278    5.5836 C   0  0  0  0  0  0  0  0  0  0  0  0
  1  3  1  0
  2 13  2  0
  2 14  1  0
  3  5  1  0
  4  8  2  0
  4 16  1  0
  5 11  1  0
  5 12  2  0
  6  9  1  0
  6 13  1  0
  6 15  2  0
  7 14  2  0
  7 15  1  0
  8 10  1  0
  8 11  1  0
  9 10  2  0
  9 17  1  0
 16 17  2  0
M  END
>  <ID>  (1) 
conformer_0

$$$$
