
     RDKit          3D

 20 22  0  0  0  0  0  0  0  0999 V2000
  -12.6036   -6.5847    3.3438 C   0  0  0  0  0  0  0  0  0  0  0  0
  -20.2999   -4.4893    3.1960 C   0  0  0  0  0  0  0  0  0  0  0  0
  -14.4585   -6.1794    4.7280 N   0  0  0  0  0  0  0  0  0  0  0  0
  -16.6993   -6.4581    4.9383 C   0  0  0  0  0  0  0  0  0  0  0  0
  -15.4337   -6.8385    5.3948 N   0  0  0  0  0  0  0  0  0  0  0  0
  -11.0521   -6.6286    5.5982 C   0  0  0  0  0  0  0  0  0  0  0  0
  -18.8037   -6.5031    4.1593 C   0  0  0  0  0  0  0  0  0  0  0  0
  -20.9985   -3.5113    2.5933 F   0  0  0  0  0  0  0  0  0  0  0  0
  -19.1214   -4.1619    3.7937 C   0  0  0  0  0  0  0  0  0  0  0  0
  -10.5179   -6.7721    4.4321 N   0  0  0  0  0  0  0  0  0  0  0  0
  -20.7950   -5.8081    3.1023 C   0  0  0  0  0  0  0  0  0  0  0  0
  -17.0413   -5.1455    4.6808 C   0  0  0  0  0  0  0  0  0  0  0  0
  -17.7531   -7.3739    4.6468 O   0  0  0  0  0  0  0  0  0  0  0  0
  -12.3487   -6.4809    5.7362 N   0  0  0  0  0  0  0  0  0  0  0  0
  -13.1493   -6.4716    4.6404 C   0  0  0  0  0  0  0  0  0  0  0  0
  -20.0384   -6.8527    3.6405 C   0  0  0  0  0  0  0  0  0  0  0  0
  -20.5508   -8.2817    3.6377 C   0  0  0  0  0  0  0  0  0  0  0  0
  -21.9063   -6.0384    2.4701 O   0  0  0  0  0  0  0  0  0  0  0  0
  -11.2578   -6.7484    3.3040 C   0  0  0  0  0  0  0  0  0  0  0  0
  -18.3480   -5.1930    4.2237 C   0  0  0  0  0  0  0  0  0  0  0  0
  1 15  1  0
  1 19  1  0
  2  8  1  0
  2  9  2  0
  2 11  1  0
  3  5  1  0
  3 15  1  0
  4  5  1  0
  4 12  1  0
  4 13  1  0
  6 10  2  0
  6 14  1  0
  7 13  1  0
  7 16  1  0
  7 20  2  0
  9 20  1  0
 10 19  1  0
 11 16  2  0
 11 18  1  0
 12 20  1  0
 14 15  2  0
 16 17  1  0
M  END
>  <ID>  (1) 
conformer_0

$$$$
