
     RDKit          3D

 12 11  0  0  0  0  0  0  0  0999 V2000
  -18.0382   -5.9463    6.2145 C   0  0  0  0  0  0  0  0  0  0  0  0
  -12.7943   -6.4017    5.0069 C   0  0  0  0  0  0  0  0  0  0  0  0
  -17.4710   -6.3512    4.9148 C   0  0  0  0  0  0  0  0  0  0  0  0
  -10.7652   -7.0459    3.4635 C   0  0  0  0  0  0  0  0  0  0  0  0
  -17.7895   -5.8727    3.6940 O   0  0  0  0  0  0  0  0  0  0  0  0
  -12.2149   -6.7078    3.6712 C   0  0  0  0  0  0  0  0  0  0  0  0
  -12.7474   -5.9982    2.6581 O   0  0  0  0  0  0  0  0  0  0  0  0
  -13.7535   -5.4460    4.8704 N   0  0  0  0  0  0  0  0  0  0  0  0
   -9.9987   -7.1118    4.5923 O   0  0  0  0  0  0  0  0  0  0  0  0
  -15.1534   -5.3661    4.6611 C   0  0  0  0  0  0  0  0  0  0  0  0
  -12.1980   -6.7538    6.0388 O   0  0  0  0  0  0  0  0  0  0  0  0
  -15.9794   -6.7100    4.9827 C   0  0  0  0  0  0  0  0  0  0  0  0
  1  3  1  0
  2  6  1  0
  2  8  1  0
  2 11  2  0
  3  5  1  0
  3 12  1  0
  4  6  1  0
  4  9  1  0
  6  7  1  0
  8 10  1  0
 10 12  1  0
M  END
>  <ID>  (1) 
conformer_0

$$$$
