
     RDKit          3D

 14 14  0  0  0  0  0  0  0  0999 V2000
  -10.8009    3.8587  -28.8197 C   0  0  0  0  0  0  0  0  0  0  0  0
   -9.4356    4.9229  -29.9802 C   0  0  0  0  0  0  0  0  0  0  0  0
   -7.2767    2.5443  -31.9236 P   0  0  0  0  0  0  0  0  0  0  0  0
   -7.6164    3.4210  -33.2713 O   0  0  0  0  0  0  0  0  0  0  0  0
   -9.9625    5.6746  -31.0294 O   0  0  0  0  0  0  0  0  0  0  0  0
   -7.7004    3.3491  -30.5791 O   0  0  0  0  0  0  0  0  0  0  0  0
   -5.9687    2.0924  -31.9882 O   0  0  0  0  0  0  0  0  0  0  0  0
  -10.5790    5.2740  -27.2182 O   0  0  0  0  0  0  0  0  0  0  0  0
   -7.6266    4.5005  -30.0638 C   0  0  0  0  0  0  0  0  0  0  0  0
  -10.9063    3.2051  -29.5886 O   0  0  0  0  0  0  0  0  0  0  0  0
   -8.3433    1.3479  -31.8810 O   0  0  0  0  0  0  0  0  0  0  0  0
   -8.3399    6.4347  -28.4793 O   0  0  0  0  0  0  0  0  0  0  0  0
   -8.3444    5.1895  -28.9624 C   0  0  0  0  0  0  0  0  0  0  0  0
   -9.7290    4.0079  -27.8158 C   0  0  0  0  0  0  0  0  0  0  0  0
  2  1  1  0
  4  3  1  0
  5  2  1  0
  7  3  1  0
  9  2  1  0
  9  6  1  0
 10  1  1  0
 11  3  1  0
 11  9  1  0
 13  2  1  0
 13  9  1  0
 13 12  1  0
 14  1  1  0
 14  8  1  0
M  END
>  <ID>  (1) 
conformer_0

$$$$
