
     RDKit          3D

 13 12  0  0  0  0  0  0  0  0999 V2000
  -10.0346    4.4256  -28.2331 C   0  0  0  0  0  0  0  0  0  0  0  0
   -9.7610    4.0774  -29.2934 C   0  0  0  0  0  0  0  0  0  0  0  0
   -7.7413    2.4948  -31.9228 P   0  0  0  0  0  0  0  0  0  0  0  0
   -7.6902    3.2974  -33.2862 O   0  0  0  0  0  0  0  0  0  0  0  0
   -8.4258    6.0177  -28.0646 O   0  0  0  0  0  0  0  0  0  0  0  0
  -10.6714    5.3779  -27.3491 O   0  0  0  0  0  0  0  0  0  0  0  0
   -6.3639    1.8316  -32.0052 O   0  0  0  0  0  0  0  0  0  0  0  0
   -8.1274    3.1170  -30.8466 O   0  0  0  0  0  0  0  0  0  0  0  0
   -7.4586    4.2385  -30.5095 C   0  0  0  0  0  0  0  0  0  0  0  0
   -8.8529    1.2409  -32.0961 O   0  0  0  0  0  0  0  0  0  0  0  0
  -10.5839    3.0186  -29.8426 O   0  0  0  0  0  0  0  0  0  0  0  0
   -8.3993    4.9528  -29.5403 C   0  0  0  0  0  0  0  0  0  0  0  0
   -8.0088    6.1020  -30.0534 O   0  0  0  0  0  0  0  0  0  0  0  0
  2  1  1  0
  4  3  1  0
  6  1  1  0
  7  3  1  0
  8  3  1  0
  9  8  1  0
 10  9  1  0
 11  2  1  0
 12  2  1  0
 12  5  1  0
 12  9  1  0
 13 12  1  0
M  END
>  <ID>  (1) 
conformer_0

$$$$
