
     RDKit          3D

 12 11  0  0  0  0  0  0  0  0999 V2000
   -9.7414    4.1896  -29.7026 C   0  0  0  0  0  0  0  0  0  0  0  0
  -10.0322    4.1697  -28.0657 C   0  0  0  0  0  0  0  0  0  0  0  0
   -7.6241    3.4247  -33.1126 O   0  0  0  0  0  0  0  0  0  0  0  0
   -7.9398    2.6793  -31.8556 P   0  0  0  0  0  0  0  0  0  0  0  0
   -9.8154    5.5096  -30.9710 O   0  0  0  0  0  0  0  0  0  0  0  0
   -9.0672    1.5976  -32.1280 O   0  0  0  0  0  0  0  0  0  0  0  0
  -10.6271    4.9346  -27.2078 O   0  0  0  0  0  0  0  0  0  0  0  0
   -8.3764    6.0732  -28.2386 O   0  0  0  0  0  0  0  0  0  0  0  0
   -6.4621    2.0684  -31.8764 O   0  0  0  0  0  0  0  0  0  0  0  0
   -7.6455    4.5994  -30.2038 C   0  0  0  0  0  0  0  0  0  0  0  0
   -8.1599    3.3724  -30.6298 O   0  0  0  0  0  0  0  0  0  0  0  0
   -8.5514    5.1443  -29.1645 C   0  0  0  0  0  0  0  0  0  0  0  0
  2  1  1  0
  4  3  1  0
  5  1  1  0
  6  1  1  0
  7  2  1  0
  9  4  1  0
 11  4  1  0
 11 10  1  0
 12  1  1  0
 12  8  1  0
 12 10  1  0
M  END
>  <ID>  (1) 
conformer_0

$$$$
