
     RDKit          3D

 14 14  0  0  0  0  0  0  0  0999 V2000
   -8.7396    5.1933  -28.8129 C   0  0  0  0  0  0  0  0  0  0  0  0
   -7.4010    4.4418  -30.1907 C   0  0  0  0  0  0  0  0  0  0  0  0
   -7.5098    3.4575  -33.3429 O   0  0  0  0  0  0  0  0  0  0  0  0
   -7.5821    2.6180  -31.9056 P   0  0  0  0  0  0  0  0  0  0  0  0
   -9.8106    5.6357  -30.9833 O   0  0  0  0  0  0  0  0  0  0  0  0
  -10.0812    4.0054  -27.9455 C   0  0  0  0  0  0  0  0  0  0  0  0
  -10.6788    5.0628  -27.1449 O   0  0  0  0  0  0  0  0  0  0  0  0
   -7.7966    3.2945  -30.7572 O   0  0  0  0  0  0  0  0  0  0  0  0
   -8.1693    6.3625  -28.6802 O   0  0  0  0  0  0  0  0  0  0  0  0
   -6.0500    2.3028  -31.8466 O   0  0  0  0  0  0  0  0  0  0  0  0
   -8.6204    1.3259  -32.2363 O   0  0  0  0  0  0  0  0  0  0  0  0
   -8.7120    5.0114  -30.4215 C   0  0  0  0  0  0  0  0  0  0  0  0
   -9.9508    2.8320  -30.6197 O   0  0  0  0  0  0  0  0  0  0  0  0
  -10.0070    4.0203  -29.5044 C   0  0  0  0  0  0  0  0  0  0  0  0
  4  3  1  0
  7  6  1  0
  8  2  1  0
  8  4  1  0
  9  1  1  0
 10  4  1  0
 11  2  1  0
 12  1  1  0
 12  2  1  0
 12  5  1  0
 14  1  1  0
 14  6  1  0
 14 12  1  0
 14 13  1  0
M  END
>  <ID>  (1) 
conformer_0

$$$$
