
     RDKit          3D

 13 12  0  0  0  0  0  0  0  0999 V2000
   -8.9611    4.6176  -30.2911 C   0  0  0  0  0  0  0  0  0  0  0  0
  -10.4880    4.2898  -29.2629 C   0  0  0  0  0  0  0  0  0  0  0  0
   -7.7175    2.4819  -32.0349 P   0  0  0  0  0  0  0  0  0  0  0  0
   -7.8733    3.3222  -33.3025 O   0  0  0  0  0  0  0  0  0  0  0  0
  -10.9794    5.2076  -27.2502 O   0  0  0  0  0  0  0  0  0  0  0  0
   -9.7621    5.7506  -31.0051 O   0  0  0  0  0  0  0  0  0  0  0  0
   -8.5549    1.1227  -32.1439 O   0  0  0  0  0  0  0  0  0  0  0  0
   -6.2560    2.1150  -31.9749 O   0  0  0  0  0  0  0  0  0  0  0  0
   -7.0672    4.0810  -30.3130 C   0  0  0  0  0  0  0  0  0  0  0  0
   -8.3105    3.0720  -30.7903 O   0  0  0  0  0  0  0  0  0  0  0  0
   -7.7646    5.9931  -29.9666 O   0  0  0  0  0  0  0  0  0  0  0  0
   -8.1791    4.4662  -28.9398 C   0  0  0  0  0  0  0  0  0  0  0  0
  -10.1480    4.2101  -27.7984 C   0  0  0  0  0  0  0  0  0  0  0  0
  2  1  1  0
  4  3  1  0
  6  1  1  0
  8  3  1  0
  9  7  1  0
 10  3  1  0
 10  9  1  0
 11  1  1  0
 12  1  1  0
 12  9  1  0
 13  2  1  0
 13  5  1  0
M  END
>  <ID>  (1) 
conformer_0

$$$$
