
     RDKit          3D

 11 10  0  0  0  0  0  0  0  0999 V2000
  -10.3958    4.6857  -28.4370 C   0  0  0  0  0  0  0  0  0  0  0  0
   -9.5326    5.0081  -29.5584 C   0  0  0  0  0  0  0  0  0  0  0  0
   -7.4267    2.5540  -31.6847 P   0  0  0  0  0  0  0  0  0  0  0  0
  -10.0379    5.1525  -31.2995 O   0  0  0  0  0  0  0  0  0  0  0  0
   -5.9512    2.1168  -32.0025 O   0  0  0  0  0  0  0  0  0  0  0  0
  -11.2879    4.8940  -27.3151 O   0  0  0  0  0  0  0  0  0  0  0  0
   -7.3620    3.1486  -30.1102 O   0  0  0  0  0  0  0  0  0  0  0  0
   -8.0139    4.7197  -29.9968 C   0  0  0  0  0  0  0  0  0  0  0  0
   -7.7921    3.2421  -33.0647 O   0  0  0  0  0  0  0  0  0  0  0  0
   -8.1167    1.5325  -31.2380 O   0  0  0  0  0  0  0  0  0  0  0  0
   -8.4718    6.1728  -30.5540 O   0  0  0  0  0  0  0  0  0  0  0  0
  2  1  1  0
  4  2  1  0
  5  3  1  0
  6  1  1  0
  8  2  1  0
  8  7  1  0
  9  3  1  0
 10  3  1  0
 10  8  1  0
 11  8  1  0
M  END
>  <ID>  (1) 
conformer_0

$$$$
