
     RDKit          3D

 12 11  0  0  0  0  0  0  0  0999 V2000
  -10.0126    3.9964  -28.4733 C   0  0  0  0  0  0  0  0  0  0  0  0
   -9.1373    4.6202  -29.4425 C   0  0  0  0  0  0  0  0  0  0  0  0
   -7.8537    3.3442  -33.0902 O   0  0  0  0  0  0  0  0  0  0  0  0
   -7.5356    2.6767  -31.9189 P   0  0  0  0  0  0  0  0  0  0  0  0
  -10.4858    5.1819  -27.6086 O   0  0  0  0  0  0  0  0  0  0  0  0
   -6.1538    2.1936  -31.8412 O   0  0  0  0  0  0  0  0  0  0  0  0
   -9.8871    5.1626  -31.0424 O   0  0  0  0  0  0  0  0  0  0  0  0
   -8.4832    1.4247  -31.8422 O   0  0  0  0  0  0  0  0  0  0  0  0
  -10.9685    3.0855  -29.7317 O   0  0  0  0  0  0  0  0  0  0  0  0
   -8.4016    6.2658  -29.3456 O   0  0  0  0  0  0  0  0  0  0  0  0
   -7.7359    4.5820  -30.1169 C   0  0  0  0  0  0  0  0  0  0  0  0
   -7.9416    3.1611  -30.0512 O   0  0  0  0  0  0  0  0  0  0  0  0
  2  1  1  0
  4  3  1  0
  5  1  1  0
  6  4  1  0
  7  2  1  0
  8  4  1  0
  9  1  1  0
 10  2  1  0
 11  2  1  0
 11  8  1  0
 12 11  1  0
M  END
>  <ID>  (1) 
conformer_0

$$$$
