
     RDKit          3D

 15 14  0  0  0  0  0  0  0  0999 V2000
   -8.9263    5.4465  -29.6667 C   0  0  0  0  0  0  0  0  0  0  0  0
   -9.6089    4.4605  -28.0466 C   0  0  0  0  0  0  0  0  0  0  0  0
   -7.8082    3.1289  -33.1653 O   0  0  0  0  0  0  0  0  0  0  0  0
   -7.5184    2.5578  -31.8159 P   0  0  0  0  0  0  0  0  0  0  0  0
   -8.4006    1.2118  -31.6981 O   0  0  0  0  0  0  0  0  0  0  0  0
   -6.0291    2.1515  -32.0212 O   0  0  0  0  0  0  0  0  0  0  0  0
  -10.6890    4.8727  -27.1421 O   0  0  0  0  0  0  0  0  0  0  0  0
   -8.1722    4.4317  -29.4831 C   0  0  0  0  0  0  0  0  0  0  0  0
   -9.7941    5.0024  -31.3010 O   0  0  0  0  0  0  0  0  0  0  0  0
  -10.8951    3.6348  -29.5979 O   0  0  0  0  0  0  0  0  0  0  0  0
   -7.7626    3.1428  -30.3532 O   0  0  0  0  0  0  0  0  0  0  0  0
   -8.9543    6.2318  -28.0590 O   0  0  0  0  0  0  0  0  0  0  0  0
  -10.5724    3.7852  -28.7660 C   0  0  0  0  0  0  0  0  0  0  0  0
   -8.3210    6.4436  -30.4209 O   0  0  0  0  0  0  0  0  0  0  0  0
   -7.3274    4.6111  -30.7799 C   0  0  0  0  0  0  0  0  0  0  0  0
  4  3  1  0
  6  4  1  0
  7  2  1  0
  8  1  1  0
  8  2  1  0
  9  1  1  0
 11  4  1  0
 12  1  1  0
 13  2  1  0
 13 10  2  0
 14  1  1  0
 15  5  1  0
 15  8  1  0
 15 11  1  0
M  END
>  <ID>  (1) 
conformer_0

$$$$
