
     RDKit          3D

 11 10  0  0  0  0  0  0  0  0999 V2000
   -7.5175    4.3642  -29.5954 C   0  0  0  0  0  0  0  0  0  0  0  0
   -8.6569    5.0740  -30.5566 C   0  0  0  0  0  0  0  0  0  0  0  0
   -6.1216    2.1114  -31.7973 O   0  0  0  0  0  0  0  0  0  0  0  0
   -7.3624    2.6180  -31.6784 P   0  0  0  0  0  0  0  0  0  0  0  0
   -7.7036    3.3709  -33.1634 O   0  0  0  0  0  0  0  0  0  0  0  0
   -9.9803    5.8534  -31.2788 O   0  0  0  0  0  0  0  0  0  0  0  0
   -7.5052    3.3773  -30.4682 O   0  0  0  0  0  0  0  0  0  0  0  0
  -10.6383    4.5359  -27.2762 O   0  0  0  0  0  0  0  0  0  0  0  0
   -8.6044    1.6733  -31.8027 O   0  0  0  0  0  0  0  0  0  0  0  0
   -9.9871    3.8170  -28.2963 C   0  0  0  0  0  0  0  0  0  0  0  0
   -9.7643    4.6774  -29.5675 C   0  0  0  0  0  0  0  0  0  0  0  0
  2  1  1  0
  4  3  1  0
  5  4  1  0
  6  2  1  0
  7  1  1  0
  7  4  1  0
  9  2  1  0
 10  8  1  0
 11  2  1  0
 11 10  1  0
M  END
>  <ID>  (1) 
conformer_0

$$$$
