
     RDKit          3D

 16 16  0  0  0  0  0  0  0  0999 V2000
   -8.5503    5.5364  -28.5864 C   0  0  0  0  0  0  0  0  0  0  0  0
   -9.6548    4.6112  -28.0955 C   0  0  0  0  0  0  0  0  0  0  0  0
   -7.3796    2.6698  -31.8789 P   0  0  0  0  0  0  0  0  0  0  0  0
   -5.9953    2.0995  -31.8456 O   0  0  0  0  0  0  0  0  0  0  0  0
   -7.8246    3.2541  -30.6958 O   0  0  0  0  0  0  0  0  0  0  0  0
  -11.2411    2.6999  -29.8852 O   0  0  0  0  0  0  0  0  0  0  0  0
   -7.4856    3.5281  -33.1464 O   0  0  0  0  0  0  0  0  0  0  0  0
   -8.1658    6.3899  -27.7687 O   0  0  0  0  0  0  0  0  0  0  0  0
  -10.5306    3.5193  -29.2612 C   0  0  0  0  0  0  0  0  0  0  0  0
   -9.8039    5.0877  -31.1450 O   0  0  0  0  0  0  0  0  0  0  0  0
  -10.6300    5.1610  -27.1903 O   0  0  0  0  0  0  0  0  0  0  0  0
   -8.4426    1.4440  -32.1217 O   0  0  0  0  0  0  0  0  0  0  0  0
   -7.4815    5.9720  -30.0166 O   0  0  0  0  0  0  0  0  0  0  0  0
   -9.3155    4.5776  -29.9877 C   0  0  0  0  0  0  0  0  0  0  0  0
  -11.2423    5.0597  -29.4095 O   0  0  0  0  0  0  0  0  0  0  0  0
   -7.8042    4.5756  -29.9982 C   0  0  0  0  0  0  0  0  0  0  0  0
  2  1  1  0
  4  3  1  0
  5  3  1  0
  7  3  1  0
  8  1  1  0
  9  2  1  0
  9  6  1  0
 11  2  1  0
 14  1  1  0
 14  9  1  0
 14 10  1  0
 15  9  1  0
 16  5  1  0
 16 12  1  0
 16 13  1  0
 16 14  1  0
M  END
>  <ID>  (1) 
conformer_0

$$$$
