
     RDKit          3D

 13 12  0  0  0  0  0  0  0  0999 V2000
   -9.8332    4.3108  -29.3717 C   0  0  0  0  0  0  0  0  0  0  0  0
  -10.2567    3.9521  -27.9712 C   0  0  0  0  0  0  0  0  0  0  0  0
   -6.2892    1.9945  -31.8337 O   0  0  0  0  0  0  0  0  0  0  0  0
   -7.6455    2.6080  -31.9672 P   0  0  0  0  0  0  0  0  0  0  0  0
   -8.8436    1.5401  -32.3385 O   0  0  0  0  0  0  0  0  0  0  0  0
   -7.6130    3.4483  -33.1730 O   0  0  0  0  0  0  0  0  0  0  0  0
   -9.8355    5.1920  -30.8773 O   0  0  0  0  0  0  0  0  0  0  0  0
   -8.1575    6.2105  -28.3128 O   0  0  0  0  0  0  0  0  0  0  0  0
  -10.9829    3.0355  -29.6461 O   0  0  0  0  0  0  0  0  0  0  0  0
   -7.7680    4.3328  -30.3129 C   0  0  0  0  0  0  0  0  0  0  0  0
  -10.1992    5.4170  -27.6047 O   0  0  0  0  0  0  0  0  0  0  0  0
   -7.9409    3.3456  -30.8154 O   0  0  0  0  0  0  0  0  0  0  0  0
   -8.5896    5.3136  -29.2451 C   0  0  0  0  0  0  0  0  0  0  0  0
  2  1  1  0
  4  3  1  0
  6  4  1  0
  7  1  1  0
  9  1  1  0
 10  5  1  0
 11  2  1  0
 12  4  1  0
 12 10  1  0
 13  1  1  0
 13  8  1  0
 13 10  1  0
M  END
>  <ID>  (1) 
conformer_0

$$$$
