
     RDKit          3D

 14 13  0  0  0  0  0  0  0  0999 V2000
   -8.3077    4.3105  -29.2061 C   0  0  0  0  0  0  0  0  0  0  0  0
   -8.9989    5.4675  -29.8052 C   0  0  0  0  0  0  0  0  0  0  0  0
   -7.3952    3.6378  -33.0775 O   0  0  0  0  0  0  0  0  0  0  0  0
   -7.2732    2.6370  -31.7550 P   0  0  0  0  0  0  0  0  0  0  0  0
   -9.7687    5.6290  -30.8998 O   0  0  0  0  0  0  0  0  0  0  0  0
  -10.9352    5.0052  -27.6713 O   0  0  0  0  0  0  0  0  0  0  0  0
   -7.8099    3.2432  -30.4424 O   0  0  0  0  0  0  0  0  0  0  0  0
   -6.1116    2.0542  -31.7338 O   0  0  0  0  0  0  0  0  0  0  0  0
   -7.8979    5.9842  -28.7698 O   0  0  0  0  0  0  0  0  0  0  0  0
   -6.9835    4.3656  -30.3191 C   0  0  0  0  0  0  0  0  0  0  0  0
  -11.1128    3.1453  -29.7437 O   0  0  0  0  0  0  0  0  0  0  0  0
   -8.5259    1.6082  -32.1098 O   0  0  0  0  0  0  0  0  0  0  0  0
  -10.4201    4.2985  -29.4562 C   0  0  0  0  0  0  0  0  0  0  0  0
   -9.9154    4.1084  -28.0714 C   0  0  0  0  0  0  0  0  0  0  0  0
  2  1  1  0
  4  3  1  0
  5  2  1  0
  7  4  1  0
  8  4  1  0
  9  2  1  0
 10  1  1  0
 10  7  1  0
 12 10  1  0
 13  2  1  0
 13 11  1  0
 14  6  1  0
 14 13  1  0
M  END
>  <ID>  (1) 
conformer_0

$$$$
