
     RDKit          3D

 13 12  0  0  0  0  0  0  0  0999 V2000
   -7.7643    4.2904  -30.1642 C   0  0  0  0  0  0  0  0  0  0  0  0
   -9.6375    3.9046  -29.6621 C   0  0  0  0  0  0  0  0  0  0  0  0
   -7.5195    2.6224  -31.8913 P   0  0  0  0  0  0  0  0  0  0  0  0
  -11.0296    5.2044  -26.9098 O   0  0  0  0  0  0  0  0  0  0  0  0
   -6.0869    2.0480  -31.7509 O   0  0  0  0  0  0  0  0  0  0  0  0
   -8.5621    1.3419  -32.1510 O   0  0  0  0  0  0  0  0  0  0  0  0
   -9.9116    5.3557  -30.8425 O   0  0  0  0  0  0  0  0  0  0  0  0
   -8.0139    6.0185  -28.9150 O   0  0  0  0  0  0  0  0  0  0  0  0
   -7.5843    3.4125  -33.1252 O   0  0  0  0  0  0  0  0  0  0  0  0
  -10.7903    3.0500  -29.7920 O   0  0  0  0  0  0  0  0  0  0  0  0
  -10.2610    4.5280  -27.8452 C   0  0  0  0  0  0  0  0  0  0  0  0
   -8.1590    3.1720  -30.9736 O   0  0  0  0  0  0  0  0  0  0  0  0
   -8.8408    5.1117  -29.3411 C   0  0  0  0  0  0  0  0  0  0  0  0
  5  3  1  0
  6  1  1  0
  9  3  1  0
 10  2  1  0
 11  2  1  0
 11  4  1  0
 12  1  1  0
 12  3  1  0
 13  1  1  0
 13  2  1  0
 13  7  1  0
 13  8  1  0
M  END
>  <ID>  (1) 
conformer_0

$$$$
