
     RDKit          3D

 11 10  0  0  0  0  0  0  0  0999 V2000
   -7.8462    4.6122  -30.0751 C   0  0  0  0  0  0  0  0  0  0  0  0
   -9.2001    4.8338  -29.8760 C   0  0  0  0  0  0  0  0  0  0  0  0
   -7.4295    2.4255  -31.7191 P   0  0  0  0  0  0  0  0  0  0  0  0
   -6.2373    1.7658  -31.6838 O   0  0  0  0  0  0  0  0  0  0  0  0
   -9.7069    5.6819  -31.1840 O   0  0  0  0  0  0  0  0  0  0  0  0
  -10.7036    5.3250  -27.1211 O   0  0  0  0  0  0  0  0  0  0  0  0
   -7.7629    3.1380  -30.6011 O   0  0  0  0  0  0  0  0  0  0  0  0
   -7.4258    3.1988  -33.1142 O   0  0  0  0  0  0  0  0  0  0  0  0
  -10.1775    4.4029  -28.6378 C   0  0  0  0  0  0  0  0  0  0  0  0
   -8.3468    5.6066  -28.2674 O   0  0  0  0  0  0  0  0  0  0  0  0
   -8.8395    1.4833  -31.9028 O   0  0  0  0  0  0  0  0  0  0  0  0
  2  1  1  0
  4  3  1  0
  5  2  1  0
  7  1  1  0
  7  3  1  0
  8  3  1  0
  9  2  1  0
  9  6  1  0
 10  2  1  0
 11  1  1  0
M  END
>  <ID>  (1) 
conformer_0

$$$$
