
     RDKit          3D

 13 12  0  0  0  0  0  0  0  0999 V2000
   -7.5838    4.5452  -30.2443 C   0  0  0  0  0  0  0  0  0  0  0  0
   -8.4561    5.0241  -29.0713 C   0  0  0  0  0  0  0  0  0  0  0  0
   -6.0309    2.1387  -31.8294 O   0  0  0  0  0  0  0  0  0  0  0  0
   -7.4460    2.6484  -31.9054 P   0  0  0  0  0  0  0  0  0  0  0  0
   -8.4464    1.4362  -32.1104 O   0  0  0  0  0  0  0  0  0  0  0  0
  -10.8429    5.0695  -27.5999 O   0  0  0  0  0  0  0  0  0  0  0  0
   -7.6236    3.4150  -33.2039 O   0  0  0  0  0  0  0  0  0  0  0  0
   -7.9981    5.9350  -28.2735 O   0  0  0  0  0  0  0  0  0  0  0  0
  -11.1726    2.7457  -29.8798 O   0  0  0  0  0  0  0  0  0  0  0  0
   -9.6085    4.8753  -31.3042 O   0  0  0  0  0  0  0  0  0  0  0  0
   -9.5725    4.1869  -29.6835 C   0  0  0  0  0  0  0  0  0  0  0  0
   -7.8201    3.2639  -30.6364 O   0  0  0  0  0  0  0  0  0  0  0  0
  -10.4169    3.9251  -28.5538 C   0  0  0  0  0  0  0  0  0  0  0  0
  2  1  1  0
  4  3  1  0
  5  1  1  0
  7  4  1  0
  8  2  1  0
 11  2  1  0
 11 10  1  0
 12  1  1  0
 12  4  1  0
 13  6  1  0
 13  9  1  0
 13 11  1  0
M  END
>  <ID>  (1) 
conformer_0

$$$$
