
     RDKit          3D

 15 14  0  0  0  0  0  0  0  0999 V2000
   -8.7967    4.2725  -30.2260 C   0  0  0  0  0  0  0  0  0  0  0  0
  -10.4524    4.3442  -29.1811 C   0  0  0  0  0  0  0  0  0  0  0  0
   -7.6236    3.4059  -33.3709 O   0  0  0  0  0  0  0  0  0  0  0  0
   -7.3808    2.5823  -32.0285 P   0  0  0  0  0  0  0  0  0  0  0  0
   -6.0955    1.9000  -32.0310 O   0  0  0  0  0  0  0  0  0  0  0  0
   -8.5742    1.4622  -31.9764 O   0  0  0  0  0  0  0  0  0  0  0  0
   -9.5263    5.3279  -31.1635 O   0  0  0  0  0  0  0  0  0  0  0  0
   -7.1303    3.4899  -31.0058 O   0  0  0  0  0  0  0  0  0  0  0  0
   -7.9556    5.9975  -28.6899 O   0  0  0  0  0  0  0  0  0  0  0  0
   -7.3859    4.6404  -30.1661 C   0  0  0  0  0  0  0  0  0  0  0  0
  -10.9176    3.0633  -29.7689 O   0  0  0  0  0  0  0  0  0  0  0  0
  -11.4570    4.9104  -27.4265 O   0  0  0  0  0  0  0  0  0  0  0  0
  -10.1734    4.3760  -27.3396 C   0  0  0  0  0  0  0  0  0  0  0  0
  -11.2866    5.1866  -29.7855 O   0  0  0  0  0  0  0  0  0  0  0  0
   -8.7835    4.9940  -28.7520 C   0  0  0  0  0  0  0  0  0  0  0  0
  4  3  1  0
  5  4  1  0
  6  1  1  0
  7  1  1  0
  8  4  1  0
 10  1  1  0
 10  8  1  0
 11  2  1  0
 13  2  1  0
 13 12  1  0
 14  2  1  0
 15  1  1  0
 15  2  1  0
 15  9  1  0
M  END
>  <ID>  (1) 
conformer_0

$$$$
