
     RDKit          3D

 14 15  0  0  0  0  0  0  0  0999 V2000
   -8.9926    5.3748  -30.2149 C   0  0  0  0  0  0  0  0  0  0  0  0
   -7.5580    4.3539  -30.1328 C   0  0  0  0  0  0  0  0  0  0  0  0
   -8.0688    3.3636  -33.1320 O   0  0  0  0  0  0  0  0  0  0  0  0
   -7.7983    2.5358  -31.7689 P   0  0  0  0  0  0  0  0  0  0  0  0
  -10.1212    5.6722  -31.1190 O   0  0  0  0  0  0  0  0  0  0  0  0
   -8.6134    1.2440  -31.9140 O   0  0  0  0  0  0  0  0  0  0  0  0
  -10.2412    4.9281  -27.2204 O   0  0  0  0  0  0  0  0  0  0  0  0
   -9.9356    4.2382  -29.6877 C   0  0  0  0  0  0  0  0  0  0  0  0
  -10.8297    3.2471  -29.0654 O   0  0  0  0  0  0  0  0  0  0  0  0
   -8.2916    6.5226  -28.7168 O   0  0  0  0  0  0  0  0  0  0  0  0
   -7.7666    3.2655  -30.5664 O   0  0  0  0  0  0  0  0  0  0  0  0
   -6.4849    2.4565  -32.3534 O   0  0  0  0  0  0  0  0  0  0  0  0
   -8.2391    4.9878  -28.6705 C   0  0  0  0  0  0  0  0  0  0  0  0
   -9.9582    4.0300  -27.9510 C   0  0  0  0  0  0  0  0  0  0  0  0
  2  1  1  0
  4  3  1  0
  5  1  1  0
  6  2  1  0
  8  1  1  0
  9  8  1  0
 11  2  1  0
 11  4  1  0
 12  4  1  0
 13  1  1  0
 13  2  1  0
 13 10  1  0
 14  7  1  0
 14  8  1  0
 14  9  1  0
M  END
>  <ID>  (1) 
conformer_0

$$$$
