
     RDKit          3D

 11 10  0  0  0  0  0  0  0  0999 V2000
   -9.9536    4.2633  -28.4367 C   0  0  0  0  0  0  0  0  0  0  0  0
   -9.0277    4.8077  -29.4429 C   0  0  0  0  0  0  0  0  0  0  0  0
   -7.5141    2.7315  -31.8865 P   0  0  0  0  0  0  0  0  0  0  0  0
   -7.5471    3.5486  -33.1494 O   0  0  0  0  0  0  0  0  0  0  0  0
  -10.5486    5.1607  -27.4885 O   0  0  0  0  0  0  0  0  0  0  0  0
   -9.6373    4.1632  -31.5181 O   0  0  0  0  0  0  0  0  0  0  0  0
   -8.4575    1.3595  -32.3271 O   0  0  0  0  0  0  0  0  0  0  0  0
  -11.0822    3.3145  -29.3528 O   0  0  0  0  0  0  0  0  0  0  0  0
   -6.0885    2.0144  -31.8926 O   0  0  0  0  0  0  0  0  0  0  0  0
   -7.4748    4.3942  -30.0980 C   0  0  0  0  0  0  0  0  0  0  0  0
   -7.8120    2.9548  -30.6042 O   0  0  0  0  0  0  0  0  0  0  0  0
  2  1  1  0
  4  3  1  0
  5  1  1  0
  6  2  1  0
  8  1  1  0
  9  3  1  0
 10  2  1  0
 10  7  1  0
 11  3  1  0
 11 10  1  0
M  END
>  <ID>  (1) 
conformer_0

$$$$
