
     RDKit          3D

 12 11  0  0  0  0  0  0  0  0999 V2000
   -7.9910    4.5110  -30.2504 C   0  0  0  0  0  0  0  0  0  0  0  0
   -8.7830    5.1911  -29.3270 C   0  0  0  0  0  0  0  0  0  0  0  0
   -7.4784    2.6221  -31.7656 P   0  0  0  0  0  0  0  0  0  0  0  0
   -6.0763    2.2113  -31.8130 O   0  0  0  0  0  0  0  0  0  0  0  0
   -8.4936    1.2779  -32.0089 O   0  0  0  0  0  0  0  0  0  0  0  0
   -7.7076    3.3906  -33.1506 O   0  0  0  0  0  0  0  0  0  0  0  0
   -9.7721    4.7189  -31.3170 O   0  0  0  0  0  0  0  0  0  0  0  0
  -10.6350    5.4189  -27.4345 O   0  0  0  0  0  0  0  0  0  0  0  0
   -8.5369    6.2860  -28.8159 O   0  0  0  0  0  0  0  0  0  0  0  0
   -7.8345    3.2238  -30.5443 O   0  0  0  0  0  0  0  0  0  0  0  0
   -9.8916    3.8227  -29.5513 C   0  0  0  0  0  0  0  0  0  0  0  0
  -10.1546    4.2657  -27.9606 C   0  0  0  0  0  0  0  0  0  0  0  0
  2  1  1  0
  4  3  1  0
  5  1  1  0
  6  3  1  0
  9  2  1  0
 10  1  1  0
 10  3  1  0
 11  2  1  0
 11  7  1  0
 12  8  1  0
 12 11  1  0
M  END
>  <ID>  (1) 
conformer_0

$$$$
