
     RDKit          3D

 14 13  0  0  0  0  0  0  0  0999 V2000
   -8.5967    5.0343  -29.7825 C   0  0  0  0  0  0  0  0  0  0  0  0
   -7.5368    4.3562  -30.6507 C   0  0  0  0  0  0  0  0  0  0  0  0
   -7.3585    2.5748  -32.0034 P   0  0  0  0  0  5  0  0  0  0  0  0
   -7.7632    3.0521  -33.3683 O   0  0  0  0  0  0  0  0  0  0  0  0
  -11.1415    3.5179  -29.5087 O   0  0  0  0  0  0  0  0  0  0  0  0
   -5.8913    2.1671  -32.0427 O   0  0  0  0  0  0  0  0  0  0  0  0
   -7.9647    1.0307  -31.8467 O   0  0  0  0  0  0  0  0  0  0  0  0
   -9.7726    5.3725  -31.0045 O   0  0  0  0  0  0  0  0  0  0  0  0
  -10.5052    5.4496  -27.0996 O   0  0  0  0  0  0  0  0  0  0  0  0
   -8.4114    6.1669  -28.9015 O   0  0  0  0  0  0  0  0  0  0  0  0
   -9.8649    4.3283  -29.3840 C   0  0  0  0  0  0  0  0  0  0  0  0
   -7.5583    2.8695  -30.6030 O   0  0  0  0  0  0  0  0  0  0  0  0
  -10.1238    4.2297  -27.7914 C   0  0  0  0  0  0  0  0  0  0  0  0
   -9.3995    3.3390  -31.9921 O   0  0  0  0  0  0  0  0  0  0  0  0
  2  1  1  0
  4  3  1  0
  6  3  1  0
  7  2  1  0
  8  1  1  0
 10  1  1  0
 11  1  1  0
 11  5  1  0
 12  2  1  0
 12  3  1  0
 13  9  1  0
 13 11  1  0
 14  3  1  0
M  END
>  <ID>  (1) 
conformer_0

$$$$
