
     RDKit          3D

 13 13  0  0  0  0  0  0  0  0999 V2000
   -9.7442    4.4632  -29.7765 C   0  0  0  0  0  0  0  0  0  0  0  0
  -10.0651    4.4544  -28.0663 C   0  0  0  0  0  0  0  0  0  0  0  0
   -7.9446    3.3180  -33.2396 O   0  0  0  0  0  0  0  0  0  0  0  0
   -7.5928    2.5796  -31.9254 P   0  0  0  0  0  0  0  0  0  0  0  0
   -5.9619    2.2786  -32.0229 O   0  0  0  0  0  0  0  0  0  0  0  0
   -8.0174    6.0026  -30.6131 O   0  0  0  0  0  0  0  0  0  0  0  0
  -10.8232    5.2813  -27.4270 O   0  0  0  0  0  0  0  0  0  0  0  0
  -10.8258    3.1966  -29.4829 O   0  0  0  0  0  0  0  0  0  0  0  0
   -7.8912    3.2872  -30.6653 O   0  0  0  0  0  0  0  0  0  0  0  0
   -7.7953    4.3673  -30.0342 C   0  0  0  0  0  0  0  0  0  0  0  0
   -8.2713    1.2234  -31.9303 O   0  0  0  0  0  0  0  0  0  0  0  0
   -8.1930    6.3953  -28.2992 O   0  0  0  0  0  0  0  0  0  0  0  0
   -8.4746    5.0977  -28.9296 C   0  0  0  0  0  0  0  0  0  0  0  0
  2  1  1  0
  4  3  1  0
  5  4  1  0
  7  2  1  0
  8  1  1  0
  9  4  1  0
 10  6  1  0
 10  9  1  0
 11 10  1  0
 13  1  1  0
 13  2  1  0
 13 10  1  0
 13 12  1  0
M  END
>  <ID>  (1) 
conformer_0

$$$$
