
     RDKit          3D

 14 13  0  0  0  0  0  0  0  0999 V2000
   -8.8394    5.1620  -29.6382 C   0  0  0  0  0  0  0  0  0  0  0  0
   -9.8852    3.9879  -29.3499 C   0  0  0  0  0  0  0  0  0  0  0  0
   -7.4075    2.5994  -32.0088 P   0  0  0  0  0  5  0  0  0  0  0  0
   -7.6069    3.2220  -33.3513 O   0  0  0  0  0  0  0  0  0  0  0  0
  -10.7279    5.2373  -27.0453 O   0  0  0  0  0  0  0  0  0  0  0  0
   -7.7107    4.3570  -30.4880 C   0  0  0  0  0  0  0  0  0  0  0  0
   -7.9974    1.0882  -31.8577 O   0  0  0  0  0  0  0  0  0  0  0  0
   -5.9423    2.1088  -32.0629 O   0  0  0  0  0  0  0  0  0  0  0  0
  -10.9736    2.9179  -29.8534 O   0  0  0  0  0  0  0  0  0  0  0  0
   -8.4405    6.3616  -28.6855 O   0  0  0  0  0  0  0  0  0  0  0  0
   -9.4088    5.6755  -30.8702 O   0  0  0  0  0  0  0  0  0  0  0  0
   -7.6401    3.1009  -30.8462 O   0  0  0  0  0  0  0  0  0  0  0  0
  -10.0313    4.1831  -27.9854 C   0  0  0  0  0  0  0  0  0  0  0  0
   -9.5567    3.4437  -31.9657 O   0  0  0  0  0  0  0  0  0  0  0  0
  2  1  1  0
  4  3  1  0
  6  1  1  0
  7  6  1  0
  8  3  1  0
  9  2  1  0
 10  1  1  0
 11  1  1  0
 12  3  1  0
 12  6  1  0
 13  2  1  0
 13  5  1  0
 14  3  1  0
M  END
>  <ID>  (1) 
conformer_0

$$$$
