
     RDKit          3D

 15 14  0  0  0  0  0  0  0  0999 V2000
   -8.3144    5.3368  -30.3129 C   0  0  0  0  0  0  0  0  0  0  0  0
  -10.1903    3.7368  -29.3573 C   0  0  0  0  0  0  0  0  0  0  0  0
   -7.4583    2.5812  -31.8916 P   0  0  0  0  0  5  0  0  0  0  0  0
   -5.9871    2.1403  -31.8112 O   0  0  0  0  0  0  0  0  0  0  0  0
   -8.4325    1.2265  -32.0171 O   0  0  0  0  0  0  0  0  0  0  0  0
  -10.9560    5.3196  -27.2351 O   0  0  0  0  0  0  0  0  0  0  0  0
   -9.7620    5.8486  -30.8473 O   0  0  0  0  0  0  0  0  0  0  0  0
   -8.4785    6.1225  -28.3453 O   0  0  0  0  0  0  0  0  0  0  0  0
   -7.5056    3.3136  -33.2033 O   0  0  0  0  0  0  0  0  0  0  0  0
   -7.3908    4.3326  -30.1389 C   0  0  0  0  0  0  0  0  0  0  0  0
   -7.5282    3.1556  -30.5446 O   0  0  0  0  0  0  0  0  0  0  0  0
  -11.0196    3.2324  -29.7861 O   0  0  0  0  0  0  0  0  0  0  0  0
   -9.5737    3.8445  -31.7286 O   0  0  0  0  0  0  0  0  0  0  0  0
   -9.1681    4.9772  -29.1050 C   0  0  0  0  0  0  0  0  0  0  0  0
  -10.4180    4.1318  -27.7261 C   0  0  0  0  0  0  0  0  0  0  0  0
  4  3  1  0
  7  1  1  0
  9  3  1  0
 10  1  1  0
 10  5  1  0
 11  3  1  0
 11 10  1  0
 12  2  2  0
 13  3  1  0
 14  1  1  0
 14  2  1  0
 14  8  1  0
 15  2  1  0
 15  6  1  0
M  END
>  <ID>  (1) 
conformer_0

$$$$
