
     RDKit          3D

 14 14  0  0  0  0  0  0  0  0999 V2000
  -10.1880    3.9833  -29.2893 C   0  0  0  0  0  0  0  0  0  0  0  0
   -7.5223    4.7788  -30.2267 C   0  0  0  0  0  0  0  0  0  0  0  0
   -7.6630    3.2707  -33.3079 O   0  0  0  0  0  0  0  0  0  0  0  0
   -7.4872    2.5973  -31.9597 P   0  0  0  0  0  0  0  0  0  0  0  0
   -6.1243    2.0511  -31.8570 O   0  0  0  0  0  0  0  0  0  0  0  0
   -8.4833    1.2987  -31.8612 O   0  0  0  0  0  0  0  0  0  0  0  0
  -11.0269    2.9897  -29.6179 O   0  0  0  0  0  0  0  0  0  0  0  0
   -9.9075    5.4711  -30.9129 O   0  0  0  0  0  0  0  0  0  0  0  0
   -8.2678    6.2056  -28.3758 O   0  0  0  0  0  0  0  0  0  0  0  0
  -10.7972    5.1203  -27.5382 O   0  0  0  0  0  0  0  0  0  0  0  0
  -10.0951    4.1202  -27.5655 C   0  0  0  0  0  0  0  0  0  0  0  0
   -7.6213    3.5696  -30.9761 O   0  0  0  0  0  0  0  0  0  0  0  0
   -8.9541    4.6216  -30.3905 C   0  0  0  0  0  0  0  0  0  0  0  0
   -8.7653    5.2871  -28.8923 C   0  0  0  0  0  0  0  0  0  0  0  0
  4  3  1  0
  5  4  1  0
  7  1  1  0
 11  1  1  0
 11 10  1  0
 12  2  1  0
 12  4  1  0
 13  2  1  0
 13  6  1  0
 13  8  1  0
 14  1  1  0
 14  2  1  0
 14  9  1  0
 14 13  1  0
M  END
>  <ID>  (1) 
conformer_0

$$$$
