
     RDKit          3D

 13 12  0  0  0  0  0  0  0  0999 V2000
   -8.8926    5.1058  -29.2731 C   0  0  0  0  0  0  0  0  0  0  0  0
  -10.0067    4.3784  -27.8030 C   0  0  0  0  0  0  0  0  0  0  0  0
   -7.4879    2.5396  -31.9725 P   0  0  0  0  0  0  0  0  0  0  0  0
   -6.2545    1.7810  -31.8689 O   0  0  0  0  0  0  0  0  0  0  0  0
   -7.8994    3.2197  -33.2143 O   0  0  0  0  0  0  0  0  0  0  0  0
   -7.4817    3.2779  -30.6462 O   0  0  0  0  0  0  0  0  0  0  0  0
   -9.7442    5.2612  -30.8873 O   0  0  0  0  0  0  0  0  0  0  0  0
  -10.4362    5.5957  -27.2039 O   0  0  0  0  0  0  0  0  0  0  0  0
   -8.6439    1.3080  -32.0127 O   0  0  0  0  0  0  0  0  0  0  0  0
   -8.5822    6.3157  -28.8302 O   0  0  0  0  0  0  0  0  0  0  0  0
   -9.9908    3.9844  -29.1917 C   0  0  0  0  0  0  0  0  0  0  0  0
   -8.0356    4.2658  -30.1864 C   0  0  0  0  0  0  0  0  0  0  0  0
  -10.2470    3.0823  -29.8577 O   0  0  0  0  0  0  0  0  0  0  0  0
  4  3  1  0
  5  3  1  0
  6  3  1  0
  7  1  1  0
  8  2  1  0
 10  1  1  0
 11  1  1  0
 11  2  1  0
 12  1  1  0
 12  6  1  0
 12  9  1  0
 13 11  2  0
M  END
>  <ID>  (1) 
conformer_0

$$$$
