
     RDKit          3D

 14 13  0  0  0  0  0  0  0  0999 V2000
   -8.1877    5.1722  -29.6326 C   0  0  0  0  0  0  0  0  0  0  0  0
   -7.6311    4.1742  -30.4729 C   0  0  0  0  0  0  0  0  0  0  0  0
   -7.6524    3.3542  -33.3401 O   0  0  0  0  0  0  0  0  0  0  0  0
   -7.9059    2.5249  -32.1593 P   0  0  0  0  0  5  0  0  0  0  0  0
   -8.9598    1.3441  -32.4109 O   0  0  0  0  0  0  0  0  0  0  0  0
   -6.3883    1.9312  -31.9038 O   0  0  0  0  0  0  0  0  0  0  0  0
  -10.8706    4.6843  -27.3408 O   0  0  0  0  0  0  0  0  0  0  0  0
   -9.2104    4.6662  -28.6339 C   0  0  0  0  0  0  0  0  0  0  0  0
   -8.3016    6.4988  -28.4609 O   0  0  0  0  0  0  0  0  0  0  0  0
   -9.9393    4.4186  -31.2888 O   0  0  0  0  0  0  0  0  0  0  0  0
   -8.1963    3.1209  -30.9425 O   0  0  0  0  0  0  0  0  0  0  0  0
  -10.8748    2.9344  -29.4180 O   0  0  0  0  0  0  0  0  0  0  0  0
  -10.1867    3.8632  -28.5236 C   0  0  0  0  0  0  0  0  0  0  0  0
   -8.3469    6.1812  -30.5086 O   0  0  0  0  0  0  0  0  0  0  0  0
  2  1  1  0
  4  3  1  0
  5  2  1  0
  5  4  1  0
  6  4  1  0
  8  1  1  0
  9  1  1  0
 11  4  1  0
 11 10  1  0
 13  7  1  0
 13  8  1  0
 13 12  2  0
 14  1  1  0
M  END
>  <ID>  (1) 
conformer_0

$$$$
