
     RDKit          3D

 13 12  0  0  0  0  0  0  0  0999 V2000
   -8.7968    5.3262  -29.6974 C   0  0  0  0  0  0  0  0  0  0  0  0
   -9.7035    4.2756  -29.5498 C   0  0  0  0  0  0  0  0  0  0  0  0
   -7.5280    2.5289  -31.8224 P   0  0  0  0  0  5  0  0  0  0  0  0
   -7.6412    3.1434  -33.2280 O   0  0  0  0  0  0  0  0  0  0  0  0
   -9.8150    5.7877  -30.9892 O   0  0  0  0  0  0  0  0  0  0  0  0
   -8.3300    1.1867  -31.8983 O   0  0  0  0  0  0  0  0  0  0  0  0
   -5.9334    2.2383  -31.8826 O   0  0  0  0  0  0  0  0  0  0  0  0
  -10.6724    5.2273  -27.3240 O   0  0  0  0  0  0  0  0  0  0  0  0
  -10.2993    4.0459  -28.2805 C   0  0  0  0  0  0  0  0  0  0  0  0
   -8.4130    6.1581  -28.5827 O   0  0  0  0  0  0  0  0  0  0  0  0
   -7.8028    3.2415  -30.6088 O   0  0  0  0  0  0  0  0  0  0  0  0
   -9.5965    3.7274  -31.9749 O   0  0  0  0  0  0  0  0  0  0  0  0
   -7.7113    4.4241  -30.2040 C   0  0  0  0  0  0  0  0  0  0  0  0
  2  1  1  0
  4  3  1  0
  5  1  1  0
  7  3  1  0
  9  2  1  0
  9  8  1  0
 10  1  1  0
 11  3  1  0
 12  3  1  0
 13  1  1  0
 13  6  1  0
 13 11  1  0
M  END
>  <ID>  (1) 
conformer_0

$$$$
