
     RDKit          3D

 13 12  0  0  0  0  0  0  0  0999 V2000
   -8.0463    4.5993  -30.3027 C   0  0  0  0  0  0  0  0  0  0  0  0
   -8.6653    5.3343  -29.3535 C   0  0  0  0  0  0  0  0  0  0  0  0
   -7.4394    2.6750  -31.8685 P   0  0  0  0  0  0  0  0  0  0  0  0
   -9.9318    5.3798  -31.1974 O   0  0  0  0  0  0  0  0  0  0  0  0
   -6.1115    2.1141  -31.7810 O   0  0  0  0  0  0  0  0  0  0  0  0
  -11.0471    2.8904  -29.6250 O   0  0  0  0  0  0  0  0  0  0  0  0
   -8.1486    6.2395  -28.4647 O   0  0  0  0  0  0  0  0  0  0  0  0
   -8.0397    3.2769  -30.6082 O   0  0  0  0  0  0  0  0  0  0  0  0
  -10.5714    5.2271  -27.7712 O   0  0  0  0  0  0  0  0  0  0  0  0
   -8.4089    1.3458  -31.9621 O   0  0  0  0  0  0  0  0  0  0  0  0
   -7.8877    3.2809  -33.0435 O   0  0  0  0  0  0  0  0  0  0  0  0
   -9.7776    3.9526  -28.2292 C   0  0  0  0  0  0  0  0  0  0  0  0
   -9.9225    4.2734  -29.7209 C   0  0  0  0  0  0  0  0  0  0  0  0
  2  1  1  0
  5  3  1  0
  7  2  1  0
  8  1  1  0
  8  3  1  0
 10  1  1  0
 11  3  1  0
 12  9  1  0
 13  2  1  0
 13  4  1  0
 13  6  1  0
 13 12  1  0
M  END
>  <ID>  (1) 
conformer_0

$$$$
