
     RDKit          3D

 11 10  0  0  0  0  0  0  0  0999 V2000
   -8.2088    4.4727  -30.0144 C   0  0  0  0  0  0  0  0  0  0  0  0
   -9.4767    4.7822  -29.6623 C   0  0  0  0  0  0  0  0  0  0  0  0
   -7.3796    2.5746  -31.9229 P   0  0  0  0  0  0  0  0  0  0  0  0
   -7.6507    3.4670  -33.2413 O   0  0  0  0  0  0  0  0  0  0  0  0
  -10.0864    5.4841  -31.2339 O   0  0  0  0  0  0  0  0  0  0  0  0
   -8.5475    1.3903  -32.0221 O   0  0  0  0  0  0  0  0  0  0  0  0
   -6.0758    2.0593  -32.1646 O   0  0  0  0  0  0  0  0  0  0  0  0
  -10.6481    5.4916  -27.0275 O   0  0  0  0  0  0  0  0  0  0  0  0
   -8.1260    5.7407  -28.3631 O   0  0  0  0  0  0  0  0  0  0  0  0
   -9.8812    4.3989  -28.1578 C   0  0  0  0  0  0  0  0  0  0  0  0
   -7.1818    3.0721  -30.6100 O   0  0  0  0  0  0  0  0  0  0  0  0
  2  1  1  0
  4  3  1  0
  5  2  1  0
  6  1  1  0
  7  3  1  0
  9  1  1  0
 10  2  1  0
 10  8  1  0
 11  1  1  0
 11  3  1  0
M  END
>  <ID>  (1) 
conformer_0

$$$$
