
     RDKit          3D

 15 15  0  0  0  0  0  0  0  0999 V2000
   -8.5526    5.1413  -28.7363 C   0  0  0  0  0  0  0  0  0  0  0  0
  -10.1903    4.4150  -29.4306 C   0  0  0  0  0  0  0  0  0  0  0  0
   -7.4854    3.3930  -33.3507 O   0  0  0  0  0  0  0  0  0  0  0  0
   -7.4131    2.5704  -31.9339 P   0  0  0  0  0  0  0  0  0  0  0  0
  -10.0590    5.8204  -30.9851 O   0  0  0  0  0  0  0  0  0  0  0  0
   -5.9986    2.0514  -31.9540 O   0  0  0  0  0  0  0  0  0  0  0  0
   -8.3464    1.1471  -32.0130 O   0  0  0  0  0  0  0  0  0  0  0  0
  -10.7639    4.0207  -27.2525 O   0  0  0  0  0  0  0  0  0  0  0  0
  -10.1852    3.6803  -28.2997 C   0  0  0  0  0  0  0  0  0  0  0  0
   -8.0004    6.2441  -29.1707 O   0  0  0  0  0  0  0  0  0  0  0  0
   -7.7624    3.0461  -30.8139 O   0  0  0  0  0  0  0  0  0  0  0  0
  -11.0720    3.1931  -29.6427 O   0  0  0  0  0  0  0  0  0  0  0  0
   -9.5310    3.8675  -31.9167 O   0  0  0  0  0  0  0  0  0  0  0  0
   -8.6744    4.6712  -30.2048 C   0  0  0  0  0  0  0  0  0  0  0  0
   -7.1695    4.2773  -30.4165 C   0  0  0  0  0  0  0  0  0  0  0  0
  2  1  1  0
  4  3  1  0
  6  4  1  0
  9  2  1  0
  9  8  1  0
 10  1  1  0
 11  4  1  0
 12  2  1  0
 12  9  1  0
 14  1  1  0
 14  5  1  0
 14 13  1  0
 15  7  1  0
 15 11  1  0
 15 14  1  0
M  END
>  <ID>  (1) 
conformer_0

$$$$
