
     RDKit          3D

 14 13  0  0  0  0  0  0  0  0999 V2000
   -9.0345    4.7053  -30.2027 C   0  0  0  0  0  0  0  0  0  0  0  0
   -9.2102    4.9196  -28.7833 C   0  0  0  0  0  0  0  0  0  0  0  0
   -7.5468    2.5903  -31.7966 P   0  0  0  0  0  0  0  0  0  0  0  0
   -6.1276    2.1892  -31.6645 O   0  0  0  0  0  0  0  0  0  0  0  0
   -8.5238    1.2836  -32.1725 O   0  0  0  0  0  0  0  0  0  0  0  0
   -9.8862    5.8445  -30.7298 O   0  0  0  0  0  0  0  0  0  0  0  0
  -10.5718    5.2780  -27.5158 O   0  0  0  0  0  0  0  0  0  0  0  0
   -8.1985    6.1645  -28.5722 O   0  0  0  0  0  0  0  0  0  0  0  0
  -11.2920    3.4027  -29.6741 O   0  0  0  0  0  0  0  0  0  0  0  0
   -7.4878    3.4471  -33.2507 O   0  0  0  0  0  0  0  0  0  0  0  0
   -7.7967    3.2909  -30.7601 O   0  0  0  0  0  0  0  0  0  0  0  0
   -7.6430    4.5228  -30.1192 C   0  0  0  0  0  0  0  0  0  0  0  0
   -9.7058    3.9500  -31.6739 O   0  0  0  0  0  0  0  0  0  0  0  0
  -10.4161    4.0774  -28.6081 C   0  0  0  0  0  0  0  0  0  0  0  0
  2  1  1  0
  4  3  1  0
  6  1  1  0
  8  2  1  0
 10  3  1  0
 11  3  1  0
 12  1  1  0
 12  5  1  0
 12 11  1  0
 13  1  1  0
 14  2  1  0
 14  7  1  0
 14  9  1  0
M  END
>  <ID>  (1) 
conformer_0

$$$$
