
     RDKit          3D

 14 13  0  0  0  0  0  0  0  0999 V2000
   -8.6800    4.8815  -29.1590 C   0  0  0  0  0  0  0  0  0  0  0  0
  -10.0469    4.2952  -28.1339 C   0  0  0  0  0  0  0  0  0  0  0  0
   -7.4732    2.6951  -31.9524 P   0  0  0  0  0  0  0  0  0  0  0  0
   -7.7493    3.3741  -33.2375 O   0  0  0  0  0  0  0  0  0  0  0  0
  -10.7543    5.2443  -27.2146 O   0  0  0  0  0  0  0  0  0  0  0  0
   -6.2488    1.9325  -31.9036 O   0  0  0  0  0  0  0  0  0  0  0  0
  -10.0336    5.5540  -30.9731 O   0  0  0  0  0  0  0  0  0  0  0  0
   -7.7605    3.4281  -30.6907 O   0  0  0  0  0  0  0  0  0  0  0  0
  -10.9030    3.1977  -29.7927 O   0  0  0  0  0  0  0  0  0  0  0  0
   -8.7021    1.4969  -31.9204 O   0  0  0  0  0  0  0  0  0  0  0  0
   -8.2517    5.7161  -27.9882 O   0  0  0  0  0  0  0  0  0  0  0  0
   -7.6442    4.1596  -29.8329 C   0  0  0  0  0  0  0  0  0  0  0  0
   -8.0352    5.9707  -30.3370 O   0  0  0  0  0  0  0  0  0  0  0  0
  -10.3307    4.2603  -29.5411 C   0  0  0  0  0  0  0  0  0  0  0  0
  4  3  1  0
  5  2  1  0
  6  3  1  0
  8  3  1  0
 11  1  1  0
 12  1  1  0
 12  8  1  0
 12 10  1  0
 13  1  1  0
 14  1  1  0
 14  2  1  0
 14  7  1  0
 14  9  1  0
M  END
>  <ID>  (1) 
conformer_0

$$$$
