
     RDKit          3D

 13 12  0  0  0  0  0  0  0  0999 V2000
   -9.5741    4.5606  -28.3039 C   0  0  0  0  0  0  0  0  0  0  0  0
  -10.2541    3.8055  -28.9946 C   0  0  0  0  0  0  0  0  0  0  0  0
   -7.8940    3.4477  -33.2361 O   0  0  0  0  0  0  0  0  0  0  0  0
   -7.6745    2.7596  -32.0517 P   0  0  0  0  0  0  0  0  0  0  0  0
   -8.5202    1.3484  -31.9898 O   0  0  0  0  0  0  0  0  0  0  0  0
   -9.4915    5.6032  -30.8965 O   0  0  0  0  0  0  0  0  0  0  0  0
  -11.0050    4.9654  -27.5174 O   0  0  0  0  0  0  0  0  0  0  0  0
   -7.7487    3.5929  -30.8317 O   0  0  0  0  0  0  0  0  0  0  0  0
  -11.0768    2.8164  -29.8293 O   0  0  0  0  0  0  0  0  0  0  0  0
   -6.1706    2.1674  -32.2762 O   0  0  0  0  0  0  0  0  0  0  0  0
   -8.5978    5.2215  -29.4619 C   0  0  0  0  0  0  0  0  0  0  0  0
   -8.0395    5.9528  -28.3090 O   0  0  0  0  0  0  0  0  0  0  0  0
   -7.6575    3.8394  -29.5677 C   0  0  0  0  0  0  0  0  0  0  0  0
  2  1  1  0
  4  3  1  0
  7  1  1  0
  8  4  1  0
  9  2  1  0
 10  4  1  0
 11  1  1  0
 11  6  1  0
 12 11  1  0
 13  5  1  0
 13  8  1  0
 13 11  1  0
M  END
>  <ID>  (1) 
conformer_0

$$$$
