
     RDKit          3D

 15 14  0  0  0  0  0  0  0  0999 V2000
   -7.4126    4.1095  -30.5983 C   0  0  0  0  0  0  0  0  0  0  0  0
   -8.0843    4.8878  -29.4965 C   0  0  0  0  0  0  0  0  0  0  0  0
   -7.6552    2.5141  -32.0348 P   0  0  0  0  0  0  0  0  0  0  0  0
   -7.8837    3.2443  -33.2450 O   0  0  0  0  0  0  0  0  0  0  0  0
  -10.9106    5.1387  -27.5479 O   0  0  0  0  0  0  0  0  0  0  0  0
   -6.0226    2.1419  -32.0764 O   0  0  0  0  0  0  0  0  0  0  0  0
  -10.9278    2.9652  -29.5438 O   0  0  0  0  0  0  0  0  0  0  0  0
  -10.0360    4.8790  -31.3273 O   0  0  0  0  0  0  0  0  0  0  0  0
   -7.7441    4.9959  -28.0851 O   0  0  0  0  0  0  0  0  0  0  0  0
   -9.2419    5.2145  -29.9948 C   0  0  0  0  0  0  0  0  0  0  0  0
   -7.9828    2.7792  -30.7677 O   0  0  0  0  0  0  0  0  0  0  0  0
   -8.5133    1.0832  -32.0513 O   0  0  0  0  0  0  0  0  0  0  0  0
   -8.5237    6.2498  -30.6518 O   0  0  0  0  0  0  0  0  0  0  0  0
  -10.1551    3.9323  -29.2306 C   0  0  0  0  0  0  0  0  0  0  0  0
  -10.0601    4.3706  -27.5608 C   0  0  0  0  0  0  0  0  0  0  0  0
  2  1  1  0
  4  3  1  0
  6  3  1  0
  9  2  1  0
 10  2  1  0
 10  8  1  0
 11  1  1  0
 11  3  1  0
 12  1  1  0
 13 10  1  0
 14  7  2  0
 14 10  1  0
 15  5  1  0
 15 14  1  0
M  END
>  <ID>  (1) 
conformer_0

$$$$
