
     RDKit          3D

 13 12  0  0  0  0  0  0  0  0999 V2000
   -9.7333    4.2701  -29.6043 C   0  0  0  0  0  0  0  0  0  0  0  0
  -10.1562    3.9132  -28.2209 C   0  0  0  0  0  0  0  0  0  0  0  0
   -7.6386    2.6368  -31.7992 P   0  0  0  0  0  0  0  0  0  0  0  0
   -6.2902    2.0482  -31.8340 O   0  0  0  0  0  0  0  0  0  0  0  0
   -9.8433    5.3712  -31.0578 O   0  0  0  0  0  0  0  0  0  0  0  0
  -10.8034    4.9128  -27.5980 O   0  0  0  0  0  0  0  0  0  0  0  0
   -7.6369    3.3309  -33.1448 O   0  0  0  0  0  0  0  0  0  0  0  0
   -8.0271    6.0941  -28.5924 O   0  0  0  0  0  0  0  0  0  0  0  0
   -7.7375    3.3795  -30.6129 O   0  0  0  0  0  0  0  0  0  0  0  0
   -8.7582    5.2076  -29.1804 C   0  0  0  0  0  0  0  0  0  0  0  0
   -8.8479    1.5833  -32.0222 O   0  0  0  0  0  0  0  0  0  0  0  0
  -10.3211    2.8983  -30.0956 O   0  0  0  0  0  0  0  0  0  0  0  0
   -7.7448    4.6015  -30.3098 C   0  0  0  0  0  0  0  0  0  0  0  0
  2  1  1  0
  4  3  1  0
  5  1  1  0
  6  2  1  0
  7  3  1  0
  9  3  1  0
 10  1  1  0
 10  8  1  0
 12  1  1  0
 13  9  1  0
 13 10  1  0
 13 11  1  0
M  END
>  <ID>  (1) 
conformer_0

$$$$
