
     RDKit          3D

 12 11  0  0  0  0  0  0  0  0999 V2000
   -9.9743    4.2425  -28.7432 C   0  0  0  0  0  0  0  0  0  0  0  0
   -9.1722    4.7812  -29.2057 C   0  0  0  0  0  0  0  0  0  0  0  0
   -7.4916    2.5828  -31.7622 P   0  0  0  0  0  0  0  0  0  0  0  0
   -6.0613    2.1246  -31.9481 O   0  0  0  0  0  0  0  0  0  0  0  0
   -8.4443    1.2198  -31.8732 O   0  0  0  0  0  0  0  0  0  0  0  0
   -9.7713    5.6768  -30.9246 O   0  0  0  0  0  0  0  0  0  0  0  0
   -7.9926    3.2268  -33.0666 O   0  0  0  0  0  0  0  0  0  0  0  0
   -7.7654    4.6102  -30.0682 C   0  0  0  0  0  0  0  0  0  0  0  0
  -11.0759    2.9986  -29.8401 O   0  0  0  0  0  0  0  0  0  0  0  0
   -7.6712    3.2143  -30.6508 O   0  0  0  0  0  0  0  0  0  0  0  0
   -8.0394    5.8625  -28.4614 O   0  0  0  0  0  0  0  0  0  0  0  0
  -10.9437    4.5378  -27.6563 O   0  0  0  0  0  0  0  0  0  0  0  0
  2  1  1  0
  4  3  1  0
  6  2  1  0
  7  3  1  0
  8  2  1  0
  8  5  1  0
  9  1  2  0
 10  3  1  0
 10  8  1  0
 11  2  1  0
 12  1  1  0
M  END
>  <ID>  (1) 
conformer_0

$$$$
