
     RDKit          3D

 13 12  0  0  0  0  0  0  0  0999 V2000
   -9.5080    3.9730  -27.9204 C   0  0  0  0  0  0  0  0  0  0  0  0
   -8.9044    5.3167  -29.6650 C   0  0  0  0  0  0  0  0  0  0  0  0
   -7.5219    2.5258  -31.9194 P   0  0  0  0  0  0  0  0  0  0  0  0
   -7.7378    3.2121  -33.2512 O   0  0  0  0  0  0  0  0  0  0  0  0
  -10.5108    5.3706  -27.4407 O   0  0  0  0  0  0  0  0  0  0  0  0
   -8.6492    1.4385  -31.9125 O   0  0  0  0  0  0  0  0  0  0  0  0
   -6.2463    2.0016  -31.8213 O   0  0  0  0  0  0  0  0  0  0  0  0
   -7.3039    3.4521  -30.2136 O   0  0  0  0  0  0  0  0  0  0  0  0
   -9.1473    5.9035  -31.0723 O   0  0  0  0  0  0  0  0  0  0  0  0
   -7.8875    4.6419  -29.9727 C   0  0  0  0  0  0  0  0  0  0  0  0
  -10.4478    3.5160  -29.8422 O   0  0  0  0  0  0  0  0  0  0  0  0
   -8.3453    6.3521  -28.8499 O   0  0  0  0  0  0  0  0  0  0  0  0
  -10.3270    4.0800  -29.1106 C   0  0  0  0  0  0  0  0  0  0  0  0
  4  3  1  0
  5  1  1  0
  6  3  1  0
  7  3  1  0
  9  2  1  0
 10  2  1  0
 10  6  1  0
 10  8  1  0
 12  2  1  0
 13  1  1  0
 13  2  1  0
 13 11  1  0
M  END
>  <ID>  (1) 
conformer_0

$$$$
