
     RDKit          3D

 14 13  0  0  0  0  0  0  0  0999 V2000
  -10.0396    4.5165  -27.7646 C   0  0  0  0  0  0  0  0  0  0  0  0
   -8.2840    4.7232  -29.2155 C   0  0  0  0  0  0  0  0  0  0  0  0
   -7.4272    2.6419  -31.9177 P   0  0  0  0  0  0  0  0  0  0  0  0
   -7.8841    3.3153  -33.1729 O   0  0  0  0  0  0  0  0  0  0  0  0
   -9.8059    5.5818  -30.8456 O   0  0  0  0  0  0  0  0  0  0  0  0
   -6.0233    2.2204  -32.0147 O   0  0  0  0  0  0  0  0  0  0  0  0
   -7.2890    4.5473  -30.4191 C   0  0  0  0  0  0  0  0  0  0  0  0
   -8.2219    1.2056  -31.8309 O   0  0  0  0  0  0  0  0  0  0  0  0
  -10.9277    5.0773  -27.3065 O   0  0  0  0  0  0  0  0  0  0  0  0
   -7.5428    3.3246  -30.6555 O   0  0  0  0  0  0  0  0  0  0  0  0
   -8.4470    5.7628  -28.3043 O   0  0  0  0  0  0  0  0  0  0  0  0
  -10.5827    2.9779  -30.0152 O   0  0  0  0  0  0  0  0  0  0  0  0
   -9.4443    4.7444  -29.8019 C   0  0  0  0  0  0  0  0  0  0  0  0
  -10.5706    3.6449  -28.9923 C   0  0  0  0  0  0  0  0  0  0  0  0
  4  3  1  0
  6  3  1  0
  7  2  1  0
  8  7  1  0
  9  1  1  0
 10  3  1  0
 10  7  1  0
 11  2  1  0
 13  2  1  0
 13  5  1  0
 14  1  1  0
 14 12  1  0
 14 13  1  0
M  END
>  <ID>  (1) 
conformer_0

$$$$
