
     RDKit          3D

 15 14  0  0  0  0  0  0  0  0999 V2000
   -9.7374    4.4164  -27.9377 C   0  0  0  0  0  0  0  0  0  0  0  0
  -10.7232    3.5602  -28.8986 C   0  0  0  0  0  0  0  0  0  0  0  0
   -7.5513    2.6551  -31.9093 P   0  0  0  0  0  0  0  0  0  0  0  0
   -6.1519    2.1085  -31.7785 O   0  0  0  0  0  0  0  0  0  0  0  0
  -10.7484    5.1725  -27.3167 O   0  0  0  0  0  0  0  0  0  0  0  0
   -8.5048    1.2234  -32.1062 O   0  0  0  0  0  0  0  0  0  0  0  0
   -9.7603    4.2154  -31.5419 O   0  0  0  0  0  0  0  0  0  0  0  0
   -7.7679    3.3042  -33.1857 O   0  0  0  0  0  0  0  0  0  0  0  0
   -8.5883    6.1037  -28.1680 O   0  0  0  0  0  0  0  0  0  0  0  0
   -8.9886    3.8820  -29.9293 C   0  0  0  0  0  0  0  0  0  0  0  0
   -7.8908    3.1336  -30.8784 O   0  0  0  0  0  0  0  0  0  0  0  0
  -10.7482    3.0789  -29.5415 O   0  0  0  0  0  0  0  0  0  0  0  0
   -8.6958    6.0425  -30.4887 O   0  0  0  0  0  0  0  0  0  0  0  0
   -8.5572    5.4043  -29.2316 C   0  0  0  0  0  0  0  0  0  0  0  0
   -7.4089    4.4819  -30.4214 C   0  0  0  0  0  0  0  0  0  0  0  0
  2  1  1  0
  4  3  1  0
  5  1  1  0
  8  3  1  0
 10  6  1  0
 10  7  1  0
 11  3  1  0
 12  2  2  0
 14  9  1  0
 14 10  1  0
 14 13  1  0
 15  1  1  0
 15 10  1  0
 15 11  1  0
M  END
>  <ID>  (1) 
conformer_0

$$$$
