
     RDKit          3D

 12 11  0  0  0  0  0  0  0  0999 V2000
   -8.0527    4.7992  -29.9332 C   0  0  0  0  0  0  0  0  0  0  0  0
   -8.9732    4.8845  -29.3635 C   0  0  0  0  0  0  0  0  0  0  0  0
   -7.4214    2.6088  -31.8514 P   0  0  0  0  0  0  0  0  0  0  0  0
   -6.0482    1.9258  -31.9347 O   0  0  0  0  0  0  0  0  0  0  0  0
   -7.6625    3.4651  -30.7886 O   0  0  0  0  0  0  0  0  0  0  0  0
   -9.8880    4.9382  -31.1230 O   0  0  0  0  0  0  0  0  0  0  0  0
   -8.4670    1.3785  -31.9440 O   0  0  0  0  0  0  0  0  0  0  0  0
   -8.3731    6.3339  -28.5156 O   0  0  0  0  0  0  0  0  0  0  0  0
  -10.5825    4.9349  -27.1830 O   0  0  0  0  0  0  0  0  0  0  0  0
  -11.1134    3.2860  -29.2909 O   0  0  0  0  0  0  0  0  0  0  0  0
   -9.9553    4.2471  -28.5387 C   0  0  0  0  0  0  0  0  0  0  0  0
   -7.4626    3.1961  -33.0186 O   0  0  0  0  0  0  0  0  0  0  0  0
  2  1  1  0
  4  3  1  0
  5  1  1  0
  5  3  1  0
  6  2  1  0
  7  1  1  0
  8  2  1  0
 11  2  1  0
 11  9  1  0
 11 10  2  0
 12  3  1  0
M  END
>  <ID>  (1) 
conformer_0

$$$$
