
     RDKit          3D

 13 12  0  0  0  0  0  0  0  0999 V2000
   -9.2977    4.4666  -28.4756 C   0  0  0  0  0  0  0  0  0  0  0  0
   -8.8744    5.3601  -29.7040 C   0  0  0  0  0  0  0  0  0  0  0  0
   -6.0672    2.1708  -31.9517 O   0  0  0  0  0  0  0  0  0  0  0  0
   -7.4395    2.6751  -32.0747 P   0  0  0  0  0  0  0  0  0  0  0  0
   -8.4463    1.3626  -32.1608 O   0  0  0  0  0  0  0  0  0  0  0  0
   -7.5431    3.4084  -33.3215 O   0  0  0  0  0  0  0  0  0  0  0  0
   -8.3223    6.1439  -28.2435 O   0  0  0  0  0  0  0  0  0  0  0  0
  -11.2922    2.8014  -29.5318 O   0  0  0  0  0  0  0  0  0  0  0  0
  -10.7406    4.8154  -27.3064 O   0  0  0  0  0  0  0  0  0  0  0  0
   -9.7460    4.6547  -31.2222 O   0  0  0  0  0  0  0  0  0  0  0  0
  -10.3917    3.6707  -28.7566 C   0  0  0  0  0  0  0  0  0  0  0  0
   -7.8943    3.3778  -30.6599 O   0  0  0  0  0  0  0  0  0  0  0  0
   -7.6228    4.5861  -30.1619 C   0  0  0  0  0  0  0  0  0  0  0  0
  2  1  1  0
  4  3  1  0
  6  4  1  0
  7  2  1  0
 10  2  1  0
 11  1  1  0
 11  8  2  0
 11  9  1  0
 12  4  1  0
 13  2  1  0
 13  5  1  0
 13 12  1  0
M  END
>  <ID>  (1) 
conformer_0

$$$$
