
     RDKit          3D

 14 13  0  0  0  0  0  0  0  0999 V2000
  -10.2505    3.7870  -28.3947 C   0  0  0  0  0  0  0  0  0  0  0  0
   -9.5553    4.5069  -29.6999 C   0  0  0  0  0  0  0  0  0  0  0  0
   -7.7286    2.6125  -31.8609 P   0  0  0  0  0  5  0  0  0  0  0  0
   -7.5158    3.2558  -33.2948 O   0  0  0  0  0  0  0  0  0  0  0  0
  -10.8948    4.5539  -27.5517 O   0  0  0  0  0  0  0  0  0  0  0  0
   -8.4946    1.1966  -31.9671 O   0  0  0  0  0  0  0  0  0  0  0  0
   -6.1391    2.1006  -31.8682 O   0  0  0  0  0  0  0  0  0  0  0  0
   -9.9082    5.5591  -30.8982 O   0  0  0  0  0  0  0  0  0  0  0  0
  -11.0673    2.6583  -29.6466 O   0  0  0  0  0  0  0  0  0  0  0  0
   -8.6898    5.2536  -29.1328 C   0  0  0  0  0  0  0  0  0  0  0  0
   -7.9416    6.2867  -29.6179 O   0  0  0  0  0  0  0  0  0  0  0  0
   -7.7396    3.1667  -30.5589 O   0  0  0  0  0  0  0  0  0  0  0  0
   -9.5573    3.5153  -32.2198 O   0  0  0  0  0  0  0  0  0  0  0  0
   -7.6048    4.6456  -30.4885 C   0  0  0  0  0  0  0  0  0  0  0  0
  2  1  1  0
  4  3  1  0
  5  1  1  0
  7  3  1  0
  8  2  1  0
  9  1  1  0
 10  2  1  0
 11 10  1  0
 12  3  1  0
 13  3  1  0
 14  6  1  0
 14 10  1  0
 14 12  1  0
M  END
>  <ID>  (1) 
conformer_0

$$$$
