
     RDKit          3D

 14 13  0  0  0  0  0  0  0  0999 V2000
   -8.5082    4.8848  -29.7629 C   0  0  0  0  0  0  0  0  0  0  0  0
   -7.6405    4.6021  -30.6247 C   0  0  0  0  0  0  0  0  0  0  0  0
   -7.9451    3.2225  -33.2097 O   0  0  0  0  0  0  0  0  0  0  0  0
   -7.6432    2.6526  -31.9410 P   0  0  0  0  0  0  0  0  0  0  0  0
   -6.1016    2.0767  -31.9052 O   0  0  0  0  0  0  0  0  0  0  0  0
   -9.9208    5.1731  -31.0829 O   0  0  0  0  0  0  0  0  0  0  0  0
  -10.9610    4.9963  -27.1812 O   0  0  0  0  0  0  0  0  0  0  0  0
   -8.5291    1.1805  -31.8702 O   0  0  0  0  0  0  0  0  0  0  0  0
  -10.6550    3.0463  -29.7731 O   0  0  0  0  0  0  0  0  0  0  0  0
   -9.6650    4.1789  -29.4819 C   0  0  0  0  0  0  0  0  0  0  0  0
   -8.8486    5.5688  -27.9941 O   0  0  0  0  0  0  0  0  0  0  0  0
   -7.7868    3.2119  -30.9256 O   0  0  0  0  0  0  0  0  0  0  0  0
  -10.2812    4.0914  -27.8262 C   0  0  0  0  0  0  0  0  0  0  0  0
   -7.7200    6.2021  -29.8574 O   0  0  0  0  0  0  0  0  0  0  0  0
  2  1  1  0
  4  3  1  0
  5  4  1  0
  8  2  1  0
 10  1  1  0
 10  6  1  0
 10  9  1  0
 11  1  1  0
 12  2  1  0
 12  4  1  0
 13  7  1  0
 13 10  1  0
 14  1  1  0
M  END
>  <ID>  (1) 
conformer_0

$$$$
