
     RDKit          3D

 14 15  0  0  0  0  0  0  0  0999 V2000
   -8.1199    5.5338  -29.3873 C   0  0  0  0  0  0  0  0  0  0  0  0
   -9.3816    4.7912  -28.4021 C   0  0  0  0  0  0  0  0  0  0  0  0
   -7.4459    2.4673  -31.9773 P   0  0  0  0  0  0  0  0  0  0  0  0
   -7.6315    3.3500  -33.2824 O   0  0  0  0  0  0  0  0  0  0  0  0
   -8.7137    1.4427  -32.0757 O   0  0  0  0  0  0  0  0  0  0  0  0
  -10.5967    3.9825  -28.6769 C   0  0  0  0  0  0  0  0  0  0  0  0
   -7.4545    3.2259  -30.7041 O   0  0  0  0  0  0  0  0  0  0  0  0
   -9.2433    5.9456  -30.9389 O   0  0  0  0  0  0  0  0  0  0  0  0
   -6.1636    1.9204  -32.0985 O   0  0  0  0  0  0  0  0  0  0  0  0
  -10.7539    5.0327  -27.2578 O   0  0  0  0  0  0  0  0  0  0  0  0
   -8.1481    6.0883  -28.0949 O   0  0  0  0  0  0  0  0  0  0  0  0
  -11.1128    2.9668  -29.1728 O   0  0  0  0  0  0  0  0  0  0  0  0
   -7.4227    4.4505  -30.2703 C   0  0  0  0  0  0  0  0  0  0  0  0
   -9.3635    4.5279  -30.0261 C   0  0  0  0  0  0  0  0  0  0  0  0
  2  1  1  0
  4  3  1  0
  6  2  1  0
  7  3  1  0
  9  3  1  0
 10  6  1  0
 11  1  1  0
 12  6  1  0
 13  1  1  0
 13  5  1  0
 13  7  1  0
 14  1  1  0
 14  2  1  0
 14  6  1  0
 14  8  1  0
M  END
>  <ID>  (1) 
conformer_0

$$$$
