
     RDKit          3D

 13 12  0  0  0  0  0  0  0  0999 V2000
   -9.9947    4.3103  -27.9163 C   0  0  0  0  0  0  0  0  0  0  0  0
   -9.9924    3.9943  -29.3783 C   0  0  0  0  0  0  0  0  0  0  0  0
   -8.8842    4.6607  -30.0668 C   0  0  0  0  0  0  0  0  0  0  0  0
   -7.6164    2.5488  -31.9483 P   0  0  0  0  0  0  0  0  0  0  0  0
   -6.1603    2.0602  -31.9336 O   0  0  0  0  0  0  0  0  0  0  0  0
  -10.2233    5.5157  -30.7113 O   0  0  0  0  0  0  0  0  0  0  0  0
  -10.8108    5.3191  -27.5197 O   0  0  0  0  0  0  0  0  0  0  0  0
   -7.9856    5.9098  -28.7135 O   0  0  0  0  0  0  0  0  0  0  0  0
   -7.7209    3.2170  -30.5571 O   0  0  0  0  0  0  0  0  0  0  0  0
  -10.7577    2.6810  -30.2346 O   0  0  0  0  0  0  0  0  0  0  0  0
   -7.5891    3.2503  -33.2396 O   0  0  0  0  0  0  0  0  0  0  0  0
   -7.4381    4.5858  -30.2578 C   0  0  0  0  0  0  0  0  0  0  0  0
   -8.6608    1.6087  -31.7908 O   0  0  0  0  0  0  0  0  0  0  0  0
  2  1  1  0
  5  4  1  0
  6  3  1  0
  7  1  1  0
  8  3  1  0
 10  2  1  0
 11  4  1  0
 12  2  1  0
 12  3  1  0
 12  9  1  0
 13  3  1  0
 13  4  1  0
M  END
>  <ID>  (1) 
conformer_0

$$$$
