
     RDKit          3D

 13 12  0  0  0  0  0  0  0  0999 V2000
   -9.1530    5.1716  -29.1854 C   0  0  0  0  0  0  0  0  0  0  0  0
   -8.8126    4.7132  -30.2971 C   0  0  0  0  0  0  0  0  0  0  0  0
   -7.2941    2.5974  -31.9606 P   0  0  0  0  0  0  0  0  0  0  0  0
   -9.7675    5.6739  -31.0921 O   0  0  0  0  0  0  0  0  0  0  0  0
   -7.9048    3.2446  -33.1991 O   0  0  0  0  0  0  0  0  0  0  0  0
   -8.4613    6.2086  -28.5511 O   0  0  0  0  0  0  0  0  0  0  0  0
   -7.3815    4.4058  -29.7743 C   0  0  0  0  0  0  0  0  0  0  0  0
   -7.5927    3.2928  -30.4424 O   0  0  0  0  0  0  0  0  0  0  0  0
   -5.9739    2.2163  -32.0864 O   0  0  0  0  0  0  0  0  0  0  0  0
  -10.9380    4.9125  -27.2336 O   0  0  0  0  0  0  0  0  0  0  0  0
   -8.0735    1.3158  -31.7026 O   0  0  0  0  0  0  0  0  0  0  0  0
  -10.2187    3.9683  -27.9619 C   0  0  0  0  0  0  0  0  0  0  0  0
  -10.6136    3.6968  -29.2790 C   0  0  0  0  0  0  0  0  0  0  0  0
  2  1  1  0
  4  2  1  0
  5  3  1  0
  6  1  1  0
  7  2  1  0
  8  7  1  0
  9  3  1  0
 11  3  1  0
 11  7  1  0
 12  1  1  0
 12 10  1  0
 13 12  1  0
M  END
>  <ID>  (1) 
conformer_0

$$$$
