
     RDKit          3D

 12 11  0  0  0  0  0  0  0  0999 V2000
   -9.1513    4.7051  -29.3120 C   0  0  0  0  0  0  0  0  0  0  0  0
  -10.0834    4.0585  -28.6867 C   0  0  0  0  0  0  0  0  0  0  0  0
   -7.2349    2.5970  -31.8147 P   0  0  0  0  0  0  0  0  0  0  0  0
   -7.6087    3.3980  -33.1366 O   0  0  0  0  0  0  0  0  0  0  0  0
   -8.2045    1.2880  -31.8789 O   0  0  0  0  0  0  0  0  0  0  0  0
   -9.9583    5.2734  -30.8960 O   0  0  0  0  0  0  0  0  0  0  0  0
   -8.3565    6.2373  -28.6533 O   0  0  0  0  0  0  0  0  0  0  0  0
  -11.2497    2.8929  -29.7851 O   0  0  0  0  0  0  0  0  0  0  0  0
  -10.8471    4.8762  -27.4051 O   0  0  0  0  0  0  0  0  0  0  0  0
   -5.8860    2.2769  -31.8557 O   0  0  0  0  0  0  0  0  0  0  0  0
   -8.0519    4.7774  -30.0522 C   0  0  0  0  0  0  0  0  0  0  0  0
   -7.6414    3.2052  -30.6495 O   0  0  0  0  0  0  0  0  0  0  0  0
  2  1  1  0
  4  3  1  0
  6  1  1  0
  7  1  1  0
  8  2  2  0
  9  2  1  0
 10  3  1  0
 11  1  1  0
 11  5  1  0
 12  3  1  0
 12 11  1  0
M  END
>  <ID>  (1) 
conformer_0

$$$$
