
     RDKit          3D

 13 13  0  0  0  0  0  0  0  0999 V2000
   -8.5031    5.4252  -29.3705 C   0  0  0  0  0  0  0  0  0  0  0  0
   -9.4307    4.3460  -29.9745 C   0  0  0  0  0  0  0  0  0  0  0  0
   -7.6486    2.6881  -31.8773 P   0  0  0  0  0  0  0  0  0  0  0  0
   -8.5037    1.2959  -32.0428 O   0  0  0  0  0  0  0  0  0  0  0  0
   -7.7670    3.4194  -33.1542 O   0  0  0  0  0  0  0  0  0  0  0  0
  -10.7955    5.1493  -27.4118 O   0  0  0  0  0  0  0  0  0  0  0  0
   -6.1061    2.2408  -32.0695 O   0  0  0  0  0  0  0  0  0  0  0  0
   -9.7803    4.6585  -31.2714 O   0  0  0  0  0  0  0  0  0  0  0  0
   -7.2698    4.4461  -30.1829 C   0  0  0  0  0  0  0  0  0  0  0  0
   -7.9023    3.2740  -30.6161 O   0  0  0  0  0  0  0  0  0  0  0  0
   -8.3678    5.8584  -28.1172 O   0  0  0  0  0  0  0  0  0  0  0  0
   -9.4858    4.5048  -28.0876 C   0  0  0  0  0  0  0  0  0  0  0  0
  -10.5719    3.6127  -28.6494 C   0  0  0  0  0  0  0  0  0  0  0  0
  2  1  1  0
  4  2  1  0
  5  3  1  0
  7  3  1  0
  8  2  1  0
  9  1  1  0
 10  3  1  0
 10  9  1  0
 11  1  1  0
 12  1  1  0
 12  2  1  0
 12  6  1  0
 13 12  1  0
M  END
>  <ID>  (1) 
conformer_0

$$$$
