
     RDKit          3D

 12 11  0  0  0  0  0  0  0  0999 V2000
   -9.4452    4.6874  -29.7825 C   0  0  0  0  0  0  0  0  0  0  0  0
  -10.2221    3.8632  -28.2575 C   0  0  0  0  0  0  0  0  0  0  0  0
   -8.0533    3.3269  -32.9005 O   0  0  0  0  0  0  0  0  0  0  0  0
   -7.3293    2.6671  -31.7450 P   0  0  0  0  0  0  0  0  0  0  0  0
  -10.7330    5.3425  -27.5646 O   0  0  0  0  0  0  0  0  0  0  0  0
  -10.1167    5.3300  -31.1603 O   0  0  0  0  0  0  0  0  0  0  0  0
   -6.1425    2.1821  -31.8595 O   0  0  0  0  0  0  0  0  0  0  0  0
  -11.0336    3.2286  -29.6296 O   0  0  0  0  0  0  0  0  0  0  0  0
   -8.3030    1.2033  -31.8920 O   0  0  0  0  0  0  0  0  0  0  0  0
   -7.9873    4.3157  -30.0222 C   0  0  0  0  0  0  0  0  0  0  0  0
   -8.0736    6.0773  -30.6153 O   0  0  0  0  0  0  0  0  0  0  0  0
   -7.9527    2.9655  -30.4277 O   0  0  0  0  0  0  0  0  0  0  0  0
  2  1  1  0
  4  3  1  0
  5  2  1  0
  6  1  1  0
  7  4  1  0
  8  2  1  0
 10  1  1  0
 10  9  1  0
 11 10  1  0
 12  4  1  0
 12 10  1  0
M  END
>  <ID>  (1) 
conformer_0

$$$$
