
     RDKit          3D

 14 13  0  0  0  0  0  0  0  0999 V2000
   -9.9285    4.4066  -27.9417 C   0  0  0  0  0  0  0  0  0  0  0  0
   -8.8076    5.5612  -29.2084 C   0  0  0  0  0  0  0  0  0  0  0  0
   -6.0816    2.1314  -31.9122 O   0  0  0  0  0  0  0  0  0  0  0  0
   -7.5625    2.5325  -31.8850 P   0  0  0  0  0  0  0  0  0  0  0  0
   -7.7814    3.2974  -33.2325 O   0  0  0  0  0  0  0  0  0  0  0  0
   -8.5822    1.2373  -32.0891 O   0  0  0  0  0  0  0  0  0  0  0  0
   -9.6821    5.5867  -30.9107 O   0  0  0  0  0  0  0  0  0  0  0  0
  -10.4335    5.3987  -27.2284 O   0  0  0  0  0  0  0  0  0  0  0  0
  -10.9011    2.9419  -29.2867 O   0  0  0  0  0  0  0  0  0  0  0  0
   -8.1793    6.3062  -28.6619 O   0  0  0  0  0  0  0  0  0  0  0  0
   -7.2967    4.3643  -30.0557 C   0  0  0  0  0  0  0  0  0  0  0  0
   -7.9764    3.1706  -30.7043 O   0  0  0  0  0  0  0  0  0  0  0  0
   -8.7682    4.3173  -30.1350 C   0  0  0  0  0  0  0  0  0  0  0  0
  -10.4364    3.9963  -29.2596 C   0  0  0  0  0  0  0  0  0  0  0  0
  2  1  1  0
  4  3  1  0
  5  4  1  0
  8  1  1  0
 10  2  1  0
 11  2  1  0
 12  4  1  0
 13  6  1  0
 13  7  1  0
 13 11  1  0
 13 12  1  0
 14  1  1  0
 14  9  1  0
M  END
>  <ID>  (1) 
conformer_0

$$$$
