
     RDKit          3D

 13 12  0  0  0  0  0  0  0  0999 V2000
   -8.8447    5.2331  -29.1923 C   0  0  0  0  0  0  0  0  0  0  0  0
   -8.0406    4.3860  -30.0611 C   0  0  0  0  0  0  0  0  0  0  0  0
   -7.4632    2.5927  -31.9037 P   0  0  0  0  0  0  0  0  0  0  0  0
   -7.5648    3.4422  -33.2182 O   0  0  0  0  0  0  0  0  0  0  0  0
  -10.9760    3.0562  -29.3485 O   0  0  0  0  0  0  0  0  0  0  0  0
   -7.8303    3.2813  -30.8089 O   0  0  0  0  0  0  0  0  0  0  0  0
   -6.3001    1.8647  -31.7750 O   0  0  0  0  0  0  0  0  0  0  0  0
   -9.5796    5.3357  -30.9314 O   0  0  0  0  0  0  0  0  0  0  0  0
  -10.9235    5.3693  -27.1703 O   0  0  0  0  0  0  0  0  0  0  0  0
   -8.3110    6.1160  -28.4859 O   0  0  0  0  0  0  0  0  0  0  0  0
   -8.7599    1.5954  -32.0612 O   0  0  0  0  0  0  0  0  0  0  0  0
   -9.9832    4.1512  -29.3973 C   0  0  0  0  0  0  0  0  0  0  0  0
  -10.4748    4.4643  -27.6917 C   0  0  0  0  0  0  0  0  0  0  0  0
  2  1  1  0
  4  3  1  0
  6  2  1  0
  6  3  1  0
  7  3  1  0
  8  1  1  0
 10  1  1  0
 11  2  1  0
 12  1  1  0
 12  5  1  0
 13  9  1  0
 13 12  1  0
M  END
>  <ID>  (1) 
conformer_0

$$$$
