
     RDKit          3D

 13 12  0  0  0  0  0  0  0  0999 V2000
   -9.5629    4.6240  -28.5129 C   0  0  0  0  0  0  0  0  0  0  0  0
   -8.7127    5.1625  -29.6928 C   0  0  0  0  0  0  0  0  0  0  0  0
   -7.6074    2.6210  -31.7854 P   0  0  0  0  0  0  0  0  0  0  0  0
   -7.9099    3.1684  -33.1551 O   0  0  0  0  0  0  0  0  0  0  0  0
   -8.3268    1.2704  -31.6936 O   0  0  0  0  0  0  0  0  0  0  0  0
   -9.6836    5.6228  -30.9556 O   0  0  0  0  0  0  0  0  0  0  0  0
   -6.0419    2.2475  -32.0216 O   0  0  0  0  0  0  0  0  0  0  0  0
   -7.5509    3.4176  -30.5354 O   0  0  0  0  0  0  0  0  0  0  0  0
  -10.6733    5.0539  -27.2060 O   0  0  0  0  0  0  0  0  0  0  0  0
   -7.7564    4.6909  -30.1057 C   0  0  0  0  0  0  0  0  0  0  0  0
  -11.0110    2.8514  -29.4206 O   0  0  0  0  0  0  0  0  0  0  0  0
   -8.5605    6.2092  -28.4358 O   0  0  0  0  0  0  0  0  0  0  0  0
  -10.3883    3.9708  -29.0742 C   0  0  0  0  0  0  0  0  0  0  0  0
  2  1  1  0
  4  3  1  0
  6  2  1  0
  7  3  1  0
  8  3  1  0
  9  1  1  0
 10  2  1  0
 10  5  1  0
 10  8  1  0
 12  2  1  0
 13  1  1  0
 13 11  1  0
M  END
>  <ID>  (1) 
conformer_0

$$$$
