
     RDKit          3D

 12 11  0  0  0  0  0  0  0  0999 V2000
  -10.3664    4.0227  -28.8568 C   0  0  0  0  0  0  0  0  0  0  0  0
   -9.3038    4.4817  -29.3076 C   0  0  0  0  0  0  0  0  0  0  0  0
   -7.4432    3.5986  -33.3711 O   0  0  0  0  0  0  0  0  0  0  0  0
   -7.3025    2.6580  -32.0629 P   0  0  0  0  0  0  0  0  0  0  0  0
   -6.1143    1.9294  -31.9838 O   0  0  0  0  0  0  0  0  0  0  0  0
   -8.0252    5.4921  -28.1100 O   0  0  0  0  0  0  0  0  0  0  0  0
   -7.1478    3.5666  -30.9035 O   0  0  0  0  0  0  0  0  0  0  0  0
   -9.7743    5.1211  -31.1389 O   0  0  0  0  0  0  0  0  0  0  0  0
  -10.6326    5.0807  -27.1037 O   0  0  0  0  0  0  0  0  0  0  0  0
   -8.0147    4.5562  -29.9039 C   0  0  0  0  0  0  0  0  0  0  0  0
   -8.9500    2.1380  -32.2601 O   0  0  0  0  0  0  0  0  0  0  0  0
  -11.0684    3.2115  -29.7308 O   0  0  0  0  0  0  0  0  0  0  0  0
  2  1  1  0
  4  3  1  0
  5  4  1  0
  6  2  1  0
  7  4  1  0
  8  2  1  0
  9  1  1  0
 10  2  1  0
 10  7  1  0
 11 10  1  0
 12  1  2  0
M  END
>  <ID>  (1) 
conformer_0

$$$$
