
     RDKit          3D

 13 12  0  0  0  0  0  0  0  0999 V2000
  -10.4329    3.9918  -28.6042 C   0  0  0  0  0  0  0  0  0  0  0  0
   -9.6381    4.7353  -29.7343 C   0  0  0  0  0  0  0  0  0  0  0  0
   -7.5403    2.5226  -31.8174 P   0  0  0  0  0  0  0  0  0  0  0  0
   -7.8886    3.2108  -33.0887 O   0  0  0  0  0  0  0  0  0  0  0  0
   -8.1937    3.1508  -30.6119 O   0  0  0  0  0  0  0  0  0  0  0  0
   -6.2136    1.9762  -31.7665 O   0  0  0  0  0  0  0  0  0  0  0  0
   -8.0421    6.1542  -29.0230 O   0  0  0  0  0  0  0  0  0  0  0  0
  -11.2133    3.2532  -29.3135 O   0  0  0  0  0  0  0  0  0  0  0  0
   -9.8631    5.4021  -30.8673 O   0  0  0  0  0  0  0  0  0  0  0  0
   -8.3544    4.9004  -29.3073 C   0  0  0  0  0  0  0  0  0  0  0  0
  -10.7858    5.2184  -28.0150 O   0  0  0  0  0  0  0  0  0  0  0  0
   -8.4575    1.2167  -31.7326 O   0  0  0  0  0  0  0  0  0  0  0  0
   -7.2579    4.2299  -30.2171 C   0  0  0  0  0  0  0  0  0  0  0  0
  2  1  1  0
  4  3  1  0
  5  3  1  0
  6  3  1  0
  8  1  1  0
  9  2  1  0
 10  2  1  0
 10  7  1  0
 11  1  1  0
 13  5  1  0
 13 10  1  0
 13 12  1  0
M  END
>  <ID>  (1) 
conformer_0

$$$$
