
     RDKit          3D

 15 15  0  0  0  0  0  0  0  0999 V2000
   -9.9454    3.9896  -27.8416 C   0  0  0  0  0  0  0  0  0  0  0  0
  -10.3437    4.4838  -29.4889 C   0  0  0  0  0  0  0  0  0  0  0  0
   -7.5050    2.5635  -32.0754 P   0  0  0  0  0  0  0  0  0  0  0  0
   -7.7151    3.3782  -33.3391 O   0  0  0  0  0  0  0  0  0  0  0  0
  -10.2933    5.5278  -30.9452 O   0  0  0  0  0  0  0  0  0  0  0  0
   -8.6010    1.2681  -32.0792 O   0  0  0  0  0  0  0  0  0  0  0  0
   -6.1506    1.9710  -32.0316 O   0  0  0  0  0  0  0  0  0  0  0  0
  -10.9029    3.0783  -29.5035 O   0  0  0  0  0  0  0  0  0  0  0  0
  -10.7204    5.0452  -27.6232 O   0  0  0  0  0  0  0  0  0  0  0  0
   -8.5507    4.9087  -28.9380 C   0  0  0  0  0  0  0  0  0  0  0  0
   -7.6164    3.1698  -31.0309 O   0  0  0  0  0  0  0  0  0  0  0  0
   -8.0759    3.8124  -28.5529 O   0  0  0  0  0  0  0  0  0  0  0  0
   -8.4748    6.1635  -29.8141 O   0  0  0  0  0  0  0  0  0  0  0  0
   -8.5357    4.8196  -30.3759 C   0  0  0  0  0  0  0  0  0  0  0  0
   -6.9442    4.0110  -30.0181 C   0  0  0  0  0  0  0  0  0  0  0  0
  2  1  1  0
  4  3  1  0
  5  2  1  0
  7  3  1  0
  8  2  1  0
  9  1  1  0
 10  2  1  0
 11  3  1  0
 12 10  1  0
 14 10  1  0
 14 13  1  0
 15  6  1  0
 15 11  1  0
 15 12  1  0
 15 14  1  0
M  END
>  <ID>  (1) 
conformer_0

$$$$
