
     RDKit          3D

 12 11  0  0  0  0  0  0  0  0999 V2000
   -7.9463    4.3859  -30.0984 C   0  0  0  0  0  0  0  0  0  0  0  0
   -9.1249    4.7005  -29.5814 C   0  0  0  0  0  0  0  0  0  0  0  0
   -7.2904    2.6157  -31.8267 P   0  0  0  0  0  0  0  0  0  0  0  0
   -7.9292    3.2398  -33.0932 O   0  0  0  0  0  0  0  0  0  0  0  0
   -9.8087    4.8628  -31.2369 O   0  0  0  0  0  0  0  0  0  0  0  0
  -11.0699    3.2404  -29.4466 O   0  0  0  0  0  0  0  0  0  0  0  0
   -7.6348    1.2024  -31.5200 O   0  0  0  0  0  0  0  0  0  0  0  0
  -10.6764    5.1573  -27.1741 O   0  0  0  0  0  0  0  0  0  0  0  0
   -8.6658    6.1898  -29.0057 O   0  0  0  0  0  0  0  0  0  0  0  0
   -5.9123    2.5814  -31.8886 O   0  0  0  0  0  0  0  0  0  0  0  0
  -10.0675    4.2804  -28.6177 C   0  0  0  0  0  0  0  0  0  0  0  0
   -7.8849    3.3927  -30.9246 O   0  0  0  0  0  0  0  0  0  0  0  0
  2  1  1  0
  4  3  1  0
  5  2  1  0
  7  1  1  0
  9  2  1  0
 10  3  1  0
 11  2  1  0
 11  6  2  0
 11  8  1  0
 12  1  1  0
 12  3  1  0
M  END
>  <ID>  (1) 
conformer_0

$$$$
