
     RDKit          3D

 12 11  0  0  0  0  0  0  0  0999 V2000
   -8.2608    4.4469  -30.0035 C   0  0  0  0  0  0  0  0  0  0  0  0
   -9.1591    4.6945  -29.5469 C   0  0  0  0  0  0  0  0  0  0  0  0
   -7.4826    2.3899  -31.8409 P   0  0  0  0  0  0  0  0  0  0  0  0
   -6.0434    2.1715  -31.8304 O   0  0  0  0  0  0  0  0  0  0  0  0
  -10.7373    5.3465  -26.9636 O   0  0  0  0  0  0  0  0  0  0  0  0
   -8.5451    1.1219  -32.0935 O   0  0  0  0  0  0  0  0  0  0  0  0
   -8.3982    6.0853  -28.1508 O   0  0  0  0  0  0  0  0  0  0  0  0
   -9.8633    4.9238  -31.4094 O   0  0  0  0  0  0  0  0  0  0  0  0
  -10.0439    4.3082  -28.2819 C   0  0  0  0  0  0  0  0  0  0  0  0
   -7.5201    3.2095  -33.0958 O   0  0  0  0  0  0  0  0  0  0  0  0
   -8.0837    2.7549  -30.7701 O   0  0  0  0  0  0  0  0  0  0  0  0
   -8.2407    6.2077  -30.6173 O   0  0  0  0  0  0  0  0  0  0  0  0
  2  1  1  0
  4  3  1  0
  6  1  1  0
  7  2  1  0
  8  2  1  0
  9  2  1  0
  9  5  1  0
 10  3  1  0
 11  1  1  0
 11  3  1  0
 12  1  1  0
M  END
>  <ID>  (1) 
conformer_0

$$$$
