
     RDKit          3D

 15 14  0  0  0  0  0  0  0  0999 V2000
   -8.7580    4.9013  -29.3931 C   0  0  0  0  0  0  0  0  0  0  0  0
  -10.0692    3.8599  -29.7074 C   0  0  0  0  0  0  0  0  0  0  0  0
   -7.7184    4.6377  -29.8873 C   0  0  0  0  0  0  0  0  0  0  0  0
   -7.2827    2.6764  -31.7672 P   0  0  0  0  0  0  0  0  0  0  0  0
   -7.6077    3.4001  -30.5796 O   0  0  0  0  0  0  0  0  0  0  0  0
   -5.9968    2.0866  -31.7847 O   0  0  0  0  0  0  0  0  0  0  0  0
   -8.3522    1.3823  -31.8905 O   0  0  0  0  0  0  0  0  0  0  0  0
  -10.9568    2.7979  -29.6298 O   0  0  0  0  0  0  0  0  0  0  0  0
  -10.8020    5.4209  -30.2759 O   0  0  0  0  0  0  0  0  0  0  0  0
  -10.8088    5.1637  -27.6614 O   0  0  0  0  0  0  0  0  0  0  0  0
   -7.9204    5.9204  -28.2619 O   0  0  0  0  0  0  0  0  0  0  0  0
   -7.4823    3.2983  -33.1021 O   0  0  0  0  0  0  0  0  0  0  0  0
   -9.8133    3.8258  -31.8535 O   0  0  0  0  0  0  0  0  0  0  0  0
   -9.8355    4.3761  -28.0603 C   0  0  0  0  0  0  0  0  0  0  0  0
   -8.6430    6.0552  -30.5736 O   0  0  0  0  0  0  0  0  0  0  0  0
  3  1  1  0
  5  3  1  0
  5  4  1  0
  6  4  1  0
  7  2  1  0
  8  2  1  0
  9  2  1  0
 11  1  1  0
 12  4  1  0
 13  2  1  0
 14  1  1  0
 14  8  1  0
 14 10  1  0
 15  1  1  0
M  END
>  <ID>  (1) 
conformer_0

$$$$
