
     RDKit          3D

 14 13  0  0  0  0  0  0  0  0999 V2000
   -9.9778    4.5648  -27.6902 C   0  0  0  0  0  0  0  0  0  0  0  0
   -8.9736    4.4900  -30.2481 C   0  0  0  0  0  0  0  0  0  0  0  0
   -7.6365    3.5274  -33.2569 O   0  0  0  0  0  0  0  0  0  0  0  0
   -7.6136    2.7306  -31.8226 P   0  0  0  0  0  0  0  0  0  0  0  0
   -9.9383    5.2734  -30.9304 O   0  0  0  0  0  0  0  0  0  0  0  0
   -8.0570    3.4652  -30.9186 O   0  0  0  0  0  0  0  0  0  0  0  0
  -10.8119    5.1493  -27.1414 O   0  0  0  0  0  0  0  0  0  0  0  0
   -8.2775    6.1995  -28.4544 O   0  0  0  0  0  0  0  0  0  0  0  0
   -6.0672    2.4160  -31.6529 O   0  0  0  0  0  0  0  0  0  0  0  0
   -7.1733    4.6361  -30.2668 C   0  0  0  0  0  0  0  0  0  0  0  0
   -8.3741    1.3374  -32.0678 O   0  0  0  0  0  0  0  0  0  0  0  0
  -10.2265    3.0097  -30.2473 O   0  0  0  0  0  0  0  0  0  0  0  0
  -10.3734    4.1689  -29.2078 C   0  0  0  0  0  0  0  0  0  0  0  0
   -8.5225    5.2156  -28.9655 C   0  0  0  0  0  0  0  0  0  0  0  0
  4  3  1  0
  5  2  1  0
  6  2  1  0
  6  4  1  0
  7  1  1  0
  9  4  1  0
 11  2  1  0
 13  1  1  0
 13 12  1  0
 14  1  1  0
 14  2  1  0
 14  8  1  0
 14 10  1  0
M  END
>  <ID>  (1) 
conformer_0

$$$$
