
     RDKit          3D

 13 12  0  0  0  0  0  0  0  0999 V2000
   -8.5430    5.1782  -29.9724 C   0  0  0  0  0  0  0  0  0  0  0  0
   -7.3499    4.2903  -30.0676 C   0  0  0  0  0  0  0  0  0  0  0  0
   -7.7524    2.5305  -31.9993 P   0  0  0  0  0  0  0  0  0  0  0  0
   -7.7691    3.2444  -33.2904 O   0  0  0  0  0  0  0  0  0  0  0  0
  -10.1893    5.6406  -31.1208 O   0  0  0  0  0  0  0  0  0  0  0  0
   -9.5798    4.8444  -29.5717 C   0  0  0  0  0  0  0  0  0  0  0  0
  -10.6959    4.8369  -27.3144 O   0  0  0  0  0  0  0  0  0  0  0  0
   -8.1251    6.3304  -28.9451 O   0  0  0  0  0  0  0  0  0  0  0  0
   -8.4284    1.1581  -31.8530 O   0  0  0  0  0  0  0  0  0  0  0  0
  -10.8546    2.7827  -28.8490 O   0  0  0  0  0  0  0  0  0  0  0  0
   -8.0027    3.2900  -30.9366 O   0  0  0  0  0  0  0  0  0  0  0  0
   -6.1435    2.2876  -32.2001 O   0  0  0  0  0  0  0  0  0  0  0  0
  -10.1280    3.9515  -28.2859 C   0  0  0  0  0  0  0  0  0  0  0  0
  2  1  1  0
  4  3  1  0
  6  1  1  0
  6  5  1  0
  8  1  1  0
  9  2  1  0
 11  2  1  0
 11  3  1  0
 12  3  1  0
 13  6  1  0
 13  7  1  0
 13 10  1  0
M  END
>  <ID>  (1) 
conformer_0

$$$$
