
     RDKit          3D

 13 13  0  0  0  0  0  0  0  0999 V2000
   -9.8340    4.5015  -29.1164 C   0  0  0  0  0  0  0  0  0  0  0  0
   -8.6745    5.1749  -29.5499 C   0  0  0  0  0  0  0  0  0  0  0  0
   -7.5074    2.7152  -31.8360 P   0  0  0  0  0  0  0  0  0  0  0  0
   -7.6795    3.4515  -33.2486 O   0  0  0  0  0  0  0  0  0  0  0  0
   -8.5618    1.4228  -32.0482 O   0  0  0  0  0  0  0  0  0  0  0  0
   -6.1606    2.1376  -31.7353 O   0  0  0  0  0  0  0  0  0  0  0  0
  -10.9990    5.1491  -27.1951 O   0  0  0  0  0  0  0  0  0  0  0  0
   -7.9149    3.3929  -30.5596 O   0  0  0  0  0  0  0  0  0  0  0  0
  -10.6727    3.4243  -29.0545 O   0  0  0  0  0  0  0  0  0  0  0  0
   -9.5961    5.0057  -31.1978 O   0  0  0  0  0  0  0  0  0  0  0  0
   -9.8776    4.3027  -27.6519 C   0  0  0  0  0  0  0  0  0  0  0  0
   -8.7693    6.3744  -28.7392 O   0  0  0  0  0  0  0  0  0  0  0  0
   -7.5719    4.6503  -30.1421 C   0  0  0  0  0  0  0  0  0  0  0  0
  2  1  1  0
  4  3  1  0
  6  3  1  0
  8  3  1  0
  9  1  1  0
 10  2  1  0
 11  1  1  0
 11  7  1  0
 11  9  1  0
 12  2  1  0
 13  2  1  0
 13  5  1  0
 13  8  1  0
M  END
>  <ID>  (1) 
conformer_0

$$$$
