
     RDKit          3D

 12 11  0  0  0  0  0  0  0  0999 V2000
   -8.9020    5.1660  -29.7887 C   0  0  0  0  0  0  0  0  0  0  0  0
  -10.0122    4.2739  -29.4363 C   0  0  0  0  0  0  0  0  0  0  0  0
   -7.7662    3.2309  -33.0919 O   0  0  0  0  0  0  0  0  0  0  0  0
   -7.5827    2.5078  -31.7198 P   0  0  0  0  0  0  0  0  0  0  0  0
  -10.8404    5.2407  -27.2279 O   0  0  0  0  0  0  0  0  0  0  0  0
   -8.6563    1.2139  -32.0793 O   0  0  0  0  0  0  0  0  0  0  0  0
   -6.3931    1.8961  -31.5233 O   0  0  0  0  0  0  0  0  0  0  0  0
   -8.2213    6.2559  -28.9446 O   0  0  0  0  0  0  0  0  0  0  0  0
   -9.7640    5.3137  -31.1580 O   0  0  0  0  0  0  0  0  0  0  0  0
   -7.7204    4.6849  -30.4050 C   0  0  0  0  0  0  0  0  0  0  0  0
   -7.9277    3.2777  -30.6177 O   0  0  0  0  0  0  0  0  0  0  0  0
  -10.2795    3.9963  -27.8371 C   0  0  0  0  0  0  0  0  0  0  0  0
  2  1  1  0
  4  3  1  0
  7  4  1  0
  8  1  1  0
  9  1  1  0
 10  1  1  0
 10  6  1  0
 11  4  1  0
 11 10  1  0
 12  2  1  0
 12  5  1  0
M  END
>  <ID>  (1) 
conformer_0

$$$$
