
     RDKit          3D

 14 15  0  0  0  0  0  0  0  0999 V2000
  -10.1657    4.1479  -28.0340 C   0  0  0  0  0  0  0  0  0  0  0  0
  -10.0142    4.2748  -29.6547 C   0  0  0  0  0  0  0  0  0  0  0  0
   -7.7402    3.3548  -33.2349 O   0  0  0  0  0  0  0  0  0  0  0  0
   -7.5399    2.7282  -31.8481 P   0  0  0  0  0  0  0  0  0  0  0  0
  -10.8988    2.9407  -29.4015 O   0  0  0  0  0  0  0  0  0  0  0  0
   -8.7599    1.5212  -31.9913 O   0  0  0  0  0  0  0  0  0  0  0  0
   -8.2765    6.2115  -28.4233 O   0  0  0  0  0  0  0  0  0  0  0  0
   -6.2205    2.0404  -31.8767 O   0  0  0  0  0  0  0  0  0  0  0  0
   -7.5865    3.5098  -30.7666 O   0  0  0  0  0  0  0  0  0  0  0  0
   -8.6957    5.2340  -30.2691 C   0  0  0  0  0  0  0  0  0  0  0  0
  -10.7144    5.0261  -27.1271 O   0  0  0  0  0  0  0  0  0  0  0  0
   -9.6166    5.2477  -31.2178 O   0  0  0  0  0  0  0  0  0  0  0  0
   -7.3438    4.3638  -29.9359 C   0  0  0  0  0  0  0  0  0  0  0  0
   -8.8979    5.3005  -28.6384 C   0  0  0  0  0  0  0  0  0  0  0  0
  2  1  1  0
  4  3  1  0
  5  2  1  0
  8  4  1  0
  9  4  1  0
 10  2  1  0
 11  1  1  0
 12 10  1  0
 13  6  1  0
 13  9  1  0
 13 10  1  0
 14  1  1  0
 14  2  1  0
 14  7  1  0
 14 10  1  0
M  END
>  <ID>  (1) 
conformer_0

$$$$
