
     RDKit          3D

 13 13  0  0  0  0  0  0  0  0999 V2000
   -8.9967    4.3287  -30.2328 C   0  0  0  0  0  0  0  0  0  0  0  0
   -7.4388    4.5106  -29.7509 C   0  0  0  0  0  0  0  0  0  0  0  0
   -7.8092    3.3607  -33.2857 O   0  0  0  0  0  0  0  0  0  0  0  0
   -7.6411    2.6426  -31.9464 P   0  0  0  0  0  0  0  0  0  0  0  0
   -9.8276    5.3089  -30.9050 O   0  0  0  0  0  0  0  0  0  0  0  0
  -11.0277    5.0214  -27.1830 O   0  0  0  0  0  0  0  0  0  0  0  0
   -7.6963    3.3841  -30.7275 O   0  0  0  0  0  0  0  0  0  0  0  0
   -6.2412    2.1393  -32.0874 O   0  0  0  0  0  0  0  0  0  0  0  0
   -8.6646    1.3744  -32.0087 O   0  0  0  0  0  0  0  0  0  0  0  0
  -10.3365    3.9106  -28.9973 C   0  0  0  0  0  0  0  0  0  0  0  0
  -10.7444    3.0121  -29.7776 O   0  0  0  0  0  0  0  0  0  0  0  0
   -8.7417    5.5343  -28.9723 C   0  0  0  0  0  0  0  0  0  0  0  0
   -9.9644    4.5364  -27.7003 C   0  0  0  0  0  0  0  0  0  0  0  0
  2  1  1  0
  4  3  1  0
  5  1  1  0
  7  2  1  0
  7  4  1  0
  8  4  1  0
  9  1  1  0
 11 10  1  0
 12  1  1  0
 12  2  1  0
 13  6  1  0
 13 10  1  0
 13 12  1  0
M  END
>  <ID>  (1) 
conformer_0

$$$$
