
     RDKit          3D

 15 14  0  0  0  0  0  0  0  0999 V2000
   -9.1391    5.3208  -29.9285 C   0  0  0  0  0  0  0  0  0  0  0  0
   -8.0180    4.7890  -29.4409 C   0  0  0  0  0  0  0  0  0  0  0  0
   -7.3741    2.4102  -31.7988 P   0  0  0  0  0  0  0  0  0  0  0  0
   -7.9225    3.1997  -32.9907 O   0  0  0  0  0  0  0  0  0  0  0  0
  -10.9851    4.9148  -27.3758 O   0  0  0  0  0  0  0  0  0  0  0  0
  -11.1745    2.9214  -29.7407 O   0  0  0  0  0  0  0  0  0  0  0  0
   -9.9119    4.6359  -31.4727 O   0  0  0  0  0  0  0  0  0  0  0  0
   -7.9908    1.0591  -31.6642 O   0  0  0  0  0  0  0  0  0  0  0  0
   -7.0711    4.1839  -30.3746 C   0  0  0  0  0  0  0  0  0  0  0  0
   -5.9054    2.2568  -32.0363 O   0  0  0  0  0  0  0  0  0  0  0  0
   -8.0665    6.3707  -28.5787 O   0  0  0  0  0  0  0  0  0  0  0  0
   -7.8030    3.0380  -30.4585 O   0  0  0  0  0  0  0  0  0  0  0  0
   -9.8329    4.3015  -27.7480 C   0  0  0  0  0  0  0  0  0  0  0  0
   -8.5308    6.2481  -30.8319 O   0  0  0  0  0  0  0  0  0  0  0  0
  -10.4166    3.9638  -29.3233 C   0  0  0  0  0  0  0  0  0  0  0  0
  2  1  1  0
  4  3  1  0
  7  1  1  0
  8  3  1  0
  9  2  1  0
  9  8  1  0
 10  3  1  0
 11  2  1  0
 12  9  1  0
 13  5  1  0
 14  1  1  0
 15  1  1  0
 15  6  1  0
 15 13  1  0
M  END
>  <ID>  (1) 
conformer_0

$$$$
