
     RDKit          3D

 15 14  0  0  0  0  0  0  0  0999 V2000
   -9.6392    4.8130  -30.2365 C   0  0  0  0  0  0  0  0  0  0  0  0
  -10.3199    3.5027  -28.8405 C   0  0  0  0  0  0  0  0  0  0  0  0
   -7.4661    3.4423  -33.3064 O   0  0  0  0  0  0  0  0  0  0  0  0
   -7.4126    2.4961  -31.8981 P   0  0  0  0  0  0  0  0  0  0  0  0
  -10.0956    5.8898  -31.1944 O   0  0  0  0  0  0  0  0  0  0  0  0
   -6.2519    1.9660  -31.3994 O   0  0  0  0  0  0  0  0  0  0  0  0
  -11.1011    4.7924  -27.0462 O   0  0  0  0  0  0  0  0  0  0  0  0
   -8.3470    1.2131  -32.2560 O   0  0  0  0  0  0  0  0  0  0  0  0
  -10.8076    3.1484  -29.7603 O   0  0  0  0  0  0  0  0  0  0  0  0
   -8.5094    5.0675  -29.3648 C   0  0  0  0  0  0  0  0  0  0  0  0
   -7.5991    5.9343  -29.9594 O   0  0  0  0  0  0  0  0  0  0  0  0
   -8.1741    3.0826  -30.7365 O   0  0  0  0  0  0  0  0  0  0  0  0
   -9.8599    4.5181  -27.6819 C   0  0  0  0  0  0  0  0  0  0  0  0
   -9.4780    3.9673  -32.0669 O   0  0  0  0  0  0  0  0  0  0  0  0
   -7.7093    4.2283  -30.4233 C   0  0  0  0  0  0  0  0  0  0  0  0
  4  3  1  0
  5  1  1  0
  6  4  1  0
  9  2  1  0
 10  1  1  0
 11 10  1  0
 12  4  1  0
 13  2  1  0
 13  7  1  0
 13 10  1  0
 14  1  1  0
 15  8  1  0
 15 10  1  0
 15 12  1  0
M  END
>  <ID>  (1) 
conformer_0

$$$$
