
     RDKit          3D

 14 13  0  0  0  0  0  0  0  0999 V2000
   -8.6773    5.1690  -30.5214 C   0  0  0  0  0  0  0  0  0  0  0  0
   -7.4828    4.3131  -30.2753 C   0  0  0  0  0  0  0  0  0  0  0  0
   -7.6993    2.4728  -31.9275 P   0  0  0  0  0  0  0  0  0  0  0  0
   -7.8593    3.2130  -33.2822 O   0  0  0  0  0  0  0  0  0  0  0  0
   -9.8238    5.4969  -31.2125 O   0  0  0  0  0  0  0  0  0  0  0  0
   -8.7194    1.2760  -31.8226 O   0  0  0  0  0  0  0  0  0  0  0  0
  -10.9495    3.3500  -29.2822 O   0  0  0  0  0  0  0  0  0  0  0  0
   -6.2238    1.9771  -32.1138 O   0  0  0  0  0  0  0  0  0  0  0  0
   -8.1495    6.1257  -28.5834 O   0  0  0  0  0  0  0  0  0  0  0  0
   -8.9604    5.3126  -28.9187 C   0  0  0  0  0  0  0  0  0  0  0  0
  -10.2354    5.5016  -27.2341 O   0  0  0  0  0  0  0  0  0  0  0  0
   -7.7697    3.2537  -30.8974 O   0  0  0  0  0  0  0  0  0  0  0  0
   -9.9631    4.1412  -29.4015 C   0  0  0  0  0  0  0  0  0  0  0  0
  -10.1306    4.1537  -27.5731 C   0  0  0  0  0  0  0  0  0  0  0  0
  2  1  1  0
  4  3  1  0
  5  1  1  0
  6  2  1  0
  8  3  1  0
 10  1  1  0
 10  9  1  0
 12  2  1  0
 12  3  1  0
 13  7  1  0
 13 10  1  0
 14 11  1  0
 14 13  1  0
M  END
>  <ID>  (1) 
conformer_0

$$$$
