
     RDKit          3D

 13 12  0  0  0  0  0  0  0  0999 V2000
   -9.2490    5.0939  -30.0231 C   0  0  0  0  0  0  0  0  0  0  0  0
   -9.9136    4.3813  -27.7786 C   0  0  0  0  0  0  0  0  0  0  0  0
   -7.6446    3.4269  -33.3383 O   0  0  0  0  0  0  0  0  0  0  0  0
   -7.5798    2.4973  -32.1021 P   0  0  0  0  0  0  0  0  0  0  0  0
   -9.5127    5.7220  -31.0876 O   0  0  0  0  0  0  0  0  0  0  0  0
  -10.8630    5.1868  -26.8913 O   0  0  0  0  0  0  0  0  0  0  0  0
   -8.6202    1.2661  -32.2432 O   0  0  0  0  0  0  0  0  0  0  0  0
   -6.0680    2.2325  -32.1619 O   0  0  0  0  0  0  0  0  0  0  0  0
   -7.6428    4.1329  -30.2119 C   0  0  0  0  0  0  0  0  0  0  0  0
   -8.1059    6.2256  -28.7436 O   0  0  0  0  0  0  0  0  0  0  0  0
   -8.1359    2.8640  -30.7581 O   0  0  0  0  0  0  0  0  0  0  0  0
  -10.2978    3.8212  -29.2018 C   0  0  0  0  0  0  0  0  0  0  0  0
   -8.3176    5.0153  -29.0573 C   0  0  0  0  0  0  0  0  0  0  0  0
  4  3  1  0
  5  1  1  0
  6  2  1  0
  8  4  1  0
  9  7  1  0
 11  4  1  0
 11  9  1  0
 12  1  1  0
 12  2  1  0
 13  1  1  0
 13  9  1  0
 13 10  1  0
M  END
>  <ID>  (1) 
conformer_0

$$$$
