
     RDKit          3D

 12 11  0  0  0  0  0  0  0  0999 V2000
   -7.5663    4.4456  -30.0949 C   0  0  0  0  0  0  0  0  0  0  0  0
   -9.0142    4.6767  -29.4750 C   0  0  0  0  0  0  0  0  0  0  0  0
   -7.7217    2.7360  -31.9126 P   0  0  0  0  0  0  0  0  0  0  0  0
   -7.9568    3.3063  -33.1858 O   0  0  0  0  0  0  0  0  0  0  0  0
  -10.6239    5.2492  -27.4322 O   0  0  0  0  0  0  0  0  0  0  0  0
   -9.6056    5.5586  -30.7605 O   0  0  0  0  0  0  0  0  0  0  0  0
   -7.4063    3.1714  -30.7496 O   0  0  0  0  0  0  0  0  0  0  0  0
   -6.2713    2.1300  -32.3201 O   0  0  0  0  0  0  0  0  0  0  0  0
  -10.1657    4.1592  -28.4881 C   0  0  0  0  0  0  0  0  0  0  0  0
   -8.5241    1.3075  -31.8103 O   0  0  0  0  0  0  0  0  0  0  0  0
   -8.5148    6.0512  -28.8644 O   0  0  0  0  0  0  0  0  0  0  0  0
  -10.2000    3.1106  -30.1213 O   0  0  0  0  0  0  0  0  0  0  0  0
  2  1  1  0
  4  3  1  0
  6  2  1  0
  7  1  1  0
  7  3  1  0
  8  3  1  0
  9  2  1  0
  9  5  1  0
 10  1  1  0
 11  2  1  0
 12  9  1  0
M  END
>  <ID>  (1) 
conformer_0

$$$$
