
     RDKit          3D

 13 12  0  0  0  0  0  0  0  0999 V2000
  -10.0365    4.7677  -28.0171 C   0  0  0  0  0  0  0  0  0  0  0  0
   -8.7782    4.9517  -29.5886 C   0  0  0  0  0  0  0  0  0  0  0  0
   -7.5427    2.5105  -31.8517 P   0  0  0  0  0  0  0  0  0  0  0  0
   -8.1011    3.1842  -33.1259 O   0  0  0  0  0  0  0  0  0  0  0  0
   -5.9592    2.2157  -32.0759 O   0  0  0  0  0  0  0  0  0  0  0  0
   -7.4405    4.5505  -30.4413 C   0  0  0  0  0  0  0  0  0  0  0  0
   -7.7452    3.1781  -30.5900 O   0  0  0  0  0  0  0  0  0  0  0  0
  -10.7166    5.6434  -27.0943 O   0  0  0  0  0  0  0  0  0  0  0  0
   -8.5288    6.4586  -28.6610 O   0  0  0  0  0  0  0  0  0  0  0  0
   -8.2230    1.1312  -31.8741 O   0  0  0  0  0  0  0  0  0  0  0  0
  -10.5875    2.8923  -30.1418 O   0  0  0  0  0  0  0  0  0  0  0  0
  -10.2345    4.0100  -29.2633 C   0  0  0  0  0  0  0  0  0  0  0  0
   -9.0848    5.6563  -30.8724 O   0  0  0  0  0  0  0  0  0  0  0  0
  4  3  1  0
  5  3  1  0
  6  2  1  0
  7  3  1  0
  7  6  1  0
  8  1  1  0
  9  2  1  0
 10  6  1  0
 12  1  1  0
 12  2  1  0
 12 11  1  0
 13  2  1  0
M  END
>  <ID>  (1) 
conformer_0

$$$$
