
     RDKit          3D

 13 12  0  0  0  0  0  0  0  0999 V2000
   -9.7935    4.6950  -29.2195 C   0  0  0  0  0  0  0  0  0  0  0  0
  -10.3245    3.8005  -28.5591 C   0  0  0  0  0  0  0  0  0  0  0  0
   -7.9139    3.3438  -33.1156 O   0  0  0  0  0  0  0  0  0  0  0  0
   -7.3484    2.7256  -31.8565 P   0  0  0  0  0  0  0  0  0  0  0  0
   -7.9320    1.2099  -31.6142 O   0  0  0  0  0  0  0  0  0  0  0  0
   -8.5359    6.3720  -29.0344 O   0  0  0  0  0  0  0  0  0  0  0  0
  -11.1961    2.5208  -29.2587 O   0  0  0  0  0  0  0  0  0  0  0  0
   -8.6954    4.9777  -29.7579 C   0  0  0  0  0  0  0  0  0  0  0  0
  -10.7591    4.6793  -27.3416 O   0  0  0  0  0  0  0  0  0  0  0  0
   -6.0340    2.2762  -32.4653 O   0  0  0  0  0  0  0  0  0  0  0  0
   -9.6527    5.5715  -31.0589 O   0  0  0  0  0  0  0  0  0  0  0  0
   -7.2725    3.2304  -30.6837 O   0  0  0  0  0  0  0  0  0  0  0  0
   -7.3264    4.6419  -30.5319 C   0  0  0  0  0  0  0  0  0  0  0  0
  2  1  1  0
  4  3  1  0
  7  2  2  0
  8  1  1  0
  8  6  1  0
  9  2  1  0
 10  4  1  0
 11  8  1  0
 12  4  1  0
 13  5  1  0
 13  8  1  0
 13 12  1  0
M  END
>  <ID>  (1) 
conformer_0

$$$$
