
     RDKit          3D

 13 12  0  0  0  0  0  0  0  0999 V2000
   -8.3195    5.1575  -29.4224 C   0  0  0  0  0  0  0  0  0  0  0  0
   -9.7426    4.6454  -29.3312 C   0  0  0  0  0  0  0  0  0  0  0  0
   -7.5145    2.4795  -31.8924 P   0  0  0  0  0  0  0  0  0  0  0  0
   -7.5850    3.3661  -33.3214 O   0  0  0  0  0  0  0  0  0  0  0  0
  -10.9914    5.1717  -27.1410 O   0  0  0  0  0  0  0  0  0  0  0  0
   -6.1983    2.0181  -31.6271 O   0  0  0  0  0  0  0  0  0  0  0  0
   -8.7616    1.3564  -32.3069 O   0  0  0  0  0  0  0  0  0  0  0  0
  -10.9283    3.3222  -29.4816 O   0  0  0  0  0  0  0  0  0  0  0  0
   -7.7478    6.0412  -30.6951 O   0  0  0  0  0  0  0  0  0  0  0  0
   -8.2160    5.9847  -28.2235 O   0  0  0  0  0  0  0  0  0  0  0  0
  -10.1613    4.2437  -28.1372 C   0  0  0  0  0  0  0  0  0  0  0  0
   -8.1820    3.0749  -30.9093 O   0  0  0  0  0  0  0  0  0  0  0  0
   -7.9002    4.2757  -30.4183 C   0  0  0  0  0  0  0  0  0  0  0  0
  2  1  1  0
  4  3  1  0
  6  3  1  0
  8  2  1  0
  9  1  1  0
 10  1  1  0
 11  2  1  0
 11  5  1  0
 12  3  1  0
 13  1  1  0
 13  7  1  0
 13 12  1  0
M  END
>  <ID>  (1) 
conformer_0

$$$$
