
     RDKit          3D

 13 13  0  0  0  0  0  0  0  0999 V2000
   -8.8095    4.6395  -29.8620 C   0  0  0  0  0  0  0  0  0  0  0  0
  -10.5275    4.4765  -29.2995 C   0  0  0  0  0  0  0  0  0  0  0  0
   -7.5114    3.5163  -33.2575 O   0  0  0  0  0  0  0  0  0  0  0  0
   -7.4111    2.5533  -31.9719 P   0  0  0  0  0  0  0  0  0  0  0  0
   -6.1380    2.0012  -31.8476 O   0  0  0  0  0  0  0  0  0  0  0  0
   -9.9545    5.0944  -31.2256 O   0  0  0  0  0  0  0  0  0  0  0  0
   -8.5617    1.3958  -32.3174 O   0  0  0  0  0  0  0  0  0  0  0  0
  -10.7947    5.0568  -27.4272 O   0  0  0  0  0  0  0  0  0  0  0  0
   -7.6487    5.4527  -28.2693 O   0  0  0  0  0  0  0  0  0  0  0  0
   -7.6189    4.2292  -29.8487 C   0  0  0  0  0  0  0  0  0  0  0  0
   -7.8589    3.1431  -30.8522 O   0  0  0  0  0  0  0  0  0  0  0  0
   -9.4798    4.2934  -28.1378 C   0  0  0  0  0  0  0  0  0  0  0  0
  -10.8601    3.3781  -29.7998 O   0  0  0  0  0  0  0  0  0  0  0  0
  2  1  1  0
  4  3  1  0
  5  4  1  0
  6  1  1  0
 10  1  1  0
 10  7  1  0
 10  9  1  0
 11  4  1  0
 11 10  1  0
 12  1  1  0
 12  2  1  0
 12  8  1  0
 13  2  1  0
M  END
>  <ID>  (1) 
conformer_0

$$$$
