
     RDKit          3D

 12 11  0  0  0  0  0  0  0  0999 V2000
   -9.2803    4.6584  -29.7165 C   0  0  0  0  0  0  0  0  0  0  0  0
   -9.9140    4.2670  -28.4378 C   0  0  0  0  0  0  0  0  0  0  0  0
   -7.6516    2.7374  -31.7567 P   0  0  0  0  0  0  0  0  0  0  0  0
   -9.7272    5.7357  -30.8926 O   0  0  0  0  0  0  0  0  0  0  0  0
   -6.2519    2.1393  -31.6581 O   0  0  0  0  0  0  0  0  0  0  0  0
   -8.3491    5.7952  -28.2329 O   0  0  0  0  0  0  0  0  0  0  0  0
   -7.8056    3.3266  -33.0305 O   0  0  0  0  0  0  0  0  0  0  0  0
  -10.6595    5.1073  -27.5711 O   0  0  0  0  0  0  0  0  0  0  0  0
   -8.0040    3.4554  -30.5922 O   0  0  0  0  0  0  0  0  0  0  0  0
   -7.8644    4.6726  -29.9065 C   0  0  0  0  0  0  0  0  0  0  0  0
   -8.5771    1.4965  -31.7146 O   0  0  0  0  0  0  0  0  0  0  0  0
  -10.3650    3.1247  -29.5623 O   0  0  0  0  0  0  0  0  0  0  0  0
  2  1  1  0
  4  1  1  0
  5  3  1  0
  7  3  1  0
  8  2  1  0
  9  3  1  0
 10  1  1  0
 10  6  1  0
 10  9  1  0
 11 10  1  0
 12  2  1  0
M  END
>  <ID>  (1) 
conformer_0

$$$$
