
     RDKit          3D

 14 13  0  0  0  0  0  0  0  0999 V2000
   -9.9597    4.5785  -27.8365 C   0  0  0  0  0  0  0  0  0  0  0  0
   -8.6773    5.3885  -29.1166 C   0  0  0  0  0  0  0  0  0  0  0  0
   -7.4568    2.5311  -31.8332 P   0  0  0  0  0  0  0  0  0  0  0  0
   -7.5727    3.2826  -33.2041 O   0  0  0  0  0  0  0  0  0  0  0  0
   -8.3861    1.2269  -32.0646 O   0  0  0  0  0  0  0  0  0  0  0  0
  -10.9183    4.8657  -27.0902 O   0  0  0  0  0  0  0  0  0  0  0  0
   -6.1784    1.9916  -31.6884 O   0  0  0  0  0  0  0  0  0  0  0  0
   -8.2972    6.2048  -28.2721 O   0  0  0  0  0  0  0  0  0  0  0  0
   -7.5195    4.4513  -30.4212 C   0  0  0  0  0  0  0  0  0  0  0  0
  -10.6243    5.3579  -30.0853 O   0  0  0  0  0  0  0  0  0  0  0  0
   -8.8512    3.1071  -30.6811 O   0  0  0  0  0  0  0  0  0  0  0  0
   -8.2958    6.1065  -30.5595 O   0  0  0  0  0  0  0  0  0  0  0  0
   -9.2137    4.2691  -29.9359 C   0  0  0  0  0  0  0  0  0  0  0  0
  -10.6406    3.6233  -28.9551 C   0  0  0  0  0  0  0  0  0  0  0  0
  4  3  1  0
  5  3  1  0
  6  1  1  0
  7  3  1  0
  8  2  1  0
  9  5  1  0
 12  2  1  0
 13  2  1  0
 13  9  1  0
 13 10  1  0
 13 11  1  0
 14  1  1  0
 14  9  1  0
M  END
>  <ID>  (1) 
conformer_0

$$$$
