
     RDKit          3D

 14 13  0  0  0  0  0  0  0  0999 V2000
   -7.5092    4.2652  -30.0235 C   0  0  0  0  0  0  0  0  0  0  0  0
   -8.7397    5.3359  -30.2115 C   0  0  0  0  0  0  0  0  0  0  0  0
   -7.7064    3.3700  -33.2166 O   0  0  0  0  0  0  0  0  0  0  0  0
   -7.8653    2.6460  -31.8851 P   0  0  0  0  0  0  0  0  0  0  0  0
   -8.0289    5.8509  -28.1381 O   0  0  0  0  0  0  0  0  0  0  0  0
   -9.1706    1.6679  -32.0665 O   0  0  0  0  0  0  0  0  0  0  0  0
   -6.3055    2.0536  -31.7703 O   0  0  0  0  0  0  0  0  0  0  0  0
   -9.7179    4.6827  -31.4862 O   0  0  0  0  0  0  0  0  0  0  0  0
  -10.9233    3.4412  -29.5055 O   0  0  0  0  0  0  0  0  0  0  0  0
  -10.3339    5.3379  -27.3256 O   0  0  0  0  0  0  0  0  0  0  0  0
   -7.8885    3.2462  -30.4826 O   0  0  0  0  0  0  0  0  0  0  0  0
   -8.5540    4.8724  -28.4434 C   0  0  0  0  0  0  0  0  0  0  0  0
   -9.9389    3.9866  -29.4676 C   0  0  0  0  0  0  0  0  0  0  0  0
  -10.1899    3.8891  -27.5824 C   0  0  0  0  0  0  0  0  0  0  0  0
  2  1  1  0
  4  3  1  0
  7  4  1  0
  8  2  1  0
 11  1  1  0
 11  4  1  0
 12  2  1  0
 12  5  1  0
 13  6  1  0
 13  9  1  0
 13 12  1  0
 14 10  1  0
 14 13  1  0
M  END
>  <ID>  (1) 
conformer_0

$$$$
