
     RDKit          3D

 14 13  0  0  0  0  0  0  0  0999 V2000
  -10.4316    3.9680  -29.5002 C   0  0  0  0  0  0  0  0  0  0  0  0
   -9.9728    4.3038  -28.1172 C   0  0  0  0  0  0  0  0  0  0  0  0
   -7.5311    3.5025  -33.2724 O   0  0  0  0  0  0  0  0  0  0  0  0
   -7.3732    2.5613  -31.9737 P   0  0  0  0  0  0  0  0  0  0  0  0
   -6.0225    2.1067  -31.9250 O   0  0  0  0  0  0  0  0  0  0  0  0
   -8.4797    1.3327  -32.2595 O   0  0  0  0  0  0  0  0  0  0  0  0
   -8.8814    5.3128  -28.9952 C   0  0  0  0  0  0  0  0  0  0  0  0
  -10.8413    5.0876  -27.4553 O   0  0  0  0  0  0  0  0  0  0  0  0
   -8.1960    6.1433  -28.3288 O   0  0  0  0  0  0  0  0  0  0  0  0
  -11.1944    3.0626  -29.7322 O   0  0  0  0  0  0  0  0  0  0  0  0
   -9.1300    6.0270  -30.6483 O   0  0  0  0  0  0  0  0  0  0  0  0
   -7.8741    3.2526  -30.7124 O   0  0  0  0  0  0  0  0  0  0  0  0
   -8.6054    4.4456  -30.1526 C   0  0  0  0  0  0  0  0  0  0  0  0
   -7.0125    4.4324  -30.1029 C   0  0  0  0  0  0  0  0  0  0  0  0
  2  1  1  0
  4  3  1  0
  5  4  1  0
  7  2  1  0
  8  2  1  0
  9  7  1  0
 10  1  1  0
 12  4  1  0
 13  6  1  0
 13  7  1  0
 13 11  1  0
 13 12  1  0
 14  1  1  0
M  END
>  <ID>  (1) 
conformer_0

$$$$
