
     RDKit          3D

 11 10  0  0  0  0  0  0  0  0999 V2000
   -7.9139    4.3219  -29.7084 C   0  0  0  0  0  0  0  0  0  0  0  0
   -9.0909    4.8564  -29.8799 C   0  0  0  0  0  0  0  0  0  0  0  0
   -7.7790    2.7703  -31.9748 P   0  0  0  0  0  0  0  0  0  0  0  0
   -7.8298    3.4144  -33.3002 O   0  0  0  0  0  0  0  0  0  0  0  0
   -8.5664    1.3318  -31.9021 O   0  0  0  0  0  0  0  0  0  0  0  0
  -11.0410    4.6631  -27.5767 O   0  0  0  0  0  0  0  0  0  0  0  0
   -6.2210    2.2828  -31.8708 O   0  0  0  0  0  0  0  0  0  0  0  0
  -10.9037    3.3925  -29.3252 O   0  0  0  0  0  0  0  0  0  0  0  0
  -10.0525    3.9783  -28.4097 C   0  0  0  0  0  0  0  0  0  0  0  0
   -8.1635    3.4969  -31.0369 O   0  0  0  0  0  0  0  0  0  0  0  0
   -8.5869    6.0205  -30.3569 O   0  0  0  0  0  0  0  0  0  0  0  0
  2  1  1  0
  4  3  1  0
  5  1  1  0
  7  3  1  0
  9  2  1  0
  9  6  1  0
  9  8  1  0
 10  1  1  0
 10  3  1  0
 11  2  1  0
M  END
>  <ID>  (1) 
conformer_0

$$$$
