
     RDKit          3D

 14 15  0  0  0  0  0  0  0  0999 V2000
   -8.7822    5.6391  -29.7545 C   0  0  0  0  0  0  0  0  0  0  0  0
   -9.7909    4.1864  -29.9328 C   0  0  0  0  0  0  0  0  0  0  0  0
   -7.5507    2.5135  -31.9807 P   0  0  0  0  0  0  0  0  0  0  0  0
   -7.6353    3.4217  -33.2396 O   0  0  0  0  0  0  0  0  0  0  0  0
   -9.7998    5.5747  -31.0356 O   0  0  0  0  0  0  0  0  0  0  0  0
   -8.2948    6.6323  -28.5738 O   0  0  0  0  0  0  0  0  0  0  0  0
   -8.5000    1.1225  -32.1533 O   0  0  0  0  0  0  0  0  0  0  0  0
   -6.0329    2.2058  -32.1602 O   0  0  0  0  0  0  0  0  0  0  0  0
  -10.7583    4.6537  -27.2324 O   0  0  0  0  0  0  0  0  0  0  0  0
  -10.8191    2.9696  -29.9767 O   0  0  0  0  0  0  0  0  0  0  0  0
   -7.8314    4.2250  -30.4371 C   0  0  0  0  0  0  0  0  0  0  0  0
   -8.0054    2.8150  -30.7092 O   0  0  0  0  0  0  0  0  0  0  0  0
  -10.3020    3.8995  -28.5213 C   0  0  0  0  0  0  0  0  0  0  0  0
   -9.0896    5.1339  -28.1851 C   0  0  0  0  0  0  0  0  0  0  0  0
  2  1  1  0
  4  3  1  0
  5  1  1  0
  6  1  1  0
  8  3  1  0
 10  2  1  0
 11  2  1  0
 11  7  1  0
 12  3  1  0
 12 11  1  0
 13  2  1  0
 13  9  1  0
 13 10  1  0
 14  1  1  0
 14 13  1  0
M  END
>  <ID>  (1) 
conformer_0

$$$$
