
     RDKit          3D

 15 14  0  0  0  0  0  0  0  0999 V2000
   -8.5014    5.3952  -29.1779 C   0  0  0  0  0  0  0  0  0  0  0  0
  -10.4678    3.7671  -29.4761 C   0  0  0  0  0  0  0  0  0  0  0  0
   -5.9704    2.1616  -31.9251 O   0  0  0  0  0  0  0  0  0  0  0  0
   -7.4557    2.5306  -31.8232 P   0  0  0  0  0  0  0  0  0  0  0  0
  -10.6474    5.2448  -27.4643 O   0  0  0  0  0  0  0  0  0  0  0  0
   -7.5395    3.4157  -33.2756 O   0  0  0  0  0  0  0  0  0  0  0  0
  -11.1984    2.7738  -29.8201 O   0  0  0  0  0  0  0  0  0  0  0  0
   -8.3203    1.1024  -31.8006 O   0  0  0  0  0  0  0  0  0  0  0  0
   -9.7727    4.7257  -31.3196 O   0  0  0  0  0  0  0  0  0  0  0  0
   -8.6946    6.2343  -27.9880 O   0  0  0  0  0  0  0  0  0  0  0  0
   -8.8526    4.0080  -30.2510 C   0  0  0  0  0  0  0  0  0  0  0  0
   -7.2080    4.5571  -30.3225 C   0  0  0  0  0  0  0  0  0  0  0  0
   -8.0623    2.9461  -30.8601 O   0  0  0  0  0  0  0  0  0  0  0  0
   -8.4180    6.2260  -30.2586 O   0  0  0  0  0  0  0  0  0  0  0  0
   -9.9835    4.5356  -28.1575 C   0  0  0  0  0  0  0  0  0  0  0  0
  4  3  1  0
  6  4  1  0
  7  2  2  0
 10  1  1  0
 11  8  1  0
 11  9  1  0
 12  1  1  0
 12 11  1  0
 13  4  1  0
 13 11  1  0
 14  1  1  0
 15  1  1  0
 15  2  1  0
 15  5  1  0
M  END
>  <ID>  (1) 
conformer_0

$$$$
