
     RDKit          3D

 13 12  0  0  0  0  0  0  0  0999 V2000
  -10.1980    4.0657  -28.3706 C   0  0  0  0  0  0  0  0  0  0  0  0
   -9.8860    4.2840  -29.7854 C   0  0  0  0  0  0  0  0  0  0  0  0
   -6.2830    2.0824  -31.9832 O   0  0  0  0  0  0  0  0  0  0  0  0
   -7.4494    2.5728  -31.8323 P   0  0  0  0  0  0  0  0  0  0  0  0
  -10.1868    5.3427  -31.0157 O   0  0  0  0  0  0  0  0  0  0  0  0
  -10.8313    5.1628  -27.6646 O   0  0  0  0  0  0  0  0  0  0  0  0
   -7.4856    3.4164  -30.6528 O   0  0  0  0  0  0  0  0  0  0  0  0
   -8.4943    1.4235  -31.9374 O   0  0  0  0  0  0  0  0  0  0  0  0
  -11.1215    2.9068  -29.6626 O   0  0  0  0  0  0  0  0  0  0  0  0
   -8.2270    6.2555  -28.3001 O   0  0  0  0  0  0  0  0  0  0  0  0
   -8.5620    5.1194  -29.1707 C   0  0  0  0  0  0  0  0  0  0  0  0
   -7.7766    4.7064  -30.2689 C   0  0  0  0  0  0  0  0  0  0  0  0
   -8.1510    6.2591  -30.6086 O   0  0  0  0  0  0  0  0  0  0  0  0
  2  1  1  0
  4  3  1  0
  5  2  1  0
  6  1  1  0
  7  4  1  0
  8  4  1  0
  9  2  1  0
 11  2  1  0
 11 10  1  0
 12  7  1  0
 12 11  1  0
 13 12  1  0
M  END
>  <ID>  (1) 
conformer_0

$$$$
