
     RDKit          3D

 12 11  0  0  0  0  0  0  0  0999 V2000
   -7.8412    4.5258  -30.1198 C   0  0  0  0  0  0  0  0  0  0  0  0
   -9.0843    4.5783  -29.5791 C   0  0  0  0  0  0  0  0  0  0  0  0
   -7.5360    2.4504  -31.8792 P   0  0  0  0  0  0  0  0  0  0  0  0
   -7.6577    3.3672  -33.2238 O   0  0  0  0  0  0  0  0  0  0  0  0
   -9.9030    5.2838  -31.0979 O   0  0  0  0  0  0  0  0  0  0  0  0
   -6.0267    2.1454  -31.9164 O   0  0  0  0  0  0  0  0  0  0  0  0
   -8.5660    1.2695  -32.1048 O   0  0  0  0  0  0  0  0  0  0  0  0
  -10.7141    5.1972  -27.1343 O   0  0  0  0  0  0  0  0  0  0  0  0
   -8.3115    6.2353  -28.7029 O   0  0  0  0  0  0  0  0  0  0  0  0
   -9.9728    4.3536  -28.5774 C   0  0  0  0  0  0  0  0  0  0  0  0
   -7.8342    3.0624  -30.6785 O   0  0  0  0  0  0  0  0  0  0  0  0
  -11.1571    3.9490  -29.6314 O   0  0  0  0  0  0  0  0  0  0  0  0
  2  1  1  0
  4  3  1  0
  5  2  1  0
  6  3  1  0
  7  1  1  0
  9  2  1  0
 10  2  1  0
 10  8  1  0
 11  1  1  0
 11  3  1  0
 12 10  1  0
M  END
>  <ID>  (1) 
conformer_0

$$$$
