
     RDKit          3D

 13 12  0  0  0  0  0  0  0  0999 V2000
   -9.0798    5.0639  -29.9136 C   0  0  0  0  0  0  0  0  0  0  0  0
   -7.7847    4.7439  -29.8843 C   0  0  0  0  0  0  0  0  0  0  0  0
   -6.0241    2.1779  -31.9121 O   0  0  0  0  0  0  0  0  0  0  0  0
   -7.4708    2.7458  -31.7053 P   0  0  0  0  0  0  0  0  0  0  0  0
   -7.5544    3.4240  -30.4381 O   0  0  0  0  0  0  0  0  0  0  0  0
   -9.7770    4.7538  -31.4127 O   0  0  0  0  0  0  0  0  0  0  0  0
   -7.7289    3.3652  -33.0918 O   0  0  0  0  0  0  0  0  0  0  0  0
  -10.5655    4.8905  -27.1317 O   0  0  0  0  0  0  0  0  0  0  0  0
  -10.3185    4.3397  -29.2562 C   0  0  0  0  0  0  0  0  0  0  0  0
   -8.4841    1.4910  -31.7143 O   0  0  0  0  0  0  0  0  0  0  0  0
   -8.5732    6.0629  -28.4629 O   0  0  0  0  0  0  0  0  0  0  0  0
  -10.9899    2.8406  -29.3356 O   0  0  0  0  0  0  0  0  0  0  0  0
   -9.8338    4.0176  -28.0555 C   0  0  0  0  0  0  0  0  0  0  0  0
  2  1  1  0
  4  3  1  0
  5  2  1  0
  5  4  1  0
  6  1  1  0
  7  4  1  0
  9  1  1  0
 10  2  1  0
 11  1  1  0
 12  9  1  0
 13  8  1  0
 13  9  1  0
M  END
>  <ID>  (1) 
conformer_0

$$$$
