
     RDKit          3D

 11 10  0  0  0  0  0  0  0  0999 V2000
   -9.1091    4.7186  -29.2756 C   0  0  0  0  0  0  0  0  0  0  0  0
  -10.1171    4.3270  -28.5232 C   0  0  0  0  0  0  0  0  0  0  0  0
   -7.4859    2.5733  -31.8250 P   0  0  0  0  0  0  0  0  0  0  0  0
   -6.0557    2.2097  -31.8330 O   0  0  0  0  0  0  0  0  0  0  0  0
  -10.7633    5.3030  -27.0362 O   0  0  0  0  0  0  0  0  0  0  0  0
   -8.4924    1.3098  -32.0304 O   0  0  0  0  0  0  0  0  0  0  0  0
   -7.5188    3.4061  -33.1837 O   0  0  0  0  0  0  0  0  0  0  0  0
   -8.3587    6.3328  -28.7813 O   0  0  0  0  0  0  0  0  0  0  0  0
   -9.4934    5.4285  -31.0332 O   0  0  0  0  0  0  0  0  0  0  0  0
   -7.8983    4.7029  -30.0094 C   0  0  0  0  0  0  0  0  0  0  0  0
   -8.2245    3.2511  -30.7294 O   0  0  0  0  0  0  0  0  0  0  0  0
  2  1  1  0
  4  3  1  0
  5  2  1  0
  7  3  1  0
  8  1  1  0
  9  1  1  0
 10  1  1  0
 10  6  1  0
 11  3  1  0
 11 10  1  0
M  END
>  <ID>  (1) 
conformer_0

$$$$
