
     RDKit          3D

 15 15  0  0  0  0  0  0  0  0999 V2000
   -9.5462    4.0523  -29.9176 C   0  0  0  0  0  0  0  0  0  0  0  0
   -8.3379    5.4075  -29.7244 C   0  0  0  0  0  0  0  0  0  0  0  0
   -7.6322    3.2819  -33.2532 O   0  0  0  0  0  0  0  0  0  0  0  0
   -7.5507    2.6009  -31.8190 P   0  0  0  0  0  0  0  0  0  0  0  0
   -5.9920    2.2490  -31.9240 O   0  0  0  0  0  0  0  0  0  0  0  0
  -10.7446    5.2175  -27.4773 O   0  0  0  0  0  0  0  0  0  0  0  0
   -8.3683    1.2204  -31.9154 O   0  0  0  0  0  0  0  0  0  0  0  0
   -9.7406    3.8545  -31.8222 O   0  0  0  0  0  0  0  0  0  0  0  0
   -8.1610    6.2475  -28.3815 O   0  0  0  0  0  0  0  0  0  0  0  0
  -11.0833    3.0754  -29.7504 O   0  0  0  0  0  0  0  0  0  0  0  0
   -7.5166    4.3624  -30.4382 C   0  0  0  0  0  0  0  0  0  0  0  0
   -7.7059    3.1622  -30.4911 O   0  0  0  0  0  0  0  0  0  0  0  0
   -8.9320    6.0702  -30.7315 O   0  0  0  0  0  0  0  0  0  0  0  0
   -9.1137    4.7859  -28.2028 C   0  0  0  0  0  0  0  0  0  0  0  0
  -10.3617    3.9648  -28.2975 C   0  0  0  0  0  0  0  0  0  0  0  0
  4  3  1  0
  5  4  1  0
  8  1  1  0
  9  2  1  0
 11  2  1  0
 11  7  1  0
 12  4  1  0
 12 11  1  0
 13  2  1  0
 14  1  1  0
 14  2  1  0
 15  1  1  0
 15  6  1  0
 15 10  1  0
 15 14  1  0
M  END
>  <ID>  (1) 
conformer_0

$$$$
