
     RDKit          3D

 13 12  0  0  0  0  0  0  0  0999 V2000
   -9.9429    4.4876  -28.1680 C   0  0  0  0  0  0  0  0  0  0  0  0
   -8.3768    4.9815  -29.3856 C   0  0  0  0  0  0  0  0  0  0  0  0
   -7.8435    2.3837  -31.9446 P   0  0  0  0  0  0  0  0  0  0  0  0
  -10.8446    5.1658  -27.4148 O   0  0  0  0  0  0  0  0  0  0  0  0
   -8.5035    2.9462  -33.0751 O   0  0  0  0  0  0  0  0  0  0  0  0
   -7.8770    6.1886  -29.7601 O   0  0  0  0  0  0  0  0  0  0  0  0
   -8.0706    0.9185  -31.6205 O   0  0  0  0  0  0  0  0  0  0  0  0
   -7.6634    4.1494  -30.3666 C   0  0  0  0  0  0  0  0  0  0  0  0
  -11.0309    2.9495  -29.6905 O   0  0  0  0  0  0  0  0  0  0  0  0
   -9.6486    5.4391  -30.9389 O   0  0  0  0  0  0  0  0  0  0  0  0
   -6.3327    2.3412  -32.0708 O   0  0  0  0  0  0  0  0  0  0  0  0
   -8.2314    3.0326  -30.9931 O   0  0  0  0  0  0  0  0  0  0  0  0
   -9.8375    4.1416  -29.6432 C   0  0  0  0  0  0  0  0  0  0  0  0
  4  1  1  0
  5  3  1  0
  6  2  1  0
  8  2  1  0
  8  7  1  0
 11  3  1  0
 12  3  1  0
 12  8  1  0
 13  1  1  0
 13  2  1  0
 13  9  1  0
 13 10  1  0
M  END
>  <ID>  (1) 
conformer_0

$$$$
