
     RDKit          3D

 14 13  0  0  0  0  0  0  0  0999 V2000
  -10.4465    3.6117  -28.6703 C   0  0  0  0  0  0  0  0  0  0  0  0
   -9.8767    4.5858  -27.9934 C   0  0  0  0  0  0  0  0  0  0  0  0
   -7.6998    3.5108  -33.3043 O   0  0  0  0  0  0  0  0  0  0  0  0
   -7.4251    2.6048  -32.0099 P   0  0  0  0  0  0  0  0  0  0  0  0
   -7.7412    3.0983  -30.6072 O   0  0  0  0  0  0  0  0  0  0  0  0
   -8.7119    5.5709  -29.3683 C   0  0  0  0  0  0  0  0  0  0  0  0
   -8.2107    6.2071  -28.3466 O   0  0  0  0  0  0  0  0  0  0  0  0
  -10.8076    5.3069  -27.0231 O   0  0  0  0  0  0  0  0  0  0  0  0
   -9.5259    5.5203  -31.1506 O   0  0  0  0  0  0  0  0  0  0  0  0
   -5.9379    2.2501  -32.2696 O   0  0  0  0  0  0  0  0  0  0  0  0
   -8.3464    1.3147  -32.0781 O   0  0  0  0  0  0  0  0  0  0  0  0
  -10.9610    2.9658  -29.4350 O   0  0  0  0  0  0  0  0  0  0  0  0
   -9.0384    4.3997  -29.8843 C   0  0  0  0  0  0  0  0  0  0  0  0
   -7.4741    4.6539  -30.4140 C   0  0  0  0  0  0  0  0  0  0  0  0
  2  1  1  0
  4  3  1  0
  5  4  1  0
  7  6  1  0
  8  2  1  0
 10  4  1  0
 12  1  1  0
 13  1  1  0
 13  6  1  0
 13  9  1  0
 14  5  1  0
 14 11  1  0
 14 13  1  0
M  END
>  <ID>  (1) 
conformer_0

$$$$
