
     RDKit          3D

 13 12  0  0  0  0  0  0  0  0999 V2000
   -9.7559    3.9970  -29.5085 C   0  0  0  0  0  0  0  0  0  0  0  0
  -10.1902    4.1754  -28.1902 C   0  0  0  0  0  0  0  0  0  0  0  0
   -7.6134    2.6870  -31.9755 P   0  0  0  0  0  0  0  0  0  0  0  0
   -7.7115    3.3868  -33.2622 O   0  0  0  0  0  0  0  0  0  0  0  0
   -9.9165    5.4300  -30.9366 O   0  0  0  0  0  0  0  0  0  0  0  0
   -7.6906    3.2130  -30.8049 O   0  0  0  0  0  0  0  0  0  0  0  0
   -6.2433    1.9276  -32.1006 O   0  0  0  0  0  0  0  0  0  0  0  0
   -8.2416    6.0677  -28.6770 O   0  0  0  0  0  0  0  0  0  0  0  0
  -10.7968    2.8763  -29.6170 O   0  0  0  0  0  0  0  0  0  0  0  0
  -10.3832    4.6843  -27.1298 O   0  0  0  0  0  0  0  0  0  0  0  0
   -8.7152    1.3702  -32.0795 O   0  0  0  0  0  0  0  0  0  0  0  0
   -8.9023    5.2645  -29.3395 C   0  0  0  0  0  0  0  0  0  0  0  0
   -7.9404    4.4378  -30.4286 C   0  0  0  0  0  0  0  0  0  0  0  0
  2  1  1  0
  4  3  1  0
  6  3  1  0
  7  3  1  0
  9  1  1  0
 10  2  1  0
 12  1  1  0
 12  5  1  0
 12  8  1  0
 13  6  1  0
 13 11  1  0
 13 12  1  0
M  END
>  <ID>  (1) 
conformer_0

$$$$
