
     RDKit          3D

 15 15  0  0  0  0  0  0  0  0999 V2000
   -8.0298    5.3379  -29.5213 C   0  0  0  0  0  0  0  0  0  0  0  0
   -9.2216    4.8140  -28.2272 C   0  0  0  0  0  0  0  0  0  0  0  0
   -7.8215    2.6111  -31.8975 P   0  0  0  0  0  0  0  0  0  0  0  0
   -7.2751    4.1546  -30.4812 C   0  0  0  0  0  0  0  0  0  0  0  0
   -8.1974    1.0578  -31.6604 O   0  0  0  0  0  0  0  0  0  0  0  0
  -10.6999    4.8773  -27.4122 O   0  0  0  0  0  0  0  0  0  0  0  0
   -8.2483    6.2330  -28.0651 O   0  0  0  0  0  0  0  0  0  0  0  0
   -9.0851    3.0830  -32.7715 O   0  0  0  0  0  0  0  0  0  0  0  0
   -9.8655    5.1221  -31.2469 O   0  0  0  0  0  0  0  0  0  0  0  0
  -10.9652    3.1796  -29.7806 O   0  0  0  0  0  0  0  0  0  0  0  0
   -8.0559    3.2175  -30.7913 O   0  0  0  0  0  0  0  0  0  0  0  0
   -6.6324    2.4586  -32.5800 O   0  0  0  0  0  0  0  0  0  0  0  0
   -8.0599    6.3243  -30.6037 O   0  0  0  0  0  0  0  0  0  0  0  0
   -9.4039    4.7623  -29.9298 C   0  0  0  0  0  0  0  0  0  0  0  0
  -10.4312    3.8186  -28.8036 C   0  0  0  0  0  0  0  0  0  0  0  0
  4  1  1  0
  5  4  1  0
  6  2  1  0
  7  1  1  0
  8  3  1  0
 11  3  1  0
 11  4  1  0
 12  3  1  0
 13  1  1  0
 14  1  1  0
 14  2  1  0
 14  9  1  0
 15  2  1  0
 15 10  1  0
 15 14  1  0
M  END
>  <ID>  (1) 
conformer_0

$$$$
