
     RDKit          3D

 13 13  0  0  0  0  0  0  0  0999 V2000
  -10.3530    4.1235  -28.4089 C   0  0  0  0  0  0  0  0  0  0  0  0
   -9.5288    4.2027  -29.7966 C   0  0  0  0  0  0  0  0  0  0  0  0
   -7.6224    3.3692  -33.2134 O   0  0  0  0  0  0  0  0  0  0  0  0
   -7.3834    2.7242  -31.7958 P   0  0  0  0  0  0  0  0  0  0  0  0
   -9.8479    5.1664  -31.1440 O   0  0  0  0  0  0  0  0  0  0  0  0
  -10.5440    4.9587  -27.5878 O   0  0  0  0  0  0  0  0  0  0  0  0
   -8.3750    1.3253  -31.7700 O   0  0  0  0  0  0  0  0  0  0  0  0
   -5.9880    2.3041  -32.0210 O   0  0  0  0  0  0  0  0  0  0  0  0
  -11.0409    3.3716  -29.7122 O   0  0  0  0  0  0  0  0  0  0  0  0
   -8.6109    6.2123  -29.2962 O   0  0  0  0  0  0  0  0  0  0  0  0
   -8.3956    4.9933  -29.5004 C   0  0  0  0  0  0  0  0  0  0  0  0
   -7.5570    3.1311  -30.6695 O   0  0  0  0  0  0  0  0  0  0  0  0
   -7.4799    4.5370  -30.6031 C   0  0  0  0  0  0  0  0  0  0  0  0
  2  1  1  0
  4  3  1  0
  5  2  1  0
  6  1  1  0
  8  4  1  0
  9  1  1  0
  9  2  1  0
 11  2  1  0
 11 10  1  0
 12  4  1  0
 13  7  1  0
 13 11  1  0
 13 12  1  0
M  END
>  <ID>  (1) 
conformer_0

$$$$
