
     RDKit          3D

 13 12  0  0  0  0  0  0  0  0999 V2000
   -8.8316    4.9155  -29.6638 C   0  0  0  0  0  0  0  0  0  0  0  0
  -10.0139    4.3326  -29.4122 C   0  0  0  0  0  0  0  0  0  0  0  0
   -7.3508    2.6028  -31.8449 P   0  0  0  0  0  0  0  0  0  0  0  0
   -7.8311    3.3675  -33.1436 O   0  0  0  0  0  0  0  0  0  0  0  0
   -9.8060    5.3412  -31.0919 O   0  0  0  0  0  0  0  0  0  0  0  0
   -6.1153    2.0294  -31.8710 O   0  0  0  0  0  0  0  0  0  0  0  0
   -8.4705    1.2484  -31.9731 O   0  0  0  0  0  0  0  0  0  0  0  0
   -8.2215    6.0827  -29.0500 O   0  0  0  0  0  0  0  0  0  0  0  0
   -7.5774    3.3067  -30.7261 O   0  0  0  0  0  0  0  0  0  0  0  0
  -10.6496    5.5777  -27.1516 O   0  0  0  0  0  0  0  0  0  0  0  0
   -7.5277    4.4118  -30.0911 C   0  0  0  0  0  0  0  0  0  0  0  0
  -11.1004    3.8448  -29.4270 O   0  0  0  0  0  0  0  0  0  0  0  0
  -10.2365    4.2382  -27.8068 C   0  0  0  0  0  0  0  0  0  0  0  0
  2  1  1  0
  4  3  1  0
  5  1  1  0
  6  3  1  0
  8  1  1  0
  9  3  1  0
 11  1  1  0
 11  7  1  0
 11  9  1  0
 12  2  2  0
 13  2  1  0
 13 10  1  0
M  END
>  <ID>  (1) 
conformer_0

$$$$
