
     RDKit          3D

 13 12  0  0  0  0  0  0  0  0999 V2000
  -10.2776    4.0155  -29.1354 C   0  0  0  0  0  0  0  0  0  0  0  0
   -8.6521    5.2123  -29.3850 C   0  0  0  0  0  0  0  0  0  0  0  0
   -7.3079    2.4543  -31.8505 P   0  0  0  0  0  0  0  0  0  0  0  0
  -11.0617    5.2648  -27.1424 O   0  0  0  0  0  0  0  0  0  0  0  0
   -7.7155    3.2397  -33.1407 O   0  0  0  0  0  0  0  0  0  0  0  0
   -8.3645    1.1682  -32.0157 O   0  0  0  0  0  0  0  0  0  0  0  0
  -11.1815    3.1322  -29.7037 O   0  0  0  0  0  0  0  0  0  0  0  0
   -5.9716    2.0867  -31.8701 O   0  0  0  0  0  0  0  0  0  0  0  0
   -9.7705    4.7986  -31.1826 O   0  0  0  0  0  0  0  0  0  0  0  0
   -7.6902    4.4664  -30.2581 C   0  0  0  0  0  0  0  0  0  0  0  0
   -7.8933    3.1307  -30.5070 O   0  0  0  0  0  0  0  0  0  0  0  0
   -8.4710    6.3771  -29.4016 O   0  0  0  0  0  0  0  0  0  0  0  0
   -9.8333    4.8772  -28.0124 C   0  0  0  0  0  0  0  0  0  0  0  0
  5  3  1  0
  7  1  1  0
  8  3  1  0
  9  2  1  0
 10  2  1  0
 10  6  1  0
 11  3  1  0
 11 10  1  0
 12  2  1  0
 13  1  1  0
 13  2  1  0
 13  4  1  0
M  END
>  <ID>  (1) 
conformer_0

$$$$
