
     RDKit          3D

 14 13  0  0  0  0  0  0  0  0999 V2000
  -10.1622    4.2014  -29.3063 C   0  0  0  0  0  0  0  0  0  0  0  0
  -10.3582    4.0031  -28.0006 C   0  0  0  0  0  0  0  0  0  0  0  0
   -7.4752    3.3902  -33.1970 O   0  0  0  0  0  0  0  0  0  0  0  0
   -7.3927    2.5181  -31.8424 P   0  0  0  0  0  0  0  0  0  0  0  0
   -8.4696    1.3394  -31.9697 O   0  0  0  0  0  0  0  0  0  0  0  0
   -8.3751    6.2918  -28.4709 O   0  0  0  0  0  0  0  0  0  0  0  0
   -6.0254    2.0111  -32.0092 O   0  0  0  0  0  0  0  0  0  0  0  0
   -9.6285    5.4440  -31.0157 O   0  0  0  0  0  0  0  0  0  0  0  0
  -11.2374    2.8065  -29.3427 O   0  0  0  0  0  0  0  0  0  0  0  0
  -10.8418    5.2178  -27.2919 O   0  0  0  0  0  0  0  0  0  0  0  0
   -8.5982    5.2339  -29.0034 C   0  0  0  0  0  0  0  0  0  0  0  0
   -7.6048    3.2337  -30.5076 O   0  0  0  0  0  0  0  0  0  0  0  0
   -8.4339    4.8169  -30.2615 C   0  0  0  0  0  0  0  0  0  0  0  0
   -7.0131    4.7104  -30.5271 C   0  0  0  0  0  0  0  0  0  0  0  0
  2  1  1  0
  4  3  1  0
  7  4  1  0
  9  1  1  0
 10  2  1  0
 11  1  1  0
 11  6  1  0
 12  4  1  0
 13  5  1  0
 13  8  1  0
 13 11  1  0
 14 12  1  0
 14 13  1  0
M  END
>  <ID>  (1) 
conformer_0

$$$$
