
     RDKit          3D

 14 13  0  0  0  0  0  0  0  0999 V2000
  -10.0959    4.3308  -28.0740 C   0  0  0  0  0  0  0  0  0  0  0  0
   -8.7394    5.2926  -29.2764 C   0  0  0  0  0  0  0  0  0  0  0  0
   -7.2707    2.5937  -32.0238 P   0  0  0  0  0  0  0  0  0  0  0  0
   -6.0134    2.1822  -31.9111 O   0  0  0  0  0  0  0  0  0  0  0  0
   -7.7332    3.4978  -33.1997 O   0  0  0  0  0  0  0  0  0  0  0  0
   -9.9243    4.9549  -31.3536 O   0  0  0  0  0  0  0  0  0  0  0  0
   -8.3359    1.3137  -32.1998 O   0  0  0  0  0  0  0  0  0  0  0  0
   -7.8691    5.8019  -28.0058 O   0  0  0  0  0  0  0  0  0  0  0  0
  -10.9861    2.9944  -29.5734 O   0  0  0  0  0  0  0  0  0  0  0  0
   -7.8849    4.2753  -29.8742 C   0  0  0  0  0  0  0  0  0  0  0  0
   -8.1391    2.9090  -30.5329 O   0  0  0  0  0  0  0  0  0  0  0  0
   -8.0845    6.0943  -30.3625 O   0  0  0  0  0  0  0  0  0  0  0  0
  -10.6107    5.4444  -27.5793 O   0  0  0  0  0  0  0  0  0  0  0  0
  -10.1608    4.3395  -29.8235 C   0  0  0  0  0  0  0  0  0  0  0  0
  4  3  1  0
  5  3  1  0
  7  3  1  0
  8  2  1  0
 10  2  1  0
 10  7  1  0
 11 10  1  0
 12  2  1  0
 13  1  1  0
 14  1  1  0
 14  2  1  0
 14  6  1  0
 14  9  1  0
M  END
>  <ID>  (1) 
conformer_0

$$$$
