
     RDKit          3D

 13 12  0  0  0  0  0  0  0  0999 V2000
   -7.7318    4.3647  -30.2146 C   0  0  0  0  0  0  0  0  0  0  0  0
   -8.5416    5.1618  -29.2337 C   0  0  0  0  0  0  0  0  0  0  0  0
   -7.5962    2.5067  -31.8604 P   0  0  0  0  0  0  0  0  0  0  0  0
   -6.2114    1.9477  -31.9078 O   0  0  0  0  0  0  0  0  0  0  0  0
   -9.9521    5.4708  -30.9318 O   0  0  0  0  0  0  0  0  0  0  0  0
  -11.0315    2.9679  -29.3777 O   0  0  0  0  0  0  0  0  0  0  0  0
  -10.6350    5.3007  -27.4590 O   0  0  0  0  0  0  0  0  0  0  0  0
   -7.6085    3.3285  -33.2205 O   0  0  0  0  0  0  0  0  0  0  0  0
   -8.0782    3.1316  -30.7361 O   0  0  0  0  0  0  0  0  0  0  0  0
   -8.1387    6.1838  -28.6717 O   0  0  0  0  0  0  0  0  0  0  0  0
  -10.1441    4.1497  -28.1459 C   0  0  0  0  0  0  0  0  0  0  0  0
   -8.7032    1.2901  -32.0700 O   0  0  0  0  0  0  0  0  0  0  0  0
   -9.7406    4.3036  -29.5068 C   0  0  0  0  0  0  0  0  0  0  0  0
  2  1  1  0
  4  3  1  0
  8  3  1  0
  9  1  1  0
  9  3  1  0
 10  2  1  0
 11  7  1  0
 12  1  1  0
 13  2  1  0
 13  5  1  0
 13  6  1  0
 13 11  1  0
M  END
>  <ID>  (1) 
conformer_0

$$$$
