
     RDKit          3D

 11 10  0  0  0  0  0  0  0  0999 V2000
   -9.8033    4.6706  -28.6634 C   0  0  0  0  0  0  0  0  0  0  0  0
   -9.2351    4.6809  -29.7279 C   0  0  0  0  0  0  0  0  0  0  0  0
   -7.5265    2.4476  -31.6959 P   0  0  0  0  0  0  0  0  0  0  0  0
   -6.6430    1.6165  -31.6043 O   0  0  0  0  0  0  0  0  0  0  0  0
  -11.1028    5.0803  -27.6394 O   0  0  0  0  0  0  0  0  0  0  0  0
   -9.8103    5.2228  -31.2167 O   0  0  0  0  0  0  0  0  0  0  0  0
   -7.5238    3.1893  -33.0471 O   0  0  0  0  0  0  0  0  0  0  0  0
   -7.9203    3.0407  -30.8578 O   0  0  0  0  0  0  0  0  0  0  0  0
   -7.8168    4.4902  -30.0044 C   0  0  0  0  0  0  0  0  0  0  0  0
  -10.9555    3.2018  -29.8024 O   0  0  0  0  0  0  0  0  0  0  0  0
   -7.8939    6.1404  -30.0536 O   0  0  0  0  0  0  0  0  0  0  0  0
  2  1  1  0
  4  3  1  0
  5  1  1  0
  6  2  1  0
  7  3  1  0
  8  3  1  0
  9  2  1  0
  9  8  1  0
 10  1  1  0
 11  9  1  0
M  END
>  <ID>  (1) 
conformer_0

$$$$
