
     RDKit          3D

 13 12  0  0  0  0  0  0  0  0999 V2000
   -8.6805    5.0088  -29.8982 C   0  0  0  0  0  0  0  0  0  0  0  0
   -7.4619    4.2567  -29.9601 C   0  0  0  0  0  0  0  0  0  0  0  0
   -7.9866    3.4531  -33.2022 O   0  0  0  0  0  0  0  0  0  0  0  0
   -7.5430    2.7026  -31.8686 P   0  0  0  0  0  0  0  0  0  0  0  0
  -10.7198    5.2809  -27.5229 O   0  0  0  0  0  0  0  0  0  0  0  0
   -9.5917    5.7438  -30.9959 O   0  0  0  0  0  0  0  0  0  0  0  0
   -8.2629    1.2385  -31.9293 O   0  0  0  0  0  0  0  0  0  0  0  0
  -10.6681    3.3228  -29.4523 O   0  0  0  0  0  0  0  0  0  0  0  0
   -9.8847    4.4168  -29.2927 C   0  0  0  0  0  0  0  0  0  0  0  0
   -8.0841    5.9182  -28.8746 O   0  0  0  0  0  0  0  0  0  0  0  0
   -7.3969    3.0935  -30.6451 O   0  0  0  0  0  0  0  0  0  0  0  0
   -6.3845    2.5880  -32.5892 O   0  0  0  0  0  0  0  0  0  0  0  0
   -9.7389    4.2533  -27.7150 C   0  0  0  0  0  0  0  0  0  0  0  0
  2  1  1  0
  4  3  1  0
  6  1  1  0
  7  2  1  0
  9  1  1  0
  9  8  1  0
 10  1  1  0
 11  2  1  0
 11  4  1  0
 12  4  1  0
 13  5  1  0
 13  9  1  0
M  END
>  <ID>  (1) 
conformer_0

$$$$
