
     RDKit          3D

 12 11  0  0  0  0  0  0  0  0999 V2000
   -7.3156    4.2630  -30.2097 C   0  0  0  0  0  0  0  0  0  0  0  0
   -8.2488    5.0414  -29.3764 C   0  0  0  0  0  0  0  0  0  0  0  0
   -7.6951    2.5762  -32.0288 P   0  0  0  0  0  0  0  0  0  0  0  0
  -10.9814    5.1857  -27.5137 O   0  0  0  0  0  0  0  0  0  0  0  0
   -8.0766    3.2962  -33.0166 O   0  0  0  0  0  0  0  0  0  0  0  0
   -9.6012    5.5034  -30.8846 O   0  0  0  0  0  0  0  0  0  0  0  0
   -7.7250    3.1146  -30.8344 O   0  0  0  0  0  0  0  0  0  0  0  0
   -7.8953    6.0000  -28.4210 O   0  0  0  0  0  0  0  0  0  0  0  0
   -8.6034    1.2099  -32.1054 O   0  0  0  0  0  0  0  0  0  0  0  0
   -9.5797    4.7745  -29.2910 C   0  0  1  0  0  0  0  0  0  0  0  0
  -11.0080    3.3359  -29.4004 O   0  0  0  0  0  0  0  0  0  0  0  0
  -10.1005    4.1151  -28.3030 C   0  0  0  0  0  0  0  0  0  0  0  0
  2  1  2  3
  5  3  1  0
  7  1  1  0
  7  3  1  0
  8  2  1  0
  9  3  1  0
 10  2  1  0
 10  6  1  6
 12  4  1  0
 12 10  1  0
 12 11  1  0
M  END
>  <ID>  (1) 
conformer_0

$$$$
