
     RDKit          3D

 14 14  0  0  0  0  0  0  0  0999 V2000
  -10.3536    4.0343  -29.1221 C   0  0  0  0  0  0  0  0  0  0  0  0
   -9.9711    4.4881  -27.6641 C   0  0  0  0  0  0  0  0  0  0  0  0
   -7.5558    2.5229  -32.0244 P   0  0  0  0  0  0  0  0  0  0  0  0
   -7.6865    3.4548  -33.1882 O   0  0  0  0  0  0  0  0  0  0  0  0
   -8.8546    5.3780  -28.9595 C   0  0  0  0  0  0  0  0  0  0  0  0
  -11.1776    5.2243  -27.1018 O   0  0  0  0  0  0  0  0  0  0  0  0
   -5.9330    2.1331  -32.2014 O   0  0  0  0  0  0  0  0  0  0  0  0
   -8.4131    6.4358  -28.3082 O   0  0  0  0  0  0  0  0  0  0  0  0
   -8.3240    1.2110  -32.0608 O   0  0  0  0  0  0  0  0  0  0  0  0
  -10.3861    3.0507  -29.9264 O   0  0  0  0  0  0  0  0  0  0  0  0
   -7.8886    2.9706  -30.7093 O   0  0  0  0  0  0  0  0  0  0  0  0
   -8.2007    5.9674  -30.4881 O   0  0  0  0  0  0  0  0  0  0  0  0
   -8.7221    4.1517  -29.8441 C   0  0  0  0  0  0  0  0  0  0  0  0
   -7.2071    4.3163  -29.9601 C   0  0  0  0  0  0  0  0  0  0  0  0
  2  1  1  0
  4  3  1  0
  5  2  1  0
  6  2  1  0
  7  3  1  0
  8  5  1  0
 10  1  1  0
 11  3  1  0
 12  5  1  0
 13  1  1  0
 13  5  1  0
 13  9  1  0
 14 11  1  0
 14 13  1  0
M  END
>  <ID>  (1) 
conformer_0

$$$$
