
     RDKit          3D

 13 12  0  0  0  0  0  0  0  0999 V2000
   -9.0193    4.9531  -29.3516 C   0  0  0  0  0  0  0  0  0  0  0  0
   -9.9249    4.3743  -27.6958 C   0  0  0  0  0  0  0  0  0  0  0  0
   -7.5220    3.4525  -33.3290 O   0  0  0  0  0  0  0  0  0  0  0  0
   -7.2979    2.6317  -31.9585 P   0  0  0  0  0  0  0  0  0  0  0  0
  -10.9938    5.1235  -27.0296 O   0  0  0  0  0  0  0  0  0  0  0  0
   -6.2159    1.9113  -31.7472 O   0  0  0  0  0  0  0  0  0  0  0  0
   -8.5626    1.3311  -32.2731 O   0  0  0  0  0  0  0  0  0  0  0  0
   -9.4802    5.1972  -31.1446 O   0  0  0  0  0  0  0  0  0  0  0  0
   -7.8001    4.2344  -30.1756 C   0  0  0  0  0  0  0  0  0  0  0  0
   -7.8803    5.9252  -29.3414 O   0  0  0  0  0  0  0  0  0  0  0  0
  -11.2948    5.0930  -29.5324 O   0  0  0  0  0  0  0  0  0  0  0  0
   -7.7523    3.1415  -30.9344 O   0  0  0  0  0  0  0  0  0  0  0  0
  -10.2108    4.1738  -29.2167 C   0  0  0  0  0  0  0  0  0  0  0  0
  4  3  1  0
  5  2  1  0
  6  4  1  0
  8  1  1  0
  9  1  1  0
  9  7  1  0
 10  1  1  0
 12  4  1  0
 12  9  1  0
 13  1  1  0
 13  2  1  0
 13 11  1  0
M  END
>  <ID>  (1) 
conformer_0

$$$$
