
     RDKit          3D

 29 29  0  0  0  0  0  0  0  0999 V2000
   -5.6728   14.1112   17.5464 C   0  0  1  0  0  0  0  0  0  0  0  0
   -8.7979   13.1066   16.5742 C   0  0  0  0  0  0  0  0  0  0  0  0
   -4.9538   13.9269   18.2343 C   0  0  0  0  0  0  0  0  0  0  0  0
   -8.7577   14.3521   17.8183 N   0  0  0  0  0  0  0  0  0  0  0  0
   -7.3487   12.5605   15.8584 C   0  0  0  0  0  0  0  0  0  0  0  0
   -8.2039   11.8906   15.4762 N   0  0  0  0  0  0  0  0  0  0  0  0
   -3.6387   13.7094   17.3463 C   0  0  2  0  0  0  0  0  0  0  0  0
   -4.6763   14.1320   16.1508 O   0  0  0  0  0  0  0  0  0  0  0  0
   -7.0823   13.3322   16.6276 N   0  0  0  0  0  0  0  0  0  0  0  0
  -11.0155   11.6201   15.6543 N   0  0  0  0  0  0  0  0  0  0  0  0
    1.4910    7.2800   18.4601 P   0  0  0  0  0  0  0  0  0  0  0  0
   -0.2714    8.9183   17.0776 P   0  0  0  0  0  0  0  0  0  0  0  0
    2.1624    7.5095   19.8350 O   0  0  0  0  0  0  0  0  0  0  0  0
  -10.0787   12.4558   16.1551 C   0  0  0  0  0  0  0  0  0  0  0  0
   -4.0278    9.6275   16.0778 O   0  0  0  0  0  0  0  0  0  0  0  0
   -2.4865   11.6236   16.2651 O   0  0  0  0  0  0  0  0  0  0  0  0
   -4.9651   15.3971   18.8137 O   0  0  0  0  0  0  0  0  0  0  0  0
    0.3144    9.4121   15.6970 O   0  0  0  0  0  0  0  0  0  0  0  0
  -10.9013   13.4627   17.0891 N   0  0  0  0  0  0  0  0  0  0  0  0
    0.9150    6.0346   18.2104 O   0  0  0  0  0  0  0  0  0  0  0  0
   -3.6358   13.4335   19.2605 O   0  0  0  0  0  0  0  0  0  0  0  0
   -1.8268    9.9404   17.2507 O   0  0  0  0  0  0  0  0  0  0  0  0
   -0.1094    8.1390   18.2723 C   0  0  2  0  0  0  0  0  0  0  0  0
   -2.4216    9.1658   14.7118 O   0  0  0  0  0  0  0  0  0  0  0  0
    2.5111    7.5284   17.7367 O   0  0  0  0  0  0  0  0  0  0  0  0
   -2.6334   12.9950   16.2415 C   0  0  0  0  0  0  0  0  0  0  0  0
   -9.8897   14.2407   17.6980 C   0  0  0  0  0  0  0  0  0  0  0  0
   -2.5606   10.0672   16.1755 P   0  0  0  0  0  5  0  0  0  0  0  0
   -1.0524    7.9869   16.4059 O   0  0  0  0  0  0  0  0  0  0  0  0
  3  1  1  0
  5  2  1  0
  6  5  2  3
  7  3  1  0
  8  1  1  0
  8  7  1  0
  1  9  1  6
  9  5  1  0
 13 11  1  0
 14  2  1  0
 14 10  2  3
 17  3  1  0
 18 12  1  0
 19 14  1  0
 20 11  1  0
 21  3  1  0
 23 12  1  0
 25 11  1  0
 23 25  1  6
  7 26  1  6
 26 16  1  0
 27  4  2  3
 27 19  1  0
 28 15  1  0
 28 16  1  0
 28 22  1  0
 28 23  1  0
 28 24  1  0
 29 12  1  0
M  END
>  <ID>  (1) 
conformer_0

$$$$
