
     RDKit          3D

 29 30  0  0  0  0  0  0  0  0999 V2000
   -5.4153   14.1877   17.4108 C   0  0  2  0  0  0  0  0  0  0  0  0
  -10.0415   12.7764   16.1743 C   0  0  0  0  0  0  0  0  0  0  0  0
   -4.2534   13.5641   18.5239 C   0  0  1  0  0  0  0  0  0  0  0  0
   -8.7441   13.3093   16.6070 C   0  0  0  0  0  0  0  0  0  0  0  0
   -0.8875    8.2207   18.0382 C   0  0  0  0  0  0  0  0  0  0  0  0
   -3.2668   13.2575   17.3727 C   0  0  0  0  0  0  0  0  0  0  0  0
   -7.0516   13.3148   16.6476 N   0  0  0  0  0  0  0  0  0  0  0  0
   -9.0391   14.3700   17.7603 N   0  0  0  0  0  0  0  0  0  0  0  0
   -4.6101   14.1548   16.3505 O   0  0  0  0  0  0  0  0  0  0  0  0
   -4.1935    9.4700   16.3198 O   0  0  0  0  0  0  0  0  0  0  0  0
   -8.1914   12.0340   15.5036 N   0  0  0  0  0  0  0  0  0  0  0  0
   -3.0026   10.0438   16.0721 P   0  0  1  0  0  4  0  0  0  0  0  0
  -10.9503   11.8315   15.5683 N   0  0  0  0  0  0  0  0  0  0  0  0
    1.3065    7.4143   17.7884 P   0  0  0  0  0  4  0  0  0  0  0  0
    0.3573    8.9071   15.6083 O   0  0  0  0  0  0  0  0  0  0  0  0
   -2.3989    9.6832   14.6581 O   0  0  0  0  0  1  0  0  0  0  0  0
    1.8609    7.3364   19.1721 O   0  0  0  0  0  0  0  0  0  0  0  0
  -10.1021   14.3496   17.7071 C   0  0  0  0  0  0  0  0  0  0  0  0
   -5.4571   15.1536   19.1120 O   0  0  0  0  0  0  0  0  0  0  0  0
    2.0201    9.0940   17.2978 O   0  0  0  0  0  1  0  0  0  0  0  0
   -3.5219   13.9512   19.4734 O   0  0  0  0  0  0  0  0  0  0  0  0
  -11.0361   13.6538   16.9334 N   0  0  0  0  0  0  0  0  0  0  0  0
   -2.5273   12.8107   16.3348 C   0  0  0  0  0  0  0  0  0  0  0  0
   -3.0922   11.7053   16.1866 O   0  0  0  0  0  0  0  0  0  0  0  0
   -7.2270   12.6888   15.9649 C   0  0  0  0  0  0  0  0  0  0  0  0
    1.1224    6.3070   17.3783 O   0  0  0  0  0  0  0  0  0  0  0  0
   -1.7853    9.9427   16.6254 O   0  0  0  0  0  0  0  0  0  0  0  0
   -0.4479    9.0994   16.6625 P   0  0  0  0  0  0  0  0  0  0  0  0
   -6.0081   13.8837   18.5966 C   0  0  1  0  0  0  0  0  0  0  0  0
  3  1  1  0
  4  2  2  0
  6  3  1  0
  7  1  1  0
  7  4  1  0
  8  4  1  0
  1  9  1  6
 12 10  1  1
 13  2  1  0
 14  5  1  0
 16 12  1  0
 17 14  1  0
 18  8  2  0
 20 14  1  0
  3 21  1  1
 22  2  1  0
 22 18  1  0
 23  6  1  0
 24 12  1  0
 24 23  1  0
 25  7  1  0
 25 11  2  3
 26 14  1  0
 27 12  1  0
 28  5  1  0
 28 15  1  0
 28 27  1  0
 29  1  1  0
 29  3  1  0
 29 19  1  1
M  RAD  4  12   2  14   2  16   2  20   2
M  END
>  <ID>  (1) 
conformer_0

$$$$
