
     RDKit          3D

 27 27  0  0  0  0  0  0  0  0999 V2000
   -4.7147   13.4641   18.4134 C   0  0  1  0  0  0  0  0  0  0  0  0
  -10.0439   12.3174   16.0851 C   0  0  0  0  0  0  0  0  0  0  0  0
   -3.4914   13.2028   17.7914 C   0  0  1  0  0  0  0  0  0  0  0  0
   -7.1327   12.4602   15.9051 C   0  0  0  0  0  0  0  0  0  0  0  0
  -11.0702   13.2489   16.8422 N   0  0  0  0  0  0  0  0  0  0  0  0
   -8.1483   11.7553   15.3669 N   0  0  0  0  0  0  0  0  0  0  0  0
   -6.8965   13.1764   16.4059 N   0  0  0  0  0  0  0  0  0  0  0  0
   -3.7748    9.6302   16.2548 O   0  0  0  0  0  0  0  0  0  0  0  0
   -4.6823   14.3067   16.2644 O   0  0  0  0  0  0  0  0  0  0  0  0
   -1.9876    9.9517   16.4579 P   0  0  0  0  0  5  0  0  0  0  0  0
   -1.0663    8.3741   18.3971 C   0  0  0  0  0  0  0  0  0  0  0  0
  -10.8143   11.2945   15.4993 N   0  0  0  0  0  0  0  0  0  0  0  0
    0.8120    8.1454   17.4548 P   0  0  0  0  0  0  0  0  0  0  0  0
    1.9288    7.2169   18.6752 O   0  0  0  0  0  0  0  0  0  0  0  0
   -8.8091   12.9705   16.3768 C   0  0  0  0  0  0  0  0  0  0  0  0
   -2.9734   13.2371   16.4205 C   0  0  0  0  0  0  0  0  0  0  0  0
   -8.8414   14.1057   17.4368 N   0  0  0  0  0  0  0  0  0  0  0  0
   -5.1413   14.6407   19.1922 O   0  0  0  0  0  0  0  0  0  0  0  0
   -0.0103   10.6544   16.7136 O   0  0  0  0  0  0  0  0  0  0  0  0
   -2.9330   11.5330   16.8532 O   0  0  0  0  0  0  0  0  0  0  0  0
    1.6536    8.1668   16.2661 O   0  0  0  0  0  0  0  0  0  0  0  0
   -1.6602    9.1945   15.7448 O   0  0  0  0  0  0  0  0  0  0  0  0
  -10.0693   14.1158   17.5162 C   0  0  0  0  0  0  0  0  0  0  0  0
   -5.5283   13.9915   17.1671 C   0  0  2  0  0  0  0  0  0  0  0  0
   -3.3629   13.5235   19.4686 O   0  0  0  0  0  0  0  0  0  0  0  0
    1.2397    6.2340   17.1423 O   0  0  0  0  0  0  0  0  0  0  0  0
   -2.9434   10.8652   14.6347 O   0  0  0  0  0  0  0  0  0  0  0  0
  3  1  1  0
  5  2  1  0
  6  4  1  0
  7  4  2  3
 10  8  1  0
 11 10  1  0
 12  2  1  0
 14 13  1  0
 15  2  1  0
 15  6  1  0
 16  3  1  0
 17 15  2  0
  1 18  1  1
 19 10  1  0
 20 10  1  0
 20 16  1  0
 21 11  1  0
 21 13  1  0
 22 10  1  0
 23  5  2  0
 23 17  1  0
 24  1  1  0
 24  7  1  0
 24  9  1  6
  3 25  1  1
 26 13  1  0
 27 22  1  0
M  END
>  <ID>  (1) 
conformer_0

$$$$
