
     RDKit          3D

 30 31  0  0  0  0  0  0  0  0999 V2000
   -4.9770   13.7818   18.4492 C   0  0  0  0  0  0  0  0  0  0  0  0
   -8.9086   12.6606   16.0390 C   0  0  0  0  0  0  0  0  0  0  0  0
   -6.0116   14.2461   17.8404 C   0  0  0  0  0  0  0  0  0  0  0  0
   -8.0758   11.9191   15.3116 N   0  0  0  0  0  0  0  0  0  0  0  0
   -6.9075   12.4293   15.7489 C   0  0  0  0  0  0  0  0  0  0  0  0
   -9.1210   14.3594   17.6689 N   0  0  0  0  0  0  0  0  0  0  0  0
   -4.8530   14.5163   16.3649 O   0  0  0  0  0  0  0  0  0  0  0  0
  -10.7866   11.6457   15.4897 N   0  0  0  0  0  0  0  0  0  0  0  0
   -4.6687    9.3012   16.0866 O   0  0  0  0  0  0  0  0  0  0  0  0
   -7.1475   13.5867   16.8315 N   0  0  0  0  0  0  0  0  0  0  0  0
    1.5837    7.4728   18.0880 P   0  0  0  0  0  0  0  0  0  0  0  0
   -3.8656   13.4901   17.5842 C   0  0  0  0  0  0  0  0  0  0  0  0
   -3.3458    9.9522   16.1775 P   0  0  0  0  0  0  0  0  0  0  0  0
    1.8655    5.9592   18.1308 O   0  0  0  0  0  0  0  0  0  0  0  0
    0.5550   10.0173   16.2705 O   0  0  0  0  0  0  0  0  0  0  0  0
   -3.6729   11.4360   16.3162 O   0  0  0  0  0  0  0  0  0  0  0  0
  -10.2267   12.6008   16.2150 C   0  0  0  0  0  0  0  0  0  0  0  0
   -4.8464   14.9455   19.3785 O   0  0  0  0  0  0  0  0  0  0  0  0
   -2.5195   10.0003   15.1182 O   0  0  0  0  0  0  0  0  0  0  0  0
  -11.0199   13.3700   16.7455 N   0  0  0  0  0  0  0  0  0  0  0  0
    2.0373    8.2540   17.8177 O   0  0  0  0  0  0  0  0  0  0  0  0
   -0.4325    9.0249   16.4879 P   0  0  0  0  0  4  0  0  0  0  0  0
   -3.0457    9.4500   17.4177 O   0  0  0  0  0  1  0  0  0  0  0  0
   -3.2506   13.3603   19.1596 O   0  0  0  0  0  0  0  0  0  0  0  0
   -0.4172    7.9540   17.4715 C   0  0  0  0  0  0  0  0  0  0  0  0
  -10.1969   14.4632   17.7105 C   0  0  0  0  0  0  0  0  0  0  0  0
    1.7813    7.4875   19.4643 O   0  0  0  0  0  0  0  0  0  0  0  0
   -3.1835   13.1259   16.6050 C   0  0  0  0  0  0  0  0  0  0  0  0
   -0.6680    8.6006   15.3110 O   0  0  0  0  0  0  0  0  0  0  0  0
   -8.2288   13.8248   16.9227 C   0  0  0  0  0  0  0  0  0  0  0  0
  3  1  1  0
  4  2  1  0
  5  4  2  0
 10  3  1  0
 10  5  1  0
 12  1  1  0
 12  7  1  0
 13  9  1  0
 14 11  1  0
 16 13  1  0
 17  2  2  0
 17  8  1  0
 18  1  1  0
 19 13  1  0
 20 17  1  0
 21 11  1  0
 22 15  1  0
 22 19  1  0
 23 22  1  0
 24 12  1  0
 25 21  1  0
 26  6  1  0
 26 20  2  0
 27 11  1  0
 28 12  1  0
 28 16  1  0
 29 22  1  0
 29 25  1  0
 30  2  1  0
 30  6  2  0
 30 10  1  0
M  RAD  2  22   2  23   2
M  END
>  <ID>  (1) 
conformer_0

$$$$
