
     RDKit          3D

 30 33  0  0  0  0  0  0  0  0999 V2000
   -5.3601   13.6600   18.7261 C   0  0  0  0  0  0  0  0  0  0  0  0
  -10.2612   12.3074   16.1228 C   0  0  0  0  0  0  0  0  0  0  0  0
   -3.8613   12.5616   17.7402 C   0  0  0  0  0  0  0  0  0  0  0  0
   -8.9654   12.2420   15.6968 C   0  0  0  0  0  0  0  0  0  0  0  0
   -7.9806   11.6406   15.1305 N   0  0  0  0  0  0  0  0  0  0  0  0
   -8.9367   13.9839   17.5678 N   0  0  0  0  0  0  0  0  0  0  0  0
   -4.8432   14.3072   16.2862 O   0  0  0  0  0  0  0  0  0  0  0  0
  -10.8630   11.2891   15.3805 N   0  0  0  0  0  0  0  0  0  0  0  0
   -3.0379   13.0409   16.2192 C   0  0  0  0  0  0  0  0  0  0  0  0
   -7.0995   13.3177   16.3864 N   0  0  0  0  0  0  0  0  0  0  0  0
    1.6956    7.3607   18.1472 P   0  0  0  0  0  4  0  0  0  0  0  0
   -0.2109    9.0767   16.9812 P   0  0  0  0  0  0  0  0  0  0  0  0
   -3.1665   11.5017   16.6486 O   0  0  0  0  0  0  0  0  0  0  0  0
  -10.0818   13.8644   17.7864 C   0  0  0  0  0  0  0  0  0  0  0  0
    1.5455    5.9392   18.1865 O   0  0  0  0  0  0  0  0  0  0  0  0
   -3.7009    9.6767   15.6448 O   0  0  0  0  0  0  0  0  0  0  0  0
    0.0931   10.8094   16.8137 O   0  0  0  0  0  0  0  0  0  0  0  0
   -5.2192   15.1411   19.0851 O   0  0  0  0  0  0  0  0  0  0  0  0
  -10.9993   12.9674   16.9126 N   0  0  0  0  0  0  0  0  0  0  0  0
   -0.7328    8.9251   15.1687 O   0  0  0  0  0  0  0  0  0  0  0  0
   -3.4304   13.5407   19.3217 O   0  0  0  0  0  0  0  0  0  0  0  0
   -0.6047    8.5902   18.0932 C   0  0  0  0  0  0  0  0  0  0  0  0
    2.1138    7.9763   17.4228 O   0  0  0  0  0  1  0  0  0  0  0  0
   -6.8152   12.1951   15.4346 C   0  0  0  0  0  0  0  0  0  0  0  0
   -4.3845   14.0534   17.7153 C   0  0  0  0  0  0  0  0  0  0  0  0
    1.7878    7.6293   19.2129 O   0  0  0  0  0  0  0  0  0  0  0  0
   -2.5846   10.1407   16.2483 P   0  0  0  0  0  4  0  0  0  0  0  0
   -2.0742    9.8285   16.7390 O   0  0  0  0  0  1  0  0  0  0  0  0
   -8.2360   13.3911   16.6029 C   0  0  0  0  0  0  0  0  0  0  0  0
   -6.0256   14.2360   17.1464 C   0  0  0  0  0  0  0  0  0  0  0  0
  4  2  2  0
  5  4  1  0
  8  2  1  0
  9  3  1  0
 13  9  1  0
 14  6  1  0
 15 11  1  0
 17 12  1  0
 18  1  1  0
 19  2  1  0
 19 14  2  0
 20 12  1  0
 21  3  1  0
 22 11  1  0
 22 12  1  0
 23 11  1  0
 24  5  2  0
 24 10  1  0
 25  1  1  0
 25  3  1  0
 25  7  1  0
 26 11  1  0
 27 13  1  0
 27 16  1  0
 27 20  1  0
 28 27  1  0
 29  4  1  0
 29  6  2  0
 29 10  1  0
 30  1  1  0
 30  7  1  0
 30 10  1  0
 30 25  1  0
M  RAD  4  11   2  23   2  27   2  28   2
M  END
>  <ID>  (1) 
conformer_0

$$$$
