
     RDKit          3D

 28 30  0  0  0  0  0  0  0  0999 V2000
   -8.6057   12.8412   16.2823 C   0  0  1  0  0  0  0  0  0  0  0  0
   -6.1119   14.2376   17.6232 C   0  0  1  0  0  0  0  0  0  0  0  0
   -5.5713   13.8853   18.5237 C   0  0  1  0  0  0  0  0  0  0  0  0
   -7.0738   12.3035   15.6607 C   0  0  0  0  0  0  0  0  0  0  0  0
   -9.2237   13.9050   17.4495 N   0  0  0  0  0  2  0  0  0  0  0  0
   -7.8671   11.6016   15.1570 N   0  0  0  0  0  0  0  0  0  0  0  0
   -4.8640   14.2753   16.3238 O   0  0  0  0  0  0  0  0  0  0  0  0
   -4.1331   13.4830   17.6922 C   0  0  1  0  0  0  0  0  0  0  0  0
   -1.7267    9.9599   16.4930 P   0  0  0  0  0  5  0  0  0  0  0  0
  -10.7690   11.0031   15.1791 N   0  0  0  0  0  0  0  0  0  0  0  0
   -3.8811    9.7697   16.0463 O   0  0  0  0  0  0  0  0  0  0  0  0
   -7.1820   13.3273   16.5465 N   0  0  0  0  0  0  0  0  0  0  0  0
   -6.0323   15.2345   19.0810 O   0  0  0  0  0  0  0  0  0  0  0  0
    0.9998    7.9057   17.8431 P   0  0  0  0  0  5  0  0  0  0  0  0
   -2.1112    9.9976   17.4179 O   0  0  0  0  0  0  0  0  0  0  0  0
   -0.1538    8.3635   18.1729 C   0  0  2  0  0  0  0  0  0  0  0  0
   -9.8738   11.9931   15.6949 C   0  0  1  0  0  0  0  0  0  0  0  0
    2.2246    7.4102   19.1320 O   0  0  0  0  0  0  0  0  0  0  0  0
    0.9332    9.1458   15.8499 O   0  0  0  0  0  0  0  0  0  0  0  0
    2.2292    7.0739   17.3638 O   0  0  0  0  0  0  0  0  0  0  0  0
   -1.8354    9.2700   14.9912 O   0  0  0  0  0  0  0  0  0  0  0  0
  -11.0472   12.8747   16.6015 N   0  0  0  0  0  0  0  0  0  0  0  0
   -3.8321   14.3604   19.1350 O   0  0  0  0  0  0  0  0  0  0  0  0
    0.3836    6.2138   17.8541 O   0  0  0  0  0  0  0  0  0  0  0  0
   -3.1432   13.1371   16.4928 C   0  0  0  0  0  0  0  0  0  0  0  0
  -10.1293   13.6059   17.2824 C   0  0  0  0  0  0  0  0  0  0  0  0
    0.0089   10.9725   16.9079 O   0  0  0  0  0  0  0  0  0  0  0  0
   -2.7235   11.7303   16.3251 O   0  0  0  0  0  0  0  0  0  0  0  0
  3  2  1  0
  4  1  1  0
  1  5  1  1
  6  4  2  3
  7  2  1  0
  8  3  1  0
  8  7  1  0
 11  9  1  0
 12  1  1  0
  2 12  1  6
 12  4  1  0
  3 13  1  1
 15  9  1  0
 16 14  1  0
 17  1  1  0
 17 10  1  1
 18 14  1  0
 19 14  1  0
 16 20  1  6
 21  9  1  0
 21 16  1  0
 22 17  1  0
  8 23  1  1
 24 14  1  0
 25  8  1  0
 26  5  1  0
 26 22  2  0
 27  9  1  0
 28  9  1  0
 28 25  1  0
M  RAD  1   5   2
M  END
>  <ID>  (1) 
conformer_0

$$$$
