
     RDKit          3D

 29 30  0  0  0  0  0  0  0  0999 V2000
   -5.7044   13.9448   17.5840 C   0  0  0  0  0  0  0  0  0  0  0  0
   -7.1343   12.3529   15.8124 C   0  0  0  0  0  0  0  0  0  0  0  0
   -4.7872   13.7003   18.4175 C   0  0  0  0  0  0  0  0  0  0  0  0
   -8.1203   11.7360   15.4015 N   0  0  0  0  0  0  0  0  0  0  0  0
   -9.0990   12.5716   15.9605 C   0  0  0  0  0  0  0  0  0  0  0  0
  -10.9245   13.1999   16.8799 N   0  0  0  0  0  0  0  0  0  0  0  0
   -2.6547   10.2206   15.5982 P   0  0  0  0  0  5  0  0  0  0  0  0
   -7.0738   13.3670   16.6289 N   0  0  0  0  0  0  0  0  0  0  0  0
   -4.7970   14.1673   16.3877 O   0  0  0  0  0  0  0  0  0  0  0  0
   -3.7783    9.6514   15.9371 O   0  0  0  0  0  0  0  0  0  0  0  0
   -0.2765    8.4485   18.8051 C   0  0  0  0  0  0  0  0  0  0  0  0
   -3.6312   13.2270   17.6983 C   0  0  0  0  0  0  0  0  0  0  0  0
  -10.8032   11.3598   15.3909 N   0  0  0  0  0  0  0  0  0  0  0  0
   -0.7431    7.9267   15.8929 O   0  0  0  0  0  0  0  0  0  0  0  0
   -8.8813   14.4041   17.6806 N   0  0  0  0  0  0  0  0  0  0  0  0
  -10.1992   12.3816   16.2843 C   0  0  0  0  0  0  0  0  0  0  0  0
    1.0810    7.3482   18.4194 P   0  0  0  0  0  4  0  0  0  0  0  0
    1.8223    6.9621   17.7651 O   0  0  0  0  0  1  0  0  0  0  0  0
   -5.3719   14.5332   19.5059 O   0  0  0  0  0  0  0  0  0  0  0  0
    0.5134    9.8623   16.0918 O   0  0  0  0  0  0  0  0  0  0  0  0
   -2.7640   11.7006   16.1006 O   0  0  0  0  0  0  0  0  0  0  0  0
    1.4286    7.0529   19.4694 O   0  0  0  0  0  0  0  0  0  0  0  0
   -2.0383    9.6685   14.2894 O   0  0  0  0  0  0  0  0  0  0  0  0
   -2.9065   13.1096   16.5453 C   0  0  0  0  0  0  0  0  0  0  0  0
  -10.0897   14.3270   17.7589 C   0  0  0  0  0  0  0  0  0  0  0  0
   -3.3246   13.5531   19.4267 O   0  0  0  0  0  0  0  0  0  0  0  0
   -0.5787    8.8753   16.5768 P   0  0  0  0  0  0  0  0  0  0  0  0
   -1.6225    9.9991   16.5959 O   0  0  0  0  0  0  0  0  0  0  0  0
   -8.3293   13.6935   16.9625 C   0  0  0  0  0  0  0  0  0  0  0  0
  3  1  1  0
  4  2  2  0
  5  4  1  0
  8  1  1  0
  8  2  1  0
  9  1  1  0
 10  7  1  0
 12  3  1  0
 14  7  1  0
 16  5  2  0
 16  6  1  0
 16 13  1  0
 17 11  1  0
 18 17  1  0
 19  3  1  0
 21  7  1  0
 22 17  1  0
 23  7  1  0
 24 12  1  0
 24 21  1  0
 25  6  2  0
 25 15  1  0
 26  3  1  0
 27 11  1  0
 27 14  1  0
 27 20  1  0
 28  7  1  0
 29  5  1  0
 29  8  1  0
 29 15  2  0
M  RAD  2  17   2  18   2
M  END
>  <ID>  (1) 
conformer_0

$$$$
