
     RDKit          3D

 29 29  0  0  0  0  0  0  0  0999 V2000
   -5.8877   14.1455   17.9321 C   0  0  0  0  0  0  0  0  0  0  0  0
   -9.9631   12.5719   16.0853 C   0  0  0  0  0  0  0  0  0  0  0  0
   -4.9963   13.4656   18.6476 C   0  0  0  0  0  0  0  0  0  0  0  0
   -8.5595   13.3963   16.5461 C   0  0  0  0  0  0  0  0  0  0  0  0
   -8.1197   12.1416   15.4103 N   0  0  0  0  0  0  0  0  0  0  0  0
  -11.1284   13.2794   16.8464 N   0  0  0  0  0  0  0  0  0  0  0  0
   -7.0573   13.5844   16.7627 N   0  0  0  0  0  0  0  0  0  0  0  0
   -3.9996   13.4559   17.5117 C   0  0  2  0  0  0  0  0  0  0  0  0
   -4.6594   14.4371   16.4561 O   0  0  0  0  0  0  0  0  0  0  0  0
    1.3965    7.7375   18.4013 P   0  0  0  0  0  4  0  0  0  0  0  0
   -0.7771    8.9534   16.9529 P   0  0  0  0  0  0  0  0  0  0  0  0
   -1.1018    8.3165   18.3486 C   0  0  2  0  0  0  0  0  0  0  0  0
  -10.8199   11.6786   15.4947 N   0  0  0  0  0  0  0  0  0  0  0  0
    1.5350    6.6412   17.8440 O   0  0  0  0  0  0  0  0  0  0  0  0
   -2.2893    9.2226   14.8901 O   0  0  0  0  0  0  0  0  0  0  0  0
   -4.2963    9.6526   16.1916 O   0  0  0  0  0  0  0  0  0  0  0  0
    0.4256    8.7389   15.7915 O   0  0  0  0  0  0  0  0  0  0  0  0
    2.1973    8.9759   18.2866 O   0  0  0  0  0  1  0  0  0  0  0  0
   -7.1658   12.7629   15.9225 C   0  0  0  0  0  0  0  0  0  0  0  0
   -5.2683   14.8425   19.4198 O   0  0  0  0  0  0  0  0  0  0  0  0
   -9.0792   14.3703   17.6976 N   0  0  0  0  0  0  0  0  0  0  0  0
   -3.2382   11.7059   16.0367 O   0  0  0  0  0  0  0  0  0  0  0  0
   -3.6966   12.9901   19.3654 O   0  0  0  0  0  0  0  0  0  0  0  0
    1.7292    7.4331   19.7523 O   0  0  0  0  0  0  0  0  0  0  0  0
    0.0698   10.7715   16.4636 O   0  0  0  0  0  0  0  0  0  0  0  0
   -3.1480   13.1702   16.1633 C   0  0  0  0  0  0  0  0  0  0  0  0
  -10.0347   14.0883   17.5101 C   0  0  0  0  0  0  0  0  0  0  0  0
   -3.0211   10.1655   16.0319 P   0  0  0  0  0  5  0  0  0  0  0  0
   -2.2026    9.9209   16.7317 O   0  0  0  0  0  0  0  0  0  0  0  0
  3  1  1  0
  4  2  2  0
  6  2  1  0
  7  1  1  0
  7  4  1  0
  8  3  1  0
  8  9  1  6
 12 10  1  0
 12 11  1  6
 13  2  1  0
 14 10  1  0
 17 11  1  0
 18 10  1  0
 19  5  2  3
 19  7  1  0
 20  3  1  0
 21  4  1  0
 23  3  1  0
 24 10  1  0
 25 11  1  0
 26  8  1  0
 26 22  1  0
 27  6  1  0
 27 21  2  0
 28 12  1  0
 28 15  1  0
 28 16  1  0
 28 22  1  0
 29 28  1  0
M  RAD  2  10   2  18   2
M  END
>  <ID>  (1) 
conformer_0

$$$$
