
     RDKit          3D

 29 30  0  0  0  0  0  0  0  0999 V2000
   -5.6551   13.9654   17.3793 C   0  0  2  0  0  0  0  0  0  0  0  0
   -9.8018   12.2845   16.0837 C   0  0  0  0  0  0  0  0  0  0  0  0
   -5.1517   13.5725   18.6228 C   0  0  0  0  0  0  0  0  0  0  0  0
   -7.1193   12.3465   15.8174 C   0  0  0  0  0  0  0  0  0  0  0  0
   -8.8556   14.1573   17.6059 N   0  0  0  0  0  0  0  0  0  0  0  0
   -7.9511   11.6823   15.2494 N   0  0  0  0  0  0  0  0  0  0  0  0
   -4.7376   14.2501   16.2345 O   0  0  0  0  0  0  0  0  0  0  0  0
   -4.1165    9.6172   16.5167 O   0  0  0  0  0  0  0  0  0  0  0  0
   -2.8843   10.2045   16.2081 P   0  0  0  0  0  5  0  0  0  0  0  0
   -3.8829   13.3138   17.8700 C   0  0  1  0  0  0  0  0  0  0  0  0
   -6.9845   13.2166   16.4883 N   0  0  0  0  0  0  0  0  0  0  0  0
  -10.7949   11.4132   15.4659 N   0  0  0  0  0  0  0  0  0  0  0  0
    1.5986    7.7229   18.0986 P   0  0  0  0  0  4  0  0  0  0  0  0
   -3.4359   12.0091   16.1274 O   0  0  0  0  0  0  0  0  0  0  0  0
   -8.5604   12.9742   16.4543 C   0  0  0  0  0  0  0  0  0  0  0  0
   -5.4807   15.0104   19.2096 O   0  0  0  0  0  0  0  0  0  0  0  0
    2.2934    7.8923   19.1984 O   0  0  0  0  0  0  0  0  0  0  0  0
    0.1257   10.2233   16.1197 O   0  0  0  0  0  0  0  0  0  0  0  0
  -10.8632   13.2744   16.9089 N   0  0  0  0  0  0  0  0  0  0  0  0
   -1.3462    8.5605   15.6048 O   0  0  0  0  0  0  0  0  0  0  0  0
   -0.6419    8.6235   18.3149 C   0  0  0  0  0  0  0  0  0  0  0  0
    2.0390    7.9560   16.9948 O   0  0  0  0  0  1  0  0  0  0  0  0
   -2.4798    9.9858   17.3704 O   0  0  0  0  0  0  0  0  0  0  0  0
   -9.9547   14.0391   17.5318 C   0  0  0  0  0  0  0  0  0  0  0  0
   -3.2197   12.9966   16.3301 C   0  0  0  0  0  0  0  0  0  0  0  0
    1.0930    6.4618   18.3992 O   0  0  0  0  0  0  0  0  0  0  0  0
   -3.8354   13.8522   19.5416 O   0  0  0  0  0  0  0  0  0  0  0  0
   -0.5216    9.1838   16.8804 P   0  0  0  0  0  0  0  0  0  0  0  0
   -2.8588   10.2943   14.8288 O   0  0  0  0  0  0  0  0  0  0  0  0
  3  1  1  0
  6  4  2  3
  1  7  1  1
  9  8  1  0
 10  1  1  0
 10  3  1  0
 11  1  1  0
 11  4  1  0
 12  2  1  0
 14  9  1  0
 15  2  2  0
 15  5  1  0
 15 11  1  0
 16  3  1  0
 17 13  1  0
 19  2  1  0
 20  9  1  0
 21 13  1  0
 22 13  1  0
 23  9  1  0
 24  5  2  0
 24 19  1  0
 10 25  1  6
 25 14  1  0
 26 13  1  0
 27  3  1  0
 28 18  1  0
 28 20  1  0
 28 21  1  0
 29  9  1  0
M  RAD  2  13   2  22   2
M  END
>  <ID>  (1) 
conformer_0

$$$$
