
     RDKit          3D

 29 30  0  0  0  0  0  0  0  0999 V2000
   -5.8881   14.1234   17.3677 C   0  0  2  0  0  0  0  0  0  0  0  0
   -8.8762   13.2805   16.5449 C   0  0  0  0  0  0  0  0  0  0  0  0
   -4.9648   13.7348   18.3464 C   0  0  0  0  0  0  0  0  0  0  0  0
   -7.4464   12.6589   15.8997 C   0  0  0  0  0  0  0  0  0  0  0  0
   -8.4065   12.1596   15.4878 N   0  0  0  0  0  0  0  0  0  0  0  0
   -7.2017   13.4098   16.6445 N   0  0  0  0  0  0  0  0  0  0  0  0
  -11.1227   13.4003   16.8701 N   0  0  0  0  0  0  0  0  0  0  0  0
   -3.0049   10.0852   16.2330 P   0  0  0  0  0  5  0  0  0  0  0  0
   -4.8019   14.3530   16.2394 O   0  0  0  0  0  0  0  0  0  0  0  0
   -4.2033    9.5491   16.5138 O   0  0  0  0  0  0  0  0  0  0  0  0
   -3.7191   13.4924   17.4340 C   0  0  2  0  0  0  0  0  0  0  0  0
  -11.0250   11.6155   15.5741 N   0  0  0  0  0  0  0  0  0  0  0  0
   -5.0265   15.3191   18.8382 O   0  0  0  0  0  0  0  0  0  0  0  0
    1.5546    7.7431   18.3859 P   0  0  0  0  0  4  0  0  0  0  0  0
   -3.1147   11.7022   16.3663 O   0  0  0  0  0  0  0  0  0  0  0  0
    0.2770    9.9438   16.2342 O   0  0  0  0  0  0  0  0  0  0  0  0
    1.7999    8.1949   19.6351 O   0  0  0  0  0  0  0  0  0  0  0  0
  -10.2328   12.5116   16.1359 C   0  0  0  0  0  0  0  0  0  0  0  0
    2.7594    7.9156   17.7311 O   0  0  0  0  0  1  0  0  0  0  0  0
   -9.1083   14.2786   17.6613 N   0  0  0  0  0  0  0  0  0  0  0  0
    1.1741    6.3424   18.4101 O   0  0  0  0  0  0  0  0  0  0  0  0
   -3.5074   13.7002   19.2741 O   0  0  0  0  0  0  0  0  0  0  0  0
   -0.6783    8.5730   18.5078 C   0  0  0  0  0  0  0  0  0  0  0  0
   -2.1590    9.8688   17.1672 O   0  0  0  0  0  0  0  0  0  0  0  0
   -2.6239   10.1116   14.7315 O   0  0  0  0  0  0  0  0  0  0  0  0
   -2.9303   12.8905   16.2353 C   0  0  0  0  0  0  0  0  0  0  0  0
  -10.0603   14.1907   17.6768 C   0  0  0  0  0  0  0  0  0  0  0  0
   -0.6407    8.8223   16.9790 P   0  0  0  0  0  0  0  0  0  0  0  0
   -1.2400    8.4038   15.7160 O   0  0  0  0  0  0  0  0  0  0  0  0
  3  1  1  0
  5  2  1  0
  5  4  1  0
  6  1  1  0
  6  4  2  3
  1  9  1  6
 10  8  1  0
 11  3  1  0
 11  9  1  0
 13  3  1  0
 15  8  1  0
 17 14  1  0
 18  2  1  0
 18  7  1  0
 18 12  1  0
 19 14  1  0
 20  2  2  0
 21 14  1  0
 22  3  1  0
 23 14  1  0
 24  8  1  0
 25  8  1  0
 11 26  1  6
 26 15  1  0
 27  7  2  0
 27 20  1  0
 28 16  1  0
 28 23  1  0
 29  8  1  0
 29 28  1  0
M  RAD  2  14   2  19   2
M  END
>  <ID>  (1) 
conformer_0

$$$$
