
     RDKit          3D

 26 26  0  0  0  0  0  0  0  0999 V2000
   -5.7096   13.9363   17.9337 C   0  0  0  0  0  0  0  0  0  0  0  0
   -9.7182   12.3948   15.9390 C   0  0  0  0  0  0  0  0  0  0  0  0
   -4.8909   13.6912   18.5541 C   0  0  0  0  0  0  0  0  0  0  0  0
   -8.8407   14.1341   17.8120 N   0  0  0  0  0  0  0  0  0  0  0  0
   -7.8382   11.6816   15.1878 N   0  0  0  0  0  0  0  0  0  0  0  0
   -6.9318   12.3783   15.7767 C   0  0  0  0  0  0  0  0  0  0  0  0
   -4.5684   13.8766   16.1867 O   0  0  0  0  0  0  0  0  0  0  0  0
  -10.7967   11.5204   15.4090 N   0  0  0  0  0  0  0  0  0  0  0  0
   -0.7092    8.3591   17.7921 C   0  0  0  0  0  0  0  0  0  0  0  0
   -6.7939   13.2291   16.5931 N   0  0  0  0  0  0  0  0  0  0  0  0
    1.2286    7.9177   18.1500 P   0  0  0  0  0  0  0  0  0  0  0  0
   -1.8109    9.7863   16.1768 P   0  0  0  0  0  5  0  0  0  0  0  0
  -10.8411   13.3139   16.9059 N   0  0  0  0  0  0  0  0  0  0  0  0
   -2.1666    9.4149   15.0562 O   0  0  0  0  0  0  0  0  0  0  0  0
   -3.6622   13.5288   17.3564 C   0  0  2  0  0  0  0  0  0  0  0  0
   -4.0087    9.7659   16.0924 O   0  0  0  0  0  0  0  0  0  0  0  0
   -5.2040   15.3355   18.9309 O   0  0  0  0  0  0  0  0  0  0  0  0
    1.7421    7.9171   19.6868 O   0  0  0  0  0  0  0  0  0  0  0  0
    0.0808   10.3245   16.1873 O   0  0  0  0  0  0  0  0  0  0  0  0
   -8.3924   13.0384   16.4547 C   0  0  0  0  0  0  0  0  0  0  0  0
    2.3786    8.2863   17.4840 O   0  0  0  0  0  0  0  0  0  0  0  0
   -2.7628   11.2429   16.0982 O   0  0  0  0  0  0  0  0  0  0  0  0
   -9.8702   13.9469   17.4792 C   0  0  0  0  0  0  0  0  0  0  0  0
   -3.6562   13.8725   19.1602 O   0  0  0  0  0  0  0  0  0  0  0  0
    1.6540    6.3667   18.3472 O   0  0  0  0  0  0  0  0  0  0  0  0
   -2.9079   13.0128   16.2436 C   0  0  0  0  0  0  0  0  0  0  0  0
  3  1  1  0
  6  5  2  3
  8  2  1  0
 10  1  1  0
 10  6  1  0
 13  2  2  0
 14  9  1  0
 14 12  1  0
 15  3  1  0
 15  7  1  6
 16 12  1  0
 17  3  1  0
 18 11  1  0
 19 12  1  0
 20  2  1  0
 20  4  2  0
 20 10  1  0
 21  9  1  0
 21 11  1  0
 22 12  1  0
 23  4  1  0
 23 13  1  0
 24  3  1  0
 25 11  1  0
 26 15  1  0
 26 22  1  0
M  END
>  <ID>  (1) 
conformer_0

$$$$
