
     RDKit          3D

 29 30  0  0  0  0  0  0  0  0999 V2000
   -4.7361   13.6069   18.2236 C   0  0  0  0  0  0  0  0  0  0  0  0
  -10.1849   12.8083   16.4957 C   0  0  0  0  0  0  0  0  0  0  0  0
   -5.3537   14.1364   17.3788 C   0  0  0  0  0  0  0  0  0  0  0  0
   -6.5580   12.3414   15.7463 C   0  0  0  0  0  0  0  0  0  0  0  0
   -6.6711   13.2642   16.5624 N   0  0  0  0  0  0  0  0  0  0  0  0
   -8.7080   14.2940   17.7136 N   0  0  0  0  0  0  0  0  0  0  0  0
   -7.9227   11.9739   15.4442 N   0  0  0  0  0  0  0  0  0  0  0  0
   -4.4597   14.3121   16.2855 O   0  0  0  0  0  0  0  0  0  0  0  0
   -3.2055   11.9381   16.4089 O   0  0  0  0  0  0  0  0  0  0  0  0
   -3.7424    9.4490   16.0548 O   0  0  0  0  0  0  0  0  0  0  0  0
  -10.7370   11.7341   15.6557 N   0  0  0  0  0  0  0  0  0  0  0  0
   -0.2675    8.9328   16.8671 P   0  0  0  0  0  0  0  0  0  0  0  0
    1.4998    7.2511   18.1117 P   0  0  0  0  0  4  0  0  0  0  0  0
    0.2990   10.1172   16.4056 O   0  0  0  0  0  0  0  0  0  0  0  0
   -0.6493    8.0464   18.0746 C   0  0  0  0  0  0  0  0  0  0  0  0
   -3.3019   12.9548   17.8580 C   0  0  0  0  0  0  0  0  0  0  0  0
   -8.8979   12.6196   15.9844 C   0  0  0  0  0  0  0  0  0  0  0  0
   -5.2731   15.0724   18.8416 O   0  0  0  0  0  0  0  0  0  0  0  0
    2.0559    7.4973   19.1427 O   0  0  0  0  0  0  0  0  0  0  0  0
   -0.8306    8.6457   15.2386 O   0  0  0  0  0  0  0  0  0  0  0  0
  -10.7892   13.5051   17.0475 N   0  0  0  0  0  0  0  0  0  0  0  0
   -9.9579   14.5008   17.9156 C   0  0  0  0  0  0  0  0  0  0  0  0
   -3.5587   13.9150   19.2925 O   0  0  0  0  0  0  0  0  0  0  0  0
    1.4573    5.7908   18.0772 O   0  0  0  0  0  0  0  0  0  0  0  0
    1.8762    7.6961   17.0418 O   0  0  0  0  0  1  0  0  0  0  0  0
   -2.7502   12.9620   16.6019 C   0  0  0  0  0  0  0  0  0  0  0  0
   -2.5772   10.0930   16.3030 P   0  0  0  0  0  4  0  0  0  0  0  0
   -2.2951   10.3058   16.9185 O   0  0  0  0  0  1  0  0  0  0  0  0
   -8.0369   13.4652   16.7909 C   0  0  0  0  0  0  0  0  0  0  0  0
  3  1  1  0
  5  3  1  0
  5  4  1  0
  7  4  2  0
  8  3  1  0
 11  2  1  0
 14 12  1  0
 15 12  1  0
 15 13  1  0
 16  1  1  0
 17  2  2  0
 17  7  1  0
 18  1  1  0
 19 13  1  0
 20 12  1  0
 21  2  1  0
 22  6  1  0
 22 21  2  0
 23  1  1  0
 24 13  1  0
 25 13  1  0
 26  9  1  0
 26 16  1  0
 27  9  1  0
 27 10  1  0
 27 20  1  0
 28 27  1  0
 29  5  1  0
 29  6  2  0
 29 17  1  0
M  RAD  4  13   2  25   2  27   2  28   2
M  END
>  <ID>  (1) 
conformer_0

$$$$
