
     RDKit          3D

 30 30  0  0  0  0  0  0  0  0999 V2000
   -4.2115   13.3384   18.4093 C   0  0  1  0  0  0  0  0  0  0  0  0
   -5.4766   14.2457   17.0235 C   0  0  0  0  0  0  0  0  0  0  0  0
   -9.9779   14.0820   17.7350 C   0  0  0  0  0  0  0  0  0  0  0  0
  -10.9163   13.3005   17.0518 N   0  0  0  0  0  0  0  0  0  0  0  0
   -8.6028   13.1535   16.5360 C   0  0  0  0  0  0  0  0  0  0  0  0
   -7.9764   11.9054   15.3358 N   0  0  0  0  0  0  0  0  0  0  0  0
   -4.4944   14.2984   16.2866 O   0  0  0  0  0  0  0  0  0  0  0  0
   -6.8961   13.3483   16.4497 N   0  0  0  0  0  0  0  0  0  0  0  0
  -10.8695   11.4797   15.5869 N   0  0  0  0  0  0  0  0  0  0  0  0
   -2.8331    9.9954   16.0405 P   0  0  0  0  0  5  0  0  0  0  0  0
   -3.1499   13.2524   17.2156 C   0  0  0  0  0  0  0  0  0  0  0  0
    1.6324    7.1682   17.8966 P   0  0  0  0  0  4  0  0  0  0  0  0
   -3.0253   11.4945   16.2839 O   0  0  0  0  0  0  0  0  0  0  0  0
   -9.9062   12.4383   16.1878 C   0  0  0  0  0  0  0  0  0  0  0  0
   -4.0126    9.9000   16.3562 O   0  0  0  0  0  0  0  0  0  0  0  0
    0.3012   10.2489   16.3873 O   0  0  0  0  0  0  0  0  0  0  0  0
   -5.7466   14.9436   19.0980 O   0  0  0  0  0  0  0  0  0  0  0  0
    2.4437    7.4638   18.8906 O   0  0  0  0  0  0  0  0  0  0  0  0
   -8.8918   14.2095   17.7588 N   0  0  0  0  0  0  0  0  0  0  0  0
    1.5501    7.6024   16.7579 O   0  0  0  0  0  1  0  0  0  0  0  0
   -3.9343   13.3873   19.5885 O   0  0  0  0  0  0  0  0  0  0  0  0
   -2.3712    9.9018   15.1747 O   0  0  0  0  0  0  0  0  0  0  0  0
   -2.6244   12.9308   16.1655 C   0  0  0  0  0  0  0  0  0  0  0  0
   -2.5295    8.9397   17.4469 O   0  0  0  0  0  0  0  0  0  0  0  0
   -7.0889   12.5795   15.8341 C   0  0  0  0  0  0  0  0  0  0  0  0
   -0.2138    8.4014   18.1213 C   0  0  1  0  0  0  0  0  0  0  0  0
   -0.3679    8.8592   16.6090 P   0  0  0  0  0  0  0  0  0  0  0  0
    1.4811    5.9710   17.8553 O   0  0  0  0  0  0  0  0  0  0  0  0
   -0.0839    8.7457   15.4056 O   0  0  0  0  0  0  0  0  0  0  0  0
   -5.6742   13.8538   18.4883 C   0  0  2  0  0  0  0  0  0  0  0  0
  4  3  2  0
  7  2  2  0
  8  2  1  0
 11  1  1  0
 13 10  1  0
 14  4  1  0
 14  5  2  0
 14  9  1  0
 15 10  1  0
 18 12  1  0
 19  3  1  0
 19  5  1  0
 20 12  1  0
  1 21  1  1
 22 10  1  0
 23 11  1  0
 23 13  1  0
 24 10  1  0
 25  5  1  0
 25  6  2  3
 25  8  1  0
 26 10  1  0
 26 12  1  0
 27 16  1  0
 26 27  1  6
 28 12  1  0
 29 27  1  0
 30  1  1  0
 30  2  1  0
 30 17  1  1
M  RAD  2  12   2  20   2
M  END
>  <ID>  (1) 
conformer_0

$$$$
