
     RDKit          3D

 29 30  0  0  0  0  0  0  0  0999 V2000
   -8.7312   13.0735   16.6011 C   0  0  0  0  0  0  0  0  0  0  0  0
   -3.6211   13.5090   17.5192 C   0  0  2  0  0  0  0  0  0  0  0  0
   -4.8610   13.6786   18.4358 C   0  0  0  0  0  0  0  0  0  0  0  0
   -7.2605   12.4948   16.0244 C   0  0  0  0  0  0  0  0  0  0  0  0
   -8.1063   11.8111   15.3748 N   0  0  0  0  0  0  0  0  0  0  0  0
  -11.0248   13.2986   16.8227 N   0  0  0  0  0  0  0  0  0  0  0  0
   -7.0248   13.2356   16.7131 N   0  0  0  0  0  0  0  0  0  0  0  0
   -4.0083    9.3891   16.3570 O   0  0  0  0  0  0  0  0  0  0  0  0
   -4.7117   14.1753   16.3202 O   0  0  0  0  0  0  0  0  0  0  0  0
   -0.2955    9.1966   16.8152 P   0  0  0  0  0  0  0  0  0  0  0  0
    1.0774    6.2651   17.9411 O   0  0  0  0  0  0  0  0  0  0  0  0
    1.6175    7.5614   18.1649 P   0  0  0  0  0  4  0  0  0  0  0  0
   -2.7978   13.0759   16.5628 C   0  0  0  0  0  0  0  0  0  0  0  0
  -10.8645   11.4370   15.6084 N   0  0  0  0  0  0  0  0  0  0  0  0
   -2.9193   11.4573   16.2257 O   0  0  0  0  0  0  0  0  0  0  0  0
   -8.9910   14.2045   17.7974 N   0  0  0  0  0  0  0  0  0  0  0  0
   -9.9704   12.4407   16.2073 C   0  0  0  0  0  0  0  0  0  0  0  0
    0.2200   10.9328   17.2067 O   0  0  0  0  0  0  0  0  0  0  0  0
   -5.6406   14.8652   19.1926 O   0  0  0  0  0  0  0  0  0  0  0  0
   -0.3942    8.2358   18.0499 C   0  0  2  0  0  0  0  0  0  0  0  0
    2.5172    8.2062   17.3584 O   0  0  0  0  0  1  0  0  0  0  0  0
   -2.2952    9.2879   14.6589 O   0  0  0  0  0  0  0  0  0  0  0  0
   -3.4818   14.1965   19.2761 O   0  0  0  0  0  0  0  0  0  0  0  0
   -9.9897   14.1778   17.6360 C   0  0  0  0  0  0  0  0  0  0  0  0
   -5.8345   14.0120   17.6633 C   0  0  2  0  0  0  0  0  0  0  0  0
   -1.8143    9.6403   16.7666 O   0  0  0  0  0  0  0  0  0  0  0  0
    2.0552    7.3731   19.2261 O   0  0  0  0  0  0  0  0  0  0  0  0
   -2.6996    9.9882   16.1134 P   0  0  0  0  0  5  0  0  0  0  0  0
    0.0908    9.8940   15.5713 O   0  0  0  0  0  0  0  0  0  0  0  0
  3  2  1  0
  4  1  1  0
  5  4  2  3
  7  4  1  0
  9  2  1  0
 12 11  1  0
  2 13  1  6
 15 13  1  0
 16  1  2  0
 17  1  1  0
 17  6  1  0
 17 14  1  0
 18 10  1  0
 19  3  1  0
 20 10  1  1
 20 12  1  0
 21 12  1  0
 23  3  1  0
 24  6  2  0
 24 16  1  0
 25  3  1  0
 25  7  1  6
 25  9  1  0
 27 12  1  0
 28  8  1  0
 28 15  1  0
 28 20  1  0
 28 22  1  0
 28 26  1  0
 29 10  1  0
M  RAD  2  12   2  21   2
M  END
>  <ID>  (1) 
conformer_0

$$$$
