
     RDKit          3D

 30 31  0  0  0  0  0  0  0  0999 V2000
   -5.8186   14.2580   17.5617 C   0  0  0  0  0  0  0  0  0  0  0  0
  -10.2665   12.6510   16.4100 C   0  0  0  0  0  0  0  0  0  0  0  0
   -5.0759   13.9857   18.6053 C   0  0  0  0  0  0  0  0  0  0  0  0
   -8.8897   14.3977   17.6594 N   0  0  0  0  0  0  0  0  0  0  0  0
   -6.7526   12.4079   15.7909 C   0  0  0  0  0  0  0  0  0  0  0  0
   -7.9079   11.8283   15.3649 N   0  0  0  0  0  0  0  0  0  0  0  0
   -4.8468   14.2446   16.2838 O   0  0  0  0  0  0  0  0  0  0  0  0
   -6.9706   13.3050   16.5437 N   0  0  0  0  0  0  0  0  0  0  0  0
   -0.4191    9.1392   16.8311 P   0  0  0  0  0  0  0  0  0  0  0  0
   -3.9446   13.5260   17.8731 C   0  0  0  0  0  0  0  0  0  0  0  0
    1.4366    7.4248   17.9824 P   0  0  0  0  0  4  0  0  0  0  0  0
   -3.8503    9.8472   16.1831 O   0  0  0  0  0  0  0  0  0  0  0  0
  -10.8147   11.5728   15.4890 N   0  0  0  0  0  0  0  0  0  0  0  0
   -0.4358    8.1800   18.3530 C   0  0  0  0  0  0  0  0  0  0  0  0
    2.1897    6.8242   19.0204 O   0  0  0  0  0  0  0  0  0  0  0  0
  -10.1299   14.5468   17.8101 C   0  0  0  0  0  0  0  0  0  0  0  0
   -5.6644   15.3324   19.2130 O   0  0  0  0  0  0  0  0  0  0  0  0
  -10.8414   13.4092   16.9278 N   0  0  0  0  0  0  0  0  0  0  0  0
    2.1419    8.6034   17.4152 O   0  0  0  0  0  1  0  0  0  0  0  0
   -0.1828   10.8710   16.5184 O   0  0  0  0  0  0  0  0  0  0  0  0
   -1.6002    9.1024   15.7572 O   0  0  0  0  0  0  0  0  0  0  0  0
   -2.8529   11.6431   16.2292 O   0  0  0  0  0  0  0  0  0  0  0  0
   -3.6662   14.1972   19.2718 O   0  0  0  0  0  0  0  0  0  0  0  0
    0.4460    8.7539   15.5838 O   0  0  0  0  0  0  0  0  0  0  0  0
   -3.3331   13.1472   16.4983 C   0  0  0  0  0  0  0  0  0  0  0  0
   -8.9709   12.4674   15.8521 C   0  0  0  0  0  0  0  0  0  0  0  0
    1.2271    6.2908   17.2867 O   0  0  0  0  0  0  0  0  0  0  0  0
   -2.6629   10.1990   15.8437 P   0  0  0  0  0  5  0  0  0  0  0  0
   -2.4629   10.2627   14.2276 O   0  0  0  0  0  0  0  0  0  0  0  0
   -8.3087   13.5182   16.8793 C   0  0  0  0  0  0  0  0  0  0  0  0
  3  1  1  0
  6  5  2  0
  7  1  1  0
  8  1  1  0
  8  5  1  0
 10  3  1  0
 13  2  1  0
 14 11  1  0
 15 11  1  0
 16  4  2  0
 17  3  1  0
 18  2  2  0
 18 16  1  0
 19 11  1  0
 20  9  1  0
 21  9  1  0
 23  3  1  0
 24  9  1  0
 25 10  1  0
 25 22  1  0
 26  2  1  0
 26  6  1  0
 27 11  1  0
 28 12  1  0
 28 14  1  0
 28 21  1  0
 28 22  1  0
 29 28  1  0
 30  4  1  0
 30  8  1  0
 30 26  2  0
M  RAD  2  11   2  19   2
M  END
>  <ID>  (1) 
conformer_0

$$$$
