
     RDKit          3D

 28 28  0  0  0  0  0  0  0  0999 V2000
   -5.0802   13.8808   18.3073 C   0  0  2  0  0  0  0  0  0  0  0  0
   -8.7574   13.1217   16.5979 C   0  0  0  0  0  0  0  0  0  0  0  0
   -3.8198   13.3828   17.6303 C   0  0  0  0  0  0  0  0  0  0  0  0
   -8.1249   11.8707   15.4027 N   0  0  0  0  0  0  0  0  0  0  0  0
   -7.3731   12.5805   15.9017 C   0  0  0  0  0  0  0  0  0  0  0  0
  -11.1074   13.2709   16.8719 N   0  0  0  0  0  0  0  0  0  0  0  0
   -4.0843    9.3263   16.1418 O   0  0  0  0  0  0  0  0  0  0  0  0
   -4.7819   14.1536   16.2491 O   0  0  0  0  0  0  0  0  0  0  0  0
   -5.9716   14.2810   17.7901 C   0  0  1  0  0  0  0  0  0  0  0  0
  -10.9300   11.4229   15.4973 N   0  0  0  0  0  0  0  0  0  0  0  0
   -0.3492    9.0789   16.5804 P   0  0  0  0  0  0  0  0  0  0  0  0
    1.3164    7.4863   18.0411 P   0  0  0  0  0  0  0  0  0  0  0  0
   -7.1404   13.4508   16.7344 N   0  0  0  0  0  0  0  0  0  0  0  0
  -10.0802   12.3606   16.0875 C   0  0  0  0  0  0  0  0  0  0  0  0
   -3.0069   11.5563   16.2361 O   0  0  0  0  0  0  0  0  0  0  0  0
    1.9956    7.7996   19.1460 O   0  0  0  0  0  0  0  0  0  0  0  0
   -6.2698   14.8864   19.2625 O   0  0  0  0  0  0  0  0  0  0  0  0
    0.5101   10.4065   16.4044 O   0  0  0  0  0  0  0  0  0  0  0  0
   -0.9817    8.8741   15.4389 O   0  0  0  0  0  0  0  0  0  0  0  0
   -0.4542    8.4222   17.7918 C   0  0  0  0  0  0  0  0  0  0  0  0
   -3.4010   13.1446   19.2067 O   0  0  0  0  0  0  0  0  0  0  0  0
   -9.1571   14.2599   17.6829 N   0  0  0  0  0  0  0  0  0  0  0  0
   -3.0193   13.0876   16.5109 C   0  0  0  0  0  0  0  0  0  0  0  0
    1.5868    6.0875   17.8662 O   0  0  0  0  0  0  0  0  0  0  0  0
   -2.8651   10.1055   15.7718 P   0  0  1  0  0  4  0  0  0  0  0  0
  -10.0450   14.1317   17.6119 C   0  0  0  0  0  0  0  0  0  0  0  0
   -2.5753   10.2210   14.9416 O   0  0  0  0  0  1  0  0  0  0  0  0
   -4.3825   15.4556   18.8799 O   0  0  0  0  0  0  0  0  0  0  0  0
  3  1  1  0
  5  2  1  0
  5  4  2  3
  8  3  1  0
  9  1  1  0
 13  5  1  0
 13  9  1  0
 14  2  2  0
 14  6  1  0
 14 10  1  0
 16 12  1  0
  9 17  1  1
 18 11  1  0
 19 11  1  0
 20 11  1  0
 20 12  1  0
 21  3  1  0
 22  2  1  0
 23  3  1  0
 23 15  1  0
 24 12  1  0
 25  7  1  6
 25 15  1  0
 25 19  1  0
 26  6  2  0
 26 22  1  0
 27 25  1  0
  1 28  1  1
M  RAD  2  25   2  27   2
M  END
>  <ID>  (1) 
conformer_0

$$$$
