
     RDKit          3D

 29 31  0  0  0  0  0  0  0  0999 V2000
   -4.9473   14.2170   18.0246 C   0  0  0  0  0  0  0  0  0  0  0  0
   -9.9505   14.3702   17.9253 C   0  0  0  0  0  0  0  0  0  0  0  0
   -3.8321   13.5179   17.4908 C   0  0  0  0  0  0  0  0  0  0  0  0
   -8.6700   14.2920   17.7456 N   0  0  0  0  0  0  0  0  0  0  0  0
   -8.1914   11.7242   15.3590 N   0  0  0  0  0  0  0  0  0  0  0  0
   -8.8982   12.3642   16.0638 C   0  0  0  0  0  0  0  0  0  0  0  0
   -6.9206   13.1654   16.4224 N   0  0  0  0  0  0  0  0  0  0  0  0
  -10.9599   11.5269   15.7292 N   0  0  0  0  0  0  0  0  0  0  0  0
   -3.0632   12.8912   16.3923 C   0  0  0  0  0  0  0  0  0  0  0  0
   -2.4904   10.0811   15.9027 P   0  0  0  0  0  4  0  0  0  0  0  0
   -4.7591   13.8022   15.9912 O   0  0  0  0  0  0  0  0  0  0  0  0
   -3.4933    9.4465   16.4751 O   0  0  0  0  0  0  0  0  0  0  0  0
    1.3117    7.3659   18.0703 P   0  0  0  0  0  4  0  0  0  0  0  0
    1.3511    5.7022   17.6983 O   0  0  0  0  0  0  0  0  0  0  0  0
   -0.6325    8.3090   18.3700 C   0  0  0  0  0  0  0  0  0  0  0  0
  -10.7617   13.2788   17.1176 N   0  0  0  0  0  0  0  0  0  0  0  0
   -5.1981   15.8116   18.1668 O   0  0  0  0  0  0  0  0  0  0  0  0
  -10.2701   12.5200   16.4636 C   0  0  0  0  0  0  0  0  0  0  0  0
   -2.5389   11.4397   16.4155 O   0  0  0  0  0  0  0  0  0  0  0  0
    0.5031   10.0381   16.1647 O   0  0  0  0  0  0  0  0  0  0  0  0
    2.0857    7.8914   17.4200 O   0  0  0  0  0  1  0  0  0  0  0  0
   -0.9706    8.9541   15.8263 O   0  0  0  0  0  0  0  0  0  0  0  0
   -6.8550   12.1457   15.5556 C   0  0  0  0  0  0  0  0  0  0  0  0
   -3.8184   14.5806   18.9984 O   0  0  0  0  0  0  0  0  0  0  0  0
   -5.5702   14.2982   16.9446 C   0  0  0  0  0  0  0  0  0  0  0  0
   -2.4705   10.3450   14.6204 O   0  0  0  0  0  1  0  0  0  0  0  0
    1.5130    7.1324   19.0307 O   0  0  0  0  0  0  0  0  0  0  0  0
   -0.3568    8.9178   16.6988 P   0  0  0  0  0  0  0  0  0  0  0  0
   -8.1756   13.4235   16.9636 C   0  0  0  0  0  0  0  0  0  0  0  0
  3  1  1  0
  4  2  2  0
  6  5  1  0
  9  3  1  0
 11  3  1  0
 12 10  1  0
 14 13  1  0
 15 13  1  0
 16  2  1  0
 17  1  1  0
 18  6  1  0
 18  8  1  0
 18 16  2  0
 19  9  1  0
 19 10  1  0
 21 13  1  0
 22 10  1  0
 23  5  2  0
 23  7  1  0
 24  1  1  0
 25  1  1  0
 25  7  1  0
 25 11  1  0
 26 10  1  0
 27 13  1  0
 28 15  1  0
 28 20  1  0
 28 22  1  0
 29  4  1  0
 29  6  2  0
 29  7  1  0
M  RAD  4  10   2  13   2  21   2  26   2
M  END
>  <ID>  (1) 
conformer_0

$$$$
