
     RDKit          3D

 29 30  0  0  0  0  0  0  0  0999 V2000
   -5.7088   14.1854   17.5870 C   0  0  1  0  0  0  0  0  0  0  0  0
   -9.9604   14.1754   17.4740 C   0  0  0  0  0  0  0  0  0  0  0  0
   -5.0169   13.9271   18.4352 C   0  0  0  0  0  0  0  0  0  0  0  0
   -8.0702   11.7311   15.2698 N   0  0  0  0  0  0  0  0  0  0  0  0
   -8.6578   13.1656   16.4420 C   0  0  0  0  0  0  0  0  0  0  0  0
  -10.9760   13.2513   16.7119 N   0  0  0  0  0  0  0  0  0  0  0  0
   -3.8430   13.5939   17.5371 C   0  0  2  0  0  0  0  0  0  0  0  0
   -4.7862   14.1257   16.1722 O   0  0  0  0  0  0  0  0  0  0  0  0
   -2.8450   10.1345   16.0138 P   0  0  1  0  0  4  0  0  0  0  0  0
   -7.0413   13.3614   16.5387 N   0  0  0  0  0  0  0  0  0  0  0  0
    1.6568    7.5367   18.1990 P   0  0  0  0  0  5  0  0  0  0  0  0
  -10.7727   11.3599   15.3984 N   0  0  0  0  0  0  0  0  0  0  0  0
   -2.1930    9.6700   16.9439 O   0  0  0  0  0  0  0  0  0  0  0  0
   -5.1667   15.6231   18.7717 O   0  0  0  0  0  0  0  0  0  0  0  0
   -9.8643   12.3730   16.0345 C   0  0  0  0  0  0  0  0  0  0  0  0
   -8.9523   14.3132   17.5854 N   0  0  0  0  0  0  0  0  0  0  0  0
    2.1515    8.2030   19.3753 O   0  0  0  0  0  0  0  0  0  0  0  0
   -4.2609    9.9279   16.0760 O   0  0  0  0  0  0  0  0  0  0  0  0
   -0.4785    8.7701   18.2271 C   0  0  0  0  0  0  0  0  0  0  0  0
    2.1845    8.2954   17.0372 O   0  0  0  0  0  0  0  0  0  0  0  0
   -3.9917   13.6378   19.4491 O   0  0  0  0  0  0  0  0  0  0  0  0
   -2.9584   11.6362   16.2727 O   0  0  0  0  0  0  0  0  0  0  0  0
   -0.0794   10.1480   16.0039 O   0  0  0  0  0  0  0  0  0  0  0  0
   -2.9736   13.0140   16.3460 C   0  0  0  0  0  0  0  0  0  0  0  0
   -7.2317   12.4596   15.7947 C   0  0  0  0  0  0  0  0  0  0  0  0
    1.9221    6.4260   18.4006 O   0  0  0  0  0  0  0  0  0  0  0  0
   -0.2043    6.7186   16.8222 O   0  0  0  0  0  0  0  0  0  0  0  0
   -2.3976    9.5679   14.8688 O   0  0  0  0  0  1  0  0  0  0  0  0
   -0.5480    8.9250   17.0260 P   0  0  0  0  0  0  0  0  0  0  0  0
  3  1  1  0
  6  2  2  0
  7  3  1  0
  8  1  1  0
  8  7  1  0
  1 10  1  6
 10  5  1  0
 13  9  1  0
 14  3  1  0
 15  5  2  0
 15  6  1  0
 15 12  1  0
 16  2  1  0
 16  5  1  0
 17 11  1  0
  9 18  1  1
 19 11  1  0
 20 11  1  0
 21  3  1  0
 22  9  1  0
  7 24  1  6
 24 22  1  0
 25  4  2  3
 25 10  1  0
 26 11  1  0
 27 11  1  0
 28  9  1  0
 29 13  1  0
 29 19  1  0
 29 23  1  0
M  RAD  2   9   2  28   2
M  END
>  <ID>  (1) 
conformer_0

$$$$
