
     RDKit          3D

 27 27  0  0  0  0  0  0  0  0999 V2000
   -9.7942   12.2236   15.9695 C   0  0  0  0  0  0  0  0  0  0  0  0
   -5.6087   14.1787   17.4137 C   0  0  1  0  0  0  0  0  0  0  0  0
   -5.1127   13.7431   18.5696 C   0  0  1  0  0  0  0  0  0  0  0  0
   -7.8193   11.6770   15.3292 N   0  0  0  0  0  0  0  0  0  0  0  0
   -8.8127   14.1833   17.6757 N   0  0  0  0  0  0  0  0  0  0  0  0
   -7.1776   12.4661   15.8961 C   0  0  0  0  0  0  0  0  0  0  0  0
   -4.7371   14.3535   16.1640 O   0  0  0  0  0  0  0  0  0  0  0  0
   -6.9500   13.3638   16.6052 N   0  0  0  0  0  0  0  0  0  0  0  0
   -2.1328   10.0423   16.4061 P   0  0  0  0  0  5  0  0  0  0  0  0
  -10.7450   11.3115   15.3482 N   0  0  0  0  0  0  0  0  0  0  0  0
   -3.7926   13.6917   17.7156 C   0  0  1  0  0  0  0  0  0  0  0  0
    0.6724    7.8666   17.7085 P   0  0  0  0  0  5  0  0  0  0  0  0
   -3.9226    9.9587   15.6376 O   0  0  0  0  0  0  0  0  0  0  0  0
   -8.5992   13.0399   16.4962 C   0  0  0  0  0  0  0  0  0  0  0  0
   -2.6609    9.5293   17.7302 O   0  0  0  0  0  0  0  0  0  0  0  0
    2.0262    7.1210   19.2127 O   0  0  0  0  0  0  0  0  0  0  0  0
  -10.8216   13.1974   16.8750 N   0  0  0  0  0  0  0  0  0  0  0  0
    1.8825    7.2018   17.2497 O   0  0  0  0  0  0  0  0  0  0  0  0
    0.4463    9.7584   16.2993 O   0  0  0  0  0  0  0  0  0  0  0  0
   -5.1243   15.0679   19.1680 O   0  0  0  0  0  0  0  0  0  0  0  0
   -0.4023    8.2112   18.7575 C   0  0  2  0  0  0  0  0  0  0  0  0
   -2.6290   11.7185   16.1861 O   0  0  0  0  0  0  0  0  0  0  0  0
   -1.8428    9.3150   15.3102 O   0  0  0  0  0  0  0  0  0  0  0  0
   -3.5496   13.5211   19.3757 O   0  0  0  0  0  0  0  0  0  0  0  0
   -3.0054   13.2679   16.3342 C   0  0  0  0  0  0  0  0  0  0  0  0
   -9.8951   14.0059   17.5523 C   0  0  0  0  0  0  0  0  0  0  0  0
    0.4321    5.9763   18.2122 O   0  0  0  0  0  0  0  0  0  0  0  0
  3  2  1  0
  6  4  2  3
  2  7  1  6
  8  2  1  0
  8  6  1  0
 10  1  1  0
 11  3  1  0
 13  9  1  0
 14  1  2  0
 14  5  1  0
 14  6  1  0
 16 12  1  0
 17  1  1  0
 19 12  1  0
  3 20  1  1
 21  9  1  0
 21 12  1  0
 21 18  1  6
 22  9  1  0
 23  9  1  0
 23 15  1  0
 11 24  1  1
 25 11  1  0
 25 22  1  0
 26  5  2  0
 26 17  1  0
 27 12  1  0
M  END
>  <ID>  (1) 
conformer_0

$$$$
