
     RDKit          3D

 29 29  0  0  0  0  0  0  0  0999 V2000
   -3.7165   13.3708   17.5237 C   0  0  1  0  0  0  0  0  0  0  0  0
  -10.1745   12.5217   16.2216 C   0  0  0  0  0  0  0  0  0  0  0  0
   -3.0484   12.9604   16.6037 C   0  0  0  0  0  0  0  0  0  0  0  0
   -8.9366   13.1136   16.5689 C   0  0  0  0  0  0  0  0  0  0  0  0
  -11.1365   13.3922   16.9742 N   0  0  0  0  0  0  0  0  0  0  0  0
   -8.3068   11.9220   15.3326 N   0  0  0  0  0  0  0  0  0  0  0  0
   -4.7735   14.2248   16.2730 O   0  0  0  0  0  0  0  0  0  0  0  0
   -3.0945    9.9735   16.1201 P   0  0  0  0  0  5  0  0  0  0  0  0
  -11.0504   11.5789   15.5959 N   0  0  0  0  0  0  0  0  0  0  0  0
   -4.9892   13.9809   17.9782 C   0  0  0  0  0  0  0  0  0  0  0  0
   -7.2631   13.2854   16.5276 N   0  0  0  0  0  0  0  0  0  0  0  0
   -5.5977   15.3384   18.7724 O   0  0  0  0  0  0  0  0  0  0  0  0
    1.7135    7.6257   18.3739 P   0  0  0  0  0  0  0  0  0  0  0  0
   -3.0979   11.2562   16.5717 O   0  0  0  0  0  0  0  0  0  0  0  0
  -10.1827   14.3432   17.6730 C   0  0  0  0  0  0  0  0  0  0  0  0
   -0.3037    8.2622   18.1963 C   0  0  0  0  0  0  0  0  0  0  0  0
   -4.3608    9.6258   15.6751 O   0  0  0  0  0  0  0  0  0  0  0  0
    1.6213    6.3738   18.0485 O   0  0  0  0  0  0  0  0  0  0  0  0
   -1.0449    8.7108   15.7180 O   0  0  0  0  0  0  0  0  0  0  0  0
    0.1033   10.5315   16.7013 O   0  0  0  0  0  0  0  0  0  0  0  0
   -9.1996   14.3190   17.6648 N   0  0  0  0  0  0  0  0  0  0  0  0
   -3.5538    9.1910   17.3959 O   0  0  0  0  0  0  0  0  0  0  0  0
    2.8659    8.2666   18.5699 O   0  0  0  0  0  0  0  0  0  0  0  0
   -6.1181   14.1676   17.6214 C   0  0  0  0  0  0  0  0  0  0  0  0
   -0.4512    8.8960   16.8318 P   0  0  0  0  0  0  0  0  0  0  0  0
   -3.8013   14.4073   19.0853 O   0  0  0  0  0  0  0  0  0  0  0  0
   -7.4619   12.6073   15.8192 C   0  0  0  0  0  0  0  0  0  0  0  0
   -2.5126    9.8243   14.9845 O   0  0  0  0  0  0  0  0  0  0  0  0
    1.0217    8.5575   16.0653 O   0  0  0  0  0  0  0  0  0  0  0  0
  3  1  1  0
  4  2  2  0
  5  2  1  0
  1  7  1  6
  9  2  1  0
 10  1  1  0
 12 10  1  0
 14  3  1  0
 14  8  1  0
 15  5  1  0
 16  8  1  0
 16 13  1  0
 17  8  1  0
 18 13  1  0
 21  4  1  0
 21 15  2  0
 22  8  1  0
 23 13  1  0
 24 10  1  0
 24 11  1  0
 25 19  1  0
 25 20  1  0
 26 10  1  0
 27  4  1  0
 27  6  2  3
 27 11  1  0
 28  8  1  0
 28 19  1  0
 29 25  1  0
M  END
>  <ID>  (1) 
conformer_0

$$$$
