
     RDKit          3D

 31 33  0  0  0  0  0  0  0  0999 V2000
   -9.0546   12.6612   16.1474 C   0  0  0  0  0  0  0  0  0  0  0  0
   -3.6004   13.9109   17.2365 C   0  0  0  0  0  0  0  0  0  0  0  0
   -5.1582   13.6938   18.4700 C   0  0  0  0  0  0  0  0  0  0  0  0
   -8.5463   14.5336   18.0211 N   0  0  0  0  0  0  0  0  0  0  0  0
   -8.3337   12.0423   15.4959 N   0  0  0  0  0  0  0  0  0  0  0  0
   -7.0185   12.3947   15.6899 C   0  0  0  0  0  0  0  0  0  0  0  0
   -4.8447   14.1077   16.1177 O   0  0  0  0  0  0  0  0  0  0  0  0
   -0.7346    8.3578   18.3868 C   0  0  0  0  0  0  0  0  0  0  0  0
   -3.9052    9.4432   16.2302 O   0  0  0  0  0  0  0  0  0  0  0  0
   -2.7406   10.1590   15.9329 P   0  0  0  0  0  5  0  0  0  0  0  0
  -10.9938   11.7938   15.8506 N   0  0  0  0  0  0  0  0  0  0  0  0
   -6.9374   13.3553   16.6106 N   0  0  0  0  0  0  0  0  0  0  0  0
    1.2286    7.4879   18.1275 P   0  0  0  0  0  5  0  0  0  0  0  0
   -4.9983   15.2231   18.8431 O   0  0  0  0  0  0  0  0  0  0  0  0
    1.7718    6.1735   17.7790 O   0  0  0  0  0  0  0  0  0  0  0  0
  -10.2173   12.8888   16.6793 C   0  0  0  0  0  0  0  0  0  0  0  0
   -3.2687   11.8262   15.9024 O   0  0  0  0  0  0  0  0  0  0  0  0
  -10.6511   13.6439   17.4558 N   0  0  0  0  0  0  0  0  0  0  0  0
   -2.8970   13.0171   16.0477 C   0  0  0  0  0  0  0  0  0  0  0  0
    0.1017   10.2866   16.1287 O   0  0  0  0  0  0  0  0  0  0  0  0
   -0.6841    7.9883   15.4955 O   0  0  0  0  0  0  0  0  0  0  0  0
   -2.3779    9.7398   14.5350 O   0  0  0  0  0  0  0  0  0  0  0  0
   -9.7638   14.7220   18.2566 C   0  0  0  0  0  0  0  0  0  0  0  0
    1.7492    8.6997   16.8310 O   0  0  0  0  0  0  0  0  0  0  0  0
   -5.6740   14.0707   16.8898 C   0  0  0  0  0  0  0  0  0  0  0  0
   -1.9141   10.2282   16.5879 O   0  0  0  0  0  0  0  0  0  0  0  0
    1.9628    7.5984   19.1661 O   0  0  0  0  0  0  0  0  0  0  0  0
   -3.5977   13.8527   19.1867 O   0  0  0  0  0  0  0  0  0  0  0  0
   -0.5316    8.7789   16.6243 P   0  0  0  0  0  0  0  0  0  0  0  0
   -8.2369   13.7079   17.1053 C   0  0  0  0  0  0  0  0  0  0  0  0
   -3.7885   12.7296   18.1925 C   0  0  0  0  0  0  0  0  0  0  0  0
  5  1  1  0
  6  5  2  0
  7  2  1  0
 10  9  1  0
 12  6  1  0
 13  8  1  0
 14  3  1  0
 15 13  1  0
 16  1  1  0
 16 11  1  0
 17 10  1  0
 18 16  2  0
 19  2  1  0
 19 17  1  0
 21 10  1  0
 22 10  1  0
 23  4  2  0
 23 18  1  0
 24 13  1  0
 25  3  1  0
 25  7  1  0
 25 12  1  0
 26 10  1  0
 27 13  1  0
 29  8  1  0
 29 20  1  0
 29 21  1  0
 30  1  2  0
 30  4  1  0
 30 12  1  0
 31  2  1  0
 31  3  1  0
 31 28  1  0
M  END
>  <ID>  (1) 
conformer_0

$$$$
