
     RDKit          3D

 29 30  0  0  0  0  0  0  0  0999 V2000
   -4.7779   14.1799   18.2991 C   0  0  0  0  0  0  0  0  0  0  0  0
   -9.9169   14.1624   17.8467 C   0  0  0  0  0  0  0  0  0  0  0  0
   -5.6790   14.3774   17.6034 C   0  0  1  0  0  0  0  0  0  0  0  0
   -8.7179   13.2132   16.7564 C   0  0  0  0  0  0  0  0  0  0  0  0
   -3.7827   13.6224   17.3930 C   0  0  2  0  0  0  0  0  0  0  0  0
  -11.0078   13.2486   17.0050 N   0  0  0  0  0  0  0  0  0  0  0  0
   -8.2018   12.0840   15.5063 N   0  0  0  0  0  0  0  0  0  0  0  0
   -4.9164   14.3742   16.1338 O   0  0  0  0  0  0  0  0  0  0  0  0
   -3.0426   10.1942   15.9062 P   0  0  0  0  0  5  0  0  0  0  0  0
   -7.0545   13.4224   16.6212 N   0  0  0  0  0  0  0  0  0  0  0  0
  -10.8361   11.4891   15.6084 N   0  0  0  0  0  0  0  0  0  0  0  0
   -0.8131    8.6191   16.8027 P   0  0  0  0  0  0  0  0  0  0  0  0
   -4.2948    9.8185   15.6402 O   0  0  0  0  0  0  0  0  0  0  0  0
   -1.3911    8.3999   18.4768 C   0  0  1  0  0  0  0  0  0  0  0  0
   -8.8563   14.1838   17.9020 N   0  0  0  0  0  0  0  0  0  0  0  0
  -10.0248   12.4418   16.2340 C   0  0  0  0  0  0  0  0  0  0  0  0
   -3.2539   11.6652   15.7507 O   0  0  0  0  0  0  0  0  0  0  0  0
   -5.3136   15.3545   19.1788 O   0  0  0  0  0  0  0  0  0  0  0  0
   -0.3548   10.4744   16.6319 O   0  0  0  0  0  0  0  0  0  0  0  0
    1.6737    7.0348   18.8862 O   0  0  0  0  0  0  0  0  0  0  0  0
   -1.2168    8.9183   14.9119 O   0  0  0  0  0  0  0  0  0  0  0  0
   -0.4792    6.5252   16.5194 O   0  0  0  0  0  0  0  0  0  0  0  0
    2.7501    8.2835   18.0555 O   0  0  0  0  0  1  0  0  0  0  0  0
   -3.5220   13.9608   19.2407 O   0  0  0  0  0  0  0  0  0  0  0  0
   -3.3172   12.9939   16.1747 C   0  0  0  0  0  0  0  0  0  0  0  0
    1.4262    8.5161   16.2894 O   0  0  0  0  0  0  0  0  0  0  0  0
   -7.4032   12.7102   15.9485 C   0  0  0  0  0  0  0  0  0  0  0  0
    1.4387    7.6120   18.0135 P   0  0  0  0  0  4  0  0  0  0  0  0
   -2.6059    9.8062   16.3615 O   0  0  0  0  0  0  0  0  0  0  0  0
  3  1  1  0
  5  1  1  0
  6  2  2  0
  8  3  1  0
  8  5  1  0
  3 10  1  6
 13  9  1  0
 14  9  1  0
 14 12  1  6
 15  2  1  0
 15  4  1  0
 16  4  2  0
 16  6  1  0
 16 11  1  0
 17  9  1  0
 18  1  1  0
 19 12  1  0
 21  9  1  0
 22 12  1  0
 24  1  1  0
  5 25  1  6
 25 17  1  0
 27  4  1  0
 27  7  2  3
 27 10  1  0
 28 14  1  0
 28 20  1  0
 28 23  1  0
 28 26  1  0
 29  9  1  0
M  RAD  2  23   2  28   2
M  END
>  <ID>  (1) 
conformer_0

$$$$
