
     RDKit          3D

 31 33  0  0  0  0  0  0  0  0999 V2000
   -5.7299   14.2666   17.4442 C   0  0  0  0  0  0  0  0  0  0  0  0
  -10.3185   12.8579   16.5305 C   0  0  0  0  0  0  0  0  0  0  0  0
   -3.9256   13.1792   18.3710 C   0  0  0  0  0  0  0  0  0  0  0  0
   -9.0090   12.6842   16.1394 C   0  0  0  0  0  0  0  0  0  0  0  0
   -8.8184   14.5770   17.8824 N   0  0  0  0  0  0  0  0  0  0  0  0
   -8.1682   12.0558   15.4978 N   0  0  0  0  0  0  0  0  0  0  0  0
   -4.5764   14.3031   16.3932 O   0  0  0  0  0  0  0  0  0  0  0  0
   -3.5553   13.3152   17.1302 C   0  0  0  0  0  0  0  0  0  0  0  0
   -6.9889   13.5111   16.7907 N   0  0  0  0  0  0  0  0  0  0  0  0
   -3.1102   10.0265   15.7066 P   0  0  0  0  0  5  0  0  0  0  0  0
    2.0259    8.0276   19.3921 O   0  0  0  0  0  0  0  0  0  0  0  0
   -0.5027    8.0539   18.1447 C   0  0  0  0  0  0  0  0  0  0  0  0
  -10.8587   11.8814   15.5786 N   0  0  0  0  0  0  0  0  0  0  0  0
   -4.4186    9.9513   15.5488 O   0  0  0  0  0  0  0  0  0  0  0  0
  -10.8885   13.4824   17.1563 N   0  0  0  0  0  0  0  0  0  0  0  0
    1.5733    7.6709   18.1035 P   0  0  0  0  0  4  0  0  0  0  0  0
    0.4993   10.2058   16.5222 O   0  0  0  0  0  0  0  0  0  0  0  0
   -2.5440    9.9335   14.4211 O   0  0  0  0  0  0  0  0  0  0  0  0
  -10.0437   14.5883   18.0562 C   0  0  0  0  0  0  0  0  0  0  0  0
   -5.1976   14.7050   19.4698 O   0  0  0  0  0  0  0  0  0  0  0  0
   -3.3276   13.1187   19.3826 O   0  0  0  0  0  0  0  0  0  0  0  0
    2.2681    8.0163   16.9898 O   0  0  0  0  0  1  0  0  0  0  0  0
   -3.0735   11.6180   16.0769 O   0  0  0  0  0  0  0  0  0  0  0  0
   -3.2177    9.2589   17.3291 O   0  0  0  0  0  0  0  0  0  0  0  0
   -2.6476   12.7207   16.0247 C   0  0  0  0  0  0  0  0  0  0  0  0
   -6.8722   12.5250   15.7989 C   0  0  0  0  0  0  0  0  0  0  0  0
   -0.4758    9.1030   16.6603 P   0  0  0  0  0  0  0  0  0  0  0  0
    1.7481    6.3598   18.4362 O   0  0  0  0  0  0  0  0  0  0  0  0
   -5.3804   13.7867   18.6292 C   0  0  0  0  0  0  0  0  0  0  0  0
   -1.3700    9.4009   16.0209 O   0  0  0  0  0  0  0  0  0  0  0  0
   -8.2700   13.7309   17.0453 C   0  0  0  0  0  0  0  0  0  0  0  0
  4  2  2  0
  6  4  1  0
  7  1  1  0
  8  3  1  0
  8  7  1  0
  9  1  1  0
 13  2  1  0
 14 10  1  0
 15  2  1  0
 16 11  1  0
 16 12  1  0
 18 10  1  0
 19  5  1  0
 19 15  2  0
 21  3  1  0
 22 16  1  0
 23 10  1  0
 24 10  1  0
 25  8  1  0
 25 23  1  0
 26  6  2  0
 26  9  1  0
 27 12  1  0
 27 17  1  0
 28 16  1  0
 29  1  1  0
 29  3  1  0
 29 20  1  0
 30 10  1  0
 30 27  1  0
 31  4  1  0
 31  5  2  0
 31  9  1  0
M  RAD  2  16   2  22   2
M  END
>  <ID>  (1) 
conformer_0

$$$$
