
     RDKit          3D

 29 30  0  0  0  0  0  0  0  0999 V2000
   -9.8419   12.4769   16.0965 C   0  0  0  0  0  0  0  0  0  0  0  0
   -5.7213   14.1762   17.6184 C   0  0  1  0  0  0  0  0  0  0  0  0
   -5.2085   13.6687   18.4475 C   0  0  0  0  0  0  0  0  0  0  0  0
   -7.1299   12.5243   16.0013 C   0  0  0  0  0  0  0  0  0  0  0  0
   -7.9131   11.8019   15.4041 N   0  0  0  0  0  0  0  0  0  0  0  0
   -4.6066   14.2999   16.4239 O   0  0  0  0  0  0  0  0  0  0  0  0
   -8.9460   14.3561   17.5281 N   0  0  0  0  0  0  0  0  0  0  0  0
   -6.9780   13.4000   16.7357 N   0  0  0  0  0  0  0  0  0  0  0  0
   -2.9607   10.0749   16.5149 P   0  0  0  0  0  5  0  0  0  0  0  0
    1.4866    7.4269   18.0757 P   0  0  0  0  0  0  0  0  0  0  0  0
  -10.7791   11.5426   15.4711 N   0  0  0  0  0  0  0  0  0  0  0  0
   -3.6429   13.3053   17.6295 C   0  0  2  0  0  0  0  0  0  0  0  0
   -9.9977   14.2495   17.4827 C   0  0  0  0  0  0  0  0  0  0  0  0
    1.4062    5.9406   17.9394 O   0  0  0  0  0  0  0  0  0  0  0  0
   -2.0435    9.4235   15.7766 O   0  0  0  0  0  0  0  0  0  0  0  0
   -5.6150   14.9640   19.2119 O   0  0  0  0  0  0  0  0  0  0  0  0
    0.5101   10.7091   16.8118 O   0  0  0  0  0  0  0  0  0  0  0  0
    0.0739    8.2125   18.0273 C   0  0  1  0  0  0  0  0  0  0  0  0
   -4.1105   10.0422   16.5891 O   0  0  0  0  0  0  0  0  0  0  0  0
    2.4698    7.9402   17.2154 O   0  0  0  0  0  0  0  0  0  0  0  0
   -3.0332   11.3968   16.6289 O   0  0  0  0  0  0  0  0  0  0  0  0
  -10.9048   13.4618   16.8464 N   0  0  0  0  0  0  0  0  0  0  0  0
   -2.7644   12.9005   16.5861 C   0  0  0  0  0  0  0  0  0  0  0  0
   -8.5687   13.1978   16.5583 C   0  0  1  0  0  0  0  0  0  0  0  0
   -2.8839    9.0913   17.5908 O   0  0  0  0  0  0  0  0  0  0  0  0
    2.1667    7.3955   19.2302 O   0  0  0  0  0  0  0  0  0  0  0  0
   -3.8230   13.9699   19.3319 O   0  0  0  0  0  0  0  0  0  0  0  0
   -0.2800    9.0841   16.9455 P   0  0  0  0  0  0  0  0  0  0  0  0
    0.3367    9.2571   15.6021 O   0  0  0  0  0  0  0  0  0  0  0  0
  3  2  1  0
  5  4  2  3
  6  2  1  0
  2  8  1  6
  8  4  1  0
 11  1  1  0
 12  3  1  0
 12  6  1  0
 13  7  2  0
 14 10  1  0
 15  9  1  0
 16  3  1  0
 18  9  1  0
 19  9  1  0
 20 10  1  0
 18 20  1  6
 21  9  1  0
 22  1  2  0
 22 13  1  0
 12 23  1  6
 23 21  1  0
 24  1  1  0
 24  7  1  0
 24  8  1  1
 25  9  1  0
 26 10  1  0
 27  3  1  0
 28 17  1  0
 28 18  1  0
 29 28  1  0
M  END
>  <ID>  (1) 
conformer_0

$$$$
