
     RDKit          3D

 28 29  0  0  0  0  0  0  0  0999 V2000
   -5.5625   13.9779   17.5850 C   0  0  0  0  0  0  0  0  0  0  0  0
   -8.6457   13.2367   16.4407 C   0  0  0  0  0  0  0  0  0  0  0  0
   -4.7758   13.4634   18.4303 C   0  0  0  0  0  0  0  0  0  0  0  0
   -7.2143   12.7332   16.0298 C   0  0  0  0  0  0  0  0  0  0  0  0
   -4.6039   14.1131   16.2643 O   0  0  0  0  0  0  0  0  0  0  0  0
   -8.1096   12.0275   15.4434 N   0  0  0  0  0  0  0  0  0  0  0  0
  -10.9341   13.3726   16.8976 N   0  0  0  0  0  0  0  0  0  0  0  0
   -6.8808   13.4475   16.6743 N   0  0  0  0  0  0  0  0  0  0  0  0
   -4.0426    9.5295   15.8716 O   0  0  0  0  0  0  0  0  0  0  0  0
   -2.9707   10.1457   15.6315 P   0  0  0  0  0  4  0  0  0  0  0  0
  -10.8655   11.5705   15.5221 N   0  0  0  0  0  0  0  0  0  0  0  0
   -3.5179   13.1022   17.5696 C   0  0  0  0  0  0  0  0  0  0  0  0
   -0.3333    8.5257   18.2694 C   0  0  0  0  0  0  0  0  0  0  0  0
    1.2331    6.1808   17.8693 O   0  0  0  0  0  0  0  0  0  0  0  0
   -4.7850   14.8106   19.2129 O   0  0  0  0  0  0  0  0  0  0  0  0
    1.4192    7.5097   18.4733 P   0  0  0  0  0  0  0  0  0  0  0  0
   -3.1576   11.7967   15.9817 O   0  0  0  0  0  0  0  0  0  0  0  0
   -9.9884   12.5375   16.1057 C   0  0  0  0  0  3  0  0  0  0  0  0
   -8.7379   14.3106   17.6059 N   0  0  0  0  0  0  0  0  0  0  0  0
   -0.6335    8.5779   15.3724 O   0  0  0  0  0  1  0  0  0  0  0  0
    2.5262    7.7514   17.7019 O   0  0  0  0  0  0  0  0  0  0  0  0
   -3.2625   13.2903   19.2944 O   0  0  0  0  0  0  0  0  0  0  0  0
    1.8550    7.3545   19.5484 O   0  0  0  0  0  0  0  0  0  0  0  0
   -2.4095    9.9869   14.4189 O   0  0  0  0  0  1  0  0  0  0  0  0
   -2.9156   12.8331   16.2672 C   0  0  0  0  0  0  0  0  0  0  0  0
   -9.9002   14.0921   17.5687 C   0  0  0  0  0  0  0  0  0  0  0  0
   -0.7020    8.9187   16.8191 P   0  0  0  0  0  4  0  0  0  0  0  0
   -2.0330    9.9918   16.7940 O   0  0  0  0  0  0  0  0  0  0  0  0
  3  1  1  0
  4  2  1  0
  5  1  1  0
  6  2  1  0
  6  4  2  0
  8  1  1  0
  8  4  1  0
 10  9  1  0
 12  3  1  0
 15  3  1  0
 16 14  1  0
 17 10  1  0
 18  2  1  0
 18  7  1  0
 18 11  1  0
 19  2  1  0
 21 13  1  0
 21 16  1  0
 22  3  1  0
 23 16  1  0
 24 10  1  0
 25 12  1  0
 25 17  1  0
 26  7  2  0
 26 19  1  0
 27 13  1  0
 27 20  1  0
 28 10  1  0
 28 27  1  0
M  RAD  5  10   2  18   2  20   2  24   2  27   2
M  END
>  <ID>  (1) 
conformer_0

$$$$
