
     RDKit          3D

 28 29  0  0  0  0  0  0  0  0999 V2000
   -9.9334   12.3811   16.1137 C   0  0  0  0  0  0  0  0  0  0  0  0
   -5.6064   13.9076   17.1533 C   0  0  2  0  0  0  0  0  0  0  0  0
   -5.0498   13.4642   18.2054 C   0  0  1  0  0  0  0  0  0  0  0  0
   -8.6536   12.9336   16.4104 C   0  0  0  0  0  0  0  0  0  0  0  0
   -8.7607   14.0588   17.6255 N   0  0  0  0  0  0  0  0  0  0  0  0
   -8.0797   11.6854   15.2685 N   0  0  0  0  0  0  0  0  0  0  0  0
   -6.9482   13.0360   16.3133 N   0  0  0  0  0  0  0  0  0  0  0  0
   -0.7404    8.2967   18.2028 C   0  0  0  0  0  0  0  0  0  0  0  0
   -4.5537   14.2357   16.1562 O   0  0  0  0  0  0  0  0  0  0  0  0
   -3.0401   10.0971   15.6208 P   0  0  1  0  0  4  0  0  0  0  0  0
    1.3362    8.2453   18.5493 P   0  0  0  0  0  4  0  0  0  0  0  0
   -4.0574    9.4641   15.9939 O   0  0  0  0  0  0  0  0  0  0  0  0
   -9.9798   14.0860   17.6304 C   0  0  0  0  0  0  0  0  0  0  0  0
  -10.8681   11.4326   15.4938 N   0  0  0  0  0  0  0  0  0  0  0  0
    1.7582    6.7868   18.1638 O   0  0  0  0  0  0  0  0  0  0  0  0
   -3.1692   11.5255   16.0841 O   0  0  0  0  0  0  0  0  0  0  0  0
  -10.9018   13.2883   16.9138 N   0  0  0  0  0  0  0  0  0  0  0  0
   -3.5934   13.4048   17.4670 C   0  0  1  0  0  0  0  0  0  0  0  0
    0.4798   10.1111   16.2225 O   0  0  0  0  0  0  0  0  0  0  0  0
   -5.1871   14.8335   18.9332 O   0  0  0  0  0  0  0  0  0  0  0  0
    2.0202    9.4648   18.3551 O   0  0  0  0  0  1  0  0  0  0  0  0
   -1.4535    8.8544   15.8728 O   0  0  0  0  0  0  0  0  0  0  0  0
   -3.5820   13.1945   19.0712 O   0  0  0  0  0  0  0  0  0  0  0  0
    1.7217    8.0458   19.8082 O   0  0  0  0  0  0  0  0  0  0  0  0
   -7.1305   12.2412   15.6553 C   0  0  0  0  0  0  0  0  0  0  0  0
   -2.8925   13.1850   16.4262 C   0  0  0  0  0  0  0  0  0  0  0  0
   -0.6341    9.2299   16.8414 P   0  0  0  0  0  0  0  0  0  0  0  0
   -2.5056   10.2459   14.7338 O   0  0  0  0  0  1  0  0  0  0  0  0
  3  2  1  0
  4  1  2  0
  5  4  1  0
  2  7  1  6
  7  4  1  0
  9  2  1  0
 11  8  1  0
 10 12  1  6
 13  5  2  0
 14  1  1  0
 15 11  1  0
 16 10  1  0
 17  1  1  0
 17 13  1  0
 18  3  1  0
 18  9  1  0
  3 20  1  1
 21 11  1  0
 22 10  1  0
 18 23  1  1
 24 11  1  0
 25  6  2  3
 25  7  1  0
 26 16  1  0
 26 18  1  0
 27  8  1  0
 27 19  1  0
 27 22  1  0
 28 10  1  0
M  RAD  4  10   2  11   2  21   2  28   2
M  END
>  <ID>  (1) 
conformer_0

$$$$
