
     RDKit          3D

 27 27  0  0  0  0  0  0  0  0999 V2000
   -5.1711   13.8621   18.4219 C   0  0  1  0  0  0  0  0  0  0  0  0
   -9.8941   12.3118   16.0809 C   0  0  0  0  0  0  0  0  0  0  0  0
   -5.7511   14.2642   17.4108 C   0  0  1  0  0  0  0  0  0  0  0  0
   -1.3196    8.4554   18.0963 C   0  0  0  0  0  3  0  0  0  0  0  0
   -8.9781   14.1257   17.6536 N   0  0  0  0  0  0  0  0  0  0  0  0
   -7.0995   12.4971   15.9144 C   0  0  0  0  0  0  0  0  0  0  0  0
   -7.9240   11.7869   15.2922 N   0  0  0  0  0  0  0  0  0  0  0  0
   -4.6559   14.1565   16.2251 O   0  0  0  0  0  0  0  0  0  0  0  0
   -6.9503   13.3162   16.5954 N   0  0  0  0  0  0  0  0  0  0  0  0
   -1.9158    9.9415   16.1591 P   0  0  0  0  0  4  0  0  0  0  0  0
   -3.8331   13.4950   17.8154 C   0  0  2  0  0  0  0  0  0  0  0  0
  -10.8479   11.4542   15.5065 N   0  0  0  0  0  0  0  0  0  0  0  0
   -3.7717    9.5885   16.0856 O   0  0  0  0  0  0  0  0  0  0  0  0
   -8.6521   12.9420   16.4821 C   0  0  0  0  0  0  0  0  0  0  0  0
    1.2053    6.2194   17.5963 O   0  0  0  0  0  0  0  0  0  0  0  0
    0.8533    8.2654   17.5422 P   0  0  0  0  0  0  0  0  0  0  0  0
   -3.1211   11.7566   16.2151 O   0  0  0  0  0  0  0  0  0  0  0  0
    0.3337   10.3113   16.4546 O   0  0  0  0  0  0  0  0  0  0  0  0
    1.9680    8.2498   16.9610 O   0  0  0  0  0  0  0  0  0  0  0  0
   -5.3799   15.1063   19.0753 O   0  0  0  0  0  0  0  0  0  0  0  0
  -10.9332   13.2746   16.9868 N   0  0  0  0  0  0  0  0  0  0  0  0
  -10.0395   14.0427   17.6176 C   0  0  0  0  0  0  0  0  0  0  0  0
   -3.5573   13.9726   19.2398 O   0  0  0  0  0  0  0  0  0  0  0  0
   -3.1223   13.0423   16.4595 C   0  0  2  0  0  0  0  0  0  0  0  0
   -2.4351   10.3358   14.9572 O   0  0  0  0  0  0  0  0  0  0  0  0
    0.0735    8.4299   19.2126 C   0  0  0  0  0  0  0  0  0  0  0  0
    1.9963    7.1948   19.0543 O   0  0  0  0  0  0  0  0  0  0  0  0
  3  1  1  0
  7  6  2  3
  3  8  1  6
  9  3  1  0
  9  6  1  0
 10  4  1  0
 11  1  1  0
 12  2  1  0
 13 10  1  0
 14  2  2  0
 14  5  1  0
 14  6  1  0
 16 15  1  0
 18 10  1  0
 19 16  1  0
  1 20  1  1
 21  2  1  0
 22  5  2  0
 22 21  1  0
 11 23  1  6
 24 11  1  0
 24 17  1  6
 25 10  1  0
 25 24  1  0
 26  4  1  0
 26 19  1  0
 27 16  1  0
M  RAD  2   4   2  10   2
M  END
>  <ID>  (1) 
conformer_0

$$$$
