
     RDKit          3D

 29 29  0  0  0  0  0  0  0  0999 V2000
   -9.9225   12.2209   15.8120 C   0  0  0  0  0  0  0  0  0  0  0  0
   -5.9418   14.1388   17.7586 C   0  0  0  0  0  0  0  0  0  0  0  0
   -5.0264   13.9305   18.4613 C   0  0  0  0  0  0  0  0  0  0  0  0
   -4.0167   13.4600   17.6036 C   0  0  2  0  0  0  0  0  0  0  0  0
   -8.6013   13.1352   16.1919 C   0  0  0  0  0  0  0  0  0  0  0  0
   -9.1466   14.0737   17.5224 N   0  0  0  0  0  0  0  0  0  0  0  0
   -7.9550   11.8391   15.2524 N   0  0  0  0  0  0  0  0  0  0  0  0
   -4.7613   14.1085   16.2813 O   0  0  0  0  0  0  0  0  0  0  0  0
   -4.4906    9.4344   16.0552 O   0  0  0  0  0  0  0  0  0  0  0  0
   -3.0106   10.0172   16.0797 P   0  0  0  0  0  0  0  0  0  0  0  0
   -2.5910    9.5808   17.1556 O   0  0  0  0  0  0  0  0  0  0  0  0
    1.9176    7.6673   18.1982 P   0  0  0  0  0  4  0  0  0  0  0  0
  -10.7291   11.1849   15.3548 N   0  0  0  0  0  0  0  0  0  0  0  0
   -7.0991   13.4691   16.5208 N   0  0  0  0  0  0  0  0  0  0  0  0
    0.5204    9.6825   16.1740 O   0  0  0  0  0  0  0  0  0  0  0  0
   -5.5962   15.0502   19.2935 O   0  0  0  0  0  0  0  0  0  0  0  0
   -7.1021   12.4948   15.7422 C   0  0  0  0  0  0  0  0  0  0  0  0
  -11.0333   13.0401   16.5362 N   0  0  0  0  0  0  0  0  0  0  0  0
    2.6750    7.5255   19.5445 O   0  0  0  0  0  0  0  0  0  0  0  0
    2.3439    7.8226   17.3138 O   0  0  0  0  0  1  0  0  0  0  0  0
   -0.3329    8.6190   18.2929 C   0  0  2  0  0  0  0  0  0  0  0  0
   -3.2717   11.5404   16.1299 O   0  0  0  0  0  0  0  0  0  0  0  0
   -3.2171   12.8453   16.4496 C   0  0  0  0  0  0  0  0  0  0  0  0
    1.5765    6.0513   18.3285 O   0  0  0  0  0  0  0  0  0  0  0  0
   -2.5351    9.6283   14.9216 O   0  0  0  0  0  1  0  0  0  0  0  0
  -10.0192   13.7245   17.1899 C   0  0  0  0  0  0  0  0  0  0  0  0
   -0.5202    7.6256   16.0340 O   0  0  0  0  0  0  0  0  0  0  0  0
   -3.6098   14.4060   19.1790 O   0  0  0  0  0  0  0  0  0  0  0  0
   -0.2915    8.7787   16.9198 P   0  0  1  0  0  4  0  0  0  0  0  0
  3  2  1  0
  4  3  1  0
  5  1  1  0
  6  5  2  0
  4  8  1  6
 10  9  1  0
 11 10  1  0
 13  1  1  0
 14  2  1  0
 14  5  1  0
 16  3  1  0
 17  7  2  3
 17 14  1  0
 18  1  2  0
 19 12  1  0
 20 12  1  0
 21 12  1  0
 22 10  1  0
 23  4  1  0
 23 22  1  0
 24 12  1  0
 26  6  1  0
 26 18  1  0
 21 27  1  6
 28  3  1  0
 29 11  1  0
 29 15  1  1
 29 21  1  0
 29 25  1  0
M  RAD  4  12   2  20   2  25   2  29   2
M  END
>  <ID>  (1) 
conformer_0

$$$$
