
     RDKit          3D

 29 30  0  0  0  0  0  0  0  0999 V2000
  -10.0630   14.1598   17.7720 C   0  0  0  0  0  0  0  0  0  0  0  0
   -4.2071   13.2015   18.3647 C   0  0  1  0  0  0  0  0  0  0  0  0
   -5.8560   14.2800   17.1461 C   0  0  1  0  0  0  0  0  0  0  0  0
  -10.9697   13.2149   16.8640 N   0  0  0  0  0  0  0  0  0  0  0  0
   -0.4655    8.2789   18.4537 C   0  0  0  0  0  0  0  0  0  0  0  0
   -8.7681   13.1534   16.6671 C   0  0  0  0  0  0  0  0  0  0  0  0
   -8.1121   11.9696   15.3487 N   0  0  0  0  0  0  0  0  0  0  0  0
   -4.8531   14.1039   16.2053 O   0  0  0  0  0  0  0  0  0  0  0  0
   -4.3070    9.3963   16.1822 O   0  0  0  0  0  0  0  0  0  0  0  0
   -3.6374   13.5464   17.0538 C   0  0  2  0  0  0  0  0  0  0  0  0
   -3.1898   10.1136   15.9843 P   0  0  0  0  0  5  0  0  0  0  0  0
   -7.1591   13.3590   16.5807 N   0  0  0  0  0  0  0  0  0  0  0  0
  -10.7869   11.2802   15.4928 N   0  0  0  0  0  0  0  0  0  0  0  0
   -3.3493   11.8209   16.4016 O   0  0  0  0  0  0  0  0  0  0  0  0
    0.0733   10.3067   16.3015 O   0  0  0  0  0  0  0  0  0  0  0  0
   -8.9659   14.1808   17.8325 N   0  0  0  0  0  0  0  0  0  0  0  0
   -9.9460   12.3491   16.1708 C   0  0  0  0  0  0  0  0  0  0  0  0
    1.8472    7.1020   19.0007 O   0  0  0  0  0  0  0  0  0  0  0  0
   -5.1204   15.4658   18.6303 O   0  0  0  0  0  0  0  0  0  0  0  0
    2.0348    8.0139   17.5469 O   0  0  0  0  0  1  0  0  0  0  0  0
    1.2832    7.6307   18.2330 P   0  0  2  0  0  4  0  0  0  0  0  0
   -3.8834   13.4690   19.4625 O   0  0  0  0  0  0  0  0  0  0  0  0
   -1.2235    8.8205   15.0359 O   0  0  0  0  0  0  0  0  0  0  0  0
   -2.7708   12.8304   16.2156 C   0  0  0  0  0  0  0  0  0  0  0  0
   -7.4331   12.6176   15.8711 C   0  0  0  0  0  0  0  0  0  0  0  0
   -2.7676   10.4149   14.6129 O   0  0  0  0  0  0  0  0  0  0  0  0
   -0.8396    9.3461   16.4677 P   0  0  0  0  0  0  0  0  0  0  0  0
   -2.4143    9.8630   16.8698 O   0  0  0  0  0  0  0  0  0  0  0  0
   -5.5300   14.0493   18.4536 C   0  0  2  0  0  0  0  0  0  0  0  0
  4  1  2  0
  8  3  1  0
 10  2  1  0
 10  8  1  0
 11  9  1  0
  3 12  1  6
 14 11  1  0
 16  1  1  0
 16  6  1  0
 17  4  1  0
 17  6  2  0
 17 13  1  0
 21  5  1  0
 21 18  1  1
 21 20  1  0
  2 22  1  1
 23 11  1  0
 10 24  1  6
 24 14  1  0
 25  6  1  0
 25  7  2  3
 25 12  1  0
 26 11  1  0
 27  5  1  0
 27 15  1  0
 27 23  1  0
 28 11  1  0
 29  2  1  0
 29  3  1  0
 29 19  1  1
M  RAD  2  20   2  21   2
M  END
>  <ID>  (1) 
conformer_0

$$$$
