
     RDKit          3D

 26 27  0  0  0  0  0  0  0  0999 V2000
   -5.7742   14.0645   17.4808 C   0  0  1  0  0  0  0  0  0  0  0  0
   -8.5277   13.2768   16.4909 C   0  0  1  0  0  0  0  0  0  0  0  0
   -4.9821   13.4265   18.5602 C   0  0  0  0  0  0  0  0  0  0  0  0
   -8.2159   11.8512   15.3153 N   0  0  0  0  0  0  0  0  0  0  0  0
   -7.4023   12.4994   15.7762 C   0  0  0  0  0  0  0  0  0  0  0  0
  -10.9830   13.2819   16.7177 N   0  0  0  0  0  0  0  0  0  0  0  0
   -4.8545   14.3230   16.2906 O   0  0  0  0  0  0  0  0  0  0  0  0
   -7.0752   13.5457   16.6640 N   0  0  0  0  0  0  0  0  0  0  0  0
   -3.7927   13.1091   17.4627 C   0  0  0  0  0  0  0  0  0  0  0  0
  -10.8241   11.3986   15.4889 N   0  0  0  0  0  0  0  0  0  0  0  0
   -3.7815    9.4767   16.5229 O   0  0  0  0  0  0  0  0  0  0  0  0
   -0.2451    8.9019   17.0835 P   0  0  0  0  0  0  0  0  0  0  0  0
    1.4833    7.3499   18.4695 P   0  0  0  0  0  0  0  0  0  0  0  0
    0.3380   10.2366   16.4840 O   0  0  0  0  0  0  0  0  0  0  0  0
   -9.9767   12.3585   15.9908 C   0  0  0  0  0  3  0  0  0  0  0  0
   -5.1274   14.6871   19.3952 O   0  0  0  0  0  0  0  0  0  0  0  0
    1.2998    6.1811   17.9534 O   0  0  0  0  0  0  0  0  0  0  0  0
   -1.3008    8.8787   15.8005 O   0  0  0  0  0  0  0  0  0  0  0  0
   -0.3919    8.3943   18.4163 C   0  0  0  0  0  0  0  0  0  0  0  0
   -9.0510   14.2503   17.6748 N   0  0  0  0  0  0  0  0  0  0  0  0
    2.1457    7.6398   19.5039 O   0  0  0  0  0  0  0  0  0  0  0  0
   -2.4246   10.7445   16.2936 O   0  0  0  0  0  0  0  0  0  0  0  0
   -3.4362   13.0415   19.2213 O   0  0  0  0  0  0  0  0  0  0  0  0
   -3.0894   12.8845   16.2019 C   0  0  0  0  0  0  0  0  0  0  0  0
   -9.8234   14.1180   17.4987 C   0  0  0  0  0  0  0  0  0  0  0  0
   -2.5101    9.8612   16.3245 P   0  0  0  0  0  0  0  0  0  0  0  0
  3  1  1  0
  5  2  1  0
  5  4  2  3
  1  7  1  6
  8  1  1  0
  8  2  1  0
  8  5  1  0
  9  3  1  0
 14 12  1  0
 15  2  1  0
 15  6  1  0
 15 10  1  0
 16  3  1  0
 17 13  1  0
 18 12  1  0
 19 12  1  0
 19 13  1  0
  2 20  1  6
 21 13  1  0
 23  3  1  0
 24  9  1  0
 24 22  1  0
 25  6  2  0
 25 20  1  0
 26 11  1  0
 26 18  1  0
 26 22  1  0
M  RAD  1  15   2
M  END
>  <ID>  (1) 
conformer_0

$$$$
