
     RDKit          3D

 28 28  0  0  0  0  0  0  0  0999 V2000
   -5.1538   13.7397   18.5754 C   0  0  1  0  0  0  0  0  0  0  0  0
   -9.8509   12.5331   16.1093 C   0  0  0  0  0  0  0  0  0  0  0  0
   -3.6771   13.5364   17.7302 C   0  0  2  0  0  0  0  0  0  0  0  0
   -8.5729   14.3775   17.6704 N   0  0  0  0  0  0  0  0  0  0  0  0
   -8.4199   13.1572   16.4188 C   0  0  0  0  0  0  0  0  0  0  0  0
   -8.0289   11.8084   15.2787 N   0  0  0  0  0  0  0  0  0  0  0  0
   -4.4705   14.2238   16.2345 O   0  0  0  0  0  0  0  0  0  0  0  0
   -2.7746   10.1971   15.9293 P   0  0  1  0  0  4  0  0  0  0  0  0
   -3.8173    9.9292   16.3792 O   0  0  0  0  0  0  0  0  0  0  0  0
   -2.7536   13.1733   16.6090 C   0  0  0  0  0  0  0  0  0  0  0  0
  -10.9010   11.7301   15.6464 N   0  0  0  0  0  0  0  0  0  0  0  0
   -6.7952   13.3406   16.4298 N   0  0  0  0  0  0  0  0  0  0  0  0
    1.2895    6.7067   17.5516 O   0  0  0  0  0  0  0  0  0  0  0  0
    1.1417    7.7455   18.6687 P   0  0  0  0  0  4  0  0  0  0  0  0
    0.6373    8.8293   15.9305 O   0  0  0  0  0  0  0  0  0  0  0  0
   -0.3360    8.3613   18.7599 C   0  0  0  0  0  0  0  0  0  0  0  0
  -10.7167   13.4289   17.0642 N   0  0  0  0  0  0  0  0  0  0  0  0
   -4.8217   15.1062   19.0852 O   0  0  0  0  0  0  0  0  0  0  0  0
   -6.9941   12.4070   15.7367 C   0  0  0  0  0  0  0  0  0  0  0  0
   -2.7012   11.6304   16.2574 O   0  0  0  0  0  0  0  0  0  0  0  0
   -1.2614    9.0608   16.1069 O   0  0  0  0  0  0  0  0  0  0  0  0
    1.9599    7.3836   19.7450 O   0  0  0  0  0  0  0  0  0  0  0  0
    2.0801    8.5626   17.9562 O   0  0  0  0  0  1  0  0  0  0  0  0
   -2.4472    9.9229   14.5977 O   0  0  0  0  0  1  0  0  0  0  0  0
   -9.7922   14.1652   17.6106 C   0  0  0  0  0  0  0  0  0  0  0  0
   -3.3012   13.6157   19.2401 O   0  0  0  0  0  0  0  0  0  0  0  0
   -5.4331   14.0894   17.3543 C   0  0  0  0  0  0  0  0  0  0  0  0
   -0.4140    8.7367   16.6396 P   0  0  0  0  0  0  0  0  0  0  0  0
  3  1  1  0
  5  2  2  0
  5  4  1  0
  8  9  1  1
 10  3  1  0
 11  2  1  0
 12  5  1  0
 14 13  1  0
 16 14  1  0
 17  2  1  0
  1 18  1  1
 19  6  2  3
 19 12  1  0
 20  8  1  0
 20 10  1  0
 21  8  1  0
 22 14  1  0
 23 14  1  0
 24  8  1  0
 25  4  2  0
 25 17  1  0
  3 26  1  1
 27  1  1  0
 27  7  2  0
 27 12  1  0
 28 15  1  0
 28 16  1  0
 28 21  1  0
M  RAD  4   8   2  14   2  23   2  24   2
M  END
>  <ID>  (1) 
conformer_0

$$$$
