
     RDKit          3D

 28 30  0  0  0  0  0  0  0  0999 V2000
   -3.9026   13.9934   17.0061 C   0  0  0  0  0  0  0  0  0  0  0  0
   -9.9861   12.5388   16.2536 C   0  0  0  0  0  0  0  0  0  0  0  0
   -3.2956   12.9547   16.4827 C   0  0  0  0  0  0  0  0  0  0  0  0
   -8.8561   14.3093   17.8263 N   0  0  0  0  0  0  0  0  0  0  0  0
   -7.1548   12.5236   15.8152 C   0  0  0  0  0  0  0  0  0  0  0  0
   -8.2208   11.9347   15.3814 N   0  0  0  0  0  0  0  0  0  0  0  0
   -6.9823   13.1626   16.5853 N   0  0  0  0  0  0  0  0  0  0  0  0
    1.4894    7.8146   17.9933 P   0  0  0  0  0  4  0  0  0  0  0  0
    1.7135    6.9071   18.4641 O   0  0  0  0  0  0  0  0  0  0  0  0
   -4.7809   15.4628   18.4487 O   0  0  0  0  0  0  0  0  0  0  0  0
   -4.9023   14.0952   16.0721 O   0  0  0  0  0  0  0  0  0  0  0  0
  -10.8573   11.5578   15.5438 N   0  0  0  0  0  0  0  0  0  0  0  0
   -1.6343    9.3510   15.2218 O   0  0  0  0  0  0  0  0  0  0  0  0
  -10.9648   13.3729   17.0510 N   0  0  0  0  0  0  0  0  0  0  0  0
   -3.2408   10.0297   16.4138 P   0  0  0  0  0  5  0  0  0  0  0  0
   -4.6907   13.4785   18.0818 C   0  0  0  0  0  0  0  0  0  0  0  0
   -8.7009   13.1046   16.6018 C   0  0  0  0  0  0  0  0  0  0  0  0
   -0.8324    8.6023   18.2331 C   0  0  0  0  0  0  0  0  0  0  0  0
    0.9295    9.1081   16.1311 O   0  0  0  0  0  0  0  0  0  0  0  0
   -4.4830    9.7237   16.6382 O   0  0  0  0  0  0  0  0  0  0  0  0
    2.3851    8.7620   17.9588 O   0  0  0  0  0  1  0  0  0  0  0  0
   -3.5180   11.4510   16.1010 O   0  0  0  0  0  0  0  0  0  0  0  0
   -2.7511   14.5826   17.8558 O   0  0  0  0  0  0  0  0  0  0  0  0
  -10.0150   14.3372   17.6974 C   0  0  0  0  0  0  0  0  0  0  0  0
   -2.9008    9.6135   16.9478 O   0  0  0  0  0  0  0  0  0  0  0  0
   -0.1891   10.9000   16.4257 O   0  0  0  0  0  0  0  0  0  0  0  0
   -0.6271    9.1080   16.5077 P   0  0  0  0  0  0  0  0  0  0  0  0
   -5.9051   14.1153   17.5977 C   0  0  0  0  0  0  0  0  0  0  0  0
  3  1  1  0
  6  5  2  0
  7  5  1  0
  9  8  1  0
 11  1  1  0
 12  2  1  0
 14  2  2  0
 15 13  1  0
 16  1  1  0
 17  2  1  0
 17  4  1  0
 17  6  1  0
 17  7  1  0
 18  8  1  0
 18 15  1  0
 20 15  1  0
 21  8  1  0
 22  3  1  0
 22 15  1  0
 23  1  1  0
 24  4  2  0
 24 14  1  0
 25 15  1  0
 27 13  1  0
 27 19  1  0
 27 26  1  0
 28  7  1  0
 28 10  1  0
 28 11  1  0
 28 16  1  0
M  RAD  2   8   2  21   2
M  END
>  <ID>  (1) 
conformer_0

$$$$
