
     RDKit          3D

 30 32  0  0  0  0  0  0  0  0999 V2000
   -6.8739   12.4430   15.6599 C   0  0  0  0  0  0  0  0  0  0  0  0
   -3.9488   13.9384   17.2708 C   0  0  0  0  0  0  0  0  0  0  0  0
   -5.2817   14.0494   18.7645 C   0  0  0  0  0  0  0  0  0  0  0  0
   -7.9357   11.9289   15.2830 N   0  0  0  0  0  0  0  0  0  0  0  0
   -9.0455   12.6767   15.9629 C   0  0  0  0  0  0  0  0  0  0  0  0
   -8.8479   14.3867   17.6952 N   0  0  0  0  0  0  0  0  0  0  0  0
   -4.8052   14.2811   16.3667 O   0  0  0  0  0  0  0  0  0  0  0  0
   -2.8606   10.1936   16.1062 P   0  0  0  0  0  4  0  0  0  0  0  0
   -6.9903   13.4960   16.6965 N   0  0  0  0  0  0  0  0  0  0  0  0
   -3.9206    9.5287   16.4530 O   0  0  0  0  0  0  0  0  0  0  0  0
  -10.9320   11.5272   15.5670 N   0  0  0  0  0  0  0  0  0  0  0  0
   -1.3256    9.4218   16.3805 O   0  0  0  0  0  0  0  0  0  0  0  0
  -10.2286   12.6197   16.2544 C   0  0  0  0  0  0  0  0  0  0  0  0
    0.8455    7.3208   17.9530 P   0  0  0  0  0  4  0  0  0  0  0  0
   -5.9394   14.2742   17.4322 C   0  0  0  0  0  0  0  0  0  0  0  0
   -0.5929    8.4610   18.5637 C   0  0  0  0  0  0  0  0  0  0  0  0
   -0.1323    6.4666   16.3418 O   0  0  0  0  0  0  0  0  0  0  0  0
   -5.1674   15.2497   19.2333 O   0  0  0  0  0  0  0  0  0  0  0  0
  -10.9266   13.4805   16.8855 N   0  0  0  0  0  0  0  0  0  0  0  0
    1.0307    9.7100   16.2278 O   0  0  0  0  0  0  0  0  0  0  0  0
    1.8434    7.7565   17.6009 O   0  0  0  0  0  1  0  0  0  0  0  0
   -2.6934   11.3709   16.7186 O   0  0  0  0  0  0  0  0  0  0  0  0
    1.1312    6.5436   18.4731 O   0  0  0  0  0  0  0  0  0  0  0  0
   -2.4315   10.2491   14.7142 O   0  0  0  0  0  1  0  0  0  0  0  0
   -9.9631   14.4190   17.7420 C   0  0  0  0  0  0  0  0  0  0  0  0
   -3.8872   13.0789   18.2888 C   0  0  0  0  0  0  0  0  0  0  0  0
   -2.7642   12.8462   16.5170 C   0  0  0  0  0  0  0  0  0  0  0  0
   -3.7093   14.0762   19.4557 O   0  0  0  0  0  0  0  0  0  0  0  0
   -8.1335   13.6304   16.8856 C   0  0  0  0  0  0  0  0  0  0  0  0
   -0.4852    9.0962   16.7938 P   0  0  0  0  0  0  0  0  0  0  0  0
  4  1  2  0
  5  4  1  0
  7  2  1  0
  9  1  1  0
 10  8  1  0
 12  8  1  0
 13  5  2  0
 13 11  1  0
 15  3  1  0
 15  7  1  0
 15  9  1  0
 16 14  1  0
 17 14  1  0
 18  3  1  0
 19 13  1  0
 21 14  1  0
 22  8  1  0
 23 14  1  0
 24  8  1  0
 25  6  1  0
 25 19  2  0
 26  2  1  0
 26  3  1  0
 27  2  1  0
 27 22  1  0
 28 26  1  0
 29  5  1  0
 29  6  2  0
 29  9  1  0
 30 12  1  0
 30 16  1  0
 30 20  1  0
M  RAD  4   8   2  14   2  21   2  24   2
M  END
>  <ID>  (1) 
conformer_0

$$$$
