
     RDKit          3D

 28 28  0  0  0  0  0  0  0  0999 V2000
   -5.0566   13.6120   18.4334 C   0  0  1  0  0  0  0  0  0  0  0  0
   -9.9559   12.4526   16.1569 C   0  0  0  0  0  0  0  0  0  0  0  0
   -3.6938   13.2310   17.5808 C   0  0  1  0  0  0  0  0  0  0  0  0
   -8.1918   11.8443   15.3802 N   0  0  0  0  0  0  0  0  0  0  0  0
   -7.3166   12.3971   15.8431 C   0  0  0  0  0  0  0  0  0  0  0  0
  -10.8869   13.3302   16.8421 N   0  0  0  0  0  0  0  0  0  0  0  0
   -4.6551   13.9975   16.1057 O   0  0  0  0  0  0  0  0  0  0  0  0
   -7.0085   13.2893   16.5695 N   0  0  0  0  0  0  0  0  0  0  0  0
   -4.0549    9.5150   16.5580 O   0  0  0  0  0  0  0  0  0  0  0  0
   -2.9563   12.8978   16.3654 C   0  0  0  0  0  0  0  0  0  0  0  0
  -10.9188   11.4677   15.5451 N   0  0  0  0  0  0  0  0  0  0  0  0
   -0.6059    8.9901   16.7258 P   0  0  0  0  0  0  0  0  0  0  0  0
    1.3399    7.7498   18.3788 P   0  0  0  0  0  4  0  0  0  0  0  0
   -0.7299    8.3401   18.1745 C   0  0  0  0  0  0  0  0  0  0  0  0
   -9.9949   14.2400   17.6356 C   0  0  0  0  0  0  0  0  0  0  0  0
    1.8246    8.1415   19.4324 O   0  0  0  0  0  0  0  0  0  0  0  0
   -1.6319    8.7748   15.9649 O   0  0  0  0  0  0  0  0  0  0  0  0
    0.3251    9.9295   16.2316 O   0  0  0  0  0  0  0  0  0  0  0  0
   -5.4393   14.9436   19.0992 O   0  0  0  0  0  0  0  0  0  0  0  0
   -8.8194   14.3060   17.6768 N   0  0  0  0  0  0  0  0  0  0  0  0
   -3.5260   13.6906   19.2167 O   0  0  0  0  0  0  0  0  0  0  0  0
    2.1872    7.9694   17.4881 O   0  0  0  0  0  1  0  0  0  0  0  0
    1.1702    6.3601   18.3196 O   0  0  0  0  0  0  0  0  0  0  0  0
   -2.8330   11.2127   16.6276 O   0  0  0  0  0  0  0  0  0  0  0  0
   -5.6066   13.9994   17.2439 C   0  0  1  0  0  0  0  0  0  0  0  0
   -8.5924   13.1915   16.5676 C   0  0  2  0  0  0  0  0  0  0  0  0
   -2.9668   10.0410   16.2131 P   0  0  2  0  0  4  0  0  0  0  0  0
   -2.5215   10.3539   14.8073 O   0  0  0  0  0  1  0  0  0  0  0  0
  3  1  1  0
  5  4  2  3
  6  2  2  0
  8  5  1  0
 10  3  1  0
 11  2  1  0
 14 12  1  0
 14 13  1  0
 15  6  1  0
 16 13  1  0
 17 12  1  0
 18 12  1  0
  1 19  1  1
 20 15  2  0
  3 21  1  6
 22 13  1  0
 23 13  1  0
 24 10  1  0
 25  1  1  0
 25  7  1  6
 25  8  1  0
 26  2  1  0
 26  8  1  1
 26 20  1  0
 27  9  1  6
 27 17  1  0
 27 24  1  0
 28 27  1  0
M  RAD  4  13   2  22   2  27   2  28   2
M  END
>  <ID>  (1) 
conformer_0

$$$$
