
     RDKit          3D

 30 32  0  0  0  0  0  0  0  0999 V2000
   -5.8663   14.0749   17.3993 C   0  0  0  0  0  0  0  0  0  0  0  0
  -10.1826   12.4416   16.2326 C   0  0  0  0  0  0  0  0  0  0  0  0
   -5.0311   13.7471   18.3444 C   0  0  0  0  0  0  0  0  0  0  0  0
   -6.7613   12.0591   15.5886 C   0  0  0  0  0  0  0  0  0  0  0  0
   -7.7410   11.4004   15.1190 N   0  0  0  0  0  0  0  0  0  0  0  0
   -8.8480   14.1345   17.6167 N   0  0  0  0  0  0  0  0  0  0  0  0
   -4.8841   14.3952   16.2675 O   0  0  0  0  0  0  0  0  0  0  0  0
   -4.0230    9.7071   16.3551 O   0  0  0  0  0  0  0  0  0  0  0  0
   -6.9749   13.1895   16.4974 N   0  0  0  0  0  0  0  0  0  0  0  0
   -0.3109    9.3287   17.0433 P   0  0  0  0  0  5  0  0  0  0  0  0
  -10.8349   11.4401   15.4097 N   0  0  0  0  0  0  0  0  0  0  0  0
   -3.7847   13.6171   17.5046 C   0  0  0  0  0  0  0  0  0  0  0  0
    1.7744    8.1011   18.7392 P   0  0  0  0  0  0  0  0  0  0  0  0
   -0.3079    8.4527   18.7244 C   0  0  0  0  0  0  0  0  0  0  0  0
    2.6271    8.5610   19.0590 O   0  0  0  0  0  0  0  0  0  0  0  0
   -3.4492   12.1107   16.1557 O   0  0  0  0  0  0  0  0  0  0  0  0
   -8.9503   12.0311   15.6302 C   0  0  0  0  0  0  0  0  0  0  0  0
  -10.8876   13.2859   17.0158 N   0  0  0  0  0  0  0  0  0  0  0  0
    1.2130    9.3694   16.3190 O   0  0  0  0  0  0  0  0  0  0  0  0
   -5.0862   14.8697   19.1617 O   0  0  0  0  0  0  0  0  0  0  0  0
   -2.6151   10.1733   14.8077 O   0  0  0  0  0  0  0  0  0  0  0  0
   -3.4161   13.3021   19.1508 O   0  0  0  0  0  0  0  0  0  0  0  0
   -9.9570   14.2221   17.6683 C   0  0  0  0  0  0  0  0  0  0  0  0
    0.0150   10.9045   16.9745 O   0  0  0  0  0  0  0  0  0  0  0  0
   -2.9250   13.1289   16.4103 C   0  0  0  0  0  0  0  0  0  0  0  0
   -2.7568   10.3154   16.1115 P   0  0  0  0  0  5  0  0  0  0  0  0
   -0.9832    8.4904   15.7488 O   0  0  0  0  0  0  0  0  0  0  0  0
    2.0209    6.8575   18.5848 O   0  0  0  0  0  0  0  0  0  0  0  0
   -2.0607   10.4252   16.8457 O   0  0  0  0  0  0  0  0  0  0  0  0
   -8.2125   13.1806   16.6617 C   0  0  0  0  0  0  0  0  0  0  0  0
  3  1  1  0
  5  4  2  0
  7  1  1  0
  9  1  1  0
  9  4  1  0
 11  2  1  0
 12  3  1  0
 12  7  1  0
 14 10  1  0
 14 13  1  0
 15 13  1  0
 17  2  2  0
 17  5  1  0
 18  2  1  0
 19 10  1  0
 20  3  1  0
 22 12  1  0
 23  6  1  0
 23 18  2  0
 24 10  1  0
 25 12  1  0
 25 16  1  0
 26  8  1  0
 26 16  1  0
 26 21  1  0
 27 10  1  0
 27 26  1  0
 28 13  1  0
 29 26  1  0
 30  6  2  0
 30  9  1  0
 30 17  1  0
M  END
>  <ID>  (1) 
conformer_0

$$$$
