
     RDKit          3D

 28 31  0  0  0  0  0  0  0  0999 V2000
  -10.1262   12.6717   16.3137 C   0  0  0  0  0  0  0  0  0  0  0  0
   -5.3697   13.9867   17.1040 C   0  0  0  0  0  0  0  0  0  0  0  0
   -4.8862   13.4909   18.5062 C   0  0  0  0  0  0  0  0  0  0  0  0
   -8.4698   14.2796   17.7807 N   0  0  0  0  0  0  0  0  0  0  0  0
   -8.7649   12.7660   15.9559 C   0  0  0  0  0  0  0  0  0  0  0  0
   -8.0022   11.8586   15.3431 N   0  0  0  0  0  0  0  0  0  0  0  0
   -4.5931   13.9669   16.0406 O   0  0  0  0  0  0  0  0  0  0  0  0
   -3.9438    9.7139   16.2888 O   0  0  0  0  0  0  0  0  0  0  0  0
   -6.7263   13.4363   16.4723 N   0  0  0  0  0  0  0  0  0  0  0  0
  -10.7915   11.7414   15.5843 N   0  0  0  0  0  0  0  0  0  0  0  0
   -0.6125    8.0728   18.2212 C   0  0  0  0  0  0  0  0  0  0  0  0
    1.5752    7.2650   18.3114 P   0  0  0  0  0  0  0  0  0  0  0  0
   -2.6526   10.2130   16.0810 P   0  0  0  0  0  4  0  0  0  0  0  0
   -1.7480    9.8795   17.4481 O   0  0  0  0  0  0  0  0  0  0  0  0
   -3.6181   13.3929   17.7308 C   0  0  0  0  0  0  0  0  0  0  0  0
   -7.9164   13.5697   16.7376 C   0  0  0  0  0  0  0  0  0  0  0  0
   -0.0195   10.3423   16.2676 O   0  0  0  0  0  0  0  0  0  0  0  0
    2.2104    7.8741   19.2222 O   0  0  0  0  0  0  0  0  0  0  0  0
  -10.5848   13.4047   17.1476 N   0  0  0  0  0  0  0  0  0  0  0  0
   -4.5678   15.0975   18.9019 O   0  0  0  0  0  0  0  0  0  0  0  0
   -2.2974    9.3132   14.8602 O   0  0  0  0  0  1  0  0  0  0  0  0
    1.6674    6.2477   17.7189 O   0  0  0  0  0  0  0  0  0  0  0  0
   -2.5739   11.5227   16.3680 O   0  0  0  0  0  0  0  0  0  0  0  0
   -9.8547   14.2692   17.9070 C   0  0  0  0  0  0  0  0  0  0  0  0
   -3.0023   13.2242   16.3456 C   0  0  0  0  0  0  0  0  0  0  0  0
   -0.6854    9.3796   17.3386 P   0  0  0  0  0  0  0  0  0  0  0  0
   -3.3804   13.6408   19.2667 O   0  0  0  0  0  0  0  0  0  0  0  0
   -6.6467   12.2004   15.6687 C   0  0  0  0  0  0  0  0  0  0  0  0
  3  2  1  0
  5  1  2  0
  6  5  1  0
  7  2  1  0
  9  2  1  0
 10  1  1  0
 12 11  1  0
 13  8  1  0
 14 13  1  0
 15  2  1  0
 15  3  1  0
 16  4  2  0
 16  5  1  0
 16  9  1  0
 18 12  1  0
 19  1  1  0
 20  3  1  0
 21 13  1  0
 22 12  1  0
 23 13  1  0
 24  4  1  0
 24 19  2  0
 25  7  1  0
 25 15  1  0
 25 23  1  0
 26 11  1  0
 26 14  1  0
 26 17  1  0
 27 15  1  0
 28  6  2  0
 28  9  1  0
M  RAD  2  13   2  21   2
M  END
>  <ID>  (1) 
conformer_0

$$$$
