
     RDKit          3D

 29 30  0  0  0  0  0  0  0  0999 V2000
   -9.9222   12.5227   16.2599 C   0  0  0  0  0  0  0  0  0  0  0  0
   -5.8089   14.2134   17.6163 C   0  0  1  0  0  0  0  0  0  0  0  0
   -4.9293   13.7919   18.1758 C   0  0  0  0  0  0  0  0  0  0  0  0
   -8.8540   14.3974   17.9099 N   0  0  0  0  0  0  0  0  0  0  0  0
   -8.7670   13.2584   16.6697 C   0  0  0  0  0  0  0  0  0  0  0  0
   -3.7390   13.6319   17.0710 C   0  0  2  0  0  0  0  0  0  0  0  0
   -0.6951    8.9573   16.8978 P   0  0  0  0  0  0  0  0  0  0  0  0
   -4.9208   14.3763   16.2884 O   0  0  0  0  0  0  0  0  0  0  0  0
   -8.0686   11.9453   15.4112 N   0  0  0  0  0  0  0  0  0  0  0  0
  -10.9015   13.2959   16.9856 N   0  0  0  0  0  0  0  0  0  0  0  0
   -7.1207   13.3679   16.5534 N   0  0  0  0  0  0  0  0  0  0  0  0
   -4.3128    9.7496   16.5320 O   0  0  0  0  0  0  0  0  0  0  0  0
    1.7275    6.4624   18.4929 O   0  0  0  0  0  0  0  0  0  0  0  0
    1.6542    7.7164   18.1533 P   0  0  0  0  0  4  0  0  0  0  0  0
   -9.9932   14.3534   17.9155 C   0  0  0  0  0  0  0  0  0  0  0  0
  -10.5885   11.5120   15.4755 N   0  0  0  0  0  0  0  0  0  0  0  0
   -2.3656    9.4925   14.7337 O   0  0  0  0  0  1  0  0  0  0  0  0
    0.2551    9.8787   16.4804 O   0  0  0  0  0  0  0  0  0  0  0  0
   -5.4402   14.9696   19.0823 O   0  0  0  0  0  0  0  0  0  0  0  0
   -3.2206   11.6471   15.8727 O   0  0  0  0  0  0  0  0  0  0  0  0
   -1.0207    8.3290   18.6471 C   0  0  0  0  0  0  0  0  0  0  0  0
    1.8136    8.8001   18.7286 O   0  0  0  0  0  0  0  0  0  0  0  0
   -3.4294   13.6703   19.0447 O   0  0  0  0  0  0  0  0  0  0  0  0
    2.3723    7.7799   17.1968 O   0  0  0  0  0  1  0  0  0  0  0  0
   -2.8184   12.8643   16.0870 C   0  0  0  0  0  0  0  0  0  0  0  0
   -7.3890   12.6653   15.8956 C   0  0  0  0  0  0  0  0  0  0  0  0
   -0.5521    7.9047   16.3806 O   0  0  0  0  0  0  0  0  0  0  0  0
   -3.0746   10.0808   16.1001 P   0  0  1  0  0  4  0  0  0  0  0  0
   -2.3552    9.5768   16.7395 O   0  0  0  0  0  0  0  0  0  0  0  0
  3  2  1  0
  5  1  2  0
  5  4  1  0
  6  3  1  0
  8  2  1  0
  8  6  1  0
 10  1  1  0
  2 11  1  6
 14 13  1  0
 15  4  2  0
 15 10  1  0
 16  1  1  0
 18  7  1  0
 19  3  1  0
 21 14  1  0
 22 14  1  0
 23  3  1  0
 24 14  1  0
  6 25  1  6
 25 20  1  0
 26  5  1  0
 26  9  2  3
 26 11  1  0
 27  7  1  0
 27 21  1  0
 28 12  1  1
 28 17  1  0
 28 20  1  0
 29  7  1  0
 29 28  1  0
M  RAD  4  14   2  17   2  24   2  28   2
M  END
>  <ID>  (1) 
conformer_0

$$$$
