
     RDKit          3D

 30 31  0  0  0  0  0  0  0  0999 V2000
   -5.6163   13.9575   18.4364 C   0  0  1  0  0  0  0  0  0  0  0  0
  -10.1319   12.5557   16.1271 C   0  0  0  0  0  0  0  0  0  0  0  0
   -6.0075   14.3318   17.2849 C   0  0  1  0  0  0  0  0  0  0  0  0
   -7.4457   12.7440   15.9270 C   0  0  0  0  0  0  0  0  0  0  0  0
   -4.6783   14.1944   16.2948 O   0  0  0  0  0  0  0  0  0  0  0  0
   -4.5648    9.3498   15.8715 O   0  0  0  0  0  0  0  0  0  0  0  0
   -8.3038   12.0149   15.4949 N   0  0  0  0  0  0  0  0  0  0  0  0
   -4.2329   12.9988   18.3413 C   0  0  1  0  0  0  0  0  0  0  0  0
  -11.0218   13.4616   16.7592 N   0  0  0  0  0  0  0  0  0  0  0  0
  -10.9383   11.5995   15.5446 N   0  0  0  0  0  0  0  0  0  0  0  0
   -3.2512   10.0532   16.0266 P   0  0  1  0  0  4  0  0  0  0  0  0
   -7.2171   13.5717   16.6599 N   0  0  0  0  0  0  0  0  0  0  0  0
   -5.4617   15.3004   18.9469 O   0  0  0  0  0  0  0  0  0  0  0  0
    1.4339    7.5290   18.2829 P   0  0  0  0  0  0  0  0  0  0  0  0
   -3.2473   11.5919   16.2445 O   0  0  0  0  0  0  0  0  0  0  0  0
  -10.1468   14.3158   17.5216 C   0  0  0  0  0  0  0  0  0  0  0  0
   -0.2042    8.5669   18.5145 C   0  0  0  0  0  0  0  0  0  0  0  0
    1.6649    6.5944   18.5878 O   0  0  0  0  0  0  0  0  0  0  0  0
    0.2211   10.3927   16.6103 O   0  0  0  0  0  0  0  0  0  0  0  0
   -0.7675    8.8861   15.7966 O   0  0  0  0  0  0  0  0  0  0  0  0
   -9.1079   14.4294   17.5778 N   0  0  0  0  0  0  0  0  0  0  0  0
   -2.9885    9.4010   17.3262 O   0  0  0  0  0  1  0  0  0  0  0  0
   -3.8078   13.3902   17.2624 C   0  0  1  0  0  0  0  0  0  0  0  0
   -3.7123   13.9380   19.2759 O   0  0  0  0  0  0  0  0  0  0  0  0
    2.6266    7.3638   17.9574 O   0  0  0  0  0  0  0  0  0  0  0  0
   -0.7337    9.1006   16.9383 P   0  0  0  0  0  0  0  0  0  0  0  0
   -2.4825   10.0509   14.9341 O   0  0  0  0  0  0  0  0  0  0  0  0
   -8.7638   13.3489   16.5186 C   0  0  2  0  0  0  0  0  0  0  0  0
    0.0863    6.5230   17.2448 O   0  0  0  0  0  0  0  0  0  0  0  0
   -2.7827   12.8446   16.0804 C   0  0  0  0  0  0  0  0  0  0  0  0
  3  1  1  0
  5  3  1  0
  7  4  2  3
  8  1  1  0
  9  2  2  0
 10  2  1  0
 11  6  1  6
  3 12  1  6
 12  4  1  0
  1 13  1  1
 15 11  1  0
 16  9  1  0
 18 14  1  0
 21 16  2  0
 22 11  1  0
 23  5  1  0
 23  8  1  0
  8 24  1  1
 25 14  1  0
 25 17  1  0
 26 17  1  0
 26 19  1  0
 26 20  1  0
 27 11  1  0
 27 20  1  0
 28  2  1  0
 28  4  1  1
 28 21  1  0
 29 14  1  0
 30 15  1  0
 23 30  1  6
M  RAD  2  11   2  22   2
M  END
>  <ID>  (1) 
conformer_0

$$$$
