
     RDKit          3D

 30 30  0  0  0  0  0  0  0  0999 V2000
   -4.9378   13.6388   18.5141 C   0  0  0  0  0  0  0  0  0  0  0  0
   -9.9193   12.4612   16.0314 C   0  0  0  0  0  0  0  0  0  0  0  0
   -3.5232   13.0680   17.9257 C   0  0  0  0  0  0  0  0  0  0  0  0
   -7.1065   12.5815   15.8909 C   0  0  0  0  0  0  0  0  0  0  0  0
  -11.0204   13.3165   16.7386 N   0  0  0  0  0  0  0  0  0  0  0  0
   -6.9241   13.2355   16.5303 N   0  0  0  0  0  0  0  0  0  0  0  0
   -7.9112   11.9219   15.2809 N   0  0  0  0  0  0  0  0  0  0  0  0
   -4.4307   14.1269   16.3486 O   0  0  0  0  0  0  0  0  0  0  0  0
   -0.5613    8.8569   16.8412 P   0  0  0  0  0  0  0  0  0  0  0  0
   -4.0275    9.5071   15.9177 O   0  0  0  0  0  0  0  0  0  0  0  0
   -8.8175   14.2266   17.5208 N   0  0  0  0  0  0  0  0  0  0  0  0
    1.5196    8.1774   18.2489 P   0  0  0  0  0  0  0  0  0  0  0  0
  -10.8195   11.3637   15.5087 N   0  0  0  0  0  0  0  0  0  0  0  0
  -10.0174   14.1867   17.5003 C   0  0  0  0  0  0  0  0  0  0  0  0
   -1.7398    9.5193   15.0882 O   0  0  0  0  0  0  0  0  0  0  0  0
   -2.9721   12.9801   16.7394 C   0  0  0  0  0  0  0  0  0  0  0  0
   -5.4147   14.8711   19.2302 O   0  0  0  0  0  0  0  0  0  0  0  0
    1.5678    9.5315   19.3136 O   0  0  0  0  0  0  0  0  0  0  0  0
   -0.7073    8.3565   18.1219 C   0  0  2  0  0  0  0  0  0  0  0  0
    0.2249   10.6623   16.4124 O   0  0  0  0  0  0  0  0  0  0  0  0
    1.6847    6.7092   18.2102 O   0  0  0  0  0  0  0  0  0  0  0  0
   -2.6978   11.5418   16.3238 O   0  0  0  0  0  0  0  0  0  0  0  0
   -2.8158    9.4502   17.3715 O   0  0  0  0  0  0  0  0  0  0  0  0
   -0.6127    7.1995   16.1797 O   0  0  0  0  0  0  0  0  0  0  0  0
   -3.5766   13.5967   19.6397 O   0  0  0  0  0  0  0  0  0  0  0  0
   -8.7139   13.1270   16.4108 C   0  0  2  0  0  0  0  0  0  0  0  0
    2.6156    8.7042   18.0723 O   0  0  0  0  0  0  0  0  0  0  0  0
   -5.5023   13.9732   17.5148 C   0  0  2  0  0  0  0  0  0  0  0  0
    0.9931    8.6298   15.9417 O   0  0  0  0  0  0  0  0  0  0  0  0
   -2.7526   10.1191   16.1404 P   0  0  0  0  0  5  0  0  0  0  0  0
  3  1  1  0
  5  2  2  0
  6  4  1  0
  7  4  2  3
 13  2  1  0
 14  5  1  0
 14 11  2  0
 16  3  1  0
 17  1  1  0
 18 12  1  0
 19  9  1  0
 19 18  1  0
 20  9  1  0
 21 12  1  0
 22 16  1  0
 19 24  1  6
 25  1  1  0
 26  2  1  0
 26  4  1  1
 26 11  1  0
 27 12  1  0
 28  1  1  0
 28  6  1  0
 28  8  1  6
 29  9  1  0
 30 10  1  0
 30 15  1  0
 30 19  1  0
 30 22  1  0
 30 23  1  0
M  END
>  <ID>  (1) 
conformer_0

$$$$
