
     RDKit          3D

 27 29  0  0  0  0  0  0  0  0999 V2000
   -5.5992   13.7444   18.4676 C   0  0  1  0  0  0  0  0  0  0  0  0
   -8.5881   13.2171   16.3957 C   0  0  1  0  0  0  0  0  0  0  0  0
   -4.1838   12.8355   18.2924 C   0  0  2  0  0  0  0  0  0  0  0  0
   -7.2190   12.4487   15.6112 C   0  0  0  0  0  0  0  0  0  0  0  0
   -8.8073   14.3215   17.6887 N   0  0  0  0  0  2  0  0  0  0  0  0
   -8.2075   11.9043   15.2345 N   0  0  0  0  0  0  0  0  0  0  0  0
   -1.1163    8.9800   18.9002 C   0  0  0  0  0  0  0  0  0  0  0  0
   -4.6786   14.0791   16.1320 O   0  0  0  0  0  0  0  0  0  0  0  0
   -7.0153   13.3924   16.4877 N   0  0  0  0  0  0  0  0  0  0  0  0
   -4.0513    9.5444   16.3849 O   0  0  0  0  0  0  0  0  0  0  0  0
   -1.9069    9.8495   16.4192 P   0  0  0  0  0  5  0  0  0  0  0  0
    1.0191    7.8523   18.0091 P   0  0  0  0  0  0  0  0  0  0  0  0
  -10.8840   11.5611   15.5484 N   0  0  0  0  0  0  0  0  0  0  0  0
   -2.7583   12.9037   16.2656 C   0  0  0  0  0  0  0  0  0  0  0  0
    0.0492   10.5233   16.4813 O   0  0  0  0  0  0  0  0  0  0  0  0
   -9.9667   12.5128   16.0774 C   0  0  1  0  0  0  0  0  0  0  0  0
   -4.9477   15.0596   18.8490 O   0  0  0  0  0  0  0  0  0  0  0  0
    1.9458    8.1713   19.0436 O   0  0  0  0  0  0  0  0  0  0  0  0
  -10.8943   13.3753   16.8940 N   0  0  0  0  0  0  0  0  0  0  0  0
   -2.9027   11.2089   16.3172 O   0  0  0  0  0  0  0  0  0  0  0  0
   -1.7929    9.3805   15.3111 O   0  0  0  0  0  0  0  0  0  0  0  0
   -3.4559   13.4701   19.1623 O   0  0  0  0  0  0  0  0  0  0  0  0
   -9.9775   14.1437   17.5301 C   0  0  0  0  0  0  0  0  0  0  0  0
    1.7616    6.2538   18.1819 O   0  0  0  0  0  0  0  0  0  0  0  0
   -3.6703   13.5996   17.1020 C   0  0  2  0  0  0  0  0  0  0  0  0
   -5.7651   14.1357   16.9624 C   0  0  1  0  0  0  0  0  0  0  0  0
   -0.3312    7.8080   17.5658 C   0  0  2  0  0  0  0  0  0  0  0  0
  3  1  1  0
  4  2  1  0
  2  5  1  1
  6  4  2  3
  9  2  1  0
  9  4  1  0
 11 10  1  0
 15 11  1  0
 16  2  1  0
 16 13  1  1
  1 17  1  1
 18 12  1  0
 19 16  1  0
 20 11  1  0
 20 14  1  0
 21 11  1  0
  3 22  1  1
 23  5  1  0
 23 19  2  0
 24 12  1  0
 25  3  1  0
 25  8  1  0
 25 14  1  6
 26  1  1  0
 26  8  1  0
 26  9  1  6
 27  7  1  1
 27 12  1  0
 27 21  1  0
M  RAD  1   5   2
M  END
>  <ID>  (1) 
conformer_0

$$$$
