
     RDKit          3D

 30 32  0  0  0  0  0  0  0  0999 V2000
  -10.4515   12.5847   16.3487 C   0  0  0  0  0  0  0  0  0  0  0  0
   -5.8841   14.1353   17.3821 C   0  0  0  0  0  0  0  0  0  0  0  0
   -5.1990   13.5832   18.2665 C   0  0  0  0  0  0  0  0  0  0  0  0
   -8.9972   14.2754   17.9170 N   0  0  0  0  0  0  0  0  0  0  0  0
   -7.1070   12.5753   15.6623 C   0  0  0  0  0  0  0  0  0  0  0  0
   -8.3625   11.9644   15.3406 N   0  0  0  0  0  0  0  0  0  0  0  0
   -4.0404   13.2092   17.5527 C   0  0  0  0  0  0  0  0  0  0  0  0
   -7.1769   13.3726   16.5553 N   0  0  0  0  0  0  0  0  0  0  0  0
   -4.6560   14.2433   16.1945 O   0  0  0  0  0  0  0  0  0  0  0  0
  -10.8698   11.6156   15.4732 N   0  0  0  0  0  0  0  0  0  0  0  0
    1.4015    7.8007   18.3056 P   0  0  0  0  0  5  0  0  0  0  0  0
   -4.0910    9.6436   16.5032 O   0  0  0  0  0  0  0  0  0  0  0  0
    0.2878   10.1926   16.2411 O   0  0  0  0  0  0  0  0  0  0  0  0
   -2.8948   10.1278   16.3188 P   0  0  0  0  0  0  0  0  0  0  0  0
   -9.1336   12.5771   16.0624 C   0  0  0  0  0  0  0  0  0  0  0  0
   -3.3366   11.6584   16.1071 O   0  0  0  0  0  0  0  0  0  0  0  0
  -11.0778   13.3562   17.0222 N   0  0  0  0  0  0  0  0  0  0  0  0
   -5.0103   14.8804   19.0513 O   0  0  0  0  0  0  0  0  0  0  0  0
   -0.7178    8.3110   18.2921 C   0  0  0  0  0  0  0  0  0  0  0  0
    0.1846    8.2221   15.5031 O   0  0  0  0  0  0  0  0  0  0  0  0
    1.5852    6.4521   17.9813 O   0  0  0  0  0  0  0  0  0  0  0  0
   -3.9504   12.4869   19.1551 O   0  0  0  0  0  0  0  0  0  0  0  0
   -2.3497    9.5722   17.3714 O   0  0  0  0  0  0  0  0  0  0  0  0
    2.1185    9.0282   18.2764 O   0  0  0  0  0  0  0  0  0  0  0  0
   -3.1970   12.8352   16.0988 C   0  0  0  0  0  0  0  0  0  0  0  0
  -10.1998   14.4790   18.0485 C   0  0  0  0  0  0  0  0  0  0  0  0
    1.7661    7.6145   19.6454 O   0  0  0  0  0  0  0  0  0  0  0  0
   -0.3426    8.9704   16.7095 P   0  0  0  0  0  4  0  0  0  0  0  0
   -2.2605    9.5922   15.1324 O   0  0  0  0  0  1  0  0  0  0  0  0
   -8.5634   13.5857   17.0082 C   0  0  0  0  0  0  0  0  0  0  0  0
  3  2  1  0
  6  5  2  0
  7  3  1  0
  8  2  1  0
  8  5  1  0
  9  2  1  0
  9  7  1  0
 10  1  1  0
 14 12  1  0
 15  1  2  0
 15  6  1  0
 16 14  1  0
 17  1  1  0
 18  3  1  0
 19 11  1  0
 20 11  1  0
 21 11  1  0
 22  7  1  0
 23 14  1  0
 24 11  1  0
 25  7  1  0
 25 16  1  0
 26  4  1  0
 26 17  2  0
 27 11  1  0
 28 13  1  0
 28 20  1  0
 28 23  1  0
 29 28  1  0
 30  4  2  0
 30  8  1  0
 30 15  1  0
M  RAD  2  28   2  29   2
M  END
>  <ID>  (1) 
conformer_0

$$$$
