
     RDKit          3D

 27 27  0  0  0  0  0  0  0  0999 V2000
   -5.1357   13.7742   18.6515 C   0  0  0  0  0  0  0  0  0  0  0  0
   -9.9939   14.0846   17.4800 C   0  0  0  0  0  0  0  0  0  0  0  0
   -3.9442   13.3485   18.1352 C   0  0  0  0  0  0  0  0  0  0  0  0
  -10.9670   13.2526   16.7097 N   0  0  0  0  0  0  0  0  0  0  0  0
   -8.7474   13.1658   16.3932 C   0  0  0  0  0  0  0  0  0  0  0  0
   -8.1476   11.8108   15.3995 N   0  0  0  0  0  0  0  0  0  0  0  0
   -7.0969   13.3230   16.5953 N   0  0  0  0  0  0  0  0  0  0  0  0
   -2.4563    9.9275   16.3648 P   0  0  0  0  0  5  0  0  0  0  0  0
   -3.2314   12.9763   16.5666 C   0  0  0  0  0  0  0  0  0  0  0  0
  -10.9471   11.4509   15.3896 N   0  0  0  0  0  0  0  0  0  0  0  0
   -4.7154   14.1186   16.4238 O   0  0  0  0  0  0  0  0  0  0  0  0
    0.9145    8.1545   17.5653 P   0  0  0  0  0  5  0  0  0  0  0  0
   -4.1865    9.7397   15.9247 O   0  0  0  0  0  0  0  0  0  0  0  0
    1.8809    7.1440   18.8502 O   0  0  0  0  0  0  0  0  0  0  0  0
   -3.2183   11.6361   16.5287 O   0  0  0  0  0  0  0  0  0  0  0  0
   -5.0637   15.2039   19.2633 O   0  0  0  0  0  0  0  0  0  0  0  0
  -10.0800   12.3274   15.9571 C   0  0  0  0  0  0  0  0  0  0  0  0
    0.1481   10.5032   16.5971 O   0  0  0  0  0  0  0  0  0  0  0  0
   -1.0193    8.0470   18.3762 C   0  0  0  0  0  0  0  0  0  0  0  0
   -8.8803   14.2922   17.4236 N   0  0  0  0  0  0  0  0  0  0  0  0
   -1.5348    9.3454   15.0167 O   0  0  0  0  0  0  0  0  0  0  0  0
    2.0640    9.1888   18.4448 O   0  0  0  0  0  0  0  0  0  0  0  0
   -5.7239   14.1048   17.3084 C   0  0  2  0  0  0  0  0  0  0  0  0
   -2.5030    9.7099   17.0509 O   0  0  0  0  0  0  0  0  0  0  0  0
    1.5845    8.7852   16.4166 O   0  0  0  0  0  0  0  0  0  0  0  0
   -7.3779   12.5456   15.8705 C   0  0  0  0  0  0  0  0  0  0  0  0
   -4.0093   13.7182   19.9981 O   0  0  0  0  0  0  0  0  0  0  0  0
  3  1  1  0
  4  2  2  0
  9  3  1  0
 13  8  1  0
 14 12  1  0
 15  8  1  0
 15  9  1  0
 16  1  1  0
 17  4  1  0
 17  5  2  0
 17 10  1  0
 18 12  1  0
 19  8  1  0
 20  2  1  0
 20  5  1  0
 22 12  1  0
 22 19  1  0
 23  1  1  0
 23  7  1  0
 23 11  1  6
 24  8  1  0
 24 21  1  0
 25 12  1  0
 26  5  1  0
 26  6  2  3
 26  7  1  0
 27  1  1  0
M  END
>  <ID>  (1) 
conformer_0

$$$$
