
     RDKit          3D

 29 31  0  0  0  0  0  0  0  0999 V2000
   -9.9566   14.3952   17.7402 C   0  0  0  0  0  0  0  0  0  0  0  0
   -5.6333   14.2375   17.3631 C   0  0  0  0  0  0  0  0  0  0  0  0
   -5.0239   13.5498   18.6372 C   0  0  0  0  0  0  0  0  0  0  0  0
   -8.6064   12.2394   15.8018 C   0  0  0  0  0  0  0  0  0  0  0  0
   -7.7845   11.6482   15.1600 N   0  0  0  0  0  0  0  0  0  0  0  0
   -0.7916    8.4714   18.3871 C   0  0  0  0  0  0  0  0  0  0  0  0
   -8.7063   14.3496   17.7102 N   0  0  0  0  0  0  0  0  0  0  0  0
   -4.8477   14.1963   16.2456 O   0  0  0  0  0  0  0  0  0  0  0  0
   -4.1177    9.4798   16.2625 O   0  0  0  0  0  0  0  0  0  0  0  0
   -2.9688   10.1476   15.8774 P   0  0  0  0  0  4  0  0  0  0  0  0
   -3.9507   13.4538   17.7456 C   0  0  0  0  0  0  0  0  0  0  0  0
  -10.6398   11.4142   15.4601 N   0  0  0  0  0  0  0  0  0  0  0  0
   -6.9450   13.3383   16.5426 N   0  0  0  0  0  0  0  0  0  0  0  0
    1.4399    7.9500   17.8899 P   0  0  0  0  0  4  0  0  0  0  0  0
    2.0338    7.4752   18.9752 O   0  0  0  0  0  0  0  0  0  0  0  0
   -9.9922   12.5794   16.3149 C   0  0  0  0  0  0  0  0  0  0  0  0
   -3.0685   11.5756   16.3350 O   0  0  0  0  0  0  0  0  0  0  0  0
   -4.6512   15.1285   19.0456 O   0  0  0  0  0  0  0  0  0  0  0  0
    2.1262    8.6092   16.9547 O   0  0  0  0  0  1  0  0  0  0  0  0
    0.2783    9.9144   16.1354 O   0  0  0  0  0  0  0  0  0  0  0  0
  -10.5286   13.3098   16.8664 N   0  0  0  0  0  0  0  0  0  0  0  0
   -1.6891    9.0107   15.6812 O   0  0  0  0  0  0  0  0  0  0  0  0
   -6.6161   12.1357   15.5429 C   0  0  0  0  0  0  0  0  0  0  0  0
   -3.4488   13.2890   19.2692 O   0  0  0  0  0  0  0  0  0  0  0  0
   -3.0914   13.1003   16.4279 C   0  0  0  0  0  0  0  0  0  0  0  0
   -2.7309   10.4992   14.5645 O   0  0  0  0  0  1  0  0  0  0  0  0
    1.5099    6.6358   17.3960 O   0  0  0  0  0  0  0  0  0  0  0  0
   -8.0488   13.5421   16.8521 C   0  0  0  0  0  0  0  0  0  0  0  0
   -0.5752    9.2191   16.7214 P   0  0  0  0  0  0  0  0  0  0  0  0
  3  2  1  0
  5  4  1  0
  7  1  2  0
  8  2  1  0
 10  9  1  0
 11  2  1  0
 11  3  1  0
 13  2  1  0
 14  6  1  0
 15 14  1  0
 16  4  1  0
 16 12  1  0
 17 10  1  0
 18  3  1  0
 19 14  1  0
 21  1  1  0
 21 16  2  0
 22 10  1  0
 23  5  2  0
 23 13  1  0
 24 11  1  0
 25 11  1  0
 25 17  1  0
 26 10  1  0
 27 14  1  0
 28  4  2  0
 28  7  1  0
 28 13  1  0
 29  6  1  0
 29 20  1  0
 29 22  1  0
M  RAD  4  10   2  14   2  19   2  26   2
M  END
>  <ID>  (1) 
conformer_0

$$$$
