
     RDKit          3D

 28 29  0  0  0  0  0  0  0  0999 V2000
   -5.7808   14.0497   17.4410 C   0  0  1  0  0  0  0  0  0  0  0  0
   -9.7938   12.4516   16.0760 C   0  0  0  0  0  0  0  0  0  0  0  0
   -4.9781   13.6361   18.2626 C   0  0  1  0  0  0  0  0  0  0  0  0
   -7.0299   12.4487   15.7991 C   0  0  0  0  0  0  0  0  0  0  0  0
   -8.8547   14.1449   17.6440 N   0  0  0  0  0  0  0  0  0  0  0  0
   -7.9658   11.7862   15.2081 N   0  0  0  0  0  0  0  0  0  0  0  0
   -4.4901   14.2542   16.3136 O   0  0  0  0  0  0  0  0  0  0  0  0
   -6.9407   13.2522   16.5057 N   0  0  0  0  0  0  0  0  0  0  0  0
   -4.1254    9.4462   16.2618 O   0  0  0  0  0  0  0  0  0  0  0  0
   -2.9573   10.0166   15.9851 P   0  0  2  0  0  4  0  0  0  0  0  0
  -10.6984   11.4822   15.3402 N   0  0  0  0  0  0  0  0  0  0  0  0
    1.4897    7.7386   18.3988 P   0  0  0  0  0  4  0  0  0  0  0  0
   -8.5565   13.0800   16.4468 C   0  0  0  0  0  0  0  0  0  0  0  0
   -3.7017   13.2148   17.6395 C   0  0  1  0  0  0  0  0  0  0  0  0
    0.9183    6.5108   17.9712 O   0  0  0  0  0  0  0  0  0  0  0  0
   -5.2404   14.8974   19.1088 O   0  0  0  0  0  0  0  0  0  0  0  0
  -10.8836   13.2158   16.7808 N   0  0  0  0  0  0  0  0  0  0  0  0
   -1.3715    8.9512   16.1492 O   0  0  0  0  0  0  0  0  0  0  0  0
   -0.5037    8.3779   18.6411 C   0  0  0  0  0  0  0  0  0  0  0  0
   -3.4049   13.1604   19.1345 O   0  0  0  0  0  0  0  0  0  0  0  0
    0.1632   10.0931   16.4373 O   0  0  0  0  0  0  0  0  0  0  0  0
   -3.0908   11.4034   16.2609 O   0  0  0  0  0  0  0  0  0  0  0  0
    1.8373    8.2184   17.5708 O   0  0  0  0  0  1  0  0  0  0  0  0
  -10.0770   14.1231   17.6047 C   0  0  0  0  0  0  0  0  0  0  0  0
   -2.4567   10.0044   14.7087 O   0  0  0  0  0  1  0  0  0  0  0  0
   -2.9335   13.0427   16.4623 C   0  0  0  0  0  0  0  0  0  0  0  0
   -0.5629    8.9967   16.9058 P   0  0  0  0  0  0  0  0  0  0  0  0
    2.1651    7.3769   19.3051 O   0  0  0  0  0  0  0  0  0  0  0  0
  3  1  1  0
  6  4  2  3
  7  1  1  0
  1  8  1  6
  8  4  1  0
 10  9  1  6
 11  2  1  0
 13  2  2  0
 13  5  1  0
 13  8  1  0
 14  3  1  0
 14  7  1  0
 15 12  1  0
  3 16  1  1
 17  2  1  0
 18 10  1  0
 19 12  1  0
 14 20  1  1
 22 10  1  0
 23 12  1  0
 24  5  2  0
 24 17  1  0
 25 10  1  0
 26 14  1  0
 26 22  1  0
 27 18  1  0
 27 19  1  0
 27 21  1  0
 28 12  1  0
M  RAD  4  10   2  12   2  23   2  25   2
M  END
>  <ID>  (1) 
conformer_0

$$$$
