
     RDKit          3D

 28 29  0  0  0  0  0  0  0  0999 V2000
  -10.1274   12.2830   16.0559 C   0  0  1  0  0  0  0  0  0  0  0  0
   -5.1494   13.9251   18.3035 C   0  0  1  0  0  0  0  0  0  0  0  0
   -5.9244   14.2200   17.4864 C   0  0  2  0  0  0  0  0  0  0  0  0
   -0.3530    7.3843   18.5746 C   0  0  0  0  0  0  0  0  0  0  0  0
  -11.1172   13.0916   16.5505 N   0  0  0  0  0  0  0  0  0  0  0  0
   -8.7302   13.2525   16.5465 C   0  0  0  0  0  0  0  0  0  0  0  0
   -3.5956   10.2089   15.9038 P   0  0  1  0  0  4  0  0  0  0  0  0
   -7.2981   13.4617   16.6372 N   0  0  0  0  0  0  0  0  0  0  0  0
   -4.5312    9.5019   16.0761 O   0  0  0  0  0  0  0  0  0  0  0  0
   -3.7797   13.5764   17.4729 C   0  0  1  0  0  0  0  0  0  0  0  0
   -4.8091   14.4817   16.1684 O   0  0  0  0  0  0  0  0  0  0  0  0
  -10.7002   11.2707   15.3543 N   0  0  0  0  0  0  0  0  0  0  0  0
   -2.2040    9.5129   14.7507 O   0  0  0  0  0  1  0  0  0  0  0  0
    1.3310    8.1390   17.6638 P   0  0  2  0  0  4  0  0  0  0  0  0
    0.4261    9.9019   16.1981 O   0  0  0  0  0  0  0  0  0  0  0  0
    2.0283    7.4953   17.2629 O   0  0  0  0  0  1  0  0  0  0  0  0
   -5.6336   14.9016   19.2219 O   0  0  0  0  0  0  0  0  0  0  0  0
   -8.4297   12.1251   15.5494 N   0  0  0  0  0  0  0  0  0  0  0  0
   -9.1917   14.2098   17.4573 N   0  0  0  0  0  0  0  0  0  0  0  0
  -10.1988   14.1368   17.5215 C   0  0  0  0  0  0  0  0  0  0  0  0
   -3.4414   11.6711   15.8557 O   0  0  0  0  0  0  0  0  0  0  0  0
   -3.5710   13.9376   19.2426 O   0  0  0  0  0  0  0  0  0  0  0  0
   -3.1000   13.0083   16.4215 C   0  0  0  0  0  0  0  0  0  0  0  0
   -2.6145    9.9901   16.8631 O   0  0  0  0  0  0  0  0  0  0  0  0
    1.6844    8.9399   17.9410 O   0  0  0  0  0  0  0  0  0  0  0  0
   -1.1011    9.3159   16.3949 P   0  0  0  0  0  0  0  0  0  0  0  0
   -1.3211    8.3374   18.0624 C   0  0  0  0  0  0  0  0  0  0  0  0
   -7.5696   12.7423   15.9904 C   0  0  0  0  0  0  0  0  0  0  0  0
  3  2  1  0
  5  1  1  0
  8  3  1  0
  7  9  1  1
 10  2  1  0
  3 11  1  6
  1 12  1  6
 13  7  1  0
 14  4  1  0
 14 16  1  1
  2 17  1  1
 18  1  1  0
 18  6  1  0
 19  6  2  0
 20  5  2  0
 20 19  1  0
 21  7  1  0
 10 22  1  1
 23 10  1  0
 23 21  1  0
 24  7  1  0
 25 14  1  0
 26 15  1  0
 26 24  1  0
 27  4  1  0
 27 26  1  0
 28  6  1  0
 28  8  2  3
 28 18  1  0
M  RAD  4   7   2  13   2  14   2  16   2
M  END
>  <ID>  (1) 
conformer_0

$$$$
