
     RDKit          3D

 30 31  0  0  0  0  0  0  0  0999 V2000
   -5.5948   14.0154   18.5353 C   0  0  2  0  0  0  0  0  0  0  0  0
   -9.9016   12.2469   15.8452 C   0  0  0  0  0  0  0  0  0  0  0  0
   -5.8715   14.0915   17.2582 C   0  0  2  0  0  0  0  0  0  0  0  0
   -8.6962   12.9811   16.2913 C   0  0  0  0  0  0  0  0  0  0  0  0
  -11.0435   13.1234   16.6435 N   0  0  0  0  0  0  0  0  0  0  0  0
   -6.9737   13.2241   16.4820 N   0  0  0  0  0  0  0  0  0  0  0  0
   -7.8737   11.7746   15.3089 N   0  0  0  0  0  0  0  0  0  0  0  0
  -10.7979   11.2482   15.3323 N   0  0  0  0  0  0  0  0  0  0  0  0
   -4.5279   13.9712   16.3280 O   0  0  0  0  0  0  0  0  0  0  0  0
   -3.6176   13.5162   17.4592 C   0  0  2  0  0  0  0  0  0  0  0  0
   -2.9520   10.0334   16.0942 P   0  0  0  0  0  5  0  0  0  0  0  0
    1.3935    7.8070   18.0822 P   0  0  0  0  0  4  0  0  0  0  0  0
  -10.0877   13.9489   17.4188 C   0  0  0  0  0  0  0  0  0  0  0  0
   -5.2594   15.0826   19.0484 O   0  0  0  0  0  0  0  0  0  0  0  0
   -3.0998   11.8151   16.5351 O   0  0  0  0  0  0  0  0  0  0  0  0
    1.1545    6.4162   17.5557 O   0  0  0  0  0  0  0  0  0  0  0  0
    0.5016    9.8536   16.1253 O   0  0  0  0  0  0  0  0  0  0  0  0
   -9.0581   14.0944   17.5001 N   0  0  0  0  0  0  0  0  0  0  0  0
   -0.7717    8.6910   18.1810 C   0  0  0  0  0  0  0  0  0  0  0  0
    2.2004    8.5225   17.4667 O   0  0  0  0  0  1  0  0  0  0  0  0
   -4.1775    9.8540   16.1060 O   0  0  0  0  0  0  0  0  0  0  0  0
   -3.4605   13.5104   19.6469 O   0  0  0  0  0  0  0  0  0  0  0  0
   -1.7393    8.9291   15.7444 O   0  0  0  0  0  0  0  0  0  0  0  0
   -2.4231   12.8181   16.6569 C   0  0  0  0  0  0  0  0  0  0  0  0
   -3.3444    9.1722   17.4692 O   0  0  0  0  0  0  0  0  0  0  0  0
   -7.1612   12.4843   15.8962 C   0  0  0  0  0  0  0  0  0  0  0  0
    1.8719    7.4146   19.2244 O   0  0  0  0  0  0  0  0  0  0  0  0
   -0.4890    9.1581   16.7879 P   0  0  0  0  0  0  0  0  0  0  0  0
   -2.6189   10.5198   15.0496 O   0  0  0  0  0  0  0  0  0  0  0  0
   -3.9905   13.2569   18.5521 C   0  0  1  0  0  0  0  0  0  0  0  0
  3  1  1  0
  4  2  2  0
  5  2  1  0
  3  6  1  6
  8  2  1  0
  9  3  1  0
 10  9  1  0
 13  5  1  0
  1 14  1  6
 15 11  1  0
 16 12  1  0
 18  4  1  0
 18 13  2  0
 19 12  1  0
 20 12  1  0
 21 11  1  0
 23 11  1  0
 10 24  1  6
 24 15  1  0
 25 11  1  0
 26  4  1  0
 26  6  1  0
 26  7  2  3
 27 12  1  0
 28 17  1  0
 28 19  1  0
 28 23  1  0
 29 11  1  0
 30  1  1  0
 30 10  1  0
 30 22  1  1
M  RAD  2  12   2  20   2
M  END
>  <ID>  (1) 
conformer_0

$$$$
