
     RDKit          3D

 28 29  0  0  0  0  0  0  0  0999 V2000
   -5.6070   14.1218   17.3122 C   0  0  2  0  0  0  0  0  0  0  0  0
  -10.1475   12.3919   16.1722 C   0  0  0  0  0  0  0  0  0  0  0  0
   -5.0302   13.5641   18.2716 C   0  0  0  0  0  0  0  0  0  0  0  0
   -7.3832   12.5618   16.1181 C   0  0  0  0  0  0  0  0  0  0  0  0
   -6.9875   13.2273   16.6290 N   0  0  0  0  0  0  0  0  0  0  0  0
  -11.1422   13.2650   16.9222 N   0  0  0  0  0  0  0  0  0  0  0  0
   -8.2659   11.9285   15.6474 N   0  0  0  0  0  0  0  0  0  0  0  0
   -0.5264    8.3127   18.3357 C   0  0  0  0  0  0  0  0  0  0  0  0
   -2.7215   10.2084   15.9110 P   0  0  0  0  0  0  0  0  0  0  0  0
   -3.7251   13.1932   17.5960 C   0  0  2  0  0  0  0  0  0  0  0  0
   -4.5856   13.9932   16.1561 O   0  0  0  0  0  0  0  0  0  0  0  0
   -4.0202    9.4579   16.1454 O   0  0  0  0  0  0  0  0  0  0  0  0
  -10.8474   11.5365   15.5679 N   0  0  0  0  0  0  0  0  0  0  0  0
    1.7333    7.4858   17.7980 P   0  0  0  0  0  4  0  0  0  0  0  0
   -3.0632   11.4323   16.4908 O   0  0  0  0  0  0  0  0  0  0  0  0
    1.7151    6.0793   18.2290 O   0  0  0  0  0  0  0  0  0  0  0  0
    0.1658   10.2758   16.4436 O   0  0  0  0  0  0  0  0  0  0  0  0
    1.9977    7.6930   16.4618 O   0  0  0  0  0  1  0  0  0  0  0  0
   -8.8769   13.1644   16.5887 C   0  0  2  0  0  0  0  0  0  0  0  0
   -8.9276   14.3399   17.5081 N   0  0  0  0  0  0  0  0  0  0  0  0
   -5.6160   14.7811   18.9403 O   0  0  0  0  0  0  0  0  0  0  0  0
   -1.1371    8.7497   15.7069 O   0  0  0  0  0  0  0  0  0  0  0  0
   -3.7997   13.1822   19.4035 O   0  0  0  0  0  0  0  0  0  0  0  0
    2.4131    8.2433   18.6766 O   0  0  0  0  0  0  0  0  0  0  0  0
   -2.6205   10.4512   14.7946 O   0  0  0  0  0  0  0  0  0  0  0  0
   -2.8877   12.9708   16.4440 C   0  0  1  0  0  0  0  0  0  0  0  0
   -0.3679    8.8399   16.6958 P   0  0  0  0  0  0  0  0  0  0  0  0
   -9.9633   14.2035   17.5384 C   0  0  0  0  0  0  0  0  0  0  0  0
  3  1  1  0
  1  5  1  6
  5  4  1  0
  6  2  2  0
  7  4  2  3
 10  3  1  0
 11  1  1  0
 10 11  1  1
 12  9  1  0
 13  2  1  0
 14  8  1  0
 16 14  1  0
 18 14  1  0
 19  2  1  0
 19  4  1  1
 20 19  1  0
 21  3  1  0
 22  9  1  0
 23  3  1  0
 24 14  1  0
 25  9  1  0
 26 10  1  0
 26 15  1  1
 26 25  1  0
 27  8  1  0
 27 17  1  0
 27 22  1  0
 28  6  1  0
 28 20  2  0
M  RAD  2  14   2  18   2
M  END
>  <ID>  (1) 
conformer_0

$$$$
