
     RDKit          3D

 30 32  0  0  0  0  0  0  0  0999 V2000
   -5.5406   14.3049   17.3014 C   0  0  0  0  0  0  0  0  0  0  0  0
  -10.2551   12.5751   16.1908 C   0  0  0  0  0  0  0  0  0  0  0  0
   -4.9998   13.7524   18.2977 C   0  0  0  0  0  0  0  0  0  0  0  0
   -6.6863   12.4622   15.5617 C   0  0  0  0  0  0  0  0  0  0  0  0
   -8.6617   14.1637   17.7551 N   0  0  0  0  0  0  0  0  0  0  0  0
   -7.9407   11.9157   15.2273 N   0  0  0  0  0  0  0  0  0  0  0  0
   -4.4801   14.0573   16.2173 O   0  0  0  0  0  0  0  0  0  0  0  0
   -6.8785   13.3753   16.5555 N   0  0  0  0  0  0  0  0  0  0  0  0
  -10.9128   11.7201   15.5254 N   0  0  0  0  0  0  0  0  0  0  0  0
   -3.7248   13.4524   17.6683 C   0  0  0  0  0  0  0  0  0  0  0  0
    1.4017    7.5237   18.5636 P   0  0  0  0  0  4  0  0  0  0  0  0
   -4.0218    9.6298   16.4083 O   0  0  0  0  0  0  0  0  0  0  0  0
   -0.6747    8.1219   18.0737 C   0  0  0  0  0  0  0  0  0  0  0  0
   -4.6463   15.2848   18.7379 O   0  0  0  0  0  0  0  0  0  0  0  0
   -0.5319    9.0102   17.1467 P   0  0  0  0  0  0  0  0  0  0  0  0
   -2.6485    9.4437   14.7907 O   0  0  0  0  0  0  0  0  0  0  0  0
    1.5494    7.9028   19.8523 O   0  0  0  0  0  0  0  0  0  0  0  0
   -0.2209    9.1656   15.2348 O   0  0  0  0  0  0  0  0  0  0  0  0
   -9.9749   14.1968   17.7502 C   0  0  0  0  0  0  0  0  0  0  0  0
  -10.7830   13.4363   17.1741 N   0  0  0  0  0  0  0  0  0  0  0  0
   -3.4186   13.3793   19.1581 O   0  0  0  0  0  0  0  0  0  0  0  0
   -2.9994   11.7006   16.1410 O   0  0  0  0  0  0  0  0  0  0  0  0
    2.0756    8.6213   17.7873 O   0  0  0  0  0  1  0  0  0  0  0  0
    1.7248    6.3752   18.3731 O   0  0  0  0  0  0  0  0  0  0  0  0
   -3.0347   13.0194   16.3340 C   0  0  0  0  0  0  0  0  0  0  0  0
   -8.9332   12.5410   15.8728 C   0  0  0  0  0  0  0  0  0  0  0  0
    0.1075   10.8260   16.5523 O   0  0  0  0  0  0  0  0  0  0  0  0
   -1.7671    9.8605   16.6522 O   0  0  0  0  0  0  0  0  0  0  0  0
   -2.6455   10.1299   15.9463 P   0  0  0  0  0  5  0  0  0  0  0  0
   -8.0297   13.4062   16.7964 C   0  0  0  0  0  0  0  0  0  0  0  0
  3  1  1  0
  6  4  2  0
  7  1  1  0
  8  1  1  0
  8  4  1  0
  9  2  1  0
 10  3  1  0
 10  7  1  0
 13 11  1  0
 14  3  1  0
 15 13  1  0
 17 11  1  0
 18 15  1  0
 19  5  2  0
 20  2  2  0
 20 19  1  0
 21 10  1  0
 23 11  1  0
 24 11  1  0
 25 10  1  0
 25 22  1  0
 26  2  1  0
 26  6  1  0
 27 15  1  0
 29 12  1  0
 29 13  1  0
 29 16  1  0
 29 22  1  0
 29 28  1  0
 30  5  1  0
 30  8  1  0
 30 26  2  0
M  RAD  2  11   2  23   2
M  END
>  <ID>  (1) 
conformer_0

$$$$
