
     RDKit          3D

 33 35  0  0  0  0  0  0  0  0999 V2000
   -5.6482   14.4002   17.2385 C   0  0  0  0  0  0  0  0  0  0  0  0
   -9.0477   12.6452   15.9370 C   0  0  0  0  0  0  0  0  0  0  0  0
   -5.6923   14.1146   18.3664 C   0  0  0  0  0  0  0  0  0  0  0  0
   -6.7979   12.3550   15.6548 C   0  0  0  0  0  0  0  0  0  0  0  0
   -8.0689   11.9664   15.2415 N   0  0  0  0  0  0  0  0  0  0  0  0
   -9.0303   14.2269   17.7927 N   0  0  0  0  0  0  0  0  0  0  0  0
   -4.0927   13.6369   18.1036 C   0  0  0  0  0  0  0  0  0  0  0  0
   -4.5199   14.1248   16.2656 O   0  0  0  0  0  0  0  0  0  0  0  0
   -0.3841    7.7818   17.8441 C   0  0  0  0  0  0  0  0  0  0  0  0
   -7.0249   13.3799   16.5354 N   0  0  0  0  0  0  0  0  0  0  0  0
   -4.2257    9.3467   16.1380 O   0  0  0  0  0  0  0  0  0  0  0  0
  -10.9196   11.4723   15.5188 N   0  0  0  0  0  0  0  0  0  0  0  0
   -2.7424    9.9385   15.8336 P   0  0  0  0  0  0  0  0  0  0  0  0
    1.8159    7.6021   18.4803 P   0  0  0  0  0  5  0  0  0  0  0  0
    2.6954    6.9813   19.6655 O   0  0  0  0  0  0  0  0  0  0  0  0
   -3.2254   11.5285   16.0472 O   0  0  0  0  0  0  0  0  0  0  0  0
   -0.3373    8.5976   15.1603 O   0  0  0  0  0  0  0  0  0  0  0  0
  -10.3934   12.5740   16.3447 C   0  0  0  0  0  0  0  0  0  0  0  0
   -5.6508   15.8154   18.4265 O   0  0  0  0  0  0  0  0  0  0  0  0
   -4.1916   14.6932   19.1685 O   0  0  0  0  0  0  0  0  0  0  0  0
  -11.0487   13.2668   17.0124 N   0  0  0  0  0  0  0  0  0  0  0  0
    2.5869    8.2446   17.5227 O   0  0  0  0  0  0  0  0  0  0  0  0
    1.4785    6.0118   18.1996 O   0  0  0  0  0  0  0  0  0  0  0  0
   -3.3445   13.2205   16.9647 C   0  0  0  0  0  0  0  0  0  0  0  0
   -2.0366    9.4320   16.6544 O   0  0  0  0  0  0  0  0  0  0  0  0
  -10.1729   14.2904   17.8828 C   0  0  0  0  0  0  0  0  0  0  0  0
   -0.3680    8.4368   16.9447 P   0  0  0  0  0  5  0  0  0  0  0  0
   -2.6104    9.8193   14.6887 O   0  0  0  0  0  0  0  0  0  0  0  0
    0.2445   10.0420   16.4964 O   0  0  0  0  0  0  0  0  0  0  0  0
    1.9759    8.8063   19.4920 O   0  0  0  0  0  0  0  0  0  0  0  0
   -2.5516   12.5459   15.9883 C   0  0  0  0  0  0  0  0  0  0  0  0
   -3.0723   12.7932   19.0359 O   0  0  0  0  0  0  0  0  0  0  0  0
   -8.2754   13.4605   16.7976 C   0  0  0  0  0  0  0  0  0  0  0  0
  3  1  1  0
  5  2  1  0
  5  4  2  0
  7  3  1  0
  8  1  1  0
 10  1  1  0
 10  4  1  0
 13 11  1  0
 14  9  1  0
 15 14  1  0
 18  2  2  0
 18 12  1  0
 19  3  1  0
 20  7  1  0
 21 18  1  0
 22 14  1  0
 23 14  1  0
 24  7  1  0
 24  8  1  0
 25 13  1  0
 26  6  1  0
 26 21  2  0
 27  9  1  0
 27 17  1  0
 27 25  1  0
 28 13  1  0
 29 27  1  0
 30 14  1  0
 31 16  1  0
 31 24  1  0
 31 28  1  0
 32  7  1  0
 33  2  1  0
 33  6  2  0
 33 10  1  0
M  END
>  <ID>  (1) 
conformer_0

$$$$
