
     RDKit          3D

 30 32  0  0  0  0  0  0  0  0999 V2000
   -5.2281   13.9580   18.3290 C   0  0  0  0  0  0  0  0  0  0  0  0
   -9.0159   12.7209   16.0126 C   0  0  0  0  0  0  0  0  0  0  0  0
   -3.7654   13.3608   17.6624 C   0  0  0  0  0  0  0  0  0  0  0  0
   -8.8746   14.4743   17.9437 N   0  0  0  0  0  0  0  0  0  0  0  0
   -6.9419   12.4172   15.5577 C   0  0  0  0  0  0  0  0  0  0  0  0
   -8.2293   12.0208   15.3170 N   0  0  0  0  0  0  0  0  0  0  0  0
    0.2419    7.9574   18.2717 C   0  0  0  0  0  0  0  0  0  0  0  0
   -4.7603   14.1767   16.1617 O   0  0  0  0  0  0  0  0  0  0  0  0
  -10.8562   11.6349   15.6648 N   0  0  0  0  0  0  0  0  0  0  0  0
   -2.8993   10.0369   16.3709 P   0  0  0  0  0  4  0  0  0  0  0  0
   -7.0891   13.4922   16.4562 N   0  0  0  0  0  0  0  0  0  0  0  0
   -4.3402    9.5691   16.2551 O   0  0  0  0  0  0  0  0  0  0  0  0
    1.7628    7.5318   17.9271 P   0  0  0  0  0  0  0  0  0  0  0  0
  -10.8509   13.5535   17.0556 N   0  0  0  0  0  0  0  0  0  0  0  0
    2.6043    7.3703   19.0944 O   0  0  0  0  0  0  0  0  0  0  0  0
   -3.0294   11.5346   16.4373 O   0  0  0  0  0  0  0  0  0  0  0  0
  -10.3073   12.7770   16.4210 C   0  0  0  0  0  0  0  0  0  0  0  0
   -3.0907   12.9719   16.6144 C   0  0  0  0  0  0  0  0  0  0  0  0
    0.1853   10.1439   16.3062 O   0  0  0  0  0  0  0  0  0  0  0  0
   -5.2713   15.1146   18.9800 O   0  0  0  0  0  0  0  0  0  0  0  0
   -2.2957    9.4709   15.0032 O   0  0  0  0  0  1  0  0  0  0  0  0
   -3.8276   13.5027   19.2984 O   0  0  0  0  0  0  0  0  0  0  0  0
  -10.0537   14.5805   17.9840 C   0  0  0  0  0  0  0  0  0  0  0  0
    2.4378    8.3576   17.2393 O   0  0  0  0  0  0  0  0  0  0  0  0
   -2.6827    9.6639   17.3783 O   0  0  0  0  0  0  0  0  0  0  0  0
   -5.8142   14.2759   17.1585 C   0  0  0  0  0  0  0  0  0  0  0  0
   -0.4843    9.1577   16.8220 P   0  0  0  0  0  0  0  0  0  0  0  0
    1.8996    6.1369   17.7774 O   0  0  0  0  0  0  0  0  0  0  0  0
   -8.3019   13.7550   16.8645 C   0  0  0  0  0  0  0  0  0  0  0  0
   -1.5466    8.3622   18.1670 C   0  0  0  0  0  0  0  0  0  0  0  0
  3  1  1  0
  6  2  1  0
  6  5  2  0
 11  5  1  0
 12 10  1  0
 15 13  1  0
 16 10  1  0
 17  2  1  0
 17  9  1  0
 17 14  2  0
 18  3  1  0
 18 16  1  0
 20  1  1  0
 21 10  1  0
 22  3  1  0
 23  4  2  0
 23 14  1  0
 24  7  1  0
 24 13  1  0
 25 10  1  0
 26  1  1  0
 26  8  1  0
 26 11  1  0
 27  7  1  0
 27 19  1  0
 28 13  1  0
 29  2  2  0
 29  4  1  0
 29 11  1  0
 30  7  1  0
 30 25  1  0
 30 27  1  0
M  RAD  2  10   2  21   2
M  END
>  <ID>  (1) 
conformer_0

$$$$
