
     RDKit          3D

 28 30  0  0  0  0  0  0  0  0999 V2000
   -5.7262   14.2865   17.6077 C   0  0  1  0  0  0  0  0  0  0  0  0
   -9.7022   14.1342   17.6930 C   0  0  0  0  0  0  0  0  0  0  0  0
   -4.9520   14.0304   18.4112 C   0  0  0  0  0  0  0  0  0  0  0  0
   -8.5197   13.2424   16.6483 C   0  0  2  0  0  0  0  0  0  0  0  0
   -1.5106    8.0050   17.9993 C   0  0  1  0  0  0  0  0  0  0  0  0
   -8.8418   14.4124   17.9200 N   0  0  0  0  0  0  0  0  0  0  0  0
   -8.0253   11.9546   15.3396 N   0  0  0  0  0  0  0  0  0  0  0  0
   -4.8399   14.1045   16.2769 O   0  0  0  0  0  0  0  0  0  0  0  0
   -2.4428    9.8478   15.9699 P   0  0  0  0  0  0  0  0  0  0  0  0
   -4.2393    9.4984   15.8143 O   0  0  0  0  0  0  0  0  0  0  0  0
   -7.0766   13.5331   16.7318 N   0  0  0  0  0  0  0  0  0  0  0  0
  -10.8293   11.5631   15.4880 N   0  0  0  0  0  0  0  0  0  0  0  0
   -3.0239   11.4755   16.1910 O   0  0  0  0  0  0  0  0  0  0  0  0
   -3.8244   13.4093   17.5882 C   0  0  0  0  0  0  0  0  0  0  0  0
   -9.8885   12.4222   16.1036 C   0  0  0  0  0  0  0  0  0  0  0  0
    0.6815    8.5602   17.5758 P   0  0  0  0  0  0  0  0  0  0  0  0
    0.5017   10.1924   16.4546 O   0  0  0  0  0  0  0  0  0  0  0  0
   -5.0073   15.4588   18.9970 O   0  0  0  0  0  0  0  0  0  0  0  0
  -10.8653   13.2926   17.0850 N   0  0  0  0  0  0  0  0  0  0  0  0
    1.7011    7.3984   18.7576 O   0  0  0  0  0  0  0  0  0  0  0  0
    1.8539    8.0293   17.2359 O   0  0  0  0  0  0  0  0  0  0  0  0
   -2.2150    9.5844   16.6658 O   0  0  0  0  0  0  0  0  0  0  0  0
   -3.4784   14.1756   19.2055 O   0  0  0  0  0  0  0  0  0  0  0  0
   -1.8956    9.6287   14.5261 O   0  0  0  0  0  0  0  0  0  0  0  0
    0.3850    8.9407   19.9066 C   0  0  0  0  0  0  0  0  0  0  0  0
   -3.0664   12.9882   16.6164 C   0  0  0  0  0  0  0  0  0  0  0  0
   -7.2930   12.6364   15.8351 C   0  0  0  0  0  0  0  0  0  0  0  0
   -0.0848    8.7268   18.8485 C   0  0  0  0  0  0  0  0  0  0  0  0
  3  1  1  0
  6  2  1  0
  4  6  1  6
  8  1  1  0
 10  9  1  0
  1 11  1  6
 11  4  1  0
 13  9  1  0
 14  3  1  0
 14  8  1  0
 15  4  1  0
 15 12  1  0
 17 16  1  0
 18  3  1  0
 19  2  1  0
 19 15  2  0
 20 16  1  0
 21 16  1  0
 22  5  1  0
 22  9  1  0
 23  3  1  0
  5 24  1  6
 26 13  1  0
 26 14  1  0
 27  4  1  0
 27  7  2  3
 27 11  1  0
 28  5  1  0
 28 21  1  0
 28 25  2  3
M  END
>  <ID>  (1) 
conformer_0

$$$$
