
     RDKit          3D

 28 29  0  0  0  0  0  0  0  0999 V2000
   -9.9461   14.2434   17.5147 C   0  0  0  0  0  0  0  0  0  0  0  0
   -4.7522   13.5897   18.2998 C   0  0  0  0  0  0  0  0  0  0  0  0
   -5.7364   13.9554   17.4978 C   0  0  2  0  0  0  0  0  0  0  0  0
   -8.7298   13.0995   16.4030 C   0  0  0  0  0  0  0  0  0  0  0  0
   -8.8534   14.3922   17.4688 N   0  0  0  0  0  0  0  0  0  0  0  0
   -8.1458   11.7697   15.2890 N   0  0  0  0  0  0  0  0  0  0  0  0
   -7.0417   13.2508   16.5092 N   0  0  0  0  0  0  0  0  0  0  0  0
   -4.6960   14.0668   16.2384 O   0  0  0  0  0  0  0  0  0  0  0  0
   -3.7013    9.3898   16.1681 O   0  0  0  0  0  0  0  0  0  0  0  0
    1.4061    7.5464   18.3361 P   0  0  0  0  0  4  0  0  0  0  0  0
   -3.6456   13.2808   17.5002 C   0  0  2  0  0  0  0  0  0  0  0  0
  -10.8426   11.4663   15.4609 N   0  0  0  0  0  0  0  0  0  0  0  0
   -0.3017    8.9985   17.1205 P   0  0  0  0  0  0  0  0  0  0  0  0
   -9.9841   12.4645   16.1244 C   0  0  0  0  0  0  0  0  0  0  0  0
    0.2913   10.5545   16.7295 O   0  0  0  0  0  0  0  0  0  0  0  0
   -2.8658   11.6064   16.1203 O   0  0  0  0  0  0  0  0  0  0  0  0
    1.6968    6.3655   18.2586 O   0  0  0  0  0  0  0  0  0  0  0  0
  -10.9435   13.3494   16.8817 N   0  0  0  0  0  0  0  0  0  0  0  0
   -5.4133   14.8202   19.1507 O   0  0  0  0  0  0  0  0  0  0  0  0
   -0.5629    8.2275   18.2267 C   0  0  0  0  0  0  0  0  0  0  0  0
   -1.1290    8.9484   15.0686 O   0  0  0  0  0  1  0  0  0  0  0  0
    2.3656    8.5065   17.7375 O   0  0  0  0  0  1  0  0  0  0  0  0
   -7.2599   12.5204   15.8942 C   0  0  0  0  0  0  0  0  0  0  0  0
   -2.8033   12.9353   16.2822 C   0  0  0  0  0  0  0  0  0  0  0  0
   -3.5654   13.9110   19.3181 O   0  0  0  0  0  0  0  0  0  0  0  0
    1.6482    7.7914   19.7313 O   0  0  0  0  0  0  0  0  0  0  0  0
   -2.5378   10.0889   16.1429 P   0  0  2  0  0  4  0  0  0  0  0  0
   -2.0129   10.0966   16.9865 O   0  0  0  0  0  0  0  0  0  0  0  0
  3  2  1  0
  5  1  2  0
  5  4  1  0
  3  7  1  6
  8  3  1  0
 11  2  1  0
 11  8  1  0
 14  4  2  0
 14 12  1  0
 15 13  1  0
 17 10  1  0
 18  1  1  0
 18 14  1  0
 19  2  1  0
 20 10  1  0
 20 13  1  0
 22 10  1  0
 23  4  1  0
 23  6  2  3
 23  7  1  0
 11 24  1  6
 24 16  1  0
 25  2  1  0
 26 10  1  0
 27  9  1  1
 27 16  1  0
 27 21  1  0
 28 13  1  0
 28 27  1  0
M  RAD  4  10   2  21   2  22   2  27   2
M  END
>  <ID>  (1) 
conformer_0

$$$$
