
     RDKit          3D

 31 33  0  0  0  0  0  0  0  0999 V2000
   -5.0854   13.7918   18.4418 C   0  0  0  0  0  0  0  0  0  0  0  0
  -10.1520   14.5985   17.8860 C   0  0  0  0  0  0  0  0  0  0  0  0
   -3.9794   13.3506   17.3902 C   0  0  0  0  0  0  0  0  0  0  0  0
   -3.0502   12.9089   16.2617 C   0  0  0  0  0  0  0  0  0  0  0  0
   -8.1806   11.8996   15.4729 N   0  0  0  0  0  0  0  0  0  0  0  0
   -9.1496   12.7002   16.2460 C   0  0  0  0  0  0  0  0  0  0  0  0
   -4.9452   14.2918   16.3029 O   0  0  0  0  0  0  0  0  0  0  0  0
   -8.9553   14.5221   17.8789 N   0  0  0  0  0  0  0  0  0  0  0  0
   -0.8242    8.2276   18.3969 C   0  0  0  0  0  0  0  0  0  0  0  0
   -0.4481    9.0756   16.6688 P   0  0  0  0  0  0  0  0  0  0  0  0
  -10.9060   11.5946   15.5047 N   0  0  0  0  0  0  0  0  0  0  0  0
    2.0843    7.5210   18.1223 P   0  0  0  0  0  0  0  0  0  0  0  0
   -7.1862   13.4785   16.7373 N   0  0  0  0  0  0  0  0  0  0  0  0
  -10.3296   12.6548   16.4361 C   0  0  0  0  0  0  0  0  0  0  0  0
   -2.9185    9.7952   14.9863 O   0  0  0  0  0  0  0  0  0  0  0  0
    2.6923    6.2800   17.9814 O   0  0  0  0  0  0  0  0  0  0  0  0
  -11.0590   13.4373   17.0084 N   0  0  0  0  0  0  0  0  0  0  0  0
   -5.9800   14.7783   19.4115 O   0  0  0  0  0  0  0  0  0  0  0  0
    0.2041   10.0386   16.0252 O   0  0  0  0  0  0  0  0  0  0  0  0
   -4.1069    9.6653   16.7112 O   0  0  0  0  0  0  0  0  0  0  0  0
    2.8833    8.5850   17.9885 O   0  0  0  0  0  0  0  0  0  0  0  0
   -3.4875   11.7204   16.2939 O   0  0  0  0  0  0  0  0  0  0  0  0
   -7.0110   12.3221   15.7440 C   0  0  0  0  0  0  0  0  0  0  0  0
   -2.9144   10.0847   16.1609 P   0  0  0  0  0  5  0  0  0  0  0  0
   -5.8286   14.2174   17.6242 C   0  0  0  0  0  0  0  0  0  0  0  0
   -2.0672   10.1625   17.1397 O   0  0  0  0  0  0  0  0  0  0  0  0
    2.1528    7.3705   19.5591 O   0  0  0  0  0  0  0  0  0  0  0  0
   -4.0163   14.5769   19.2655 O   0  0  0  0  0  0  0  0  0  0  0  0
   -1.3152    8.4019   15.5343 O   0  0  0  0  0  0  0  0  0  0  0  0
   -8.3677   13.6994   17.0917 C   0  0  0  0  0  0  0  0  0  0  0  0
    0.6615    7.7148   17.2555 C   0  0  0  0  0  0  0  0  0  0  0  0
  3  1  1  0
  4  3  1  0
  6  5  1  0
  7  3  1  0
  8  2  2  0
 14  6  1  0
 14 11  1  0
 16 12  1  0
 17  2  1  0
 17 14  2  0
 18  1  1  0
 19 10  1  0
 21 12  1  0
 22  4  1  0
 23  5  2  0
 23 13  1  0
 24 15  1  0
 24 20  1  0
 24 22  1  0
 25  1  1  0
 25  7  1  0
 25 13  1  0
 26 24  1  0
 27 12  1  0
 28  1  1  0
 29 10  1  0
 29 24  1  0
 30  6  2  0
 30  8  1  0
 30 13  1  0
 31  9  1  0
 31 10  1  0
 31 21  1  0
M  END
>  <ID>  (1) 
conformer_0

$$$$
