
     RDKit          3D

 30 30  0  0  0  0  0  0  0  0999 V2000
  -10.0001   14.2764   17.7791 C   0  0  0  0  0  0  0  0  0  0  0  0
   -5.5947   13.8959   18.3324 C   0  0  1  0  0  0  0  0  0  0  0  0
   -4.0432   13.2979   18.1223 C   0  0  2  0  0  0  0  0  0  0  0  0
   -8.9789   14.4163   17.8473 N   0  0  0  0  0  0  0  0  0  0  0  0
   -7.4230   12.7393   15.8729 C   0  0  0  0  0  0  0  0  0  0  0  0
   -8.3686   12.1450   15.5160 N   0  0  0  0  0  0  0  0  0  0  0  0
   -4.9756   14.4190   16.2801 O   0  0  0  0  0  0  0  0  0  0  0  0
   -4.4545    9.4240   16.0289 O   0  0  0  0  0  0  0  0  0  0  0  0
   -2.8672   12.7100   16.1013 C   0  0  0  0  0  0  0  0  0  0  0  0
    1.5473    7.1997   18.1826 P   0  0  0  0  0  0  0  0  0  0  0  0
  -10.9797   11.5038   15.7491 N   0  0  0  0  0  0  0  0  0  0  0  0
   -3.0965    9.9712   15.9597 P   0  0  0  0  0  5  0  0  0  0  0  0
    0.0363   10.0164   16.1201 O   0  0  0  0  0  0  0  0  0  0  0  0
   -7.2148   13.4983   16.5982 N   0  0  0  0  0  0  0  0  0  0  0  0
   -2.5591    9.7200   17.2128 O   0  0  0  0  0  0  0  0  0  0  0  0
  -10.1712   12.4453   16.2949 C   0  0  0  0  0  0  0  0  0  0  0  0
   -5.3447   15.0241   19.1099 O   0  0  0  0  0  0  0  0  0  0  0  0
  -10.9376   13.3709   17.1285 N   0  0  0  0  0  0  0  0  0  0  0  0
    1.5552    5.8763   17.9163 O   0  0  0  0  0  0  0  0  0  0  0  0
   -0.2543    7.7330   17.7256 C   0  0  0  0  0  0  0  0  0  0  0  0
   -3.4053   11.5017   16.1658 O   0  0  0  0  0  0  0  0  0  0  0  0
    1.8392    7.5228   19.4697 O   0  0  0  0  0  0  0  0  0  0  0  0
    2.8502    7.7439   18.1089 O   0  0  0  0  0  0  0  0  0  0  0  0
   -6.0826   14.5125   17.1840 C   0  0  1  0  0  0  0  0  0  0  0  0
   -3.6024   13.7822   19.1964 O   0  0  0  0  0  0  0  0  0  0  0  0
   -0.5407    8.8838   16.6367 P   0  0  0  0  0  0  0  0  0  0  0  0
   -2.5927    9.9082   14.6398 O   0  0  0  0  0  0  0  0  0  0  0  0
   -8.8322   13.1738   16.6398 C   0  0  0  0  0  0  0  0  0  0  0  0
   -1.3404    8.5113   15.7694 O   0  0  0  0  0  0  0  0  0  0  0  0
   -3.7073   13.6774   16.7667 C   0  0  2  0  0  0  0  0  0  0  0  0
  3  2  1  0
  4  1  2  3
  6  5  1  0
 12  8  1  0
 14  5  2  3
 15 12  1  0
 16 11  2  3
  2 17  1  1
 18  1  1  0
 18 16  1  0
 19 10  1  0
 21  9  1  0
 21 12  1  0
 22 10  1  0
 23 10  1  0
 23 20  1  0
 24  2  1  0
 24  7  1  6
 24 14  1  0
  3 25  1  1
 26 13  1  0
 26 20  1  0
 27 12  1  0
 28  6  2  3
 28 16  1  0
 29 12  1  0
 29 26  1  0
 30  3  1  0
 30  7  1  0
 30  9  1  6
M  END
>  <ID>  (1) 
conformer_0

$$$$
