
     RDKit          3D

 29 31  0  0  0  0  0  0  0  0999 V2000
   -5.8566   14.3727   17.5361 C   0  0  0  0  0  0  0  0  0  0  0  0
  -10.2251   12.2570   16.0312 C   0  0  0  0  0  0  0  0  0  0  0  0
   -4.1099   13.0413   18.4550 C   0  0  0  0  0  0  0  0  0  0  0  0
   -8.9740   12.3956   15.8594 C   0  0  0  0  0  0  0  0  0  0  0  0
  -11.0936   12.9564   16.6142 N   0  0  0  0  0  0  0  0  0  0  0  0
   -4.5473   14.4683   16.5539 O   0  0  0  0  0  0  0  0  0  0  0  0
   -0.5805    7.9981   18.1286 C   0  0  0  0  0  0  0  0  0  0  0  0
   -3.6174   13.5574   17.3277 C   0  0  0  0  0  0  0  0  0  0  0  0
   -7.0008   13.5721   16.7719 N   0  0  0  0  0  0  0  0  0  0  0  0
   -7.8505   11.9992   15.3229 N   0  0  0  0  0  0  0  0  0  0  0  0
  -10.6368   11.1444   15.2320 N   0  0  0  0  0  0  0  0  0  0  0  0
   -4.0711    9.5905   16.5345 O   0  0  0  0  0  0  0  0  0  0  0  0
   -3.0233   10.1821   15.9659 P   0  0  0  0  0  0  0  0  0  0  0  0
  -10.3000   14.0226   17.5515 C   0  0  0  0  0  0  0  0  0  0  0  0
    2.4248    8.0020   17.6734 O   0  0  0  0  0  1  0  0  0  0  0  0
   -1.7429    9.2304   16.1497 O   0  0  0  0  0  1  0  0  0  0  0  0
    0.5639    9.4559   16.0525 O   0  0  0  0  0  0  0  0  0  0  0  0
    1.4569    7.9240   17.9854 P   0  0  0  0  0  4  0  0  0  0  0  0
   -5.5254   14.7389   19.4324 O   0  0  0  0  0  0  0  0  0  0  0  0
   -9.1594   14.0602   17.4421 N   0  0  0  0  0  0  0  0  0  0  0  0
   -3.3192   13.3503   19.4218 O   0  0  0  0  0  0  0  0  0  0  0  0
    1.5238    6.7454   18.5218 O   0  0  0  0  0  0  0  0  0  0  0  0
   -2.6631   11.5224   16.3723 O   0  0  0  0  0  0  0  0  0  0  0  0
   -2.5874   12.8128   16.4743 C   0  0  0  0  0  0  0  0  0  0  0  0
   -2.7135    9.9541   14.5326 O   0  0  0  0  0  0  0  0  0  0  0  0
   -6.7833   12.7167   15.7714 C   0  0  0  0  0  0  0  0  0  0  0  0
   -0.7205    9.1377   16.6207 P   0  0  0  0  0  4  0  0  0  0  0  0
   -8.3082   13.5257   16.7796 C   0  0  0  0  0  0  0  0  0  0  0  0
   -5.6691   13.7357   18.5908 C   0  0  0  0  0  0  0  0  0  0  0  0
  4  2  2  0
  5  2  1  0
  6  1  1  0
  8  3  1  0
  8  6  1  0
  9  1  1  0
 10  4  1  0
 11  2  1  0
 13 12  1  0
 14  5  2  0
 18  7  1  0
 18 15  1  0
 20 14  1  0
 21  3  1  0
 22 18  1  0
 23 13  1  0
 24  8  1  0
 24 23  1  0
 25 13  1  0
 26  9  1  0
 26 10  2  0
 27  7  1  0
 27 16  1  0
 27 17  1  0
 27 25  1  0
 28  4  1  0
 28  9  1  0
 28 20  2  0
 29  1  1  0
 29  3  1  0
 29 19  1  0
M  RAD  4  15   2  16   2  18   2  27   2
M  END
>  <ID>  (1) 
conformer_0

$$$$
