
     RDKit          3D

 28 30  0  0  0  0  0  0  0  0999 V2000
   -5.7855   14.2241   17.6433 C   0  0  1  0  0  0  0  0  0  0  0  0
   -8.4049   13.3229   16.7313 C   0  0  1  0  0  0  0  0  0  0  0  0
   -4.9346   13.7469   18.3072 C   0  0  0  0  0  0  0  0  0  0  0  0
   -8.2115   12.1363   15.3851 N   0  0  0  0  0  0  0  0  0  0  0  0
   -7.1805   12.6221   15.7686 C   0  0  0  0  0  0  0  0  0  0  0  0
   -8.8706   14.3430   18.0204 N   0  0  0  0  0  0  0  0  0  0  0  0
   -0.4743    7.8294   18.0402 C   0  0  0  0  0  0  0  0  0  0  0  0
   -4.6851   14.2022   16.2957 O   0  0  0  0  0  0  0  0  0  0  0  0
   -4.1506    9.5160   16.3054 O   0  0  0  0  0  0  0  0  0  0  0  0
   -3.7788   13.3019   17.5029 C   0  0  2  0  0  0  0  0  0  0  0  0
   -3.0363   10.0573   16.0243 P   0  0  2  0  0  4  0  0  0  0  0  0
  -10.9140   11.7434   15.7128 N   0  0  0  0  0  0  0  0  0  0  0  0
    1.7079    7.4360   17.7685 P   0  0  0  0  0  0  0  0  0  0  0  0
   -7.0244   13.4984   16.6975 N   0  0  0  0  0  0  0  0  0  0  0  0
   -9.8619   12.5873   16.3156 C   0  0  0  0  0  0  0  0  0  0  0  0
   -3.1142   11.0947   15.1920 O   0  0  0  0  0  0  0  0  0  0  0  0
   -4.9539   15.1009   19.1307 O   0  0  0  0  0  0  0  0  0  0  0  0
    1.7176    6.1153   17.5264 O   0  0  0  0  0  0  0  0  0  0  0  0
   -0.1909   10.2466   16.3533 O   0  0  0  0  0  0  0  0  0  0  0  0
  -10.8702   13.4096   17.3170 N   0  0  0  0  0  0  0  0  0  0  0  0
   -1.5133    8.6688   15.2206 O   0  0  0  0  0  0  0  0  0  0  0  0
    2.6396    7.5912   17.9705 O   0  0  0  0  0  0  0  0  0  0  0  0
   -3.3009   12.7164   16.1026 C   0  0  0  0  0  0  0  0  0  0  0  0
   -9.7259   14.1372   17.7294 C   0  0  0  0  0  0  0  0  0  0  0  0
   -3.7155   13.4129   19.2576 O   0  0  0  0  0  0  0  0  0  0  0  0
    1.6735    8.8938   16.7425 O   0  0  0  0  0  0  0  0  0  0  0  0
   -0.5207    8.9382   16.7010 P   0  0  0  0  0  0  0  0  0  0  0  0
   -2.4978   10.2955   16.9397 O   0  0  0  0  0  1  0  0  0  0  0  0
  3  1  1  0
  5  2  1  0
  5  4  2  3
  2  6  1  1
  8  1  1  0
 10  3  1  0
 10  8  1  0
 11  9  1  1
  1 14  1  6
 14  2  1  0
 14  5  1  0
 15  2  1  0
 15 12  1  0
 16 11  1  0
 17  3  1  0
 18 13  1  0
 20 15  2  0
 21 11  1  0
 22  7  1  0
 22 13  1  0
 10 23  1  6
 23 16  1  0
 24  6  1  0
 24 20  1  0
 25  3  1  0
 26 13  1  0
 27  7  1  0
 27 19  1  0
 27 21  1  0
 28 11  1  0
M  RAD  2  11   2  28   2
M  END
>  <ID>  (1) 
conformer_0

$$$$
