
     RDKit          3D

 27 29  0  0  0  0  0  0  0  0999 V2000
   -9.9324   12.1377   15.9200 C   0  0  0  0  0  3  0  0  0  0  0  0
   -5.8513   14.1992   17.6306 C   0  0  2  0  0  0  0  0  0  0  0  0
   -5.1063   13.6120   18.6155 C   0  0  1  0  0  0  0  0  0  0  0  0
   -7.9499   11.7240   15.3039 N   0  0  0  0  0  0  0  0  0  0  0  0
   -7.0854   13.1927   16.8006 N   0  0  0  0  0  0  0  0  0  0  0  0
   -7.1903   12.3454   15.9303 C   0  0  0  0  0  0  0  0  0  0  0  0
   -9.1107   13.9622   17.6749 N   0  0  0  0  0  0  0  0  0  0  0  0
   -3.8786   13.5814   17.6343 C   0  0  2  0  0  0  0  0  0  0  0  0
   -4.7545   14.0455   16.1839 O   0  0  0  0  0  0  0  0  0  0  0  0
  -10.8650   11.3401   15.3695 N   0  0  0  0  0  0  0  0  0  0  0  0
    1.4917    7.3963   18.2243 P   0  0  0  0  0  4  0  0  0  0  0  0
   -4.0478    9.3595   15.7293 O   0  0  0  0  0  0  0  0  0  0  0  0
   -0.3087    9.0455   16.8014 P   0  0  0  0  0  0  0  0  0  0  0  0
   -5.4036   15.4115   18.7364 O   0  0  0  0  0  0  0  0  0  0  0  0
   -2.9448   11.7088   16.3934 O   0  0  0  0  0  0  0  0  0  0  0  0
    2.0590    7.9498   19.4636 O   0  0  0  0  0  0  0  0  0  0  0  0
    0.2064   10.3352   16.4507 O   0  0  0  0  0  0  0  0  0  0  0  0
   -8.5818   12.8887   16.5635 C   0  0  0  0  0  0  0  0  0  0  0  0
   -3.5744   13.9578   19.3218 O   0  0  0  0  0  0  0  0  0  0  0  0
  -10.9714   13.1418   16.6966 N   0  0  0  0  0  0  0  0  0  0  0  0
    2.2076    7.9648   17.1929 O   0  0  0  0  0  1  0  0  0  0  0  0
   -2.9166   13.1334   16.1921 C   0  0  0  0  0  0  0  0  0  0  0  0
    1.2739    6.2323   18.5099 O   0  0  0  0  0  0  0  0  0  0  0  0
   -1.8816    9.5396   16.8251 O   0  0  0  0  0  0  0  0  0  0  0  0
   -2.2949   10.2434   14.8895 O   0  0  0  0  0  1  0  0  0  0  0  0
   -2.6642   10.1816   16.0181 P   0  0  1  0  0  4  0  0  0  0  0  0
  -10.1768   13.7642   17.4287 C   0  0  0  0  0  0  0  0  0  0  0  0
  3  2  1  0
  5  2  1  0
  6  4  2  3
  6  5  1  0
  8  3  1  0
  9  2  1  0
  9  8  1  0
 10  1  1  0
 13 11  1  0
  2 14  1  1
 16 11  1  0
 17 13  1  0
 18  1  1  0
 18  5  1  0
 18  6  1  0
 18  7  1  0
  3 19  1  1
 20  1  1  0
 21 11  1  0
  8 22  1  6
 22 15  1  0
 23 11  1  0
 24 13  1  0
 26 12  1  6
 26 15  1  0
 26 24  1  0
 26 25  1  0
 27  7  2  0
 27 20  1  0
M  RAD  5   1   2  11   2  21   2  25   2  26   2
M  END
>  <ID>  (1) 
conformer_0

$$$$
