
     RDKit          3D

 30 31  0  0  0  0  0  0  0  0999 V2000
   -5.7051   14.4169   17.3706 C   0  0  0  0  0  0  0  0  0  0  0  0
  -10.3321   12.4015   16.3099 C   0  0  0  0  0  0  0  0  0  0  0  0
   -5.0744   13.7267   18.4375 C   0  0  0  0  0  0  0  0  0  0  0  0
   -8.9016   14.1085   17.6357 N   0  0  0  0  0  0  0  0  0  0  0  0
   -6.7676   12.2498   15.7890 C   0  0  0  0  0  0  0  0  0  0  0  0
   -7.8840   11.6430   15.3001 N   0  0  0  0  0  0  0  0  0  0  0  0
   -0.7965    8.2687   18.1801 C   0  0  0  0  0  0  0  0  0  0  0  0
   -3.9846   13.5130   17.7605 C   0  0  0  0  0  0  0  0  0  0  0  0
  -10.7695   11.1056   15.4084 N   0  0  0  0  0  0  0  0  0  0  0  0
   -4.7153   14.4276   16.2146 O   0  0  0  0  0  0  0  0  0  0  0  0
   -4.4421    9.6990   16.0357 O   0  0  0  0  0  0  0  0  0  0  0  0
   -3.0496   10.1986   16.0210 P   0  0  0  0  0  5  0  0  0  0  0  0
   -6.9597   13.2069   16.4406 N   0  0  0  0  0  0  0  0  0  0  0  0
   -9.0703   12.1744   15.8254 C   0  0  0  0  0  0  0  0  0  0  0  0
  -11.0024   13.1638   16.9184 N   0  0  0  0  0  0  0  0  0  0  0  0
   -2.3763    9.4688   16.8146 O   0  0  0  0  0  0  0  0  0  0  0  0
    1.3073    6.1581   17.6791 O   0  0  0  0  0  0  0  0  0  0  0  0
    1.6267    7.6451   18.2267 P   0  0  0  0  0  4  0  0  0  0  0  0
   -5.1561   15.3418   18.9553 O   0  0  0  0  0  0  0  0  0  0  0  0
    2.4615    8.4103   17.4902 O   0  0  0  0  0  1  0  0  0  0  0  0
   -0.1614   10.8920   16.9309 O   0  0  0  0  0  0  0  0  0  0  0  0
   -3.5672   13.3577   19.2523 O   0  0  0  0  0  0  0  0  0  0  0  0
   -3.3489   11.6783   16.1653 O   0  0  0  0  0  0  0  0  0  0  0  0
   -3.1129   13.3171   16.3930 C   0  0  0  0  0  0  0  0  0  0  0  0
   -2.5558    9.7779   14.6773 O   0  0  0  0  0  0  0  0  0  0  0  0
  -10.0784   14.2133   17.7953 C   0  0  0  0  0  0  0  0  0  0  0  0
    2.0218    7.2202   19.2323 O   0  0  0  0  0  0  0  0  0  0  0  0
   -0.5731    9.2802   17.0147 P   0  0  0  0  0  0  0  0  0  0  0  0
    0.1343    9.4152   15.6020 O   0  0  0  0  0  0  0  0  0  0  0  0
   -8.3538   13.2750   16.7881 C   0  0  0  0  0  0  0  0  0  0  0  0
  3  1  1  0
  6  5  2  0
  8  3  1  0
  9  2  1  0
 10  1  1  0
 12  7  1  0
 12 11  1  0
 13  1  1  0
 13  5  1  0
 14  2  2  0
 14  6  1  0
 15  2  1  0
 16 12  1  0
 18  7  1  0
 18 17  1  0
 19  3  1  0
 20 18  1  0
 22  8  1  0
 23 12  1  0
 24  8  1  0
 24 23  1  0
 25 12  1  0
 26  4  1  0
 26 15  2  0
 27 18  1  0
 28  7  1  0
 28 21  1  0
 29 28  1  0
 30  4  2  0
 30 13  1  0
 30 14  1  0
M  RAD  2  18   2  20   2
M  END
>  <ID>  (1) 
conformer_0

$$$$
