
     RDKit          3D

 28 30  0  0  0  0  0  0  0  0999 V2000
   -9.8341   14.1141   17.5077 C   0  0  0  0  0  0  0  0  0  0  0  0
   -3.6754   13.3163   17.6864 C   0  0  0  0  0  0  0  0  0  0  0  0
   -4.9452   13.8959   18.2793 C   0  0  0  0  0  0  0  0  0  0  0  0
   -8.4737   13.3236   16.5562 C   0  0  2  0  0  0  0  0  0  0  0  0
   -7.9084   11.8948   15.3379 N   0  0  0  0  0  0  0  0  0  0  0  0
   -8.7356   14.4576   17.7648 N   0  0  0  0  0  0  0  0  0  0  0  0
   -4.0101    9.5682   16.2068 O   0  0  0  0  0  0  0  0  0  0  0  0
   -6.9263   13.4861   16.6849 N   0  0  0  0  0  0  0  0  0  0  0  0
   -4.6177   13.9628   16.1548 O   0  0  0  0  0  0  0  0  0  0  0  0
   -2.9481   10.2601   15.8779 P   0  0  1  0  0  4  0  0  0  0  0  0
  -10.6011   11.5212   15.3729 N   0  0  0  0  0  0  0  0  0  0  0  0
   -0.3918    8.0423   18.1611 C   0  0  0  0  0  0  0  0  0  0  0  0
  -10.8674   13.3051   16.9063 N   0  0  0  0  0  0  0  0  0  0  0  0
   -9.7233   12.4907   16.0076 C   0  0  0  0  0  3  0  0  0  0  0  0
   -0.1384   10.5735   16.5995 O   0  0  0  0  0  0  0  0  0  0  0  0
   -2.9044   11.3852   16.4495 O   0  0  0  0  0  0  0  0  0  0  0  0
    2.4185    7.6821   17.7308 O   0  0  0  0  0  0  0  0  0  0  0  0
   -5.6552   14.2647   17.4404 C   0  0  2  0  0  0  0  0  0  0  0  0
   -3.5397   14.5377   18.9911 O   0  0  0  0  0  0  0  0  0  0  0  0
    1.4079    5.7839   18.1578 O   0  0  0  0  0  0  0  0  0  0  0  0
   -1.3758    8.7893   15.8630 O   0  0  0  0  0  0  0  0  0  0  0  0
   -0.7393    9.2770   16.7578 P   0  0  0  0  0  0  0  0  0  0  0  0
   -2.6105   10.3528   14.5699 O   0  0  0  0  0  1  0  0  0  0  0  0
   -7.1705   12.6077   15.8385 C   0  0  0  0  0  0  0  0  0  0  0  0
    1.5871    7.3335   19.6585 O   0  0  0  0  0  0  0  0  0  0  0  0
    1.1277    7.2589   18.3027 P   0  0  0  0  0  0  0  0  0  0  0  0
   -5.4647   14.8153   19.1944 O   0  0  0  0  0  0  0  0  0  0  0  0
   -3.2774   13.1963   16.4745 C   0  0  2  0  0  0  0  0  0  0  0  0
  3  2  1  0
  6  1  2  0
  6  4  1  0
  8  4  1  0
 10  7  1  6
 13  1  1  0
  4 14  1  1
 14 11  1  0
 14 13  1  0
 16 10  1  0
 17 12  1  0
 18  3  1  0
 18  8  1  6
 18  9  1  0
 19  3  1  0
 21 10  1  0
 22 12  1  0
 22 15  1  0
 22 21  1  0
 23 10  1  0
 24  4  1  0
 24  5  2  3
 24  8  1  0
 26 17  1  0
 26 20  1  0
 26 25  1  0
 27  3  1  0
 28  2  1  0
 28  9  1  0
 28 16  1  6
M  RAD  3  10   2  14   2  23   2
M  END
>  <ID>  (1) 
conformer_0

$$$$
