
     RDKit          3D

 27 28  0  0  0  0  0  0  0  0999 V2000
   -8.8033   13.0725   16.4849 C   0  0  0  0  0  0  0  0  0  0  0  0
   -4.8392   13.9449   18.2103 C   0  0  0  0  0  0  0  0  0  0  0  0
   -3.5926   13.4247   17.5189 C   0  0  2  0  0  0  0  0  0  0  0  0
   -7.2906   12.6839   15.7948 C   0  0  0  0  0  0  0  0  0  0  0  0
   -7.9275   11.9406   15.3303 N   0  0  0  0  0  0  0  0  0  0  0  0
  -11.0115   13.2838   16.8681 N   0  0  0  0  0  0  0  0  0  0  0  0
   -4.5591   13.9700   16.2717 O   0  0  0  0  0  0  0  0  0  0  0  0
   -0.3280    8.2961   18.1472 C   0  0  0  0  0  0  0  0  0  0  0  0
   -2.6671   12.7799   16.4580 C   0  0  0  0  0  0  0  0  0  0  0  0
   -2.9141   10.0633   15.7580 P   0  0  1  0  0  4  0  0  0  0  0  0
   -4.1986    9.4956   16.0929 O   0  0  0  0  0  0  0  0  0  0  0  0
   -9.9532   12.3767   16.0142 C   0  0  0  0  0  0  0  0  0  0  0  0
   -1.9761    9.3762   14.7320 O   0  0  0  0  0  1  0  0  0  0  0  0
  -10.8118   11.4483   15.3962 N   0  0  0  0  0  0  0  0  0  0  0  0
   -7.0734   13.4725   16.6732 N   0  0  0  0  0  0  0  0  0  0  0  0
    1.7908    7.4084   18.2705 P   0  0  0  0  0  4  0  0  0  0  0  0
    1.5374    5.9771   17.9557 O   0  0  0  0  0  0  0  0  0  0  0  0
   -4.7871   15.6766   18.4309 O   0  0  0  0  0  0  0  0  0  0  0  0
    2.4681    7.9407   17.1871 O   0  0  0  0  0  1  0  0  0  0  0  0
   -8.8857   14.2419   17.6392 N   0  0  0  0  0  0  0  0  0  0  0  0
   -3.7356   13.7555   19.2642 O   0  0  0  0  0  0  0  0  0  0  0  0
   -2.7989   11.4418   15.9584 O   0  0  0  0  0  0  0  0  0  0  0  0
   -2.1566    9.4436   16.9928 O   0  0  0  0  0  0  0  0  0  0  0  0
   -9.9569   14.1086   17.5699 C   0  0  0  0  0  0  0  0  0  0  0  0
    2.3631    7.2026   19.3698 O   0  0  0  0  0  0  0  0  0  0  0  0
   -5.6867   14.2380   17.6383 C   0  0  1  0  0  0  0  0  0  0  0  0
   -0.6004    8.7323   16.7129 P   0  0  0  0  0  0  0  0  0  0  0  0
  3  2  1  0
  4  1  1  0
  5  4  2  3
  7  3  1  0
  3  9  1  6
 10 11  1  6
 12  1  2  0
 12  6  1  0
 13 10  1  0
 14 12  1  0
 15  4  1  0
 16  8  1  0
 17 16  1  0
 18  2  1  0
 19 16  1  0
 20  1  1  0
 21  2  1  0
 22  9  1  0
 22 10  1  0
 23 10  1  0
 24  6  2  0
 24 20  1  0
 25 16  1  0
 26  2  1  0
 26  7  1  0
 26 15  1  6
 27  8  1  0
 27 23  1  0
M  RAD  4  10   2  13   2  16   2  19   2
M  END
>  <ID>  (1) 
conformer_0

$$$$
