
     RDKit          3D

 29 30  0  0  0  0  0  0  0  0999 V2000
   -9.9680   14.1634   17.3816 C   0  0  0  0  0  0  0  0  0  0  0  0
   -5.4753   14.4036   17.1169 C   0  0  1  0  0  0  0  0  0  0  0  0
   -5.5601   13.8711   18.4630 C   0  0  2  0  0  0  0  0  0  0  0  0
   -8.4536   13.2175   16.3175 C   0  0  0  0  0  0  0  0  0  0  0  0
   -7.9180   11.8756   15.3874 N   0  0  0  0  0  0  0  0  0  0  0  0
   -4.4527   14.2800   16.2979 O   0  0  0  0  0  0  0  0  0  0  0  0
   -8.7845   14.3468   17.3878 N   0  0  0  0  0  0  0  0  0  0  0  0
   -4.1488    9.3748   16.2454 O   0  0  0  0  0  0  0  0  0  0  0  0
   -2.5656   12.8303   16.2053 C   0  0  0  0  0  0  0  0  0  0  0  0
  -10.7154   11.5299   15.4372 N   0  0  0  0  0  0  0  0  0  0  0  0
   -2.9094   10.0619   15.9043 P   0  0  2  0  0  4  0  0  0  0  0  0
   -6.8215   13.5202   16.5147 N   0  0  0  0  0  0  0  0  0  0  0  0
   -0.7744    8.2391   18.3236 C   0  0  0  0  0  0  0  0  0  0  0  0
   -9.7498   12.4772   16.0050 C   0  0  0  0  0  0  0  0  0  0  0  0
   -1.5738    8.7348   15.9010 O   0  0  0  0  0  0  0  0  0  0  0  0
   -5.7457   14.7957   19.3430 O   0  0  0  0  0  0  0  0  0  0  0  0
    1.4724    7.4020   18.2172 P   0  0  0  0  0  4  0  0  0  0  0  0
    0.3748    9.6909   16.2189 O   0  0  0  0  0  0  0  0  0  0  0  0
    1.3052    6.4199   17.2085 O   0  0  0  0  0  0  0  0  0  0  0  0
  -10.8223   13.4016   16.7011 N   0  0  0  0  0  0  0  0  0  0  0  0
   -2.9077   11.2445   16.3718 O   0  0  0  0  0  0  0  0  0  0  0  0
    2.4920    8.0831   18.2014 O   0  0  0  0  0  1  0  0  0  0  0  0
   -3.7718   13.3525   19.6758 O   0  0  0  0  0  0  0  0  0  0  0  0
   -3.3392   13.3034   17.2124 C   0  0  2  0  0  0  0  0  0  0  0  0
   -2.4290   10.0759   14.4891 O   0  0  0  0  0  1  0  0  0  0  0  0
   -7.0368   12.6331   15.9198 C   0  0  0  0  0  0  0  0  0  0  0  0
    1.9218    6.9178   19.2263 O   0  0  0  0  0  0  0  0  0  0  0  0
   -0.6612    8.7077   16.7865 P   0  0  0  0  0  0  0  0  0  0  0  0
   -4.3822   13.0942   18.6210 C   0  0  2  0  0  0  0  0  0  0  0  0
  3  2  1  0
  6  2  1  0
  7  1  2  0
  7  4  1  0
 11  8  1  6
  2 12  1  6
 14  4  2  0
 14 10  1  0
 15 11  1  0
  3 16  1  1
 17 13  1  0
 19 17  1  0
 20  1  1  0
 20 14  1  0
 21  9  1  0
 21 11  1  0
 22 17  1  0
 24  6  1  0
 24  9  1  6
 25 11  1  0
 26  4  1  0
 26  5  2  3
 26 12  1  0
 27 17  1  0
 28 13  1  0
 28 15  1  0
 28 18  1  0
 29  3  1  0
 29 23  1  1
 29 24  1  0
M  RAD  4  11   2  17   2  22   2  25   2
M  END
>  <ID>  (1) 
conformer_0

$$$$
