
     RDKit          3D

 30 32  0  0  0  0  0  0  0  0999 V2000
   -5.7212   14.2645   17.1255 C   0  0  0  0  0  0  0  0  0  0  0  0
  -10.3042   12.6244   16.3103 C   0  0  0  0  0  0  0  0  0  0  0  0
   -4.9964   13.7751   18.2107 C   0  0  0  0  0  0  0  0  0  0  0  0
   -8.2073   12.1100   15.3608 N   0  0  0  0  0  0  0  0  0  0  0  0
   -7.0446   12.5062   15.5615 C   0  0  0  0  0  0  0  0  0  0  0  0
   -8.7553   14.4603   17.6878 N   0  0  0  0  0  0  0  0  0  0  0  0
   -0.9113    8.4540   18.2717 C   0  0  0  0  0  0  0  0  0  0  0  0
   -3.0764   10.2059   16.2683 P   0  0  0  0  0  0  0  0  0  0  0  0
   -7.0027   13.6328   16.6449 N   0  0  0  0  0  0  0  0  0  0  0  0
   -4.8533   14.3674   16.1216 O   0  0  0  0  0  0  0  0  0  0  0  0
  -10.9374   11.7811   15.7909 N   0  0  0  0  0  0  0  0  0  0  0  0
    1.7382    7.7080   17.8576 P   0  0  0  0  0  4  0  0  0  0  0  0
   -4.1711   15.1874   18.7606 O   0  0  0  0  0  0  0  0  0  0  0  0
   -4.3514    9.9642   16.5662 O   0  0  0  0  0  0  0  0  0  0  0  0
   -2.4709    8.9794   15.1326 O   0  0  0  0  0  0  0  0  0  0  0  0
    2.0559    7.1586   18.9931 O   0  0  0  0  0  0  0  0  0  0  0  0
   -3.7972   13.3936   17.6292 C   0  0  0  0  0  0  0  0  0  0  0  0
   -0.6289   10.9737   16.8812 O   0  0  0  0  0  0  0  0  0  0  0  0
    2.5769    8.4902   17.4694 O   0  0  0  0  0  1  0  0  0  0  0  0
   -8.9920   12.9324   16.0596 C   0  0  0  0  0  0  0  0  0  0  0  0
  -10.8232   13.5513   17.0033 N   0  0  0  0  0  0  0  0  0  0  0  0
   -3.5895   12.9189   19.1009 O   0  0  0  0  0  0  0  0  0  0  0  0
   -3.5258   11.8335   15.9216 O   0  0  0  0  0  0  0  0  0  0  0  0
    1.3561    6.6617   16.7807 O   0  0  0  0  0  0  0  0  0  0  0  0
    0.2201    9.0214   15.6234 O   0  0  0  0  0  0  0  0  0  0  0  0
  -10.0791   14.3991   17.6969 C   0  0  0  0  0  0  0  0  0  0  0  0
   -0.7389    9.0606   17.1462 P   0  0  0  0  0  5  0  0  0  0  0  0
   -3.5868   13.0534   16.3965 C   0  0  0  0  0  0  0  0  0  0  0  0
   -2.5067   10.0464   16.9160 O   0  0  0  0  0  0  0  0  0  0  0  0
   -8.0523   13.8143   16.8766 C   0  0  0  0  0  0  0  0  0  0  0  0
  3  1  1  0
  5  4  2  0
  9  1  1  0
  9  5  1  0
 10  1  1  0
 11  2  1  0
 12  7  1  0
 13  3  1  0
 14  8  1  0
 16 12  1  0
 17  3  1  0
 19 12  1  0
 20  2  2  0
 20  4  1  0
 21  2  1  0
 22 17  1  0
 23  8  1  0
 24 12  1  0
 26  6  1  0
 26 21  2  0
 27  7  1  0
 27 15  1  0
 27 18  1  0
 27 25  1  0
 28 10  1  0
 28 17  1  0
 28 23  1  0
 29  8  1  0
 29 27  1  0
 30  6  2  0
 30  9  1  0
 30 20  1  0
M  RAD  2  12   2  19   2
M  END
>  <ID>  (1) 
conformer_0

$$$$
