
     RDKit          3D

 27 28  0  0  0  0  0  0  0  0999 V2000
   -9.8726   12.0684   16.0594 C   0  0  0  0  0  0  0  0  0  0  0  0
   -5.8256   14.0386   17.5677 C   0  0  1  0  0  0  0  0  0  0  0  0
   -4.7818   13.6151   18.3118 C   0  0  0  0  0  0  0  0  0  0  0  0
  -11.0475   12.9973   16.8759 N   0  0  0  0  0  0  0  0  0  0  0  0
   -7.1543   12.3282   15.9012 C   0  0  0  0  0  0  0  0  0  0  0  0
   -4.6965   14.3276   16.2897 O   0  0  0  0  0  0  0  0  0  0  0  0
   -7.0565   13.1884   16.5594 N   0  0  0  0  0  0  0  0  0  0  0  0
   -7.9418   11.6120   15.3827 N   0  0  0  0  0  0  0  0  0  0  0  0
   -3.6532   13.5739   17.4301 C   0  0  2  0  0  0  0  0  0  0  0  0
  -10.7839   11.1442   15.4071 N   0  0  0  0  0  0  0  0  0  0  0  0
   -0.4096    9.3669   16.7667 P   0  0  0  0  0  0  0  0  0  0  0  0
   -0.8618    8.3404   17.7770 C   0  0  0  0  0  0  0  0  0  0  0  0
   -4.1907    9.3266   15.8463 O   0  0  0  0  0  0  0  0  0  0  0  0
    1.1553    7.5762   17.9532 P   0  0  0  0  0  4  0  0  0  0  0  0
   -3.0393   11.4413   15.9424 O   0  0  0  0  0  0  0  0  0  0  0  0
   -8.7013   12.7922   16.4882 C   0  0  2  0  0  0  0  0  0  0  0  0
   -9.0215   13.9944   17.6609 N   0  0  0  0  0  0  0  0  0  0  0  0
   -5.3662   14.7592   19.2799 O   0  0  0  0  0  0  0  0  0  0  0  0
    1.6049    7.7073   19.1327 O   0  0  0  0  0  0  0  0  0  0  0  0
    1.9967    8.3250   16.9464 O   0  0  0  0  0  1  0  0  0  0  0  0
    0.2827   10.4036   16.5159 O   0  0  0  0  0  0  0  0  0  0  0  0
   -3.5161   13.1130   19.3331 O   0  0  0  0  0  0  0  0  0  0  0  0
   -2.1149    9.4865   16.0237 O   0  0  0  0  0  0  0  0  0  0  0  0
   -2.7412   13.1431   16.1509 C   0  0  0  0  0  0  0  0  0  0  0  0
  -10.0870   13.8291   17.5801 C   0  0  0  0  0  0  0  0  0  0  0  0
    1.1886    6.0757   17.9750 O   0  0  0  0  0  0  0  0  0  0  0  0
   -2.8283   10.0427   15.8386 P   0  0  0  0  0  0  0  0  0  0  0  0
  3  2  1  0
  4  1  2  0
  6  2  1  0
  2  7  1  6
  7  5  1  0
  8  5  2  3
  9  3  1  0
  9  6  1  0
 10  1  1  0
 12 11  1  0
 14 12  1  0
 16  1  1  0
 16  5  1  1
 17 16  1  0
 18  3  1  0
 19 14  1  0
 20 14  1  0
 21 11  1  0
 22  3  1  0
 23 11  1  0
  9 24  1  6
 24 15  1  0
 25  4  1  0
 25 17  2  0
 26 14  1  0
 27 13  1  0
 27 15  1  0
 27 23  1  0
M  RAD  2  14   2  20   2
M  END
>  <ID>  (1) 
conformer_0

$$$$
