
     RDKit          3D

 31 32  0  0  0  0  0  0  0  0999 V2000
   -5.8528   14.0879   17.4481 C   0  0  0  0  0  0  0  0  0  0  0  0
  -10.0426   12.1495   16.0024 C   0  0  0  0  0  0  0  0  0  0  0  0
   -4.9614   13.7469   18.3081 C   0  0  0  0  0  0  0  0  0  0  0  0
   -8.7978   12.0160   15.6659 C   0  0  0  0  0  0  0  0  0  0  0  0
   -7.7115   11.6015   15.2080 N   0  0  0  0  0  0  0  0  0  0  0  0
   -6.9120   13.2589   16.6250 N   0  0  0  0  0  0  0  0  0  0  0  0
   -8.9047   13.9490   17.6072 N   0  0  0  0  0  0  0  0  0  0  0  0
   -2.6514   10.2450   16.0997 P   0  0  0  0  0  4  0  0  0  0  0  0
    1.5319    7.8421   18.1921 P   0  0  0  0  0  4  0  0  0  0  0  0
   -4.5900   14.4132   16.4768 O   0  0  0  0  0  0  0  0  0  0  0  0
  -10.0927   13.8873   17.5880 C   0  0  0  0  0  0  0  0  0  0  0  0
   -3.8352    9.8489   16.3178 O   0  0  0  0  0  0  0  0  0  0  0  0
   -1.5691    9.3469   16.7566 O   0  0  0  0  0  0  0  0  0  0  0  0
    1.8919    7.2148   18.9164 O   0  0  0  0  0  0  0  0  0  0  0  0
  -10.9055   11.1063   15.3652 N   0  0  0  0  0  0  0  0  0  0  0  0
   -3.6193   13.3136   17.8499 C   0  0  0  0  0  0  0  0  0  0  0  0
    1.2580    8.8644   16.2027 O   0  0  0  0  0  0  0  0  0  0  0  0
  -10.8444   12.9118   16.6969 N   0  0  0  0  0  0  0  0  0  0  0  0
   -5.0223   14.6138   19.3838 O   0  0  0  0  0  0  0  0  0  0  0  0
   -0.3171    8.3204   18.7183 C   0  0  0  0  0  0  0  0  0  0  0  0
   -2.7623   11.5539   16.4558 O   0  0  0  0  0  0  0  0  0  0  0  0
    0.3696    6.4618   17.1516 O   0  0  0  0  0  0  0  0  0  0  0  0
   -9.9703   10.8801   14.8585 O   0  0  0  0  0  0  0  0  0  0  0  0
    2.3774    7.9995   17.6244 O   0  0  0  0  0  1  0  0  0  0  0  0
   -3.4702   12.9008   19.2605 O   0  0  0  0  0  0  0  0  0  0  0  0
   -2.2935    9.8450   14.8005 O   0  0  0  0  0  1  0  0  0  0  0  0
   -6.6691   12.2918   15.7613 C   0  0  0  0  0  0  0  0  0  0  0  0
   -3.1416   13.0261   16.5722 C   0  0  0  0  0  0  0  0  0  0  0  0
   -8.1875   13.3056   16.7871 C   0  0  0  0  0  0  0  0  0  0  0  0
    0.5195   10.6249   16.6146 O   0  0  0  0  0  0  0  0  0  0  0  0
   -0.3174    8.9797   16.9653 P   0  0  0  0  0  5  0  0  0  0  0  0
  3  1  1  0
  4  2  2  0
  5  4  1  0
  6  1  1  0
 10  1  1  0
 11  7  1  0
 12  8  1  0
 13  8  1  0
 14  9  1  0
 15  2  1  0
 16  3  1  0
 18  2  1  0
 18 11  2  0
 19  3  1  0
 20  9  1  0
 21  8  1  0
 22  9  1  0
 23 15  1  0
 24  9  1  0
 25 16  1  0
 26  8  1  0
 27  5  2  0
 27  6  1  0
 28 16  1  0
 28 21  1  0
 29  4  1  0
 29  6  1  0
 29  7  2  0
 31 13  1  0
 31 17  1  0
 31 20  1  0
 31 30  1  0
M  RAD  4   8   2   9   2  24   2  26   2
M  END
>  <ID>  (1) 
conformer_0

$$$$
