
     RDKit          3D

 31 33  0  0  0  0  0  0  0  0999 V2000
   -5.9314   14.2566   17.3667 C   0  0  0  0  0  0  0  0  0  0  0  0
   -4.1432   13.7101   18.2559 C   0  0  0  0  0  0  0  0  0  0  0  0
  -10.3004   12.4652   16.1992 C   0  0  0  0  0  0  0  0  0  0  0  0
   -9.0362   12.3380   15.7872 C   0  0  0  0  0  0  0  0  0  0  0  0
   -8.0961   11.6735   15.2431 N   0  0  0  0  0  0  0  0  0  0  0  0
   -9.0717   14.1419   17.4804 N   0  0  0  0  0  0  0  0  0  0  0  0
   -3.5805   13.5429   16.8984 C   0  0  0  0  0  0  0  0  0  0  0  0
   -3.9191    9.4457   16.0087 O   0  0  0  0  0  0  0  0  0  0  0  0
   -4.7402   14.2812   16.2610 O   0  0  0  0  0  0  0  0  0  0  0  0
   -2.7263   10.1501   16.1833 P   0  0  0  0  0  5  0  0  0  0  0  0
   -7.1299   13.3031   16.5240 N   0  0  0  0  0  0  0  0  0  0  0  0
    1.0754    7.0042   17.9831 P   0  0  0  0  0  4  0  0  0  0  0  0
  -10.8150   11.4040   15.2997 N   0  0  0  0  0  0  0  0  0  0  0  0
  -10.2759   14.3132   17.6540 C   0  0  0  0  0  0  0  0  0  0  0  0
    1.4554    5.6688   17.7281 O   0  0  0  0  0  0  0  0  0  0  0  0
   -0.7475    7.7108   18.0471 C   0  0  0  0  0  0  0  0  0  0  0  0
   -2.4202    9.6786   17.4389 O   0  0  0  0  0  0  0  0  0  0  0  0
    0.2811   10.3431   16.7106 O   0  0  0  0  0  0  0  0  0  0  0  0
   -5.3630   15.0939   19.1946 O   0  0  0  0  0  0  0  0  0  0  0  0
  -11.0325   13.1877   16.6870 N   0  0  0  0  0  0  0  0  0  0  0  0
   -1.0030    8.8050   15.5437 O   0  0  0  0  0  0  0  0  0  0  0  0
   -3.4787   13.6633   19.3257 O   0  0  0  0  0  0  0  0  0  0  0  0
    1.6391    7.3762   19.0730 O   0  0  0  0  0  0  0  0  0  0  0  0
    2.0515    8.0043   17.1562 O   0  0  0  0  0  1  0  0  0  0  0  0
   -2.4759   12.9586   16.2358 C   0  0  0  0  0  0  0  0  0  0  0  0
   -6.9100   12.3354   15.6795 C   0  0  0  0  0  0  0  0  0  0  0  0
   -2.2835   10.3142   14.7461 O   0  0  0  0  0  0  0  0  0  0  0  0
   -2.9115   11.6706   16.5357 O   0  0  0  0  0  0  0  0  0  0  0  0
   -0.4056    9.1257   17.0279 P   0  0  0  0  0  0  0  0  0  0  0  0
   -8.4078   13.4894   16.6845 C   0  0  0  0  0  0  0  0  0  0  0  0
   -5.5766   13.8206   18.5302 C   0  0  0  0  0  0  0  0  0  0  0  0
  4  3  2  0
  5  4  1  0
  7  2  1  0
  9  1  1  0
  9  7  1  0
 10  8  1  0
 11  1  1  0
 13  3  1  0
 14  6  1  0
 15 12  1  0
 16 12  1  0
 17 10  1  0
 20  3  1  0
 20 14  2  0
 21 10  1  0
 22  2  1  0
 23 12  1  0
 24 12  1  0
 25  7  1  0
 26  5  2  0
 26 11  1  0
 27 10  1  0
 28 10  1  0
 28 25  1  0
 29 16  1  0
 29 18  1  0
 29 21  1  0
 30  4  1  0
 30  6  2  0
 30 11  1  0
 31  1  1  0
 31  2  1  0
 31 19  1  0
M  RAD  2  12   2  24   2
M  END
>  <ID>  (1) 
conformer_0

$$$$
