
     RDKit          3D

 26 26  0  0  0  0  0  0  0  0999 V2000
   -5.4884   14.0524   17.6154 C   0  0  0  0  0  0  0  0  0  0  0  0
   -9.8294   13.8243   17.6082 C   0  0  0  0  0  0  0  0  0  0  0  0
   -4.4117   13.6750   17.8408 C   0  0  1  0  0  0  0  0  0  0  0  0
   -8.3461   12.9342   16.3365 C   0  0  0  0  0  0  0  0  0  0  0  0
   -7.9925   11.6145   15.0804 N   0  0  0  0  0  0  0  0  0  0  0  0
   -8.6979   14.0081   17.7333 N   0  0  0  0  0  0  0  0  0  0  0  0
   -6.9126   13.1610   16.3205 N   0  0  0  0  0  0  0  0  0  0  0  0
   -0.5283    8.5211   18.5543 C   0  0  0  0  0  0  0  0  0  0  0  0
   -4.7992   14.2284   16.1408 O   0  0  0  0  0  0  0  0  0  0  0  0
  -10.8603   11.4244   15.4100 N   0  0  0  0  0  0  0  0  0  0  0  0
   -1.9316    9.9996   16.3386 P   0  0  0  0  0  5  0  0  0  0  0  0
   -4.0079    9.7663   16.2817 O   0  0  0  0  0  0  0  0  0  0  0  0
    1.0263    8.1003   18.0386 P   0  0  0  0  0  0  0  0  0  0  0  0
   -3.1674   13.2390   16.5384 C   0  0  0  0  0  0  0  0  0  0  0  0
   -5.2181   15.2221   18.8093 O   0  0  0  0  0  0  0  0  0  0  0  0
   -9.7500   12.2805   15.9487 C   0  0  0  0  0  0  0  0  0  0  0  0
  -10.7731   13.1751   16.9142 N   0  0  0  0  0  0  0  0  0  0  0  0
    2.3000    7.5053   19.1454 O   0  0  0  0  0  0  0  0  0  0  0  0
    0.1832   10.5898   16.4908 O   0  0  0  0  0  0  0  0  0  0  0  0
   -3.0654   11.7606   15.9206 O   0  0  0  0  0  0  0  0  0  0  0  0
    1.9739    8.4057   17.1789 O   0  0  0  0  0  0  0  0  0  0  0  0
   -3.3617   13.6508   18.9825 O   0  0  0  0  0  0  0  0  0  0  0  0
   -6.9678   12.1681   15.5580 C   0  0  0  0  0  0  0  0  0  0  0  0
   -2.5635    9.7670   14.7389 O   0  0  0  0  0  0  0  0  0  0  0  0
   -1.8027   10.0752   16.7975 O   0  0  0  0  0  0  0  0  0  0  0  0
    0.9978    6.4708   17.7979 O   0  0  0  0  0  0  0  0  0  0  0  0
  3  1  1  0
  6  2  2  0
  6  4  1  0
  7  1  1  0
  7  4  1  0
  9  1  1  0
 11  8  1  0
 12 11  1  0
 14  3  1  0
 15  1  1  0
 16  4  2  0
 16 10  1  0
 17  2  1  0
 17 16  1  0
 18 13  1  0
 19 11  1  0
 20 11  1  0
 20 14  1  0
 21  8  1  0
 21 13  1  0
  3 22  1  1
 23  5  2  3
 23  7  1  0
 25 11  1  0
 25 24  1  0
 26 13  1  0
M  END
>  <ID>  (1) 
conformer_0

$$$$
