
     RDKit          3D

 28 28  0  0  0  0  0  0  0  0999 V2000
   -5.6895   14.1797   17.1603 C   0  0  1  0  0  0  0  0  0  0  0  0
   -8.7557   13.1417   16.6006 C   0  0  0  0  0  0  0  0  0  0  0  0
   -4.8322   13.7470   18.1528 C   0  0  1  0  0  0  0  0  0  0  0  0
  -10.9965   13.4298   17.0548 N   0  0  0  0  0  0  0  0  0  0  0  0
   -7.4126   12.5113   15.7790 C   0  0  0  0  0  0  0  0  0  0  0  0
   -8.3005   11.8852   15.3834 N   0  0  0  0  0  0  0  0  0  0  0  0
   -0.8903    8.0170   18.0595 C   0  0  0  0  0  0  0  0  0  0  0  0
   -4.6305   14.3787   16.0992 O   0  0  0  0  0  0  0  0  0  0  0  0
    1.4633    7.6297   18.4166 P   0  0  0  0  0  4  0  0  0  0  0  0
   -7.0468   13.3040   16.4711 N   0  0  0  0  0  0  0  0  0  0  0  0
  -10.9723   11.4998   15.5788 N   0  0  0  0  0  0  0  0  0  0  0  0
   -2.6972   10.1254   15.7455 P   0  0  0  0  0  5  0  0  0  0  0  0
    1.7588    6.2764   18.1254 O   0  0  0  0  0  0  0  0  0  0  0  0
   -3.7445   13.2339   17.4820 C   0  0  1  0  0  0  0  0  0  0  0  0
  -10.1098   12.4020   16.1513 C   0  0  0  0  0  0  0  0  0  0  0  0
   -3.3523   11.6519   15.6174 O   0  0  0  0  0  0  0  0  0  0  0  0
   -4.7929   14.7712   19.1572 O   0  0  0  0  0  0  0  0  0  0  0  0
   -4.1625    9.5792   16.1327 O   0  0  0  0  0  0  0  0  0  0  0  0
    0.0526   10.0141   16.2898 O   0  0  0  0  0  0  0  0  0  0  0  0
   -8.7603   14.2423   17.7780 N   0  0  0  0  0  0  0  0  0  0  0  0
   -2.2833    9.1603   14.7473 O   0  0  0  0  0  0  0  0  0  0  0  0
   -3.4990   12.8594   19.1533 O   0  0  0  0  0  0  0  0  0  0  0  0
    2.3451    8.6061   18.2096 O   0  0  0  0  0  1  0  0  0  0  0  0
    1.8229    7.8041   19.6377 O   0  0  0  0  0  0  0  0  0  0  0  0
   -9.8532   14.2026   17.7282 C   0  0  0  0  0  0  0  0  0  0  0  0
   -3.0152   12.9037   16.1974 C   0  0  0  0  0  0  0  0  0  0  0  0
   -2.2829   10.1531   16.5243 O   0  0  0  0  0  0  0  0  0  0  0  0
   -0.5719    8.7863   17.1738 P   0  0  0  0  0  0  0  0  0  0  0  0
  3  1  1  0
  5  2  1  0
  6  5  2  3
  1  8  1  6
 10  1  1  0
 10  5  1  0
 12  7  1  0
 13  9  1  0
 14  3  1  0
 15  2  2  0
 15  4  1  0
 15 11  1  0
 16 12  1  0
  3 17  1  1
 18 12  1  0
 20  2  1  0
 21 12  1  0
 14 22  1  6
 23  9  1  0
 24  9  1  0
 25  4  2  0
 25 20  1  0
 26 14  1  0
 26 16  1  0
 27 12  1  0
 28  7  1  0
 28  9  1  0
 28 19  1  0
M  RAD  2   9   2  23   2
M  END
>  <ID>  (1) 
conformer_0

$$$$
