
     RDKit          3D

 28 28  0  0  0  0  0  0  0  0999 V2000
   -5.8231   14.1129   17.1526 C   0  0  1  0  0  0  0  0  0  0  0  0
  -10.2086   12.4743   16.1807 C   0  0  0  0  0  0  0  0  0  0  0  0
   -5.0855   13.8060   18.1160 C   0  0  1  0  0  0  0  0  0  0  0  0
   -8.8668   13.1867   16.4361 C   0  0  0  0  0  0  0  0  0  0  0  0
   -8.3540   11.9629   15.4155 N   0  0  0  0  0  0  0  0  0  0  0  0
   -9.0059   14.3071   17.5075 N   0  0  0  0  0  0  0  0  0  0  0  0
   -4.0914    9.3785   15.8050 O   0  0  0  0  0  0  0  0  0  0  0  0
   -4.7683   14.0440   16.0410 O   0  0  0  0  0  0  0  0  0  0  0  0
   -0.4077    8.7763   18.3483 C   0  0  0  0  0  0  0  0  0  0  0  0
   -3.8677   13.1952   17.4662 C   0  0  2  0  0  0  0  0  0  0  0  0
   -7.1638   13.3318   16.3634 N   0  0  0  0  0  0  0  0  0  0  0  0
    1.6559    7.9571   18.3259 P   0  0  0  0  0  5  0  0  0  0  0  0
  -11.0111   11.6050   15.6166 N   0  0  0  0  0  0  0  0  0  0  0  0
   -0.4548    9.0295   16.8091 P   0  0  0  0  0  0  0  0  0  0  0  0
   -3.0066   11.2945   15.9303 O   0  0  0  0  0  0  0  0  0  0  0  0
  -10.0293   14.2103   17.5594 C   0  0  0  0  0  0  0  0  0  0  0  0
   -5.2118   15.0409   18.8471 O   0  0  0  0  0  0  0  0  0  0  0  0
    0.2747   10.3672   16.2979 O   0  0  0  0  0  0  0  0  0  0  0  0
    2.4181    8.9730   18.9826 O   0  0  0  0  0  0  0  0  0  0  0  0
   -1.1218    8.8386   15.1850 O   0  0  0  0  0  0  0  0  0  0  0  0
  -11.0762   13.4210   16.9129 N   0  0  0  0  0  0  0  0  0  0  0  0
    2.1269    6.9101   18.6376 O   0  0  0  0  0  0  0  0  0  0  0  0
   -3.5402   13.6876   19.0839 O   0  0  0  0  0  0  0  0  0  0  0  0
   -3.2110   12.7842   16.3448 C   0  0  0  0  0  0  0  0  0  0  0  0
    0.5406    6.6866   16.9703 O   0  0  0  0  0  0  0  0  0  0  0  0
   -2.3782    9.6607   16.8931 O   0  0  0  0  0  1  0  0  0  0  0  0
   -7.4699   12.5838   15.7496 C   0  0  0  0  0  0  0  0  0  0  0  0
   -2.8712    9.9536   15.9786 P   0  0  2  0  0  4  0  0  0  0  0  0
  3  1  1  0
  4  2  2  0
  6  4  1  0
  1  8  1  6
 10  3  1  0
 11  1  1  0
 12  9  1  0
 13  2  1  0
 14  9  1  0
 16  6  2  0
  3 17  1  6
 18 14  1  0
 19 12  1  0
 20 14  1  0
 21  2  1  0
 21 16  1  0
 22 12  1  0
 10 23  1  6
 24 10  1  0
 24 15  1  0
 25 12  1  0
 27  4  1  0
 27  5  2  3
 27 11  1  0
 28  7  1  1
 28 15  1  0
 28 20  1  0
 28 26  1  0
M  RAD  2  26   2  28   2
M  END
>  <ID>  (1) 
conformer_0

$$$$
