
     RDKit          3D

 31 33  0  0  0  0  0  0  0  0999 V2000
  -10.2577   13.0656   16.6700 C   0  0  0  0  0  0  0  0  0  0  0  0
   -6.0604   14.3133   17.4925 C   0  0  0  0  0  0  0  0  0  0  0  0
   -5.2659   13.3789   18.7309 C   0  0  0  0  0  0  0  0  0  0  0  0
   -6.9515   12.5438   15.6110 C   0  0  0  0  0  0  0  0  0  0  0  0
   -8.7739   14.5919   17.9407 N   0  0  0  0  0  0  0  0  0  0  0  0
   -8.2410   11.9736   15.3228 N   0  0  0  0  0  0  0  0  0  0  0  0
   -3.4832   12.6933   17.6265 C   0  0  0  0  0  0  0  0  0  0  0  0
   -4.6757   14.0404   16.3455 O   0  0  0  0  0  0  0  0  0  0  0  0
   -3.0540    9.9521   16.2991 P   0  0  0  0  0  5  0  0  0  0  0  0
   -7.1124   13.4226   16.5198 N   0  0  0  0  0  0  0  0  0  0  0  0
  -10.8652   11.7756   15.5976 N   0  0  0  0  0  0  0  0  0  0  0  0
    1.7110    7.2417   17.7471 P   0  0  0  0  0  4  0  0  0  0  0  0
   -9.1103   12.5593   15.9658 C   0  0  0  0  0  0  0  0  0  0  0  0
   -4.4201    9.5750   16.1839 O   0  0  0  0  0  0  0  0  0  0  0  0
   -3.1294   11.4487   16.5645 O   0  0  0  0  0  0  0  0  0  0  0  0
   -5.2139   15.3420   18.8438 O   0  0  0  0  0  0  0  0  0  0  0  0
    0.3972    9.8922   16.2512 O   0  0  0  0  0  0  0  0  0  0  0  0
  -10.8157   13.5881   17.1614 N   0  0  0  0  0  0  0  0  0  0  0  0
    2.4716    7.4091   18.8894 O   0  0  0  0  0  0  0  0  0  0  0  0
   -3.7315   13.6402   19.3763 O   0  0  0  0  0  0  0  0  0  0  0  0
    2.0531    7.4067   16.6451 O   0  0  0  0  0  1  0  0  0  0  0  0
   -2.9290    9.4714   17.5647 O   0  0  0  0  0  0  0  0  0  0  0  0
   -0.2803    8.1232   18.2443 C   0  0  0  0  0  0  0  0  0  0  0  0
   -2.6690   12.8855   16.2294 C   0  0  0  0  0  0  0  0  0  0  0  0
   -2.6841    9.8511   14.7031 O   0  0  0  0  0  0  0  0  0  0  0  0
   -9.9483   14.7607   18.2060 C   0  0  0  0  0  0  0  0  0  0  0  0
   -0.3611    8.8596   16.8718 P   0  0  0  0  0  0  0  0  0  0  0  0
    1.4346    6.0373   18.0527 O   0  0  0  0  0  0  0  0  0  0  0  0
   -1.3330    8.8375   16.2443 O   0  0  0  0  0  0  0  0  0  0  0  0
   -4.4459   13.9331   17.6654 C   0  0  0  0  0  0  0  0  0  0  0  0
   -8.3237   13.6833   16.8816 C   0  0  0  0  0  0  0  0  0  0  0  0
  3  2  1  0
  6  4  2  0
 10  2  1  0
 10  4  1  0
 11  1  1  0
 13  1  2  0
 13  6  1  0
 14  9  1  0
 15  9  1  0
 16  2  1  0
 18  1  1  0
 19 12  1  0
 20  3  1  0
 21 12  1  0
 22  9  1  0
 23 12  1  0
 24  7  1  0
 24 15  1  0
 25  9  1  0
 26  5  1  0
 26 18  2  0
 27 17  1  0
 27 23  1  0
 28 12  1  0
 29  9  1  0
 29 27  1  0
 30  2  1  0
 30  3  1  0
 30  7  1  0
 30  8  1  0
 31  5  2  0
 31 10  1  0
 31 13  1  0
M  RAD  2  12   2  21   2
M  END
>  <ID>  (1) 
conformer_0

$$$$
