
     RDKit          3D

 28 28  0  0  0  0  0  0  0  0999 V2000
   -5.1966   13.6007   18.4896 C   0  0  1  0  0  0  0  0  0  0  0  0
   -9.9039   12.6511   16.1671 C   0  0  0  0  0  0  0  0  0  0  0  0
   -3.6132   13.2824   17.5635 C   0  0  1  0  0  0  0  0  0  0  0  0
   -7.2574   12.5878   15.8162 C   0  0  0  0  0  0  0  0  0  0  0  0
   -8.7663   14.3934   17.6406 N   0  0  0  0  0  0  0  0  0  0  0  0
   -4.7782   14.2685   16.3027 O   0  0  0  0  0  0  0  0  0  0  0  0
   -6.9829   13.2268   16.5478 N   0  0  0  0  0  0  0  0  0  0  0  0
   -8.1315   11.8933   15.3280 N   0  0  0  0  0  0  0  0  0  0  0  0
   -4.1418    9.5580   16.0804 O   0  0  0  0  0  0  0  0  0  0  0  0
    1.4094    7.4124   18.1886 P   0  0  0  0  0  4  0  0  0  0  0  0
   -2.8508   10.0508   15.9463 P   0  0  1  0  0  4  0  0  0  0  0  0
    1.6769    7.6918   19.5473 O   0  0  0  0  0  0  0  0  0  0  0  0
   -9.9955   14.2850   17.5321 C   0  0  0  0  0  0  0  0  0  0  0  0
   -2.9901   13.1138   16.5752 C   0  0  0  0  0  0  0  0  0  0  0  0
   -2.1922    9.4455   16.9560 O   0  0  0  0  0  0  0  0  0  0  0  0
  -10.7979   11.7039   15.6003 N   0  0  0  0  0  0  0  0  0  0  0  0
   -5.3802   15.0465   19.0641 O   0  0  0  0  0  0  0  0  0  0  0  0
    0.0586    9.8090   16.1541 O   0  0  0  0  0  0  0  0  0  0  0  0
    2.2839    8.4060   17.4485 O   0  0  0  0  0  1  0  0  0  0  0  0
  -10.7051   13.6313   16.9310 N   0  0  0  0  0  0  0  0  0  0  0  0
   -0.8459    8.1849   18.2876 C   0  0  0  0  0  0  0  0  0  0  0  0
   -2.5609   10.1874   14.5409 O   0  0  0  0  0  1  0  0  0  0  0  0
   -3.5323   13.9854   19.2495 O   0  0  0  0  0  0  0  0  0  0  0  0
   -3.0893   11.5391   16.3746 O   0  0  0  0  0  0  0  0  0  0  0  0
    1.6640    6.1776   18.1166 O   0  0  0  0  0  0  0  0  0  0  0  0
   -8.5748   13.1651   16.4750 C   0  0  0  0  0  0  0  0  0  0  0  0
   -5.5432   13.9357   17.5041 C   0  0  0  0  0  0  0  0  0  0  0  0
   -0.4839    8.9590   16.9456 P   0  0  0  0  0  0  0  0  0  0  0  0
  3  1  1  0
  7  4  1  0
  8  4  2  3
 11  9  1  6
 12 10  1  0
 13  5  2  0
 14  3  1  0
 15 11  1  0
 16  2  1  0
  1 17  1  1
 19 10  1  0
 20  2  2  0
 20 13  1  0
 21 10  1  0
 22 11  1  0
  3 23  1  6
 24 11  1  0
 24 14  1  0
 25 10  1  0
 26  2  1  0
 26  4  1  0
 26  5  1  0
 27  1  1  0
 27  6  2  0
 27  7  1  0
 28 15  1  0
 28 18  1  0
 28 21  1  0
M  RAD  4  10   2  11   2  19   2  22   2
M  END
>  <ID>  (1) 
conformer_0

$$$$
