
     RDKit          3D

 29 30  0  0  0  0  0  0  0  0999 V2000
  -10.2841   12.3556   16.2941 C   0  0  0  0  0  0  0  0  0  0  0  0
   -5.7257   14.3022   17.0169 C   0  0  0  0  0  0  0  0  0  0  0  0
   -5.2134   13.9969   18.2981 C   0  0  0  0  0  0  0  0  0  0  0  0
   -6.9642   12.0887   15.5736 C   0  0  0  0  0  0  0  0  0  0  0  0
   -8.0270   11.4840   15.2645 N   0  0  0  0  0  0  0  0  0  0  0  0
   -8.9869   14.1278   17.3892 N   0  0  0  0  0  0  0  0  0  0  0  0
   -7.0884   13.2219   16.4526 N   0  0  0  0  0  0  0  0  0  0  0  0
   -4.6985   14.0734   15.9554 O   0  0  0  0  0  0  0  0  0  0  0  0
   -2.8835   10.1800   16.2374 P   0  0  0  0  0  4  0  0  0  0  0  0
  -10.8840   11.2886   15.5418 N   0  0  0  0  0  0  0  0  0  0  0  0
    1.3191    7.7114   18.0971 P   0  0  0  0  0  4  0  0  0  0  0  0
    1.2137    6.2550   18.0938 O   0  0  0  0  0  0  0  0  0  0  0  0
   -0.6778    8.6470   18.6385 C   0  0  0  0  0  0  0  0  0  0  0  0
   -4.1290    9.5973   16.8314 O   0  0  0  0  0  0  0  0  0  0  0  0
   -4.0030   13.6002   17.7838 C   0  0  0  0  0  0  0  0  0  0  0  0
   -9.0258   12.1120   15.8635 C   0  0  0  0  0  0  0  0  0  0  0  0
   -3.8258   13.4522   19.3458 O   0  0  0  0  0  0  0  0  0  0  0  0
    0.1507   10.5358   16.3548 O   0  0  0  0  0  0  0  0  0  0  0  0
   -1.8270    9.1207   16.2965 O   0  0  0  0  0  0  0  0  0  0  0  0
    1.6413    8.1951   16.8966 O   0  0  0  0  0  1  0  0  0  0  0  0
   -4.6643   15.6614   18.4001 O   0  0  0  0  0  0  0  0  0  0  0  0
  -10.9429   13.1774   16.8474 N   0  0  0  0  0  0  0  0  0  0  0  0
   -2.9608   11.6422   16.5764 O   0  0  0  0  0  0  0  0  0  0  0  0
  -10.0817   14.3174   17.6694 C   0  0  0  0  0  0  0  0  0  0  0  0
   -3.0874   13.2267   16.6988 C   0  0  0  0  0  0  0  0  0  0  0  0
   -3.0714   10.1725   14.8759 O   0  0  0  0  0  1  0  0  0  0  0  0
   -0.4740    9.2807   16.9197 P   0  0  0  0  0  0  0  0  0  0  0  0
   -8.2626   13.3400   16.7153 C   0  0  0  0  0  0  0  0  0  0  0  0
    1.9575    7.4839   19.1193 O   0  0  0  0  0  0  0  0  0  0  0  0
  3  2  1  0
  5  4  2  0
  7  2  1  0
  7  4  1  0
  8  2  1  0
 10  1  1  0
 12 11  1  0
 13 11  1  0
 14  9  1  0
 15  3  1  0
 16  1  2  0
 16  5  1  0
 17 15  1  0
 19  9  1  0
 20 11  1  0
 21  3  1  0
 22  1  1  0
 23  9  1  0
 24  6  1  0
 24 22  2  0
 25 15  1  0
 25 23  1  0
 26  9  1  0
 27 13  1  0
 27 18  1  0
 27 19  1  0
 28  6  2  0
 28  7  1  0
 28 16  1  0
 29 11  1  0
M  RAD  4   9   2  11   2  20   2  26   2
M  END
>  <ID>  (1) 
conformer_0

$$$$
