
     RDKit          3D

 27 28  0  0  0  0  0  0  0  0999 V2000
   -6.1725   14.3250   18.1204 C   0  0  0  0  0  0  0  0  0  0  0  0
   -8.5863   13.1685   16.4438 C   0  0  1  0  0  0  0  0  0  0  0  0
   -5.1722   13.9918   18.4259 C   0  0  0  0  0  0  0  0  0  0  0  0
   -7.1515   12.7495   15.8690 C   0  0  0  0  0  0  0  0  0  0  0  0
   -7.8964   12.0214   15.3283 N   0  0  0  0  0  0  0  0  0  0  0  0
   -9.1772   14.1979   17.7087 N   0  0  0  0  0  2  0  0  0  0  0  0
   -3.9663   13.6873   17.6335 C   0  0  2  0  0  0  0  0  0  0  0  0
   -4.7502   14.2066   16.3898 O   0  0  0  0  0  0  0  0  0  0  0  0
   -2.4899    9.8991   16.2797 P   0  0  0  0  0  0  0  0  0  0  0  0
   -7.1080   13.6177   16.7340 N   0  0  0  0  0  0  0  0  0  0  0  0
  -10.7599   11.3284   15.3672 N   0  0  0  0  0  0  0  0  0  0  0  0
   -4.1231    9.7201   16.4510 O   0  0  0  0  0  0  0  0  0  0  0  0
    1.3152    6.9094   18.4925 O   0  0  0  0  0  0  0  0  0  0  0  0
   -0.5736    8.2733   18.5454 C   0  0  0  0  0  0  0  0  0  0  0  0
   -2.7713   11.4944   16.4829 O   0  0  0  0  0  0  0  0  0  0  0  0
   -9.9085   12.3115   15.9673 C   0  0  1  0  0  0  0  0  0  0  0  0
    0.5301    8.3938   17.4206 P   0  0  0  0  0  7  0  0  0  0  0  0
    2.2579    8.4641   17.5531 O   0  0  0  0  0  0  0  0  0  0  0  0
   -5.1822   15.5078   19.1025 O   0  0  0  0  0  0  0  0  0  0  0  0
    0.4723    8.1602   15.7329 O   0  0  0  0  0  0  0  0  0  0  0  0
   -1.6241    9.4454   16.8936 O   0  0  0  0  0  0  0  0  0  0  0  0
  -11.0243   13.0660   16.7547 N   0  0  0  0  0  0  0  0  0  0  0  0
   -2.8226   13.1681   16.7728 C   0  0  0  0  0  0  0  0  0  0  0  0
   -4.0068   13.6377   19.4343 O   0  0  0  0  0  0  0  0  0  0  0  0
   -2.1762    9.2518   14.7401 O   0  0  0  0  0  0  0  0  0  0  0  0
  -10.0242   13.8998   17.4697 C   0  0  0  0  0  0  0  0  0  0  0  0
    0.4791   10.3567   15.9355 O   0  0  0  0  0  0  0  0  0  0  0  0
  3  1  1  0
  4  2  1  0
  5  4  2  3
  2  6  1  1
  7  3  1  0
  7  8  1  6
 10  1  1  0
 10  2  1  0
 10  4  1  0
 12  9  1  0
 15  9  1  0
 16  2  1  0
 16 11  1  1
 17 13  1  0
 17 14  1  0
 18 14  1  0
 19  3  1  0
 20 17  1  0
 21  9  1  0
 21 17  1  0
 22 16  1  0
 23  7  1  0
 23 15  1  0
 24  3  1  0
 25 17  1  0
 26  6  1  0
 26 22  2  0
 27 17  1  0
M  RAD  1   6   2
M  END
>  <ID>  (1) 
conformer_0

$$$$
