
     RDKit          3D

 26 26  0  0  0  0  0  0  0  0999 V2000
   -9.8799   12.4780   16.0694 C   0  0  0  0  0  0  0  0  0  0  0  0
   -5.8003   14.0765   17.7031 C   0  0  1  0  0  0  0  0  0  0  0  0
   -4.9415   13.5801   18.1911 C   0  0  1  0  0  0  0  0  0  0  0  0
   -8.4781   13.1271   16.5561 C   0  0  0  0  0  0  0  0  0  0  0  0
   -8.0603   11.9471   15.2823 N   0  0  0  0  0  0  0  0  0  0  0  0
  -10.9586   13.3873   16.9773 N   0  0  0  0  0  0  0  0  0  0  0  0
   -0.7793    8.2812   18.2712 C   0  0  2  0  0  0  0  0  0  0  0  0
   -4.1083    9.2289   16.0306 O   0  0  0  0  0  0  0  0  0  0  0  0
   -4.4325   14.1507   16.2646 O   0  0  0  0  0  0  0  0  0  0  0  0
   -6.9464   13.3183   16.5799 N   0  0  0  0  0  0  0  0  0  0  0  0
  -10.8647   11.6437   15.5833 N   0  0  0  0  0  0  0  0  0  0  0  0
   -3.6194   13.3310   17.3228 C   0  0  2  0  0  0  0  0  0  0  0  0
    0.8259    8.0058   18.0088 P   0  0  0  0  0  0  0  0  0  0  0  0
   -2.0085    9.7053   16.1711 P   0  0  0  0  0  5  0  0  0  0  0  0
    1.5973    6.3624   18.2406 O   0  0  0  0  0  0  0  0  0  0  0  0
   -2.8350   11.4138   15.8320 O   0  0  0  0  0  0  0  0  0  0  0  0
   -5.5543   15.1028   18.8843 O   0  0  0  0  0  0  0  0  0  0  0  0
    0.1781   10.2386   16.2981 O   0  0  0  0  0  0  0  0  0  0  0  0
   -9.9595   14.0722   17.6798 C   0  0  0  0  0  0  0  0  0  0  0  0
   -1.8277    9.2502   14.9090 O   0  0  0  0  0  0  0  0  0  0  0  0
   -9.0168   14.0339   17.7610 N   0  0  0  0  0  0  0  0  0  0  0  0
   -3.6808   13.9314   19.1450 O   0  0  0  0  0  0  0  0  0  0  0  0
   -2.3388    9.6384   17.1024 O   0  0  0  0  0  0  0  0  0  0  0  0
   -2.7810   12.8421   16.2738 C   0  0  0  0  0  0  0  0  0  0  0  0
    1.8274    8.1992   19.0551 O   0  0  0  0  0  0  0  0  0  0  0  0
   -7.0408   12.5666   15.7528 C   0  0  0  0  0  0  0  0  0  0  0  0
  3  2  1  0
  4  1  2  0
  6  1  1  0
 10  2  1  0
 10  4  1  0
 11  1  1  0
 12  3  1  0
 12  9  1  6
 13  7  1  0
 14  8  1  0
 15 13  1  0
 16 14  1  0
  2 17  1  1
 18 14  1  0
 19  6  1  0
  7 20  1  6
 21  4  1  0
 21 19  2  0
  3 22  1  1
 23  7  1  0
 23 14  1  0
 24 12  1  0
 24 16  1  0
 25 13  1  0
 26  5  2  3
 26 10  1  0
M  END
>  <ID>  (1) 
conformer_0

$$$$
