
     RDKit          3D

 28 29  0  0  0  0  0  0  0  0999 V2000
  -10.0168   12.4601   16.0918 C   0  0  0  0  0  0  0  0  0  0  0  0
   -5.8150   14.1677   17.6038 C   0  0  1  0  0  0  0  0  0  0  0  0
   -5.1777   13.6007   18.5071 C   0  0  0  0  0  0  0  0  0  0  0  0
   -8.8964   14.3684   17.7052 N   0  0  0  0  0  0  0  0  0  0  0  0
   -7.3542   12.6080   15.9035 C   0  0  0  0  0  0  0  0  0  0  0  0
   -8.0252   11.8610   15.3409 N   0  0  0  0  0  0  0  0  0  0  0  0
   -0.6538    8.2629   18.2730 C   0  0  0  0  0  0  0  0  0  0  0  0
   -4.8339   14.4166   16.3340 O   0  0  0  0  0  0  0  0  0  0  0  0
   -3.0791   10.2242   15.8507 P   0  0  0  0  0  0  0  0  0  0  0  0
   -3.9763   13.5040   17.6149 C   0  0  2  0  0  0  0  0  0  0  0  0
   -7.1285   13.3131   16.5882 N   0  0  0  0  0  0  0  0  0  0  0  0
   -4.1880    9.5616   16.0109 O   0  0  0  0  0  0  0  0  0  0  0  0
  -10.9436   11.5406   15.4268 N   0  0  0  0  0  0  0  0  0  0  0  0
    1.2436    5.9839   17.8137 O   0  0  0  0  0  0  0  0  0  0  0  0
   -8.8739   13.0869   16.4978 C   0  0  0  0  0  0  0  0  0  0  0  0
    1.3209    7.4609   18.0096 P   0  0  0  0  0  4  0  0  0  0  0  0
  -10.9389   13.4118   16.9640 N   0  0  0  0  0  0  0  0  0  0  0  0
   -1.9953    9.5771   16.3966 O   0  0  0  0  0  0  0  0  0  0  0  0
    0.1523   10.1917   16.1360 O   0  0  0  0  0  0  0  0  0  0  0  0
   -5.1628   15.0602   19.1994 O   0  0  0  0  0  0  0  0  0  0  0  0
    1.9828    8.1657   17.2138 O   0  0  0  0  0  1  0  0  0  0  0  0
   -3.6801   13.3769   19.3408 O   0  0  0  0  0  0  0  0  0  0  0  0
   -3.2089   11.6746   16.3183 O   0  0  0  0  0  0  0  0  0  0  0  0
   -9.9956   14.2511   17.6380 C   0  0  0  0  0  0  0  0  0  0  0  0
   -2.4628   10.2507   14.4097 O   0  0  0  0  0  1  0  0  0  0  0  0
   -3.1264   13.1802   16.3781 C   0  0  0  0  0  0  0  0  0  0  0  0
   -0.6964    9.3244   16.7272 P   0  0  1  0  0  4  0  0  0  0  0  0
    2.2218    7.1709   19.0458 O   0  0  0  0  0  0  0  0  0  0  0  0
  3  2  1  0
  6  5  2  3
  8  2  1  0
 10  3  1  0
 10  8  1  0
  2 11  1  6
 11  5  1  0
 12  9  1  0
 13  1  1  0
 15  1  2  0
 15  4  1  0
 15  5  1  0
 16  7  1  0
 16 14  1  0
 17  1  1  0
 18  9  1  0
 20  3  1  0
 21 16  1  0
 22  3  1  0
 23  9  1  0
 24  4  2  0
 24 17  1  0
 10 26  1  6
 26 23  1  0
 27  7  1  0
 27 18  1  0
 27 19  1  1
 27 25  1  0
 28 16  1  0
M  RAD  4  16   2  21   2  25   2  27   2
M  END
>  <ID>  (1) 
conformer_0

$$$$
