
     RDKit          3D

 28 29  0  0  0  0  0  0  0  0999 V2000
   -4.9227   13.6317   18.5293 C   0  0  0  0  0  0  0  0  0  0  0  0
   -9.7900   14.1571   17.8311 C   0  0  0  0  0  0  0  0  0  0  0  0
   -3.7889   13.3155   17.5539 C   0  0  1  0  0  0  0  0  0  0  0  0
   -8.6996   13.2964   16.5795 C   0  0  0  0  0  0  0  0  0  0  0  0
   -8.6293   14.4350   17.7859 N   0  0  0  0  0  0  0  0  0  0  0  0
   -8.1075   12.0787   15.3838 N   0  0  0  0  0  0  0  0  0  0  0  0
   -3.1557   12.9029   16.3095 C   0  0  0  0  0  0  0  0  0  0  0  0
   -4.7420   13.9702   16.1485 O   0  0  0  0  0  0  0  0  0  0  0  0
   -3.1232   10.0414   16.1111 P   0  0  2  0  0  4  0  0  0  0  0  0
  -10.9802   11.7374   15.5466 N   0  0  0  0  0  0  0  0  0  0  0  0
    1.4122    7.5815   17.7277 P   0  0  0  0  0  4  0  0  0  0  0  0
  -10.8004   13.3915   17.2250 N   0  0  0  0  0  0  0  0  0  0  0  0
   -9.9462   12.5457   16.1986 C   0  0  0  0  0  0  0  0  0  0  0  0
    1.2954    6.1579   17.7861 O   0  0  0  0  0  0  0  0  0  0  0  0
   -4.8744   15.2668   18.9979 O   0  0  0  0  0  0  0  0  0  0  0  0
   -4.1981    9.7726   16.0145 O   0  0  0  0  0  0  0  0  0  0  0  0
   -6.9406   13.4590   16.5272 N   0  0  0  0  0  0  0  0  0  0  0  0
   -2.4576    9.2823   17.2634 O   0  0  0  0  0  0  0  0  0  0  0  0
    1.9563    8.1242   16.5426 O   0  0  0  0  0  1  0  0  0  0  0  0
    0.5676   10.1650   17.0318 O   0  0  0  0  0  0  0  0  0  0  0  0
   -0.7175    8.1451   18.1626 C   0  0  0  0  0  0  0  0  0  0  0  0
   -3.1469   11.4118   16.2666 O   0  0  0  0  0  0  0  0  0  0  0  0
   -3.4028   13.7329   19.2331 O   0  0  0  0  0  0  0  0  0  0  0  0
   -2.0658    9.4249   15.0139 O   0  0  0  0  0  1  0  0  0  0  0  0
    1.8178    7.9426   18.8378 O   0  0  0  0  0  0  0  0  0  0  0  0
   -7.2708   12.6636   15.8367 C   0  0  0  0  0  0  0  0  0  0  0  0
   -5.4401   14.1401   17.4746 C   0  0  1  0  0  0  0  0  0  0  0  0
   -0.7437    8.9626   16.9711 P   0  0  0  0  0  0  0  0  0  0  0  0
  3  1  1  0
  5  2  2  0
  5  4  1  0
  3  7  1  6
  8  3  1  0
 12  2  1  0
 13  4  2  0
 13 10  1  0
 13 12  1  0
 14 11  1  0
 15  1  1  0
  9 16  1  6
 18  9  1  0
 19 11  1  0
 21 11  1  0
 22  7  1  0
 22  9  1  0
 23  1  1  0
 24  9  1  0
 25 11  1  0
 26  4  1  0
 26  6  2  3
 26 17  1  0
 27  1  1  0
 27  8  1  0
 27 17  1  6
 28 18  1  0
 28 20  1  0
 28 21  1  0
M  RAD  4   9   2  11   2  19   2  24   2
M  END
>  <ID>  (1) 
conformer_0

$$$$
