
     RDKit          3D

 30 32  0  0  0  0  0  0  0  0999 V2000
   -5.9614   14.0287   17.4665 C   0  0  0  0  0  0  0  0  0  0  0  0
   -5.7489   13.6993   18.7202 C   0  0  0  0  0  0  0  0  0  0  0  0
   -9.0914   12.3557   16.0396 C   0  0  0  0  0  0  0  0  0  0  0  0
  -10.2324   14.1314   17.8733 C   0  0  0  0  0  0  0  0  0  0  0  0
   -8.2076   11.8162   15.3361 N   0  0  0  0  0  0  0  0  0  0  0  0
   -9.0670   14.0786   17.8348 N   0  0  0  0  0  0  0  0  0  0  0  0
   -4.7140   14.4434   16.6176 O   0  0  0  0  0  0  0  0  0  0  0  0
   -7.0400   13.2325   16.7624 N   0  0  0  0  0  0  0  0  0  0  0  0
  -10.9967   11.3611   15.5415 N   0  0  0  0  0  0  0  0  0  0  0  0
    1.8359    8.2043   18.2055 P   0  0  0  0  0  4  0  0  0  0  0  0
   -2.7885   10.1060   16.5735 P   0  0  0  0  0  4  0  0  0  0  0  0
    2.2101    8.0243   19.4528 O   0  0  0  0  0  0  0  0  0  0  0  0
   -3.8085   13.3378   16.5809 C   0  0  0  0  0  0  0  0  0  0  0  0
  -10.3789   12.3475   16.2767 C   0  0  0  0  0  0  0  0  0  0  0  0
   -0.4096    8.7137   18.6093 C   0  0  0  0  0  0  0  0  0  0  0  0
    0.4197   10.0935   16.1273 O   0  0  0  0  0  0  0  0  0  0  0  0
   -2.5583    9.3302   17.6563 O   0  0  0  0  0  1  0  0  0  0  0  0
  -11.0491   13.2412   16.9861 N   0  0  0  0  0  0  0  0  0  0  0  0
   -5.8291   14.7048   19.4572 O   0  0  0  0  0  0  0  0  0  0  0  0
   -3.7286    9.8624   16.3756 O   0  0  0  0  0  0  0  0  0  0  0  0
    2.6713    8.5505   17.3806 O   0  0  0  0  0  1  0  0  0  0  0  0
   -0.1370    8.4119   15.2757 O   0  0  0  0  0  0  0  0  0  0  0  0
   -3.9760   13.3569   19.5712 O   0  0  0  0  0  0  0  0  0  0  0  0
   -2.9333   11.4984   16.6885 O   0  0  0  0  0  0  0  0  0  0  0  0
   -6.9426   12.2771   15.8911 C   0  0  0  0  0  0  0  0  0  0  0  0
   -2.4663   13.0982   16.6295 C   0  0  0  0  0  0  0  0  0  0  0  0
   -0.3292    9.1448   16.7418 P   0  0  0  0  0  0  0  0  0  0  0  0
    1.8710    6.5880   18.3189 O   0  0  0  0  0  0  0  0  0  0  0  0
   -8.4197   13.3921   17.0144 C   0  0  0  0  0  0  0  0  0  0  0  0
   -4.0652   13.5717   18.3237 C   0  0  0  0  0  0  0  0  0  0  0  0
  2  1  1  0
  5  3  1  0
  6  4  2  0
  7  1  1  0
  8  1  1  0
 12 10  1  0
 13  7  1  0
 14  3  1  0
 14  9  1  0
 15 10  1  0
 15 11  1  0
 17 11  1  0
 18  4  1  0
 18 14  2  0
 19  2  1  0
 20 11  1  0
 21 10  1  0
 24 11  1  0
 25  5  2  0
 25  8  1  0
 26 13  1  0
 26 24  1  0
 27 15  1  0
 27 16  1  0
 27 22  1  0
 28 10  1  0
 29  3  2  0
 29  6  1  0
 29  8  1  0
 30  2  1  0
 30 13  1  0
 30 23  1  0
M  RAD  4  10   2  11   2  17   2  21   2
M  END
>  <ID>  (1) 
conformer_0

$$$$
