
     RDKit          3D

 29 30  0  0  0  0  0  0  0  0999 V2000
   -5.6147   14.3533   17.3976 C   0  0  1  0  0  0  0  0  0  0  0  0
   -9.7161   12.4306   16.0974 C   0  0  0  0  0  0  0  0  0  0  0  0
   -4.9878   13.8473   18.3608 C   0  0  1  0  0  0  0  0  0  0  0  0
   -6.9977   12.5803   15.8101 C   0  0  0  0  0  0  0  0  0  0  0  0
   -8.7854   14.2296   17.7290 N   0  0  0  0  0  0  0  0  0  0  0  0
   -7.8175   11.7895   15.2087 N   0  0  0  0  0  0  0  0  0  0  0  0
   -4.4206   14.3037   16.3132 O   0  0  0  0  0  0  0  0  0  0  0  0
   -3.6641   13.4055   17.7301 C   0  0  1  0  0  0  0  0  0  0  0  0
  -10.6613   11.5563   15.4142 N   0  0  0  0  0  0  0  0  0  0  0  0
   -4.1389    9.5360   16.2774 O   0  0  0  0  0  0  0  0  0  0  0  0
   -6.8960   13.4441   16.4808 N   0  0  0  0  0  0  0  0  0  0  0  0
   -3.1096    9.8986   16.6205 P   0  0  0  0  0  5  0  0  0  0  0  0
    1.2633    7.8637   18.2709 P   0  0  0  0  0  4  0  0  0  0  0  0
   -8.4288   13.0796   16.4232 C   0  0  0  0  0  0  0  0  0  0  0  0
    1.3694    6.3514   18.2598 O   0  0  0  0  0  0  0  0  0  0  0  0
    0.3487   10.0013   16.3671 O   0  0  0  0  0  0  0  0  0  0  0  0
   -2.6920   11.1292   16.7980 O   0  0  0  0  0  0  0  0  0  0  0  0
  -10.8262   13.2436   16.9785 N   0  0  0  0  0  0  0  0  0  0  0  0
   -5.2288   15.2188   19.0069 O   0  0  0  0  0  0  0  0  0  0  0  0
    2.1927    8.2636   17.7028 O   0  0  0  0  0  1  0  0  0  0  0  0
   -2.9904    8.9031   18.1385 O   0  0  0  0  0  0  0  0  0  0  0  0
   -1.2865    8.5482   16.0407 O   0  0  0  0  0  0  0  0  0  0  0  0
   -0.7594    7.9488   18.4113 C   0  0  0  0  0  0  0  0  0  0  0  0
   -3.5676   13.6461   19.4033 O   0  0  0  0  0  0  0  0  0  0  0  0
   -2.8249   13.0650   16.4513 C   0  0  0  0  0  0  0  0  0  0  0  0
   -9.9292   14.0099   17.6744 C   0  0  0  0  0  0  0  0  0  0  0  0
   -0.6912    9.0351   16.8426 P   0  0  0  0  0  0  0  0  0  0  0  0
    1.5896    8.0153   19.4103 O   0  0  0  0  0  0  0  0  0  0  0  0
   -2.1980    9.6681   14.6575 O   0  0  0  0  0  0  0  0  0  0  0  0
  3  1  1  0
  6  4  2  3
  7  1  1  0
  8  3  1  0
  8  7  1  0
  9  2  1  0
  1 11  1  6
 11  4  1  0
 12 10  1  0
 14  2  2  0
 14  5  1  0
 14 11  1  0
 15 13  1  0
 17 12  1  0
 18  2  1  0
  3 19  1  1
 20 13  1  0
 21 12  1  0
 22 12  1  0
 23 13  1  0
  8 24  1  1
 25  8  1  0
 25 17  1  0
 26  5  2  0
 26 18  1  0
 27 16  1  0
 27 22  1  0
 27 23  1  0
 28 13  1  0
 29 12  1  0
M  RAD  2  13   2  20   2
M  END
>  <ID>  (1) 
conformer_0

$$$$
