
     RDKit          3D

 29 29  0  0  0  0  0  0  0  0999 V2000
   -5.4948   14.1018   17.2187 C   0  0  2  0  0  0  0  0  0  0  0  0
   -9.9751   12.4910   16.1958 C   0  0  0  0  0  0  0  0  0  0  0  0
   -5.0225   13.6338   18.3141 C   0  0  1  0  0  0  0  0  0  0  0  0
   -7.2289   12.5750   15.8968 C   0  0  0  0  0  0  0  0  0  0  0  0
   -8.8764   14.2800   17.7329 N   0  0  0  0  0  0  0  0  0  0  0  0
   -8.1123   11.8630   15.3141 N   0  0  0  0  0  0  0  0  0  0  0  0
   -6.9590   13.2677   16.5034 N   0  0  0  0  0  0  0  0  0  0  0  0
   -4.6278   14.1333   16.1788 O   0  0  0  0  0  0  0  0  0  0  0  0
   -4.0577    9.7546   16.1737 O   0  0  0  0  0  0  0  0  0  0  0  0
   -0.2481    8.9464   16.9052 P   0  0  0  0  0  0  0  0  0  0  0  0
   -1.2312    8.4794   17.9177 C   0  0  2  0  0  0  0  0  0  0  0  0
  -10.7691   11.5153   15.5031 N   0  0  0  0  0  0  0  0  0  0  0  0
   -1.7980    9.0707   16.0474 O   0  0  0  0  0  0  0  0  0  0  0  0
    1.9400    7.7311   18.1704 P   0  0  1  0  0  4  0  0  0  0  0  0
   -3.7321   13.1192   17.7776 C   0  0  2  0  0  0  0  0  0  0  0  0
   -8.7504   13.1187   16.5309 C   0  0  0  0  0  0  0  0  0  0  0  0
    2.9435    8.0244   17.5969 O   0  0  0  0  0  1  0  0  0  0  0  0
    1.9206    6.7663   18.7395 O   0  0  0  0  0  0  0  0  0  0  0  0
   -3.0124   11.5786   16.3266 O   0  0  0  0  0  0  0  0  0  0  0  0
   -5.2197   14.7500   19.0286 O   0  0  0  0  0  0  0  0  0  0  0  0
    0.1416   10.3365   16.2155 O   0  0  0  0  0  0  0  0  0  0  0  0
  -10.9619   13.3880   17.0777 N   0  0  0  0  0  0  0  0  0  0  0  0
   -9.9586   14.2282   17.7172 C   0  0  0  0  0  0  0  0  0  0  0  0
    0.6702    7.6411   15.9993 O   0  0  0  0  0  0  0  0  0  0  0  0
   -3.6739   13.3344   19.3337 O   0  0  0  0  0  0  0  0  0  0  0  0
   -2.5304   10.0687   14.4911 O   0  0  0  0  0  0  0  0  0  0  0  0
   -3.1094   13.0243   16.3811 C   0  0  0  0  0  0  0  0  0  0  0  0
   -2.6769   10.1948   15.9864 P   0  0  0  0  0  5  0  0  0  0  0  0
    0.7708    8.7613   18.3590 C   0  0  0  0  0  0  0  0  0  0  0  0
  3  1  1  0
  6  4  2  3
  7  1  1  0
  7  4  1  0
  1  8  1  6
 11 10  1  0
 12  2  1  0
 15  3  1  0
 16  2  2  0
 16  4  1  0
 16  5  1  0
 14 17  1  1
 18 14  1  0
  3 20  1  1
 21 10  1  0
 22  2  1  0
 23  5  2  0
 23 22  1  0
 24 10  1  0
 15 25  1  1
 27 15  1  0
 27 19  1  0
 28  9  1  0
 28 11  1  0
 28 13  1  0
 28 19  1  0
 28 26  1  0
 11 29  1  1
 29 14  1  0
M  RAD  2  14   2  17   2
M  END
>  <ID>  (1) 
conformer_0

$$$$
