
     RDKit          3D

 27 28  0  0  0  0  0  0  0  0999 V2000
   -5.7934   14.4262   17.7354 C   0  0  0  0  0  0  0  0  0  0  0  0
   -8.6783   12.7605   16.2228 C   0  0  0  0  0  0  0  0  0  0  0  0
   -5.0698   14.0557   18.4190 C   0  0  0  0  0  0  0  0  0  0  0  0
   -7.1881   12.8098   16.1105 C   0  0  0  0  0  0  0  0  0  0  0  0
   -4.6288   14.2970   16.3354 O   0  0  0  0  0  0  0  0  0  0  0  0
   -6.9993   13.5012   16.7502 N   0  0  0  0  0  0  0  0  0  0  0  0
   -8.9863   13.9766   17.6378 N   0  0  0  0  0  2  0  0  0  0  0  0
   -3.7851   13.4201   17.8679 C   0  0  0  0  0  0  0  0  0  0  0  0
   -2.3263    9.8788   16.3389 P   0  0  0  0  0  5  0  0  0  0  0  0
   -7.8518   11.8258   15.3642 N   0  0  0  0  0  0  0  0  0  0  0  0
    0.6591    8.0934   17.7610 P   0  0  0  0  0  5  0  0  0  0  0  0
   -5.6785   15.7210   18.8553 O   0  0  0  0  0  0  0  0  0  0  0  0
   -1.3416    9.3100   15.3302 O   0  0  0  0  0  0  0  0  0  0  0  0
   -4.2158    9.6423   15.8532 O   0  0  0  0  0  0  0  0  0  0  0  0
    0.4706   10.4141   16.8214 O   0  0  0  0  0  0  0  0  0  0  0  0
    1.8264    7.8388   19.3109 O   0  0  0  0  0  0  0  0  0  0  0  0
   -9.8070   13.7787   17.5105 C   0  0  0  0  0  0  0  0  0  0  0  0
  -10.9757   11.4262   15.6112 N   0  0  0  0  0  0  0  0  0  0  0  0
   -3.0927   11.7083   16.3468 O   0  0  0  0  0  0  0  0  0  0  0  0
   -0.8077    8.2160   18.2942 C   0  0  0  0  0  0  0  0  0  0  0  0
  -10.9534   13.0638   16.8454 N   0  0  0  0  0  0  0  0  0  0  0  0
    2.6831    8.2505   17.7947 O   0  0  0  0  0  0  0  0  0  0  0  0
   -2.9325   13.0452   16.7267 C   0  0  0  0  0  0  0  0  0  0  0  0
   -3.8814   14.7436   19.2894 O   0  0  0  0  0  0  0  0  0  0  0  0
    1.2076    6.5296   17.5811 O   0  0  0  0  0  0  0  0  0  0  0  0
   -2.5919    9.7556   16.9337 O   0  0  0  0  0  0  0  0  0  0  0  0
   -9.9861   12.1369   15.8641 C   0  0  0  0  0  0  0  0  0  0  0  0
  3  1  1  0
  4  2  1  0
  5  1  1  0
  6  1  1  0
  6  4  1  0
  7  2  1  0
  8  3  1  0
 10  2  1  0
 10  4  2  0
 12  1  1  0
 14  9  1  0
 15 11  1  0
 16 11  1  0
 17  7  1  0
 19  9  1  0
 20  9  1  0
 20 11  1  0
 21 17  2  0
 22 20  1  0
 23  8  1  0
 23 19  1  0
 24  3  1  0
 25 11  1  0
 26  9  1  0
 26 13  1  0
 27  2  1  0
 27 18  1  0
 27 21  1  0
M  RAD  1   7   2
M  END
>  <ID>  (1) 
conformer_0

$$$$
