
     RDKit          3D

 30 32  0  0  0  0  0  0  0  0999 V2000
   -5.8894   14.2680   17.2359 C   0  0  0  0  0  0  0  0  0  0  0  0
   -9.9986   14.0134   17.5951 C   0  0  0  0  0  0  0  0  0  0  0  0
   -4.0623   13.1755   18.4120 C   0  0  0  0  0  0  0  0  0  0  0  0
   -3.7996   13.5098   17.1952 C   0  0  0  0  0  0  0  0  0  0  0  0
   -8.7339   12.9904   16.4654 C   0  0  0  0  0  0  0  0  0  0  0  0
  -11.1060   13.1906   16.9398 N   0  0  0  0  0  0  0  0  0  0  0  0
   -7.0014   13.2711   16.4869 N   0  0  0  0  0  0  0  0  0  0  0  0
   -8.0279   11.8757   15.3468 N   0  0  0  0  0  0  0  0  0  0  0  0
    1.4189    8.0230   18.3703 P   0  0  0  0  0  4  0  0  0  0  0  0
   -4.4773   14.4090   16.4029 O   0  0  0  0  0  0  0  0  0  0  0  0
   -0.5939    8.7626   16.6620 P   0  0  0  0  0  0  0  0  0  0  0  0
   -4.1877    9.6610   16.4066 O   0  0  0  0  0  0  0  0  0  0  0  0
  -10.8698   11.5184   15.5367 N   0  0  0  0  0  0  0  0  0  0  0  0
   -0.9225    8.2709   18.3687 C   0  0  0  0  0  0  0  0  0  0  0  0
   -3.2302   11.7157   16.2831 O   0  0  0  0  0  0  0  0  0  0  0  0
   -8.9742   14.0911   17.6587 N   0  0  0  0  0  0  0  0  0  0  0  0
   -9.9674   12.3151   16.1252 C   0  0  0  0  0  3  0  0  0  0  0  0
   -5.2415   15.0517   19.1382 O   0  0  0  0  0  0  0  0  0  0  0  0
    1.5261    6.7360   17.8333 O   0  0  0  0  0  0  0  0  0  0  0  0
    0.1648    9.9606   16.0564 O   0  0  0  0  0  0  0  0  0  0  0  0
    2.4217    8.9757   18.1463 O   0  0  0  0  0  1  0  0  0  0  0  0
   -2.3750    9.3897   17.1192 O   0  0  0  0  0  0  0  0  0  0  0  0
   -3.6869   13.2278   19.4653 O   0  0  0  0  0  0  0  0  0  0  0  0
   -0.7706    8.2650   15.3800 O   0  0  0  0  0  0  0  0  0  0  0  0
   -2.7230   12.8103   16.3337 C   0  0  0  0  0  0  0  0  0  0  0  0
   -7.0647   12.5511   15.9315 C   0  0  0  0  0  0  0  0  0  0  0  0
   -2.6053    9.9678   14.9353 O   0  0  0  0  0  0  0  0  0  0  0  0
    1.6888    7.7323   19.7066 O   0  0  0  0  0  0  0  0  0  0  0  0
   -2.8557   10.1419   15.9993 P   0  0  0  0  0  5  0  0  0  0  0  0
   -5.5608   13.9746   18.4502 C   0  0  0  0  0  0  0  0  0  0  0  0
  4  3  1  0
  6  2  2  0
  7  1  1  0
  7  5  1  0
  8  5  1  0
 10  1  1  0
 10  4  1  0
 14  9  1  0
 14 11  1  0
 16  2  1  0
 16  5  1  0
 17  5  1  0
 17  6  1  0
 17 13  1  0
 19  9  1  0
 20 11  1  0
 21  9  1  0
 23  3  1  0
 24 11  1  0
 25  4  1  0
 25 15  1  0
 26  7  1  0
 26  8  2  0
 28  9  1  0
 29 12  1  0
 29 15  1  0
 29 22  1  0
 29 24  1  0
 29 27  1  0
 30  1  1  0
 30  3  1  0
 30 18  1  0
M  RAD  3   9   2  17   2  21   2
M  END
>  <ID>  (1) 
conformer_0

$$$$
