
     RDKit          3D

 28 28  0  0  0  0  0  0  0  0999 V2000
   -5.6180   14.1852   17.5511 C   0  0  2  0  0  0  0  0  0  0  0  0
   -9.9772   12.3458   16.1134 C   0  0  0  0  0  0  0  0  0  0  0  0
   -5.1147   13.6669   18.3740 C   0  0  1  0  0  0  0  0  0  0  0  0
  -11.0801   13.2079   16.8731 N   0  0  0  0  0  0  0  0  0  0  0  0
   -7.2651   12.6159   15.9550 C   0  0  0  0  0  0  0  0  0  0  0  0
   -8.0622   11.7898   15.3177 N   0  0  0  0  0  0  0  0  0  0  0  0
   -6.9599   13.2988   16.5184 N   0  0  0  0  0  0  0  0  0  0  0  0
   -4.6732   14.2099   16.2821 O   0  0  0  0  0  0  0  0  0  0  0  0
   -4.1579    9.3905   15.7814 O   0  0  0  0  0  0  0  0  0  0  0  0
    1.5054    7.6206   18.3110 P   0  0  0  0  0  4  0  0  0  0  0  0
   -3.7118   13.2624   17.6087 C   0  0  2  0  0  0  0  0  0  0  0  0
   -2.8902    9.9942   15.8975 P   0  0  2  0  0  4  0  0  0  0  0  0
  -10.7594   11.3290   15.4734 N   0  0  0  0  0  0  0  0  0  0  0  0
    1.7253    6.3353   18.0529 O   0  0  0  0  0  0  0  0  0  0  0  0
   -8.7605   13.0268   16.4244 C   0  0  2  0  0  0  0  0  0  0  0  0
   -3.0806   11.4841   16.2096 O   0  0  0  0  0  0  0  0  0  0  0  0
   -0.5209    8.1136   18.1599 C   0  0  0  0  0  0  0  0  0  0  0  0
   -5.3020   15.1822   18.9305 O   0  0  0  0  0  0  0  0  0  0  0  0
    0.0132    9.7717   15.8168 O   0  0  0  0  0  0  0  0  0  0  0  0
   -9.1078   14.1002   17.6648 N   0  0  0  0  0  0  0  0  0  0  0  0
   -2.1809    9.5050   14.6593 O   0  0  0  0  0  1  0  0  0  0  0  0
    1.6883    9.1429   17.5140 O   0  0  0  0  0  1  0  0  0  0  0  0
   -3.6083   13.6454   19.2660 O   0  0  0  0  0  0  0  0  0  0  0  0
   -2.2662    9.5358   16.9855 O   0  0  0  0  0  0  0  0  0  0  0  0
   -2.9014   12.9955   16.5010 C   0  0  0  0  0  0  0  0  0  0  0  0
   -9.9417   14.0489   17.6326 C   0  0  0  0  0  0  0  0  0  0  0  0
    2.0317    7.6778   19.5470 O   0  0  0  0  0  0  0  0  0  0  0  0
   -0.4219    9.1580   16.8483 P   0  0  0  0  0  0  0  0  0  0  0  0
  3  1  1  0
  4  2  2  0
  6  5  2  3
  7  1  1  0
  7  5  1  0
  1  8  1  6
 11  3  1  0
 12  9  1  6
 13  2  1  0
 14 10  1  0
 15  2  1  0
 15  5  1  1
 16 12  1  0
 17 10  1  0
  3 18  1  1
 20 15  1  0
 21 12  1  0
 22 10  1  0
 11 23  1  6
 24 12  1  0
 25 11  1  0
 25 16  1  0
 26  4  1  0
 26 20  2  0
 27 10  1  0
 28 17  1  0
 28 19  1  0
 28 24  1  0
M  RAD  4  10   2  12   2  21   2  22   2
M  END
>  <ID>  (1) 
conformer_0

$$$$
