
     RDKit          3D

 26 26  0  0  0  0  0  0  0  0999 V2000
   -5.9021   14.2381   17.6253 C   0  0  1  0  0  0  0  0  0  0  0  0
   -9.4525   11.9848   15.6622 C   0  0  0  0  0  0  0  0  0  0  0  0
   -5.1296   14.0189   18.4811 C   0  0  0  0  0  0  0  0  0  0  0  0
   -6.7091   12.1470   15.5886 C   0  0  0  0  0  0  0  0  0  0  0  0
   -9.0457   14.1129   17.5090 N   0  0  0  0  0  0  0  0  0  0  0  0
   -7.3786   11.3877   15.0638 N   0  0  0  0  0  0  0  0  0  0  0  0
   -4.6243   14.3002   16.3085 O   0  0  0  0  0  0  0  0  0  0  0  0
  -10.5408   11.0465   15.1587 N   0  0  0  0  0  0  0  0  0  0  0  0
   -6.8331   13.1551   16.3082 N   0  0  0  0  0  0  0  0  0  0  0  0
   -3.8835   13.5137   17.7023 C   0  0  2  0  0  0  0  0  0  0  0  0
    0.8144    7.8533   17.7063 P   0  0  0  0  0  4  0  0  0  0  0  0
   -3.7739    9.6057   16.4875 O   0  0  0  0  0  0  0  0  0  0  0  0
   -1.7548    9.8008   16.5469 P   0  0  0  0  0  5  0  0  0  0  0  0
   -8.3759   12.7100   16.1677 C   0  0  0  0  0  0  0  0  0  0  0  0
   -2.7616   11.4488   16.4023 O   0  0  0  0  0  0  0  0  0  0  0  0
   -5.6642   15.2608   19.1436 O   0  0  0  0  0  0  0  0  0  0  0  0
  -10.8575   13.0009   16.6376 N   0  0  0  0  0  0  0  0  0  0  0  0
   -0.0671   10.6384   16.6366 O   0  0  0  0  0  0  0  0  0  0  0  0
    1.6917    6.7696   18.2299 O   0  0  0  0  0  0  0  0  0  0  0  0
   -3.7076   13.7861   19.4438 O   0  0  0  0  0  0  0  0  0  0  0  0
   -0.1852    8.7421   18.4936 C   0  0  0  0  0  0  0  0  0  0  0  0
   -1.7513    9.5859   15.5409 O   0  0  0  0  0  0  0  0  0  0  0  0
   -9.9662   13.7193   17.1597 C   0  0  0  0  0  0  0  0  0  0  0  0
   -0.5691    7.4052   16.4619 O   0  0  0  0  0  1  0  0  0  0  0  0
   -3.0848   13.0482   16.5937 C   0  0  0  0  0  0  0  0  0  0  0  0
    1.0194    8.4318   15.9404 O   0  0  0  0  0  0  0  0  0  0  0  0
  3  1  1  0
  6  4  2  3
  7  1  1  0
  8  2  2  3
  1  9  1  6
  9  4  1  0
 10  3  1  0
 10  7  1  0
 13 12  1  0
 14  2  1  0
 14  9  1  0
 15 13  1  0
 16  3  1  0
 17  2  1  0
 18 13  1  0
 19 11  1  0
 20  3  1  0
 21 11  1  0
 21 13  1  0
 22 13  1  0
 23  5  3  0
 23 17  1  0
 24 11  1  0
 10 25  1  6
 25 15  1  0
 26 11  1  0
M  RAD  2  11   2  24   2
M  END
>  <ID>  (1) 
conformer_0

$$$$
