
     RDKit          3D

 28 29  0  0  0  0  0  0  0  0999 V2000
   -5.6079   14.0894   17.1571 C   0  0  1  0  0  0  0  0  0  0  0  0
  -10.1585   12.5093   16.2580 C   0  0  0  0  0  0  0  0  0  0  0  0
   -4.8345   13.6017   18.2159 C   0  0  1  0  0  0  0  0  0  0  0  0
   -8.9651   13.1656   16.6219 C   0  0  0  0  0  0  0  0  0  0  0  0
   -8.7943   14.2618   17.7800 N   0  0  0  0  0  0  0  0  0  0  0  0
   -8.2134   12.0457   15.4777 N   0  0  0  0  0  0  0  0  0  0  0  0
   -4.4454   13.9816   16.1659 O   0  0  0  0  0  0  0  0  0  0  0  0
   -7.0694   13.3132   16.5114 N   0  0  0  0  0  0  0  0  0  0  0  0
    0.0077    9.2524   17.0767 P   0  0  0  0  0  0  0  0  0  0  0  0
  -10.9008   11.4809   15.6541 N   0  0  0  0  0  0  0  0  0  0  0  0
  -11.0751   13.3902   17.0014 N   0  0  0  0  0  0  0  0  0  0  0  0
   -2.5394   10.0937   15.7515 P   0  0  0  0  0  0  0  0  0  0  0  0
   -3.5846   13.0715   17.8704 C   0  0  0  0  0  0  0  0  0  0  0  0
   -2.7547   11.3892   15.8459 O   0  0  0  0  0  0  0  0  0  0  0  0
    0.6991    9.9877   16.3076 O   0  0  0  0  0  0  0  0  0  0  0  0
   -3.7205    9.5490   15.4569 O   0  0  0  0  0  0  0  0  0  0  0  0
  -10.0076   14.2192   17.7509 C   0  0  0  0  0  0  0  0  0  0  0  0
    0.8154    5.4317   18.0186 O   0  0  0  0  0  0  0  0  0  0  0  0
   -0.2847    8.4080   18.3426 C   0  0  2  0  0  0  0  0  0  0  0  0
   -4.8124   14.8339   18.9783 O   0  0  0  0  0  0  0  0  0  0  0  0
    1.3752   10.2647   18.4666 O   0  0  0  0  0  0  0  0  0  0  0  0
    1.2520    7.1668   16.5339 O   0  0  0  0  0  1  0  0  0  0  0  0
   -1.6940    9.3604   16.0717 O   0  0  0  0  0  0  0  0  0  0  0  0
   -3.4569   12.9610   19.4416 O   0  0  0  0  0  0  0  0  0  0  0  0
   -2.9781   12.8690   16.4576 C   0  0  1  0  0  0  0  0  0  0  0  0
    2.1361    7.0128   18.7730 O   0  0  0  0  0  0  0  0  0  0  0  0
   -7.4558   12.7310   15.9759 C   0  0  0  0  0  0  0  0  0  0  0  0
    1.1783    7.0567   17.8521 P   0  0  0  0  0  4  0  0  0  0  0  0
  3  1  1  0
  4  2  2  0
  5  4  1  0
  7  1  1  0
  1  8  1  6
 10  2  1  0
 11  2  1  0
 13  3  1  0
 14 12  1  0
 15  9  1  0
 16 12  1  0
 17  5  2  0
 17 11  1  0
 19  9  1  0
  3 20  1  1
 19 21  1  1
 23  9  1  0
 23 12  1  0
 24 13  1  0
 25  7  1  0
 25 13  1  0
 25 14  1  6
 27  4  1  0
 27  6  2  3
 27  8  1  0
 28 18  1  0
 28 19  1  0
 28 22  1  0
 28 26  1  0
M  RAD  2  22   2  28   2
M  END
>  <ID>  (1) 
conformer_0

$$$$
