
     RDKit          3D

 28 29  0  0  0  0  0  0  0  0999 V2000
   -5.7171   14.2235   17.5347 C   0  0  2  0  0  0  0  0  0  0  0  0
   -9.7892   12.3770   16.0495 C   0  0  0  0  0  0  0  0  0  0  0  0
   -5.1573   13.9535   18.3975 C   0  0  1  0  0  0  0  0  0  0  0  0
   -8.8416   14.2418   17.7580 N   0  0  0  0  0  0  0  0  0  0  0  0
  -10.0069   13.9450   17.5325 C   0  0  0  0  0  0  0  0  0  0  0  0
   -7.9218   11.7005   15.2544 N   0  0  0  0  0  0  0  0  0  0  0  0
   -6.9290   13.2738   16.5727 N   0  0  0  0  0  0  0  0  0  0  0  0
   -4.6418   14.2645   16.2606 O   0  0  0  0  0  0  0  0  0  0  0  0
   -3.7567   13.6547   17.6691 C   0  0  1  0  0  0  0  0  0  0  0  0
   -3.7721    9.5629   16.3898 O   0  0  0  0  0  0  0  0  0  0  0  0
    1.1470    6.9820   17.8596 P   0  0  0  0  0  4  0  0  0  0  0  0
   -2.6047   10.2631   16.1008 P   0  0  0  0  0  0  0  0  0  0  0  0
  -10.8667   11.4641   15.4483 N   0  0  0  0  0  0  0  0  0  0  0  0
  -10.8137   13.2784   16.9864 N   0  0  0  0  0  0  0  0  0  0  0  0
    0.1394   10.2376   16.1184 O   0  0  0  0  0  0  0  0  0  0  0  0
   -8.5107   13.0535   16.4962 C   0  0  1  0  0  0  0  0  0  0  0  0
    1.6771    7.5225   19.0475 O   0  0  0  0  0  0  0  0  0  0  0  0
   -5.5074   15.2262   19.0531 O   0  0  0  0  0  0  0  0  0  0  0  0
   -3.2281   11.8825   15.8690 O   0  0  0  0  0  0  0  0  0  0  0  0
    0.9804    7.6450   16.8787 O   0  0  0  0  0  1  0  0  0  0  0  0
   -3.6192   14.0327   19.3546 O   0  0  0  0  0  0  0  0  0  0  0  0
   -2.1707    9.5785   14.8716 O   0  0  0  0  0  1  0  0  0  0  0  0
   -0.7492    8.6018   18.0670 C   0  0  0  0  0  0  0  0  0  0  0  0
    1.5500    5.6462   17.9783 O   0  0  0  0  0  0  0  0  0  0  0  0
   -7.0006   12.3943   15.8279 C   0  0  0  0  0  0  0  0  0  0  0  0
   -2.7868   13.1395   16.4553 C   0  0  0  0  0  0  0  0  0  0  0  0
   -1.8690   10.6623   16.9801 O   0  0  0  0  0  0  0  0  0  0  0  0
   -0.3632    9.1651   16.9902 P   0  0  1  0  0  4  0  0  0  0  0  0
  3  1  1  0
  5  4  2  0
  1  7  1  6
  8  1  1  0
  9  3  1  0
  9  8  1  0
 12 10  1  0
 13  2  1  0
 14  2  2  0
 14  5  1  0
 16  2  1  0
 16  4  1  0
 16  7  1  1
 17 11  1  0
  3 18  1  1
 19 12  1  0
 20 11  1  0
  9 21  1  1
 23 11  1  0
 24 11  1  0
 25  6  2  3
 25  7  1  0
 26  9  1  0
 26 19  1  0
 27 12  1  0
 28 15  1  1
 28 22  1  0
 28 23  1  0
 28 27  1  0
M  RAD  4  11   2  20   2  22   2  28   2
M  END
>  <ID>  (1) 
conformer_0

$$$$
