
     RDKit          3D

 28 29  0  0  0  0  0  0  0  0999 V2000
   -5.7136   14.2466   17.4082 C   0  0  2  0  0  0  0  0  0  0  0  0
   -9.7501   12.2210   15.8447 C   0  0  0  0  0  0  0  0  0  0  0  0
   -4.8991   13.9781   18.0908 C   0  0  0  0  0  0  0  0  0  0  0  0
   -8.4232   12.8872   16.2409 C   0  0  0  0  0  0  0  0  0  0  0  0
   -8.8486   14.0768   17.4379 N   0  0  0  0  0  0  0  0  0  0  0  0
   -7.7054   11.6137   15.1694 N   0  0  0  0  0  0  0  0  0  0  0  0
  -10.7076   11.3707   15.3240 N   0  0  0  0  0  0  0  0  0  0  0  0
   -6.8506   13.2334   16.3996 N   0  0  0  0  0  0  0  0  0  0  0  0
    1.4811    7.5271   18.0148 P   0  0  0  0  0  4  0  0  0  0  0  0
   -0.3907    9.1738   16.8938 P   0  0  0  0  0  0  0  0  0  0  0  0
   -4.6539   13.8097   16.1577 O   0  0  0  0  0  0  0  0  0  0  0  0
   -3.9585    9.6030   15.9405 O   0  0  0  0  0  0  0  0  0  0  0  0
   -3.7152   13.2246   17.6230 C   0  0  0  0  0  0  0  0  0  0  0  0
    1.8154    6.1940   17.6707 O   0  0  0  0  0  0  0  0  0  0  0  0
   -9.9509   13.9794   17.3657 C   0  0  0  0  0  0  0  0  0  0  0  0
   -5.4061   15.4061   18.5616 O   0  0  0  0  0  0  0  0  0  0  0  0
    0.0904   10.3431   16.4419 O   0  0  0  0  0  0  0  0  0  0  0  0
    2.2578    8.3682   17.0683 O   0  0  0  0  0  1  0  0  0  0  0  0
  -10.8535   13.2284   16.8134 N   0  0  0  0  0  0  0  0  0  0  0  0
   -2.8968    9.0961   17.7096 O   0  0  0  0  0  1  0  0  0  0  0  0
   -1.6511    9.1350   15.3107 O   0  0  0  0  0  0  0  0  0  0  0  0
   -0.3239    8.0814   17.9122 C   0  0  0  0  0  0  0  0  0  0  0  0
   -2.9716   11.1301   16.5053 O   0  0  0  0  0  0  0  0  0  0  0  0
   -6.8324   12.3205   15.6832 C   0  0  0  0  0  0  0  0  0  0  0  0
   -3.5521   14.4956   18.9229 O   0  0  0  0  0  0  0  0  0  0  0  0
   -3.0874   13.0799   16.4595 C   0  0  1  0  0  0  0  0  0  0  0  0
    1.7573    7.3275   19.1957 O   0  0  0  0  0  0  0  0  0  0  0  0
   -2.7805    9.9410   16.4179 P   0  0  1  0  0  4  0  0  0  0  0  0
  3  1  1  0
  4  2  2  0
  5  4  1  0
  7  2  1  0
  1  8  1  1
  8  4  1  0
 11  1  1  0
 13  3  1  0
 14  9  1  0
 15  5  2  0
 16  3  1  0
 17 10  1  0
 18  9  1  0
 19  2  1  0
 19 15  1  0
 21 10  1  0
 22  9  1  0
 22 10  1  0
 24  6  2  3
 24  8  1  0
 25  3  1  0
 26 11  1  0
 26 13  1  0
 26 23  1  6
 27  9  1  0
 28 12  1  6
 28 20  1  0
 28 21  1  0
 28 23  1  0
M  RAD  4   9   2  18   2  20   2  28   2
M  END
>  <ID>  (1) 
conformer_0

$$$$
