
     RDKit          3D

 28 28  0  0  0  0  0  0  0  0999 V2000
   -8.6740   13.0769   16.5918 C   0  0  0  0  0  0  0  0  0  0  0  0
   -5.8718   14.3258   17.7200 C   0  0  0  0  0  0  0  0  0  0  0  0
   -5.1114   14.2090   18.3207 C   0  0  0  0  0  0  0  0  0  0  0  0
   -7.3122   12.5736   15.8718 C   0  0  0  0  0  0  0  0  0  0  0  0
   -9.0221   14.1163   17.8499 N   0  0  0  0  0  0  0  0  0  0  0  0
   -8.0308   11.9535   15.2615 N   0  0  0  0  0  0  0  0  0  0  0  0
   -3.8920   13.8326   17.4993 C   0  0  2  0  0  0  0  0  0  0  0  0
   -4.7586   14.0523   16.2383 O   0  0  0  0  0  0  0  0  0  0  0  0
   -2.9431   10.2472   16.3440 P   0  0  1  0  0  4  0  0  0  0  0  0
  -10.8484   11.4351   15.4920 N   0  0  0  0  0  0  0  0  0  0  0  0
   -4.1261    9.6321   16.4941 O   0  0  0  0  0  0  0  0  0  0  0  0
   -0.5181    8.4319   18.4458 C   0  0  0  0  0  0  0  0  0  0  0  0
   -7.0815   13.3652   16.6599 N   0  0  0  0  0  0  0  0  0  0  0  0
   -2.0142    9.4027   15.6640 O   0  0  0  0  0  0  0  0  0  0  0  0
   -9.9265   12.2959   16.0278 C   0  0  1  0  0  0  0  0  0  0  0  0
    1.3345    7.2389   18.1228 P   0  0  2  0  0  4  0  0  0  0  0  0
   -5.6593   15.6152   18.8845 O   0  0  0  0  0  0  0  0  0  0  0  0
    0.4079    9.6255   15.9256 O   0  0  0  0  0  0  0  0  0  0  0  0
    1.4917    6.1427   18.3888 O   0  0  0  0  0  0  0  0  0  0  0  0
  -10.9582   13.1821   16.9640 N   0  0  0  0  0  0  0  0  0  0  0  0
   -0.3627    7.3362   15.7786 O   0  0  0  0  0  0  0  0  0  0  0  0
    2.0539    7.7463   17.6533 O   0  0  0  0  0  1  0  0  0  0  0  0
   -3.7080   14.7223   19.0631 O   0  0  0  0  0  0  0  0  0  0  0  0
   -3.0058   13.0144   16.4222 C   0  0  0  0  0  0  0  0  0  0  0  0
   -3.2037   11.7018   15.8991 O   0  0  0  0  0  0  0  0  0  0  0  0
   -0.4653    8.6971   16.5813 P   0  0  0  0  0  0  0  0  0  0  0  0
  -10.0079   13.8828   17.6131 C   0  0  0  0  0  0  0  0  0  0  0  0
   -2.5635   10.3973   17.6195 O   0  0  0  0  0  1  0  0  0  0  0  0
  3  2  1  0
  4  1  1  0
  5  1  2  0
  6  4  2  3
  7  3  1  0
  7  8  1  6
  9 11  1  1
 13  2  1  0
 13  4  1  0
 14  9  1  0
 15  1  1  0
 15 10  1  1
 16 12  1  1
 17  3  1  0
 19 16  1  0
 20 15  1  0
 21 16  1  0
 22 16  1  0
 23  3  1  0
 24  7  1  0
 25  9  1  0
 25 24  1  0
 26 14  1  0
 26 18  1  0
 26 21  1  0
 27  5  1  0
 27 20  2  0
 28  9  1  0
M  RAD  4   9   2  16   2  22   2  28   2
M  END
>  <ID>  (1) 
conformer_0

$$$$
