
     RDKit          3D

 28 30  0  0  0  0  0  0  0  0999 V2000
  -10.1642   13.9626   17.2761 C   0  0  0  0  0  0  0  0  0  0  0  0
   -5.7483   14.5460   17.5364 C   0  0  1  0  0  0  0  0  0  0  0  0
   -5.2901   14.1815   18.2276 C   0  0  1  0  0  0  0  0  0  0  0  0
   -3.8825   13.8836   17.3986 C   0  0  2  0  0  0  0  0  0  0  0  0
   -7.2678   12.5436   16.0003 C   0  0  0  0  0  0  0  0  0  0  0  0
   -7.7599   11.7571   15.3533 N   0  0  0  0  0  0  0  0  0  0  0  0
   -2.8713   10.2484   16.0433 P   0  0  2  0  0  4  0  0  0  0  0  0
   -9.1245   14.1840   17.4321 N   0  0  0  0  0  0  0  0  0  0  0  0
   -4.5651   14.0644   16.1816 O   0  0  0  0  0  0  0  0  0  0  0  0
   -7.0796   13.3854   16.8264 N   0  0  0  0  0  0  0  0  0  0  0  0
  -10.6279   11.1856   15.3236 N   0  0  0  0  0  0  0  0  0  0  0  0
   -4.0537    9.6457   16.2693 O   0  0  0  0  0  0  0  0  0  0  0  0
    1.2269    7.2221   18.0682 P   0  0  0  0  0  0  0  0  0  0  0  0
   -1.9276    9.2693   16.8742 O   0  0  0  0  0  0  0  0  0  0  0  0
   -5.2367   16.0454   18.2775 O   0  0  0  0  0  0  0  0  0  0  0  0
   -9.7485   12.2189   15.9166 C   0  0  0  0  0  3  0  0  0  0  0  0
    0.2832   10.2495   16.6993 O   0  0  0  0  0  0  0  0  0  0  0  0
    1.5823    6.2323   17.6468 O   0  0  0  0  0  0  0  0  0  0  0  0
   -3.9157   14.2826   19.2781 O   0  0  0  0  0  0  0  0  0  0  0  0
   -2.8917   11.6563   16.2752 O   0  0  0  0  0  0  0  0  0  0  0  0
   -0.3297    8.1336   18.0936 C   0  0  2  0  0  0  0  0  0  0  0  0
  -10.9278   13.0748   16.5754 N   0  0  0  0  0  0  0  0  0  0  0  0
   -0.7200    6.6257   16.4673 O   0  0  0  0  0  0  0  0  0  0  0  0
   -2.8135   13.1178   16.4337 C   0  0  0  0  0  0  0  0  0  0  0  0
   -2.1010    9.9512   14.8573 O   0  0  0  0  0  1  0  0  0  0  0  0
   -0.4851    8.9290   16.8351 P   0  0  0  0  0  0  0  0  0  0  0  0
    2.2611    7.2296   19.2730 O   0  0  0  0  0  0  0  0  0  0  0  0
   -8.5374   13.1770   16.6597 C   0  0  2  0  0  0  0  0  0  0  0  0
  3  2  1  0
  4  3  1  0
  6  5  2  3
  8  1  2  0
  9  2  1  0
  9  4  1  0
 10  2  1  0
 10  5  1  0
  7 12  1  6
 14  7  1  0
  2 15  1  1
 16 11  1  0
 18 13  1  0
  3 19  1  1
 20  7  1  0
 21 13  1  0
 22  1  1  0
 22 16  1  0
 21 23  1  6
  4 24  1  6
 24 20  1  0
 25  7  1  0
 26 14  1  0
 26 17  1  0
 26 21  1  0
 27 13  1  0
 28  5  1  0
 28  8  1  0
 28 10  1  0
 28 16  1  1
M  RAD  3   7   2  16   2  25   2
M  END
>  <ID>  (1) 
conformer_0

$$$$
