
     RDKit          3D

 30 32  0  0  0  0  0  0  0  0999 V2000
   -5.7927   14.3682   17.3946 C   0  0  0  0  0  0  0  0  0  0  0  0
   -7.2517   12.7361   15.8326 C   0  0  0  0  0  0  0  0  0  0  0  0
   -5.2916   13.7922   18.2966 C   0  0  0  0  0  0  0  0  0  0  0  0
   -9.1876   12.5487   15.8871 C   0  0  0  0  0  0  0  0  0  0  0  0
  -11.0617   13.2044   16.8584 N   0  0  0  0  0  0  0  0  0  0  0  0
   -3.9635   13.5971   17.5481 C   0  0  0  0  0  0  0  0  0  0  0  0
   -4.7860   14.2200   16.1514 O   0  0  0  0  0  0  0  0  0  0  0  0
   -2.0680    9.9070   16.4135 P   0  0  0  0  0  0  0  0  0  0  0  0
   -3.8197    9.3844   16.0522 O   0  0  0  0  0  0  0  0  0  0  0  0
   -7.2191   13.4919   16.6376 N   0  0  0  0  0  0  0  0  0  0  0  0
    0.7671    8.1124   17.7995 P   0  0  0  0  0  5  0  0  0  0  0  0
   -2.1059    9.8083   17.2258 O   0  0  0  0  0  0  0  0  0  0  0  0
   -4.9033   15.5044   18.6032 O   0  0  0  0  0  0  0  0  0  0  0  0
   -8.2080   12.1285   15.4497 N   0  0  0  0  0  0  0  0  0  0  0  0
   -0.5529    8.5726   18.6529 C   0  0  0  0  0  0  0  0  0  0  0  0
  -10.2976   14.2406   17.8517 C   0  0  0  0  0  0  0  0  0  0  0  0
    1.2953    6.2651   18.3725 O   0  0  0  0  0  0  0  0  0  0  0  0
    0.5439    9.9093   16.1493 O   0  0  0  0  0  0  0  0  0  0  0  0
   -9.0899   14.1895   17.6856 N   0  0  0  0  0  0  0  0  0  0  0  0
   -3.7494   13.5249   19.1646 O   0  0  0  0  0  0  0  0  0  0  0  0
  -11.0595   11.6910   15.4963 N   0  0  0  0  0  0  0  0  0  0  0  0
   -2.0505   10.0722   14.7445 O   0  0  0  0  0  0  0  0  0  0  0  0
   -0.6143    7.5851   15.9565 O   0  0  0  0  0  0  0  0  0  0  0  0
  -10.2178   11.3966   15.0722 O   0  0  0  0  0  0  0  0  0  0  0  0
    2.1359    8.6691   18.4430 O   0  0  0  0  0  0  0  0  0  0  0  0
   -3.1266   12.9963   16.4111 C   0  0  0  0  0  0  0  0  0  0  0  0
    1.7696    7.6340   17.3753 O   0  0  0  0  0  0  0  0  0  0  0  0
   -2.7865   11.6921   16.3439 O   0  0  0  0  0  0  0  0  0  0  0  0
  -10.4006   12.4556   16.2208 C   0  0  0  0  0  0  0  0  0  0  0  0
   -8.4753   13.7070   16.9807 C   0  0  0  0  0  0  0  0  0  0  0  0
  3  1  1  0
  6  3  1  0
  7  1  1  0
  7  6  1  0
  9  8  1  0
 10  1  1  0
 10  2  1  0
 12  8  1  0
 13  3  1  0
 14  2  2  0
 14  4  1  0
 15 12  1  0
 16  5  1  0
 17 11  1  0
 18 11  1  0
 19 16  2  0
 20  6  1  0
 22  8  1  0
 23 11  1  0
 24 21  1  0
 25 11  1  0
 26  6  1  0
 26 22  1  0
 27 11  1  0
 27 15  1  0
 28 26  1  0
 29  4  1  0
 29  5  2  0
 29 21  1  0
 30  4  2  0
 30 10  1  0
 30 19  1  0
M  END
>  <ID>  (1) 
conformer_0

$$$$
