
     RDKit          3D

 29 30  0  0  0  0  0  0  0  0999 V2000
   -9.9698   12.3211   16.0685 C   0  0  0  0  0  0  0  0  0  0  0  0
   -5.7650   14.0981   17.4496 C   0  0  0  0  0  0  0  0  0  0  0  0
   -4.9996   13.7794   18.3229 C   0  0  0  0  0  0  0  0  0  0  0  0
  -10.9385   13.1766   16.7071 N   0  0  0  0  0  2  0  0  0  0  0  0
   -7.2863   12.5509   15.8724 C   0  0  0  0  0  0  0  0  0  0  0  0
   -4.8366   14.2610   16.1000 O   0  0  0  0  0  0  0  0  0  0  0  0
   -4.2696    9.7707   16.1906 O   0  0  0  0  0  0  0  0  0  0  0  0
   -7.0405   13.2511   16.5080 N   0  0  0  0  0  0  0  0  0  0  0  0
   -3.7152   13.5279   17.5621 C   0  0  0  0  0  0  0  0  0  0  0  0
   -3.1161   10.1766   15.9721 P   0  0  0  0  0  5  0  0  0  0  0  0
  -10.7395   11.2971   15.4492 N   0  0  0  0  0  0  0  0  0  0  0  0
   -8.2470   11.9020   15.4055 N   0  0  0  0  0  0  0  0  0  0  0  0
   -5.2135   15.3719   18.7991 O   0  0  0  0  0  0  0  0  0  0  0  0
    1.4993    7.7219   18.2758 P   0  0  0  0  0  4  0  0  0  0  0  0
   -0.2643   10.4597   16.3641 O   0  0  0  0  0  0  0  0  0  0  0  0
    1.6003    6.4569   17.9218 O   0  0  0  0  0  0  0  0  0  0  0  0
   -8.9204   14.1532   17.4897 N   0  0  0  0  0  0  0  0  0  0  0  0
   -2.8527    9.3310   17.3827 O   0  0  0  0  0  0  0  0  0  0  0  0
  -10.1348   14.1658   17.4479 C   0  0  0  0  0  0  0  0  0  0  0  0
   -3.4126   11.8444   16.0966 O   0  0  0  0  0  0  0  0  0  0  0  0
    1.6872    8.4827   17.7129 O   0  0  0  0  0  1  0  0  0  0  0  0
   -0.8282    8.2048   18.3813 C   0  0  0  0  0  0  0  0  0  0  0  0
   -1.4941    8.6245   15.5547 O   0  0  0  0  0  0  0  0  0  0  0  0
   -3.1266   13.1694   16.3260 C   0  0  0  0  0  0  0  0  0  0  0  0
    2.0204    7.6262   19.5700 O   0  0  0  0  0  0  0  0  0  0  0  0
   -3.6115   14.1229   19.1461 O   0  0  0  0  0  0  0  0  0  0  0  0
   -2.8515   10.2120   14.5745 O   0  0  0  0  0  0  0  0  0  0  0  0
   -0.8563    9.0577   17.0317 P   0  0  0  0  0  0  0  0  0  0  0  0
   -8.6448   13.0830   16.5006 C   0  0  0  0  0  0  0  0  0  0  0  0
  3  2  1  0
  4  1  1  0
  6  2  1  0
  8  2  1  0
  8  5  1  0
  9  3  1  0
 10  7  1  0
 11  1  1  0
 12  1  1  0
 12  5  2  0
 13  3  1  0
 16 14  1  0
 18 10  1  0
 19  4  1  0
 19 17  2  0
 20 10  1  0
 21 14  1  0
 22 14  1  0
 23 10  1  0
 24  9  1  0
 24 20  1  0
 25 14  1  0
 26  3  1  0
 27 10  1  0
 28 15  1  0
 28 22  1  0
 28 23  1  0
 29  1  1  0
 29  5  1  0
 29 17  1  0
M  RAD  3   4   2  14   2  21   2
M  END
>  <ID>  (1) 
conformer_0

$$$$
