
     RDKit          3D

 28 29  0  0  0  0  0  0  0  0999 V2000
   -5.9052   14.1523   17.3902 C   0  0  2  0  0  0  0  0  0  0  0  0
  -10.1060   12.3360   15.9852 C   0  0  0  0  0  0  0  0  0  0  0  0
   -5.1833   13.7541   18.3231 C   0  0  1  0  0  0  0  0  0  0  0  0
  -11.1451   13.1195   16.7284 N   0  0  0  0  0  0  0  0  0  0  0  0
   -7.4166   12.6388   15.8190 C   0  0  0  0  0  0  0  0  0  0  0  0
   -7.1888   13.3185   16.4582 N   0  0  0  0  0  0  0  0  0  0  0  0
   -3.9580   13.6875   17.5797 C   0  0  1  0  0  0  0  0  0  0  0  0
   -3.6979    9.6354   16.0078 O   0  0  0  0  0  0  0  0  0  0  0  0
   -8.3099   11.9674   15.3223 N   0  0  0  0  0  0  0  0  0  0  0  0
   -4.7309   14.0040   16.1905 O   0  0  0  0  0  0  0  0  0  0  0  0
  -10.8763   11.3380   15.3808 N   0  0  0  0  0  0  0  0  0  0  0  0
   -0.9223    8.4780   18.5307 C   0  0  0  0  0  0  0  0  0  0  0  0
   -2.4973   10.1283   16.0990 P   0  0  0  0  0  5  0  0  0  0  0  0
   -0.3883    8.6621   16.7892 P   0  0  0  0  0  0  0  0  0  0  0  0
   -9.1879   14.0212   17.6275 N   0  0  0  0  0  0  0  0  0  0  0  0
    0.4011   10.0650   16.2823 O   0  0  0  0  0  0  0  0  0  0  0  0
   -5.7110   15.1842   18.8470 O   0  0  0  0  0  0  0  0  0  0  0  0
    2.2087    8.2972   18.8272 O   0  0  0  0  0  0  0  0  0  0  0  0
   -3.6846   13.4987   19.2884 O   0  0  0  0  0  0  0  0  0  0  0  0
   -8.8034   13.1764   16.3856 C   0  0  2  0  0  0  0  0  0  0  0  0
   -2.6497   11.4597   16.0906 O   0  0  0  0  0  0  0  0  0  0  0  0
   -1.2117    8.6236   15.2135 O   0  0  0  0  0  0  0  0  0  0  0  0
    1.2663    6.2504   18.3520 O   0  0  0  0  0  0  0  0  0  0  0  0
   -2.9343   13.1884   16.3303 C   0  0  0  0  0  0  0  0  0  0  0  0
  -10.0945   13.8910   17.5542 C   0  0  0  0  0  0  0  0  0  0  0  0
    0.5351    7.5144   16.2511 O   0  0  0  0  0  0  0  0  0  0  0  0
    1.5692    7.5235   18.2568 P   0  0  0  0  0  0  0  0  0  0  0  0
   -2.0224    9.7775   17.2266 O   0  0  0  0  0  0  0  0  0  0  0  0
  3  1  1  0
  4  2  2  0
  1  6  1  6
  6  5  1  0
  7  3  1  0
  9  5  2  3
 10  1  1  0
 10  7  1  0
 11  2  1  0
 13  8  1  0
 13 12  1  0
 14 12  1  0
 16 14  1  0
  3 17  1  1
  7 19  1  1
 20  2  1  0
 20  5  1  1
 20 15  1  0
 21 13  1  0
 22 13  1  0
 24  7  1  0
 24 21  1  0
 25  4  1  0
 25 15  2  0
 26 14  1  0
 27 18  1  0
 27 23  1  0
 27 26  1  0
 28 13  1  0
M  END
>  <ID>  (1) 
conformer_0

$$$$
