
     RDKit          3D

 28 30  0  0  0  0  0  0  0  0999 V2000
   -5.4976   14.1356   17.2985 C   0  0  1  0  0  0  0  0  0  0  0  0
   -9.7303   14.2396   17.5538 C   0  0  0  0  0  0  0  0  0  0  0  0
   -5.0556   14.0275   18.2891 C   0  0  0  0  0  0  0  0  0  0  0  0
   -8.3831   13.1773   16.5931 C   0  0  2  0  0  0  0  0  0  0  0  0
   -8.7747   14.3773   17.8617 N   0  0  0  0  0  0  0  0  0  0  0  0
   -8.1208   11.6396   15.2539 N   0  0  0  0  0  0  0  0  0  0  0  0
   -4.6569   14.0329   16.1177 O   0  0  0  0  0  0  0  0  0  0  0  0
   -6.9014   13.1973   16.5364 N   0  0  0  0  0  0  0  0  0  0  0  0
   -2.7606   10.0198   16.1166 P   0  0  1  0  0  4  0  0  0  0  0  0
  -10.8024   11.6353   15.5061 N   0  0  0  0  0  0  0  0  0  0  0  0
   -3.9385    9.6117   15.9732 O   0  0  0  0  0  0  0  0  0  0  0  0
   -3.6584   13.4696   17.5013 C   0  0  1  0  0  0  0  0  0  0  0  0
    0.1397    7.8170   18.1852 C   0  0  0  0  0  0  0  0  0  0  0  0
   -3.8589   14.9621   18.9798 O   0  0  0  0  0  0  0  0  0  0  0  0
   -9.7737   12.5177   16.0553 C   0  0  0  0  0  0  0  0  0  0  0  0
    2.0520    7.3829   18.1436 P   0  0  0  0  0  4  0  0  0  0  0  0
    0.4442   10.1516   16.5581 O   0  0  0  0  0  0  0  0  0  0  0  0
   -3.1027   11.3831   16.4450 O   0  0  0  0  0  0  0  0  0  0  0  0
  -10.7790   13.6473   16.9889 N   0  0  0  0  0  0  0  0  0  0  0  0
   -0.9045    8.6191   15.7320 O   0  0  0  0  0  0  0  0  0  0  0  0
   -3.5465   12.3669   18.9383 O   0  0  0  0  0  0  0  0  0  0  0  0
    2.4427    6.8348   18.5704 O   0  0  0  0  0  0  0  0  0  0  0  0
   -7.1615   12.2605   15.6852 C   0  0  0  0  0  0  0  0  0  0  0  0
   -0.1949    9.0088   16.8874 P   0  0  0  0  0  0  0  0  0  0  0  0
    2.7700    7.7363   17.6641 O   0  0  0  0  0  1  0  0  0  0  0  0
   -2.9689   13.0191   16.4494 C   0  0  0  0  0  0  0  0  0  0  0  0
   -2.2882   10.2289   14.8840 O   0  0  0  0  0  1  0  0  0  0  0  0
   -5.5724   15.7250   18.5067 O   0  0  0  0  0  0  0  0  0  0  0  0
  3  1  1  0
  5  2  1  0
  4  5  1  6
  7  1  1  0
  1  8  1  6
  8  4  1  0
  9 11  1  1
 12  3  1  0
 12  7  1  0
 14  3  1  0
 15  4  1  0
 15 10  1  0
 16 13  1  0
 18  9  1  0
 19  2  1  0
 19 15  2  0
 20  9  1  0
 12 21  1  6
 22 16  1  0
 23  4  1  0
 23  6  2  3
 23  8  1  0
 24 13  1  0
 24 17  1  0
 24 20  1  0
 25 16  1  0
 26 12  1  0
 26 18  1  0
 27  9  1  0
 28  3  1  0
M  RAD  4   9   2  16   2  25   2  27   2
M  END
>  <ID>  (1) 
conformer_0

$$$$
