
     RDKit          3D

 29 30  0  0  0  0  0  0  0  0999 V2000
   -9.9257   14.2377   17.9085 C   0  0  0  0  0  0  0  0  0  0  0  0
   -5.5570   14.2396   17.2356 C   0  0  1  0  0  0  0  0  0  0  0  0
   -5.5752   13.5760   18.5836 C   0  0  1  0  0  0  0  0  0  0  0  0
   -8.7098   13.2607   16.7260 C   0  0  0  0  0  0  0  0  0  0  0  0
   -8.7913   14.2804   18.0309 N   0  0  0  0  0  0  0  0  0  0  0  0
   -8.0923   12.0280   15.4373 N   0  0  0  0  0  0  0  0  0  0  0  0
   -4.6637   14.1939   16.2478 O   0  0  0  0  0  0  0  0  0  0  0  0
   -6.9686   13.2875   16.6330 N   0  0  0  0  0  0  0  0  0  0  0  0
   -4.1109    9.5771   16.2770 O   0  0  0  0  0  0  0  0  0  0  0  0
   -2.9762   10.2539   16.0467 P   0  0  2  0  0  4  0  0  0  0  0  0
   -4.0872   13.3357   18.3996 C   0  0  2  0  0  0  0  0  0  0  0  0
   -0.6698    8.0249   18.0507 C   0  0  0  0  0  0  0  0  0  0  0  0
  -10.7751   11.5692   15.5988 N   0  0  0  0  0  0  0  0  0  0  0  0
    1.5261    7.6190   17.8174 P   0  0  0  0  0  0  0  0  0  0  0  0
   -2.9319   11.7525   16.1692 O   0  0  0  0  0  0  0  0  0  0  0  0
  -10.9080   13.4972   17.0900 N   0  0  0  0  0  0  0  0  0  0  0  0
   -9.9738   12.6006   16.3021 C   0  0  0  0  0  0  0  0  0  0  0  0
   -4.9203   15.1846   18.8570 O   0  0  0  0  0  0  0  0  0  0  0  0
    1.6719    7.4470   19.0484 O   0  0  0  0  0  0  0  0  0  0  0  0
    2.5631    7.2641   17.7044 O   0  0  0  0  0  0  0  0  0  0  0  0
    1.2709    8.1112   15.8445 O   0  0  0  0  0  0  0  0  0  0  0  0
   -2.3524    9.6724   14.7297 O   0  0  0  0  0  1  0  0  0  0  0  0
   -3.5740   13.4581   19.3275 O   0  0  0  0  0  0  0  0  0  0  0  0
   -2.2333    9.7452   17.1210 O   0  0  0  0  0  0  0  0  0  0  0  0
    0.3408   10.1928   16.4321 O   0  0  0  0  0  0  0  0  0  0  0  0
   -7.3084   12.6342   15.9963 C   0  0  0  0  0  0  0  0  0  0  0  0
   -3.4601   13.6562   17.0839 C   0  0  1  0  0  0  0  0  0  0  0  0
   -2.6091   12.9523   16.1555 C   0  0  0  0  0  0  0  0  0  0  0  0
   -0.6667    9.0165   16.8737 P   0  0  0  0  0  0  0  0  0  0  0  0
  3  2  1  0
  5  1  2  0
  5  4  1  0
  7  2  1  0
  2  8  1  6
 10  9  1  1
 11  3  1  0
 15 10  1  0
 16  1  1  0
 17  4  2  0
 17 13  1  0
 17 16  1  0
  3 18  1  1
 19 14  1  0
 20 12  1  0
 20 14  1  0
 21 14  1  0
 22 10  1  0
 11 23  1  1
 24 10  1  0
 26  4  1  0
 26  6  2  3
 26  8  1  0
 27  7  1  0
 27 11  1  0
 28 15  1  0
 27 28  1  6
 29 12  1  0
 29 24  1  0
 29 25  1  0
M  RAD  2  10   2  22   2
M  END
>  <ID>  (1) 
conformer_0

$$$$
