
     RDKit          3D

 29 29  0  0  0  0  0  0  0  0999 V2000
   -5.7772   14.0547   17.4997 C   0  0  1  0  0  0  0  0  0  0  0  0
  -10.0913   12.2294   16.0033 C   0  0  0  0  0  0  0  0  0  0  0  0
   -4.8927   13.8228   18.3893 C   0  0  0  0  0  0  0  0  0  0  0  0
   -0.4615    7.8372   18.0516 C   0  0  0  0  0  0  0  0  0  0  0  0
   -8.8453   13.0661   16.4342 C   0  0  0  0  0  0  0  0  0  0  0  0
  -11.0311   13.0331   16.8594 N   0  0  0  0  0  0  0  0  0  0  0  0
   -4.8254   14.1073   16.1141 O   0  0  0  0  0  0  0  0  0  0  0  0
   -3.7277   13.5986   17.5467 C   0  0  0  0  0  0  0  0  0  0  0  0
   -8.1757   11.8190   15.4383 N   0  0  0  0  0  0  0  0  0  0  0  0
  -10.9564   11.2882   15.3911 N   0  0  0  0  0  0  0  0  0  0  0  0
   -2.9738   10.3198   16.0632 P   0  0  0  0  0  5  0  0  0  0  0  0
   -3.9711    9.5645   16.0040 O   0  0  0  0  0  0  0  0  0  0  0  0
   -7.0598   13.3240   16.4983 N   0  0  0  0  0  0  0  0  0  0  0  0
    1.6060    6.0616   17.8314 O   0  0  0  0  0  0  0  0  0  0  0  0
   -0.2749   10.9445   16.8059 O   0  0  0  0  0  0  0  0  0  0  0  0
   -5.5300   14.9717   19.2079 O   0  0  0  0  0  0  0  0  0  0  0  0
    2.3285    8.0522   18.0235 O   0  0  0  0  0  1  0  0  0  0  0  0
   -3.0010   11.8042   16.4793 O   0  0  0  0  0  0  0  0  0  0  0  0
    1.3347    7.2440   17.9499 P   0  0  0  0  0  4  0  0  0  0  0  0
  -10.2034   13.8529   17.6125 C   0  0  0  0  0  0  0  0  0  0  0  0
   -9.0221   14.0962   17.5234 N   0  0  0  0  0  0  0  0  0  0  0  0
   -1.2843    8.7815   15.5439 O   0  0  0  0  0  0  0  0  0  0  0  0
   -2.7878    9.7361   17.8080 O   0  0  0  0  0  0  0  0  0  0  0  0
   -3.5290   14.1535   19.2463 O   0  0  0  0  0  0  0  0  0  0  0  0
   -2.9022   13.2340   16.3722 C   0  0  0  0  0  0  0  0  0  0  0  0
   -2.3767   10.4514   14.7723 O   0  0  0  0  0  0  0  0  0  0  0  0
   -7.3537   12.5739   15.9779 C   0  0  0  0  0  0  0  0  0  0  0  0
   -0.6565    9.3631   16.6153 P   0  0  0  0  0  5  0  0  0  0  0  0
    0.7935    9.5511   15.9811 O   0  0  0  0  0  0  0  0  0  0  0  0
  3  1  1  0
  5  2  2  0
  6  2  1  0
  1  7  1  6
  8  3  1  0
 10  2  1  0
 12 11  1  0
 13  1  1  0
 16  3  1  0
 18 11  1  0
 19  4  1  0
 19 14  1  0
 19 17  1  0
 20  6  1  0
 21  5  1  0
 21 20  2  0
 22 11  1  0
 23 11  1  0
 24  3  1  0
 25  8  1  0
 25 18  1  0
 26 11  1  0
 27  5  1  0
 27  9  2  3
 27 13  1  0
 28  4  1  0
 28 15  1  0
 28 22  1  0
 29 28  1  0
M  RAD  2  17   2  19   2
M  END
>  <ID>  (1) 
conformer_0

$$$$
