
     RDKit          3D

 28 28  0  0  0  0  0  0  0  0999 V2000
   -4.7426   13.6002   18.2323 C   0  0  2  0  0  0  0  0  0  0  0  0
  -10.0592   14.1904   17.6730 C   0  0  0  0  0  0  0  0  0  0  0  0
   -5.5924   14.0694   17.5057 C   0  0  2  0  0  0  0  0  0  0  0  0
   -8.7256   13.1600   16.5567 C   0  0  0  0  0  0  0  0  0  0  0  0
   -0.4086    8.2739   18.2832 C   0  0  0  0  0  0  0  0  0  0  0  0
   -8.8096   14.3212   17.6961 N   0  0  0  0  0  0  0  0  0  0  0  0
   -8.1193   11.9206   15.3215 N   0  0  0  0  0  0  0  0  0  0  0  0
   -6.9134   13.2908   16.6008 N   0  0  0  0  0  0  0  0  0  0  0  0
   -4.5111   14.2100   16.2019 O   0  0  0  0  0  0  0  0  0  0  0  0
   -2.8666   10.2056   15.9423 P   0  0  1  0  0  4  0  0  0  0  0  0
  -10.7629   11.5670   15.4289 N   0  0  0  0  0  0  0  0  0  0  0  0
   -5.0531   15.2020   18.7330 O   0  0  0  0  0  0  0  0  0  0  0  0
   -3.9804    9.5529   15.8911 O   0  0  0  0  0  0  0  0  0  0  0  0
   -3.5565   13.0644   17.7614 C   0  0  2  0  0  0  0  0  0  0  0  0
   -9.9968   12.5181   16.1867 C   0  0  0  0  0  0  0  0  0  0  0  0
    1.8062    8.1441   17.8816 P   0  0  0  0  0  4  0  0  0  0  0  0
  -11.0198   13.2668   17.0049 N   0  0  0  0  0  0  0  0  0  0  0  0
    2.6554    8.9603   18.4104 O   0  0  0  0  0  0  0  0  0  0  0  0
   -3.3498   11.9067   16.2180 O   0  0  0  0  0  0  0  0  0  0  0  0
    1.7371    8.5114   16.5010 O   0  0  0  0  0  1  0  0  0  0  0  0
   -3.4021   13.7027   19.2519 O   0  0  0  0  0  0  0  0  0  0  0  0
   -0.0909   10.4582   16.4862 O   0  0  0  0  0  0  0  0  0  0  0  0
    1.9403    6.8133   18.3550 O   0  0  0  0  0  0  0  0  0  0  0  0
   -7.1191   12.5857   15.8898 C   0  0  0  0  0  0  0  0  0  0  0  0
   -2.1813    9.8514   16.7585 O   0  0  0  0  0  0  0  0  0  0  0  0
   -2.9595   13.0937   16.3998 C   0  0  0  0  0  0  0  0  0  0  0  0
   -2.3285   10.4591   14.6441 O   0  0  0  0  0  1  0  0  0  0  0  0
   -0.4870    9.2579   17.0578 P   0  0  0  0  0  0  0  0  0  0  0  0
  3  1  1  0
  6  2  2  0
  6  4  1  0
  8  3  1  0
  3  9  1  6
  1 12  1  1
 10 13  1  6
 14  1  1  0
 15  4  2  0
 15 11  1  0
 16  5  1  0
 17  2  1  0
 17 15  1  0
 18 16  1  0
 19 10  1  0
 20 16  1  0
 14 21  1  1
 23 16  1  0
 24  4  1  0
 24  7  2  3
 24  8  1  0
 25 10  1  0
 26 14  1  0
 26 19  1  0
 27 10  1  0
 28  5  1  0
 28 22  1  0
 28 25  1  0
M  RAD  4  10   2  16   2  20   2  27   2
M  END
>  <ID>  (1) 
conformer_0

$$$$
