
     RDKit          3D

 32 34  0  0  0  0  0  0  0  0999 V2000
  -10.4143   12.5566   16.3172 C   0  0  0  0  0  0  0  0  0  0  0  0
   -4.4480   13.0062   18.1966 C   0  0  0  0  0  0  0  0  0  0  0  0
   -3.9876   13.4795   16.7211 C   0  0  0  0  0  0  0  0  0  0  0  0
   -9.0995   12.4698   15.9378 C   0  0  0  0  0  0  0  0  0  0  0  0
   -8.1337   11.9517   15.3327 N   0  0  0  0  0  0  0  0  0  0  0  0
  -11.0726   13.2776   16.8850 N   0  0  0  0  0  0  0  0  0  0  0  0
   -4.7993   14.4148   16.2255 O   0  0  0  0  0  0  0  0  0  0  0  0
   -2.8990   12.8379   16.0015 C   0  0  0  0  0  0  0  0  0  0  0  0
   -2.8832   10.2237   16.0258 P   0  0  0  0  0  5  0  0  0  0  0  0
   -4.2794    9.4896   16.0372 O   0  0  0  0  0  0  0  0  0  0  0  0
  -10.8856   11.4899   15.5581 N   0  0  0  0  0  0  0  0  0  0  0  0
   -3.3958   11.8268   15.8516 O   0  0  0  0  0  0  0  0  0  0  0  0
  -10.1185   14.3292   17.7739 C   0  0  0  0  0  0  0  0  0  0  0  0
    1.6482    7.6851   18.0923 P   0  0  0  0  0  4  0  0  0  0  0  0
   -7.0351   13.2744   16.3954 N   0  0  0  0  0  0  0  0  0  0  0  0
   -0.5139    9.0241   18.2957 C   0  0  0  0  0  0  0  0  0  0  0  0
   -5.6768   14.9706   19.0206 O   0  0  0  0  0  0  0  0  0  0  0  0
    1.0098    9.0259   15.9414 O   0  0  0  0  0  0  0  0  0  0  0  0
    1.3559    6.2201   17.8557 O   0  0  0  0  0  0  0  0  0  0  0  0
   -2.2108    9.7937   14.7457 O   0  0  0  0  0  0  0  0  0  0  0  0
   -8.9948   14.1813   17.4279 N   0  0  0  0  0  0  0  0  0  0  0  0
   -3.8685   13.4690   19.2554 O   0  0  0  0  0  0  0  0  0  0  0  0
   -0.8066    7.8207   16.0207 O   0  0  0  0  0  0  0  0  0  0  0  0
    2.4695    8.0875   17.6812 O   0  0  0  0  0  1  0  0  0  0  0  0
   -6.9298   12.4035   15.4982 C   0  0  0  0  0  0  0  0  0  0  0  0
   -5.7788   14.1644   17.1757 C   0  0  0  0  0  0  0  0  0  0  0  0
   -2.5959   10.0699   16.8270 O   0  0  0  0  0  0  0  0  0  0  0  0
   -0.5772    8.9333   16.9295 P   0  0  0  0  0  0  0  0  0  0  0  0
    2.3341    7.5400   19.2254 O   0  0  0  0  0  0  0  0  0  0  0  0
   -0.3059   10.6280   16.3903 O   0  0  0  0  0  0  0  0  0  0  0  0
   -5.7164   13.7765   18.4864 C   0  0  0  0  0  0  0  0  0  0  0  0
   -8.2648   13.5243   16.6867 C   0  0  0  0  0  0  0  0  0  0  0  0
  3  2  1  0
  4  1  2  0
  5  4  1  0
  6  1  1  0
  7  3  1  0
  8  3  1  0
 10  9  1  0
 11  1  1  0
 12  8  1  0
 12  9  1  0
 13  6  2  0
 16  9  1  0
 16 14  1  0
 19 14  1  0
 20  9  1  0
 21 13  1  0
 22  2  1  0
 23 16  1  0
 24 14  1  0
 25  5  2  0
 25 15  1  0
 26  7  1  0
 26 15  1  0
 27  9  1  0
 28 16  1  0
 28 18  1  0
 29 14  1  0
 30 28  1  0
 31  2  1  0
 31 17  1  0
 31 26  1  0
 32  4  1  0
 32 15  1  0
 32 21  2  0
M  RAD  2  14   2  24   2
M  END
>  <ID>  (1) 
conformer_0

$$$$
