
     RDKit          3D

 28 29  0  0  0  0  0  0  0  0999 V2000
   -9.9582   12.3638   16.0284 C   0  0  0  0  0  0  0  0  0  0  0  0
   -5.8072   14.1833   17.5106 C   0  0  1  0  0  0  0  0  0  0  0  0
   -5.2240   13.5285   18.4429 C   0  0  0  0  0  0  0  0  0  0  0  0
   -8.7089   13.1150   16.4491 C   0  0  0  0  0  0  0  0  0  0  0  0
  -11.0012   13.2563   16.8495 N   0  0  0  0  0  0  0  0  0  0  0  0
   -8.0256   11.8319   15.3435 N   0  0  0  0  0  0  0  0  0  0  0  0
   -0.7340    8.3608   18.2497 C   0  0  0  0  0  0  0  0  0  0  0  0
   -4.7123   14.1042   16.2348 O   0  0  0  0  0  0  0  0  0  0  0  0
   -4.1493    9.2891   16.1906 O   0  0  0  0  0  0  0  0  0  0  0  0
   -7.0287   13.3268   16.5078 N   0  0  0  0  0  0  0  0  0  0  0  0
   -3.0951   10.0958   15.9568 P   0  0  1  0  0  4  0  0  0  0  0  0
   -3.9414   13.2180   17.6713 C   0  0  0  0  0  0  0  0  0  0  0  0
    2.4492    9.1327   18.5459 O   0  0  0  0  0  1  0  0  0  0  0  0
  -10.8760   11.4145   15.5199 N   0  0  0  0  0  0  0  0  0  0  0  0
   -3.1068   11.2395   16.5568 O   0  0  0  0  0  0  0  0  0  0  0  0
    1.4593    8.0285   18.2553 P   0  0  0  0  0  4  0  0  0  0  0  0
    1.7218    6.7902   18.5248 O   0  0  0  0  0  0  0  0  0  0  0  0
  -10.0500   14.0859   17.6113 C   0  0  0  0  0  0  0  0  0  0  0  0
    0.2229   10.7376   16.7138 O   0  0  0  0  0  0  0  0  0  0  0  0
   -5.7547   15.0061   19.0265 O   0  0  0  0  0  0  0  0  0  0  0  0
   -1.2221    8.7511   15.6631 O   0  0  0  0  0  0  0  0  0  0  0  0
   -9.0512   14.1436   17.6239 N   0  0  0  0  0  0  0  0  0  0  0  0
   -3.7778   13.8198   19.2536 O   0  0  0  0  0  0  0  0  0  0  0  0
    1.4827    8.7521   16.3645 O   0  0  0  0  0  0  0  0  0  0  0  0
   -7.2550   12.5032   15.8494 C   0  0  0  0  0  0  0  0  0  0  0  0
   -2.6990   10.3680   14.8681 O   0  0  0  0  0  1  0  0  0  0  0  0
   -3.1882   13.1185   16.4545 C   0  0  1  0  0  0  0  0  0  0  0  0
   -0.5875    9.2062   16.7665 P   0  0  0  0  0  0  0  0  0  0  0  0
  3  2  1  0
  4  1  2  0
  5  1  1  0
  8  2  1  0
  2 10  1  6
 11  9  1  6
 12  3  1  0
 14  1  1  0
 15 11  1  0
 16  7  1  0
 16 13  1  0
 17 16  1  0
 18  5  1  0
 20  3  1  0
 21 11  1  0
 22  4  1  0
 22 18  2  0
 23  3  1  0
 24 16  1  0
 25  4  1  0
 25  6  2  3
 25 10  1  0
 26 11  1  0
 27  8  1  0
 27 12  1  0
 27 15  1  6
 28  7  1  0
 28 19  1  0
 28 21  1  0
M  RAD  4  11   2  13   2  16   2  26   2
M  END
>  <ID>  (1) 
conformer_0

$$$$
