
     RDKit          3D

 28 29  0  0  0  0  0  0  0  0999 V2000
   -9.8310   13.9066   18.0465 C   0  0  0  0  0  0  0  0  0  0  0  0
   -4.5930   13.6830   18.1242 C   0  0  0  0  0  0  0  0  0  0  0  0
   -5.5265   13.9630   17.3491 C   0  0  0  0  0  0  0  0  0  0  0  0
   -8.6831   13.2335   16.7169 C   0  0  0  0  0  0  0  0  0  0  0  0
   -8.2418   12.1351   15.4000 N   0  0  0  0  0  0  0  0  0  0  0  0
   -8.7098   14.1765   18.0971 N   0  0  0  0  0  0  0  0  0  0  0  0
   -4.7020   14.0640   16.1917 O   0  0  0  0  0  0  0  0  0  0  0  0
   -2.6238   10.0486   15.7139 P   0  0  0  0  0  4  0  0  0  0  0  0
   -6.9820   13.3303   16.4525 N   0  0  0  0  0  0  0  0  0  0  0  0
  -11.0521   11.7613   15.8152 N   0  0  0  0  0  0  0  0  0  0  0  0
   -3.8209    9.5055   16.0991 O   0  0  0  0  0  0  0  0  0  0  0  0
   -3.3639   13.2885   17.3939 C   0  0  0  0  0  0  0  0  0  0  0  0
    1.6108    7.3785   18.4605 P   0  0  0  0  0  0  0  0  0  0  0  0
   -0.3671    8.2182   18.5165 C   0  0  0  0  0  0  0  0  0  0  0  0
   -1.6843    9.7693   16.6520 O   0  0  0  0  0  0  0  0  0  0  0  0
  -10.0427   12.6401   16.4389 C   0  0  0  0  0  3  0  0  0  0  0  0
  -10.9210   13.3070   17.4785 N   0  0  0  0  0  0  0  0  0  0  0  0
   -2.9539   14.2422   18.7522 O   0  0  0  0  0  0  0  0  0  0  0  0
    1.5163    6.1336   17.8609 O   0  0  0  0  0  0  0  0  0  0  0  0
    0.5773    9.2545   16.1621 O   0  0  0  0  0  0  0  0  0  0  0  0
    2.2620    7.5411   19.6150 O   0  0  0  0  0  0  0  0  0  0  0  0
   -2.8249   11.4169   15.6998 O   0  0  0  0  0  0  0  0  0  0  0  0
   -7.2795   12.6017   15.7374 C   0  0  0  0  0  0  0  0  0  0  0  0
   -5.1313   14.6875   19.0733 O   0  0  0  0  0  0  0  0  0  0  0  0
   -2.8356   12.8514   16.2213 C   0  0  0  0  0  0  0  0  0  0  0  0
   -0.4716    8.6771   16.9595 P   0  0  0  0  0  0  0  0  0  0  0  0
   -1.6133    9.1343   14.6962 O   0  0  0  0  0  1  0  0  0  0  0  0
    2.3513    7.7158   17.9620 O   0  0  0  0  0  0  0  0  0  0  0  0
  3  2  1  0
  5  4  1  0
  6  1  2  0
  6  4  1  0
  7  3  1  0
  9  3  1  0
  9  4  1  0
 11  8  1  0
 12  2  1  0
 15  8  1  0
 16  4  1  0
 16 10  1  0
 17  1  1  0
 17 16  1  0
 18 12  1  0
 19 13  1  0
 21 13  1  0
 22  8  1  0
 23  5  2  0
 23  9  1  0
 24  2  1  0
 25 12  1  0
 25 22  1  0
 26 14  1  0
 26 15  1  0
 26 20  1  0
 27  8  1  0
 28 13  1  0
 28 14  1  0
M  RAD  3   8   2  16   2  27   2
M  END
>  <ID>  (1) 
conformer_0

$$$$
