
     RDKit          3D

 28 29  0  0  0  0  0  0  0  0999 V2000
   -5.7339   14.2014   17.4245 C   0  0  0  0  0  0  0  0  0  0  0  0
   -9.9369   12.4019   16.0376 C   0  0  0  0  0  3  0  0  0  0  0  0
   -4.9518   13.7734   18.3462 C   0  0  0  0  0  0  0  0  0  0  0  0
   -7.0166   12.5225   15.7552 C   0  0  0  0  0  0  0  0  0  0  0  0
   -7.9908   11.9157   15.2393 N   0  0  0  0  0  0  0  0  0  0  0  0
   -8.9473   14.1124   17.6328 N   0  0  0  0  0  0  0  0  0  0  0  0
   -4.6702   14.1379   16.0778 O   0  0  0  0  0  0  0  0  0  0  0  0
   -0.6659    8.3411   18.2234 C   0  0  0  0  0  0  0  0  0  0  0  0
   -3.7120   13.4275   17.5912 C   0  0  0  0  0  0  0  0  0  0  0  0
   -6.9514   13.3095   16.4600 N   0  0  0  0  0  0  0  0  0  0  0  0
  -10.8863   11.4570   15.5724 N   0  0  0  0  0  0  0  0  0  0  0  0
   -3.0343   10.1531   16.0069 P   0  0  0  0  0  0  0  0  0  0  0  0
   -4.0778    9.6212   16.6147 O   0  0  0  0  0  0  0  0  0  0  0  0
    1.8395    8.0927   19.6398 O   0  0  0  0  0  0  0  0  0  0  0  0
    1.5741    7.7170   18.3011 P   0  0  0  0  0  4  0  0  0  0  0  0
   -4.7463   15.5512   18.5477 O   0  0  0  0  0  0  0  0  0  0  0  0
   -3.1413   11.6591   16.3757 O   0  0  0  0  0  0  0  0  0  0  0  0
   -8.5930   13.0528   16.3718 C   0  0  0  0  0  0  0  0  0  0  0  0
    0.2189   10.3434   16.5709 O   0  0  0  0  0  0  0  0  0  0  0  0
  -10.9127   13.2909   16.8807 N   0  0  0  0  0  0  0  0  0  0  0  0
    1.5729    6.3897   18.3850 O   0  0  0  0  0  0  0  0  0  0  0  0
    2.1187    7.9918   17.1753 O   0  0  0  0  0  1  0  0  0  0  0  0
   -1.7194    9.2909   16.0371 O   0  0  0  0  0  0  0  0  0  0  0  0
   -3.5649   13.8111   19.1789 O   0  0  0  0  0  0  0  0  0  0  0  0
  -10.0199   14.0405   17.5487 C   0  0  0  0  0  0  0  0  0  0  0  0
   -3.0291   13.0076   16.4124 C   0  0  0  0  0  0  0  0  0  0  0  0
   -0.5667    9.0608   16.8649 P   0  0  0  0  0  0  0  0  0  0  0  0
   -2.9882   10.4224   14.6988 O   0  0  0  0  0  0  0  0  0  0  0  0
  3  1  1  0
  5  4  2  0
  7  1  1  0
  9  3  1  0
 10  1  1  0
 10  4  1  0
 11  2  1  0
 13 12  1  0
 15  8  1  0
 15 14  1  0
 16  3  1  0
 18  2  1  0
 18  5  1  0
 18  6  1  0
 18 10  1  0
 20  2  1  0
 21 15  1  0
 22 15  1  0
 23 12  1  0
 24  3  1  0
 25  6  2  0
 25 20  1  0
 26  9  1  0
 26 17  1  0
 27  8  1  0
 27 19  1  0
 27 23  1  0
 28 12  1  0
 28 26  1  0
M  RAD  3   2   2  15   2  22   2
M  END
>  <ID>  (1) 
conformer_0

$$$$
