
     RDKit          3D

 25 27  0  0  0  0  0  0  0  0999 V2000
   -5.7721   14.0242   17.5331 C   0  0  1  0  0  0  0  0  0  0  0  0
   -8.5903   12.9994   16.3769 C   0  0  0  0  0  0  0  0  0  0  0  0
   -5.1821   13.8454   18.3620 C   0  0  0  0  0  0  0  0  0  0  0  0
   -3.8095   13.5653   17.2286 C   0  0  2  0  0  0  0  0  0  0  0  0
   -7.2591   12.3347   15.7430 C   0  0  0  0  0  0  0  0  0  0  0  0
   -8.0831   11.6913   15.2463 N   0  0  0  0  0  0  0  0  0  0  0  0
  -10.9481   13.1661   16.7470 N   0  0  0  0  0  0  0  0  0  0  0  0
  -10.9533   11.3377   15.3518 N   0  0  0  0  0  0  0  0  0  0  0  0
   -4.8091   14.2340   16.2146 O   0  0  0  0  0  0  0  0  0  0  0  0
   -7.0615   13.2653   16.5137 N   0  0  0  0  0  0  0  0  0  0  0  0
   -2.0607    9.9240   16.2980 P   0  0  0  0  0  5  0  0  0  0  0  0
    0.7293    7.9736   18.0366 P   0  0  0  0  0  0  0  0  0  0  0  0
   -5.6304   15.1115   19.0752 O   0  0  0  0  0  0  0  0  0  0  0  0
  -10.0220   13.9941   17.4161 C   0  0  0  0  0  0  0  0  0  0  0  0
   -2.1768    9.5758   16.8795 O   0  0  0  0  0  0  0  0  0  0  0  0
   -0.6345    8.6443   18.4187 C   0  0  0  0  0  0  0  0  0  0  0  0
    0.0696    9.5818   15.8426 O   0  0  0  0  0  0  0  0  0  0  0  0
    1.6016    6.9068   17.5299 O   0  0  0  0  0  0  0  0  0  0  0  0
   -8.9719   14.1037   17.3747 N   0  0  0  0  0  2  0  0  0  0  0  0
   -2.9735   11.6130   16.4643 O   0  0  0  0  0  0  0  0  0  0  0  0
   -2.9804   12.9759   16.2060 C   0  0  0  0  0  0  0  0  0  0  0  0
   -3.6093   14.3563   19.0530 O   0  0  0  0  0  0  0  0  0  0  0  0
   -2.7197   10.1735   14.7959 O   0  0  0  0  0  0  0  0  0  0  0  0
    1.8873    7.6775   19.4493 O   0  0  0  0  0  0  0  0  0  0  0  0
   -9.9532   12.1823   15.8792 C   0  0  0  0  0  0  0  0  0  0  0  0
  3  1  1  0
  4  3  1  0
  5  2  1  0
  6  5  2  3
  9  1  1  0
  9  4  1  0
  1 10  1  6
 10  2  1  0
 10  5  1  0
 13  3  1  0
 14  7  2  0
 15 11  1  0
 16 11  1  0
 16 12  1  0
 17 11  1  0
 18 12  1  0
 19  2  1  0
 19 14  1  0
 20 11  1  0
  4 21  1  6
 21 20  1  0
 22  3  1  0
 23 15  1  0
 24 12  1  0
 25  2  1  0
 25  7  1  0
 25  8  1  0
M  RAD  1  19   2
M  END
>  <ID>  (1) 
conformer_0

$$$$
