
     RDKit          3D

 30 32  0  0  0  0  0  0  0  0999 V2000
   -5.9596   14.3855   17.5886 C   0  0  0  0  0  0  0  0  0  0  0  0
  -10.2592   12.2329   16.0146 C   0  0  0  0  0  0  0  0  0  0  0  0
   -5.1083   13.9823   18.4964 C   0  0  0  0  0  0  0  0  0  0  0  0
   -7.9717   11.6443   15.3049 N   0  0  0  0  0  0  0  0  0  0  0  0
   -6.9608   12.4386   15.7983 C   0  0  0  0  0  0  0  0  0  0  0  0
  -11.1016   13.0886   16.5986 N   0  0  0  0  0  0  0  0  0  0  0  0
  -10.7302   11.0439   15.2910 N   0  0  0  0  0  0  0  0  0  0  0  0
   -7.1033   13.4963   16.6975 N   0  0  0  0  0  0  0  0  0  0  0  0
   -3.0553   10.1286   16.2635 P   0  0  0  0  0  5  0  0  0  0  0  0
   -0.5590    7.6333   18.3609 C   0  0  0  0  0  0  0  0  0  0  0  0
   -4.8283   14.5231   16.3262 O   0  0  0  0  0  0  0  0  0  0  0  0
    1.6756    7.6073   18.1469 P   0  0  0  0  0  4  0  0  0  0  0  0
   -4.2948    9.5558   16.0133 O   0  0  0  0  0  0  0  0  0  0  0  0
   -3.8409   13.8606   17.7439 C   0  0  0  0  0  0  0  0  0  0  0  0
    1.8011    6.3072   17.8195 O   0  0  0  0  0  0  0  0  0  0  0  0
   -3.1152    9.4345   17.8458 O   0  0  0  0  0  0  0  0  0  0  0  0
   -9.0671   12.2910   15.8250 C   0  0  0  0  0  0  0  0  0  0  0  0
   -4.9061   15.4749   19.1229 O   0  0  0  0  0  0  0  0  0  0  0  0
    0.2684   10.2086   16.6516 O   0  0  0  0  0  0  0  0  0  0  0  0
   -9.1233   14.2934   17.3596 N   0  0  0  0  0  0  0  0  0  0  0  0
   -1.3523    8.8582   16.0333 O   0  0  0  0  0  0  0  0  0  0  0  0
   -3.0514   11.4287   16.6483 O   0  0  0  0  0  0  0  0  0  0  0  0
   -2.5114   10.1636   14.6424 O   0  0  0  0  0  0  0  0  0  0  0  0
    2.0106    8.0735   18.9948 O   0  0  0  0  0  0  0  0  0  0  0  0
   -3.6643   13.7259   19.5059 O   0  0  0  0  0  0  0  0  0  0  0  0
   -3.1689   13.5567   16.6111 C   0  0  0  0  0  0  0  0  0  0  0  0
  -10.2766   14.2873   17.3652 C   0  0  0  0  0  0  0  0  0  0  0  0
    2.6797    8.0976   17.7103 O   0  0  0  0  0  1  0  0  0  0  0  0
   -0.5710    8.9654   16.9537 P   0  0  0  0  0  0  0  0  0  0  0  0
   -8.3787   13.6094   16.7761 C   0  0  0  0  0  0  0  0  0  0  0  0
  3  1  1  0
  5  4  2  0
  6  2  2  0
  7  2  1  0
  8  1  1  0
  8  5  1  0
 11  1  1  0
 12 10  1  0
 13  9  1  0
 14  3  1  0
 14 11  1  0
 15 12  1  0
 16  9  1  0
 17  2  1  0
 17  4  1  0
 18  3  1  0
 21  9  1  0
 22  9  1  0
 23  9  1  0
 24 12  1  0
 25 14  1  0
 26 14  1  0
 26 22  1  0
 27  6  1  0
 27 20  2  0
 28 12  1  0
 29 10  1  0
 29 19  1  0
 29 21  1  0
 30  8  1  0
 30 17  2  0
 30 20  1  0
M  RAD  2  12   2  28   2
M  END
>  <ID>  (1) 
conformer_0

$$$$
