
     RDKit          3D

 16 16  0  0  0  0  0  0  0  0999 V2000
   20.0286  -50.5979   51.8321 C   0  0  0  0  0  0  0  0  0  0  0  0
   24.7037  -49.3075   53.5808 C   0  0  0  0  0  0  0  0  0  0  0  0
   21.0380  -49.7877   52.0045 C   0  0  0  0  0  0  0  0  0  0  0  0
   18.3802  -49.1926   51.6921 C   0  0  0  0  0  0  0  0  0  0  0  0
   22.4735  -53.8210   52.1196 O   0  0  0  0  0  0  0  0  0  0  0  0
   22.3973  -50.1026   52.3745 C   0  0  0  0  0  0  0  0  0  0  0  0
   20.2613  -52.1361   51.7790 C   0  0  0  0  0  0  0  0  0  0  0  0
   18.8400  -50.1702   51.3241 O   0  0  0  0  0  0  0  0  0  0  0  0
   25.5820  -47.1831   54.2470 O   0  0  0  0  0  0  0  0  0  0  0  0
   23.1621  -54.2093   52.0937 C   0  0  0  0  0  0  0  0  0  0  0  0
   25.4866  -48.1709   53.8896 C   0  0  0  0  0  0  0  0  0  0  0  0
   26.3628  -48.6678   53.3796 O   0  0  0  0  0  0  0  0  0  0  0  0
   23.6436  -48.9964   52.6866 C   0  0  0  0  0  0  0  0  0  0  0  0
   19.6756  -53.3898   51.6310 O   0  0  0  0  0  0  0  0  0  0  0  0
   21.8234  -52.5005   52.0986 C   0  0  0  0  0  0  0  0  0  0  0  0
   22.5476  -51.4470   52.3630 C   0  0  0  0  0  0  0  0  0  0  0  0
  3  1  2  0
  6  3  1  0
  7  1  1  0
  8  1  1  0
  8  4  1  0
 10  5  1  0
 11  2  1  0
 11  9  2  0
 12 11  1  0
 13  2  1  0
 13  6  1  0
 14  7  1  0
 15  5  1  0
 15  7  2  0
 16  6  2  0
 16 15  1  0
M  END
>  <ID>  (1) 
conformer_0

$$$$
