
     RDKit          3D

 17 18  0  0  0  0  0  0  0  0999 V2000
   20.6949  -50.3300   52.1220 C   0  0  0  0  0  0  0  0  0  0  0  0
   19.7986  -51.1710   51.8378 C   0  0  0  0  0  0  0  0  0  0  0  0
   23.5295  -49.9242   52.7124 C   0  0  0  0  0  0  0  0  0  0  0  0
   18.5103  -49.5888   51.3820 C   0  0  0  0  0  0  0  0  0  0  0  0
   22.6162  -53.7737   51.6536 O   0  0  0  0  0  0  0  0  0  0  0  0
   20.4023  -52.4734   51.6988 C   0  0  0  0  0  0  0  0  0  0  0  0
   24.4730  -47.2859   53.8090 O   0  0  0  0  0  0  0  0  0  0  0  0
   23.7040  -54.3425   51.9132 C   0  0  0  0  0  0  0  0  0  0  0  0
   22.0910  -50.2781   52.3625 C   0  0  0  0  0  0  0  0  0  0  0  0
   17.9576  -50.3196   51.9284 O   0  0  0  0  0  0  0  0  0  0  0  0
   25.0725  -48.1461   53.7102 C   0  0  0  0  0  0  0  0  0  0  0  0
   24.4399  -49.3570   53.4431 C   0  0  0  0  0  0  0  0  0  0  0  0
   19.5959  -53.2542   51.3301 O   0  0  0  0  0  0  0  0  0  0  0  0
   26.4293  -48.1102   53.6519 O   0  0  0  0  0  0  0  0  0  0  0  0
   26.6387  -48.6583   53.7830 C   0  0  0  0  0  0  0  0  0  0  0  0
   21.8999  -52.6488   51.8952 C   0  0  0  0  0  0  0  0  0  0  0  0
   22.6180  -51.5290   52.1739 C   0  0  0  0  0  0  0  0  0  0  0  0
  2  1  2  0
  4  2  1  0
  6  2  1  0
  8  5  1  0
  9  1  1  0
  9  3  1  0
 10  4  1  0
 11  7  2  0
 12  3  1  0
 12 11  1  0
 13  6  1  0
 15 11  1  0
 15 14  1  0
 16  5  1  0
 16  6  2  0
 17  3  1  0
 17  9  2  0
 17 16  1  0
M  END
>  <ID>  (1) 
conformer_0

$$$$
