
     RDKit          3D

 16 18  0  0  0  0  0  0  0  0999 V2000
   22.5237  -50.2891   52.4056 C   0  0  0  0  0  0  0  0  0  0  0  0
   20.0872  -50.8398   51.7431 C   0  0  0  0  0  0  0  0  0  0  0  0
   23.9196  -49.9465   53.3642 C   0  0  0  0  0  0  0  0  0  0  0  0
   18.3490  -49.2849   51.4983 C   0  0  0  0  0  0  0  0  0  0  0  0
   20.4782  -52.1680   51.8537 C   0  0  0  0  0  0  0  0  0  0  0  0
   22.7561  -53.8733   52.2828 O   0  0  0  0  0  0  0  0  0  0  0  0
   22.6283  -51.5445   52.6138 C   0  0  0  0  0  3  0  0  0  0  0  0
   19.5641  -53.1646   51.4200 O   0  0  0  0  0  0  0  0  0  0  0  0
   24.6184  -47.4918   54.1167 O   0  0  0  0  0  0  0  0  0  0  0  0
   26.0581  -48.4737   53.2120 O   0  0  0  0  0  0  0  0  0  0  0  0
   24.7329  -48.2387   53.5032 C   0  0  0  0  0  0  0  0  0  0  0  0
   18.9566  -50.1335   51.2447 O   0  0  0  0  0  0  0  0  0  0  0  0
   23.7789  -54.2394   52.3485 C   0  0  0  0  0  0  0  0  0  0  0  0
   21.9902  -52.6606   52.2197 C   0  0  0  0  0  0  0  0  0  0  0  0
   21.2000  -49.8920   52.0324 C   0  0  0  0  0  0  0  0  0  0  0  0
   23.5991  -48.6950   52.3397 C   0  0  0  0  0  0  0  0  0  0  0  0
  3  1  1  0
  5  2  1  0
  7  1  1  0
  8  5  1  0
 11  3  1  0
 11  9  1  0
 11 10  1  0
 12  2  1  0
 12  4  1  0
 13  6  1  0
 14  5  2  0
 14  6  1  0
 14  7  1  0
 15  1  1  0
 15  2  2  0
 16  1  1  0
 16  3  1  0
 16 11  1  0
M  RAD  1   7   2
M  END
>  <ID>  (1) 
conformer_0

$$$$
