
     RDKit          3D

 16 16  0  0  0  0  0  0  0  0999 V2000
   20.1042  -50.9150   51.5758 C   0  0  0  0  0  0  0  0  0  0  0  0
   22.7566  -51.6297   52.3317 C   0  0  0  0  0  0  0  0  0  0  0  0
   24.4821  -49.4015   53.4193 C   0  0  0  0  0  0  0  0  0  0  0  0
   20.3868  -52.2928   51.6168 C   0  0  0  0  0  0  0  0  0  0  0  0
   19.6402  -53.3832   51.3723 O   0  0  0  0  0  0  0  0  0  0  0  0
   18.4023  -49.4441   51.7105 C   0  0  0  0  0  0  0  0  0  0  0  0
   26.9128  -48.6085   53.7683 O   0  0  0  0  0  0  0  0  0  0  0  0
   18.6124  -50.1748   51.1576 O   0  0  0  0  0  0  0  0  0  0  0  0
   22.3351  -53.9666   52.1054 O   0  0  0  0  0  0  0  0  0  0  0  0
   22.1802  -50.3961   52.3679 C   0  0  0  0  0  0  0  0  0  0  0  0
   25.6695  -48.4693   54.0401 C   0  0  0  0  0  0  0  0  0  0  0  0
   25.1999  -47.3531   54.3707 O   0  0  0  0  0  0  0  0  0  0  0  0
   23.3962  -49.2681   52.4534 C   0  0  0  0  0  0  0  0  0  0  0  0
   23.5223  -54.5875   52.1110 C   0  0  0  0  0  0  0  0  0  0  0  0
   21.7272  -52.6612   52.0408 C   0  0  0  0  0  0  0  0  0  0  0  0
   21.0485  -49.9480   51.8488 C   0  0  0  0  0  0  0  0  0  0  0  0
  4  1  2  0
  5  4  1  0
  8  1  1  0
  8  6  1  0
 10  2  1  0
 11  3  1  0
 11  7  1  0
 12 11  2  0
 13  3  2  3
 13 10  1  0
 14  9  1  0
 15  2  2  0
 15  4  1  0
 15  9  1  0
 16  1  1  0
 16 10  2  0
M  END
>  <ID>  (1) 
conformer_0

$$$$
