
     RDKit          3D

 16 16  0  0  0  0  0  0  0  0999 V2000
   20.1386  -50.9904   51.7342 C   0  0  0  0  0  0  0  0  0  0  0  0
   21.0193  -50.1974   52.2034 C   0  0  0  0  0  0  0  0  0  0  0  0
   22.9658  -49.0412   52.8475 C   0  0  0  0  0  0  0  0  0  0  0  0
   18.3881  -49.3689   51.5202 C   0  0  0  0  0  0  0  0  0  0  0  0
   22.3052  -50.4830   52.4214 C   0  0  0  0  0  0  0  0  0  0  0  0
   20.6075  -52.4537   51.8259 C   0  0  0  0  0  0  0  0  0  0  0  0
   18.9004  -50.4437   51.4060 O   0  0  0  0  0  0  0  0  0  0  0  0
   19.7049  -53.5311   51.5360 O   0  0  0  0  0  0  0  0  0  0  0  0
   25.2164  -48.5904   53.5812 C   0  0  0  0  0  0  0  0  0  0  0  0
   26.6549  -49.0247   53.6764 O   0  0  0  0  0  0  0  0  0  0  0  0
   25.1649  -47.6867   53.5572 O   0  0  0  0  0  0  0  0  0  0  0  0
   23.8417  -54.1410   52.4366 C   0  0  0  0  0  0  0  0  0  0  0  0
   22.8645  -51.7307   52.4698 C   0  0  0  0  0  0  0  0  0  0  0  0
   22.7061  -54.6339   52.2791 Br  0  0  0  0  0  0  0  0  0  0  0  0
   22.0163  -52.7975   52.2248 C   0  0  0  0  0  0  0  0  0  0  0  0
   24.2890  -49.6849   53.2206 C   0  0  0  0  0  0  0  0  0  0  0  0
  2  1  2  0
  5  2  1  0
  5  3  1  0
  6  1  1  0
  7  1  1  0
  7  4  1  0
  8  6  1  0
 10  9  1  0
 11  9  2  0
 13  5  2  0
 14 12  1  0
 15  6  2  0
 15 12  1  0
 15 13  1  0
 16  3  1  0
 16  9  1  0
M  END
>  <ID>  (1) 
conformer_0

$$$$
