
     RDKit          3D

 16 18  0  0  0  0  0  0  0  0999 V2000
   20.1615  -50.9280   51.7060 C   0  0  0  0  0  0  0  0  0  0  0  0
   21.1768  -50.0478   51.8594 C   0  0  0  0  0  0  0  0  0  0  0  0
   23.4479  -49.1455   52.0844 C   0  0  0  0  0  0  0  0  0  0  0  0
   18.5176  -49.3977   51.5213 C   0  0  0  0  0  0  0  0  0  0  0  0
   24.7864  -48.5938   53.3692 C   0  0  0  0  0  0  0  0  0  0  0  0
   20.6604  -52.4101   51.8788 C   0  0  0  0  0  0  0  0  0  0  0  0
   22.3988  -50.3339   52.3671 C   0  0  0  0  0  0  0  0  0  0  0  0
   19.0467  -50.4509   51.4476 O   0  0  0  0  0  0  0  0  0  0  0  0
   24.9163  -47.5538   54.0389 O   0  0  0  0  0  0  0  0  0  0  0  0
   23.1286  -54.7993   52.4571 C   0  0  0  0  0  0  0  0  0  0  0  0
   22.6102  -53.9215   52.3040 O   0  0  0  0  0  0  0  0  0  0  0  0
   20.0557  -53.5359   51.6958 O   0  0  0  0  0  0  0  0  0  0  0  0
   26.0868  -48.8386   53.4913 O   0  0  0  0  0  0  0  0  0  0  0  0
   22.8697  -51.6793   52.5908 C   0  0  0  0  0  3  0  0  0  0  0  0
   22.0212  -52.8042   52.3002 C   0  0  0  0  0  0  0  0  0  0  0  0
   23.2444  -48.9760   53.5077 C   0  0  0  0  0  0  0  0  0  0  0  0
  2  1  2  0
  5  3  1  0
  6  1  1  0
  7  2  1  0
  7  3  1  0
  8  1  1  0
  8  4  1  0
  9  5  1  0
 11 10  1  0
 12  6  1  0
 13  5  1  0
 14  7  1  0
 15  6  2  0
 15 11  1  0
 15 14  1  0
 16  3  1  0
 16  5  1  0
 16  7  1  0
M  RAD  1  14   2
M  END
>  <ID>  (1) 
conformer_0

$$$$
