
     RDKit          3D

 15 15  0  0  0  0  0  0  0  0999 V2000
   20.2658  -51.0520   51.6324 C   0  0  0  0  0  0  0  0  0  0  0  0
   21.5948  -50.2586   52.0506 C   0  0  0  0  0  0  0  0  0  0  0  0
   24.1538  -49.7569   53.2578 C   0  0  0  0  0  0  0  0  0  0  0  0
   18.5130  -49.4743   51.4295 C   0  0  0  0  0  0  0  0  0  0  0  0
   20.4644  -52.4785   51.6443 C   0  0  0  0  0  0  0  0  0  0  0  0
   24.8662  -47.5374   53.9002 O   0  0  0  0  0  0  0  0  0  0  0  0
   19.6157  -53.4253   51.2449 O   0  0  0  0  0  0  0  0  0  0  0  0
   25.1624  -48.6296   53.6790 C   0  0  0  0  0  0  0  0  0  0  0  0
   19.1378  -50.3994   51.3889 O   0  0  0  0  0  0  0  0  0  0  0  0
   26.4826  -48.8656   53.5278 O   0  0  0  0  0  0  0  0  0  0  0  0
   23.3171  -54.3629   52.3076 C   0  0  0  0  0  0  0  0  0  0  0  0
   22.4298  -53.5427   52.0621 O   0  0  0  0  0  0  0  0  0  0  0  0
   22.6160  -51.2302   52.4160 C   0  0  0  0  0  0  0  0  0  0  0  0
   23.1754  -49.2684   52.4659 C   0  0  0  0  0  0  0  0  0  0  0  0
   21.8629  -52.6710   52.0968 C   0  0  0  0  0  0  0  0  0  0  0  0
  2  1  2  0
  5  1  1  0
  7  5  1  0
  8  3  1  0
  8  6  2  0
  9  1  1  0
  9  4  1  0
 10  8  1  0
 12 11  1  0
 13  2  1  0
 14  2  1  0
 14  3  1  0
 15  5  1  0
 15 12  1  0
 15 13  2  0
M  END
>  <ID>  (1) 
conformer_0

$$$$
