
     RDKit          3D

 16 16  0  0  0  0  0  0  0  0999 V2000
   21.1055  -49.9569   52.3771 C   0  0  0  0  0  0  0  0  0  0  0  0
   20.2080  -50.7322   51.8104 C   0  0  0  0  0  0  0  0  0  0  0  0
   23.0687  -48.8087   52.5711 C   0  0  0  0  0  0  0  0  0  0  0  0
   20.2533  -52.1623   51.6247 C   0  0  0  0  0  0  0  0  0  0  0  0
   26.4455  -48.7562   53.5994 O   0  0  0  0  0  0  0  0  0  0  0  0
   22.2393  -53.7908   51.8549 O   0  0  0  0  0  0  0  0  0  0  0  0
   18.2802  -49.6681   51.5650 C   0  0  0  0  0  0  0  0  0  0  0  0
   24.7900  -47.1232   54.1236 O   0  0  0  0  0  0  0  0  0  0  0  0
   22.7669  -54.6864   52.6018 C   0  0  0  0  0  0  0  0  0  0  0  0
   18.8080  -50.9331   51.4567 O   0  0  0  0  0  0  0  0  0  0  0  0
   25.1691  -48.0924   53.6596 C   0  0  0  0  0  0  0  0  0  0  0  0
   22.5211  -50.3321   52.3087 C   0  0  0  0  0  0  0  0  0  0  0  0
   19.7238  -53.1463   51.7535 O   0  0  0  0  0  0  0  0  0  0  0  0
   24.1977  -49.1285   53.0400 C   0  0  0  0  0  0  0  0  0  0  0  0
   21.7495  -52.5753   52.0828 C   0  0  0  0  0  0  0  0  0  0  0  0
   22.7069  -51.7160   52.3830 C   0  0  0  0  0  0  0  0  0  0  0  0
  2  1  2  0
  4  2  1  0
  9  6  1  0
 10  2  1  0
 10  7  1  0
 11  5  1  0
 11  8  2  0
 12  1  1  0
 12  3  1  0
 13  4  1  0
 14  3  1  0
 14 11  1  0
 15  4  2  0
 15  6  1  0
 16 12  2  0
 16 15  1  0
M  END
>  <ID>  (1) 
conformer_0

$$$$
