
     RDKit          3D

 16 16  0  0  0  0  0  0  0  0999 V2000
   21.2456  -49.8151   51.7795 C   0  0  0  0  0  0  0  0  0  0  0  0
   20.2079  -50.9621   51.7477 C   0  0  0  0  0  0  0  0  0  0  0  0
   24.4941  -49.3150   53.1715 C   0  0  0  0  0  0  0  0  0  0  0  0
   20.4683  -52.3240   51.8685 C   0  0  0  0  0  0  0  0  0  0  0  0
   21.9545  -53.9480   52.4536 O   0  0  0  0  0  0  0  0  0  0  0  0
   18.4807  -49.3946   51.4503 C   0  0  0  0  0  0  0  0  0  0  0  0
   26.4795  -48.3801   53.7323 O   0  0  0  0  0  0  0  0  0  0  0  0
   24.2891  -47.1568   53.7533 O   0  0  0  0  0  0  0  0  0  0  0  0
   19.1004  -50.5525   51.4147 O   0  0  0  0  0  0  0  0  0  0  0  0
   25.1122  -48.1653   53.6611 C   0  0  0  0  0  0  0  0  0  0  0  0
   22.2494  -50.2861   52.4987 C   0  0  0  0  0  0  0  0  0  0  0  0
   22.9949  -54.6471   52.2569 C   0  0  0  0  0  0  0  0  0  0  0  0
   19.4914  -53.2070   51.3568 O   0  0  0  0  0  0  0  0  0  0  0  0
   23.5759  -49.6416   52.6410 C   0  0  0  0  0  0  0  0  0  0  0  0
   21.7796  -52.5249   52.2424 C   0  0  0  0  0  0  0  0  0  0  0  0
   22.8494  -51.5600   52.4253 C   0  0  0  0  0  0  0  0  0  0  0  0
  2  1  1  0
  4  2  1  0
  9  2  1  0
  9  6  1  0
 10  3  1  0
 10  7  1  0
 10  8  2  0
 11  1  1  0
 12  5  1  0
 13  4  1  0
 14  3  2  0
 14 11  2  0
 15  4  1  0
 15  5  1  0
 16 11  1  0
 16 15  1  0
M  END
>  <ID>  (1) 
conformer_0

$$$$
