
     RDKit          3D

 15 15  0  0  0  0  0  0  0  0999 V2000
   22.5422  -50.1930   52.2471 C   0  0  0  0  0  0  0  0  0  0  0  0
   20.9899  -52.4147   52.0391 C   0  0  1  0  0  0  0  0  0  0  0  0
   23.9574  -49.2734   52.8624 C   0  0  0  0  0  3  0  0  0  0  0  0
   18.4794  -49.6799   51.5375 C   0  0  0  0  0  0  0  0  0  0  0  0
   21.2557  -50.0115   51.7671 C   0  0  0  0  0  0  0  0  0  0  0  0
   20.3900  -50.9869   51.5727 C   0  0  0  0  0  0  0  0  0  0  0  0
   25.2053  -48.3794   53.6536 C   0  0  0  0  0  0  0  0  0  0  0  0
   19.1732  -50.6804   51.0757 O   0  0  0  0  0  0  0  0  0  0  0  0
   25.0519  -47.3766   53.8983 O   0  0  0  0  0  0  0  0  0  0  0  0
   26.3276  -48.8838   53.6779 O   0  0  0  0  0  0  0  0  0  0  0  0
   22.8221  -53.9480   52.1506 O   0  0  0  0  0  0  0  0  0  0  0  0
   20.2337  -53.5238   51.9797 O   0  0  0  0  0  0  0  0  0  0  0  0
   23.6573  -54.3484   52.2804 C   0  0  0  0  0  0  0  0  0  0  0  0
   22.9767  -51.4353   52.6489 C   0  0  0  0  0  0  0  0  0  0  0  0
   22.2820  -52.5747   52.2407 C   0  0  2  0  0  0  0  0  0  0  0  0
  3  1  2  3
  5  1  1  0
  6  2  1  0
  6  5  2  0
  7  3  1  0
  8  4  1  0
  8  6  1  0
  9  7  2  0
 10  7  1  0
  2 12  1  6
 13 11  1  0
 14  1  1  0
 15  2  1  0
 15 11  1  1
 15 14  1  0
M  RAD  1   3   2
M  END
>  <ID>  (1) 
conformer_0

$$$$
