
     RDKit          3D

 16 17  0  0  0  0  0  0  0  0999 V2000
   22.6307  -51.6202   52.3898 C   0  0  0  0  0  0  0  0  0  0  0  0
   20.0804  -50.8325   51.7728 C   0  0  0  0  0  0  0  0  0  0  0  0
   23.3210  -48.9033   52.8513 C   0  0  0  0  0  0  0  0  0  0  0  0
   19.6821  -53.4742   51.4857 O   0  0  0  0  0  0  0  0  0  0  0  0
   22.3939  -50.3569   52.3494 C   0  0  0  0  0  0  0  0  0  0  0  0
   24.9871  -47.4738   53.8146 O   0  0  0  0  0  0  0  0  0  0  0  0
   18.2846  -49.7781   51.4904 C   0  0  0  0  0  0  0  0  0  0  0  0
   20.3200  -52.3046   51.6691 C   0  0  0  0  0  0  0  0  0  0  0  0
   18.8448  -50.5543   51.4937 O   0  0  0  0  0  0  0  0  0  0  0  0
   24.8038  -48.4235   53.5785 C   0  0  0  0  0  0  0  0  0  0  0  0
   26.1461  -48.9102   53.5932 O   0  0  0  0  0  0  0  0  0  0  0  0
   23.0989  -53.5368   52.1557 O   0  0  0  0  0  0  0  0  0  0  0  0
   23.3461  -54.3616   52.4459 C   0  0  0  0  0  0  0  0  0  0  0  0
   24.2953  -50.2493   53.3088 C   0  0  0  0  0  0  0  0  0  0  0  0
   21.0356  -49.9738   52.0045 C   0  0  0  0  0  0  0  0  0  0  0  0
   21.9551  -52.6576   52.0689 C   0  0  0  0  0  0  0  0  0  0  0  0
  5  1  2  0
  5  3  1  0
  8  2  1  0
  8  4  1  0
  9  2  1  0
  9  7  1  0
 10  3  1  0
 10  6  1  0
 11 10  1  0
 13 12  1  0
 14  3  1  0
 14 10  1  0
 15  2  2  0
 15  5  1  0
 16  1  1  0
 16  8  2  0
 16 12  1  0
M  END
>  <ID>  (1) 
conformer_0

$$$$
