
     RDKit          3D

 16 17  0  0  0  0  0  0  0  0999 V2000
   22.7968  -51.6311   52.5263 C   0  0  0  0  0  0  0  0  0  0  0  0
   20.6107  -52.1562   52.0041 C   0  0  0  0  0  0  0  0  0  0  0  0
   23.9496  -49.9620   53.1663 C   0  0  0  0  0  0  0  0  0  0  0  0
   18.2527  -49.4556   51.5745 C   0  0  0  0  0  0  0  0  0  0  0  0
   21.9680  -52.6629   52.1935 C   0  0  0  0  0  0  0  0  0  0  0  0
   22.4335  -53.9313   52.2836 O   0  0  0  0  0  0  0  0  0  0  0  0
   18.8911  -50.3630   51.1160 O   0  0  0  0  0  0  0  0  0  0  0  0
   24.6481  -47.4884   54.0374 O   0  0  0  0  0  0  0  0  0  0  0  0
   26.4990  -48.5008   53.5633 O   0  0  0  0  0  0  0  0  0  0  0  0
   23.5937  -54.5902   52.1756 C   0  0  0  0  0  0  0  0  0  0  0  0
   25.1842  -48.3072   53.5687 C   0  0  0  0  0  0  0  0  0  0  0  0
   22.6410  -50.2312   52.2398 C   0  0  0  0  0  0  0  0  0  0  0  0
   19.5636  -53.0518   52.0668 O   0  0  0  0  0  0  0  0  0  0  0  0
   20.2542  -50.8345   51.7126 C   0  0  0  0  0  0  0  0  0  0  0  0
   21.2852  -49.8834   51.8090 C   0  0  0  0  0  3  0  0  0  0  0  0
   23.8682  -48.8323   52.3526 C   0  0  0  0  0  0  0  0  0  0  0  0
  5  1  2  0
  5  2  1  0
  6  5  1  0
  7  4  1  0
 10  6  1  0
 11  8  2  0
 11  9  1  0
 12  1  1  0
 12  3  1  0
 13  2  1  0
 14  2  2  0
 14  7  1  0
 15 12  1  0
 15 14  1  0
 16  3  1  0
 16 11  1  0
 16 12  1  0
M  RAD  1  15   2
M  END
>  <ID>  (1) 
conformer_0

$$$$
