
     RDKit          3D

 16 16  0  0  0  0  0  0  0  0999 V2000
   23.0049  -51.6948   52.5892 C   0  0  0  0  0  0  0  0  0  0  0  0
   20.3654  -50.8070   51.7663 C   0  0  0  0  0  0  0  0  0  0  0  0
   23.1932  -48.8044   52.8486 C   0  0  0  0  0  0  0  0  0  0  0  0
   20.4654  -52.1447   51.9145 C   0  0  0  0  0  0  0  0  0  0  0  0
   22.5747  -53.9378   52.1667 O   0  0  0  0  0  0  0  0  0  0  0  0
   25.5384  -47.1886   54.1470 O   0  0  0  0  0  0  0  0  0  0  0  0
   25.8093  -48.2157   53.8129 C   0  0  0  0  0  0  0  0  0  0  0  0
   18.3356  -49.5452   51.4151 C   0  0  0  0  0  0  0  0  0  0  0  0
   26.8626  -48.7022   53.6838 O   0  0  0  0  0  0  0  0  0  0  0  0
   19.6126  -53.3143   51.7021 O   0  0  0  0  0  0  0  0  0  0  0  0
   18.7108  -50.2730   51.2596 O   0  0  0  0  0  0  0  0  0  0  0  0
   22.6603  -50.3678   52.5587 C   0  0  0  0  0  0  0  0  0  0  0  0
   23.1896  -54.6167   52.3030 C   0  0  0  0  0  0  0  0  0  0  0  0
   21.9081  -52.6247   52.1864 C   0  0  0  0  0  0  0  0  0  0  0  0
   24.3844  -48.8277   53.2349 C   0  0  0  0  0  0  0  0  0  0  0  0
   21.4418  -49.8920   52.0054 C   0  0  0  0  0  0  0  0  0  0  0  0
  4  2  1  0
  7  6  2  0
  9  7  1  0
 10  4  1  0
 11  2  1  0
 11  8  1  0
 12  1  2  0
 12  3  1  0
 13  5  1  0
 14  1  1  0
 14  4  2  0
 14  5  1  0
 15  3  1  0
 15  7  1  0
 16  2  2  0
 16 12  1  0
M  END
>  <ID>  (1) 
conformer_0

$$$$
