
     RDKit          3D

 16 16  0  0  0  0  0  0  0  0999 V2000
   20.0629  -50.6804   51.7059 C   0  0  0  0  0  0  0  0  0  0  0  0
   24.5444  -49.3901   53.5703 C   0  0  0  0  0  0  0  0  0  0  0  0
   22.3167  -50.3236   52.4306 C   0  0  0  0  0  0  0  0  0  0  0  0
   20.4594  -51.9927   51.6985 C   0  0  0  0  0  0  0  0  0  0  0  0
   18.3488  -49.2244   51.4980 C   0  0  0  0  0  0  0  0  0  0  0  0
   18.8412  -50.1759   51.2119 O   0  0  0  0  0  0  0  0  0  0  0  0
   23.2909  -54.5305   52.1976 C   0  0  0  0  0  0  0  0  0  0  0  0
   22.3842  -53.7463   51.9659 O   0  0  0  0  0  0  0  0  0  0  0  0
   22.7876  -51.5354   52.5752 C   0  0  0  0  0  0  0  0  0  0  0  0
   26.7290  -48.5404   53.4493 O   0  0  0  0  0  0  0  0  0  0  0  0
   25.4766  -48.3371   53.7366 C   0  0  0  0  0  0  0  0  0  0  0  0
   25.0657  -47.3191   53.9398 O   0  0  0  0  0  0  0  0  0  0  0  0
   19.3862  -52.7636   51.2905 O   0  0  0  0  0  0  0  0  0  0  0  0
   23.3368  -49.0709   52.8604 C   0  0  0  0  0  0  0  0  0  0  0  0
   21.8609  -52.4874   52.0574 C   0  0  0  0  0  0  0  0  0  0  0  0
   21.0967  -49.7305   52.1778 C   0  0  0  0  0  0  0  0  0  0  0  0
  4  1  2  0
  6  1  1  0
  6  5  1  0
  8  7  1  0
  9  3  1  0
 11  2  1  0
 11 10  1  0
 12 11  2  0
 13  4  1  0
 14  2  2  3
 14  3  1  0
 15  4  1  0
 15  8  1  0
 15  9  2  0
 16  1  1  0
 16  3  2  0
M  END
>  <ID>  (1) 
conformer_0

$$$$
