
     RDKit          3D

 15 15  0  0  0  0  0  0  0  0999 V2000
   22.4656  -50.3888   52.3885 C   0  0  0  0  0  0  0  0  0  0  0  0
   20.1236  -50.9169   51.7454 C   0  0  0  0  0  0  0  0  0  0  0  0
   24.5306  -49.4369   53.5392 C   0  0  0  0  0  0  0  0  0  0  0  0
   20.3091  -52.3098   51.8145 C   0  0  0  0  0  0  0  0  0  0  0  0
   21.2349  -50.0641   51.8684 C   0  0  0  0  0  0  0  0  0  0  0  0
   26.6828  -48.5029   53.5744 O   0  0  0  0  0  0  0  0  0  0  0  0
   18.8474  -50.3536   51.1918 O   0  0  0  0  0  0  0  0  0  0  0  0
   18.7120  -49.2571   51.4155 C   0  0  0  0  0  0  0  0  0  0  0  0
   22.8938  -54.7479   52.0228 C   0  0  0  0  0  0  0  0  0  0  0  0
   24.7979  -47.2037   54.0312 O   0  0  0  0  0  0  0  0  0  0  0  0
   25.3389  -48.3447   53.8530 C   0  0  0  0  0  0  0  0  0  0  0  0
   19.7867  -53.6076   51.6514 O   0  0  0  0  0  0  0  0  0  0  0  0
   23.3422  -49.1846   52.4760 C   0  0  0  0  0  0  0  0  0  0  0  0
   21.7319  -52.8118   52.1466 C   0  0  0  0  0  0  0  0  0  0  0  0
   22.7945  -51.6967   52.3879 C   0  0  0  0  0  0  0  0  0  0  0  0
  4  2  2  0
  5  1  2  0
  5  2  1  0
  7  2  1  0
  8  7  1  0
 11  3  1  0
 11  6  1  0
 11 10  2  0
 12  4  1  0
 13  1  1  0
 13  3  1  0
 14  4  1  0
 14  9  1  0
 15  1  1  0
 15 14  2  0
M  END
>  <ID>  (1) 
conformer_0

$$$$
