
     RDKit          3D

 12 12  0  0  0  0  0  0  0  0999 V2000
   22.9959  -48.7178   52.1935 C   0  0  0  0  0  0  0  0  0  0  0  0
   20.2425  -50.9083   51.7117 C   0  0  0  0  0  0  0  0  0  0  0  0
   21.7016  -50.3067   52.0894 C   0  0  0  0  0  0  0  0  0  0  0  0
   24.1253  -49.3846   53.1574 C   0  0  0  0  0  0  0  0  0  0  0  0
   20.4727  -52.3788   51.8215 C   0  0  0  0  0  0  0  0  0  0  0  0
   19.2418  -50.2152   51.4821 O   0  0  0  0  0  0  0  0  0  0  0  0
   18.6271  -49.2076   51.1921 C   0  0  0  0  0  0  0  0  0  0  0  0
   19.8674  -53.7924   51.7585 O   0  0  0  0  0  0  0  0  0  0  0  0
   22.5459  -51.3072   52.4091 C   0  0  0  0  0  0  0  0  0  0  0  0
   25.8684  -49.1362   53.9952 C   0  0  0  0  0  0  0  0  0  0  0  0
   21.7088  -52.8774   52.2489 C   0  0  0  0  0  0  0  0  0  0  0  0
   23.2420  -54.4435   52.0857 Br  0  0  0  0  0  0  0  0  0  0  0  0
  3  1  1  0
  3  2  2  0
  4  1  1  0
  5  2  1  0
  6  2  1  0
  7  6  1  0
  8  5  1  0
  9  3  1  0
 10  4  1  0
 11  5  1  0
 11  9  2  0
 12 11  1  0
M  END
>  <ID>  (1) 
conformer_0

$$$$
