
     RDKit          3D

 17 18  0  0  0  0  0  0  0  0999 V2000
   21.0253  -49.8274   51.9045 C   0  0  0  0  0  0  0  0  0  0  0  0
   20.1192  -50.7990   51.7579 C   0  0  0  0  0  0  0  0  0  0  0  0
   23.3467  -48.9823   52.5020 C   0  0  0  0  0  0  0  0  0  0  0  0
   20.4885  -52.2240   51.6571 C   0  0  0  0  0  0  0  0  0  0  0  0
   24.3644  -47.2991   53.9222 O   0  0  0  0  0  0  0  0  0  0  0  0
   22.3630  -53.7759   51.7729 O   0  0  0  0  0  0  0  0  0  0  0  0
   18.3446  -49.6931   51.4202 C   0  0  0  0  0  0  0  0  0  0  0  0
   23.1888  -54.3786   52.1035 C   0  0  0  0  0  0  0  0  0  0  0  0
   19.6819  -53.3786   51.3633 O   0  0  0  0  0  0  0  0  0  0  0  0
   22.3521  -50.2075   52.2207 C   0  0  0  0  0  0  0  0  0  0  0  0
   24.8076  -48.2840   53.7061 C   0  0  0  0  0  0  0  0  0  0  0  0
   18.8498  -50.4415   51.5250 O   0  0  0  0  0  0  0  0  0  0  0  0
   23.9386  -50.3017   53.2089 C   0  0  0  0  0  0  0  0  0  0  0  0
   21.8392  -52.5080   51.9216 C   0  0  0  0  0  0  0  0  0  0  0  0
   26.1056  -48.2904   53.8553 O   0  0  0  0  0  0  0  0  0  0  0  0
   22.7637  -51.4641   52.1677 C   0  0  0  0  0  3  0  0  0  0  0  0
   25.6910  -49.1278   53.9610 C   0  0  0  0  0  0  0  0  0  0  0  0
  2  1  2  0
  4  2  1  0
  8  6  1  0
  9  4  1  0
 10  1  1  0
 10  3  1  0
 11  3  1  0
 11  5  2  0
 12  2  1  0
 12  7  1  0
 13  3  1  0
 13 10  1  0
 14  4  2  0
 14  6  1  0
 16 10  1  0
 16 14  1  0
 17 11  1  0
 17 15  1  0
M  RAD  1  16   2
M  END
>  <ID>  (1) 
conformer_0

$$$$
