
     RDKit          3D

 15 15  0  0  0  0  0  0  0  0999 V2000
   20.1005  -50.9084   51.6715 C   0  0  0  0  0  0  0  0  0  0  0  0
   22.7637  -51.4737   52.4640 C   0  0  0  0  0  0  0  0  0  0  0  0
   23.6102  -49.2084   52.6217 C   0  0  0  0  0  0  0  0  0  0  0  0
   18.5609  -49.0841   51.6681 C   0  0  0  0  0  0  0  0  0  0  0  0
   20.5121  -52.2354   51.8389 C   0  0  0  0  0  0  0  0  0  0  0  0
   18.9255  -50.1547   51.1596 O   0  0  0  0  0  0  0  0  0  0  0  0
   22.3894  -50.1850   52.2345 C   0  0  0  0  0  0  0  0  0  0  0  0
   19.6004  -53.4275   51.4106 O   0  0  0  0  0  0  0  0  0  0  0  0
   25.4119  -48.5046   53.7644 C   0  0  0  0  0  0  0  0  0  0  0  0
   26.3568  -48.2696   54.0293 O   0  0  0  0  0  0  0  0  0  0  0  0
   24.5732  -47.2253   53.8461 O   0  0  0  0  0  0  0  0  0  0  0  0
   22.8569  -54.3189   52.0042 Br  0  0  0  0  0  0  0  0  0  0  0  0
   21.8810  -52.5885   52.1173 C   0  0  0  0  0  0  0  0  0  0  0  0
   24.4328  -49.6279   53.5125 C   0  0  0  0  0  0  0  0  0  0  0  0
   21.1638  -49.8896   51.7472 C   0  0  0  0  0  0  0  0  0  0  0  0
  5  1  2  0
  6  1  1  0
  6  4  1  0
  7  2  1  0
  7  3  1  0
  8  5  1  0
 10  9  1  0
 11  9  2  0
 13  2  2  0
 13  5  1  0
 13 12  1  0
 14  3  1  0
 14  9  1  0
 15  1  1  0
 15  7  2  0
M  END
>  <ID>  (1) 
conformer_0

$$$$
