
     RDKit          3D

 16 16  0  0  0  0  0  0  0  0999 V2000
   20.1931  -50.7457   51.6839 C   0  0  0  0  0  0  0  0  0  0  0  0
   22.6399  -51.6776   52.4185 C   0  0  0  0  0  0  0  0  0  0  0  0
   23.2052  -49.1459   52.7786 C   0  0  0  0  0  0  0  0  0  0  0  0
   20.4500  -52.1296   51.7486 C   0  0  0  0  0  0  0  0  0  0  0  0
   18.3019  -49.3817   51.5049 C   0  0  0  0  0  0  0  0  0  0  0  0
   22.4998  -54.0239   52.1306 O   0  0  0  0  0  0  0  0  0  0  0  0
   18.9440  -50.3372   51.2593 O   0  0  0  0  0  0  0  0  0  0  0  0
   22.4114  -50.4203   52.2841 C   0  0  0  0  0  0  0  0  0  0  0  0
   19.6448  -53.5322   51.6416 O   0  0  0  0  0  0  0  0  0  0  0  0
   25.2492  -48.4179   53.6810 C   0  0  0  0  0  0  0  0  0  0  0  0
   26.5484  -48.3294   53.4597 O   0  0  0  0  0  0  0  0  0  0  0  0
   24.0516  -47.2430   53.6214 O   0  0  0  0  0  0  0  0  0  0  0  0
   23.5824  -54.3156   51.9041 C   0  0  0  0  0  0  0  0  0  0  0  0
   21.6673  -52.7684   52.1226 C   0  0  0  0  0  0  0  0  0  0  0  0
   24.3516  -49.4756   53.3210 C   0  0  0  0  0  0  0  0  0  0  0  0
   21.2566  -49.6858   51.6505 C   0  0  0  0  0  0  0  0  0  0  0  0
  4  1  2  0
  7  1  1  0
  7  5  1  0
  8  2  1  0
  8  3  1  0
  9  4  1  0
 11 10  1  0
 12 10  2  0
 13  6  1  0
 14  2  2  0
 14  4  1  0
 14  6  1  0
 15  3  1  0
 15 10  1  0
 16  1  1  0
 16  8  2  0
M  END
>  <ID>  (1) 
conformer_0

$$$$
