
     RDKit          3D

 16 16  0  0  0  0  0  0  0  0999 V2000
   20.1314  -51.0697   51.7567 C   0  0  0  0  0  0  0  0  0  0  0  0
   22.3401  -50.3739   52.2671 C   0  0  0  0  0  0  0  0  0  0  0  0
   24.3444  -49.4994   53.3421 C   0  0  0  0  0  0  0  0  0  0  0  0
   20.7147  -52.3743   51.7400 C   0  0  0  0  0  0  0  0  0  0  0  0
   19.0268  -50.7209   51.6715 O   0  0  0  0  0  0  0  0  0  0  0  0
   22.3981  -54.2033   52.0874 O   0  0  0  0  0  0  0  0  0  0  0  0
   24.5167  -47.0251   53.9384 O   0  0  0  0  0  0  0  0  0  0  0  0
   18.3154  -49.5669   51.4061 C   0  0  0  0  0  0  0  0  0  0  0  0
   23.0071  -51.6193   52.4763 C   0  0  0  0  0  0  0  0  0  0  0  0
   26.3743  -48.1518   53.8277 O   0  0  0  0  0  0  0  0  0  0  0  0
   25.1230  -48.1318   53.8445 C   0  0  0  0  0  0  0  0  0  0  0  0
   23.2539  -54.7424   51.9970 C   0  0  0  0  0  0  0  0  0  0  0  0
   19.8441  -53.4004   51.3872 O   0  0  0  0  0  0  0  0  0  0  0  0
   23.2310  -49.0628   52.6435 C   0  0  0  0  0  0  0  0  0  0  0  0
   22.0833  -52.6665   52.1171 C   0  0  0  0  0  0  0  0  0  0  0  0
   21.0912  -49.9988   51.9635 C   0  0  0  0  0  0  0  0  0  0  0  0
  4  1  2  0
  5  1  1  0
  8  5  1  0
  9  2  1  0
 11  3  1  0
 11  7  2  0
 11 10  1  0
 12  6  1  0
 13  4  1  0
 14  2  1  0
 14  3  1  0
 15  4  1  0
 15  6  1  0
 15  9  2  0
 16  1  1  0
 16  2  2  0
M  END
>  <ID>  (1) 
conformer_0

$$$$
