
     RDKit          3D

 16 16  0  0  0  0  0  0  0  0999 V2000
   23.3138  -49.3224   52.5671 C   0  0  0  0  0  0  0  0  0  0  0  0
   22.6359  -51.8371   52.1529 C   0  0  0  0  0  0  0  0  0  0  0  0
   20.0977  -50.9720   51.6879 C   0  0  0  0  0  0  0  0  0  0  0  0
   20.2854  -52.3250   51.8189 C   0  0  0  0  0  0  0  0  0  0  0  0
   18.5128  -49.1824   51.3765 C   0  0  0  0  0  0  0  0  0  0  0  0
   18.8986  -50.4419   51.3712 O   0  0  0  0  0  0  0  0  0  0  0  0
   25.3322  -48.3835   53.7546 C   0  0  0  0  0  0  0  0  0  0  0  0
   21.9598  -54.2240   52.2503 O   0  0  0  0  0  0  0  0  0  0  0  0
   25.5453  -47.1229   54.1204 O   0  0  0  0  0  0  0  0  0  0  0  0
   19.4100  -53.6333   51.6878 O   0  0  0  0  0  0  0  0  0  0  0  0
   22.4252  -50.3870   52.2180 C   0  0  0  0  0  0  0  0  0  0  0  0
   26.4862  -48.8219   53.7861 O   0  0  0  0  0  0  0  0  0  0  0  0
   24.2039  -48.9328   53.2499 C   0  0  0  0  0  3  0  0  0  0  0  0
   21.6596  -52.7627   52.0807 C   0  0  0  0  0  0  0  0  0  0  0  0
   22.7173  -54.8925   52.2312 C   0  0  0  0  0  0  0  0  0  0  0  0
   21.1997  -50.1020   51.6321 C   0  0  0  0  0  0  0  0  0  0  0  0
  4  3  1  0
  6  3  1  0
  6  5  1  0
  9  7  2  0
 10  4  1  0
 11  1  1  0
 11  2  2  0
 12  7  1  0
 13  1  2  3
 13  7  1  0
 14  2  1  0
 14  4  2  0
 14  8  1  0
 15  8  1  0
 16  3  2  0
 16 11  1  0
M  RAD  1  13   2
M  END
>  <ID>  (1) 
conformer_0

$$$$
