
     RDKit          3D

 15 15  0  0  0  0  0  0  0  0999 V2000
   19.9640  -50.8243   51.5975 C   0  0  0  0  0  0  0  0  0  0  0  0
   22.3380  -50.7964   52.3072 C   0  0  0  0  0  0  0  0  0  0  0  0
   23.3546  -49.2839   52.5721 C   0  0  0  0  0  0  0  0  0  0  0  0
   20.3616  -52.1081   51.5785 C   0  0  0  0  0  0  0  0  0  0  0  0
   18.0967  -49.2442   51.4704 C   0  0  0  0  0  0  0  0  0  0  0  0
   24.9097  -46.9916   54.0265 O   0  0  0  0  0  0  0  0  0  0  0  0
   22.8553  -53.5144   52.1178 O   0  0  0  0  0  0  0  0  0  0  0  0
   18.6752  -50.2042   51.1399 O   0  0  0  0  0  0  0  0  0  0  0  0
   25.5180  -47.9847   53.9092 C   0  0  0  0  0  0  0  0  0  0  0  0
   26.7183  -48.1677   53.7666 O   0  0  0  0  0  0  0  0  0  0  0  0
   21.2979  -49.9391   52.0819 C   0  0  0  0  0  0  0  0  0  0  0  0
   23.3915  -54.3980   52.3601 C   0  0  0  0  0  0  0  0  0  0  0  0
   19.1628  -52.6572   51.6777 O   0  0  0  0  0  0  0  0  0  0  0  0
   21.8567  -52.4123   52.0526 C   0  0  0  0  0  0  0  0  0  0  0  0
   24.5103  -49.0605   53.4610 C   0  0  0  0  0  0  0  0  0  0  0  0
  3  2  1  0
  4  1  2  0
  8  1  1  0
  8  5  1  0
  9  6  2  0
 10  9  1  0
 11  1  1  0
 11  2  1  0
 12  7  1  0
 13  4  1  0
 14  2  2  0
 14  4  1  0
 14  7  1  0
 15  3  2  3
 15  9  1  0
M  END
>  <ID>  (1) 
conformer_0

$$$$
