
     RDKit          3D

 16 16  0  0  0  0  0  0  0  0999 V2000
   20.1866  -50.6827   51.7393 C   0  0  0  0  0  0  0  0  0  0  0  0
   23.4341  -48.9218   52.4346 C   0  0  0  0  0  0  0  0  0  0  0  0
   22.5544  -50.4785   52.1805 C   0  0  0  0  0  0  0  0  0  0  0  0
   20.3745  -51.9977   51.9229 C   0  0  0  0  0  0  0  0  0  0  0  0
   18.3213  -49.1986   51.4341 C   0  0  0  0  0  0  0  0  0  0  0  0
   22.3934  -53.9979   52.1201 O   0  0  0  0  0  0  0  0  0  0  0  0
   25.4113  -48.3068   53.9993 C   0  0  0  0  0  0  0  0  0  0  0  0
   23.6255  -54.4819   52.1543 C   0  0  0  0  0  0  0  0  0  0  0  0
   26.5938  -48.4464   53.6778 O   0  0  0  0  0  0  0  0  0  0  0  0
   19.5242  -53.2038   51.8343 O   0  0  0  0  0  0  0  0  0  0  0  0
   22.4208  -51.6647   52.4995 C   0  0  0  0  0  0  0  0  0  0  0  0
   25.0959  -47.3779   54.3855 O   0  0  0  0  0  0  0  0  0  0  0  0
   18.7973  -50.3895   51.3303 O   0  0  0  0  0  0  0  0  0  0  0  0
   24.2749  -49.3633   53.3581 C   0  0  0  0  0  0  0  0  0  0  0  0
   21.5273  -52.8315   52.2014 C   0  0  0  0  0  0  0  0  0  0  0  0
   21.3792  -49.6542   51.8341 C   0  0  0  0  0  0  0  0  0  0  0  0
  3  2  1  0
  4  1  2  0
  8  6  1  0
  9  7  1  0
 10  4  1  0
 11  3  1  0
 12  7  2  0
 13  1  1  0
 13  5  1  0
 14  2  1  0
 14  7  1  0
 15  4  1  0
 15  6  1  0
 15 11  2  0
 16  1  1  0
 16  3  2  0
M  END
>  <ID>  (1) 
conformer_0

$$$$
