
     RDKit          3D

 16 16  0  0  0  0  0  0  0  0999 V2000
   21.7819  -52.6825   52.2054 C   0  0  0  0  0  0  0  0  0  0  0  0
   22.2437  -50.3408   52.2913 C   0  0  0  0  0  0  0  0  0  0  0  0
   23.1402  -48.7858   52.4783 C   0  0  0  0  0  0  0  0  0  0  0  0
   18.5111  -49.2896   51.5559 C   0  0  0  0  0  0  0  0  0  0  0  0
   20.4756  -52.3211   51.8183 C   0  0  0  0  0  0  0  0  0  0  0  0
   21.1845  -49.8948   51.7096 C   0  0  0  0  0  0  0  0  0  0  0  0
   26.4281  -48.7742   53.6127 O   0  0  0  0  0  0  0  0  0  0  0  0
   22.2063  -54.0782   52.3194 O   0  0  0  0  0  0  0  0  0  0  0  0
   18.9039  -50.6141   51.3781 O   0  0  0  0  0  0  0  0  0  0  0  0
   24.7958  -47.1486   54.1497 O   0  0  0  0  0  0  0  0  0  0  0  0
   19.6660  -53.7339   51.4382 O   0  0  0  0  0  0  0  0  0  0  0  0
   25.0875  -48.1678   53.7212 C   0  0  0  0  0  0  0  0  0  0  0  0
   23.1940  -54.7086   52.1629 C   0  0  0  0  0  0  0  0  0  0  0  0
   24.1922  -48.9595   53.1418 C   0  0  0  0  0  0  0  0  0  0  0  0
   20.1042  -50.9425   51.7271 C   0  0  0  0  0  0  0  0  0  0  0  0
   22.8226  -51.5490   52.5325 C   0  0  0  0  0  0  0  0  0  0  0  0
  3  2  1  0
  5  1  2  0
  6  2  1  0
  8  1  1  0
  9  4  1  0
 11  5  1  0
 12  7  1  0
 12 10  2  0
 13  8  1  0
 14  3  1  0
 14 12  1  0
 15  5  1  0
 15  6  2  0
 15  9  1  0
 16  1  1  0
 16  2  2  0
M  END
>  <ID>  (1) 
conformer_0

$$$$
