
     RDKit          3D

 13 13  0  0  0  0  0  0  0  0999 V2000
   20.2182  -50.8371   51.7591 C   0  0  0  0  0  0  0  0  0  0  0  0
   21.7902  -50.1829   52.3271 C   0  0  0  0  0  0  0  0  0  0  0  0
   23.7312  -49.3059   52.8322 C   0  0  0  0  0  3  0  0  0  0  0  0
   20.3997  -52.1557   51.8122 C   0  0  0  0  0  0  0  0  0  0  0  0
   24.4702  -47.0459   53.8505 O   0  0  0  0  0  0  0  0  0  0  0  0
   25.0241  -48.1001   53.5250 C   0  0  0  0  0  0  0  0  0  0  0  0
   22.7610  -53.6815   52.3801 O   0  0  0  0  0  0  0  0  0  0  0  0
   26.4134  -48.2470   53.5075 O   0  0  0  0  0  0  0  0  0  0  0  0
   23.5070  -54.4863   52.2819 C   0  0  0  0  0  0  0  0  0  0  0  0
   21.8499  -52.6190   52.2402 C   0  0  1  0  0  0  0  0  0  0  0  0
   18.1122  -49.7594   51.4366 C   0  0  0  0  0  0  0  0  0  0  0  0
   22.7107  -51.1724   52.5699 C   0  0  0  0  0  0  0  0  0  0  0  0
   19.3486  -52.9084   51.5832 O   0  0  0  0  0  0  0  0  0  0  0  0
  2  1  1  0
  4  1  2  0
  6  3  1  0
  6  5  2  0
  8  6  1  0
  9  7  1  0
 10  4  1  0
 10  7  1  6
 11  1  1  0
 12  2  1  0
 12  3  2  3
 12 10  1  0
 13  4  1  0
M  RAD  1   3   2
M  END
>  <ID>  (1) 
conformer_0

$$$$
