
     RDKit          3D

 16 16  0  0  0  0  0  0  0  0999 V2000
   22.3901  -50.2410   52.2910 C   0  0  0  0  0  0  0  0  0  0  0  0
   20.0751  -50.7781   51.7726 C   0  0  0  0  0  0  0  0  0  0  0  0
   23.0780  -49.2393   52.3256 C   0  0  0  0  0  0  0  0  0  0  0  0
   20.4623  -52.2180   51.8831 C   0  0  0  0  0  0  0  0  0  0  0  0
   18.3053  -49.3556   51.3285 C   0  0  0  0  0  0  0  0  0  0  0  0
   26.4348  -48.6133   53.6745 O   0  0  0  0  0  0  0  0  0  0  0  0
   24.7082  -47.1386   53.7666 O   0  0  0  0  0  0  0  0  0  0  0  0
   22.5693  -53.8494   52.1927 O   0  0  0  0  0  0  0  0  0  0  0  0
   25.0344  -48.1792   53.6454 C   0  0  0  0  0  0  0  0  0  0  0  0
   23.1868  -54.6472   52.1440 C   0  0  0  0  0  0  0  0  0  0  0  0
   19.0688  -50.0539   51.4934 O   0  0  0  0  0  0  0  0  0  0  0  0
   22.7564  -51.5446   52.5188 C   0  0  0  0  0  0  0  0  0  0  0  0
   19.6684  -53.4167   51.8617 O   0  0  0  0  0  0  0  0  0  0  0  0
   21.9479  -52.6378   52.2117 C   0  0  0  0  0  0  0  0  0  0  0  0
   21.1350  -50.0761   52.0803 C   0  0  0  0  0  0  0  0  0  0  0  0
   24.2042  -49.0550   53.1840 C   0  0  0  0  0  0  0  0  0  0  0  0
  3  1  1  0
  4  2  1  0
  9  6  1  0
  9  7  2  0
 10  8  1  0
 11  2  1  0
 11  5  1  0
 12  1  2  0
 13  4  1  0
 14  4  2  0
 14  8  1  0
 14 12  1  0
 15  1  1  0
 15  2  2  0
 16  3  2  3
 16  9  1  0
M  END
>  <ID>  (1) 
conformer_0

$$$$
