
     RDKit          3D

 13 13  0  0  0  0  0  0  0  0999 V2000
   22.6648  -51.2316   52.4278 C   0  0  0  0  0  0  0  0  0  0  0  0
   20.1689  -50.9659   51.7852 C   0  0  0  0  0  0  0  0  0  0  0  0
   24.1989  -48.9338   53.3725 C   0  0  0  0  0  0  0  0  0  0  0  0
   20.3888  -52.3110   51.8321 C   0  0  0  0  0  0  0  0  0  0  0  0
   18.6683  -49.3631   51.4021 C   0  0  0  0  0  0  0  0  0  0  0  0
   24.2832  -46.9535   53.9334 O   0  0  0  0  0  0  0  0  0  0  0  0
   18.6889  -50.4470   51.4650 O   0  0  0  0  0  0  0  0  0  0  0  0
   25.9649  -48.3659   53.6827 O   0  0  0  0  0  0  0  0  0  0  0  0
   21.6486  -50.1886   52.2068 C   0  0  0  0  0  0  0  0  0  0  0  0
   24.7501  -48.0009   53.7593 C   0  0  0  0  0  0  0  0  0  0  0  0
   19.3195  -53.0550   51.4367 O   0  0  0  0  0  0  0  0  0  0  0  0
   21.9564  -52.7514   52.0347 C   0  0  0  0  0  0  0  0  0  0  0  0
   23.0705  -48.9697   52.2081 C   0  0  0  0  0  0  0  0  0  0  0  0
  4  2  2  0
  7  2  1  0
  7  5  1  0
  9  1  2  0
  9  2  1  0
 10  3  1  0
 10  6  2  0
 10  8  1  0
 11  4  1  0
 12  1  1  0
 12  4  1  0
 13  3  1  0
 13  9  1  0
M  END
>  <ID>  (1) 
conformer_0

$$$$
