
     RDKit          3D

 13 13  0  0  0  0  0  0  0  0999 V2000
   20.2196  -51.3393   51.8160 C   0  0  2  0  0  0  0  0  0  0  0  0
   24.2152  -49.1634   53.0951 C   0  0  0  0  0  0  0  0  0  0  0  0
   21.6837  -50.1316   52.1347 C   0  0  0  0  0  0  0  0  0  0  0  0
   21.2665  -52.5343   52.0372 C   0  0  0  0  0  0  0  0  0  0  0  0
   21.9202  -54.0952   52.2037 O   0  0  0  0  0  0  0  0  0  0  0  0
   18.8057  -50.6035   51.3279 O   0  0  0  0  0  0  0  0  0  0  0  0
   18.2839  -49.7126   51.6642 C   0  0  0  0  0  0  0  0  0  0  0  0
   24.9734  -47.1987   54.1045 O   0  0  0  0  0  0  0  0  0  0  0  0
   25.3237  -48.2864   53.6927 C   0  0  0  0  0  0  0  0  0  0  0  0
   22.8305  -54.7710   52.1970 C   0  0  0  0  0  0  0  0  0  0  0  0
   26.4257  -48.5294   53.8081 O   0  0  0  0  0  0  0  0  0  0  0  0
   22.5723  -51.1351   52.3039 C   0  0  0  0  0  0  0  0  0  0  0  0
   22.9463  -48.9131   52.6874 C   0  0  0  0  0  0  0  0  0  0  0  0
  3  1  1  0
  4  1  1  0
  5  4  1  0
  1  6  1  6
  7  6  1  0
  9  2  1  0
  9  8  2  0
 10  5  1  0
 11  9  1  0
 12  3  2  0
 12  4  1  0
 13  2  2  3
 13  3  1  0
M  END
>  <ID>  (1) 
conformer_0

$$$$
