
     RDKit          3D

 17 18  0  0  0  0  0  0  0  0999 V2000
   22.6006  -50.3420   52.3681 C   0  0  0  0  0  0  0  0  0  0  0  0
   20.3260  -50.9430   51.7962 C   0  0  0  0  0  0  0  0  0  0  0  0
   20.7213  -52.3479   52.0982 C   0  0  0  0  0  0  0  0  0  0  0  0
   24.2108  -49.7440   53.2608 C   0  0  0  0  0  2  0  0  0  0  0  0
   18.5200  -50.0539   51.1855 C   0  0  0  0  0  0  0  0  0  0  0  0
   22.7420  -53.6670   52.4024 O   0  0  0  0  0  0  0  0  0  0  0  0
   22.9737  -51.5749   52.6336 C   0  0  0  0  0  0  0  0  0  0  0  0
   24.9549  -47.6742   53.9429 O   0  0  0  0  0  0  0  0  0  0  0  0
   25.1898  -48.8523   53.7652 C   0  0  0  0  0  0  0  0  0  0  0  0
   26.3565  -49.0702   53.5966 O   0  0  0  0  0  0  0  0  0  0  0  0
   19.8027  -53.2857   52.1473 O   0  0  0  0  0  0  0  0  0  0  0  0
   23.8094  -54.3390   52.1371 C   0  0  0  0  0  0  0  0  0  0  0  0
   19.1353  -49.3546   50.5391 O   0  0  0  0  0  0  0  0  0  0  0  0
   19.5593  -50.8987   51.4786 N   0  0  0  0  0  0  0  0  0  0  0  0
   22.1533  -52.6264   52.3216 C   0  0  0  0  0  0  0  0  0  0  0  0
   21.3519  -49.9697   52.0211 C   0  0  0  0  0  0  0  0  0  0  0  0
   22.8603  -48.9082   52.1499 C   0  0  0  0  0  0  0  0  0  0  0  0
  3  2  1  0
  4  1  1  0
  7  1  1  0
  9  4  1  0
  9  8  2  0
 10  9  1  0
 11  3  1  0
 12  6  1  0
 13  5  1  0
 14  2  1  0
 14  5  1  0
 15  3  1  0
 15  6  1  0
 15  7  1  0
 16  1  1  0
 16  2  1  0
 17  1  1  0
 17 16  1  0
M  RAD  1   4   3
M  END
>  <ID>  (1) 
conformer_0

$$$$
