
     RDKit          3D

 16 16  0  0  0  0  0  0  0  0999 V2000
   22.1838  -50.2032   52.1674 C   0  0  0  0  0  0  0  0  0  0  0  0
   23.3334  -49.4972   52.6795 C   0  0  0  0  0  0  0  0  0  0  0  0
   20.1945  -51.1562   51.7551 C   0  0  0  0  0  0  0  0  0  0  0  0
   18.2850  -49.3548   51.5215 C   0  0  0  0  0  0  0  0  0  0  0  0
   25.6061  -46.9470   54.2247 O   0  0  0  0  0  0  0  0  0  0  0  0
   22.5127  -54.1672   52.5405 O   0  0  0  0  0  0  0  0  0  0  0  0
   19.0221  -50.3919   51.4195 O   0  0  0  0  0  0  0  0  0  0  0  0
   20.7545  -52.8341   51.9034 C   0  0  0  0  0  0  0  0  0  0  0  0
   25.5083  -48.0680   53.8516 C   0  0  0  0  0  0  0  0  0  0  0  0
   26.8479  -48.5623   53.5917 O   0  0  0  0  0  0  0  0  0  0  0  0
   19.6065  -53.8602   51.4962 O   0  0  0  0  0  0  0  0  0  0  0  0
   22.8817  -51.6557   52.6164 C   0  0  0  0  0  0  0  0  0  0  0  0
   23.5999  -54.7585   52.3162 C   0  0  0  0  0  0  0  0  0  0  0  0
   24.4518  -49.0355   53.2686 C   0  0  0  0  0  0  0  0  0  0  0  0
   22.2316  -52.8578   52.3130 C   0  0  0  0  0  0  0  0  0  0  0  0
   20.7347  -51.0683   51.7896 C   0  0  0  0  0  0  0  0  0  0  0  0
  2  1  1  0
  7  3  1  0
  7  4  1  0
  9  5  2  0
 10  9  1  0
 11  8  1  0
 12  1  2  0
 13  6  1  0
 14  2  3  0
 14  9  1  0
 15  6  1  0
 15  8  2  0
 15 12  1  0
 16  1  1  0
 16  3  1  0
 16  8  1  0
M  END
>  <ID>  (1) 
conformer_0

$$$$
