
     RDKit          3D

 14 14  0  0  0  0  0  0  0  0999 V2000
   22.4744  -50.4404   52.4319 C   0  0  0  0  0  0  0  0  0  0  0  0
   20.1169  -50.6808   51.8107 C   0  0  0  0  0  0  0  0  0  0  0  0
   23.8757  -49.0592   52.9730 C   0  0  0  0  0  0  0  0  0  0  0  0
   22.3203  -54.0118   52.2029 O   0  0  0  0  0  0  0  0  0  0  0  0
   20.2570  -51.9708   51.6177 C   0  0  0  0  0  0  0  0  0  0  0  0
   22.7241  -51.6268   52.5486 C   0  0  0  0  0  0  0  0  0  0  0  0
   23.3921  -54.3231   51.9170 C   0  0  0  0  0  0  0  0  0  0  0  0
   25.3435  -48.2593   53.8619 C   0  0  0  0  0  0  0  0  0  0  0  0
   26.4444  -48.1432   53.8394 O   0  0  0  0  0  0  0  0  0  0  0  0
   18.6667  -50.3129   51.5756 O   0  0  0  0  0  0  0  0  0  0  0  0
   18.6252  -49.2520   51.3169 C   0  0  0  0  0  0  0  0  0  0  0  0
   19.4845  -53.0425   51.0875 O   0  0  0  0  0  0  0  0  0  0  0  0
   21.7131  -52.5717   52.0358 C   0  0  0  0  0  0  0  0  0  0  0  0
   21.2407  -49.8171   52.1957 C   0  0  0  0  0  0  0  0  0  0  0  0
  3  1  2  0
  5  2  2  0
  6  1  1  0
  7  4  1  0
  8  3  2  0
  9  8  1  0
 10  2  1  0
 11 10  1  0
 12  5  1  0
 13  4  1  0
 13  5  1  0
 13  6  2  0
 14  1  1  0
 14  2  1  0
M  END
>  <ID>  (1) 
conformer_0

$$$$
