
     RDKit          3D

 16 16  0  0  0  0  0  0  0  0999 V2000
   20.1928  -50.8679   51.6266 C   0  0  0  0  0  0  0  0  0  0  0  0
   21.1453  -49.9059   51.8488 C   0  0  0  0  0  0  0  0  0  0  0  0
   24.3301  -48.8090   53.2810 C   0  0  0  0  0  0  0  0  0  0  0  0
   20.2457  -52.2157   51.5841 C   0  0  0  0  0  0  0  0  0  0  0  0
   22.1653  -53.9832   52.2978 O   0  0  0  0  0  0  0  0  0  0  0  0
   18.4370  -49.3511   51.5237 C   0  0  0  0  0  0  0  0  0  0  0  0
   26.3998  -48.5031   53.8885 O   0  0  0  0  0  0  0  0  0  0  0  0
   18.7908  -50.4459   51.3307 O   0  0  0  0  0  0  0  0  0  0  0  0
   19.4657  -53.4778   51.3075 O   0  0  0  0  0  0  0  0  0  0  0  0
   24.7014  -47.0015   54.2187 O   0  0  0  0  0  1  0  0  0  0  0  0
   25.2018  -48.1198   53.8651 C   0  0  0  0  0  0  0  0  0  0  0  0
   22.3979  -50.2761   52.3245 C   0  0  0  0  0  0  0  0  0  0  0  0
   23.1307  -54.2811   52.3377 C   0  0  0  0  0  0  0  0  0  0  0  0
   21.6806  -52.5632   52.0444 C   0  0  0  0  0  0  0  0  0  0  0  0
   23.3316  -49.1109   52.4249 C   0  0  0  0  0  0  0  0  0  0  0  0
   22.6934  -51.6332   52.1933 C   0  0  0  0  0  0  0  0  0  0  0  0
  2  1  2  0
  4  1  1  0
  8  1  1  0
  8  6  1  0
  9  4  1  0
 11  3  2  0
 11  7  1  0
 11 10  1  0
 12  2  1  0
 13  5  1  0
 14  4  2  0
 14  5  1  0
 15  3  2  0
 15 12  1  0
 16 12  2  0
 16 14  1  0
M  RAD  1  10   2
M  END
>  <ID>  (1) 
conformer_0

$$$$
