
     RDKit          3D

 14 14  0  0  0  0  0  0  0  0999 V2000
   22.9742  -51.7029   52.5553 C   0  0  0  0  0  0  0  0  0  0  0  0
   20.2231  -51.0268   51.8547 C   0  0  0  0  0  0  0  0  0  0  0  0
   23.3615  -49.0284   52.8055 C   0  0  0  0  0  0  0  0  0  0  0  0
   18.4682  -49.6887   51.4421 C   0  0  0  0  0  0  0  0  0  0  0  0
   22.4250  -50.3998   52.4456 C   0  0  0  0  0  0  0  0  0  0  0  0
   20.6812  -52.3852   51.7946 C   0  0  0  0  0  0  0  0  0  0  0  0
   26.5478  -48.8695   53.9016 O   0  0  0  0  0  0  0  0  0  0  0  0
   25.2211  -48.5442   53.7633 C   0  0  0  0  0  0  0  0  0  0  0  0
   24.9310  -47.5771   54.0009 O   0  0  0  0  0  0  0  0  0  0  0  0
   19.1905  -50.7147   51.3045 O   0  0  0  0  0  0  0  0  0  0  0  0
   19.5579  -53.0815   51.4067 O   0  0  0  0  0  0  0  0  0  0  0  0
   22.1825  -52.6406   52.1388 C   0  0  0  0  0  0  0  0  0  0  0  0
   21.1596  -50.0725   52.1708 C   0  0  0  0  0  0  0  0  0  0  0  0
   24.3612  -49.8841   53.2802 C   0  0  0  0  0  0  0  0  0  0  0  0
  5  1  2  0
  5  3  1  0
  6  2  1  0
  8  7  1  0
  9  8  2  0
 10  2  1  0
 10  4  1  0
 11  6  1  0
 12  1  1  0
 12  6  2  0
 13  2  2  0
 13  5  1  0
 14  3  1  0
 14  8  1  0
M  END
>  <ID>  (1) 
conformer_0

$$$$
