
     RDKit          3D

 16 16  0  0  0  0  0  0  0  0999 V2000
   22.7538  -51.6691   52.3026 C   0  0  0  0  0  0  0  0  0  0  0  0
   20.1666  -50.6673   51.7436 C   0  0  0  0  0  0  0  0  0  0  0  0
   23.0035  -48.8832   52.4511 C   0  0  0  0  0  0  0  0  0  0  0  0
   22.1532  -54.0614   52.4701 O   0  0  0  0  0  0  0  0  0  0  0  0
   18.3367  -49.5045   51.5662 C   0  0  0  0  0  0  0  0  0  0  0  0
   18.7843  -50.5200   51.3947 O   0  0  0  0  0  0  0  0  0  0  0  0
   22.4378  -50.3898   52.2567 C   0  0  0  0  0  0  0  0  0  0  0  0
   23.2020  -54.5125   52.1273 C   0  0  0  0  0  0  0  0  0  0  0  0
   19.7819  -53.4427   51.3615 O   0  0  0  0  0  0  0  0  0  0  0  0
   26.2443  -48.5839   53.6469 O   0  0  0  0  0  0  0  0  0  0  0  0
   24.8812  -47.2866   54.1192 O   0  0  0  0  0  0  0  0  0  0  0  0
   20.3561  -52.0832   51.8461 C   0  0  0  0  0  0  0  0  0  0  0  0
   25.1152  -48.2697   53.8611 C   0  0  0  0  0  0  0  0  0  0  0  0
   24.1951  -49.3123   53.3693 C   0  0  0  0  0  0  0  0  0  0  0  0
   21.1903  -49.8734   52.0083 C   0  0  0  0  0  0  0  0  0  0  0  0
   21.8020  -52.6845   52.1445 C   0  0  0  0  0  0  0  0  0  0  0  0
  6  2  1  0
  6  5  1  0
  7  1  2  0
  7  3  1  0
  8  4  1  0
 12  2  1  0
 12  9  1  0
 13 10  1  0
 13 11  2  0
 14  3  1  0
 14 13  1  0
 15  2  2  0
 15  7  1  0
 16  1  1  0
 16  4  1  0
 16 12  2  0
M  END
>  <ID>  (1) 
conformer_0

$$$$
