
     RDKit          3D

 16 16  0  0  0  0  0  0  0  0999 V2000
   20.9575  -50.0682   51.9129 C   0  0  0  0  0  0  0  0  0  0  0  0
   20.0918  -51.0636   51.5583 C   0  0  0  0  0  0  0  0  0  0  0  0
   23.0243  -49.2363   52.6206 C   0  0  0  0  0  0  0  0  0  0  0  0
   20.6023  -52.3711   51.6288 C   0  0  0  0  0  0  0  0  0  0  0  0
   25.0183  -48.1923   53.6866 C   0  0  0  0  0  0  0  0  0  0  0  0
   24.9805  -47.0596   54.0985 O   0  0  0  0  0  0  0  0  0  0  0  0
   22.3992  -53.8226   52.2774 O   0  0  0  0  0  0  0  0  0  0  0  0
   26.3672  -48.7166   53.8327 O   0  0  0  0  0  0  0  0  0  0  0  0
   22.2650  -50.2424   52.3320 C   0  0  0  0  0  0  0  0  0  0  0  0
   19.6757  -53.4777   51.3882 O   0  0  0  0  0  0  0  0  0  0  0  0
   18.2272  -49.6532   51.5027 C   0  0  0  0  0  0  0  0  0  0  0  0
   23.2837  -54.6424   52.5861 C   0  0  0  0  0  0  0  0  0  0  0  0
   18.9645  -50.4013   51.2254 O   0  0  0  0  0  0  0  0  0  0  0  0
   21.9379  -52.6134   52.1295 C   0  0  0  0  0  0  0  0  0  0  0  0
   24.2697  -49.0883   53.1541 C   0  0  0  0  0  0  0  0  0  0  0  0
   22.8171  -51.4752   52.3905 C   0  0  0  0  0  0  0  0  0  0  0  0
  2  1  2  0
  4  2  1  0
  6  5  2  0
  8  5  1  0
  9  1  1  0
  9  3  1  0
 10  4  1  0
 12  7  1  0
 13  2  1  0
 13 11  1  0
 14  4  2  0
 14  7  1  0
 15  3  2  3
 15  5  1  0
 16  9  2  0
 16 14  1  0
M  END
>  <ID>  (1) 
conformer_0

$$$$
