
     RDKit          3D

 16 16  0  0  0  0  0  0  0  0999 V2000
   20.0665  -50.7637   51.7432 C   0  0  0  0  0  0  0  0  0  0  0  0
   21.0883  -49.8617   52.0664 C   0  0  0  0  0  0  0  0  0  0  0  0
   23.2323  -48.9092   52.3326 C   0  0  0  0  0  0  0  0  0  0  0  0
   18.3672  -49.3234   51.5450 C   0  0  0  0  0  0  0  0  0  0  0  0
   22.3211  -50.1415   52.3508 C   0  0  0  0  0  0  0  0  0  0  0  0
   20.5647  -52.1192   51.8653 C   0  0  0  0  0  0  0  0  0  0  0  0
   23.2909  -54.2244   52.0518 C   0  0  0  0  0  0  0  0  0  0  0  0
   24.5834  -47.3827   54.0543 O   0  0  0  0  0  0  0  0  0  0  0  0
   18.8943  -50.2620   51.0846 O   0  0  0  0  0  0  0  0  0  0  0  0
   22.4945  -53.6104   51.7465 O   0  0  0  0  0  0  0  0  0  0  0  0
   26.3474  -48.7104   53.7307 O   0  0  0  0  0  0  0  0  0  0  0  0
   25.0615  -48.3736   53.7399 C   0  0  0  0  0  0  0  0  0  0  0  0
   19.5448  -52.9336   51.5772 O   0  0  0  0  0  0  0  0  0  0  0  0
   22.0281  -52.4114   52.1310 C   0  0  0  0  0  0  0  0  0  0  0  0
   22.8345  -51.3775   52.5958 C   0  0  0  0  0  0  0  0  0  0  0  0
   24.2994  -49.4061   53.1839 C   0  0  0  0  0  0  0  0  0  0  0  0
  2  1  2  0
  5  2  1  0
  5  3  1  0
  6  1  1  0
  9  1  1  0
  9  4  1  0
 10  7  1  0
 12  8  2  0
 12 11  1  0
 13  6  1  0
 14  6  2  0
 14 10  1  0
 15  5  2  0
 15 14  1  0
 16  3  1  0
 16 12  1  0
M  END
>  <ID>  (1) 
conformer_0

$$$$
