
     RDKit          3D

 16 16  0  0  0  0  0  0  0  0999 V2000
   20.1040  -50.4902   51.6012 C   0  0  0  0  0  0  0  0  0  0  0  0
   22.2511  -50.2312   52.4156 C   0  0  0  0  0  0  0  0  0  0  0  0
   24.5249  -49.1681   53.4034 C   0  0  0  0  0  0  0  0  0  0  0  0
   20.4145  -51.8004   51.6966 C   0  0  0  0  0  0  0  0  0  0  0  0
   22.2821  -54.0896   52.4053 O   0  0  0  0  0  0  0  0  0  0  0  0
   21.0378  -49.5916   52.1136 C   0  0  0  0  0  0  0  0  0  0  0  0
   23.6129  -54.1920   52.2042 C   0  0  0  0  0  0  0  0  0  0  0  0
   18.7278  -50.4120   51.1690 O   0  0  0  0  0  0  0  0  0  0  0  0
   26.4188  -48.8174   53.6425 O   0  0  0  0  0  0  0  0  0  0  0  0
   18.3890  -49.2026   51.1062 C   0  0  0  0  0  0  0  0  0  0  0  0
   25.1917  -48.2155   53.7151 C   0  0  0  0  0  0  0  0  0  0  0  0
   24.9077  -47.2941   53.9999 O   0  0  0  0  0  0  0  0  0  0  0  0
   20.1533  -53.3428   51.4757 O   0  0  0  0  0  0  0  0  0  0  0  0
   21.7738  -52.5354   52.1408 C   0  0  0  0  0  0  0  0  0  0  0  0
   22.7263  -51.3660   52.4745 C   0  0  0  0  0  0  0  0  0  0  0  0
   23.1723  -49.3619   52.7550 C   0  0  0  0  0  0  0  0  0  0  0  0
  4  1  2  0
  6  1  1  0
  6  2  2  0
  7  5  1  0
  8  1  1  0
 10  8  1  0
 11  3  1  0
 11  9  1  0
 12 11  2  0
 13  4  1  0
 14  4  1  0
 14  5  1  0
 15  2  1  0
 15 14  2  0
 16  2  1  0
 16  3  2  3
M  END
>  <ID>  (1) 
conformer_0

$$$$
