
     RDKit          3D

 11 11  0  0  0  0  0  0  0  0999 V2000
   23.3946  -49.1863   52.6667 C   0  0  0  0  0  0  0  0  0  0  0  0
   20.1288  -50.8675   51.5914 C   0  0  0  0  0  0  0  0  0  0  0  0
   21.6054  -50.0736   51.9111 C   0  0  0  0  0  0  0  0  0  0  0  0
   20.5258  -52.1583   51.7013 C   0  0  0  0  0  0  0  0  0  0  0  0
   19.7004  -53.5870   51.4725 O   0  0  0  0  0  0  0  0  0  0  0  0
   24.9504  -47.2750   53.9259 O   0  0  0  0  0  0  0  0  0  0  0  0
   25.3214  -48.1562   53.7523 C   0  0  0  0  0  0  0  0  0  0  0  0
   22.5627  -51.0024   52.3398 C   0  0  0  0  0  0  0  0  0  0  0  0
   24.7581  -49.3976   53.4961 C   0  0  0  0  0  0  0  0  0  0  0  0
   21.8414  -52.5870   52.1521 C   0  0  0  0  0  0  0  0  0  0  0  0
   22.7801  -54.5125   52.3451 Br  0  0  0  0  0  0  0  0  0  0  0  0
  3  2  2  0
  4  2  1  0
  5  4  1  0
  7  6  2  0
  8  1  1  0
  8  3  1  0
  9  1  1  0
  9  7  1  0
 10  4  1  0
 10  8  2  0
 11 10  1  0
M  END
>  <ID>  (1) 
conformer_0

$$$$
