
     RDKit          3D

 16 16  0  0  0  0  0  0  0  0999 V2000
   19.9958  -50.9897   51.7564 C   0  0  0  0  0  0  0  0  0  0  0  0
   21.0776  -49.9473   51.8499 C   0  0  0  0  0  0  0  0  0  0  0  0
   23.5318  -49.2837   52.5655 C   0  0  0  0  0  0  0  0  0  0  0  0
   22.3116  -50.3754   52.2815 C   0  0  0  0  0  0  0  0  0  0  0  0
   18.1136  -49.4831   51.4941 C   0  0  0  0  0  0  0  0  0  0  0  0
   20.5334  -52.1838   51.7590 C   0  0  0  0  0  0  0  0  0  0  0  0
   21.9825  -53.9284   52.2299 O   0  0  0  0  0  0  0  0  0  0  0  0
   18.4388  -50.4624   51.6914 O   0  0  0  0  0  0  0  0  0  0  0  0
   26.8852  -48.4677   53.7725 C   0  0  0  0  0  0  0  0  0  0  0  0
   22.8188  -54.8988   52.2772 C   0  0  0  0  0  0  0  0  0  0  0  0
   24.4922  -47.1723   53.4647 O   0  0  0  0  0  0  0  0  0  0  0  0
   25.1756  -47.9714   53.6808 C   0  0  0  0  0  0  0  0  0  0  0  0
   19.3470  -52.7700   51.8797 O   0  0  0  0  0  0  0  0  0  0  0  0
   22.9574  -51.6093   52.5413 C   0  0  0  0  0  0  0  0  0  0  0  0
   24.5802  -49.0904   53.4977 C   0  0  0  0  0  0  0  0  0  0  0  0
   21.8223  -52.6714   52.1656 C   0  0  0  0  0  0  0  0  0  0  0  0
  2  1  2  0
  4  2  1  0
  4  3  1  0
  6  1  1  0
  8  1  1  0
  8  5  1  0
 10  7  1  0
 12  9  1  0
 12 11  2  0
 13  6  1  0
 14  4  2  0
 15  3  2  3
 15 12  1  0
 16  6  2  0
 16  7  1  0
 16 14  1  0
M  END
>  <ID>  (1) 
conformer_0

$$$$
