
     RDKit          3D

 14 14  0  0  0  0  0  0  0  0999 V2000
   20.0660  -50.7280   51.6982 C   0  0  0  0  0  0  0  0  0  0  0  0
   21.5946  -49.8975   51.9782 C   0  0  0  0  0  0  0  0  0  0  0  0
   23.6066  -49.3429   53.0428 C   0  0  0  0  0  3  0  0  0  0  0  0
   20.3355  -51.9362   51.9235 C   0  0  2  0  0  0  0  0  0  0  0  0
   22.5397  -53.7058   52.1655 O   0  0  0  0  0  0  0  0  0  0  0  0
   24.7970  -47.3630   53.8696 O   0  0  0  0  0  0  0  0  0  0  0  0
   25.0600  -48.4024   53.7019 C   0  0  0  0  0  0  0  0  0  0  0  0
   23.3670  -54.6255   52.0042 C   0  0  0  0  0  0  0  0  0  0  0  0
   26.4301  -48.6794   53.7543 O   0  0  0  0  0  0  0  0  0  0  0  0
   22.6027  -50.9410   52.3407 C   0  0  0  0  0  0  0  0  0  0  0  0
   18.3535  -49.4059   51.3546 C   0  0  0  0  0  0  0  0  0  0  0  0
   19.1608  -52.3698   51.9550 O   0  0  0  0  0  0  0  0  0  0  0  0
   21.7205  -52.4872   52.1862 C   0  0  1  0  0  0  0  0  0  0  0  0
   18.8712  -50.2071   51.2304 O   0  0  0  0  0  0  0  0  0  0  0  0
  2  1  2  0
  4  1  1  0
  7  3  1  0
  7  6  2  0
  8  5  1  0
  9  7  1  0
 10  2  1  0
 10  3  2  3
  4 12  1  1
 13  4  1  0
 13  5  1  6
 13 10  1  0
 14  1  1  0
 14 11  1  0
M  RAD  1   3   2
M  END
>  <ID>  (1) 
conformer_0

$$$$
