
     RDKit          3D

 16 16  0  0  0  0  0  0  0  0999 V2000
   22.5418  -50.1858   52.2746 C   0  0  0  0  0  0  0  0  0  0  0  0
   20.1379  -50.8359   51.7690 C   0  0  0  0  0  0  0  0  0  0  0  0
   23.2244  -48.8059   51.7755 C   0  0  0  0  0  0  0  0  0  0  0  0
   22.9002  -51.5449   52.6127 C   0  0  0  0  0  0  0  0  0  0  0  0
   22.2914  -53.8135   52.1007 O   0  0  0  0  0  0  0  0  0  0  0  0
   18.2771  -49.5425   51.5379 C   0  0  0  0  0  0  0  0  0  0  0  0
   20.5919  -52.1094   51.9485 C   0  0  0  0  0  0  0  0  0  0  0  0
   24.7354  -47.3783   53.8105 O   0  0  0  0  0  0  0  0  0  0  0  0
   23.3903  -54.5534   52.3193 C   0  0  0  0  0  0  0  0  0  0  0  0
   18.7884  -50.3590   51.3735 O   0  0  0  0  0  0  0  0  0  0  0  0
   25.0739  -48.4634   53.5839 C   0  0  0  0  0  0  0  0  0  0  0  0
   26.3611  -48.6740   53.5977 O   0  0  0  0  0  0  0  0  0  0  0  0
   19.4471  -52.6947   51.9278 O   0  0  0  0  0  0  0  0  0  0  0  0
   24.3720  -49.3499   53.3054 C   0  0  0  0  0  0  0  0  0  0  0  0
   21.2097  -49.9138   51.9494 C   0  0  0  0  0  0  0  0  0  0  0  0
   22.1466  -52.5897   52.1877 C   0  0  0  0  0  0  0  0  0  0  0  0
  3  1  1  0
  4  1  2  0
  7  2  1  0
  9  5  1  0
 10  2  1  0
 10  6  1  0
 11  8  2  0
 12 11  1  0
 13  7  1  0
 14  3  1  0
 14 11  1  0
 15  1  1  0
 15  2  2  0
 16  4  1  0
 16  5  1  0
 16  7  2  0
M  END
>  <ID>  (1) 
conformer_0

$$$$
