
     RDKit          3D

 11 11  0  0  0  0  0  0  0  0999 V2000
   22.5652  -51.1176   52.5125 C   0  0  0  0  0  0  0  0  0  0  0  0
   20.3348  -51.6076   51.8840 C   0  0  0  0  0  0  0  0  0  0  0  0
   23.7785  -49.2354   52.9437 C   0  0  0  0  0  3  0  0  0  0  0  0
   18.3466  -49.7485   51.4848 C   0  0  0  0  0  0  0  0  0  0  0  0
   21.5533  -50.2923   52.2563 C   0  0  0  0  0  0  0  0  0  0  0  0
   23.6316  -54.4919   52.1337 C   0  0  0  0  0  0  0  0  0  0  0  0
   26.5145  -48.5718   53.6546 O   0  0  0  0  0  0  0  0  0  0  0  0
   22.2796  -54.0866   52.1056 O   0  0  0  0  0  0  0  0  0  0  0  0
   25.1913  -48.2321   53.6262 C   0  0  0  0  0  0  0  0  0  0  0  0
   24.7671  -47.1293   53.9703 O   0  0  0  0  0  0  0  0  0  0  0  0
   21.7052  -52.7523   52.0970 C   0  0  0  0  0  0  0  0  0  0  0  0
  3  1  2  3
  4  2  1  0
  5  1  1  0
  5  2  2  0
  8  6  1  0
  9  3  1  0
  9  7  1  0
 10  9  2  0
 11  1  1  0
 11  2  1  0
 11  8  1  0
M  RAD  1   3   2
M  END
>  <ID>  (1) 
conformer_0

$$$$
