
     RDKit          3D

 16 16  0  0  0  0  0  0  0  0999 V2000
   20.1530  -50.9052   51.8668 C   0  0  0  0  0  0  0  0  0  0  0  0
   22.3936  -50.4050   52.4025 C   0  0  0  0  0  0  0  0  0  0  0  0
   23.8389  -48.7539   52.6124 C   0  0  0  0  0  0  0  0  0  0  0  0
   18.3279  -49.5696   51.6848 C   0  0  0  0  0  0  0  0  0  0  0  0
   22.2671  -53.8837   52.2021 O   0  0  0  0  0  0  0  0  0  0  0  0
   20.4486  -52.2447   51.8007 C   0  0  0  0  0  0  0  0  0  0  0  0
   18.8615  -50.5656   51.3507 O   0  0  0  0  0  0  0  0  0  0  0  0
   19.6837  -53.3931   51.3533 O   0  0  0  0  0  0  0  0  0  0  0  0
   25.2905  -48.1791   53.5629 C   0  0  0  0  0  0  0  0  0  0  0  0
   23.2730  -54.3328   52.1506 C   0  0  0  0  0  0  0  0  0  0  0  0
   22.7760  -51.6360   52.5070 C   0  0  0  0  0  0  0  0  0  0  0  0
   26.3996  -48.3262   53.4260 O   0  0  0  0  0  0  0  0  0  0  0  0
   25.0469  -47.2104   54.1591 O   0  0  0  0  0  0  0  0  0  0  0  0
   23.8562  -49.5870   53.2383 C   0  0  0  0  0  0  0  0  0  0  0  0
   21.8040  -52.6367   52.1205 C   0  0  0  0  0  0  0  0  0  0  0  0
   21.1560  -49.8280   52.0727 C   0  0  0  0  0  0  0  0  0  0  0  0
  6  1  2  0
  7  1  1  0
  7  4  1  0
  8  6  1  0
  9  3  1  0
 10  5  1  0
 11  2  1  0
 12  9  1  0
 13  9  2  0
 14  2  1  0
 14  3  1  0
 15  5  1  0
 15  6  1  0
 15 11  2  0
 16  1  1  0
 16  2  2  0
M  END
>  <ID>  (1) 
conformer_0

$$$$
