
     RDKit          3D

 17 18  0  0  0  0  0  0  0  0999 V2000
   20.1270  -50.8652   51.7977 C   0  0  0  0  0  0  0  0  0  0  0  0
   22.3929  -50.3470   52.4685 C   0  0  0  0  0  0  0  0  0  0  0  0
   23.3243  -48.8095   52.2694 C   0  0  0  0  0  0  0  0  0  0  0  0
   20.1911  -52.2971   51.7616 C   0  0  0  0  0  0  0  0  0  0  0  0
   18.3076  -49.5602   51.4007 C   0  0  0  0  0  0  0  0  0  0  0  0
   24.0906  -47.1379   53.5833 O   0  0  0  0  0  0  0  0  0  0  0  0
   19.4804  -53.4201   51.4791 O   0  0  0  0  0  0  0  0  0  0  0  0
   18.9742  -50.3717   51.5067 O   0  0  0  0  0  0  0  0  0  0  0  0
   22.6038  -53.7133   52.2357 O   0  0  0  0  0  0  0  0  0  0  0  0
   26.4690  -48.3227   53.8482 O   0  0  0  0  0  0  0  0  0  0  0  0
   24.8841  -48.1905   53.6213 C   0  0  0  0  0  0  0  0  0  0  0  0
   23.0914  -54.7308   52.1476 C   0  0  0  0  0  0  0  0  0  0  0  0
   23.7771  -50.0134   53.0350 C   0  0  0  0  0  0  0  0  0  0  0  0
   22.5223  -51.7634   52.3135 C   0  0  0  0  0  0  0  0  0  0  0  0
   21.7025  -52.6947   52.1752 C   0  0  0  0  0  0  0  0  0  0  0  0
   25.1920  -49.3462   53.8402 C   0  0  0  0  0  0  0  0  0  0  0  0
   21.1560  -49.9907   51.6374 C   0  0  0  0  0  3  0  0  0  0  0  0
  3  2  1  0
  4  1  2  0
  7  4  1  0
  8  1  1  0
  8  5  1  0
 11  6  2  0
 11 10  1  0
 12  9  1  0
 13  2  1  0
 13  3  1  0
 14  2  1  0
 15  4  1  0
 15  9  1  0
 15 14  2  0
 16 11  1  0
 16 13  1  0
 17  1  1  0
 17  2  1  0
M  RAD  1  17   2
M  END
>  <ID>  (1) 
conformer_0

$$$$
