
     RDKit          3D

 17 17  0  0  0  0  0  0  0  0999 V2000
   20.4215  -50.7791   51.9542 C   0  0  0  0  0  0  0  0  0  0  0  0
   21.2995  -50.1447   51.5555 C   0  0  0  0  0  0  0  0  0  0  0  0
   24.3912  -48.8363   53.1737 C   0  0  0  0  0  3  0  0  0  0  0  0
   19.8923  -52.0029   51.6145 C   0  0  2  0  0  0  0  0  0  0  0  0
   18.6986  -49.3492   51.5343 C   0  0  0  0  0  0  0  0  0  0  0  0
   24.9762  -47.2409   54.3429 O   0  0  0  0  0  0  0  0  0  0  0  0
   25.2211  -48.2515   53.8439 C   0  0  0  0  0  0  0  0  0  0  0  0
   26.4026  -48.6595   53.8547 O   0  0  0  0  0  0  0  0  0  0  0  0
   18.9106  -50.4995   51.6412 O   0  0  0  0  0  0  0  0  0  0  0  0
   19.6055  -53.3638   51.7780 O   0  0  0  0  0  0  0  0  0  0  0  0
   22.3360  -50.3313   52.5336 C   0  0  0  0  0  0  0  0  0  0  0  0
   22.5096  -53.8720   51.9032 O   0  0  0  0  0  0  0  0  0  0  0  0
   23.7519  -54.5112   52.0923 C   0  0  0  0  0  0  0  0  0  0  0  0
   21.0512  -52.9636   51.9776 C   0  0  0  0  0  0  0  0  0  0  0  0
   22.3326  -52.5361   51.8915 C   0  0  0  0  0  0  0  0  0  0  0  0
   23.2680  -49.5258   52.4369 C   0  0  0  0  0  0  0  0  0  0  0  0
   22.9820  -51.5148   51.9587 C   0  0  0  0  0  0  0  0  0  0  0  0
  2  1  2  0
  4  1  1  0
  7  3  1  0
  7  6  2  0
  8  7  1  0
  9  1  1  0
  9  5  1  0
  4 10  1  1
 11  2  1  0
 13 12  1  0
 14  4  1  0
 15 12  1  0
 15 14  2  0
 16  3  2  3
 16 11  1  0
 17 11  2  0
 17 15  1  0
M  RAD  1   3   2
M  END
>  <ID>  (1) 
conformer_0

$$$$
