
     RDKit          3D

 16 16  0  0  0  0  0  0  0  0999 V2000
   20.1275  -51.0596   51.6952 C   0  0  0  0  0  0  0  0  0  0  0  0
   24.4681  -49.0465   53.3586 C   0  0  0  0  0  0  0  0  0  0  0  0
   21.1528  -50.0559   51.8752 C   0  0  0  0  0  0  0  0  0  0  0  0
   22.3725  -50.2087   52.3723 C   0  0  0  0  0  0  0  0  0  0  0  0
   21.8201  -54.1149   52.3751 O   0  0  0  0  0  0  0  0  0  0  0  0
   25.3812  -47.2736   54.4391 O   0  0  0  0  0  0  0  0  0  0  0  0
   18.4120  -49.5904   51.3620 C   0  0  0  0  0  0  0  0  0  0  0  0
   25.5322  -48.1032   53.7124 C   0  0  0  0  0  0  0  0  0  0  0  0
   18.7364  -50.6557   51.2198 O   0  0  0  0  0  0  0  0  0  0  0  0
   20.6123  -52.4394   51.9192 C   0  0  0  0  0  0  0  0  0  0  0  0
   26.7951  -48.4599   53.3384 O   0  0  0  0  0  0  0  0  0  0  0  0
   23.2558  -54.5005   52.4811 C   0  0  0  0  0  0  0  0  0  0  0  0
   19.5925  -53.3292   51.7255 O   0  0  0  0  0  0  0  0  0  0  0  0
   22.8183  -51.4649   52.7391 C   0  0  0  0  0  0  0  0  0  0  0  0
   23.4684  -49.0352   52.6114 C   0  0  0  0  0  0  0  0  0  0  0  0
   22.0351  -52.6437   52.3465 C   0  0  0  0  0  0  0  0  0  0  0  0
  3  1  2  0
  4  3  1  0
  8  2  1  0
  8  6  2  0
  9  1  1  0
  9  7  1  0
 10  1  1  0
 11  8  1  0
 12  5  1  0
 13 10  1  0
 14  4  2  0
 15  2  2  3
 15  4  1  0
 16  5  1  0
 16 10  2  0
 16 14  1  0
M  END
>  <ID>  (1) 
conformer_0

$$$$
