
     RDKit          3D

 14 14  0  0  0  0  0  0  0  0999 V2000
   20.2890  -51.4178   51.7764 C   0  0  0  0  0  0  0  0  0  0  0  0
   21.0698  -50.0022   51.7926 C   0  0  0  0  0  0  0  0  0  0  0  0
   23.4856  -48.9396   52.1930 C   0  0  0  0  0  0  0  0  0  0  0  0
   23.5044  -54.3513   52.2074 C   0  0  0  0  0  0  0  0  0  0  0  0
   18.8156  -50.3656   51.1332 O   0  0  0  0  0  0  0  0  0  0  0  0
   22.4158  -50.0054   52.0662 C   0  0  0  0  0  0  0  0  0  0  0  0
   18.5555  -49.5047   51.5732 C   0  0  0  0  0  0  0  0  0  0  0  0
   26.2944  -48.4665   53.5696 O   0  0  0  0  0  0  0  0  0  0  0  0
   25.1143  -48.1464   53.7007 C   0  0  0  0  0  0  0  0  0  0  0  0
   21.5703  -52.4655   52.0995 C   0  0  0  0  0  0  0  0  0  0  0  0
   24.8531  -47.1127   54.1481 O   0  0  0  0  0  0  0  0  0  0  0  0
   19.9789  -53.2347   51.9137 O   0  0  0  0  0  0  0  0  0  0  0  0
   22.8680  -51.3730   52.2203 C   0  0  0  0  0  0  0  0  0  0  0  0
   24.3846  -49.2759   53.3494 C   0  0  0  0  0  0  0  0  0  0  0  0
  2  1  2  0
  5  1  1  0
  6  2  1  0
  6  3  1  0
  7  5  1  0
  9  8  1  0
 10  1  1  0
 10  4  1  0
 11  9  2  0
 12 10  1  0
 13  6  2  0
 13 10  1  0
 14  3  1  0
 14  9  1  0
M  END
>  <ID>  (1) 
conformer_0

$$$$
