
     RDKit          3D

 16 16  0  0  0  0  0  0  0  0999 V2000
   21.1327  -49.9383   51.9422 C   0  0  0  0  0  0  0  0  0  0  0  0
   20.1036  -50.9560   51.8157 C   0  0  0  0  0  0  0  0  0  0  0  0
   23.5698  -49.2398   52.4927 C   0  0  0  0  0  0  0  0  0  0  0  0
   18.2813  -49.6165   51.7715 C   0  0  0  0  0  0  0  0  0  0  0  0
   22.3677  -53.9719   52.1776 O   0  0  0  0  0  0  0  0  0  0  0  0
   22.4360  -50.3059   52.3983 C   0  0  0  0  0  0  0  0  0  0  0  0
   20.5441  -52.2578   51.9274 C   0  0  0  0  0  0  0  0  0  0  0  0
   25.4944  -48.1329   53.8132 C   0  0  0  0  0  0  0  0  0  0  0  0
   18.6588  -50.6919   51.3177 O   0  0  0  0  0  0  0  0  0  0  0  0
   26.6576  -48.5462   53.8145 O   0  0  0  0  0  0  0  0  0  0  0  0
   24.9559  -47.0245   53.9798 O   0  0  0  0  0  0  0  0  0  0  0  0
   22.9109  -54.8251   52.2144 C   0  0  0  0  0  0  0  0  0  0  0  0
   19.4710  -53.0785   51.5438 O   0  0  0  0  0  0  0  0  0  0  0  0
   22.8820  -51.5920   52.6026 C   0  0  0  0  0  0  0  0  0  0  0  0
   24.6322  -48.9289   53.2590 C   0  0  0  0  0  3  0  0  0  0  0  0
   22.0807  -52.6492   52.2438 C   0  0  0  0  0  0  0  0  0  0  0  0
  2  1  2  0
  6  1  1  0
  6  3  1  0
  7  2  1  0
  9  2  1  0
  9  4  1  0
 10  8  1  0
 11  8  2  0
 12  5  1  0
 13  7  1  0
 14  6  2  0
 15  3  2  3
 15  8  1  0
 16  5  1  0
 16  7  2  0
 16 14  1  0
M  RAD  1  15   2
M  END
>  <ID>  (1) 
conformer_0

$$$$
