
     RDKit          3D

 16 16  0  0  0  0  0  0  0  0999 V2000
   20.0976  -50.8886   51.8316 C   0  0  0  0  0  0  0  0  0  0  0  0
   22.9025  -51.5446   52.5086 C   0  0  0  0  0  0  0  0  0  0  0  0
   24.4810  -49.9173   53.4527 C   0  0  0  0  0  0  0  0  0  0  0  0
   20.5452  -52.2324   51.9102 C   0  0  0  0  0  0  0  0  0  0  0  0
   22.5683  -53.8472   52.0581 O   0  0  0  0  0  0  0  0  0  0  0  0
   22.4499  -50.3402   52.4886 C   0  0  0  0  0  0  0  0  0  0  0  0
   18.4316  -49.4600   51.4406 C   0  0  0  0  0  0  0  0  0  0  0  0
   23.4187  -54.5204   52.0919 C   0  0  0  0  0  0  0  0  0  0  0  0
   25.1215  -47.4650   53.9596 O   0  0  0  0  0  0  0  0  0  0  0  0
   19.0037  -50.4039   51.2194 O   0  0  0  0  0  0  0  0  0  0  0  0
   25.1890  -48.4824   53.7565 C   0  0  0  0  0  0  0  0  0  0  0  0
   26.5562  -48.7467   53.7845 O   0  0  0  0  0  0  0  0  0  0  0  0
   19.8416  -53.2099   51.6282 O   0  0  0  0  0  0  0  0  0  0  0  0
   22.0545  -52.5669   52.1989 C   0  0  0  0  0  0  0  0  0  0  0  0
   21.1661  -49.9701   52.1621 C   0  0  0  0  0  0  0  0  0  0  0  0
   23.4122  -49.0966   52.7802 C   0  0  0  0  0  0  0  0  0  0  0  0
  4  1  2  0
  6  2  1  0
  8  5  1  0
 10  1  1  0
 10  7  1  0
 11  3  1  0
 11  9  2  0
 12 11  1  0
 13  4  1  0
 14  2  2  0
 14  4  1  0
 14  5  1  0
 15  1  1  0
 15  6  2  0
 16  3  1  0
 16  6  1  0
M  END
>  <ID>  (1) 
conformer_0

$$$$
