
     RDKit          3D

 16 16  0  0  0  0  0  0  0  0999 V2000
   21.0278  -50.2886   52.0349 C   0  0  0  0  0  0  0  0  0  0  0  0
   20.2166  -50.9195   51.6464 C   0  0  0  0  0  0  0  0  0  0  0  0
   24.1895  -49.6871   53.3507 C   0  0  0  0  0  0  0  0  0  0  0  0
   19.7569  -53.2909   51.2156 O   0  0  0  0  0  0  0  0  0  0  0  0
   22.3284  -53.8559   52.2660 O   0  0  0  0  0  0  0  0  0  0  0  0
   18.9302  -50.3160   51.4731 O   0  0  0  0  0  0  0  0  0  0  0  0
   22.3399  -50.2886   52.1674 C   0  0  0  0  0  0  0  0  0  0  0  0
   24.7099  -47.2667   53.8293 O   0  0  0  0  0  0  0  0  0  0  0  0
   24.9258  -48.3829   53.5544 C   0  0  0  0  0  0  0  0  0  0  0  0
   20.6056  -52.4334   51.5446 C   0  0  0  0  0  0  0  0  0  0  0  0
   26.3001  -48.6992   53.6219 O   0  0  0  0  0  0  0  0  0  0  0  0
   18.6436  -49.8449   51.2682 C   0  0  0  0  0  0  0  0  0  0  0  0
   23.0942  -54.5937   52.1035 C   0  0  0  0  0  0  0  0  0  0  0  0
   22.8801  -51.5675   52.5896 C   0  0  0  0  0  0  0  0  0  0  0  0
   23.0429  -49.0450   52.7454 C   0  0  0  0  0  0  0  0  0  0  0  0
   22.0993  -52.5505   52.1941 C   0  0  0  0  0  0  0  0  0  0  0  0
  2  1  2  0
  6  2  1  0
  7  1  1  0
  9  3  1  0
  9  8  2  0
 10  2  1  0
 10  4  1  0
 11  9  1  0
 12  6  1  0
 13  5  1  0
 14  7  2  0
 15  3  1  0
 15  7  1  0
 16  5  1  0
 16 10  2  0
 16 14  1  0
M  END
>  <ID>  (1) 
conformer_0

$$$$
