
     RDKit          3D

 15 15  0  0  0  0  0  0  0  0999 V2000
   22.8153  -51.6297   52.5271 C   0  0  0  0  0  0  0  0  0  0  0  0
   20.3743  -52.0503   51.7390 C   0  0  0  0  0  0  0  0  0  0  0  0
   23.0938  -48.9456   52.6724 C   0  0  0  0  0  0  0  0  0  0  0  0
   20.0865  -50.7579   51.7189 C   0  0  0  0  0  0  0  0  0  0  0  0
   22.3411  -50.4413   52.3988 C   0  0  0  0  0  0  0  0  0  0  0  0
   18.6288  -48.9727   51.4265 C   0  0  0  0  0  0  0  0  0  0  0  0
   18.9884  -49.9627   51.3422 O   0  0  0  0  0  0  0  0  0  0  0  0
   26.5315  -48.8850   53.6140 O   0  0  0  0  0  0  0  0  0  0  0  0
   25.4449  -48.8991   53.8172 C   0  0  0  0  0  0  0  0  0  0  0  0
   19.5127  -53.0037   51.4989 O   0  0  0  0  0  0  0  0  0  0  0  0
   22.2867  -53.9905   52.0125 O   0  0  0  0  0  0  0  0  0  0  0  0
   24.2607  -49.3610   53.1341 C   0  0  0  0  0  0  0  0  0  0  0  0
   21.7514  -52.6329   52.1236 C   0  0  0  0  0  0  0  0  0  0  0  0
   25.1386  -48.1183   54.3176 O   0  0  0  0  0  0  0  0  0  0  0  0
   21.2068  -49.9082   52.2467 C   0  0  0  0  0  0  0  0  0  0  0  0
  4  2  1  0
  5  1  2  0
  5  3  1  0
  7  4  1  0
  7  6  1  0
  9  8  1  0
 10  2  1  0
 12  3  1  0
 12  9  1  0
 13  1  1  0
 13  2  2  0
 13 11  1  0
 14  9  2  0
 15  4  2  0
 15  5  1  0
M  END
>  <ID>  (1) 
conformer_0

$$$$
