
     RDKit          3D

 16 16  0  0  0  0  0  0  0  0999 V2000
   20.2598  -50.7993   51.7376 C   0  0  0  0  0  0  0  0  0  0  0  0
   22.4422  -50.3371   52.4589 C   0  0  0  0  0  0  0  0  0  0  0  0
   24.3931  -49.5047   53.5144 C   0  0  0  0  0  0  0  0  0  0  0  0
   18.4071  -49.6271   51.4499 C   0  0  0  0  0  0  0  0  0  0  0  0
   22.8309  -51.5860   52.5448 C   0  0  0  0  0  0  0  0  0  0  0  0
   18.9840  -50.5597   51.3260 O   0  0  0  0  0  0  0  0  0  0  0  0
   20.5828  -52.1983   51.5846 C   0  0  0  0  0  0  0  0  0  0  0  0
   26.2421  -48.9327   53.8485 O   0  0  0  0  0  0  0  0  0  0  0  0
   19.7634  -53.3005   51.2861 O   0  0  0  0  0  0  0  0  0  0  0  0
   24.6782  -47.1964   53.8582 O   0  0  0  0  0  0  0  0  0  0  0  0
   22.5102  -53.6833   51.9094 O   0  0  0  0  0  0  0  0  0  0  0  0
   25.1032  -48.2737   53.7986 C   0  0  0  0  0  0  0  0  0  0  0  0
   23.6530  -54.2536   52.0482 C   0  0  0  0  0  0  0  0  0  0  0  0
   23.4211  -49.0751   52.9261 C   0  0  0  0  0  0  0  0  0  0  0  0
   22.0983  -52.5125   52.0252 C   0  0  0  0  0  0  0  0  0  0  0  0
   21.1390  -49.9588   52.2490 C   0  0  0  0  0  0  0  0  0  0  0  0
  5  2  1  0
  6  1  1  0
  6  4  1  0
  7  1  2  0
  9  7  1  0
 12  3  1  0
 12  8  1  0
 12 10  2  0
 13 11  1  0
 14  2  1  0
 14  3  1  0
 15  5  2  0
 15  7  1  0
 15 11  1  0
 16  1  1  0
 16  2  2  0
M  END
>  <ID>  (1) 
conformer_0

$$$$
