
     RDKit          3D

 16 16  0  0  0  0  0  0  0  0999 V2000
   20.2802  -52.0586   51.6469 C   0  0  0  0  0  0  0  0  0  0  0  0
   22.4969  -50.4412   52.3794 C   0  0  0  0  0  0  0  0  0  0  0  0
   23.1542  -48.9080   52.4529 C   0  0  0  0  0  0  0  0  0  0  0  0
   20.1390  -50.7642   51.7929 C   0  0  0  0  0  0  0  0  0  0  0  0
   18.3716  -49.1888   51.4610 C   0  0  0  0  0  0  0  0  0  0  0  0
   22.3453  -54.0020   51.8920 O   0  0  0  0  0  0  0  0  0  0  0  0
   18.9006  -50.1979   51.6232 O   0  0  0  0  0  0  0  0  0  0  0  0
   25.0485  -48.0762   53.8655 C   0  0  0  0  0  0  0  0  0  0  0  0
   26.1750  -48.4047   53.6750 O   0  0  0  0  0  0  0  0  0  0  0  0
   23.4124  -54.4846   52.0283 C   0  0  0  0  0  0  0  0  0  0  0  0
   22.7288  -51.7431   52.2845 C   0  0  0  0  0  0  0  0  0  0  0  0
   24.7738  -46.8283   53.9845 O   0  0  0  0  0  0  0  0  0  0  0  0
   19.4993  -53.0218   51.2037 O   0  0  0  0  0  0  0  0  0  0  0  0
   21.7473  -52.6986   51.9381 C   0  0  0  0  0  0  0  0  0  0  0  0
   24.1249  -49.1195   53.2797 C   0  0  0  0  0  0  0  0  0  0  0  0
   21.1877  -49.9576   52.2046 C   0  0  0  0  0  0  0  0  0  0  0  0
  3  2  1  0
  4  1  2  0
  7  4  1  0
  7  5  1  0
  9  8  1  0
 10  6  1  0
 11  2  1  0
 12  8  2  0
 13  1  1  0
 14  1  1  0
 14  6  1  0
 14 11  2  0
 15  3  1  0
 15  8  1  0
 16  2  2  0
 16  4  1  0
M  END
>  <ID>  (1) 
conformer_0

$$$$
