
     RDKit          3D

 15 15  0  0  0  0  0  0  0  0999 V2000
   21.4985  -50.1672   52.1184 C   0  0  0  0  0  0  0  0  0  0  0  0
   20.0193  -50.8358   51.6671 C   0  0  0  0  0  0  0  0  0  0  0  0
   24.4169  -48.8552   53.3783 C   0  0  0  0  0  0  0  0  0  0  0  0
   20.2160  -52.2088   51.6727 C   0  0  0  0  0  0  0  0  0  0  0  0
   18.2299  -49.1091   51.4744 C   0  0  0  0  0  0  0  0  0  0  0  0
   22.5116  -53.6976   51.5865 O   0  0  0  0  0  0  0  0  0  0  0  0
   18.9794  -50.0955   51.2209 O   0  0  0  0  0  0  0  0  0  0  0  0
   23.3517  -54.3793   52.0082 C   0  0  0  0  0  0  0  0  0  0  0  0
   25.8139  -48.5311   54.0547 C   0  0  0  0  0  0  0  0  0  0  0  0
   22.4383  -51.1405   52.2949 C   0  0  0  0  0  0  0  0  0  0  0  0
   19.6262  -53.6746   51.6176 O   0  0  0  0  0  0  0  0  0  0  0  0
   23.2782  -49.1750   52.6693 C   0  0  0  0  0  0  0  0  0  0  0  0
   26.7080  -48.5400   53.7501 O   0  0  0  0  0  0  0  0  0  0  0  0
   25.7580  -47.4732   54.2251 O   0  0  0  0  0  0  0  0  0  0  0  0
   21.5781  -52.6511   51.9188 C   0  0  0  0  0  0  0  0  0  0  0  0
  2  1  2  0
  4  2  1  0
  7  2  1  0
  7  5  1  0
  8  6  1  0
  9  3  1  0
 10  1  1  0
 11  4  1  0
 12  1  1  0
 12  3  3  0
 13  9  1  0
 14  9  1  0
 15  4  2  0
 15  6  1  0
 15 10  1  0
M  END
>  <ID>  (1) 
conformer_0

$$$$
