
     RDKit          3D

 14 14  0  0  0  0  0  0  0  0999 V2000
   21.5723  -50.0207   52.0652 C   0  0  0  0  0  0  0  0  0  0  0  0
   24.3027  -49.4175   53.3419 C   0  0  0  0  0  0  0  0  0  0  0  0
   20.0184  -50.6147   51.7620 C   0  0  0  0  0  0  0  0  0  0  0  0
   18.3941  -48.9328   51.3258 C   0  0  0  0  0  0  0  0  0  0  0  0
   23.5338  -54.3983   51.9462 C   0  0  0  0  0  0  0  0  0  0  0  0
   20.3623  -52.0424   51.7633 C   0  0  0  0  0  0  0  0  0  0  0  0
   18.8049  -50.1191   51.5681 O   0  0  0  0  0  0  0  0  0  0  0  0
   24.8055  -47.2455   53.8403 O   0  0  0  0  0  0  0  0  0  0  0  0
   22.3593  -53.7730   51.9992 O   0  0  0  0  0  0  0  0  0  0  0  0
   26.4707  -48.6757   54.0198 O   0  0  0  0  0  0  0  0  0  0  0  0
   25.2719  -48.3589   53.8533 C   0  0  0  0  0  0  0  0  0  0  0  0
   22.4585  -51.0099   52.2082 C   0  0  0  0  0  0  0  0  0  0  0  0
   23.2130  -49.2313   52.6766 C   0  0  0  0  0  0  0  0  0  0  0  0
   21.8631  -52.6059   51.9986 C   0  0  0  0  0  0  0  0  0  0  0  0
  3  1  2  0
  6  3  1  0
  7  3  1  0
  7  4  1  0
  9  5  1  0
 11  2  1  0
 11  8  2  0
 11 10  1  0
 12  1  1  0
 13  1  1  0
 13  2  2  3
 14  6  2  0
 14  9  1  0
 14 12  1  0
M  END
>  <ID>  (1) 
conformer_0

$$$$
