
     RDKit          3D

 16 16  0  0  0  0  0  0  0  0999 V2000
   22.4122  -50.3863   52.2145 C   0  0  0  0  0  0  0  0  0  0  0  0
   20.2930  -50.9544   51.6458 C   0  0  0  0  0  0  0  0  0  0  0  0
   24.4944  -49.0147   53.2622 C   0  0  0  0  0  0  0  0  0  0  0  0
   22.8266  -51.5543   52.3996 C   0  0  0  0  0  0  0  0  0  0  0  0
   22.0979  -53.9264   52.4904 O   0  0  0  0  0  0  0  0  0  0  0  0
   18.8973  -50.7226   51.1910 O   0  0  0  0  0  0  0  0  0  0  0  0
   18.3473  -49.8155   51.5928 C   0  0  0  0  0  0  0  0  0  0  0  0
   25.3404  -48.2542   53.8238 C   0  0  0  0  0  0  0  0  0  0  0  0
   19.8308  -53.6703   51.4662 O   0  0  0  0  0  0  0  0  0  0  0  0
   20.4921  -52.3637   51.7044 C   0  0  0  0  0  0  0  0  0  0  0  0
   26.4352  -48.6521   53.9483 O   0  0  0  0  0  0  0  0  0  0  0  0
   25.1565  -47.1114   53.9290 O   0  0  0  0  0  0  0  0  0  0  0  0
   22.3645  -54.8667   52.3895 C   0  0  0  0  0  0  0  0  0  0  0  0
   21.1749  -49.9011   51.8699 C   0  0  0  0  0  0  0  0  0  0  0  0
   23.4909  -49.6245   52.8082 C   0  0  0  0  0  0  0  0  0  0  0  0
   21.8982  -52.7069   52.2296 C   0  0  0  0  0  0  0  0  0  0  0  0
  4  1  2  0
  6  2  1  0
  7  6  1  0
  8  3  1  0
 10  2  1  0
 10  9  1  0
 11  8  1  0
 12  8  2  0
 13  5  1  0
 14  1  1  0
 14  2  2  0
 15  1  1  0
 15  3  3  0
 16  4  1  0
 16  5  1  0
 16 10  2  0
M  END
>  <ID>  (1) 
conformer_0

$$$$
