
     RDKit          3D

 16 16  0  0  0  0  0  0  0  0999 V2000
   22.4202  -50.3071   52.3863 C   0  0  0  0  0  0  0  0  0  0  0  0
   20.1275  -50.7954   51.6910 C   0  0  0  0  0  0  0  0  0  0  0  0
   23.4893  -49.1040   52.7158 C   0  0  0  0  0  0  0  0  0  0  0  0
   22.4801  -53.9043   51.9606 O   0  0  0  0  0  0  0  0  0  0  0  0
   18.4746  -49.1927   51.5657 C   0  0  0  0  0  0  0  0  0  0  0  0
   20.5446  -52.1271   51.7634 C   0  0  0  0  0  0  0  0  0  0  0  0
   18.8129  -50.3285   51.2395 O   0  0  0  0  0  0  0  0  0  0  0  0
   26.7403  -48.4909   53.7346 O   0  0  0  0  0  0  0  0  0  0  0  0
   24.6966  -47.3332   54.0859 O   0  0  0  0  0  0  0  0  0  0  0  0
   21.1592  -49.9041   52.1639 C   0  0  0  0  0  0  0  0  0  0  0  0
   25.3697  -48.3733   53.8214 C   0  0  0  0  0  0  0  0  0  0  0  0
   23.2521  -54.6690   52.3158 C   0  0  0  0  0  0  0  0  0  0  0  0
   19.6955  -53.3894   51.5475 O   0  0  0  0  0  0  0  0  0  0  0  0
   24.3810  -49.7771   53.3472 C   0  0  0  0  0  0  0  0  0  0  0  0
   21.9181  -52.6283   52.1246 C   0  0  0  0  0  0  0  0  0  0  0  0
   22.8023  -51.5873   52.3981 C   0  0  0  0  0  0  0  0  0  0  0  0
  3  1  1  0
  6  2  2  0
  7  2  1  0
  7  5  1  0
 10  1  2  0
 10  2  1  0
 11  8  1  0
 11  9  2  0
 12  4  1  0
 13  6  1  0
 14  3  1  0
 14 11  1  0
 15  4  1  0
 15  6  1  0
 16  1  1  0
 16 15  2  0
M  END
>  <ID>  (1) 
conformer_0

$$$$
