
     RDKit          3D

 16 16  0  0  0  0  0  0  0  0999 V2000
   21.4475  -49.8702   52.0027 C   0  0  0  0  0  0  0  0  0  0  0  0
   20.2293  -50.7665   51.7840 C   0  0  0  0  0  0  0  0  0  0  0  0
   23.4224  -48.8074   52.2776 C   0  0  0  0  0  0  0  0  0  0  0  0
   20.5779  -52.0310   51.8597 C   0  0  0  0  0  0  0  0  0  0  0  0
   21.9530  -54.2120   52.4305 O   0  0  0  0  0  0  0  0  0  0  0  0
   22.5845  -50.4608   52.4219 C   0  0  0  0  0  0  0  0  0  0  0  0
   19.0013  -50.3424   51.4737 O   0  0  0  0  0  0  0  0  0  0  0  0
   23.1559  -54.7861   52.1486 C   0  0  0  0  0  0  0  0  0  0  0  0
   24.5993  -47.4220   54.0580 O   0  0  0  0  0  0  0  0  0  0  0  0
   19.6623  -53.2156   51.5746 O   0  0  0  0  0  0  0  0  0  0  0  0
   26.5429  -48.4905   53.3758 O   0  0  0  0  0  0  0  0  0  0  0  0
   18.6799  -49.1859   51.5949 C   0  0  0  0  0  0  0  0  0  0  0  0
   25.0966  -48.1930   53.5320 C   0  0  0  0  0  0  0  0  0  0  0  0
   21.7566  -52.7127   52.2290 C   0  0  0  0  0  0  0  0  0  0  0  0
   22.9401  -51.7328   52.6548 C   0  0  0  0  0  0  0  0  0  0  0  0
   24.3124  -49.4264   53.2651 C   0  0  0  0  0  0  0  0  0  0  0  0
  2  1  2  0
  4  2  1  0
  6  1  1  0
  6  3  1  0
  7  2  1  0
  8  5  1  0
 10  4  1  0
 12  7  1  0
 13  9  2  0
 13 11  1  0
 14  4  2  0
 14  5  1  0
 15  6  2  0
 15 14  1  0
 16  3  1  0
 16 13  1  0
M  END
>  <ID>  (1) 
conformer_0

$$$$
