
     RDKit          3D

 16 16  0  0  0  0  0  0  0  0999 V2000
   20.2835  -50.8367   51.8143 C   0  0  0  0  0  0  0  0  0  0  0  0
   22.7315  -51.9168   52.0335 C   0  0  0  0  0  0  0  0  0  0  0  0
   23.1463  -49.0692   52.1248 C   0  0  0  0  0  0  0  0  0  0  0  0
   18.3907  -49.5893   51.5994 C   0  0  0  0  0  0  0  0  0  0  0  0
   20.5404  -52.2741   52.0801 C   0  0  0  0  0  0  0  0  0  0  0  0
   26.4277  -48.8062   53.6600 O   0  0  0  0  0  0  0  0  0  0  0  0
   24.8431  -47.3461   54.0698 O   0  0  0  0  0  0  0  0  0  0  0  0
   18.8531  -50.7342   51.7104 O   0  0  0  0  0  0  0  0  0  0  0  0
   25.1638  -48.3840   53.6934 C   0  0  0  0  0  0  0  0  0  0  0  0
   22.7039  -50.4510   52.0649 C   0  0  0  0  0  0  0  0  0  0  0  0
   22.4671  -54.2300   51.9337 O   0  0  0  0  0  0  0  0  0  0  0  0
   19.7687  -53.3821   52.0009 O   0  0  0  0  0  0  0  0  0  0  0  0
   23.4983  -54.5564   52.0404 C   0  0  0  0  0  0  0  0  0  0  0  0
   21.9708  -52.9278   51.9778 C   0  0  0  0  0  0  0  0  0  0  0  0
   24.3391  -49.3928   53.2025 C   0  0  0  0  0  0  0  0  0  0  0  0
   21.3721  -50.1501   51.7670 C   0  0  0  0  0  0  0  0  0  0  0  0
  5  1  2  0
  8  1  1  0
  8  4  1  0
  9  6  1  0
  9  7  2  0
 10  2  1  0
 10  3  1  0
 12  5  1  0
 13 11  1  0
 14  2  2  0
 14  5  1  0
 14 11  1  0
 15  3  1  0
 15  9  1  0
 16  1  1  0
 16 10  2  0
M  END
>  <ID>  (1) 
conformer_0

$$$$
