
     RDKit          3D

 17 18  0  0  0  0  0  0  0  0999 V2000
   20.1444  -50.9220   51.7674 C   0  0  0  0  0  0  0  0  0  0  0  0
   22.8242  -48.6279   52.6487 C   0  0  0  0  0  0  0  0  0  0  0  0
   21.1213  -50.0192   51.9994 C   0  0  0  0  0  0  0  0  0  0  0  0
   23.8943  -49.9061   53.1637 C   0  0  0  0  0  0  0  0  0  0  0  0
   20.6001  -52.3413   51.9063 C   0  0  0  0  0  0  0  0  0  0  0  0
   18.2005  -49.5021   51.4601 C   0  0  0  0  0  0  0  0  0  0  0  0
   22.3197  -54.0059   52.0861 O   0  0  0  0  0  0  0  0  0  0  0  0
   23.5763  -54.3048   51.9238 C   0  0  0  0  0  0  0  0  0  0  0  0
   19.0483  -50.4330   51.4654 O   0  0  0  0  0  0  0  0  0  0  0  0
   22.4108  -50.4150   52.3564 C   0  0  0  0  0  0  0  0  0  0  0  0
   19.7169  -53.2906   51.9849 O   0  0  0  0  0  0  0  0  0  0  0  0
   24.4294  -47.5300   54.2174 O   0  0  0  0  0  0  0  0  0  0  0  0
   26.5449  -48.8009   53.6423 C   0  0  0  0  0  0  0  0  0  0  0  0
   24.7532  -48.0931   53.5607 C   0  0  0  0  0  0  0  0  0  0  0  0
   21.9595  -52.6960   52.1367 C   0  0  0  0  0  0  0  0  0  0  0  0
   22.8663  -51.6741   52.5153 C   0  0  0  0  0  3  0  0  0  0  0  0
   24.8661  -48.6447   53.0353 C   0  0  0  0  0  0  0  0  0  0  0  0
  3  1  2  0
  4  2  1  0
  5  1  1  0
  8  7  1  0
  9  1  1  0
  9  6  1  0
 10  2  1  0
 10  3  1  0
 10  4  1  0
 11  5  1  0
 14 12  1  0
 15  5  2  0
 15  7  1  0
 16 10  1  0
 16 15  1  0
 17  4  1  0
 17 13  1  0
 17 14  1  0
M  RAD  1  16   2
M  END
>  <ID>  (1) 
conformer_0

$$$$
