
     RDKit          3D

 13 13  0  0  0  0  0  0  0  0999 V2000
   20.5621  -52.1905   51.8060 C   0  0  0  0  0  0  0  0  0  0  0  0
   21.4846  -50.0167   52.1311 C   0  0  0  0  0  0  0  0  0  0  0  0
   23.3077  -48.9926   52.9159 C   0  0  0  0  0  0  0  0  0  0  0  0
   21.8619  -52.6085   52.2234 C   0  0  0  0  0  0  0  0  0  0  0  0
   22.4774  -53.9449   52.0810 O   0  0  0  0  0  0  0  0  0  0  0  0
   18.4339  -49.2948   51.2813 C   0  0  0  0  0  0  0  0  0  0  0  0
   24.9550  -47.3363   53.8634 O   0  0  0  0  0  0  0  0  0  0  0  0
   18.8786  -50.4541   51.3654 O   0  0  0  0  0  0  0  0  0  0  0  0
   23.4815  -54.4455   52.2864 C   0  0  0  0  0  0  0  0  0  0  0  0
   25.1118  -48.2384   53.6180 C   0  0  0  0  0  0  0  0  0  0  0  0
   22.5372  -51.0097   52.3355 C   0  0  0  0  0  0  0  0  0  0  0  0
   19.8202  -53.3501   51.7136 O   0  0  0  0  0  0  0  0  0  0  0  0
   20.0940  -50.8292   51.7151 C   0  0  0  0  0  0  0  0  0  0  0  0
  3  2  1  0
  4  1  2  0
  5  4  1  0
  8  6  1  0
  9  5  1  0
 10  3  1  0
 10  7  1  0
 11  2  2  0
 11  4  1  0
 12  1  1  0
 13  1  1  0
 13  2  1  0
 13  8  1  0
M  END
>  <ID>  (1) 
conformer_0

$$$$
