
     RDKit          3D

 16 16  0  0  0  0  0  0  0  0999 V2000
   20.4680  -52.1340   51.9674 C   0  0  0  0  0  0  0  0  0  0  0  0
   22.7031  -51.2959   52.4970 C   0  0  0  0  0  0  0  0  0  0  0  0
   24.5283  -49.2497   53.3907 C   0  0  0  0  0  0  0  0  0  0  0  0
   22.1667  -50.0806   52.4635 C   0  0  0  0  0  0  0  0  0  0  0  0
   18.1939  -49.4759   51.2679 C   0  0  0  0  0  0  0  0  0  0  0  0
   26.5904  -48.5303   53.5550 O   0  0  0  0  0  0  0  0  0  0  0  0
   22.4224  -53.6665   52.1308 O   0  0  0  0  0  0  0  0  0  0  0  0
   21.9386  -52.4674   52.2796 C   0  0  0  0  0  0  0  0  0  0  0  0
   18.6415  -50.7005   51.4837 O   0  0  0  0  0  0  0  0  0  0  0  0
   24.7113  -47.1701   53.7713 O   0  0  0  0  0  0  0  0  0  0  0  0
   23.1731  -54.6698   52.3523 C   0  0  0  0  0  0  0  0  0  0  0  0
   25.2454  -48.3465   53.5675 C   0  0  0  0  0  0  0  0  0  0  0  0
   19.6190  -53.0088   52.1066 O   0  0  0  0  0  0  0  0  0  0  0  0
   20.8967  -49.6765   52.1666 C   0  0  0  0  0  0  0  0  0  0  0  0
   23.3473  -49.0589   52.5480 C   0  0  0  0  0  0  0  0  0  0  0  0
   19.9706  -50.7696   51.8372 C   0  0  0  0  0  0  0  0  0  0  0  0
  4  2  2  0
  8  1  2  0
  8  2  1  0
  8  7  1  0
  9  5  1  0
 11  7  1  0
 12  3  1  0
 12  6  1  0
 12 10  2  0
 13  1  1  0
 14  4  1  0
 15  3  2  3
 15  4  1  0
 16  1  1  0
 16  9  1  0
 16 14  2  0
M  END
>  <ID>  (1) 
conformer_0

$$$$
