
     RDKit          3D

 17 18  0  0  0  0  0  0  0  0999 V2000
   19.9866  -50.8549   51.7034 C   0  0  0  0  0  0  0  0  0  0  0  0
   22.5886  -51.6574   52.3996 C   0  0  0  0  0  0  0  0  0  0  0  0
   24.1884  -48.6730   53.0744 C   0  0  0  0  0  0  0  0  0  0  0  0
   18.2988  -49.4783   51.5279 C   0  0  0  0  0  0  0  0  0  0  0  0
   22.2096  -50.4037   52.3898 C   0  0  0  0  0  0  0  0  0  0  0  0
   23.4765  -54.3697   52.0577 C   0  0  0  0  0  0  0  0  0  0  0  0
   22.6447  -53.7559   52.1074 O   0  0  0  0  0  0  0  0  0  0  0  0
   18.6756  -50.5764   51.4143 O   0  0  0  0  0  0  0  0  0  0  0  0
   20.2990  -52.1971   51.7078 C   0  0  0  0  0  0  0  0  0  0  0  0
   19.4838  -53.1916   51.4793 O   0  0  0  0  0  0  0  0  0  0  0  0
   25.2071  -47.3044   54.0761 O   0  0  0  0  0  0  0  0  0  0  0  0
   26.4918  -48.6991   53.4705 O   0  0  0  0  0  0  0  0  0  0  0  0
   25.2576  -48.2840   53.5866 C   0  0  0  0  0  0  0  0  0  0  0  0
   23.9911  -50.0171   53.1181 C   0  0  0  0  0  0  0  0  0  0  0  0
   20.9660  -49.9237   52.0926 C   0  0  0  0  0  3  0  0  0  0  0  0
   21.8307  -52.7004   52.1280 C   0  0  0  0  0  0  0  0  0  0  0  0
   22.3593  -48.5203   52.7989 C   0  0  0  0  0  0  0  0  0  0  0  0
  5  2  1  0
  7  6  1  0
  8  1  1  0
  8  4  1  0
  9  1  2  0
 10  9  1  0
 13  3  1  0
 13 11  2  0
 13 12  1  0
 14  3  1  0
 14  5  1  0
 15  1  1  0
 15  5  1  0
 16  2  2  0
 16  7  1  0
 16  9  1  0
 17  3  1  0
 17  5  1  0
M  RAD  1  15   2
M  END
>  <ID>  (1) 
conformer_0

$$$$
