
     RDKit          3D

 16 16  0  0  0  0  0  0  0  0999 V2000
   20.3272  -50.5058   51.7195 C   0  0  0  0  0  0  0  0  0  0  0  0
   22.3657  -51.8295   52.4604 C   0  0  0  0  0  0  0  0  0  0  0  0
   24.4205  -49.2350   53.3046 C   0  0  0  0  0  0  0  0  0  0  0  0
   20.2752  -51.9123   51.7475 C   0  0  0  0  0  0  0  0  0  0  0  0
   19.5275  -53.3494   51.4142 O   0  0  0  0  0  0  0  0  0  0  0  0
   22.2613  -54.0098   52.2427 O   0  0  0  0  0  0  0  0  0  0  0  0
   18.9615  -50.1356   51.1918 O   0  0  0  0  0  0  0  0  0  0  0  0
   25.2711  -48.1799   53.7362 C   0  0  0  0  0  0  0  0  0  0  0  0
   18.5839  -48.9983   51.4769 C   0  0  0  0  0  0  0  0  0  0  0  0
   26.5979  -48.2978   53.8806 O   0  0  0  0  0  0  0  0  0  0  0  0
   22.8579  -50.5799   52.4344 C   0  0  0  0  0  0  0  0  0  0  0  0
   23.2920  -54.5241   52.4432 C   0  0  0  0  0  0  0  0  0  0  0  0
   25.1010  -46.9961   53.8748 O   0  0  0  0  0  0  0  0  0  0  0  0
   21.5909  -52.7353   52.1172 C   0  0  0  0  0  0  0  0  0  0  0  0
   23.3974  -49.0044   52.2459 C   0  0  0  0  0  0  0  0  0  0  0  0
   21.5463  -49.8107   51.8928 C   0  0  0  0  0  0  0  0  0  0  0  0
  4  1  2  0
  5  4  1  0
  7  1  1  0
  8  3  1  0
  9  7  1  0
 10  8  1  0
 11  2  1  0
 12  6  1  0
 13  8  2  0
 14  2  2  0
 14  4  1  0
 14  6  1  0
 15  3  1  0
 15 11  1  0
 16  1  1  0
 16 11  2  0
M  END
>  <ID>  (1) 
conformer_0

$$$$
