
     RDKit          3D

 16 16  0  0  0  0  0  0  0  0999 V2000
   20.1143  -51.1374   51.7273 C   0  0  0  0  0  0  0  0  0  0  0  0
   21.0370  -50.0558   51.9406 C   0  0  0  0  0  0  0  0  0  0  0  0
   24.6833  -48.8610   53.6230 C   0  0  0  0  0  0  0  0  0  0  0  0
   18.4043  -49.5282   51.4874 C   0  0  0  0  0  0  0  0  0  0  0  0
   20.4708  -52.5427   51.7977 C   0  0  0  0  0  0  0  0  0  0  0  0
   18.8226  -50.5840   51.2372 O   0  0  0  0  0  0  0  0  0  0  0  0
   24.8502  -46.6213   54.1594 O   0  0  0  0  0  0  0  0  0  0  0  0
   22.3967  -53.9210   52.0625 O   0  0  0  0  0  0  0  0  0  0  0  0
   26.5231  -48.1124   53.5518 O   0  0  0  0  0  0  0  0  0  0  0  0
   22.3084  -50.2253   52.4235 C   0  0  0  0  0  0  0  0  0  0  0  0
   25.0815  -47.6641   53.8901 C   0  0  0  0  0  0  0  0  0  0  0  0
   19.5525  -53.6177   51.6447 O   0  0  0  0  0  0  0  0  0  0  0  0
   23.1795  -54.5091   52.3800 C   0  0  0  0  0  0  0  0  0  0  0  0
   21.8988  -52.5932   52.1873 C   0  0  0  0  0  0  0  0  0  0  0  0
   23.4268  -49.1423   52.8458 C   0  0  0  0  0  0  0  0  0  0  0  0
   22.7972  -51.5203   52.4337 C   0  0  0  0  0  0  0  0  0  0  0  0
  2  1  2  0
  5  1  1  0
  6  1  1  0
  6  4  1  0
 10  2  1  0
 11  3  1  0
 11  7  2  0
 11  9  1  0
 12  5  1  0
 13  8  1  0
 14  5  2  0
 14  8  1  0
 15  3  2  3
 15 10  1  0
 16 10  2  0
 16 14  1  0
M  END
>  <ID>  (1) 
conformer_0

$$$$
