
     RDKit          3D

 16 16  0  0  0  0  0  0  0  0999 V2000
   20.1022  -50.7078   51.7613 C   0  0  0  0  0  0  0  0  0  0  0  0
   22.2533  -50.1603   52.2928 C   0  0  0  0  0  0  0  0  0  0  0  0
   23.3970  -49.3802   52.3326 C   0  0  0  0  0  0  0  0  0  0  0  0
   18.4022  -49.3783   51.5609 C   0  0  0  0  0  0  0  0  0  0  0  0
   22.4326  -53.8923   52.0309 O   0  0  0  0  0  0  0  0  0  0  0  0
   25.0778  -47.1890   54.1961 O   0  0  0  0  0  0  0  0  0  0  0  0
   26.7058  -48.5244   53.4919 O   0  0  0  0  0  0  0  0  0  0  0  0
   25.3747  -48.1549   53.7712 C   0  0  0  0  0  0  0  0  0  0  0  0
   20.4251  -52.4118   51.9594 C   0  0  0  0  0  0  0  0  0  0  0  0
   22.9781  -54.7673   52.5252 C   0  0  0  0  0  0  0  0  0  0  0  0
   19.8427  -53.5317   51.8259 O   0  0  0  0  0  0  0  0  0  0  0  0
   22.6079  -51.6486   52.4346 C   0  0  0  0  0  0  0  0  0  0  0  0
   18.9312  -50.4247   51.4380 O   0  0  0  0  0  0  0  0  0  0  0  0
   24.4197  -49.1407   53.3086 C   0  0  0  0  0  0  0  0  0  0  0  0
   21.8376  -52.7868   52.2054 C   0  0  0  0  0  0  0  0  0  0  0  0
   20.8440  -50.3054   51.9978 C   0  0  0  0  0  0  0  0  0  0  0  0
  3  2  1  0
  8  6  2  0
  8  7  1  0
  9  1  2  0
 10  5  1  0
 11  9  1  0
 12  2  1  0
 13  1  1  0
 13  4  1  0
 14  3  1  0
 14  8  1  0
 15  5  1  0
 15  9  1  0
 15 12  2  0
 16  1  1  0
 16  2  2  0
M  END
>  <ID>  (1) 
conformer_0

$$$$
