
     RDKit          3D

 16 16  0  0  0  0  0  0  0  0999 V2000
   22.4484  -50.3587   52.5063 C   0  0  0  0  0  0  0  0  0  0  0  0
   20.1051  -50.8695   51.7776 C   0  0  0  0  0  0  0  0  0  0  0  0
   24.3820  -49.6678   53.5559 C   0  0  0  0  0  0  0  0  0  0  0  0
   20.5506  -52.2664   51.8851 C   0  0  0  0  0  0  0  0  0  0  0  0
   22.5991  -54.0039   51.8549 O   0  0  0  0  0  0  0  0  0  0  0  0
   22.8369  -51.6360   52.5480 C   0  0  0  0  0  0  0  0  0  0  0  0
   25.2179  -48.2608   53.7341 C   0  0  0  0  0  0  0  0  0  0  0  0
   18.4042  -49.3551   51.4658 C   0  0  0  0  0  0  0  0  0  0  0  0
   18.6395  -50.3676   51.4240 O   0  0  0  0  0  0  0  0  0  0  0  0
   25.0554  -47.1730   54.0254 O   0  0  0  0  0  0  0  0  0  0  0  0
   26.5903  -48.6668   53.5087 O   0  0  0  0  0  0  0  0  0  0  0  0
   19.7473  -53.3422   51.6658 O   0  0  0  0  0  0  0  0  0  0  0  0
   23.4380  -54.5168   52.2295 C   0  0  0  0  0  0  0  0  0  0  0  0
   21.9713  -52.7160   52.1332 C   0  0  0  0  0  0  0  0  0  0  0  0
   21.1974  -49.9294   52.0501 C   0  0  0  0  0  0  0  0  0  0  0  0
   23.3848  -48.9946   52.7320 C   0  0  0  0  0  0  0  0  0  0  0  0
  4  2  1  0
  6  1  2  0
  7  3  1  0
  9  2  1  0
  9  8  1  0
 10  7  2  0
 11  7  1  0
 12  4  1  0
 13  5  1  0
 14  4  2  0
 14  5  1  0
 14  6  1  0
 15  1  1  0
 15  2  2  0
 16  1  1  0
 16  3  1  0
M  END
>  <ID>  (1) 
conformer_0

$$$$
