
     RDKit          3D

 15 15  0  0  0  0  0  0  0  0999 V2000
   20.1185  -50.6359   51.7156 C   0  0  0  0  0  0  0  0  0  0  0  0
   22.3764  -50.1829   52.3311 C   0  0  0  0  0  0  0  0  0  0  0  0
   24.3306  -49.5750   53.2898 C   0  0  0  0  0  0  0  0  0  0  0  0
   20.5267  -52.0788   51.8112 C   0  0  0  0  0  0  0  0  0  0  0  0
   24.9895  -48.2704   53.6137 C   0  0  0  0  0  0  0  0  0  0  0  0
   26.4210  -48.3947   53.6691 O   0  0  0  0  0  0  0  0  0  0  0  0
   18.2050  -49.4406   51.4507 C   0  0  0  0  0  0  0  0  0  0  0  0
   23.0094  -54.6246   52.2465 C   0  0  0  0  0  0  0  0  0  0  0  0
   19.7314  -53.2881   51.3482 O   0  0  0  0  0  0  0  0  0  0  0  0
   24.5798  -47.2444   54.1715 O   0  0  0  0  0  0  0  0  0  0  0  0
   22.4513  -53.7047   52.3460 O   0  0  0  0  0  0  0  0  0  0  0  0
   22.7832  -51.5131   52.4642 C   0  0  0  0  0  0  0  0  0  0  0  0
   21.9197  -52.5477   52.1712 C   0  0  0  0  0  0  0  0  0  0  0  0
   23.3849  -49.0728   52.2375 C   0  0  0  0  0  0  0  0  0  0  0  0
   21.0782  -49.7673   51.9124 C   0  0  0  0  0  0  0  0  0  0  0  0
  4  1  2  0
  5  3  1  0
  6  5  1  0
  7  1  1  0
  9  4  1  0
 10  5  2  0
 11  8  1  0
 12  2  1  0
 13  4  1  0
 13 11  1  0
 13 12  2  0
 14  2  1  0
 14  3  1  0
 15  1  1  0
 15  2  2  0
M  END
>  <ID>  (1) 
conformer_0

$$$$
