
     RDKit          3D

 16 16  0  0  0  0  0  0  0  0999 V2000
   20.3723  -52.2692   51.8281 C   0  0  0  0  0  0  0  0  0  0  0  0
   22.2919  -50.5333   52.4289 C   0  0  0  0  0  0  0  0  0  0  0  0
   23.3375  -49.4384   52.8227 C   0  0  0  0  0  0  0  0  0  0  0  0
   18.3000  -49.4917   51.6229 C   0  0  0  0  0  0  0  0  0  0  0  0
   20.1588  -50.9596   51.7598 C   0  0  0  0  0  0  0  0  0  0  0  0
   24.7091  -47.1624   54.0459 O   0  0  0  0  0  0  0  0  0  0  0  0
   18.8614  -50.4273   51.4056 O   0  0  0  0  0  0  0  0  0  0  0  0
   26.7353  -48.4157   53.8748 O   0  0  0  0  0  0  0  0  0  0  0  0
   23.3086  -54.6765   52.0756 C   0  0  0  0  0  0  0  0  0  0  0  0
   19.6067  -53.4242   51.5131 O   0  0  0  0  0  0  0  0  0  0  0  0
   21.2046  -49.9818   51.8377 C   0  0  0  0  0  0  0  0  0  0  0  0
   25.4212  -48.1407   53.7975 C   0  0  0  0  0  0  0  0  0  0  0  0
   22.4465  -53.9523   51.8628 O   0  0  0  0  0  0  0  0  0  0  0  0
   24.4742  -49.1763   53.2864 C   0  0  0  0  0  0  0  0  0  0  0  0
   21.7572  -52.7881   52.0305 C   0  0  0  0  0  0  0  0  0  0  0  0
   22.8094  -51.7839   52.3472 C   0  0  0  0  0  0  0  0  0  0  0  0
  3  2  1  0
  5  1  2  0
  7  4  1  0
  7  5  1  0
 10  1  1  0
 11  2  2  0
 11  5  1  0
 12  6  2  0
 12  8  1  0
 13  9  1  0
 14  3  2  3
 14 12  1  0
 15  1  1  0
 15 13  1  0
 16  2  1  0
 16 15  2  0
M  END
>  <ID>  (1) 
conformer_0

$$$$
