
     RDKit          3D

 16 16  0  0  0  0  0  0  0  0999 V2000
   22.6450  -51.5182   52.3514 C   0  0  0  0  0  0  0  0  0  0  0  0
   20.0283  -50.7655   51.6204 C   0  0  0  0  0  0  0  0  0  0  0  0
   24.3051  -49.4895   53.2729 C   0  0  0  0  0  0  0  0  0  0  0  0
   20.4019  -52.1295   51.7044 C   0  0  0  0  0  0  0  0  0  0  0  0
   22.3958  -53.8558   51.9742 O   0  0  0  0  0  0  0  0  0  0  0  0
   18.0784  -49.5509   51.4166 C   0  0  0  0  0  0  0  0  0  0  0  0
   25.0954  -47.4706   54.0164 O   0  0  0  0  0  0  0  0  0  0  0  0
   25.2534  -48.5136   53.6927 C   0  0  0  0  0  0  0  0  0  0  0  0
   19.5253  -53.1541   51.5269 O   0  0  0  0  0  0  0  0  0  0  0  0
   18.9960  -50.2822   51.1994 O   0  0  0  0  0  0  0  0  0  0  0  0
   26.6843  -48.9719   53.5850 O   0  0  0  0  0  0  0  0  0  0  0  0
   22.3368  -50.1991   52.2115 C   0  0  0  0  0  0  0  0  0  0  0  0
   22.6062  -54.6694   52.7295 C   0  0  0  0  0  0  0  0  0  0  0  0
   21.9543  -52.6001   52.1026 C   0  0  0  0  0  0  0  0  0  0  0  0
   23.3519  -48.8926   52.3682 C   0  0  0  0  0  0  0  0  0  0  0  0
   21.0230  -49.9628   51.9687 C   0  0  0  0  0  0  0  0  0  0  0  0
  4  2  1  0
  8  3  1  0
  8  7  2  0
  9  4  1  0
 10  2  1  0
 10  6  1  0
 11  8  1  0
 12  1  2  0
 13  5  1  0
 14  1  1  0
 14  4  2  0
 14  5  1  0
 15  3  1  0
 15 12  1  0
 16  2  2  0
 16 12  1  0
M  END
>  <ID>  (1) 
conformer_0

$$$$
