
     RDKit          3D

 16 16  0  0  0  0  0  0  0  0999 V2000
   21.8183  -52.7536   52.2504 C   0  0  0  0  0  0  0  0  0  0  0  0
   22.2042  -50.1257   52.2386 C   0  0  0  0  0  0  0  0  0  0  0  0
   24.2039  -49.2299   53.1421 C   0  0  0  0  0  0  0  0  0  0  0  0
   20.6259  -52.0482   51.8997 C   0  0  0  0  0  0  0  0  0  0  0  0
   24.6066  -47.0065   54.2458 O   0  0  0  0  0  0  0  0  0  0  0  0
   26.4860  -48.3185   53.7616 O   0  0  0  0  0  0  0  0  0  0  0  0
   18.6738  -50.3411   51.2270 O   0  0  0  0  0  0  0  0  0  0  0  0
   24.9901  -48.2700   53.8981 C   0  0  0  0  0  0  0  0  0  0  0  0
   22.6138  -53.9552   52.4165 O   0  0  0  0  0  0  0  0  0  0  0  0
   18.1171  -49.0171   51.1718 C   0  0  0  0  0  0  0  0  0  0  0  0
   23.7726  -54.6112   52.0848 C   0  0  0  0  0  0  0  0  0  0  0  0
   20.9492  -49.5688   51.8056 C   0  0  0  0  0  0  0  0  0  0  0  0
   19.9862  -53.7193   51.4342 O   0  0  0  0  0  0  0  0  0  0  0  0
   20.0320  -50.7832   51.6098 C   0  0  0  0  0  0  0  0  0  0  0  0
   23.3641  -49.0046   52.2758 C   0  0  0  0  0  0  0  0  0  0  0  0
   22.7528  -51.4253   52.4920 C   0  0  0  0  0  0  0  0  0  0  0  0
  4  1  2  0
  8  3  1  0
  8  5  2  0
  8  6  1  0
  9  1  1  0
 10  7  1  0
 11  9  1  0
 12  2  1  0
 13  4  1  0
 14  4  1  0
 14  7  1  0
 14 12  2  0
 15  2  1  0
 15  3  1  0
 16  1  1  0
 16  2  2  0
M  END
>  <ID>  (1) 
conformer_0

$$$$
