
     RDKit          3D

 12 12  0  0  0  0  0  0  0  0999 V2000
   21.7898  -50.1671   52.0067 C   0  0  0  0  0  0  0  0  0  0  0  0
   20.2085  -50.6373   51.6833 C   0  0  0  0  0  0  0  0  0  0  0  0
   23.3657  -49.0869   52.5193 C   0  0  0  0  0  0  0  0  0  0  0  0
   20.3622  -52.0149   51.6790 C   0  0  0  0  0  0  0  0  0  0  0  0
   18.5097  -49.3037   51.3210 C   0  0  0  0  0  0  0  0  0  0  0  0
   22.1928  -53.9810   52.1145 O   0  0  0  0  0  0  0  0  0  0  0  0
   22.6244  -51.2792   52.2422 C   0  0  0  0  0  0  0  0  0  0  0  0
   24.8423  -47.1620   53.9865 O   0  0  0  0  0  0  0  0  0  0  0  0
   19.1166  -52.3784   51.5653 O   0  0  0  0  0  0  0  0  0  0  0  0
   24.6101  -49.0884   53.5056 C   0  0  0  0  0  0  0  0  0  0  0  0
   25.0909  -48.0930   53.8545 C   0  0  0  0  0  0  0  0  0  0  0  0
   21.7286  -52.7251   51.9883 C   0  0  0  0  0  0  0  0  0  0  0  0
  2  1  2  0
  3  1  1  0
  4  2  1  0
  5  2  1  0
  7  1  1  0
  9  4  1  0
 10  3  1  0
 11  8  2  0
 11 10  1  0
 12  4  2  0
 12  6  1  0
 12  7  1  0
M  END
>  <ID>  (1) 
conformer_0

$$$$
