
     RDKit          3D

 16 16  0  0  0  0  0  0  0  0999 V2000
   22.8730  -51.3494   52.6581 C   0  0  0  0  0  0  0  0  0  0  0  0
   20.0867  -51.0712   51.7218 C   0  0  0  0  0  0  0  0  0  0  0  0
   24.6057  -49.2102   53.5918 C   0  0  0  0  0  0  0  0  0  0  0  0
   22.1719  -50.1388   52.3504 C   0  0  0  0  0  0  0  0  0  0  0  0
   18.3067  -49.7619   51.3854 C   0  0  0  0  0  0  0  0  0  0  0  0
   18.8104  -50.5270   51.2822 O   0  0  0  0  0  0  0  0  0  0  0  0
   22.3782  -53.8050   52.2113 O   0  0  0  0  0  0  0  0  0  0  0  0
   24.2335  -47.1661   53.6008 O   0  0  0  0  0  0  0  0  0  0  0  0
   26.0835  -48.7112   53.3654 O   0  0  0  0  0  0  0  0  0  0  0  0
   20.7442  -52.3487   51.8844 C   0  0  0  0  0  0  0  0  0  0  0  0
   23.1778  -54.4231   52.4132 C   0  0  0  0  0  0  0  0  0  0  0  0
   19.6368  -53.0075   51.6699 O   0  0  0  0  0  0  0  0  0  0  0  0
   24.5454  -48.2131   53.4285 C   0  0  0  0  0  0  0  0  0  0  0  0
   21.0729  -50.0156   51.7460 C   0  0  0  0  0  0  0  0  0  0  0  0
   22.2721  -52.4619   52.2949 C   0  0  0  0  0  0  0  0  0  0  0  0
   22.8657  -48.9413   52.7122 C   0  0  0  0  0  0  0  0  0  0  0  0
  4  1  2  0
  6  2  1  0
  6  5  1  0
  9  3  1  0
 10  2  1  0
 11  7  1  0
 12 10  1  0
 13  3  1  0
 13  8  1  0
 14  2  2  0
 14  4  1  0
 15  1  1  0
 15  7  1  0
 15 10  2  0
 16  4  1  0
 16 13  1  0
M  END
>  <ID>  (1) 
conformer_0

$$$$
