
     RDKit          3D

 17 17  0  0  0  0  0  0  0  0999 V2000
   21.0914  -50.1023   51.8118 C   0  0  0  0  0  3  0  0  0  0  0  0
   20.0551  -51.0058   51.6823 C   0  0  2  0  0  0  0  0  0  0  0  0
   23.4539  -49.1973   52.3869 C   0  0  0  0  0  0  0  0  0  0  0  0
   22.3468  -50.3573   52.1942 C   0  0  0  0  0  0  0  0  0  0  0  0
   21.6497  -54.1284   52.2383 O   0  0  0  0  0  0  0  0  0  0  0  0
   18.1989  -49.6352   51.6602 C   0  0  0  0  0  0  0  0  0  0  0  0
   18.8086  -49.8657   51.0839 O   0  0  0  0  0  0  0  0  0  0  0  0
   25.2278  -47.3136   54.1262 O   0  0  0  0  0  0  0  0  0  0  0  0
   20.5245  -52.4499   51.8127 C   0  0  0  0  0  0  0  0  0  0  0  0
   26.9403  -48.7365   53.5028 O   0  0  0  0  0  0  0  0  0  0  0  0
   25.5798  -48.3136   53.7253 C   0  0  0  0  0  0  0  0  0  0  0  0
   22.9220  -54.6234   52.2064 C   0  0  0  0  0  0  0  0  0  0  0  0
   19.6787  -53.6122   51.6026 O   0  0  0  0  0  0  0  0  0  0  0  0
   24.4786  -49.2325   53.2682 C   0  0  0  0  0  0  0  0  0  0  0  0
   22.7683  -51.6165   52.4101 C   0  0  0  0  0  0  0  0  0  0  0  0
   19.0756  -51.6634   51.5183 O   0  0  0  0  0  0  0  0  0  0  0  0
   21.8811  -52.7467   52.1565 C   0  0  0  0  0  0  0  0  0  0  0  0
  2  1  1  0
  4  1  1  0
  4  3  1  0
  7  2  1  0
  7  6  1  0
  9  2  1  0
 11  8  2  0
 11 10  1  0
 12  5  1  0
 13  9  1  0
 14  3  2  3
 14 11  1  0
 15  4  2  0
  2 16  1  1
 17  5  1  0
 17  9  2  0
 17 15  1  0
M  RAD  1   1   2
M  END
>  <ID>  (1) 
conformer_0

$$$$
