
     RDKit          3D

 16 16  0  0  0  0  0  0  0  0999 V2000
   22.3480  -50.1100   52.1158 C   0  0  0  0  0  0  0  0  0  0  0  0
   20.0703  -50.8772   51.7735 C   0  0  0  0  0  0  0  0  0  0  0  0
   23.5715  -49.3416   52.5612 C   0  0  0  0  0  0  0  0  0  0  0  0
   20.5996  -52.1147   51.9282 C   0  0  0  0  0  0  0  0  0  0  0  0
   18.2608  -49.4731   51.5323 C   0  0  0  0  0  0  0  0  0  0  0  0
   22.7156  -53.7600   52.0898 O   0  0  0  0  0  0  0  0  0  0  0  0
   18.5131  -50.4474   51.3893 O   0  0  0  0  0  0  0  0  0  0  0  0
   21.0656  -49.7148   51.7145 C   0  0  0  0  0  0  0  0  0  0  0  0
   25.2188  -48.1127   53.7579 C   0  0  0  0  0  0  0  0  0  0  0  0
   23.5448  -54.5047   52.4492 C   0  0  0  0  0  0  0  0  0  0  0  0
   19.7555  -53.1760   51.7305 O   0  0  0  0  0  0  0  0  0  0  0  0
   26.0336  -48.4824   54.2911 O   0  0  0  0  0  0  0  0  0  0  0  0
   25.0148  -47.0830   53.6758 O   0  0  0  0  0  0  0  0  0  0  0  0
   22.0068  -52.5494   52.2147 C   0  0  0  0  0  0  0  0  0  0  0  0
   24.4602  -49.2236   53.4432 C   0  0  0  0  0  0  0  0  0  0  0  0
   22.8163  -51.3087   52.3922 C   0  0  0  0  0  0  0  0  0  0  0  0
  3  1  1  0
  4  2  2  0
  7  2  1  0
  7  5  1  0
  8  1  2  0
  8  2  1  0
 10  6  1  0
 11  4  1  0
 12  9  1  0
 13  9  2  0
 14  4  1  0
 14  6  1  0
 15  3  1  0
 15  9  1  0
 16  1  1  0
 16 14  2  0
M  END
>  <ID>  (1) 
conformer_0

$$$$
