
     RDKit          3D

 16 16  0  0  0  0  0  0  0  0999 V2000
   22.8573  -51.6278   52.5241 C   0  0  0  0  0  0  0  0  0  0  0  0
   20.1566  -50.9368   51.7454 C   0  0  0  0  0  0  0  0  0  0  0  0
   24.3356  -49.7488   53.3101 C   0  0  0  0  0  0  0  0  0  0  0  0
   22.5086  -50.3592   52.4591 C   0  0  0  0  0  0  0  0  0  0  0  0
   18.5896  -49.3387   51.4606 C   0  0  0  0  0  0  0  0  0  0  0  0
   22.2997  -54.0624   52.0704 O   0  0  0  0  0  0  0  0  0  0  0  0
   20.6620  -52.2974   51.7727 C   0  0  0  0  0  0  0  0  0  0  0  0
   18.9103  -50.6474   51.3460 O   0  0  0  0  0  0  0  0  0  0  0  0
   26.2068  -48.9164   54.0722 O   0  0  0  0  0  0  0  0  0  0  0  0
   23.5712  -54.1942   52.2705 C   0  0  0  0  0  0  0  0  0  0  0  0
   19.6744  -53.2846   51.7051 O   0  0  0  0  0  0  0  0  0  0  0  0
   25.0909  -48.5299   53.7095 C   0  0  0  0  0  0  0  0  0  0  0  0
   24.7177  -47.4143   53.8664 O   0  0  0  0  0  0  0  0  0  0  0  0
   21.2229  -50.0169   52.2148 C   0  0  0  0  0  0  0  0  0  0  0  0
   22.0144  -52.7078   52.1537 C   0  0  0  0  0  0  0  0  0  0  0  0
   23.4060  -49.0224   52.2821 C   0  0  0  0  0  0  0  0  0  0  0  0
  4  1  2  0
  7  2  1  0
  8  2  1  0
  8  5  1  0
 10  6  1  0
 11  7  1  0
 12  3  1  0
 12  9  1  0
 13 12  2  0
 14  2  2  0
 14  4  1  0
 15  1  1  0
 15  6  1  0
 15  7  2  0
 16  3  1  0
 16  4  1  0
M  END
>  <ID>  (1) 
conformer_0

$$$$
