
     RDKit          3D

 14 14  0  0  0  0  0  0  0  0999 V2000
   20.2198  -51.0537   51.7301 C   0  0  2  0  0  0  0  0  0  0  0  0
   21.7534  -50.0772   52.1060 C   0  0  0  0  0  0  0  0  0  0  0  0
   23.3537  -48.9799   52.6637 C   0  0  0  0  0  0  0  0  0  0  0  0
   21.2813  -52.4288   51.9356 C   0  0  0  0  0  0  0  0  0  0  0  0
   18.1506  -49.4877   51.3980 C   0  0  0  0  0  0  0  0  0  0  0  0
   26.3664  -48.3836   53.7437 O   0  0  0  0  0  0  0  0  0  0  0  0
   22.6982  -51.2513   52.4002 C   0  0  0  0  0  0  0  0  0  0  0  0
   22.9045  -54.7759   52.0278 C   0  0  0  0  0  0  0  0  0  0  0  0
   24.7187  -46.6462   53.8222 O   0  0  0  0  0  0  0  0  0  0  0  0
   19.0565  -49.6671   51.3934 O   0  0  0  0  0  0  0  0  0  0  0  0
   19.1474  -52.2825   51.7011 O   0  0  0  0  0  0  0  0  0  0  0  0
   25.0860  -47.7648   53.8338 C   0  0  0  0  0  0  0  0  0  0  0  0
   24.3586  -48.9312   53.4977 C   0  0  0  0  0  0  0  0  0  0  0  0
   21.6722  -53.7920   51.8965 N   0  0  0  0  0  0  0  0  0  0  0  0
  2  1  1  0
  3  2  1  0
  4  1  1  0
  7  2  2  0
  7  4  1  0
 10  1  1  0
 10  5  1  0
  1 11  1  1
 12  6  1  0
 12  9  2  0
 13  3  2  3
 13 12  1  0
 14  4  2  3
 14  8  1  0
M  END
>  <ID>  (1) 
conformer_0

$$$$
