
     RDKit          3D

 17 17  0  0  0  0  0  0  0  0999 V2000
   21.8567  -50.2186   52.5498 C   0  0  0  0  0  0  0  0  0  0  0  0
   19.9816  -50.8062   51.6027 C   0  0  0  0  0  0  0  0  0  0  0  0
   23.3053  -49.1579   52.5197 C   0  0  0  0  0  0  0  0  0  0  0  0
   20.4997  -52.2654   51.6897 C   0  0  0  0  0  0  0  0  0  0  0  0
   22.3994  -53.7358   52.6054 O   0  0  0  0  0  0  0  0  0  0  0  0
   18.5838  -49.1040   51.3685 C   0  0  0  0  0  0  0  0  0  0  0  0
   24.7485  -47.5753   54.1088 O   0  0  0  0  0  0  0  0  0  0  0  0
   18.7425  -50.3309   51.3034 O   0  0  0  0  0  0  0  0  0  0  0  0
   25.0864  -48.5006   53.7132 C   0  0  0  0  0  0  0  0  0  0  0  0
   20.9654  -49.8509   51.6760 C   0  0  0  0  0  0  0  0  0  0  0  0
   19.8493  -53.2717   51.1402 O   0  0  0  0  0  0  0  0  0  0  0  0
   24.4347  -54.3814   52.0944 C   0  0  0  0  0  0  0  0  0  0  0  0
   23.1595  -54.2282   52.1713 C   0  0  0  0  0  0  0  0  0  0  0  0
   24.0311  -50.0872   53.2291 C   0  0  0  0  0  0  0  0  0  0  0  0
   21.9820  -52.4673   52.2045 C   0  0  0  0  0  0  0  0  0  0  0  0
   26.4464  -49.2064   53.9029 C   0  0  0  0  0  0  0  0  0  0  0  0
   22.7765  -51.3141   52.1754 C   0  0  0  0  0  0  0  0  0  0  0  0
  3  1  1  0
  4  2  2  0
  8  2  1  0
  8  6  1  0
  9  7  2  0
 10  1  2  0
 10  2  1  0
 11  4  1  0
 13  5  1  0
 13 12  2  3
 14  3  1  0
 14  9  1  0
 15  4  1  0
 15  5  1  0
 16  9  1  0
 17  1  1  0
 17 15  2  0
M  END
>  <ID>  (1) 
conformer_0

$$$$
