
     RDKit          3D

 13 13  0  0  0  0  0  0  0  0999 V2000
   20.2647  -51.4821   51.7977 C   0  0  0  0  0  0  0  0  0  0  0  0
   22.6120  -51.1244   52.5317 C   0  0  0  0  0  0  0  0  0  0  0  0
   23.5321  -49.2686   52.8848 C   0  0  0  0  0  0  0  0  0  0  0  0
   21.5723  -50.1879   52.2511 C   0  0  0  0  0  0  0  0  0  0  0  0
   21.5459  -52.5575   52.0847 C   0  0  0  0  0  0  0  0  0  0  0  0
   22.8225  -53.7142   51.9838 O   0  0  0  0  0  0  0  0  0  0  0  0
   23.5453  -54.5769   52.2628 C   0  0  0  0  0  0  0  0  0  0  0  0
   18.6280  -50.9123   51.2610 O   0  0  0  0  0  0  0  0  0  0  0  0
   18.5316  -49.8184   51.2605 C   0  0  0  0  0  0  0  0  0  0  0  0
   24.7660  -48.3153   53.5237 C   0  0  0  0  0  0  0  0  0  0  0  0
   26.2724  -49.0237   53.5751 O   0  0  0  0  0  0  0  0  0  0  0  0
   25.0753  -47.6294   53.6661 O   0  0  0  0  0  0  0  0  0  0  0  0
   19.9577  -53.5255   51.6625 O   0  0  0  0  0  0  0  0  0  0  0  0
  3  2  1  0
  4  1  1  0
  4  2  2  0
  5  1  1  0
  5  2  1  0
  6  5  1  0
  7  6  1  0
  8  1  1  0
  9  8  1  0
 10  3  1  0
 11 10  1  0
 12 10  2  0
 13  5  1  0
M  END
>  <ID>  (1) 
conformer_0

$$$$
