
     RDKit          3D

 16 16  0  0  0  0  0  0  0  0999 V2000
   20.0564  -50.9412   51.6788 C   0  0  0  0  0  0  0  0  0  0  0  0
   21.0696  -49.8416   51.8426 C   0  0  0  0  0  0  0  0  0  0  0  0
   24.1918  -49.4547   53.1612 C   0  0  0  0  0  0  0  0  0  0  0  0
   20.7654  -52.1067   51.8091 C   0  0  0  0  0  0  0  0  0  0  0  0
   18.4550  -49.2348   51.3817 C   0  0  0  0  0  0  0  0  0  0  0  0
   22.4971  -53.8966   52.2673 O   0  0  0  0  0  0  0  0  0  0  0  0
   22.2604  -50.1443   52.1938 C   0  0  0  0  0  0  0  0  0  0  0  0
   18.7828  -50.5036   51.3950 O   0  0  0  0  0  0  0  0  0  0  0  0
   24.6750  -47.3447   53.8654 O   0  0  0  0  0  0  0  0  0  0  0  0
   22.9905  -54.5263   52.1202 C   0  0  0  0  0  0  0  0  0  0  0  0
   24.9443  -48.2785   53.5241 C   0  0  0  0  0  0  0  0  0  0  0  0
   26.0444  -48.7953   53.5761 O   0  0  0  0  0  0  0  0  0  0  0  0
   19.4774  -52.5465   51.7339 O   0  0  0  0  0  0  0  0  0  0  0  0
   22.1700  -52.4894   52.2275 C   0  0  0  0  0  0  0  0  0  0  0  0
   23.1098  -48.8692   52.3458 C   0  0  0  0  0  0  0  0  0  0  0  0
   22.9985  -51.3002   52.5910 C   0  0  0  0  0  0  0  0  0  0  0  0
  2  1  2  0
  4  1  1  0
  7  2  1  0
  8  1  1  0
  8  5  1  0
 10  6  1  0
 11  3  1  0
 11  9  2  0
 12 11  1  0
 13  4  1  0
 14  4  2  0
 14  6  1  0
 15  3  1  0
 15  7  1  0
 16  7  2  0
 16 14  1  0
M  END
>  <ID>  (1) 
conformer_0

$$$$
