
     RDKit          3D

 16 16  0  0  0  0  0  0  0  0999 V2000
   20.0661  -50.8438   51.7723 C   0  0  0  0  0  0  0  0  0  0  0  0
   22.8176  -51.5257   52.5137 C   0  0  0  0  0  0  0  0  0  0  0  0
   24.3808  -49.4330   53.3625 C   0  0  0  0  0  0  0  0  0  0  0  0
   20.5883  -52.1224   51.6756 C   0  0  0  0  0  0  0  0  0  0  0  0
   18.7724  -50.3791   51.5623 O   0  0  0  0  0  0  0  0  0  0  0  0
   18.1466  -49.5253   51.5044 C   0  0  0  0  0  0  0  0  0  0  0  0
   23.5960  -54.3266   52.1271 C   0  0  0  0  0  0  0  0  0  0  0  0
   22.3472  -50.2745   52.3540 C   0  0  0  0  0  0  0  0  0  0  0  0
   25.2309  -48.2515   53.8421 C   0  0  0  0  0  0  0  0  0  0  0  0
   26.1795  -48.4356   53.5989 O   0  0  0  0  0  0  0  0  0  0  0  0
   19.6192  -52.9018   51.3126 O   0  0  0  0  0  0  0  0  0  0  0  0
   22.6231  -53.6619   51.8579 O   0  0  0  0  0  0  0  0  0  0  0  0
   23.4529  -49.0138   52.8789 C   0  0  0  0  0  0  0  0  0  0  0  0
   24.9860  -47.2598   54.1284 O   0  0  0  0  0  0  0  0  0  0  0  0
   22.0777  -52.5403   52.0471 C   0  0  0  0  0  0  0  0  0  0  0  0
   21.0200  -49.9445   52.2136 C   0  0  0  0  0  0  0  0  0  0  0  0
  4  1  2  0
  5  1  1  0
  6  5  1  0
  8  2  1  0
  9  3  1  0
 10  9  1  0
 11  4  1  0
 12  7  1  0
 13  3  1  0
 13  8  1  0
 14  9  2  0
 15  2  2  0
 15  4  1  0
 15 12  1  0
 16  1  1  0
 16  8  2  0
M  END
>  <ID>  (1) 
conformer_0

$$$$
