
     RDKit          3D

 17 18  0  0  0  0  0  0  0  0999 V2000
   21.1753  -49.9333   51.7219 C   0  0  0  0  0  0  0  0  0  0  0  0
   20.0150  -50.9639   51.8051 C   0  0  0  0  0  0  0  0  0  0  0  0
   24.3058  -49.7147   53.5128 C   0  0  0  0  0  0  0  0  0  0  0  0
   20.5786  -52.2397   51.9670 C   0  0  0  0  0  3  0  0  0  0  0  0
   18.0469  -49.6617   51.4342 C   0  0  0  0  0  0  0  0  0  0  0  0
   22.3244  -50.3112   52.2893 C   0  0  0  0  0  0  0  0  0  0  0  0
   21.5022  -54.2680   52.4412 O   0  0  0  0  0  0  0  0  0  0  0  0
   18.8864  -50.6898   51.6921 O   0  0  0  0  0  0  0  0  0  0  0  0
   25.2256  -48.4790   53.7927 C   0  0  0  0  0  0  0  0  0  0  0  0
   26.5274  -48.7499   53.5751 O   0  0  0  0  0  0  0  0  0  0  0  0
   24.8190  -47.3589   53.8774 O   0  0  0  0  0  0  0  0  0  0  0  0
   23.0198  -54.7581   52.2276 C   0  0  0  0  0  0  0  0  0  0  0  0
   19.6389  -53.1028   51.8345 O   0  0  0  0  0  0  0  0  0  0  0  0
   23.3511  -49.0599   52.5013 C   0  0  0  0  0  0  0  0  0  0  0  0
   22.0419  -52.6438   52.0955 C   0  0  0  0  0  0  0  0  0  0  0  0
   22.9595  -51.5633   52.6093 C   0  0  0  0  0  0  0  0  0  0  0  0
   23.0813  -53.7310   51.6053 O   0  0  0  0  0  0  0  0  0  0  0  0
  2  1  2  0
  4  2  1  0
  6  1  1  0
  8  2  1  0
  8  5  1  0
  9  3  1  0
 10  9  1  0
 11  9  2  0
 12  7  1  0
 13  4  1  0
 14  3  1  0
 14  6  1  0
 15  4  1  0
 15  7  1  0
 16  6  2  0
 16 15  1  0
 17 12  1  0
 17 15  1  0
M  RAD  1   4   2
M  END
>  <ID>  (1) 
conformer_0

$$$$
