
     RDKit          3D

 11 11  0  0  0  0  0  0  0  0999 V2000
   20.0050  -51.7247   51.7723 C   0  0  0  0  0  0  0  0  0  0  0  0
   22.2333  -50.9647   52.3741 C   0  0  0  0  0  0  0  0  0  0  0  0
   23.7265  -49.4400   52.9636 C   0  0  0  0  0  3  0  0  0  0  0  0
   21.4851  -52.5960   52.0822 C   0  0  0  0  0  0  0  0  0  0  0  0
   19.6579  -53.5009   51.5391 O   0  0  0  0  0  0  0  0  0  0  0  0
   18.6027  -50.6447   51.4690 O   0  0  0  0  0  0  0  0  0  0  0  0
   18.0946  -49.9713   51.4161 C   0  0  0  0  0  0  0  0  0  0  0  0
   21.1501  -50.3053   52.1006 C   0  0  0  0  0  0  0  0  0  0  0  0
   25.1403  -47.2704   53.9621 O   0  0  0  0  0  0  0  0  0  0  0  0
   25.2877  -48.2892   53.6049 C   0  0  0  0  0  0  0  0  0  0  0  0
   26.5162  -48.6513   53.3856 O   0  0  0  0  0  0  0  0  0  0  0  0
  3  2  2  3
  4  1  1  0
  4  2  1  0
  5  1  1  0
  6  1  1  0
  7  6  1  0
  8  1  1  0
  8  2  1  0
 10  3  1  0
 10  9  2  0
 11 10  1  0
M  RAD  1   3   2
M  END
>  <ID>  (1) 
conformer_0

$$$$
