
     RDKit          3D

 17 17  0  0  0  0  0  0  0  0999 V2000
   22.7589  -51.4974   52.3228 C   0  0  0  0  0  0  0  0  0  0  0  0
   23.4323  -49.4015   52.8178 C   0  0  0  0  0  0  0  0  0  0  0  0
   20.0367  -50.8540   51.7622 C   0  0  0  0  0  0  0  0  0  0  0  0
   18.4599  -49.3754   51.5052 C   0  0  0  0  0  0  0  0  0  0  0  0
   20.4330  -52.2803   51.6699 C   0  0  0  0  0  0  0  0  0  0  0  0
   18.6954  -50.4723   51.4093 O   0  0  0  0  0  0  0  0  0  0  0  0
   22.2513  -53.7532   51.7691 O   0  0  0  0  0  0  0  0  0  0  0  0
   22.1896  -50.2312   52.5404 C   0  0  0  0  0  0  0  0  0  0  0  0
   25.7687  -48.1754   53.8742 C   0  0  0  0  0  0  0  0  0  0  0  0
   25.1827  -47.1519   54.0460 O   0  0  0  0  0  0  0  0  0  0  0  0
   22.9950  -54.4168   52.2707 C   0  0  0  0  0  0  0  0  0  0  0  0
   26.7572  -48.2128   53.7465 O   0  0  0  0  0  0  0  0  0  0  0  0
   24.7399  -49.1742   53.3836 C   0  0  0  0  0  0  0  0  0  0  0  0
   19.5140  -53.4546   51.0981 O   0  0  0  0  0  0  0  0  0  0  0  0
   21.8168  -52.4549   52.0588 C   0  0  0  0  0  3  0  0  0  0  0  0
   19.5818  -53.2948   51.3043 F   0  0  0  0  0  0  0  0  0  0  0  0
   20.9021  -49.8983   52.1434 C   0  0  0  0  0  0  0  0  0  0  0  0
  5  3  1  0
  6  3  1  0
  6  4  1  0
  8  1  2  0
  8  2  1  0
 10  9  2  0
 11  7  1  0
 12  9  1  0
 13  2  1  0
 13  9  1  0
 14  5  1  0
 15  1  1  0
 15  5  1  0
 15  7  1  0
 16  5  1  0
 17  3  2  0
 17  8  1  0
M  RAD  1  15   2
M  END
>  <ID>  (1) 
conformer_0

$$$$
