
     RDKit          3D

 14 14  0  0  0  0  0  0  0  0999 V2000
   19.9615  -50.9922   51.8357 C   0  0  0  0  0  0  0  0  0  0  0  0
   21.5136  -50.1121   52.0511 C   0  0  0  0  0  0  0  0  0  0  0  0
   24.5297  -49.8540   53.2589 C   0  0  0  0  0  0  0  0  0  0  0  0
   20.3610  -52.2645   51.8388 C   0  0  0  0  0  0  0  0  0  0  0  0
   18.4637  -49.0807   51.4126 C   0  0  0  0  0  0  0  0  0  0  0  0
   24.6394  -47.3341   53.5737 O   0  0  0  0  0  0  0  0  0  0  0  0
   18.5935  -50.1793   51.7205 O   0  0  0  0  0  0  0  0  0  0  0  0
   25.5287  -48.3867   53.5982 C   0  0  0  0  0  0  0  0  0  0  0  0
   22.5601  -51.0601   52.3213 C   0  0  0  0  0  0  0  0  0  0  0  0
   26.7838  -48.3313   53.6011 O   0  0  0  0  0  0  0  0  0  0  0  0
   22.4847  -53.9619   52.2891 O   0  0  0  0  0  0  0  0  0  0  0  0
   19.5674  -53.3823   51.5166 O   0  0  0  0  0  0  0  0  0  0  0  0
   21.8352  -52.6361   52.1083 C   0  0  0  0  0  0  0  0  0  0  0  0
   23.4383  -49.3939   52.4510 C   0  0  0  0  0  0  0  0  0  0  0  0
  2  1  2  0
  4  1  1  0
  7  1  1  0
  7  5  1  0
  8  3  1  0
  8  6  2  0
  9  2  1  0
 10  8  1  0
 12  4  1  0
 13  4  1  0
 13  9  2  0
 13 11  1  0
 14  3  1  0
 14  9  1  0
M  END
>  <ID>  (1) 
conformer_0

$$$$
