
     RDKit          3D

 16 16  0  0  0  0  0  0  0  0999 V2000
   22.9432  -51.5266   52.5861 C   0  0  0  0  0  0  0  0  0  0  0  0
   20.2026  -50.9393   51.8102 C   0  0  0  0  0  0  0  0  0  0  0  0
   23.4140  -49.3090   52.6728 C   0  0  0  0  0  0  0  0  0  0  0  0
   20.5991  -52.2470   51.8370 C   0  0  0  0  0  0  0  0  0  0  0  0
   18.5182  -49.4429   51.4355 C   0  0  0  0  0  0  0  0  0  0  0  0
   22.4982  -53.8257   52.1562 O   0  0  0  0  0  0  0  0  0  0  0  0
   18.9913  -50.6012   51.2812 O   0  0  0  0  0  0  0  0  0  0  0  0
   22.5167  -50.3291   52.4645 C   0  0  0  0  0  0  0  0  0  0  0  0
   25.4503  -48.2577   53.8895 C   0  0  0  0  0  0  0  0  0  0  0  0
   23.5270  -54.3343   51.9091 C   0  0  0  0  0  0  0  0  0  0  0  0
   25.3770  -47.2554   54.1997 O   0  0  0  0  0  0  0  0  0  0  0  0
   26.5495  -48.7206   53.9191 O   0  0  0  0  0  0  0  0  0  0  0  0
   19.8064  -53.2585   51.7859 O   0  0  0  0  0  0  0  0  0  0  0  0
   22.0474  -52.5367   52.1930 C   0  0  0  0  0  0  0  0  0  0  0  0
   24.6092  -49.3088   53.3531 C   0  0  0  0  0  0  0  0  0  0  0  0
   21.2169  -49.9801   52.2306 C   0  0  0  0  0  0  0  0  0  0  0  0
  4  2  1  0
  7  2  1  0
  7  5  1  0
  8  1  2  0
  8  3  1  0
 10  6  1  0
 11  9  2  0
 12  9  1  0
 13  4  1  0
 14  1  1  0
 14  4  2  0
 14  6  1  0
 15  3  2  3
 15  9  1  0
 16  2  2  0
 16  8  1  0
M  END
>  <ID>  (1) 
conformer_0

$$$$
