
     RDKit          3D

 16 16  0  0  0  0  0  0  0  0999 V2000
   23.4154  -49.5814   52.7802 C   0  0  0  0  0  0  0  0  0  0  0  0
   22.4719  -50.3268   52.4002 C   0  0  0  0  0  0  0  0  0  0  0  0
   20.1177  -50.8079   51.7372 C   0  0  0  0  0  0  0  0  0  0  0  0
   20.1655  -52.2622   51.6824 C   0  0  0  0  0  0  0  0  0  0  0  0
   21.9350  -54.0203   52.3126 O   0  0  0  0  0  0  0  0  0  0  0  0
   18.5347  -49.2394   51.4379 C   0  0  0  0  0  0  0  0  0  0  0  0
   24.9250  -47.0834   54.2835 O   0  0  0  0  0  0  0  0  0  0  0  0
   26.5757  -48.5544   53.5161 O   0  0  0  0  0  0  0  0  0  0  0  0
   18.7516  -50.4174   51.3644 O   0  0  0  0  0  0  0  0  0  0  0  0
   25.2488  -48.1021   53.8546 C   0  0  0  0  0  0  0  0  0  0  0  0
   23.0276  -54.5363   52.2537 C   0  0  0  0  0  0  0  0  0  0  0  0
   21.1498  -50.1700   51.9174 C   0  0  0  0  0  0  0  0  0  0  0  0
   19.3028  -53.1292   51.9467 O   0  0  0  0  0  0  0  0  0  0  0  0
   24.1507  -48.9058   53.4966 C   0  0  0  0  0  0  0  0  0  0  0  0
   21.6707  -52.6944   52.1090 C   0  0  0  0  0  0  0  0  0  0  0  0
   22.7025  -51.7018   52.3961 C   0  0  0  0  0  0  0  0  0  0  0  0
  2  1  1  0
  4  3  2  0
  9  3  1  0
  9  6  1  0
 10  7  2  0
 10  8  1  0
 11  5  1  0
 12  2  2  0
 12  3  1  0
 13  4  1  0
 14  1  3  0
 14 10  1  0
 15  4  1  0
 15  5  1  0
 16  2  1  0
 16 15  2  0
M  END
>  <ID>  (1) 
conformer_0

$$$$
