
     RDKit          3D

 15 15  0  0  0  0  0  0  0  0999 V2000
   20.1692  -50.8749   51.7964 C   0  0  0  0  0  0  0  0  0  0  0  0
   21.1801  -50.1239   52.0825 C   0  0  0  0  0  0  0  0  0  0  0  0
   24.1229  -49.5798   53.2193 C   0  0  0  0  0  0  0  0  0  0  0  0
   18.4807  -49.5459   51.6293 C   0  0  0  0  0  0  0  0  0  0  0  0
   22.2289  -53.9405   52.0108 O   0  0  0  0  0  0  0  0  0  0  0  0
   22.4071  -50.5205   52.4578 C   0  0  0  0  0  0  0  0  0  0  0  0
   20.4477  -52.3515   51.7338 C   0  0  0  0  0  0  0  0  0  0  0  0
   25.1338  -48.2912   53.8433 C   0  0  0  0  0  0  0  0  0  0  0  0
   22.9082  -54.7942   52.1692 C   0  0  0  0  0  0  0  0  0  0  0  0
   19.4585  -52.8144   51.5265 O   0  0  0  0  0  0  0  0  0  0  0  0
   26.2478  -48.2264   53.8290 O   0  0  0  0  0  0  0  0  0  0  0  0
   19.0432  -50.1903   51.1282 O   0  0  0  0  0  0  0  0  0  0  0  0
   23.3452  -48.7720   52.7564 C   0  0  0  0  0  0  0  0  0  0  0  0
   22.8295  -51.8218   52.5389 C   0  0  0  0  0  0  0  0  0  0  0  0
   21.9712  -52.7453   52.1850 C   0  0  0  0  0  0  0  0  0  0  0  0
  2  1  2  0
  6  2  1  0
  7  1  1  0
  8  3  1  0
  9  5  1  0
 10  7  1  0
 11  8  1  0
 12  1  1  0
 12  4  1  0
 13  3  1  0
 13  6  1  0
 14  6  2  0
 15  5  1  0
 15  7  2  0
 15 14  1  0
M  END
>  <ID>  (1) 
conformer_0

$$$$
