
     RDKit          3D

 13 13  0  0  0  0  0  0  0  0999 V2000
   20.0633  -50.9027   51.6193 C   0  0  0  0  0  0  0  0  0  0  0  0
   21.5258  -50.1334   52.0693 C   0  0  0  0  0  0  0  0  0  0  0  0
   23.7251  -49.5196   53.0262 C   0  0  0  0  0  3  0  0  0  0  0  0
   20.3355  -52.3036   51.8596 C   0  0  1  0  0  0  0  0  0  0  0  0
   22.2301  -53.9891   52.0116 O   0  0  0  0  0  0  0  0  0  0  0  0
   24.9967  -48.5191   53.8059 C   0  0  0  0  0  0  0  0  0  0  0  0
   19.3734  -53.3125   51.7068 O   0  0  0  0  0  0  0  0  0  0  0  0
   18.4916  -49.4458   51.2940 C   0  0  0  0  0  0  0  0  0  0  0  0
   25.1861  -47.7537   54.1891 O   0  0  0  0  0  0  0  0  0  0  0  0
   22.5832  -50.9651   52.4070 C   0  0  0  0  0  0  0  0  0  0  0  0
   26.3021  -48.9389   53.5934 O   0  0  0  0  0  0  0  0  0  0  0  0
   22.3601  -54.8195   52.2212 C   0  0  0  0  0  0  0  0  0  0  0  0
   21.9173  -52.5244   52.1000 C   0  0  2  0  0  0  0  0  0  0  0  0
  2  1  2  0
  4  1  1  0
  6  3  1  0
  4  7  1  6
  8  1  1  0
  9  6  2  0
 10  2  1  0
 10  3  2  3
 11  6  1  0
 12  5  1  0
 13  4  1  0
 13  5  1  1
 13 10  1  0
M  RAD  1   3   2
M  END
>  <ID>  (1) 
conformer_0

$$$$
