
     RDKit          3D

 14 14  0  0  0  0  0  0  0  0999 V2000
   22.6277  -51.1325   52.4496 C   0  0  0  0  0  0  0  0  0  0  0  0
   20.1083  -50.5850   51.9198 C   0  0  0  0  0  0  0  0  0  0  0  0
   23.6347  -49.5622   52.8444 C   0  0  0  0  0  0  0  0  0  0  0  0
   22.9003  -54.3775   52.0254 C   0  0  0  0  0  0  0  0  0  0  0  0
   18.1398  -49.4398   51.3403 C   0  0  0  0  0  0  0  0  0  0  0  0
   26.2459  -48.4909   53.5242 O   0  0  0  0  0  0  0  0  0  0  0  0
   20.2689  -52.0588   51.9664 C   0  0  0  0  0  0  0  0  0  0  0  0
   24.9831  -48.7914   53.7832 C   0  0  0  0  0  0  0  0  0  0  0  0
   22.3256  -53.3841   51.7646 O   0  0  0  0  0  0  0  0  0  0  0  0
   23.7042  -47.4949   53.2597 O   0  0  0  0  0  0  0  0  0  0  0  0
   18.9889  -49.9611   51.3802 O   0  0  0  0  0  0  0  0  0  0  0  0
   19.6797  -53.2694   51.3260 O   0  0  0  0  0  0  0  0  0  0  0  0
   21.6586  -50.0642   52.3542 C   0  0  0  0  0  0  0  0  0  0  0  0
   21.7818  -52.3878   52.2194 C   0  0  0  0  0  0  0  0  0  0  0  0
  3  1  1  0
  7  2  2  0
  8  3  1  0
  8  6  1  0
  9  4  1  0
 10  8  1  0
 11  2  1  0
 11  5  1  0
 12  7  1  0
 13  1  2  0
 13  2  1  0
 14  1  1  0
 14  7  1  0
 14  9  1  0
M  END
>  <ID>  (1) 
conformer_0

$$$$
