
     RDKit          3D

 17 17  0  0  0  0  0  0  0  0999 V2000
   21.2803  -49.5961   51.6965 C   0  0  0  0  0  0  0  0  0  0  0  0
   20.8460  -52.6546   51.9170 C   0  0  0  0  0  0  0  0  0  0  0  0
   23.3181  -49.2393   52.4631 C   0  0  0  0  0  0  0  0  0  0  0  0
   19.9069  -51.5462   51.4348 C   0  0  0  0  0  0  0  0  0  0  0  0
   22.0849  -54.1578   52.2532 O   0  0  0  0  0  0  0  0  0  0  0  0
   18.3498  -49.2729   51.5082 C   0  0  0  0  0  0  0  0  0  0  0  0
   24.9321  -47.4679   53.7442 O   0  0  0  0  0  0  0  0  0  0  0  0
   26.8428  -48.9016   53.7322 O   0  0  0  0  0  0  0  0  0  0  0  0
   18.5446  -50.3872   51.4509 O   0  0  0  0  0  0  0  0  0  0  0  0
   22.3601  -50.3521   52.1139 C   0  0  0  0  0  0  0  0  0  0  0  0
   25.5081  -48.4194   53.7328 C   0  0  0  0  0  0  0  0  0  0  0  0
   19.5274  -53.2196   51.8093 O   0  0  0  0  0  0  0  0  0  0  0  0
   22.2877  -55.1003   52.5949 C   0  0  0  0  0  0  0  0  0  0  0  0
   20.3403  -50.3645   51.7594 C   0  0  0  0  0  0  0  0  0  0  0  0
   24.3578  -49.6417   53.3443 C   0  0  0  0  0  0  0  0  0  0  0  0
   22.7439  -51.5899   52.3103 C   0  0  0  0  0  0  0  0  0  0  0  0
   22.0812  -52.5950   52.0284 C   0  0  0  0  0  0  0  0  0  0  0  0
  4  2  2  0
  9  4  1  0
  9  6  1  0
 10  1  2  0
 10  3  1  0
 11  7  2  0
 11  8  1  0
 12  2  1  0
 13  5  1  0
 14  1  1  0
 14  4  1  0
 15  3  1  0
 15 11  1  0
 16 10  1  0
 17  2  1  0
 17  5  1  0
 17 16  2  0
M  END
>  <ID>  (1) 
conformer_0

$$$$
