
     RDKit          3D

 14 14  0  0  0  0  0  0  0  0999 V2000
   19.9787  -50.8730   51.7438 C   0  0  0  0  0  0  0  0  0  0  0  0
   21.4248  -49.9678   52.0128 C   0  0  0  0  0  0  0  0  0  0  0  0
   24.3475  -49.7256   53.4438 C   0  0  0  0  0  0  0  0  0  0  0  0
   20.2786  -52.2636   51.6693 C   0  0  0  0  0  0  0  0  0  0  0  0
   18.6183  -48.9393   51.7323 C   0  0  0  0  0  0  0  0  0  0  0  0
   26.3762  -48.3619   53.7254 O   0  0  0  0  0  0  0  0  0  0  0  0
   18.7836  -50.1586   51.3773 O   0  0  0  0  0  0  0  0  0  0  0  0
   23.1621  -54.3628   52.0391 C   0  0  0  0  0  0  0  0  0  0  0  0
   22.2287  -53.7029   52.0632 O   0  0  0  0  0  0  0  0  0  0  0  0
   25.1896  -48.6090   53.6063 C   0  0  0  0  0  0  0  0  0  0  0  0
   22.4358  -50.9653   52.2411 C   0  0  0  0  0  0  0  0  0  0  0  0
   19.5861  -53.2981   51.3394 O   0  0  0  0  0  0  0  0  0  0  0  0
   23.4113  -49.2431   52.3581 C   0  0  0  0  0  0  0  0  0  0  0  0
   21.6118  -52.5241   52.0364 C   0  0  0  0  0  0  0  0  0  0  0  0
  2  1  2  0
  4  1  1  0
  7  1  1  0
  7  5  1  0
  9  8  1  0
 10  3  1  0
 10  6  1  0
 11  2  1  0
 12  4  1  0
 13  3  1  0
 13 11  1  0
 14  4  1  0
 14  9  1  0
 14 11  2  0
M  END
>  <ID>  (1) 
conformer_0

$$$$
