
     RDKit          3D

 16 16  0  0  0  0  0  0  0  0999 V2000
   19.9986  -51.0491   51.7442 C   0  0  0  0  0  0  0  0  0  0  0  0
   21.0336  -50.2006   51.7964 C   0  0  0  0  0  0  0  0  0  0  0  0
   23.3287  -49.5211   52.4591 C   0  0  0  0  0  0  0  0  0  0  0  0
   18.3530  -49.4030   51.2846 C   0  0  0  0  0  0  0  0  0  0  0  0
   20.5162  -52.3640   51.9987 C   0  0  0  0  0  0  0  0  0  0  0  0
   22.2583  -53.9639   52.4823 O   0  0  0  0  0  0  0  0  0  0  0  0
   23.4333  -54.4956   52.1933 C   0  0  0  0  0  0  0  0  0  0  0  0
   25.3873  -48.3139   53.8275 C   0  0  0  0  0  0  0  0  0  0  0  0
   26.4375  -48.7706   53.5613 O   0  0  0  0  0  0  0  0  0  0  0  0
   22.2630  -50.3629   52.3706 C   0  0  0  0  0  0  0  0  0  0  0  0
   25.4606  -47.3294   54.3212 O   0  0  0  0  0  0  0  0  0  0  0  0
   18.6888  -50.3931   51.5454 O   0  0  0  0  0  0  0  0  0  0  0  0
   19.2069  -52.6103   51.8050 O   0  0  0  0  0  0  0  0  0  0  0  0
   24.2675  -49.0478   53.2277 C   0  0  0  0  0  3  0  0  0  0  0  0
   21.9797  -52.7611   52.2697 C   0  0  0  0  0  0  0  0  0  0  0  0
   22.7761  -51.6375   52.4259 C   0  0  0  0  0  0  0  0  0  0  0  0
  2  1  2  0
  5  1  1  0
  7  6  1  0
  9  8  1  0
 10  2  1  0
 10  3  1  0
 11  8  2  0
 12  1  1  0
 12  4  1  0
 13  5  1  0
 14  3  2  3
 14  8  1  0
 15  5  2  0
 15  6  1  0
 16 10  2  0
 16 15  1  0
M  RAD  1  14   2
M  END
>  <ID>  (1) 
conformer_0

$$$$
