
     RDKit          3D

 17 17  0  0  0  0  0  0  0  0999 V2000
   22.1544  -50.0947   52.3495 C   0  0  0  0  0  0  0  0  0  0  0  0
   23.8699  -49.5773   52.8705 C   0  0  0  0  0  0  0  0  0  0  0  0
   20.6346  -52.1903   51.9191 C   0  0  0  0  0  0  0  0  0  0  0  0
   20.0377  -50.9679   51.7196 C   0  0  0  0  0  0  0  0  0  0  0  0
   18.3793  -49.1252   51.2598 C   0  0  0  0  0  0  0  0  0  0  0  0
   23.5633  -54.1993   52.0755 C   0  0  0  0  0  0  0  0  0  0  0  0
   18.8037  -50.5559   51.4057 O   0  0  0  0  0  0  0  0  0  0  0  0
   22.7416  -51.2373   52.5859 C   0  0  0  0  0  0  0  0  0  0  0  0
   24.6148  -47.0078   53.9174 O   0  0  0  0  0  0  0  0  0  0  0  0
   26.3680  -48.3756   53.6659 O   0  0  0  0  0  0  0  0  0  0  0  0
   22.6959  -53.5357   52.2077 O   0  0  0  0  0  0  0  0  0  0  0  0
   25.1239  -48.0598   53.8200 C   0  0  0  0  0  0  0  0  0  0  0  0
   23.0805  -48.5369   52.6518 C   0  0  0  0  0  0  0  0  0  0  0  0
   19.8960  -53.5667   52.0434 O   0  0  0  0  0  0  0  0  0  0  0  0
   21.9612  -52.4608   52.2717 C   0  0  0  0  0  0  0  0  0  0  0  0
   21.0023  -49.8171   52.0273 C   0  0  0  0  0  0  0  0  0  0  0  0
   25.1656  -49.0845   53.8797 C   0  0  0  0  0  0  0  0  0  0  0  0
  4  3  1  0
  7  4  1  0
  7  5  1  0
  8  1  2  0
 11  6  1  0
 12  9  2  0
 12 10  1  0
 13  1  1  0
 13  2  1  0
 14  3  1  0
 15  3  2  0
 15  8  1  0
 15 11  1  0
 16  1  1  0
 16  4  2  0
 17  2  1  0
 17 12  1  0
M  END
>  <ID>  (1) 
conformer_0

$$$$
