
     RDKit          3D

 15 15  0  0  0  0  0  0  0  0999 V2000
   22.7820  -51.3901   52.5950 C   0  0  0  0  0  0  0  0  0  0  0  0
   20.2478  -51.1435   51.5348 C   0  0  0  0  0  0  0  0  0  0  0  0
   24.1415  -49.0165   53.5945 C   0  0  0  0  0  0  0  0  0  0  0  0
   18.3774  -49.6774   51.4681 C   0  0  0  0  0  0  0  0  0  0  0  0
   20.6983  -52.3663   51.6644 C   0  0  0  0  0  0  0  0  0  0  0  0
   22.2314  -50.3274   52.3731 C   0  0  0  0  0  0  0  0  0  0  0  0
   18.8677  -50.8281   51.1488 O   0  0  0  0  0  0  0  0  0  0  0  0
   25.0359  -47.9506   53.7310 C   0  0  0  0  0  0  0  0  0  0  0  0
   26.3223  -48.7700   53.6237 O   0  0  0  0  0  0  0  0  0  0  0  0
   25.1554  -46.9876   53.9944 O   0  0  0  0  0  0  0  0  0  0  0  0
   19.7475  -53.4412   51.2860 O   0  0  0  0  0  0  0  0  0  0  0  0
   22.1263  -52.6373   52.2370 C   0  0  0  0  0  0  0  0  0  0  0  0
   23.2292  -48.8958   52.7309 C   0  0  0  0  0  0  0  0  0  0  0  0
   22.3041  -54.1782   52.1462 O   0  0  0  0  0  0  0  0  0  0  0  0
   21.0381  -49.8529   51.9221 C   0  0  0  0  0  0  0  0  0  0  0  0
  5  2  1  0
  6  1  2  0
  7  2  1  0
  7  4  1  0
  8  3  1  0
  9  8  1  0
 10  8  2  0
 11  5  1  0
 12  1  1  0
 12  5  2  0
 13  3  2  3
 13  6  1  0
 14 12  1  0
 15  2  2  0
 15  6  1  0
M  END
>  <ID>  (1) 
conformer_0

$$$$
