
     RDKit          3D

 16 16  0  0  0  0  0  0  0  0999 V2000
   22.2080  -50.1453   52.2791 C   0  0  0  0  0  0  0  0  0  0  0  0
   20.6875  -52.4850   51.8609 C   0  0  0  0  0  0  0  0  0  0  0  0
   23.4213  -48.8793   52.0115 C   0  0  0  0  0  0  0  0  0  0  0  0
   22.9109  -51.3290   52.5296 C   0  0  0  0  0  0  0  0  0  0  0  0
   22.9333  -54.5063   52.1000 C   0  0  0  0  0  0  0  0  0  0  0  0
   25.1635  -48.2381   53.6606 C   0  0  0  0  0  0  0  0  0  0  0  0
   18.1974  -50.2240   51.7116 C   0  0  0  0  0  0  0  0  0  0  0  0
   26.6516  -48.4716   53.5356 O   0  0  0  0  0  0  0  0  0  0  0  0
   24.4572  -47.2796   53.7717 O   0  0  0  0  0  0  0  0  0  0  0  0
   22.1398  -52.5053   52.2386 C   0  0  0  0  0  0  0  0  0  0  0  0
   18.5951  -50.5045   51.3010 O   0  0  0  0  0  0  0  0  0  0  0  0
   19.5061  -53.0098   51.8000 O   0  0  0  0  0  0  0  0  0  0  0  0
   21.6908  -53.7508   51.9052 O   0  0  0  0  0  0  0  0  0  0  0  0
   20.9155  -50.0466   51.9840 C   0  0  0  0  0  0  0  0  0  0  0  0
   24.1395  -49.2842   53.2085 C   0  0  0  0  0  0  0  0  0  0  0  0
   20.0683  -51.1741   51.7970 C   0  0  0  0  0  0  0  0  0  0  0  0
  3  1  1  0
  4  1  2  0
  8  6  1  0
  9  6  2  0
 10  2  2  0
 10  4  1  0
 11  7  1  0
 12  2  1  0
 13  5  1  0
 13 10  1  0
 14  1  1  0
 15  3  1  0
 15  6  1  0
 16  2  1  0
 16 11  1  0
 16 14  2  0
M  END
>  <ID>  (1) 
conformer_0

$$$$
