
     RDKit          3D

 16 16  0  0  0  0  0  0  0  0999 V2000
   20.2296  -50.8110   51.7206 C   0  0  0  0  0  0  0  0  0  0  0  0
   22.4812  -49.9730   52.1904 C   0  0  0  0  0  0  0  0  0  0  0  0
   23.4790  -49.1199   52.7476 C   0  0  0  0  0  0  0  0  0  0  0  0
   18.4435  -49.5611   51.5913 C   0  0  0  0  0  0  0  0  0  0  0  0
   20.5907  -52.2935   51.9447 C   0  0  0  0  0  0  0  0  0  0  0  0
   18.9618  -50.2491   51.2535 O   0  0  0  0  0  0  0  0  0  0  0  0
   24.5343  -47.0334   54.1480 O   0  0  0  0  0  0  0  0  0  0  0  0
   23.1454  -54.6325   52.1052 C   0  0  0  0  0  0  0  0  0  0  0  0
   26.3359  -48.1572   53.5879 O   0  0  0  0  0  0  0  0  0  0  0  0
   22.6098  -53.7330   51.9582 O   0  0  0  0  0  0  0  0  0  0  0  0
   25.0198  -48.0509   53.8427 C   0  0  0  0  0  0  0  0  0  0  0  0
   22.8490  -51.4475   52.2913 C   0  0  0  0  0  0  0  0  0  0  0  0
   19.7862  -53.3243   51.9059 O   0  0  0  0  0  0  0  0  0  0  0  0
   24.9580  -49.1863   53.7829 C   0  0  0  0  0  0  0  0  0  0  0  0
   22.0481  -52.5688   52.1223 C   0  0  0  0  0  0  0  0  0  0  0  0
   21.0476  -50.0223   51.9122 C   0  0  0  0  0  0  0  0  0  0  0  0
  3  2  1  0
  5  1  2  0
  6  1  1  0
  6  4  1  0
 10  8  1  0
 11  7  2  0
 11  9  1  0
 12  2  1  0
 13  5  1  0
 14  3  1  0
 14 11  1  0
 15  5  1  0
 15 10  1  0
 15 12  2  0
 16  1  1  0
 16  2  2  0
M  END
>  <ID>  (1) 
conformer_0

$$$$
