
     RDKit          3D

 16 16  0  0  0  0  0  0  0  0999 V2000
   20.3763  -52.1689   51.6422 C   0  0  0  0  0  0  0  0  0  0  0  0
   23.4263  -49.1174   52.6414 C   0  0  0  0  0  0  0  0  0  0  0  0
   22.6169  -51.7340   52.3749 C   0  0  0  0  0  0  0  0  0  0  0  0
   18.4289  -49.3726   51.4499 C   0  0  0  0  0  0  0  0  0  0  0  0
   22.4520  -50.4728   52.3421 C   0  0  0  0  0  0  0  0  0  0  0  0
   22.2151  -53.9192   51.6916 O   0  0  0  0  0  0  0  0  0  0  0  0
   18.8745  -50.5829   51.6114 O   0  0  0  0  0  0  0  0  0  0  0  0
   26.3649  -48.6580   53.5377 O   0  0  0  0  0  0  0  0  0  0  0  0
   19.7346  -53.5391   51.3813 O   0  0  0  0  0  0  0  0  0  0  0  0
   25.2115  -48.2241   53.8216 C   0  0  0  0  0  0  0  0  0  0  0  0
   24.8765  -47.1643   54.0759 O   0  0  0  0  0  0  0  0  0  0  0  0
   23.1703  -54.5396   51.9275 C   0  0  0  0  0  0  0  0  0  0  0  0
   20.1787  -50.6800   51.8428 C   0  0  0  0  0  0  0  0  0  0  0  0
   24.2380  -49.2335   53.5617 C   0  0  0  0  0  0  0  0  0  0  0  0
   21.2315  -49.8632   52.0806 C   0  0  0  0  0  0  0  0  0  0  0  0
   21.8593  -52.6523   51.8851 C   0  0  0  0  0  0  0  0  0  0  0  0
  5  2  1  0
  5  3  1  0
  7  4  1  0
  9  1  1  0
 10  8  1  0
 11 10  2  0
 12  6  1  0
 13  1  2  0
 13  7  1  0
 14  2  2  3
 14 10  1  0
 15  5  2  0
 15 13  1  0
 16  1  1  0
 16  3  2  0
 16  6  1  0
M  END
>  <ID>  (1) 
conformer_0

$$$$
