
     RDKit          3D

 16 16  0  0  0  0  0  0  0  0999 V2000
   20.0027  -50.9861   51.6466 C   0  0  0  0  0  0  0  0  0  0  0  0
   22.2310  -50.4068   52.3890 C   0  0  0  0  0  0  0  0  0  0  0  0
   24.2813  -49.3068   53.2945 C   0  0  0  0  0  0  0  0  0  0  0  0
   22.7359  -51.6299   52.5015 C   0  0  0  0  0  0  0  0  0  0  0  0
   20.4457  -52.3627   51.7129 C   0  0  0  0  0  0  0  0  0  0  0  0
   18.6892  -50.6223   51.1961 O   0  0  0  0  0  0  0  0  0  0  0  0
   26.5835  -48.4745   53.5690 O   0  0  0  0  0  0  0  0  0  0  0  0
   18.5610  -49.3018   51.4031 C   0  0  0  0  0  0  0  0  0  0  0  0
   24.9739  -47.3039   54.2948 O   0  0  0  0  0  0  0  0  0  0  0  0
   25.3074  -48.3279   53.7878 C   0  0  0  0  0  0  0  0  0  0  0  0
   22.2043  -54.0457   52.2092 O   0  0  0  0  0  0  0  0  0  0  0  0
   19.7047  -53.5224   51.4525 O   0  0  0  0  0  0  0  0  0  0  0  0
   23.1272  -54.8923   52.0246 C   0  0  0  0  0  0  0  0  0  0  0  0
   23.2946  -49.1240   52.7601 C   0  0  0  0  0  0  0  0  0  0  0  0
   21.0540  -49.9992   52.0358 C   0  0  0  0  0  0  0  0  0  0  0  0
   21.8303  -52.7109   52.1274 C   0  0  0  0  0  0  0  0  0  0  0  0
  4  2  1  0
  5  1  2  0
  6  1  1  0
  8  6  1  0
 10  3  1  0
 10  7  1  0
 10  9  2  0
 12  5  1  0
 13 11  1  0
 14  2  1  0
 14  3  2  3
 15  1  1  0
 15  2  2  0
 16  4  2  0
 16  5  1  0
 16 11  1  0
M  END
>  <ID>  (1) 
conformer_0

$$$$
