
     RDKit          3D

 16 16  0  0  0  0  0  0  0  0999 V2000
   20.1131  -50.8258   51.5796 C   0  0  0  0  0  0  0  0  0  0  0  0
   21.2816  -50.0414   52.0602 C   0  0  0  0  0  0  0  0  0  0  0  0
   23.3939  -48.9277   52.7173 C   0  0  0  0  0  0  0  0  0  0  0  0
   22.4546  -50.4254   52.3753 C   0  0  0  0  0  0  0  0  0  0  0  0
   20.4656  -52.1431   51.7077 C   0  0  0  0  0  0  0  0  0  0  0  0
   22.1792  -54.1730   52.3276 O   0  0  0  0  0  0  0  0  0  0  0  0
   25.4930  -47.4146   54.0871 O   0  0  0  0  0  0  0  0  0  0  0  0
   26.9120  -49.0459   53.7449 O   0  0  0  0  0  0  0  0  0  0  0  0
   18.6587  -49.1049   51.2194 C   0  0  0  0  0  0  0  0  0  0  0  0
   25.5398  -48.4134   53.7728 C   0  0  0  0  0  0  0  0  0  0  0  0
   23.0987  -54.6877   52.2647 C   0  0  0  0  0  0  0  0  0  0  0  0
   19.6777  -53.2857   51.5306 O   0  0  0  0  0  0  0  0  0  0  0  0
   18.9794  -50.5436   51.1364 O   0  0  0  0  0  0  0  0  0  0  0  0
   22.7605  -51.6794   52.5532 C   0  0  0  0  0  0  0  0  0  0  0  0
   21.7443  -52.7181   52.1952 C   0  0  0  0  0  0  0  0  0  0  0  0
   24.3685  -49.4593   53.2987 C   0  0  0  0  0  0  0  0  0  0  0  0
  2  1  2  0
  4  2  1  0
  4  3  1  0
  5  1  1  0
 10  7  2  0
 10  8  1  0
 11  6  1  0
 12  5  1  0
 13  1  1  0
 13  9  1  0
 14  4  2  0
 15  5  2  0
 15  6  1  0
 15 14  1  0
 16  3  1  0
 16 10  1  0
M  END
>  <ID>  (1) 
conformer_0

$$$$
