
     RDKit          3D

 24 27  0  0  0  0  0  0  0  0999 V2000
  -18.2473   16.9506   73.6739 C   0  0  0  0  0  0  0  0  0  0  0  0
  -17.3473   18.0506   73.5739 C   0  0  0  0  0  0  0  0  0  0  0  0
  -17.4473   18.7506   72.2739 C   0  0  0  0  0  0  0  0  0  0  0  0
  -17.2473   19.0506   74.6739 C   0  0  0  0  0  0  0  0  0  0  0  0
  -16.7473   20.3506   74.1739 C   0  0  0  0  0  0  0  0  0  0  0  0
  -15.7473   20.3506   73.0739 C   0  0  0  0  0  0  0  0  0  0  0  0
  -16.1473   19.4506   71.9739 C   0  0  0  0  0  0  0  0  0  0  0  0
  -16.1473   18.1506   74.1739 O   0  0  0  0  0  0  0  0  0  0  0  0
  -18.6473   16.7506   75.0739 O   0  0  0  0  0  0  0  0  0  0  0  0
  -16.4473   21.4506   75.0739 O   0  0  0  0  0  0  0  0  0  0  0  0
  -15.1473   21.6506   72.7739 O   0  0  0  0  0  0  0  0  0  0  0  0
  -15.5473   21.9506   71.3739 C   0  0  0  0  0  0  0  0  0  0  0  0
  -14.8473   22.7506   70.4739 C   0  0  0  0  0  0  0  0  0  0  0  0
  -15.2473   22.9506   69.0739 C   0  0  0  0  0  0  0  0  0  0  0  0
  -16.6473   23.1506   68.5739 C   0  0  0  0  0  0  0  0  0  0  0  0
  -16.8473   23.8506   67.3739 C   0  0  0  0  0  0  0  0  0  0  0  0
  -15.6473   24.4506   67.1739 N   0  0  0  0  0  0  0  0  0  0  0  0
  -14.3473   22.6506   68.0739 C   0  0  0  0  0  0  0  0  0  0  0  0
  -17.8473   22.4506   69.0739 C   0  0  0  0  0  0  0  0  0  0  0  0
  -18.0473   24.1506   66.9739 N   0  0  0  0  0  0  0  0  0  0  0  0
  -14.4473   23.9506   67.0739 C   0  0  0  0  0  0  0  0  0  0  0  0
  -13.3473   24.0506   66.1739 C   0  0  0  0  0  0  0  0  0  0  0  0
  -19.1473   22.6506   68.4739 C   0  0  0  0  0  0  0  0  0  0  0  0
  -19.0473   23.2506   67.1739 C   0  0  0  0  0  0  0  0  0  0  0  0
  2  1  1  0
  3  2  1  0
  4  2  1  0
  5  4  1  0
  6  5  1  0
  7  3  1  0
  7  6  1  0
  8  2  1  0
  8  4  1  0
  9  1  1  0
 10  5  1  0
 11  6  1  0
 12 11  1  0
 13 12  2  3
 14 13  1  0
 15 14  1  0
 16 15  1  0
 17 16  2  0
 18 14  1  0
 19 15  2  0
 20 16  1  0
 21 17  1  0
 21 18  1  0
 22 21  1  0
 23 19  1  0
 24 20  1  0
 24 23  1  0
M  END
>  <ID>  (1) 
conformer_0

$$$$
