
     RDKit          3D

 17 18  0  0  0  0  0  0  0  0999 V2000
  -18.2473   16.9506   73.6739 C   0  0  0  0  0  0  0  0  0  0  0  0
  -17.3473   18.0506   73.5739 C   0  0  0  0  0  0  0  0  0  0  0  0
  -17.4473   18.7506   72.2739 C   0  0  0  0  0  0  0  0  0  0  0  0
  -17.2473   19.0506   74.6739 C   0  0  0  0  0  0  0  0  0  0  0  0
  -16.7473   20.3506   74.1739 C   0  0  0  0  0  0  0  0  0  0  0  0
  -15.7473   20.3506   73.0739 C   0  0  0  0  0  0  0  0  0  0  0  0
  -18.5473   16.7506   75.0739 O   0  0  0  0  0  0  0  0  0  0  0  0
  -16.0473   19.4506   71.9739 C   0  0  0  0  0  0  0  0  0  0  0  0
  -16.2473   18.0506   74.1739 O   0  0  0  0  0  0  0  0  0  0  0  0
  -16.2473   21.1506   75.2739 O   0  0  0  0  0  0  0  0  0  0  0  0
  -15.3473   21.6506   72.6739 O   0  0  0  0  0  0  0  0  0  0  0  0
  -15.5473   21.9506   71.2739 C   0  0  0  0  0  0  0  0  0  0  0  0
  -15.1473   19.4506   70.9739 O   0  0  0  0  0  0  0  0  0  0  0  0
  -14.5473   22.9506   70.8739 C   0  0  0  0  0  0  0  0  0  0  0  0
  -14.0473   23.6506   72.0739 O   0  0  0  0  0  0  0  0  0  0  0  0
  -17.7473   18.2506   70.9739 O   0  0  0  0  0  0  0  0  0  0  0  0
  -13.2473   23.0506   73.0739 C   0  0  0  0  0  0  0  0  0  0  0  0
  2  1  1  0
  3  2  1  0
  4  2  1  0
  5  4  1  0
  6  5  1  0
  7  1  1  0
  8  3  1  0
  8  6  1  0
  9  2  1  0
  9  4  1  0
 10  5  1  0
 11  6  1  0
 12 11  1  0
 13  8  1  0
 14 12  1  0
 15 14  1  0
 16  3  1  0
 17 15  1  0
M  END
>  <ID>  (1) 
conformer_0

$$$$
