
     RDKit          3D

 21 24  0  0  0  0  0  0  0  0999 V2000
  -18.2473   16.9506   73.6739 C   0  0  0  0  0  0  0  0  0  0  0  0
  -17.3473   18.0506   73.5739 C   0  0  0  0  0  0  0  0  0  0  0  0
  -17.4473   18.7506   72.2739 C   0  0  0  0  0  0  0  0  0  0  0  0
  -17.2473   19.0506   74.6739 C   0  0  0  0  0  0  0  0  0  0  0  0
  -16.7473   20.3506   74.1739 C   0  0  0  0  0  0  0  0  0  0  0  0
  -15.7473   20.3506   73.0739 C   0  0  0  0  0  0  0  0  0  0  0  0
  -18.5473   16.7506   75.0739 O   0  0  0  0  0  0  0  0  0  0  0  0
  -16.0473   19.4506   71.9739 C   0  0  0  0  0  0  0  0  0  0  0  0
  -16.2473   18.0506   74.1739 O   0  0  0  0  0  0  0  0  0  0  0  0
  -16.3473   21.1506   75.2739 O   0  0  0  0  0  0  0  0  0  0  0  0
  -15.2473   21.6506   72.7739 O   0  0  0  0  0  0  0  0  0  0  0  0
  -15.2473   21.9506   71.3739 C   0  0  0  0  0  0  0  0  0  0  0  0
  -14.6473   23.0506   70.5739 C   0  0  0  0  0  0  0  0  0  0  0  0
  -15.0473   22.8506   69.1739 C   0  0  0  0  0  0  0  0  0  0  0  0
  -16.4473   23.1506   68.8739 C   0  0  0  0  0  0  0  0  0  0  0  0
  -16.4473   23.6506   67.4739 C   0  0  0  0  0  0  0  0  0  0  0  0
  -14.1473   23.3506   68.1739 O   0  0  0  0  0  0  0  0  0  0  0  0
  -14.8473   23.7506   66.9739 C   0  0  0  0  0  0  0  0  0  0  0  0
  -15.5473   19.5506   70.7739 O   0  0  0  0  0  0  0  0  0  0  0  0
  -15.6473   22.5506   66.7739 O   0  0  0  0  0  0  0  0  0  0  0  0
  -18.3473   19.8506   72.0739 O   0  0  0  0  0  0  0  0  0  0  0  0
  2  1  1  0
  3  2  1  0
  4  2  1  0
  5  4  1  0
  6  5  1  0
  7  1  1  0
  8  3  1  0
  8  6  1  0
  9  2  1  0
  9  4  1  0
 10  5  1  0
 11  6  1  0
 12 11  1  0
 13 12  1  0
 14 13  1  0
 15 14  1  0
 16 15  1  0
 17 14  1  0
 18 16  1  0
 18 17  1  0
 19  8  1  0
 20 16  1  0
 20 18  1  0
 21  3  1  0
M  END
>  <ID>  (1) 
conformer_0

$$$$
