
     RDKit          3D

 10 10  0  0  0  0  0  0  0  0999 V2000
  -16.8027   19.8089   73.7745 C   0  0  0  0  0  0  0  0  0  0  0  0
  -17.0027   18.4089   73.3745 C   0  0  0  0  0  0  0  0  0  0  0  0
  -18.4027   18.0089   73.6745 C   0  0  0  0  0  0  0  0  0  0  0  0
  -17.8027   20.2089   74.6745 C   0  0  0  0  0  0  0  0  0  0  0  0
  -19.4027   18.8089   73.1745 N   0  0  0  0  0  0  0  0  0  0  0  0
  -17.9027   20.5089   73.2745 O   0  0  0  0  0  0  0  0  0  0  0  0
  -16.2027   17.6089   74.2745 O   0  0  0  0  0  0  0  0  0  0  0  0
  -18.6027   16.7089   74.3745 O   0  0  0  0  0  0  0  0  0  0  0  0
  -17.7027   21.6089   75.1745 C   0  0  0  0  0  0  0  0  0  0  0  0
  -16.3027   21.9089   75.1745 O   0  0  0  0  0  0  0  0  0  0  0  0
  2  1  1  0
  3  2  1  0
  4  1  1  0
  5  3  1  0
  6  1  1  0
  6  4  1  0
  7  2  1  0
  8  3  2  0
  9  4  1  0
 10  9  1  0
M  END
>  <ID>  (1) 
conformer_0

$$$$
