
     RDKit          3D

 23 25  0  0  0  0  0  0  0  0999 V2000
  -18.2473   16.9506   73.6739 C   0  0  0  0  0  0  0  0  0  0  0  0
  -17.3473   18.0506   73.5739 C   0  0  0  0  0  0  0  0  0  0  0  0
  -17.4473   18.7506   72.2739 C   0  0  0  0  0  0  0  0  0  0  0  0
  -17.2473   19.0506   74.6739 C   0  0  0  0  0  0  0  0  0  0  0  0
  -16.7473   20.3506   74.1739 C   0  0  0  0  0  0  0  0  0  0  0  0
  -15.7473   20.3506   73.0739 C   0  0  0  0  0  0  0  0  0  0  0  0
  -16.1473   19.4506   71.9739 C   0  0  0  0  0  0  0  0  0  0  0  0
  -16.1473   18.1506   74.1739 O   0  0  0  0  0  0  0  0  0  0  0  0
  -18.6473   16.7506   75.0739 O   0  0  0  0  0  0  0  0  0  0  0  0
  -16.4473   21.4506   75.0739 O   0  0  0  0  0  0  0  0  0  0  0  0
  -15.1473   21.6506   72.7739 O   0  0  0  0  0  0  0  0  0  0  0  0
  -15.5473   21.9506   71.3739 C   0  0  0  0  0  0  0  0  0  0  0  0
  -14.8473   22.7506   70.4739 C   0  0  0  0  0  0  0  0  0  0  0  0
  -15.3473   23.0506   69.1739 C   0  0  0  0  0  0  0  0  0  0  0  0
  -16.7473   23.0506   68.7739 C   0  0  0  0  0  0  0  0  0  0  0  0
  -16.9473   23.8506   67.5739 C   0  0  0  0  0  0  0  0  0  0  0  0
  -14.6473   23.9506   68.3739 O   0  0  0  0  0  0  0  0  0  0  0  0
  -15.4473   24.3506   67.2739 C   0  0  0  0  0  0  0  0  0  0  0  0
  -15.1473   19.5506   70.9739 O   0  0  0  0  0  0  0  0  0  0  0  0
  -17.5473   23.2506   66.4739 O   0  0  0  0  0  0  0  0  0  0  0  0
  -18.8473   23.5506   65.8739 C   0  0  0  0  0  0  0  0  0  0  0  0
  -18.9473   22.8506   64.5739 C   0  0  0  0  0  0  0  0  0  0  0  0
  -17.7473   18.1506   71.0739 O   0  0  0  0  0  0  0  0  0  0  0  0
  2  1  1  0
  3  2  1  0
  4  2  1  0
  5  4  1  0
  6  5  1  0
  7  3  1  0
  7  6  1  0
  8  2  1  0
  8  4  1  0
  9  1  1  0
 10  5  1  0
 11  6  1  0
 12 11  1  0
 13 12  2  3
 14 13  1  0
 15 14  1  0
 16 15  1  0
 17 14  1  0
 18 16  1  0
 18 17  1  0
 19  7  1  0
 20 16  1  0
 21 20  1  0
 22 21  1  0
 23  3  1  0
M  END
>  <ID>  (1) 
conformer_0

$$$$
