
     RDKit          3D

 22 25  0  0  0  0  0  0  0  0999 V2000
  -17.1644   18.2831   73.4867 C   0  0  0  0  0  0  0  0  0  0  0  0
  -18.2644   17.3831   73.6867 C   0  0  0  0  0  0  0  0  0  0  0  0
  -17.1644   19.3831   74.4867 C   0  0  0  0  0  0  0  0  0  0  0  0
  -16.2644   20.3831   74.1867 C   0  0  0  0  0  0  0  0  0  0  0  0
  -18.3644   19.3831   75.1867 O   0  0  0  0  0  0  0  0  0  0  0  0
  -18.5644   16.7831   74.8867 O   0  0  0  0  0  0  0  0  0  0  0  0
  -15.7644   20.2831   72.7867 C   0  0  0  0  0  0  0  0  0  0  0  0
  -16.1644   21.6831   74.7867 O   0  0  0  0  0  0  0  0  0  0  0  0
  -16.7644   20.0831   71.6867 C   0  0  0  0  0  0  0  0  0  0  0  0
  -17.3644   18.7831   72.0867 O   0  0  0  0  0  0  0  0  0  0  0  0
  -14.9644   21.4831   72.4867 O   0  0  0  0  0  0  0  0  0  0  0  0
  -15.3644   22.0831   71.1867 C   0  0  0  0  0  0  0  0  0  0  0  0
  -14.5644   22.8831   70.2867 C   0  0  0  0  0  0  0  0  0  0  0  0
  -15.0644   23.2831   68.9867 C   0  0  0  0  0  0  0  0  0  0  0  0
  -16.4644   22.7831   68.8867 C   0  0  0  0  0  0  0  0  0  0  0  0
  -17.2644   23.4831   67.9867 C   0  0  0  0  0  0  0  0  0  0  0  0
  -14.9644   24.1831   67.8867 O   0  0  0  0  0  0  0  0  0  0  0  0
  -16.1644   24.2831   67.0867 C   0  0  0  0  0  0  0  0  0  0  0  0
  -16.9644   21.5831   69.4867 O   0  0  0  0  0  0  0  0  0  0  0  0
  -16.1644   20.9831   70.4867 C   0  0  0  0  0  0  0  0  0  0  0  0
  -16.4644   25.1831   66.2867 O   0  0  0  0  0  0  0  0  0  0  0  0
  -18.1644   22.6831   67.2867 O   0  0  0  0  0  0  0  0  0  0  0  0
  2  1  1  0
  3  1  1  0
  4  3  1  0
  5  3  1  0
  6  2  1  0
  7  4  1  0
  8  4  1  0
  9  7  1  0
 10  1  1  0
 10  9  1  0
 11  7  1  0
 12 11  1  0
 13 12  1  0
 14 13  1  0
 15 14  1  0
 16 15  1  0
 17 14  1  0
 18 16  1  0
 18 17  1  0
 19 15  1  0
 20  9  1  0
 20 12  1  0
 20 19  1  0
 21 18  2  0
 22 16  1  0
M  END
>  <ID>  (1) 
conformer_0

$$$$
