
     RDKit          3D

 15 15  0  0  0  0  0  0  0  0999 V2000
  -18.2473   16.9506   73.6739 C   0  0  0  0  0  0  0  0  0  0  0  0
  -17.5473   18.2506   73.5739 C   0  0  0  0  0  0  0  0  0  0  0  0
  -16.9473   18.7506   74.7739 C   0  0  0  0  0  0  0  0  0  0  0  0
  -16.3473   20.0506   74.5739 C   0  0  0  0  0  0  0  0  0  0  0  0
  -16.0473   17.7506   75.3739 O   0  0  0  0  0  0  0  0  0  0  0  0
  -18.5473   16.8506   75.0739 O   0  0  0  0  0  0  0  0  0  0  0  0
  -16.3473   20.7506   75.8739 O   0  0  0  0  0  0  0  0  0  0  0  0
  -15.9473   20.2506   73.1739 C   0  0  0  0  0  0  0  0  0  0  0  0
  -18.3473   19.3506   73.1739 O   0  0  0  0  0  0  0  0  0  0  0  0
  -16.9473   21.0506   72.4739 O   0  0  0  0  0  0  0  0  0  0  0  0
  -18.2473   20.7506   73.0739 C   0  0  0  0  0  0  0  0  0  0  0  0
  -14.6473   20.8506   72.7739 C   0  0  0  0  0  0  0  0  0  0  0  0
  -14.6473   21.7506   71.7739 O   0  0  0  0  0  0  0  0  0  0  0  0
  -19.0473   21.1506   71.8739 C   0  0  0  0  0  0  0  0  0  0  0  0
  -19.4473   20.2506   70.9739 O   0  0  0  0  0  0  0  0  0  0  0  0
  2  1  1  0
  3  2  1  0
  4  3  1  0
  5  3  1  0
  6  1  1  0
  7  4  1  0
  8  4  1  0
  9  2  1  0
 10  8  1  0
 11  9  1  0
 11 10  1  0
 12  8  1  0
 13 12  1  0
 14 11  1  0
 15 14  1  0
M  END
>  <ID>  (1) 
conformer_0

$$$$
