
     RDKit          3D

 25 29  0  0  0  0  0  0  0  0999 V2000
  -18.2473   16.9506   73.6739 C   0  0  0  0  0  0  0  0  0  0  0  0
  -17.3473   18.0506   73.5739 C   0  0  0  0  0  0  0  0  0  0  0  0
  -17.4473   18.7506   72.2739 C   0  0  0  0  0  0  0  0  0  0  0  0
  -17.2473   19.0506   74.6739 C   0  0  0  0  0  0  0  0  0  0  0  0
  -16.7473   20.3506   74.1739 C   0  0  0  0  0  0  0  0  0  0  0  0
  -15.7473   20.3506   73.0739 C   0  0  0  0  0  0  0  0  0  0  0  0
  -18.5473   16.7506   75.0739 O   0  0  0  0  0  0  0  0  0  0  0  0
  -16.1473   19.4506   71.9739 C   0  0  0  0  0  0  0  0  0  0  0  0
  -16.1473   18.1506   74.1739 O   0  0  0  0  0  0  0  0  0  0  0  0
  -16.2473   21.3506   75.1739 O   0  0  0  0  0  0  0  0  0  0  0  0
  -15.1473   21.5506   72.7739 O   0  0  0  0  0  0  0  0  0  0  0  0
  -15.2473   22.0506   71.3739 C   0  0  0  0  0  0  0  0  0  0  0  0
  -14.3473   23.1506   70.9739 C   0  0  0  0  0  0  0  0  0  0  0  0
  -13.9473   23.3506   69.5739 C   0  0  0  0  0  0  0  0  0  0  0  0
  -14.9473   22.8506   68.5739 C   0  0  0  0  0  0  0  0  0  0  0  0
  -16.2473   22.6506   69.2739 C   0  0  0  0  0  0  0  0  0  0  0  0
  -17.4473   23.1506   68.5739 C   0  0  0  0  0  0  0  0  0  0  0  0
  -16.9473   23.8506   67.3739 C   0  0  0  0  0  0  0  0  0  0  0  0
  -16.3473   21.9506   70.4739 O   0  0  0  0  0  0  0  0  0  0  0  0
  -15.3473   23.7506   67.4739 O   0  0  0  0  0  0  0  0  0  0  0  0
  -18.6473   22.6506   68.6739 O   0  0  0  0  0  0  0  0  0  0  0  0
  -13.3473   24.5506   69.1739 O   0  0  0  0  0  0  0  0  0  0  0  0
  -13.8473   23.8506   71.9739 O   0  0  0  0  0  0  0  0  0  0  0  0
  -17.4473   24.5506   66.4739 O   0  0  0  0  0  0  0  0  0  0  0  0
  -17.4473   19.9506   71.8739 O   0  0  0  0  0  0  0  0  0  0  0  0
  2  1  1  0
  3  2  1  0
  4  2  1  0
  5  4  1  0
  6  5  1  0
  7  1  1  0
  8  3  1  0
  8  6  1  0
  9  2  1  0
  9  4  1  0
 10  5  1  0
 11  6  1  0
 12 11  1  0
 13 12  1  0
 14 13  1  0
 15 14  1  0
 16 15  1  0
 17 16  1  0
 18 17  1  0
 19 12  1  0
 19 16  1  0
 20 15  1  0
 20 18  1  0
 21 17  1  0
 22 14  1  0
 23 13  1  0
 24 18  2  0
 25  3  1  0
 25  8  1  0
M  END
>  <ID>  (1) 
conformer_0

$$$$
