
     RDKit          3D

 12 12  0  0  0  0  0  0  0  0999 V2000
  -18.2473   16.9506   73.6739 C   0  0  0  0  0  0  0  0  0  0  0  0
  -17.5473   18.2506   73.5739 C   0  0  0  0  0  0  0  0  0  0  0  0
  -16.9473   18.7506   74.7739 C   0  0  0  0  0  0  0  0  0  0  0  0
  -16.0473   17.8506   75.3739 O   0  0  0  0  0  0  0  0  0  0  0  0
  -18.4473   16.8506   75.0739 O   0  0  0  0  0  0  0  0  0  0  0  0
  -16.4473   20.1506   74.6739 C   0  0  0  0  0  0  0  0  0  0  0  0
  -16.2473   20.5506   76.0739 O   0  0  0  0  0  0  0  0  0  0  0  0
  -18.3473   19.3506   73.0739 O   0  0  0  0  0  0  0  0  0  0  0  0
  -17.0473   21.1506   73.8739 C   0  0  0  0  0  0  0  0  0  0  0  0
  -18.1473   20.6506   72.8739 C   0  0  0  0  0  0  0  0  0  0  0  0
  -18.4473   21.3506   71.8739 O   0  0  0  0  0  0  0  0  0  0  0  0
  -16.7473   22.5506   73.6739 O   0  0  0  0  0  0  0  0  0  0  0  0
  2  1  1  0
  3  2  1  0
  4  3  1  0
  5  1  1  0
  6  3  1  0
  7  6  1  0
  8  2  1  0
  9  6  1  0
 10  8  1  0
 10  9  1  0
 11 10  2  0
 12  9  1  0
M  END
>  <ID>  (1) 
conformer_0

$$$$
