
     RDKit          3D

 23 25  0  0  0  0  0  0  0  0999 V2000
  -18.2473   16.9506   73.6739 C   0  0  0  0  0  0  0  0  0  0  0  0
  -17.3473   18.0506   73.5739 C   0  0  0  0  0  0  0  0  0  0  0  0
  -17.4473   18.7506   72.2739 C   0  0  0  0  0  0  0  0  0  0  0  0
  -17.2473   19.0506   74.6739 C   0  0  0  0  0  0  0  0  0  0  0  0
  -16.7473   20.3506   74.1739 C   0  0  0  0  0  0  0  0  0  0  0  0
  -15.7473   20.3506   73.0739 C   0  0  0  0  0  0  0  0  0  0  0  0
  -18.5473   16.7506   75.0739 O   0  0  0  0  0  0  0  0  0  0  0  0
  -16.0473   19.4506   71.9739 C   0  0  0  0  0  0  0  0  0  0  0  0
  -16.2473   18.0506   74.1739 O   0  0  0  0  0  0  0  0  0  0  0  0
  -16.2473   21.1506   75.2739 O   0  0  0  0  0  0  0  0  0  0  0  0
  -15.3473   21.6506   72.6739 O   0  0  0  0  0  0  0  0  0  0  0  0
  -15.5473   21.9506   71.2739 C   0  0  0  0  0  0  0  0  0  0  0  0
  -15.0473   19.6506   70.9739 O   0  0  0  0  0  0  0  0  0  0  0  0
  -14.5473   22.9506   70.7739 C   0  0  0  0  0  0  0  0  0  0  0  0
  -14.5473   23.2506   69.3739 C   0  0  0  0  0  0  0  0  0  0  0  0
  -14.0473   23.7506   71.7739 O   0  0  0  0  0  0  0  0  0  0  0  0
  -13.7473   24.4506   69.0739 O   0  0  0  0  0  0  0  0  0  0  0  0
  -15.8473   23.0506   68.6739 C   0  0  0  0  0  0  0  0  0  0  0  0
  -16.7473   22.0506   70.6739 O   0  0  0  0  0  0  0  0  0  0  0  0
  -16.9473   22.3506   69.2739 C   0  0  0  0  0  0  0  0  0  0  0  0
  -16.1473   23.9506   67.5739 O   0  0  0  0  0  0  0  0  0  0  0  0
  -18.1473   22.7506   68.8739 O   0  0  0  0  0  0  0  0  0  0  0  0
  -17.8473   18.5506   71.0739 O   0  0  0  0  0  0  0  0  0  0  0  0
  2  1  1  0
  3  2  1  0
  4  2  1  0
  5  4  1  0
  6  5  1  0
  7  1  1  0
  8  3  1  0
  8  6  1  0
  9  2  1  0
  9  4  1  0
 10  5  1  0
 11  6  1  0
 12 11  1  0
 13  8  1  0
 14 12  1  0
 15 14  1  0
 16 14  1  0
 17 15  1  0
 18 15  1  0
 19 12  1  0
 20 18  1  0
 20 19  1  0
 21 18  1  0
 22 20  2  0
 23  3  2  0
M  END
>  <ID>  (1) 
conformer_0

$$$$
