
     RDKit          3D

 22 25  0  0  0  0  0  0  0  0999 V2000
  -18.2473   16.9506   73.6739 C   0  0  0  0  0  0  0  0  0  0  0  0
  -17.3473   18.0506   73.5739 C   0  0  0  0  0  0  0  0  0  0  0  0
  -17.4473   18.7506   72.2739 C   0  0  0  0  0  0  0  0  0  0  0  0
  -17.2473   19.0506   74.6739 C   0  0  0  0  0  0  0  0  0  0  0  0
  -16.7473   20.3506   74.1739 C   0  0  0  0  0  0  0  0  0  0  0  0
  -15.7473   20.3506   73.0739 C   0  0  0  0  0  0  0  0  0  0  0  0
  -18.5473   16.7506   75.0739 O   0  0  0  0  0  0  0  0  0  0  0  0
  -16.1473   19.4506   71.9739 C   0  0  0  0  0  0  0  0  0  0  0  0
  -16.2473   18.1506   74.2739 O   0  0  0  0  0  0  0  0  0  0  0  0
  -16.4473   21.2506   75.2739 O   0  0  0  0  0  0  0  0  0  0  0  0
  -15.3473   21.6506   72.6739 O   0  0  0  0  0  0  0  0  0  0  0  0
  -15.4473   21.8506   71.2739 C   0  0  0  0  0  0  0  0  0  0  0  0
  -15.2473   22.6506   70.0739 C   0  0  0  0  0  0  0  0  0  0  0  0
  -16.4473   22.6506   69.1739 C   0  0  0  0  0  0  0  0  0  0  0  0
  -16.5473   23.5506   68.0739 C   0  0  0  0  0  0  0  0  0  0  0  0
  -17.6473   22.1506   69.6739 C   0  0  0  0  0  0  0  0  0  0  0  0
  -17.8473   23.4506   67.5739 C   0  0  0  0  0  0  0  0  0  0  0  0
  -18.6473   22.3506   67.4739 C   0  0  0  0  0  0  0  0  0  0  0  0
  -18.4473   21.5506   68.6739 C   0  0  0  0  0  0  0  0  0  0  0  0
  -19.6473   20.7506   69.0739 O   0  0  0  0  0  0  0  0  0  0  0  0
  -19.6473   21.7506   66.6739 O   0  0  0  0  0  0  0  0  0  0  0  0
  -20.3473   20.8506   67.7739 C   0  0  0  0  0  0  0  0  0  0  0  0
  2  1  1  0
  3  2  1  0
  4  2  1  0
  5  4  1  0
  6  5  1  0
  7  1  1  0
  8  3  1  0
  8  6  1  0
  9  2  1  0
  9  4  1  0
 10  5  1  0
 11  6  1  0
 12 11  1  0
 13 12  1  0
 14 13  1  0
 15 14  2  0
 16 14  1  0
 17 15  1  0
 18 17  2  0
 19 16  2  0
 19 18  1  0
 20 19  1  0
 21 18  1  0
 22 20  1  0
 22 21  1  0
M  END
>  <ID>  (1) 
conformer_0

$$$$
