
     RDKit          3D

 10 10  0  0  0  0  0  0  0  0999 V2000
  -18.2378   17.3164   73.5318 C   0  0  0  0  0  0  0  0  0  0  0  0
  -17.2378   18.4164   73.4318 C   0  0  0  0  0  0  0  0  0  0  0  0
  -16.8378   18.9164   74.7318 C   0  0  0  0  0  0  0  0  0  0  0  0
  -18.5378   17.0164   74.9318 O   0  0  0  0  0  0  0  0  0  0  0  0
  -16.1378   18.1164   75.5318 O   0  0  0  0  0  0  0  0  0  0  0  0
  -17.8378   19.5164   72.6318 O   0  0  0  0  0  0  0  0  0  0  0  0
  -17.2378   20.3164   74.8318 C   0  0  0  0  0  0  0  0  0  0  0  0
  -17.9378   20.7164   73.4318 C   0  0  0  0  0  0  0  0  0  0  0  0
  -16.4378   21.3164   75.3318 O   0  0  0  0  0  0  0  0  0  0  0  0
  -17.8378   22.0164   73.1318 O   0  0  0  0  0  0  0  0  0  0  0  0
  2  1  1  0
  3  2  1  0
  4  1  1  0
  5  3  1  0
  6  2  1  0
  7  3  1  0
  8  6  1  0
  8  7  1  0
  9  7  1  0
 10  8  2  0
M  END
>  <ID>  (1) 
conformer_0

$$$$
