
     RDKit          3D

 12 14  0  0  0  0  0  0  0  0999 V2000
  -18.2378   17.3164   73.5318 C   0  0  0  0  0  0  0  0  0  0  0  0
  -17.2378   18.4164   73.4318 C   0  0  0  0  0  0  0  0  0  0  0  0
  -16.8378   18.9164   74.7318 C   0  0  0  0  0  0  0  0  0  0  0  0
  -18.5378   17.0164   74.9318 O   0  0  0  0  0  0  0  0  0  0  0  0
  -16.1378   18.1164   75.5318 O   0  0  0  0  0  0  0  0  0  0  0  0
  -16.9378   19.0164   72.1318 C   0  0  0  0  0  0  0  0  0  0  0  0
  -16.2378   20.2164   74.5318 C   0  0  0  0  0  0  0  0  0  0  0  0
  -15.6378   19.7164   72.0318 C   0  0  0  0  0  0  0  0  0  0  0  0
  -15.5378   20.5164   73.3318 C   0  0  0  0  0  0  0  0  0  0  0  0
  -17.9378   19.6164   72.8318 O   0  0  0  0  0  0  0  0  0  0  0  0
  -16.6378   21.2164   73.6319 O   0  0  0  0  0  0  0  0  0  0  0  0
  -14.7378   19.4164   71.2318 O   0  0  0  0  0  0  0  0  0  0  0  0
  2  1  1  0
  3  2  1  0
  4  1  1  0
  5  3  1  0
  6  2  1  0
  7  3  1  0
  8  6  1  0
  9  7  1  0
  9  8  1  0
 10  2  1  0
 10  6  1  0
 11  7  1  0
 11  9  1  0
 12  8  2  0
M  END
>  <ID>  (1) 
conformer_0

$$$$
