
     RDKit          3D

 25 29  0  0  0  0  0  0  0  0999 V2000
  -18.2473   16.9506   73.6739 C   0  0  0  0  0  0  0  0  0  0  0  0
  -17.3473   18.0506   73.5739 C   0  0  0  0  0  0  0  0  0  0  0  0
  -17.4473   18.7506   72.2739 C   0  0  0  0  0  0  0  0  0  0  0  0
  -17.2473   19.0506   74.6739 C   0  0  0  0  0  0  0  0  0  0  0  0
  -16.7473   20.3506   74.1739 C   0  0  0  0  0  0  0  0  0  0  0  0
  -15.7473   20.3506   73.0739 C   0  0  0  0  0  0  0  0  0  0  0  0
  -18.5473   16.7506   75.0739 O   0  0  0  0  0  0  0  0  0  0  0  0
  -16.1473   19.4506   71.9739 C   0  0  0  0  0  0  0  0  0  0  0  0
  -16.1473   18.1506   74.1739 O   0  0  0  0  0  0  0  0  0  0  0  0
  -16.4473   21.2506   75.2739 O   0  0  0  0  0  0  0  0  0  0  0  0
  -15.4473   21.6506   72.5739 O   0  0  0  0  0  0  0  0  0  0  0  0
  -15.4473   21.8506   71.1739 C   0  0  0  0  0  0  0  0  0  0  0  0
  -15.5473   22.5506   69.8739 C   0  0  0  0  0  0  0  0  0  0  0  0
  -16.8473   22.5506   69.1739 C   0  0  0  0  0  0  0  0  0  0  0  0
  -17.4473   23.2506   68.2739 C   0  0  0  0  0  0  0  0  0  0  0  0
  -17.3473   24.0506   67.1739 C   0  0  0  0  0  0  0  0  0  0  0  0
  -18.2473   24.7506   66.5739 N   0  0  0  0  0  0  0  0  0  0  0  0
  -18.4473   25.2506   65.3739 C   0  0  0  0  0  0  0  0  0  0  0  0
  -17.4473   20.1506   71.8739 O   0  0  0  0  0  0  0  0  0  0  0  0
  -16.1473   23.6506   66.3739 C   0  0  0  0  0  0  0  0  0  0  0  0
  -16.2473   23.9506   65.0739 O   0  0  0  0  0  0  0  0  0  0  0  0
  -15.2473   23.0506   67.3739 C   0  0  0  0  0  0  0  0  0  0  0  0
  -15.4473   23.1506   68.7739 C   0  0  0  0  0  0  0  0  0  0  0  0
  -18.0473   26.2506   64.4739 C   0  0  0  0  0  0  0  0  0  0  0  0
  -14.1473   22.4506   66.7739 O   0  0  0  0  0  0  0  0  0  0  0  0
  2  1  1  0
  3  2  1  0
  4  2  1  0
  5  4  1  0
  6  5  1  0
  7  1  1  0
  8  3  1  0
  8  6  1  0
  9  2  1  0
  9  4  1  0
 10  5  1  0
 11  6  1  0
 12 11  1  0
 13 12  1  0
 14 13  1  0
 15 14  2  0
 16 15  1  0
 17 16  1  0
 18 17  1  0
 19  3  1  0
 19  8  1  0
 20 16  2  0
 21 20  1  0
 22 20  1  0
 23 13  1  0
 23 14  1  0
 23 22  2  0
 24 18  1  0
 25 22  1  0
M  END
>  <ID>  (1) 
conformer_0

$$$$
