
     RDKit          3D

 12 14  0  0  0  0  0  0  0  0999 V2000
  -18.4782   17.9013   73.6009 C   0  0  0  0  0  0  0  0  0  0  0  0
  -17.1782   18.4013   73.5009 C   0  0  0  0  0  0  0  0  0  0  0  0
  -19.5782   18.7013   73.4009 N   0  0  0  0  0  0  0  0  0  0  0  0
  -16.9782   19.6013   74.3009 C   0  0  0  0  0  0  0  0  0  0  0  0
  -17.9782   20.6013   73.8009 C   0  0  0  0  0  0  0  0  0  0  0  0
  -18.9782   19.9013   72.8009 C   0  0  0  0  0  0  0  0  0  0  0  0
  -18.1782   19.9013   75.1009 O   0  0  0  0  0  0  0  0  0  0  0  0
  -16.9782   18.8013   72.1009 O   0  0  0  0  0  0  0  0  0  0  0  0
  -18.1782   19.5013   71.6009 C   0  0  0  0  0  0  0  0  0  0  0  0
  -17.9782   20.6013   70.7009 O   0  0  0  0  0  0  0  0  0  0  0  0
  -15.6782   20.1013   74.6009 O   0  0  0  0  0  0  0  0  0  0  0  0
  -18.6782   16.8013   74.5009 O   0  0  0  0  0  0  0  0  0  0  0  0
  2  1  1  0
  3  1  1  0
  4  2  1  0
  5  4  1  0
  6  3  1  0
  6  5  1  0
  7  4  1  0
  7  5  1  0
  8  2  1  0
  9  6  1  0
  9  8  1  0
 10  9  1  0
 11  4  1  0
 12  1  2  0
M  END
>  <ID>  (1) 
conformer_0

$$$$
