
     RDKit          3D

 13 14  0  0  0  0  0  0  0  0999 V2000
  -18.2473   16.9506   73.6739 C   0  0  0  0  0  0  0  0  0  0  0  0
  -17.3473   18.0506   73.5739 C   0  0  0  0  0  0  0  0  0  0  0  0
  -17.4473   18.7506   72.2739 C   0  0  0  0  0  0  0  0  0  0  0  0
  -17.4473   19.0506   74.6739 C   0  0  0  0  0  0  0  0  0  0  0  0
  -16.7473   20.2506   74.1739 C   0  0  0  0  0  0  0  0  0  0  0  0
  -15.6473   19.9506   73.2739 C   0  0  0  0  0  0  0  0  0  0  0  0
  -18.5473   16.7506   75.0739 O   0  0  0  0  0  0  0  0  0  0  0  0
  -16.3473   21.1506   75.2739 O   0  0  0  0  0  0  0  0  0  0  0  0
  -16.1473   19.2506   71.8739 C   0  0  0  0  0  0  0  0  0  0  0  0
  -16.3473   18.0506   74.4739 O   0  0  0  0  0  0  0  0  0  0  0  0
  -14.7473   21.0506   73.0739 O   0  0  0  0  0  0  0  0  0  0  0  0
  -15.4473   19.6506   70.8739 O   0  0  0  0  0  0  0  0  0  0  0  0
  -18.5473   19.5506   72.0739 O   0  0  0  0  0  0  0  0  0  0  0  0
  2  1  1  0
  3  2  1  0
  4  2  1  0
  5  4  1  0
  6  5  1  0
  7  1  1  0
  8  5  1  0
  9  3  1  0
  9  6  1  0
 10  2  1  0
 10  4  1  0
 11  6  1  0
 12  9  2  0
 13  3  1  0
M  END
>  <ID>  (1) 
conformer_0

$$$$
