
     RDKit          3D

 27 31  0  0  0  0  0  0  0  0999 V2000
  -18.2473   16.9506   73.6739 C   0  0  0  0  0  0  0  0  0  0  0  0
  -17.3473   18.0506   73.5739 C   0  0  0  0  0  0  0  0  0  0  0  0
  -17.4473   18.7506   72.2739 C   0  0  0  0  0  0  0  0  0  0  0  0
  -17.2473   19.0506   74.6739 C   0  0  0  0  0  0  0  0  0  0  0  0
  -16.7473   20.3506   74.1739 C   0  0  0  0  0  0  0  0  0  0  0  0
  -15.7473   20.3506   73.0739 C   0  0  0  0  0  0  0  0  0  0  0  0
  -18.5473   16.7506   75.0739 O   0  0  0  0  0  0  0  0  0  0  0  0
  -16.1473   19.4506   71.9739 C   0  0  0  0  0  0  0  0  0  0  0  0
  -16.1473   18.1506   74.1739 O   0  0  0  0  0  0  0  0  0  0  0  0
  -16.4473   21.2506   75.2739 O   0  0  0  0  0  0  0  0  0  0  0  0
  -15.4473   21.6506   72.5739 O   0  0  0  0  0  0  0  0  0  0  0  0
  -15.4473   21.8506   71.1739 C   0  0  0  0  0  0  0  0  0  0  0  0
  -15.5473   22.5506   69.8739 C   0  0  0  0  0  0  0  0  0  0  0  0
  -14.2473   23.1506   69.6739 C   0  0  0  0  0  0  0  0  0  0  0  0
  -13.4473   23.4506   70.8739 C   0  0  0  0  0  0  0  0  0  0  0  0
  -16.7473   22.7506   69.1739 C   0  0  0  0  0  0  0  0  0  0  0  0
  -17.1473   23.4506   68.0739 C   0  0  0  0  0  0  0  0  0  0  0  0
  -18.3473   23.6506   67.5739 N   0  0  0  0  0  0  0  0  0  0  0  0
  -17.8473   22.1506   69.8739 C   0  0  0  0  0  0  0  0  0  0  0  0
  -19.1473   22.1506   69.2739 C   0  0  0  0  0  0  0  0  0  0  0  0
  -13.5473   23.4506   68.4739 C   0  0  0  0  0  0  0  0  0  0  0  0
  -13.5473   22.5506   67.2739 C   0  0  0  0  0  0  0  0  0  0  0  0
  -19.3473   22.7506   67.9739 C   0  0  0  0  0  0  0  0  0  0  0  0
  -14.0473   23.7506   72.0739 O   0  0  0  0  0  0  0  0  0  0  0  0
  -12.6473   24.4506   68.7739 O   0  0  0  0  0  0  0  0  0  0  0  0
  -15.5473   19.5506   70.7739 O   0  0  0  0  0  0  0  0  0  0  0  0
  -16.1473   20.6506   70.7739 C   0  0  0  0  0  0  0  0  0  0  0  0
  2  1  1  0
  3  2  1  0
  4  2  1  0
  5  4  1  0
  6  5  1  0
  7  1  1  0
  8  3  1  0
  8  6  1  0
  9  2  1  0
  9  4  1  0
 10  5  1  0
 11  6  1  0
 12 11  1  0
 13 12  1  0
 14 13  1  0
 15 14  1  0
 16 13  1  0
 17 16  2  0
 18 17  1  0
 19 16  1  0
 20 19  2  0
 21 14  1  0
 22 21  1  0
 23 18  2  0
 23 20  1  0
 24 15  1  0
 25 21  1  0
 26  8  1  0
 27  8  1  0
 27 12  1  0
 27 26  1  0
M  END
>  <ID>  (1) 
conformer_0

$$$$
