
     RDKit          3D

 27 31  0  0  0  0  0  0  0  0999 V2000
  -18.2473   16.9506   73.6739 C   0  0  0  0  0  0  0  0  0  0  0  0
  -17.3473   18.0506   73.5739 C   0  0  0  0  0  0  0  0  0  0  0  0
  -17.4473   18.7506   72.2739 C   0  0  0  0  0  0  0  0  0  0  0  0
  -17.2473   19.0506   74.6739 C   0  0  0  0  0  0  0  0  0  0  0  0
  -16.7473   20.3506   74.1739 C   0  0  0  0  0  0  0  0  0  0  0  0
  -15.7473   20.3506   73.0739 C   0  0  0  0  0  0  0  0  0  0  0  0
  -18.5473   16.7506   75.0739 O   0  0  0  0  0  0  0  0  0  0  0  0
  -16.0473   19.4506   71.9739 C   0  0  0  0  0  0  0  0  0  0  0  0
  -16.2473   18.0506   74.1739 O   0  0  0  0  0  0  0  0  0  0  0  0
  -16.2473   21.1506   75.2739 O   0  0  0  0  0  0  0  0  0  0  0  0
  -15.3473   21.6506   72.6739 O   0  0  0  0  0  0  0  0  0  0  0  0
  -15.5473   21.9506   71.2739 C   0  0  0  0  0  0  0  0  0  0  0  0
  -15.0473   19.6506   70.9739 O   0  0  0  0  0  0  0  0  0  0  0  0
  -15.0473   22.8506   70.2739 C   0  0  0  0  0  0  0  0  0  0  0  0
  -15.7473   22.8506   68.9739 C   0  0  0  0  0  0  0  0  0  0  0  0
  -15.4473   23.7506   67.8739 C   0  0  0  0  0  0  0  0  0  0  0  0
  -16.3473   24.3506   66.9739 C   0  0  0  0  0  0  0  0  0  0  0  0
  -17.7473   23.9506   67.1739 C   0  0  0  0  0  0  0  0  0  0  0  0
  -18.1473   22.9506   68.1739 C   0  0  0  0  0  0  0  0  0  0  0  0
  -17.1473   22.3506   69.0739 C   0  0  0  0  0  0  0  0  0  0  0  0
  -14.1473   24.3506   67.7739 C   0  0  0  0  0  0  0  0  0  0  0  0
  -15.8473   24.9506   65.7739 C   0  0  0  0  0  0  0  0  0  0  0  0
  -18.7473   24.5506   66.4739 C   0  0  0  0  0  0  0  0  0  0  0  0
  -18.4473   19.6506   71.9739 O   0  0  0  0  0  0  0  0  0  0  0  0
  -14.2473   23.3506   66.8739 C   0  0  0  0  0  0  0  0  0  0  0  0
  -16.8473   24.8506   64.6739 C   0  0  0  0  0  0  0  0  0  0  0  0
  -18.2473   24.9506   64.9739 C   0  0  0  0  0  0  0  0  0  0  0  0
  2  1  1  0
  3  2  1  0
  4  2  1  0
  5  4  1  0
  6  5  1  0
  7  1  1  0
  8  3  1  0
  8  6  1  0
  9  2  1  0
  9  4  1  0
 10  5  1  0
 11  6  1  0
 12 11  1  0
 13  8  1  0
 14 12  2  3
 15 14  1  0
 16 15  1  0
 17 16  1  0
 18 17  1  0
 19 18  2  0
 20 15  1  0
 20 19  1  0
 21 16  1  0
 22 17  1  0
 23 18  1  0
 24  3  1  0
 25 16  1  0
 25 21  1  0
 26 22  1  0
 27 23  1  0
 27 26  1  0
M  END
>  <ID>  (1) 
conformer_0

$$$$
