
     RDKit          3D

 20 22  0  0  0  0  0  0  0  0999 V2000
  -18.2473   16.9506   73.6739 C   0  0  0  0  0  0  0  0  0  0  0  0
  -17.5473   18.2506   73.5739 C   0  0  0  0  0  0  0  0  0  0  0  0
  -16.9473   18.7506   74.7739 C   0  0  0  0  0  0  0  0  0  0  0  0
  -16.2473   17.6506   75.3739 O   0  0  0  0  0  0  0  0  0  0  0  0
  -16.3473   20.0506   74.6739 C   0  0  0  0  0  0  0  0  0  0  0  0
  -18.6473   16.7506   75.0739 O   0  0  0  0  0  0  0  0  0  0  0  0
  -16.2473   20.5506   76.0739 O   0  0  0  0  0  0  0  0  0  0  0  0
  -16.1473   20.4506   73.2739 C   0  0  0  0  0  0  0  0  0  0  0  0
  -17.2473   20.9506   72.6739 O   0  0  0  0  0  0  0  0  0  0  0  0
  -17.5473   18.7506   72.1739 O   0  0  0  0  0  0  0  0  0  0  0  0
  -16.8473   19.2506   71.0739 C   0  0  0  0  0  0  0  0  0  0  0  0
  -17.7473   19.8506   70.0739 C   0  0  0  0  0  0  0  0  0  0  0  0
  -17.1473   21.7506   71.4739 C   0  0  0  0  0  0  0  0  0  0  0  0
  -19.0473   20.1506   70.6739 O   0  0  0  0  0  0  0  0  0  0  0  0
  -17.1473   21.3506   70.0739 C   0  0  0  0  0  0  0  0  0  0  0  0
  -17.7473   22.3506   69.3739 O   0  0  0  0  0  0  0  0  0  0  0  0
  -15.8473   21.3506   70.8739 C   0  0  0  0  0  0  0  0  0  0  0  0
  -14.9473   22.1506   70.0739 O   0  0  0  0  0  0  0  0  0  0  0  0
  -15.5473   19.7506   70.9739 C   0  0  0  0  0  0  0  0  0  0  0  0
  -14.9473   21.2506   73.1739 O   0  0  0  0  0  0  0  0  0  0  0  0
  2  1  1  0
  3  2  1  0
  4  3  1  0
  5  3  1  0
  6  1  1  0
  7  5  1  0
  8  5  1  0
  9  8  1  0
 10  2  1  0
 11 10  1  0
 12 11  1  0
 13  9  1  0
 14 12  1  0
 15 12  1  0
 15 13  1  0
 16 15  1  0
 17 13  1  0
 17 15  1  0
 18 17  1  0
 19 11  1  0
 19 17  1  0
 20  8  1  0
M  END
>  <ID>  (1) 
conformer_0

$$$$
