
     RDKit          3D

 15 17  0  0  0  0  0  0  0  0999 V2000
  -18.2378   17.3164   73.5318 C   0  0  0  0  0  0  0  0  0  0  0  0
  -17.2378   18.4164   73.4318 C   0  0  0  0  0  0  0  0  0  0  0  0
  -16.9378   18.9164   74.7318 C   0  0  0  0  0  0  0  0  0  0  0  0
  -18.6378   17.2164   74.9318 O   0  0  0  0  0  0  0  0  0  0  0  0
  -16.1378   18.1164   75.5318 O   0  0  0  0  0  0  0  0  0  0  0  0
  -17.0378   19.2164   72.2318 C   0  0  0  0  0  0  0  0  0  0  0  0
  -16.2378   20.2164   74.5318 C   0  0  0  0  0  0  0  0  0  0  0  0
  -15.4378   20.7164   73.4318 C   0  0  0  0  0  0  0  0  0  0  0  0
  -16.5378   21.1164   75.6318 O   0  0  0  0  0  0  0  0  0  0  0  0
  -16.0378   18.4164   72.7318 O   0  0  0  0  0  0  0  0  0  0  0  0
  -14.4378   21.6164   73.8318 O   0  0  0  0  0  0  0  0  0  0  0  0
  -17.5378   20.5164   72.2318 O   0  0  0  0  0  0  0  0  0  0  0  0
  -16.8378   21.0164   73.3318 C   0  0  0  0  0  0  0  0  0  0  0  0
  -17.0378   22.4164   73.5318 O   0  0  0  0  0  0  0  0  0  0  0  0
  -17.4378   18.6164   70.9318 O   0  0  0  0  0  0  0  0  0  0  0  0
  2  1  1  0
  3  2  1  0
  4  1  1  0
  5  3  1  0
  6  2  1  0
  7  3  1  0
  8  7  1  0
  9  7  1  0
 10  2  1  0
 10  6  1  0
 11  8  1  0
 12  6  1  0
 13  7  1  0
 13  8  1  0
 13 12  1  0
 14 13  1  0
 15  6  1  0
M  END
>  <ID>  (1) 
conformer_0

$$$$
