
     RDKit          3D

 27 31  0  0  0  0  0  0  0  0999 V2000
  -18.2473   16.9506   73.6739 C   0  0  0  0  0  0  0  0  0  0  0  0
  -17.3473   18.0506   73.5739 C   0  0  0  0  0  0  0  0  0  0  0  0
  -17.4473   18.7506   72.2739 C   0  0  0  0  0  0  0  0  0  0  0  0
  -17.2473   19.0506   74.6739 C   0  0  0  0  0  0  0  0  0  0  0  0
  -16.7473   20.3506   74.1739 C   0  0  0  0  0  0  0  0  0  0  0  0
  -15.7473   20.3506   73.0739 C   0  0  0  0  0  0  0  0  0  0  0  0
  -18.5473   16.7506   75.0739 O   0  0  0  0  0  0  0  0  0  0  0  0
  -16.1473   19.4506   71.9739 C   0  0  0  0  0  0  0  0  0  0  0  0
  -16.1473   18.1506   74.1739 O   0  0  0  0  0  0  0  0  0  0  0  0
  -16.4473   21.2506   75.2739 O   0  0  0  0  0  0  0  0  0  0  0  0
  -15.6473   21.7506   72.5739 O   0  0  0  0  0  0  0  0  0  0  0  0
  -15.5473   21.8506   71.1739 C   0  0  0  0  0  0  0  0  0  0  0  0
  -14.7473   22.8506   70.5739 C   0  0  0  0  0  0  0  0  0  0  0  0
  -15.0473   23.1506   69.1739 C   0  0  0  0  0  0  0  0  0  0  0  0
  -16.4473   22.6506   68.9739 C   0  0  0  0  0  0  0  0  0  0  0  0
  -17.0473   23.4506   67.9739 C   0  0  0  0  0  0  0  0  0  0  0  0
  -14.7473   24.1506   68.2739 O   0  0  0  0  0  0  0  0  0  0  0  0
  -15.9473   24.1506   67.2739 C   0  0  0  0  0  0  0  0  0  0  0  0
  -17.5473   20.0506   71.7739 O   0  0  0  0  0  0  0  0  0  0  0  0
  -18.3473   23.5506   67.5739 O   0  0  0  0  0  0  0  0  0  0  0  0
  -19.2473   22.5506   68.1739 C   0  0  0  0  0  0  0  0  0  0  0  0
  -17.3473   21.6506   69.4739 O   0  0  0  0  0  0  0  0  0  0  0  0
  -18.7473   21.9506   69.5739 C   0  0  0  0  0  0  0  0  0  0  0  0
  -16.2473   25.1506   66.4739 O   0  0  0  0  0  0  0  0  0  0  0  0
  -19.2473   21.2506   67.4739 O   0  0  0  0  0  0  0  0  0  0  0  0
  -14.9473   21.2506   70.3739 O   0  0  0  0  0  0  0  0  0  0  0  0
  -19.6473   20.8506   69.8739 C   0  0  0  0  0  0  0  0  0  0  0  0
  2  1  1  0
  3  2  1  0
  4  2  1  0
  5  4  1  0
  6  5  1  0
  7  1  1  0
  8  3  1  0
  8  6  1  0
  9  2  1  0
  9  4  1  0
 10  5  1  0
 11  6  1  0
 12 11  1  0
 13 12  1  0
 14 13  1  0
 15 14  1  0
 16 15  1  0
 17 14  1  0
 18 16  1  0
 18 17  1  0
 19  3  1  0
 19  8  1  0
 20 16  1  0
 21 20  1  0
 22 15  1  0
 23 21  1  0
 23 22  1  0
 24 18  2  0
 25 21  1  0
 26 12  1  0
 27 23  1  0
M  END
>  <ID>  (1) 
conformer_0

$$$$
