
     RDKit          3D

 27 31  0  0  0  0  0  0  0  0999 V2000
  -18.2473   16.9506   73.6739 C   0  0  0  0  0  0  0  0  0  0  0  0
  -17.3473   18.0506   73.5739 C   0  0  0  0  0  0  0  0  0  0  0  0
  -17.4473   18.7506   72.2739 C   0  0  0  0  0  0  0  0  0  0  0  0
  -17.2473   19.0506   74.6739 C   0  0  0  0  0  0  0  0  0  0  0  0
  -16.7473   20.3506   74.1739 C   0  0  0  0  0  0  0  0  0  0  0  0
  -15.7473   20.3506   73.0739 C   0  0  0  0  0  0  0  0  0  0  0  0
  -18.5473   16.7506   75.0739 O   0  0  0  0  0  0  0  0  0  0  0  0
  -16.1473   19.4506   71.9739 C   0  0  0  0  0  0  0  0  0  0  0  0
  -16.2473   18.1506   74.2739 O   0  0  0  0  0  0  0  0  0  0  0  0
  -16.4473   21.2506   75.2739 O   0  0  0  0  0  0  0  0  0  0  0  0
  -15.3473   21.6506   72.6739 O   0  0  0  0  0  0  0  0  0  0  0  0
  -15.4473   21.8506   71.2739 C   0  0  0  0  0  0  0  0  0  0  0  0
  -14.9473   22.8506   70.2739 C   0  0  0  0  0  0  0  0  0  0  0  0
  -15.4473   23.1506   68.9739 C   0  0  0  0  0  0  0  0  0  0  0  0
  -16.7473   23.3506   68.4739 C   0  0  0  0  0  0  0  0  0  0  0  0
  -17.0473   23.9506   67.2739 C   0  0  0  0  0  0  0  0  0  0  0  0
  -18.3473   23.9506   66.9739 N   0  0  0  0  0  0  0  0  0  0  0  0
  -17.8473   22.5506   68.8739 C   0  0  0  0  0  0  0  0  0  0  0  0
  -16.2473   24.6506   66.6739 N   0  0  0  0  0  0  0  0  0  0  0  0
  -14.4473   23.8506   68.1739 C   0  0  0  0  0  0  0  0  0  0  0  0
  -14.8473   24.7506   67.0739 C   0  0  0  0  0  0  0  0  0  0  0  0
  -18.6473   21.8506   68.0739 N   0  0  0  0  0  4  0  0  0  0  0  0
  -18.9473   20.4506   68.3739 C   0  0  0  0  0  0  0  0  0  0  0  0
  -20.3473   20.1506   68.1739 C   0  0  0  0  0  0  0  0  0  0  0  0
  -19.0473   22.9506   68.7739 N   0  0  0  0  0  0  0  0  0  0  0  0
  -18.2473   19.9506   69.5739 C   0  0  0  0  0  0  0  0  0  0  0  0
  -19.1473   22.8506   67.3739 C   0  0  0  0  0  0  0  0  0  0  0  0
  2  1  1  0
  3  2  1  0
  4  2  1  0
  5  4  1  0
  6  5  1  0
  7  1  1  0
  8  3  1  0
  8  6  1  0
  9  2  1  0
  9  4  1  0
 10  5  1  0
 11  6  1  0
 12 11  1  0
 13 12  1  0
 14 13  1  0
 15 14  1  0
 16 15  1  0
 17 16  2  0
 18 15  1  0
 19 16  1  0
 20 14  1  0
 21 19  2  0
 21 20  1  0
 22 18  1  0
 23 22  1  0
 24 23  1  0
 25 18  1  0
 26 23  1  0
 27 17  1  0
 27 22  1  0
 27 25  1  0
M  END
>  <ID>  (1) 
conformer_0

$$$$
