
     RDKit          3D

 13 13  0  0  0  0  0  0  0  0999 V2000
  -18.2473   16.9506   73.6739 C   0  0  0  0  0  0  0  0  0  0  0  0
  -17.5473   18.2506   73.5739 C   0  0  0  0  0  0  0  0  0  0  0  0
  -16.9473   18.7506   74.7739 C   0  0  0  0  0  0  0  0  0  0  0  0
  -15.9473   18.1506   75.4739 O   0  0  0  0  0  0  0  0  0  0  0  0
  -18.4473   16.7506   75.0739 O   0  0  0  0  0  0  0  0  0  0  0  0
  -16.9473   20.2506   74.7739 C   0  0  0  0  0  0  0  0  0  0  0  0
  -16.4473   20.7506   75.9739 O   0  0  0  0  0  0  0  0  0  0  0  0
  -18.3473   19.2506   72.9739 O   0  0  0  0  0  0  0  0  0  0  0  0
  -18.0473   20.5506   73.5739 C   0  0  0  0  0  0  0  0  0  0  0  0
  -17.2473   21.1506   72.5739 O   0  0  0  0  0  0  0  0  0  0  0  0
  -16.1473   22.0506   72.9739 C   0  0  0  0  0  0  0  0  0  0  0  0
  -15.2473   22.3506   71.8739 C   0  0  0  0  0  0  0  0  0  0  0  0
  -14.1473   21.3506   71.8739 O   0  0  0  0  0  0  0  0  0  0  0  0
  2  1  1  0
  3  2  1  0
  4  3  1  0
  5  1  1  0
  6  3  1  0
  7  6  1  0
  8  2  1  0
  9  6  1  0
  9  8  1  0
 10  9  1  0
 11 10  1  0
 12 11  1  0
 13 12  1  0
M  END
>  <ID>  (1) 
conformer_0

$$$$
