
     RDKit          3D

 11 11  0  0  0  0  0  0  0  0999 V2000
  -17.9016   18.2003   73.8658 C   0  0  0  0  0  0  0  0  0  0  0  0
  -16.8016   18.9003   73.2658 C   0  0  0  0  0  0  0  0  0  0  0  0
  -16.2016   19.9003   74.1658 C   0  0  0  0  0  0  0  0  0  0  0  0
  -17.3016   20.4003   74.9658 C   0  0  0  0  0  0  0  0  0  0  0  0
  -17.5016   17.8003   75.1658 C   0  0  0  0  0  0  0  0  0  0  0  0
  -16.1016   17.5003   75.2658 O   0  0  0  0  0  0  0  0  0  0  0  0
  -16.2016   19.8003   75.5658 O   0  0  0  0  0  0  0  0  0  0  0  0
  -19.2016   18.9003   73.8658 O   0  0  0  0  0  0  0  0  0  0  0  0
  -17.4016   21.8003   75.1658 C   0  0  0  0  0  0  0  0  0  0  0  0
  -16.0016   22.2003   74.9658 O   0  0  0  0  0  0  0  0  0  0  0  0
  -17.0016   19.4003   71.9658 O   0  0  0  0  0  0  0  0  0  0  0  0
  2  1  1  0
  3  2  1  0
  4  3  1  0
  5  1  1  0
  6  5  1  0
  7  3  1  0
  7  4  1  0
  8  1  1  0
  9  4  1  0
 10  9  1  0
 11  2  1  0
M  END
>  <ID>  (1) 
conformer_0

$$$$
