
     RDKit          3D

 27 29  0  0  0  0  0  0  0  0999 V2000
  -18.2473   16.9506   73.6739 C   0  0  0  0  0  0  0  0  0  0  0  0
  -17.5473   18.2506   73.5739 C   0  0  0  0  0  0  0  0  0  0  0  0
  -16.9473   18.7506   74.7739 C   0  0  0  0  0  0  0  0  0  0  0  0
  -16.3473   20.0506   74.5739 C   0  0  0  0  0  0  0  0  0  0  0  0
  -16.0473   17.7506   75.3739 O   0  0  0  0  0  0  0  0  0  0  0  0
  -18.5473   16.8506   75.0739 O   0  0  0  0  0  0  0  0  0  0  0  0
  -17.4473   19.0506   72.3739 C   0  0  0  0  0  0  0  0  0  0  0  0
  -15.6473   20.5506   73.4739 C   0  0  0  0  0  0  0  0  0  0  0  0
  -16.3473   19.9506   72.1739 C   0  0  0  0  0  0  0  0  0  0  0  0
  -16.4473   20.7506   75.7739 O   0  0  0  0  0  0  0  0  0  0  0  0
  -15.3473   21.8506   73.2739 O   0  0  0  0  0  0  0  0  0  0  0  0
  -15.4473   22.3506   71.8739 C   0  0  0  0  0  0  0  0  0  0  0  0
  -15.2473   19.9506   71.1739 O   0  0  0  0  0  0  0  0  0  0  0  0
  -16.7473   22.1506   71.2739 O   0  0  0  0  0  0  0  0  0  0  0  0
  -14.4473   22.9506   71.0739 C   0  0  0  0  0  0  0  0  0  0  0  0
  -14.8473   23.1506   69.6739 C   0  0  0  0  0  0  0  0  0  0  0  0
  -16.1473   22.9506   68.9739 C   0  0  0  0  0  0  0  0  0  0  0  0
  -13.9473   24.1506   69.0739 O   0  0  0  0  0  0  0  0  0  0  0  0
  -16.4473   23.7506   67.9739 O   0  0  0  0  0  0  0  0  0  0  0  0
  -13.8473   24.0506   71.7739 O   0  0  0  0  0  0  0  0  0  0  0  0
  -17.0473   22.1506   69.8739 C   0  0  0  0  0  0  0  0  0  0  0  0
  -18.4473   19.3506   73.1739 O   0  0  0  0  0  0  0  0  0  0  0  0
  -18.3473   22.2506   69.3739 O   0  0  0  0  0  0  0  0  0  0  0  0
  -19.6473   22.0506   69.9739 C   0  0  0  0  0  0  0  0  0  0  0  0
  -20.4473   20.9506   69.3739 C   0  0  0  0  0  0  0  0  0  0  0  0
  -20.4473   21.1506   67.9739 O   0  0  0  0  0  0  0  0  0  0  0  0
  -21.3473   20.1506   70.1739 C   0  0  0  0  0  0  0  0  0  0  0  0
  2  1  1  0
  3  2  1  0
  4  3  1  0
  5  3  1  0
  6  1  1  0
  7  2  1  0
  8  4  1  0
  9  7  1  0
  9  8  1  0
 10  4  1  0
 11  8  1  0
 12 11  1  0
 13  9  1  0
 14 12  1  0
 15 12  1  0
 16 15  1  0
 17 16  1  0
 18 16  1  0
 19 17  1  0
 20 15  1  0
 21 14  1  0
 21 17  1  0
 22  2  1  0
 22  7  1  0
 23 21  1  0
 24 23  1  0
 25 24  1  0
 26 25  1  0
 27 25  1  0
M  END
>  <ID>  (1) 
conformer_0

$$$$
