
     RDKit          3D

 12 14  0  0  0  0  0  0  0  0999 V2000
  -18.2473   16.9506   73.6739 C   0  0  0  0  0  0  0  0  0  0  0  0
  -17.5473   18.2506   73.5739 C   0  0  0  0  0  0  0  0  0  0  0  0
  -16.9473   18.7506   74.7739 C   0  0  0  0  0  0  0  0  0  0  0  0
  -16.3473   20.0506   74.5739 C   0  0  0  0  0  0  0  0  0  0  0  0
  -16.0473   17.7506   75.3739 O   0  0  0  0  0  0  0  0  0  0  0  0
  -18.5473   16.8506   75.0739 O   0  0  0  0  0  0  0  0  0  0  0  0
  -17.4473   19.0506   72.3739 C   0  0  0  0  0  0  0  0  0  0  0  0
  -15.7473   20.5506   73.4739 C   0  0  0  0  0  0  0  0  0  0  0  0
  -16.1473   19.7506   72.2739 C   0  0  0  0  0  0  0  0  0  0  0  0
  -17.0473   21.0506   73.8739 O   0  0  0  0  0  0  0  0  0  0  0  0
  -18.4473   19.3506   73.1739 O   0  0  0  0  0  0  0  0  0  0  0  0
  -15.2473   19.9506   71.1739 O   0  0  0  0  0  0  0  0  0  0  0  0
  2  1  1  0
  3  2  1  0
  4  3  1  0
  5  3  1  0
  6  1  1  0
  7  2  1  0
  8  4  1  0
  9  7  1  0
  9  8  1  0
 10  4  1  0
 10  8  1  0
 11  2  1  0
 11  7  1  0
 12  9  1  0
M  END
>  <ID>  (1) 
conformer_0

$$$$
