
     RDKit          3D

 23 27  0  0  0  0  0  0  0  0999 V2000
  -18.2473   16.9506   73.6739 C   0  0  0  0  0  0  0  0  0  0  0  0
  -17.5473   18.2506   73.5739 C   0  0  0  0  0  0  0  0  0  0  0  0
  -16.9473   18.7506   74.7739 C   0  0  0  0  0  0  0  0  0  0  0  0
  -16.3473   20.0506   74.5739 C   0  0  0  0  0  0  0  0  0  0  0  0
  -16.0473   17.7506   75.3739 O   0  0  0  0  0  0  0  0  0  0  0  0
  -18.5473   16.8506   75.0739 O   0  0  0  0  0  0  0  0  0  0  0  0
  -17.4473   19.0506   72.3739 C   0  0  0  0  0  0  0  0  0  0  0  0
  -15.6473   20.5506   73.4739 C   0  0  0  0  0  0  0  0  0  0  0  0
  -16.3473   19.9506   72.1739 C   0  0  0  0  0  0  0  0  0  0  0  0
  -16.4473   20.7506   75.7739 O   0  0  0  0  0  0  0  0  0  0  0  0
  -15.3473   21.8506   73.2739 O   0  0  0  0  0  0  0  0  0  0  0  0
  -15.4473   22.3506   71.8739 C   0  0  0  0  0  0  0  0  0  0  0  0
  -15.5473   20.0506   71.0739 O   0  0  0  0  0  0  0  0  0  0  0  0
  -15.5473   21.4506   70.6739 C   0  0  0  0  0  0  0  0  0  0  0  0
  -18.4473   19.3506   73.1739 O   0  0  0  0  0  0  0  0  0  0  0  0
  -15.5473   22.0506   69.3739 C   0  0  0  0  0  0  0  0  0  0  0  0
  -14.7473   23.2506   69.1739 C   0  0  0  0  0  0  0  0  0  0  0  0
  -15.0473   23.9506   67.9739 C   0  0  0  0  0  0  0  0  0  0  0  0
  -16.4473   23.7506   67.6739 C   0  0  0  0  0  0  0  0  0  0  0  0
  -15.4473   22.9506   67.0739 O   0  0  0  0  0  0  0  0  0  0  0  0
  -15.1473   21.0506   68.3739 O   0  0  0  0  0  0  0  0  0  0  0  0
  -17.5473   23.2506   68.2739 C   0  0  0  0  0  0  0  0  0  0  0  0
  -17.1473   22.1506   69.1739 C   0  0  0  0  0  0  0  0  0  0  0  0
  2  1  1  0
  3  2  1  0
  4  3  1  0
  5  3  1  0
  6  1  1  0
  7  2  1  0
  8  4  1  0
  9  7  1  0
  9  8  1  0
 10  4  1  0
 11  8  1  0
 12 11  1  0
 13  9  1  0
 14 12  2  0
 14 13  1  0
 15  2  1  0
 15  7  1  0
 16 14  1  0
 17 16  1  0
 18 17  1  0
 19 18  1  0
 20 18  1  0
 20 19  1  0
 21 16  1  0
 22 19  1  0
 23 16  1  0
 23 22  1  0
M  END
>  <ID>  (1) 
conformer_0

$$$$
