
     RDKit          3D

 13 13  0  0  0  0  0  0  0  0999 V2000
  -18.2473   16.9506   73.6739 C   0  0  0  0  0  0  0  0  0  0  0  0
  -17.3473   18.0506   73.5739 C   0  0  0  0  0  0  0  0  0  0  0  0
  -16.7473   18.6506   74.7739 C   0  0  0  0  0  0  0  0  0  0  0  0
  -16.4473   20.0506   74.6739 C   0  0  0  0  0  0  0  0  0  0  0  0
  -16.2473   17.8506   75.6739 O   0  0  0  0  0  0  0  0  0  0  0  0
  -18.4473   16.6506   75.0739 O   0  0  0  0  0  0  0  0  0  0  0  0
  -16.3473   20.5506   76.0739 O   0  0  0  0  0  0  0  0  0  0  0  0
  -17.4473   18.9506   72.4739 O   0  0  0  0  0  0  0  0  0  0  0  0
  -16.0473   20.7506   73.4739 C   0  0  0  0  0  0  0  0  0  0  0  0
  -15.9473   22.1506   73.7739 O   0  0  0  0  0  0  0  0  0  0  0  0
  -16.2473   19.7506   72.3739 C   0  0  0  0  0  0  0  0  0  0  0  0
  -15.7473   19.9506   70.9739 C   0  0  0  0  0  0  0  0  0  0  0  0
  -15.2473   21.3506   70.8739 O   0  0  0  0  0  0  0  0  0  0  0  0
  2  1  1  0
  3  2  1  0
  4  3  1  0
  5  3  1  0
  6  1  1  0
  7  4  1  0
  8  2  1  0
  9  4  1  0
 10  9  1  0
 11  8  1  0
 11  9  1  0
 12 11  1  0
 13 12  1  0
M  END
>  <ID>  (1) 
conformer_0

$$$$
