
     RDKit          3D

 24 27  0  0  0  0  0  0  0  0999 V2000
  -18.2473   16.9506   73.6739 C   0  0  0  0  0  0  0  0  0  0  0  0
  -17.3473   18.0506   73.5739 C   0  0  0  0  0  0  0  0  0  0  0  0
  -17.4473   18.7506   72.2739 C   0  0  0  0  0  0  0  0  0  0  0  0
  -17.2473   19.0506   74.6739 C   0  0  0  0  0  0  0  0  0  0  0  0
  -16.7473   20.3506   74.1739 C   0  0  0  0  0  0  0  0  0  0  0  0
  -15.7473   20.3506   73.0739 C   0  0  0  0  0  0  0  0  0  0  0  0
  -18.5473   16.7506   75.0739 O   0  0  0  0  0  0  0  0  0  0  0  0
  -16.1473   19.4506   71.9739 C   0  0  0  0  0  0  0  0  0  0  0  0
  -16.1473   18.1506   74.1739 O   0  0  0  0  0  0  0  0  0  0  0  0
  -16.2473   21.3506   75.1739 O   0  0  0  0  0  0  0  0  0  0  0  0
  -15.3473   21.6506   72.7739 O   0  0  0  0  0  0  0  0  0  0  0  0
  -15.3473   22.0506   71.3739 C   0  0  0  0  0  0  0  0  0  0  0  0
  -14.4473   23.0506   70.8739 C   0  0  0  0  0  0  0  0  0  0  0  0
  -14.5473   23.2506   69.4739 C   0  0  0  0  0  0  0  0  0  0  0  0
  -15.9473   22.9506   69.0739 C   0  0  0  0  0  0  0  0  0  0  0  0
  -16.5473   23.5506   67.9739 C   0  0  0  0  0  0  0  0  0  0  0  0
  -17.9473   23.2506   67.6739 C   0  0  0  0  0  0  0  0  0  0  0  0
  -18.3473   22.4506   68.8739 C   0  0  0  0  0  0  0  0  0  0  0  0
  -19.6473   22.0506   69.0739 C   0  0  0  0  0  0  0  0  0  0  0  0
  -17.2473   22.3506   69.7739 O   0  0  0  0  0  0  0  0  0  0  0  0
  -20.0473   20.7506   69.5739 C   0  0  0  0  0  0  0  0  0  0  0  0
  -20.3473   19.7506   68.5739 C   0  0  0  0  0  0  0  0  0  0  0  0
  -19.2473   20.2506   70.5739 O   0  0  0  0  0  0  0  0  0  0  0  0
  -16.0473   22.2506   67.8739 O   0  0  0  0  0  0  0  0  0  0  0  0
  2  1  1  0
  3  2  1  0
  4  2  1  0
  5  4  1  0
  6  5  1  0
  7  1  1  0
  8  3  1  0
  8  6  1  0
  9  2  1  0
  9  4  1  0
 10  5  1  0
 11  6  1  0
 12 11  1  0
 13 12  1  0
 14 13  1  0
 15 14  1  0
 16 15  1  0
 17 16  1  0
 18 17  1  0
 19 18  1  0
 20 15  1  0
 20 18  1  0
 21 19  1  0
 22 21  1  0
 23 21  1  0
 24 15  1  0
 24 16  1  0
M  END
>  <ID>  (1) 
conformer_0

$$$$
