
     RDKit          3D

 27 32  0  0  0  0  0  0  0  0999 V2000
  -18.2473   16.9506   73.6739 C   0  0  0  0  0  0  0  0  0  0  0  0
  -17.3473   18.0506   73.5739 C   0  0  0  0  0  0  0  0  0  0  0  0
  -17.4473   18.7506   72.2739 C   0  0  0  0  0  0  0  0  0  0  0  0
  -17.2473   19.0506   74.6739 C   0  0  0  0  0  0  0  0  0  0  0  0
  -16.7473   20.3506   74.1739 C   0  0  0  0  0  0  0  0  0  0  0  0
  -15.7473   20.3506   73.0739 C   0  0  0  0  0  0  0  0  0  0  0  0
  -18.5473   16.7506   75.0739 O   0  0  0  0  0  0  0  0  0  0  0  0
  -16.0473   19.4506   71.9739 C   0  0  0  0  0  0  0  0  0  0  0  0
  -16.2473   18.0506   74.1739 O   0  0  0  0  0  0  0  0  0  0  0  0
  -16.2473   21.1506   75.2739 O   0  0  0  0  0  0  0  0  0  0  0  0
  -15.3473   21.6506   72.6739 O   0  0  0  0  0  0  0  0  0  0  0  0
  -15.3473   21.9506   71.2739 C   0  0  0  0  0  0  0  0  0  0  0  0
  -15.0473   22.7506   70.0739 C   0  0  0  0  0  0  0  0  0  0  0  0
  -16.0473   22.7506   68.9739 C   0  0  0  0  0  0  0  0  0  0  0  0
  -15.8473   23.7506   67.9739 C   0  0  0  0  0  0  0  0  0  0  0  0
  -17.0473   24.0506   67.1739 C   0  0  0  0  0  0  0  0  0  0  0  0
  -17.4473   22.3506   69.1739 C   0  0  0  0  0  0  0  0  0  0  0  0
  -18.0473   23.0506   66.8739 C   0  0  0  0  0  0  0  0  0  0  0  0
  -14.5473   24.3506   67.6739 C   0  0  0  0  0  0  0  0  0  0  0  0
  -16.6473   21.4506   68.3739 C   0  0  0  0  0  0  0  0  0  0  0  0
  -16.5473   24.7506   65.9739 C   0  0  0  0  0  0  0  0  0  0  0  0
  -14.8473   23.1506   66.9739 C   0  0  0  0  0  0  0  0  0  0  0  0
  -18.3473   23.0506   65.4739 C   0  0  0  0  0  0  0  0  0  0  0  0
  -18.3473   23.7506   64.3739 O   0  0  0  0  0  0  0  0  0  0  0  0
  -17.2473   24.7506   64.6739 C   0  0  0  0  0  0  0  0  0  0  0  0
  -17.3473   22.2506   65.7739 O   0  0  0  0  0  0  0  0  0  0  0  0
  -18.3473   19.7506   72.1739 O   0  0  0  0  0  0  0  0  0  0  0  0
  2  1  1  0
  3  2  1  0
  4  2  1  0
  5  4  1  0
  6  5  1  0
  7  1  1  0
  8  3  1  0
  8  6  1  0
  9  2  1  0
  9  4  1  0
 10  5  1  0
 11  6  1  0
 12 11  1  0
 13 12  1  0
 14 13  1  0
 15 14  1  0
 16 15  1  0
 17 14  1  0
 18 16  1  0
 19 15  1  0
 20 14  1  0
 20 17  1  0
 21 16  1  0
 22 15  1  0
 22 19  1  0
 23 18  1  0
 24 23  1  0
 25 21  1  0
 25 24  1  0
 26 18  1  0
 26 23  1  0
 27  3  1  0
M  END
>  <ID>  (1) 
conformer_0

$$$$
