
     RDKit          3D

 18 20  0  0  0  0  0  0  0  0999 V2000
    9.5926   33.6416   16.9697 N   0  0  0  0  0  0  0  0  0  0  0  0
   10.6886   33.1710   16.5189 C   0  0  0  0  0  0  0  0  0  0  0  0
   11.7044   34.1090   16.1654 C   0  0  0  0  0  0  0  0  0  0  0  0
   12.6436   33.9976   15.4520 C   0  0  0  0  0  0  0  0  0  0  0  0
   13.4434   35.0139   14.8882 C   0  0  0  0  0  0  0  0  0  0  0  0
   14.5785   34.7147   14.0712 C   0  0  0  0  0  0  0  0  0  0  0  0
   13.0665   36.2120   15.2700 C   0  0  0  0  0  0  0  0  0  0  0  0
   14.8805   35.6182   13.0933 N   0  0  0  0  0  0  0  0  0  0  0  0
   15.1218   33.4845   14.1460 C   0  0  0  0  0  0  0  0  0  0  0  0
   11.4460   35.6111   16.4387 C   0  0  0  0  0  0  0  0  0  0  0  0
   13.0671   32.5796   15.4343 N   0  0  0  0  0  0  0  0  0  0  0  0
   15.6358   35.1975   11.9916 C   0  0  0  0  0  0  0  0  0  0  0  0
   10.7131   31.9784   16.2435 N   0  0  0  0  0  0  0  0  0  0  0  0
   14.3549   32.4027   14.7736 C   0  0  0  0  0  0  0  0  0  0  0  0
   17.1223   35.4282   12.1325 C   0  0  0  0  0  0  0  0  0  0  0  0
   10.2762   35.7743   17.3298 N   0  0  0  0  0  0  0  0  0  0  0  0
    9.5211   34.9534   17.4244 C   0  0  0  0  0  0  0  0  0  0  0  0
   12.0768   36.5182   16.0331 N   0  0  0  0  0  0  0  0  0  0  0  0
  1  2  1  0
  2  3  1  0
  3  4  1  0
  4  5  1  0
  5  6  1  0
  5  7  2  0
  6  8  1  0
  6  9  2  0
  3 10  2  0
  4 11  2  0
  8 12  1  0
  2 13  2  0
  9 14  1  0
 11 14  1  0
 12 15  1  0
 10 16  1  0
  1 17  1  0
 16 17  1  0
  7 18  1  0
 10 18  1  0
M  END
>  <ID>  (1) 
conformer_0

$$$$
