
     RDKit          3D

  9 10  0  0  0  0  0  0  0  0999 V2000
    9.9900   33.1275   16.8699 N   0  0  0  0  0  0  0  0  0  0  0  0
   10.9836   32.7553   16.2276 C   0  0  0  0  0  0  0  0  0  0  0  0
    9.9694   34.5202   17.0838 C   0  0  0  0  0  0  0  0  0  0  0  0
   11.2715   31.5213   15.6893 C   0  0  0  0  0  0  0  0  0  0  0  0
   12.0251   33.7236   15.8324 C   0  0  0  0  0  0  0  0  0  0  0  0
   10.4846   30.3813   15.8898 N   0  0  0  0  0  0  0  0  0  0  0  0
   13.0294   33.3188   15.0769 N   0  0  0  0  0  0  0  0  0  0  0  0
   12.5826   31.5439   14.9209 C   0  0  0  0  0  0  0  0  0  0  0  0
   11.3706   35.0389   16.4701 C   0  0  0  0  0  0  0  0  0  0  0  0
  1  2  1  0
  1  3  2  0
  2  4  2  0
  2  5  1  0
  4  6  1  0
  5  7  1  0
  4  8  1  0
  7  8  2  0
  3  9  1  0
  5  9  2  0
M  END
>  <ID>  (1) 
conformer_0

$$$$
