
     RDKit          3D

 17 19  0  0  0  0  0  0  0  0999 V2000
    9.8000   32.8788   16.8361 N   0  0  0  0  0  0  0  0  0  0  0  0
   10.0092   34.1583   17.0653 C   0  0  0  0  0  0  0  0  0  0  0  0
   11.2414   34.6040   16.7081 C   0  0  0  0  0  0  0  0  0  0  0  0
   11.9165   33.5731   16.0306 C   0  0  0  0  0  0  0  0  0  0  0  0
   13.0257   33.5051   15.3271 C   0  0  0  0  0  0  0  0  0  0  0  0
   13.6426   34.5273   14.6589 C   0  0  0  0  0  0  0  0  0  0  0  0
   10.8657   32.5188   16.0495 C   0  0  0  0  0  0  0  0  0  0  0  0
   14.9495   34.2879   14.0531 C   0  0  0  0  0  0  0  0  0  0  0  0
   13.0958   35.8217   14.3678 C   0  0  0  0  0  0  0  0  0  0  0  0
   13.7805   32.2958   15.0977 C   0  0  0  0  0  0  0  0  0  0  0  0
   11.1092   31.3075   15.7341 O   0  0  0  0  0  0  0  0  0  0  0  0
   13.6603   36.5051   13.3422 C   0  0  0  0  0  0  0  0  0  0  0  0
   15.2139   34.9049   12.8255 C   0  0  0  0  0  0  0  0  0  0  0  0
   15.7636   33.2419   14.5212 C   0  0  0  0  0  0  0  0  0  0  0  0
   16.4900   34.5835   12.1408 O   0  0  0  0  0  0  0  0  0  0  0  0
   15.1117   32.2025   14.9690 C   0  0  0  0  0  0  0  0  0  0  0  0
   14.6968   36.1710   12.6190 C   0  0  0  0  0  0  0  0  0  0  0  0
  1  2  1  0
  2  3  2  0
  3  4  1  0
  4  5  1  0
  5  6  1  0
  1  7  1  0
  4  7  1  0
  6  8  2  0
  6  9  1  0
  5 10  2  0
  7 11  2  0
  9 12  2  0
  8 13  1  0
  8 14  1  0
 13 15  1  0
 10 16  1  0
 14 16  2  0
 12 17  1  0
 13 17  2  0
M  END
>  <ID>  (1) 
conformer_0

$$$$
