
     RDKit          3D

 17 19  0  0  0  0  0  0  0  0999 V2000
    9.7104   32.9427   17.1388 N   0  0  0  0  0  0  0  0  0  0  0  0
    9.9836   34.2353   17.2578 C   0  0  0  0  0  0  0  0  0  0  0  0
   11.0982   34.8742   16.8794 N   0  0  0  0  0  0  0  0  0  0  0  0
   10.6320   32.2167   16.4837 C   0  0  0  0  0  0  0  0  0  0  0  0
   11.9754   34.1372   16.1504 C   0  0  0  0  0  0  0  0  0  0  0  0
   11.7312   32.7375   15.9320 C   0  0  0  0  0  0  0  0  0  0  0  0
   13.1557   34.6157   15.5956 N   0  0  0  0  0  0  0  0  0  0  0  0
   13.9844   33.9091   14.8924 C   0  0  0  0  0  0  0  0  0  0  0  0
   15.1231   34.5363   14.3318 N   0  0  0  0  0  0  0  0  0  0  0  0
   13.7018   32.4913   14.5717 C   0  0  0  0  0  0  0  0  0  0  0  0
   15.9518   34.0318   13.5044 C   0  0  0  0  0  0  0  0  0  0  0  0
   14.5453   31.7428   13.8129 N   0  0  0  0  0  0  0  0  0  0  0  0
   16.8892   34.6397   12.8030 C   0  0  0  0  0  0  0  0  0  0  0  0
   17.0647   36.0801   13.0692 C   0  0  0  0  0  0  0  0  0  0  0  0
   15.8773   32.4829   13.2767 C   0  0  0  0  0  0  0  0  0  0  0  0
   12.6795   32.0830   15.0983 N   0  0  0  0  0  0  0  0  0  0  0  0
   16.8725   36.8328   11.9330 O   0  0  0  0  0  0  0  0  0  0  0  0
  1  2  2  0
  2  3  1  0
  1  4  1  0
  3  5  2  0
  4  6  2  0
  5  6  1  0
  5  7  1  0
  7  8  2  0
  8  9  1  0
  8 10  1  0
  9 11  1  0
 10 12  1  0
 11 13  2  3
 13 14  1  0
 11 15  1  0
 12 15  2  0
  6 16  1  0
 10 16  2  0
 14 17  1  0
M  END
>  <ID>  (1) 
conformer_0

$$$$
