
     RDKit          3D

 18 20  0  0  0  0  0  0  0  0999 V2000
   13.1941   36.0715   14.8311 C   0  0  0  0  0  0  0  0  0  0  0  0
   13.2489   34.8110   14.8730 C   0  0  0  0  0  0  0  0  0  0  0  0
   14.1565   34.0325   14.0644 C   0  0  0  0  0  0  0  0  0  0  0  0
   12.3533   34.1055   15.7306 C   0  0  0  0  0  0  0  0  0  0  0  0
   12.4709   36.7181   15.7631 N   0  0  0  0  0  0  0  0  0  0  0  0
   14.1772   36.6138   14.1654 N   0  0  0  0  0  0  0  0  0  0  0  0
   14.9261   35.5414   13.3743 C   0  0  0  0  0  0  0  0  0  0  0  0
   12.0032   32.6706   15.7300 C   0  0  0  0  0  0  0  0  0  0  0  0
   11.5798   36.1993   16.5415 C   0  0  0  0  0  0  0  0  0  0  0  0
   10.7681   36.8731   17.4008 O   0  0  0  0  0  0  0  0  0  0  0  0
   15.9086   35.4761   12.5091 C   0  0  0  0  0  0  0  0  0  0  0  0
   11.4332   34.8515   16.6027 C   0  0  0  0  0  0  0  0  0  0  0  0
   10.9782   32.0848   16.3229 C   0  0  0  0  0  0  0  0  0  0  0  0
   10.4778   34.3098   17.3354 C   0  0  0  0  0  0  0  0  0  0  0  0
    9.6009   34.9681   17.9983 O   0  0  0  0  0  0  0  0  0  0  0  0
   15.4873   35.2970   11.2363 O   0  0  0  0  0  0  0  0  0  0  0  0
   17.0681   35.3963   12.8696 O   0  0  0  0  0  0  0  0  0  0  0  0
   10.1424   32.8947   17.1066 N   0  0  0  0  0  0  0  0  0  0  0  0
  1  2  1  0
  2  3  1  0
  2  4  2  0
  1  5  1  0
  1  6  2  0
  3  7  2  0
  6  7  1  0
  4  8  1  0
  5  9  1  0
  9 10  1  0
  7 11  1  0
  4 12  1  0
  9 12  2  0
  8 13  2  0
 12 14  1  0
 14 15  1  0
 11 16  2  0
 11 17  1  0
 13 18  1  0
 14 18  2  0
M  END
>  <ID>  (1) 
conformer_0

$$$$
