
     RDKit          3D

 18 20  0  0  0  0  0  0  0  0999 V2000
   10.1067   31.9711   16.3926 N   0  0  0  0  0  0  0  0  0  0  0  0
   11.3381   31.9519   15.8447 C   0  0  0  0  0  0  0  0  0  0  0  0
   12.1450   33.0438   15.6692 C   0  0  0  0  0  0  0  0  0  0  0  0
   11.3945   34.1703   16.3584 C   0  0  0  0  0  0  0  0  0  0  0  0
   13.3215   33.2328   14.9576 C   0  0  0  0  0  0  0  0  0  0  0  0
   10.3375   34.1561   16.9993 C   0  0  0  0  0  0  0  0  0  0  0  0
   13.7061   34.3802   14.3308 N   0  0  0  0  0  0  0  0  0  0  0  0
   14.0686   32.1311   14.6751 N   0  0  0  0  0  0  0  0  0  0  0  0
   13.2140   35.6270   14.2660 C   0  0  0  0  0  0  0  0  0  0  0  0
   15.1422   32.7118   13.8901 C   0  0  0  0  0  0  0  0  0  0  0  0
   13.0259   36.3287   15.2260 O   0  0  0  0  0  0  0  0  0  0  0  0
   15.0252   34.0248   13.7890 C   0  0  0  0  0  0  0  0  0  0  0  0
   13.2887   36.1333   12.8786 C   0  0  0  0  0  0  0  0  0  0  0  0
   16.4081   31.9954   13.5048 C   0  0  0  0  0  0  0  0  0  0  0  0
   16.1082   34.7534   13.0759 C   0  0  0  0  0  0  0  0  0  0  0  0
    9.6606   32.9823   17.0558 N   0  0  0  0  0  0  0  0  0  0  0  0
   17.1979   34.1034   12.6719 C   0  0  0  0  0  0  0  0  0  0  0  0
   17.3951   32.6644   12.9332 C   0  0  0  0  0  0  0  0  0  0  0  0
  1  2  2  0
  2  3  1  0
  3  4  2  0
  3  5  1  0
  4  6  1  0
  5  7  1  0
  5  8  2  0
  7  9  1  0
  8 10  1  0
  9 11  2  0
  7 12  1  0
 10 12  2  0
  9 13  1  0
 10 14  1  0
 12 15  1  0
  1 16  1  0
  6 16  2  0
 15 17  2  0
 14 18  2  0
 17 18  1  0
M  END
>  <ID>  (1) 
conformer_0

$$$$
