
     RDKit          3D

 15 16  0  0  0  0  0  0  0  0999 V2000
   10.1067   31.9711   16.3926 N   0  0  0  0  0  0  0  0  0  0  0  0
   11.3381   31.9519   15.8447 C   0  0  0  0  0  0  0  0  0  0  0  0
    9.7032   33.1118   16.9149 N   0  0  0  0  0  0  0  0  0  0  0  0
   12.0228   30.9290   15.1440 C   0  0  0  0  0  0  0  0  0  0  0  0
   11.7381   33.3636   15.9463 C   0  0  0  0  0  0  0  0  0  0  0  0
   10.7195   34.0051   16.6204 C   0  0  0  0  0  0  0  0  0  0  0  0
   12.8995   33.9561   15.3426 C   0  0  0  0  0  0  0  0  0  0  0  0
   13.0722   35.3195   15.5151 C   0  0  0  0  0  0  0  0  0  0  0  0
   12.1680   35.9416   16.3337 C   0  0  0  0  0  0  0  0  0  0  0  0
   14.2950   35.9162   14.9227 C   0  0  0  0  0  0  0  0  0  0  0  0
   14.8766   35.3350   13.7764 N   0  0  0  0  0  0  0  0  0  0  0  0
   11.0299   35.3840   16.8429 C   0  0  0  0  0  0  0  0  0  0  0  0
   14.2161   35.2499   12.7170 C   0  0  0  0  0  0  0  0  0  0  0  0
   12.9971   35.5150   12.5123 O   0  0  0  0  0  0  0  0  0  0  0  0
   14.8839   34.8240   11.4678 N   0  0  0  0  0  0  0  0  0  0  0  0
  1  2  2  0
  1  3  1  0
  2  4  1  0
  2  5  1  0
  3  6  1  0
  5  6  1  0
  5  7  2  0
  7  8  1  0
  8  9  2  0
  8 10  1  0
 10 11  1  0
  6 12  2  0
  9 12  1  0
 11 13  1  0
 13 14  2  0
 13 15  1  0
M  END
>  <ID>  (1) 
conformer_0

$$$$
