
     RDKit          3D

 17 19  0  0  0  0  0  0  0  0999 V2000
    9.8000   32.8788   16.8361 N   0  0  0  0  0  0  0  0  0  0  0  0
   10.8775   32.5942   16.1723 C   0  0  0  0  0  0  0  0  0  0  0  0
   11.6065   33.8736   16.0770 C   0  0  0  0  0  0  0  0  0  0  0  0
   10.9094   34.8064   16.9010 C   0  0  0  0  0  0  0  0  0  0  0  0
   12.8409   34.0371   15.5001 C   0  0  0  0  0  0  0  0  0  0  0  0
   13.5380   33.0400   14.9080 N   0  0  0  0  0  0  0  0  0  0  0  0
   14.6820   33.0792   14.2364 C   0  0  0  0  0  0  0  0  0  0  0  0
    9.6931   34.1740   17.4101 C   0  0  0  0  0  0  0  0  0  0  0  0
   11.2402   31.5936   15.6078 N   0  0  0  0  0  0  0  0  0  0  0  0
   15.1118   34.3521   13.7557 C   0  0  0  0  0  0  0  0  0  0  0  0
   16.3646   34.5120   12.9672 C   0  0  0  0  0  0  0  0  0  0  0  0
   16.3899   35.4408   12.0184 C   0  0  0  0  0  0  0  0  0  0  0  0
   17.5969   35.7448   11.4875 C   0  0  0  0  0  0  0  0  0  0  0  0
   17.5198   33.7059   13.0226 C   0  0  0  0  0  0  0  0  0  0  0  0
   18.4765   34.4162   11.9459 S   0  0  0  0  0  0  0  0  0  0  0  0
   14.2920   35.5658   14.2850 C   0  0  0  0  0  0  0  0  0  0  0  0
   13.2873   35.3874   15.0462 C   0  0  0  0  0  0  0  0  0  0  0  0
  1  2  1  0
  2  3  1  0
  3  4  2  0
  3  5  1  0
  5  6  2  0
  6  7  1  0
  1  8  2  0
  4  8  1  0
  2  9  1  0
  7 10  2  0
 10 11  1  0
 11 12  1  0
 12 13  2  0
 11 14  2  0
 13 15  1  0
 14 15  1  0
 10 16  1  0
  5 17  1  0
 16 17  2  0
M  END
>  <ID>  (1) 
conformer_0

$$$$
