
     RDKit          3D

 15 17  0  0  0  0  0  0  0  0999 V2000
   13.1941   36.0715   14.8311 C   0  0  0  0  0  0  0  0  0  0  0  0
   13.2489   34.8110   14.8730 C   0  0  0  0  0  0  0  0  0  0  0  0
   14.1565   34.0325   14.0644 C   0  0  0  0  0  0  0  0  0  0  0  0
   14.5066   34.6414   12.8541 N   0  0  0  0  0  0  0  0  0  0  0  0
   13.8112   32.7034   13.9379 N   0  0  0  0  0  0  0  0  0  0  0  0
   13.8564   36.7076   14.1493 N   0  0  0  0  0  0  0  0  0  0  0  0
   12.8872   32.5719   15.0720 C   0  0  0  0  0  0  0  0  0  0  0  0
   12.3988   31.2800   15.4991 C   0  0  0  0  0  0  0  0  0  0  0  0
   15.4159   34.1250   11.8818 C   0  0  0  0  0  0  0  0  0  0  0  0
   14.4830   36.0929   13.0505 C   0  0  0  0  0  0  0  0  0  0  0  0
   12.5392   33.7932   15.6446 C   0  0  0  0  0  0  0  0  0  0  0  0
   12.4999   36.7732   15.9028 N   0  0  0  0  0  0  0  0  0  0  0  0
   11.6352   33.8184   16.7178 C   0  0  0  0  0  0  0  0  0  0  0  0
   11.4095   31.4030   16.4848 C   0  0  0  0  0  0  0  0  0  0  0  0
   11.0472   32.7480   17.0221 C   0  0  0  0  0  0  0  0  0  0  0  0
  1  2  1  0
  2  3  1  0
  3  4  1  0
  3  5  1  0
  1  6  2  0
  5  7  2  0
  7  8  1  0
  4  9  1  0
  4 10  1  0
  6 10  1  0
  2 11  2  0
  7 11  1  0
  1 12  1  0
 11 13  1  0
  8 14  2  0
 13 15  2  0
 14 15  1  0
M  END
>  <ID>  (1) 
conformer_0

$$$$
