
     RDKit          3D

 17 19  0  0  0  0  0  0  0  0999 V2000
   17.2069   32.6762   13.5954 C   0  0  0  0  0  0  0  0  0  0  0  0
   16.0909   32.5416   13.8385 C   0  0  0  0  0  0  0  0  0  0  0  0
   17.7143   33.9441   13.1121 C   0  0  0  0  0  0  0  0  0  0  0  0
   16.7572   34.9659   12.9452 C   0  0  0  0  0  0  0  0  0  0  0  0
   15.4003   34.8152   13.2908 C   0  0  0  0  0  0  0  0  0  0  0  0
   15.0039   33.5483   13.7356 C   0  0  0  0  0  0  0  0  0  0  0  0
   13.4975   33.4110   14.0721 C   0  0  0  0  0  0  0  0  0  0  0  0
   14.4409   35.8267   13.0181 N   0  0  0  0  0  0  0  0  0  0  0  0
   12.9970   32.2287   14.4207 N   0  0  0  0  0  0  0  0  0  0  0  0
   12.0899   32.3573   15.3456 C   0  0  0  0  0  0  0  0  0  0  0  0
   11.5413   33.5206   15.8233 C   0  0  0  0  0  0  0  0  0  0  0  0
   10.3920   33.5369   16.6481 C   0  0  0  0  0  0  0  0  0  0  0  0
    9.7096   32.4990   16.9279 O   0  0  0  0  0  0  0  0  0  0  0  0
   12.3889   34.6023   15.3872 C   0  0  0  0  0  0  0  0  0  0  0  0
   13.5119   35.9113   13.9296 C   0  0  0  0  0  0  0  0  0  0  0  0
    9.9385   34.6592   17.1093 N   0  0  0  0  0  0  0  0  0  0  0  0
   13.1286   34.6062   14.4883 C   0  0  0  0  0  0  0  0  0  0  0  0
  1  2  1  0
  1  3  2  0
  3  4  1  0
  4  5  2  0
  2  6  2  0
  5  6  1  0
  6  7  1  0
  5  8  1  0
  7  9  1  0
  9 10  2  0
 10 11  1  0
 11 12  1  0
 12 13  2  0
 11 14  2  0
  8 15  1  0
 12 16  1  0
  7 17  2  0
 14 17  1  0
 15 17  1  0
M  END
>  <ID>  (1) 
conformer_0

$$$$
