
     RDKit          3D

 16 18  0  0  0  0  0  0  0  0999 V2000
   10.8946   31.2538   16.1283 C   0  0  0  0  0  0  0  0  0  0  0  0
   12.0681   31.6378   15.5103 C   0  0  0  0  0  0  0  0  0  0  0  0
   12.8344   30.8746   14.7538 N   0  0  0  0  0  0  0  0  0  0  0  0
   10.0194   32.2004   16.7679 N   0  0  0  0  0  0  0  0  0  0  0  0
   12.1992   33.1048   15.6500 C   0  0  0  0  0  0  0  0  0  0  0  0
   10.3010   33.4360   16.7961 C   0  0  0  0  0  0  0  0  0  0  0  0
    9.5319   34.3712   17.4987 N   0  0  0  0  0  0  0  0  0  0  0  0
   13.4342   33.5491   14.8778 C   0  0  0  0  0  0  0  0  0  0  0  0
   13.8760   31.7551   14.2870 C   0  0  0  0  0  0  0  0  0  0  0  0
   14.9480   30.8506   13.4769 N   0  0  0  0  0  0  0  0  0  0  0  0
   11.5163   34.0559   16.1977 C   0  0  0  0  0  0  0  0  0  0  0  0
   14.1961   32.9780   14.2834 C   0  0  0  0  0  0  0  0  0  0  0  0
   15.3281   33.5116   13.5271 C   0  0  0  0  0  0  0  0  0  0  0  0
   16.3406   32.7650   13.2261 C   0  0  0  0  0  0  0  0  0  0  0  0
   16.0003   31.3043   13.0736 C   0  0  0  0  0  0  0  0  0  0  0  0
   17.6280   33.1767   12.7721 C   0  0  0  0  0  0  0  0  0  0  0  0
  1  2  2  0
  2  3  1  0
  1  4  1  0
  2  5  1  0
  4  6  2  0
  6  7  1  0
  5  8  1  0
  3  9  2  0
  9 10  1  0
  5 11  2  0
  6 11  1  0
  8 12  2  0
  9 12  1  0
 12 13  1  0
 13 14  2  0
 10 15  2  0
 14 15  1  0
 14 16  1  0
M  END
>  <ID>  (1) 
conformer_0

$$$$
