
     RDKit          3D

 15 16  0  0  0  0  0  0  0  0999 V2000
   13.1941   36.0715   14.8311 C   0  0  0  0  0  0  0  0  0  0  0  0
   13.8444   35.9578   13.8813 N   0  0  0  0  0  0  0  0  0  0  0  0
   12.8286   34.7871   15.3847 C   0  0  0  0  0  0  0  0  0  0  0  0
   14.0813   34.7198   13.4551 N   0  0  0  0  0  0  0  0  0  0  0  0
   13.5597   33.9697   14.4578 C   0  0  0  0  0  0  0  0  0  0  0  0
   13.7468   32.5620   14.4338 N   0  0  0  0  0  0  0  0  0  0  0  0
   15.0221   34.4440   12.4127 C   0  0  0  0  0  0  0  0  0  0  0  0
   12.8878   31.9144   15.3891 C   0  0  0  0  0  0  0  0  0  0  0  0
   12.0476   32.6999   16.2230 N   0  0  0  0  0  0  0  0  0  0  0  0
   15.1504   35.4530   11.5639 C   0  0  0  0  0  0  0  0  0  0  0  0
   12.0063   34.1744   16.3268 C   0  0  0  0  0  0  0  0  0  0  0  0
   11.0255   32.1236   17.1278 C   0  0  0  0  0  0  0  0  0  0  0  0
   14.6320   33.2272   11.6446 C   0  0  0  0  0  0  0  0  0  0  0  0
   16.3381   34.2011   13.0375 C   0  0  0  0  0  0  0  0  0  0  0  0
   11.1467   34.6515   17.0919 O   0  0  0  0  0  0  0  0  0  0  0  0
  1  2  2  0
  1  3  1  0
  2  4  1  0
  3  5  2  0
  4  5  1  0
  5  6  1  0
  4  7  1  0
  6  8  2  0
  8  9  1  0
  7 10  1  0
  3 11  1  0
  9 11  1  0
  9 12  1  0
  7 13  1  0
  7 14  1  0
 11 15  2  0
M  END
>  <ID>  (1) 
conformer_0

$$$$
