
     RDKit          3D

 12 13  0  0  0  0  0  0  0  0999 V2000
    9.6152   33.6205   17.0960 N   0  0  0  0  0  0  0  0  0  0  0  0
   10.6777   33.1993   16.5682 C   0  0  0  0  0  0  0  0  0  0  0  0
   11.5865   34.0080   16.2744 C   0  0  0  0  0  0  0  0  0  0  0  0
   10.7375   31.8140   16.3602 N   0  0  0  0  0  0  0  0  0  0  0  0
   11.5176   35.3584   16.6271 C   0  0  0  0  0  0  0  0  0  0  0  0
   11.7864   31.3529   15.6635 C   0  0  0  0  0  0  0  0  0  0  0  0
   10.2577   35.4402   17.3105 C   0  0  0  0  0  0  0  0  0  0  0  0
   11.9120   30.1063   15.2569 N   0  0  0  0  0  0  0  0  0  0  0  0
    9.3561   34.7674   17.5173 C   0  0  0  0  0  0  0  0  0  0  0  0
   12.7808   33.4232   15.4945 C   0  0  0  0  0  0  0  0  0  0  0  0
   12.7958   32.1552   15.1746 C   0  0  0  0  0  0  0  0  0  0  0  0
   11.0888   28.9925   15.5060 C   0  0  0  0  0  0  0  0  0  0  0  0
  1  2  1  0
  2  3  1  0
  2  4  2  0
  3  5  2  0
  4  6  1  0
  5  7  1  0
  6  8  2  3
  1  9  2  0
  7  9  1  0
  3 10  1  0
  6 11  1  0
 10 11  2  0
  8 12  1  0
M  END
>  <ID>  (1) 
conformer_0

$$$$
