
     RDKit          3D

 18 21  0  0  0  0  0  0  0  0999 V2000
    9.5926   33.6416   16.9697 N   0  0  0  0  0  0  0  0  0  0  0  0
   10.6886   33.1710   16.5189 C   0  0  0  0  0  0  0  0  0  0  0  0
   11.7044   34.1090   16.1654 C   0  0  0  0  0  0  0  0  0  0  0  0
   12.6436   33.9976   15.4520 C   0  0  0  0  0  0  0  0  0  0  0  0
   13.4434   35.0139   14.8882 C   0  0  0  0  0  0  0  0  0  0  0  0
   14.5785   34.7147   14.0712 C   0  0  0  0  0  0  0  0  0  0  0  0
   13.0665   36.2120   15.2700 C   0  0  0  0  0  0  0  0  0  0  0  0
   14.8805   35.6182   13.0933 N   0  0  0  0  0  0  0  0  0  0  0  0
   15.1218   33.4845   14.1460 C   0  0  0  0  0  0  0  0  0  0  0  0
   11.4460   35.6111   16.4387 C   0  0  0  0  0  0  0  0  0  0  0  0
   14.3559   32.4344   14.7709 C   0  0  0  0  0  0  0  0  0  0  0  0
   10.9469   31.9694   16.3978 N   0  0  0  0  0  0  0  0  0  0  0  0
   12.1585   36.5292   16.0824 C   0  0  0  0  0  0  0  0  0  0  0  0
   13.2144   32.7141   15.3658 C   0  0  0  0  0  0  0  0  0  0  0  0
   12.1992   31.6414   15.6940 C   0  0  0  0  0  0  0  0  0  0  0  0
   16.3767   33.2692   13.4246 C   0  0  0  0  0  0  0  0  0  0  0  0
   16.9006   34.2385   12.7326 C   0  0  0  0  0  0  0  0  0  0  0  0
   16.2512   35.5182   12.5237 C   0  0  0  0  0  0  0  0  0  0  0  0
  1  2  1  0
  2  3  1  0
  3  4  1  0
  4  5  1  0
  5  6  1  0
  5  7  2  0
  6  8  1  0
  6  9  2  0
  3 10  2  0
  9 11  1  0
  2 12  2  0
  7 13  1  0
 10 13  1  0
  4 14  2  0
 11 14  1  0
 12 15  1  0
 14 15  1  0
  9 16  1  0
 16 17  2  0
  8 18  2  0
 17 18  1  0
M  END
>  <ID>  (1) 
conformer_0

$$$$
