
     RDKit          3D

 17 19  0  0  0  0  0  0  0  0999 V2000
    9.8000   32.8788   16.8361 N   0  0  0  0  0  0  0  0  0  0  0  0
   10.8775   32.5942   16.1723 C   0  0  0  0  0  0  0  0  0  0  0  0
   11.2358   31.4743   15.6559 N   0  0  0  0  0  0  0  0  0  0  0  0
   12.3745   31.3037   14.9740 C   0  0  0  0  0  0  0  0  0  0  0  0
   12.9971   32.6955   14.9987 C   0  0  0  0  0  0  0  0  0  0  0  0
   11.9877   33.4652   15.8179 C   0  0  0  0  0  0  0  0  0  0  0  0
   11.8389   34.8266   16.2154 C   0  0  0  0  0  0  0  0  0  0  0  0
   14.1735   33.1522   14.4838 C   0  0  0  0  0  0  0  0  0  0  0  0
   14.1666   34.2644   13.6929 N   0  0  0  0  0  0  0  0  0  0  0  0
   13.1291   35.0250   13.2371 C   0  0  0  0  0  0  0  0  0  0  0  0
   15.5840   34.3876   13.1723 C   0  0  0  0  0  0  0  0  0  0  0  0
    9.7915   34.2258   17.2388 C   0  0  0  0  0  0  0  0  0  0  0  0
   15.7363   35.4961   12.2518 C   0  0  0  0  0  0  0  0  0  0  0  0
   16.5184   33.6851   13.5074 O   0  0  0  0  0  0  0  0  0  0  0  0
   14.7240   35.5657   11.2738 N   0  0  0  0  0  0  0  0  0  0  0  0
   10.6953   35.1099   17.0197 C   0  0  0  0  0  0  0  0  0  0  0  0
   13.4041   35.7913   11.9794 C   0  0  0  0  0  0  0  0  0  0  0  0
  1  2  1  0
  2  3  2  0
  3  4  1  0
  4  5  2  0
  2  6  1  0
  5  6  1  0
  6  7  1  0
  5  8  1  0
  8  9  1  0
  9 10  1  0
  9 11  1  0
  1 12  2  0
 11 13  1  0
 11 14  2  0
 13 15  1  0
  7 16  2  0
 12 16  1  0
 10 17  1  0
 15 17  1  0
M  END
>  <ID>  (1) 
conformer_0

$$$$
