
     RDKit          3D

 16 19  0  0  0  0  0  0  0  0999 V2000
    9.8000   32.8788   16.8361 N   0  0  0  0  0  0  0  0  0  0  0  0
   10.6346   32.1003   16.2242 C   0  0  0  0  0  0  0  0  0  0  0  0
   11.8485   32.5441   15.7278 C   0  0  0  0  0  0  0  0  0  0  0  0
   12.6982   31.7786   14.9773 C   0  0  0  0  0  0  0  0  0  0  0  0
   13.8406   32.4587   14.4314 C   0  0  0  0  0  0  0  0  0  0  0  0
   14.8393   31.6834   13.7030 C   0  0  0  0  0  0  0  0  0  0  0  0
   10.3105   34.2241   16.8890 C   0  0  0  0  0  0  0  0  0  0  0  0
   13.7726   33.8592   14.6556 C   0  0  0  0  0  0  0  0  0  0  0  0
   14.8216   34.6343   14.0020 C   0  0  0  0  0  0  0  0  0  0  0  0
   15.8963   32.6061   13.1598 N   0  0  0  0  0  0  0  0  0  0  0  0
   15.8318   33.9191   13.2655 C   0  0  0  0  0  0  0  0  0  0  0  0
   16.6702   34.8801   12.6288 C   0  0  0  0  0  0  0  0  0  0  0  0
   15.0999   35.9837   13.9247 N   0  0  0  0  0  0  0  0  0  0  0  0
   11.3361   34.7733   16.4838 C   0  0  0  0  0  0  0  0  0  0  0  0
   12.2989   33.9109   15.6766 C   0  0  0  0  0  0  0  0  0  0  0  0
   16.1470   36.3062   13.1423 N   0  0  0  0  0  0  0  0  0  0  0  0
  1  2  1  0
  2  3  2  0
  3  4  1  0
  4  5  2  0
  5  6  1  0
  1  7  2  0
  5  8  1  0
  8  9  1  0
  6 10  2  0
  9 11  1  0
 10 11  1  0
 11 12  2  0
  9 13  2  0
  7 14  1  0
  3 15  1  0
  8 15  1  0
 14 15  1  0
 12 16  1  0
 13 16  1  0
M  END
>  <ID>  (1) 
conformer_0

$$$$
