
     RDKit          3D

 16 18  0  0  0  0  0  0  0  0999 V2000
   10.3463   32.2498   16.4638 C   0  0  0  0  0  0  0  0  0  0  0  0
   11.3108   32.1717   15.7563 C   0  0  0  0  0  0  0  0  0  0  0  0
   12.2535   33.2259   15.4954 C   0  0  0  0  0  0  0  0  0  0  0  0
   11.8659   34.5407   16.0706 C   0  0  0  0  0  0  0  0  0  0  0  0
   13.3899   33.1708   14.6624 C   0  0  0  0  0  0  0  0  0  0  0  0
   10.8076   34.5875   16.9049 C   0  0  0  0  0  0  0  0  0  0  0  0
   13.8268   34.1403   13.8144 N   0  0  0  0  0  0  0  0  0  0  0  0
   14.3720   32.2134   14.9214 N   0  0  0  0  0  0  0  0  0  0  0  0
   15.4187   32.5122   14.0377 C   0  0  0  0  0  0  0  0  0  0  0  0
   16.6566   31.8598   13.8693 C   0  0  0  0  0  0  0  0  0  0  0  0
   17.5899   32.3893   12.9773 C   0  0  0  0  0  0  0  0  0  0  0  0
   13.2290   35.2338   13.3141 C   0  0  0  0  0  0  0  0  0  0  0  0
   17.2732   33.6830   12.2544 C   0  0  0  0  0  0  0  0  0  0  0  0
   10.0189   33.4446   17.1342 C   0  0  0  0  0  0  0  0  0  0  0  0
   15.2082   33.7033   13.3575 C   0  0  0  0  0  0  0  0  0  0  0  0
   16.0936   34.3154   12.5151 C   0  0  0  0  0  0  0  0  0  0  0  0
  1  2  1  0
  2  3  2  0
  3  4  1  0
  3  5  1  0
  4  6  2  0
  5  7  1  0
  5  8  2  0
  8  9  1  0
  9 10  2  0
 10 11  1  0
  7 12  1  0
 11 13  2  0
  1 14  2  0
  6 14  1  0
  7 15  1  0
  9 15  1  0
 13 16  1  0
 15 16  2  0
M  END
>  <ID>  (1) 
conformer_0

$$$$
