
     RDKit          3D

 14 15  0  0  0  0  0  0  0  0999 V2000
    9.5648   33.3013   17.0183 N   0  0  0  0  0  0  0  0  0  0  0  0
   10.2900   32.4161   16.5298 C   0  0  0  0  0  0  0  0  0  0  0  0
   11.5142   33.1041   15.9897 C   0  0  0  0  0  0  0  0  0  0  0  0
    9.9347   34.5871   17.3413 C   0  0  0  0  0  0  0  0  0  0  0  0
   11.8810   34.3629   16.2196 C   0  0  0  0  0  0  0  0  0  0  0  0
   11.1121   35.0755   16.8718 N   0  0  0  0  0  0  0  0  0  0  0  0
   13.1362   34.7544   15.6548 N   0  0  0  0  0  0  0  0  0  0  0  0
   13.9145   33.9361   14.9867 C   0  0  0  0  0  0  0  0  0  0  0  0
   13.2464   32.6702   14.7270 C   0  0  0  0  0  0  0  0  0  0  0  0
   15.1105   34.3672   14.2754 N   0  0  0  0  0  0  0  0  0  0  0  0
   12.2984   32.2809   15.1782 N   0  0  0  0  0  0  0  0  0  0  0  0
   14.9944   35.4120   13.3432 C   0  0  0  0  0  0  0  0  0  0  0  0
   15.9787   35.2362   12.2728 C   0  0  0  0  0  0  0  0  0  0  0  0
   17.3486   35.1558   12.8149 C   0  0  0  0  0  0  0  0  0  0  0  0
  1  2  2  0
  2  3  1  0
  1  4  1  0
  3  5  2  0
  4  6  2  0
  5  6  1  0
  5  7  1  0
  7  8  2  0
  8  9  1  0
  8 10  1  0
  3 11  1  0
  9 11  2  0
 10 12  1  0
 12 13  1  0
 13 14  1  0
M  END
>  <ID>  (1) 
conformer_0

$$$$
