
     RDKit          3D

 18 20  0  0  0  0  0  0  0  0999 V2000
   10.8727   32.1461   15.8886 C   0  0  0  0  0  0  0  0  0  0  0  0
   12.0095   32.6196   15.4762 C   0  0  0  0  0  0  0  0  0  0  0  0
   12.4513   33.9676   15.6418 C   0  0  0  0  0  0  0  0  0  0  0  0
   13.5875   34.4685   15.0077 C   0  0  0  0  0  0  0  0  0  0  0  0
   13.7346   35.7916   14.6642 C   0  0  0  0  0  0  0  0  0  0  0  0
   14.6943   33.7009   14.7751 C   0  0  0  0  0  0  0  0  0  0  0  0
   11.5446   34.6023   16.4827 C   0  0  0  0  0  0  0  0  0  0  0  0
   15.7991   34.1687   14.0133 C   0  0  0  0  0  0  0  0  0  0  0  0
   11.8907   36.0613   16.7588 C   0  0  0  0  0  0  0  0  0  0  0  0
   10.5376   30.8022   15.6856 N   0  0  0  0  0  0  0  0  0  0  0  0
   10.4284   34.1283   17.0410 C   0  0  0  0  0  0  0  0  0  0  0  0
   10.0734   32.8742   16.7908 N   0  0  0  0  0  0  0  0  0  0  0  0
   12.5770   36.6917   14.8313 O   0  0  0  0  0  0  0  0  0  0  0  0
   12.3777   37.0504   16.1044 C   0  0  0  0  0  0  0  0  0  0  0  0
   15.7279   35.2023   13.4355 C   0  0  0  0  0  0  0  0  0  0  0  0
   16.8022   35.6575   12.5728 C   0  0  0  0  0  0  0  0  0  0  0  0
   14.6958   36.1474   13.6999 C   0  0  0  0  0  0  0  0  0  0  0  0
   16.6098   35.5048   11.2300 N   0  0  0  0  0  0  0  0  0  0  0  0
  1  2  2  0
  2  3  1  0
  3  4  1  0
  4  5  1  0
  4  6  2  0
  3  7  2  0
  6  8  1  0
  7  9  1  0
  1 10  1  0
  7 11  1  0
  1 12  1  0
 11 12  2  0
  5 13  1  0
  9 14  2  0
 13 14  1  0
  8 15  2  0
 15 16  1  0
  5 17  2  0
 15 17  1  0
 16 18  1  0
M  END
>  <ID>  (1) 
conformer_0

$$$$
