
     RDKit          3D

 16 18  0  0  0  0  0  0  0  0999 V2000
   13.1941   36.0715   14.8311 C   0  0  0  0  0  0  0  0  0  0  0  0
   13.8444   35.9578   13.8813 N   0  0  0  0  0  0  0  0  0  0  0  0
   12.8286   34.7871   15.3847 C   0  0  0  0  0  0  0  0  0  0  0  0
   14.0813   34.7198   13.4551 N   0  0  0  0  0  0  0  0  0  0  0  0
   13.5597   33.9697   14.4578 C   0  0  0  0  0  0  0  0  0  0  0  0
   13.7468   32.5620   14.4338 N   0  0  0  0  0  0  0  0  0  0  0  0
   15.0221   34.4440   12.4127 C   0  0  0  0  0  0  0  0  0  0  0  0
   12.8878   31.9144   15.3891 C   0  0  0  0  0  0  0  0  0  0  0  0
   11.9902   34.0694   16.2258 C   0  0  0  0  0  0  0  0  0  0  0  0
   12.0106   32.7063   16.1905 C   0  0  0  0  0  0  0  0  0  0  0  0
   15.0922   35.4327   11.5019 C   0  0  0  0  0  0  0  0  0  0  0  0
   14.6247   33.2072   11.7129 C   0  0  0  0  0  0  0  0  0  0  0  0
   16.4688   34.1696   12.8236 C   0  0  0  0  0  0  0  0  0  0  0  0
   11.1040   34.7623   17.1358 N   0  0  0  0  0  0  0  0  0  0  0  0
   10.1194   33.6933   17.3183 C   0  0  0  0  0  0  0  0  0  0  0  0
   10.7796   32.4688   16.9421 C   0  0  0  0  0  0  0  0  0  0  0  0
  1  2  2  0
  1  3  1  0
  2  4  1  0
  3  5  2  0
  4  5  1  0
  5  6  1  0
  4  7  1  0
  6  8  2  0
  3  9  1  0
  8 10  1  0
  9 10  2  0
  7 11  1  0
  7 12  1  0
  7 13  1  0
  9 14  1  0
 14 15  1  0
 10 16  1  0
 15 16  2  0
M  END
>  <ID>  (1) 
conformer_0

$$$$
