
     RDKit          3D

 14 14  0  0  0  0  0  0  0  0999 V2000
    9.5926   33.6416   16.9697 N   0  0  0  0  0  0  0  0  0  0  0  0
   10.6886   33.1710   16.5189 C   0  0  0  0  0  0  0  0  0  0  0  0
   11.7044   34.1090   16.1654 C   0  0  0  0  0  0  0  0  0  0  0  0
   12.6436   33.9976   15.4520 C   0  0  0  0  0  0  0  0  0  0  0  0
   13.4434   35.0139   14.8882 C   0  0  0  0  0  0  0  0  0  0  0  0
   14.5785   34.7147   14.0712 C   0  0  0  0  0  0  0  0  0  0  0  0
   15.3718   33.7570   14.2197 O   0  0  0  0  0  0  0  0  0  0  0  0
   11.5297   35.2771   17.0092 C   0  0  0  0  0  0  0  0  0  0  0  0
   10.7428   31.8922   16.0499 N   0  0  0  0  0  0  0  0  0  0  0  0
   15.1086   35.9149   13.4119 C   0  0  0  0  0  0  0  0  0  0  0  0
   12.9340   36.3034   15.2367 C   0  0  0  0  0  0  0  0  0  0  0  0
   12.1544   36.4372   16.3874 C   0  0  0  0  0  0  0  0  0  0  0  0
   16.5041   33.5427   13.5179 C   0  0  0  0  0  0  0  0  0  0  0  0
   14.6843   35.9721   12.0514 O   0  0  0  0  0  0  0  0  0  0  0  0
  1  2  1  0
  2  3  1  0
  3  4  1  0
  4  5  1  0
  5  6  1  0
  6  7  1  0
  3  8  2  0
  2  9  2  0
  6 10  2  3
  5 11  2  0
  8 12  1  0
 11 12  1  0
  7 13  1  0
 10 14  1  0
M  END
>  <ID>  (1) 
conformer_0

$$$$
