
     RDKit          3D

 15 17  0  0  0  0  0  0  0  0999 V2000
   13.1941   36.0715   14.8311 C   0  0  0  0  0  0  0  0  0  0  0  0
   13.2489   34.8110   14.8730 C   0  0  0  0  0  0  0  0  0  0  0  0
   14.1565   34.0325   14.0644 C   0  0  0  0  0  0  0  0  0  0  0  0
   12.3533   34.1055   15.7306 C   0  0  0  0  0  0  0  0  0  0  0  0
   12.4709   36.7181   15.7631 N   0  0  0  0  0  0  0  0  0  0  0  0
   14.1772   36.6138   14.1654 N   0  0  0  0  0  0  0  0  0  0  0  0
   14.9261   35.5414   13.3743 C   0  0  0  0  0  0  0  0  0  0  0  0
   11.5788   36.1594   16.5294 C   0  0  0  0  0  0  0  0  0  0  0  0
   15.8468   35.2980   12.5057 C   0  0  0  0  0  0  0  0  0  0  0  0
   11.4367   34.7991   16.5461 C   0  0  0  0  0  0  0  0  0  0  0  0
   10.4442   34.1229   17.1299 N   0  0  0  0  0  0  0  0  0  0  0  0
   11.7861   32.6726   15.9895 C   0  0  0  0  0  0  0  0  0  0  0  0
   10.6924   32.8085   16.7652 C   0  0  0  0  0  0  0  0  0  0  0  0
   15.5207   34.6972   11.4160 O   0  0  0  0  0  0  0  0  0  0  0  0
   16.9317   35.9221   12.7339 O   0  0  0  0  0  0  0  0  0  0  0  0
  1  2  1  0
  2  3  1  0
  2  4  2  0
  1  5  1  0
  1  6  2  0
  3  7  2  0
  6  7  1  0
  5  8  2  0
  7  9  1  0
  4 10  1  0
  8 10  1  0
 10 11  2  0
  4 12  1  0
 11 13  1  0
 12 13  2  0
  9 14  2  0
  9 15  1  0
M  END
>  <ID>  (1) 
conformer_0

$$$$
