
     RDKit          3D

 18 20  0  0  0  0  0  0  0  0999 V2000
   10.0757   32.0747   16.5027 N   0  0  0  0  0  0  0  0  0  0  0  0
   11.2878   31.9403   15.9054 C   0  0  0  0  0  0  0  0  0  0  0  0
   12.1019   33.1048   15.7438 C   0  0  0  0  0  0  0  0  0  0  0  0
   13.2429   33.2333   14.8875 C   0  0  0  0  0  0  0  0  0  0  0  0
   13.8239   34.4569   14.5427 C   0  0  0  0  0  0  0  0  0  0  0  0
    9.9500   33.4063   16.9970 C   0  0  0  0  0  0  0  0  0  0  0  0
   14.9932   34.4875   13.6354 C   0  0  0  0  0  0  0  0  0  0  0  0
   11.6433   34.4022   16.2785 C   0  0  0  0  0  0  0  0  0  0  0  0
   13.4862   35.6285   15.1102 C   0  0  0  0  0  0  0  0  0  0  0  0
   15.8501   33.3980   13.3690 C   0  0  0  0  0  0  0  0  0  0  0  0
   10.5763   34.4520   16.9825 N   0  0  0  0  0  0  0  0  0  0  0  0
   11.6504   30.8277   15.2749 N   0  0  0  0  0  0  0  0  0  0  0  0
   12.3598   35.5703   16.0076 C   0  0  0  0  0  0  0  0  0  0  0  0
   16.9534   33.5006   12.5704 C   0  0  0  0  0  0  0  0  0  0  0  0
   17.0938   34.7087   12.0195 C   0  0  0  0  0  0  0  0  0  0  0  0
   18.2976   34.8353   11.1252 F   0  0  0  0  0  0  0  0  0  0  0  0
   15.1693   35.7647   12.9735 C   0  0  0  0  0  0  0  0  0  0  0  0
   16.3868   35.8514   12.0597 C   0  0  0  0  0  0  0  0  0  0  0  0
  1  2  1  0
  2  3  1  0
  3  4  2  0
  4  5  1  0
  1  6  2  0
  5  7  1  0
  3  8  1  0
  5  9  2  0
  7 10  2  0
  6 11  1  0
  8 11  2  0
  2 12  1  0
  8 13  1  0
  9 13  1  0
 10 14  1  0
 14 15  2  0
 15 16  1  0
  7 17  1  0
 15 18  1  0
 17 18  2  0
M  END
>  <ID>  (1) 
conformer_0

$$$$
