
     RDKit          3D

 15 16  0  0  0  0  0  0  0  0999 V2000
   10.0757   32.0747   16.5027 N   0  0  0  0  0  0  0  0  0  0  0  0
   11.2878   31.9403   15.9054 C   0  0  0  0  0  0  0  0  0  0  0  0
   12.1019   33.1048   15.7438 C   0  0  0  0  0  0  0  0  0  0  0  0
   13.2429   33.2333   14.8875 C   0  0  0  0  0  0  0  0  0  0  0  0
   13.8239   34.4569   14.5427 C   0  0  0  0  0  0  0  0  0  0  0  0
    9.9500   33.4063   16.9970 C   0  0  0  0  0  0  0  0  0  0  0  0
   14.9932   34.4875   13.6354 C   0  0  0  0  0  0  0  0  0  0  0  0
   11.6433   34.4022   16.2785 C   0  0  0  0  0  0  0  0  0  0  0  0
   13.4862   35.6285   15.1102 C   0  0  0  0  0  0  0  0  0  0  0  0
   10.7022   34.4530   16.9496 N   0  0  0  0  0  0  0  0  0  0  0  0
   11.7973   30.7935   15.6287 N   0  0  0  0  0  0  0  0  0  0  0  0
   15.2446   35.4685   12.8213 N   0  0  0  0  0  0  0  0  0  0  0  0
   12.3434   35.5612   16.0235 C   0  0  0  0  0  0  0  0  0  0  0  0
   16.5050   35.4615   12.1556 C   0  0  0  0  0  0  0  0  0  0  0  0
   15.6737   33.3441   13.3037 O   0  0  0  0  0  0  0  0  0  0  0  0
  1  2  1  0
  2  3  1  0
  3  4  2  0
  4  5  1  0
  1  6  2  0
  5  7  1  0
  3  8  1  0
  5  9  2  0
  6 10  1  0
  8 10  2  0
  2 11  2  0
  7 12  1  0
  8 13  1  0
  9 13  1  0
 12 14  1  0
  7 15  2  0
M  END
>  <ID>  (1) 
conformer_0

$$$$
