
     RDKit          3D

  9 10  0  0  0  0  0  0  0  0999 V2000
    9.5648   33.3013   17.0183 N   0  0  0  0  0  0  0  0  0  0  0  0
   10.0635   34.5946   17.1602 C   0  0  0  0  0  0  0  0  0  0  0  0
   10.5662   32.7022   16.3672 C   0  0  0  0  0  0  0  0  0  0  0  0
   11.5745   33.5535   16.0753 C   0  0  0  0  0  0  0  0  0  0  0  0
   10.6287   31.4422   16.0870 N   0  0  0  0  0  0  0  0  0  0  0  0
   11.2620   34.8049   16.5895 N   0  0  0  0  0  0  0  0  0  0  0  0
   12.6185   33.2608   15.2238 N   0  0  0  0  0  0  0  0  0  0  0  0
   11.6290   31.0277   15.2461 C   0  0  0  0  0  0  0  0  0  0  0  0
   12.6557   31.9382   14.8800 C   0  0  0  0  0  0  0  0  0  0  0  0
  1  2  2  0
  1  3  1  0
  3  4  1  0
  3  5  1  0
  2  6  1  0
  4  6  1  0
  4  7  2  0
  5  8  2  0
  7  9  1  0
  8  9  1  0
M  END
>  <ID>  (1) 
conformer_0

$$$$
