
     RDKit          3D

 12 13  0  0  0  0  0  0  0  0999 V2000
   10.3463   32.2498   16.4638 C   0  0  0  0  0  0  0  0  0  0  0  0
    9.6830   33.1965   17.0363 N   0  0  0  0  0  0  0  0  0  0  0  0
   11.5060   32.7747   15.8654 C   0  0  0  0  0  0  0  0  0  0  0  0
   10.1098   34.4934   17.3200 C   0  0  0  0  0  0  0  0  0  0  0  0
   12.3618   31.9835   14.9869 N   0  0  0  0  0  0  0  0  0  0  0  0
   13.4867   32.6527   14.5855 C   0  0  0  0  0  0  0  0  0  0  0  0
   11.9880   34.1694   15.9738 C   0  0  0  0  0  0  0  0  0  0  0  0
   13.1333   34.2307   15.2692 N   0  0  0  0  0  0  0  0  0  0  0  0
   14.0217   35.3138   15.1054 C   0  0  0  0  0  0  0  0  0  0  0  0
   11.3903   34.8709   16.6783 N   0  0  0  0  0  0  0  0  0  0  0  0
   14.5787   35.3419   13.7935 C   0  0  0  0  0  0  0  0  0  0  0  0
   13.9788   35.6615   12.7564 O   0  0  0  0  0  0  0  0  0  0  0  0
  1  2  1  0
  1  3  2  0
  2  4  2  0
  3  5  1  0
  5  6  2  0
  3  7  1  0
  6  8  1  0
  7  8  1  0
  8  9  1  0
  4 10  1  0
  7 10  2  0
  9 11  1  0
 11 12  1  0
M  END
>  <ID>  (1) 
conformer_0

$$$$
