
     RDKit          3D

 17 20  0  0  0  0  0  0  0  0999 V2000
   10.8727   32.1461   15.8886 C   0  0  0  0  0  0  0  0  0  0  0  0
   12.0095   32.6196   15.4762 C   0  0  0  0  0  0  0  0  0  0  0  0
   12.4513   33.9676   15.6418 C   0  0  0  0  0  0  0  0  0  0  0  0
   13.5875   34.4685   15.0077 C   0  0  0  0  0  0  0  0  0  0  0  0
   13.7346   35.7916   14.6642 C   0  0  0  0  0  0  0  0  0  0  0  0
   14.2016   33.8949   13.9180 N   0  0  0  0  0  0  0  0  0  0  0  0
   14.7057   36.0865   13.7842 N   0  0  0  0  0  0  0  0  0  0  0  0
   14.4822   32.5463   13.6724 C   0  0  0  0  0  0  0  0  0  0  0  0
   11.4848   34.6025   16.4193 C   0  0  0  0  0  0  0  0  0  0  0  0
   15.0462   34.8434   13.2594 C   0  0  0  0  0  0  0  0  0  0  0  0
   11.8421   36.0862   16.7243 C   0  0  0  0  0  0  0  0  0  0  0  0
   10.0684   32.8776   16.7531 N   0  0  0  0  0  0  0  0  0  0  0  0
   13.1734   36.9031   15.4652 C   0  0  0  0  0  0  0  0  0  0  0  0
   10.4133   34.1325   17.0225 C   0  0  0  0  0  0  0  0  0  0  0  0
   15.0356   32.3955   12.4588 C   0  0  0  0  0  0  0  0  0  0  0  0
   15.8764   33.2810   11.7802 C   0  0  0  0  0  0  0  0  0  0  0  0
   15.7700   34.6135   12.1428 C   0  0  0  0  0  0  0  0  0  0  0  0
  1  2  2  0
  2  3  1  0
  3  4  1  0
  4  5  1  0
  4  6  1  0
  5  7  1  0
  6  8  1  0
  3  9  2  0
  6 10  1  0
  7 10  2  0
  9 11  1  0
  1 12  1  0
  5 13  2  0
 11 13  1  0
  9 14  1  0
 12 14  2  0
  8 15  2  0
 15 16  1  0
 10 17  1  0
 16 17  2  0
M  END
>  <ID>  (1) 
conformer_0

$$$$
