
     RDKit          3D

 18 21  0  0  0  0  0  0  0  0999 V2000
   13.1941   36.0715   14.8311 C   0  0  0  0  0  0  0  0  0  0  0  0
   13.8444   35.9578   13.8813 N   0  0  0  0  0  0  0  0  0  0  0  0
   14.3392   34.8291   13.4149 C   0  0  0  0  0  0  0  0  0  0  0  0
   15.2352   34.7420   12.2112 C   0  0  0  0  0  0  0  0  0  0  0  0
   16.5550   35.0820   12.2851 C   0  0  0  0  0  0  0  0  0  0  0  0
   14.0057   33.6546   14.2142 C   0  0  0  0  0  0  0  0  0  0  0  0
   13.3774   33.7509   15.1928 C   0  0  0  0  0  0  0  0  0  0  0  0
   12.8392   35.0677   15.6452 C   0  0  0  0  0  0  0  0  0  0  0  0
   17.1575   35.3530   11.2108 N   0  0  0  0  0  0  0  0  0  0  0  0
   12.8649   32.5539   15.9953 C   0  0  0  0  0  0  0  0  0  0  0  0
   14.8595   34.5129   11.0558 C   0  0  0  0  0  0  0  0  0  0  0  0
   11.5599   32.5805   16.5207 C   0  0  0  0  0  0  0  0  0  0  0  0
   16.0986   34.8999   10.1686 O   0  0  0  0  0  0  0  0  0  0  0  0
   10.7436   31.5732   16.3998 N   0  0  0  0  0  0  0  0  0  0  0  0
    9.5210   31.9568   16.8260 N   0  0  0  0  0  0  0  0  0  0  0  0
    9.4226   33.1222   17.1209 N   0  0  0  0  0  0  0  0  0  0  0  0
   10.7665   33.7532   16.8675 C   0  0  0  0  0  0  0  0  0  0  0  0
   11.2480   35.0351   17.0154 N   0  0  0  0  0  0  0  0  0  0  0  0
  1  2  1  0
  2  3  2  0
  3  4  1  0
  4  5  1  0
  3  6  1  0
  6  7  2  0
  1  8  2  0
  7  8  1  0
  5  9  2  0
  7 10  1  0
  4 11  2  0
 10 12  1  0
  9 13  1  0
 11 13  1  0
 12 14  1  0
 14 15  2  0
 15 16  1  0
 12 17  1  0
 16 17  1  0
  8 18  1  0
 17 18  2  0
M  END
>  <ID>  (1) 
conformer_0

$$$$
