
     RDKit          3D

 13 14  0  0  0  0  0  0  0  0999 V2000
   10.8727   32.1461   15.8886 C   0  0  0  0  0  0  0  0  0  0  0  0
   12.0095   32.6196   15.4762 C   0  0  0  0  0  0  0  0  0  0  0  0
   12.4513   33.9676   15.6418 C   0  0  0  0  0  0  0  0  0  0  0  0
   13.5875   34.4685   15.0077 C   0  0  0  0  0  0  0  0  0  0  0  0
   13.7346   35.7916   14.6642 C   0  0  0  0  0  0  0  0  0  0  0  0
   14.2016   33.8949   13.9180 N   0  0  0  0  0  0  0  0  0  0  0  0
   14.7057   36.0865   13.7842 N   0  0  0  0  0  0  0  0  0  0  0  0
   10.3428   33.2877   16.7238 C   0  0  0  0  0  0  0  0  0  0  0  0
   10.9584   34.5452   16.8219 C   0  0  0  0  0  0  0  0  0  0  0  0
    9.2046   32.9336   17.4461 F   0  0  0  0  0  0  0  0  0  0  0  0
   15.0195   34.7845   13.3518 C   0  0  0  0  0  0  0  0  0  0  0  0
   16.1213   34.4493   12.5530 O   0  0  0  0  0  0  0  0  0  0  0  0
   11.8991   34.8482   16.3301 C   0  0  0  0  0  0  0  0  0  0  0  0
  1  2  2  0
  2  3  1  0
  3  4  1  0
  4  5  1  0
  4  6  1  0
  5  7  1  0
  1  8  1  0
  8  9  2  0
  8 10  1  0
  6 11  1  0
  7 11  1  0
 11 12  2  0
  3 13  2  0
  9 13  1  0
M  END
>  <ID>  (1) 
conformer_0

$$$$
