
     RDKit          3D

 17 19  0  0  0  0  0  0  0  0999 V2000
    9.8000   32.8788   16.8361 N   0  0  0  0  0  0  0  0  0  0  0  0
   10.8775   32.5942   16.1723 C   0  0  0  0  0  0  0  0  0  0  0  0
   11.2358   31.4743   15.6559 N   0  0  0  0  0  0  0  0  0  0  0  0
   12.3745   31.3037   14.9740 C   0  0  0  0  0  0  0  0  0  0  0  0
   12.9971   32.6955   14.9987 C   0  0  0  0  0  0  0  0  0  0  0  0
   11.9877   33.4652   15.8179 C   0  0  0  0  0  0  0  0  0  0  0  0
   11.8389   34.8266   16.2154 C   0  0  0  0  0  0  0  0  0  0  0  0
   14.1735   33.1522   14.4838 C   0  0  0  0  0  0  0  0  0  0  0  0
   14.1666   34.2644   13.6929 N   0  0  0  0  0  0  0  0  0  0  0  0
   13.1291   35.0250   13.2371 C   0  0  0  0  0  0  0  0  0  0  0  0
   13.5649   35.9605   12.2503 N   0  0  0  0  0  0  0  0  0  0  0  0
   10.8440   35.1158   16.9809 N   0  0  0  0  0  0  0  0  0  0  0  0
   11.9696   35.0149   13.5093 O   0  0  0  0  0  0  0  0  0  0  0  0
    9.8420   34.0449   17.2088 C   0  0  0  0  0  0  0  0  0  0  0  0
   14.8508   35.8627   11.8263 C   0  0  0  0  0  0  0  0  0  0  0  0
   15.2582   32.3749   14.3508 O   0  0  0  0  0  0  0  0  0  0  0  0
   15.4385   34.8544   13.0425 C   0  0  0  0  0  0  0  0  0  0  0  0
  1  2  1  0
  2  3  2  0
  3  4  1  0
  4  5  2  0
  2  6  1  0
  5  6  1  0
  6  7  1  0
  5  8  1  0
  8  9  1  0
  9 10  1  0
 10 11  1  0
  7 12  2  0
 10 13  2  0
  1 14  2  0
 12 14  1  0
 11 15  1  0
  8 16  2  0
  9 17  1  0
 15 17  1  0
M  END
>  <ID>  (1) 
conformer_0

$$$$
