
     RDKit          3D

 14 15  0  0  0  0  0  0  0  0999 V2000
   10.1067   31.9711   16.3926 N   0  0  0  0  0  0  0  0  0  0  0  0
   11.3381   31.9519   15.8447 C   0  0  0  0  0  0  0  0  0  0  0  0
   12.1450   33.0438   15.6692 C   0  0  0  0  0  0  0  0  0  0  0  0
   11.3945   34.1703   16.3584 C   0  0  0  0  0  0  0  0  0  0  0  0
   13.3215   33.2328   14.9576 C   0  0  0  0  0  0  0  0  0  0  0  0
   10.3375   34.1561   16.9993 C   0  0  0  0  0  0  0  0  0  0  0  0
   13.7061   34.3802   14.3308 C   0  0  0  0  0  0  0  0  0  0  0  0
    9.6420   32.9667   16.9928 N   0  0  0  0  0  0  0  0  0  0  0  0
   13.0065   35.5058   13.9977 C   0  0  0  0  0  0  0  0  0  0  0  0
   15.0593   34.3164   13.7370 C   0  0  0  0  0  0  0  0  0  0  0  0
   13.4514   36.5064   13.2445 C   0  0  0  0  0  0  0  0  0  0  0  0
   15.9750   33.1815   14.0568 C   0  0  0  0  0  0  0  0  0  0  0  0
   15.5031   35.3556   12.9363 C   0  0  0  0  0  0  0  0  0  0  0  0
   14.7251   36.3593   12.6619 N   0  0  0  0  0  0  0  0  0  0  0  0
  1  2  2  0
  2  3  1  0
  3  4  2  0
  3  5  1  0
  4  6  1  0
  5  7  1  0
  1  8  1  0
  6  8  2  0
  7  9  1  0
  7 10  2  0
  9 11  2  0
 10 12  1  0
 10 13  1  0
 11 14  1  0
 13 14  2  0
M  END
>  <ID>  (1) 
conformer_0

$$$$
