
     RDKit          3D

 17 19  0  0  0  0  0  0  0  0999 V2000
    9.5926   33.6416   16.9697 N   0  0  0  0  0  0  0  0  0  0  0  0
   10.6886   33.1710   16.5189 C   0  0  0  0  0  0  0  0  0  0  0  0
   11.7044   34.1090   16.1654 C   0  0  0  0  0  0  0  0  0  0  0  0
   12.6436   33.9976   15.4520 C   0  0  0  0  0  0  0  0  0  0  0  0
   13.4434   35.0139   14.8882 C   0  0  0  0  0  0  0  0  0  0  0  0
   14.5785   34.7147   14.0712 C   0  0  0  0  0  0  0  0  0  0  0  0
   13.0665   36.2120   15.2700 C   0  0  0  0  0  0  0  0  0  0  0  0
   14.8805   35.6182   13.0933 N   0  0  0  0  0  0  0  0  0  0  0  0
   15.9261   35.1830   12.0883 C   0  0  0  0  0  0  0  0  0  0  0  0
   12.8035   32.6221   15.0292 N   0  0  0  0  0  0  0  0  0  0  0  0
   11.5109   35.5885   16.5473 C   0  0  0  0  0  0  0  0  0  0  0  0
   17.1621   34.9001   12.6561 C   0  0  0  0  0  0  0  0  0  0  0  0
   10.4581   35.7205   17.6000 N   0  0  0  0  0  0  0  0  0  0  0  0
    9.6162   34.8983   17.4789 C   0  0  0  0  0  0  0  0  0  0  0  0
   10.8818   31.9214   16.1071 C   0  0  0  0  0  0  0  0  0  0  0  0
   12.0039   31.6680   15.3737 C   0  0  0  0  0  0  0  0  0  0  0  0
   12.2511   36.4834   16.1587 N   0  0  0  0  0  0  0  0  0  0  0  0
  1  2  1  0
  2  3  1  0
  3  4  1  0
  4  5  1  0
  5  6  1  0
  5  7  2  0
  6  8  1  0
  8  9  1  0
  4 10  2  0
  3 11  2  0
  9 12  1  0
 11 13  1  0
  1 14  2  0
 13 14  1  0
  2 15  2  0
 10 16  1  0
 15 16  1  0
  7 17  1  0
 11 17  1  0
M  END
>  <ID>  (1) 
conformer_0

$$$$
