
     RDKit          3D

  9  9  0  0  0  0  0  0  0  0999 V2000
   10.3463   32.2498   16.4638 C   0  0  0  0  0  0  0  0  0  0  0  0
    9.6830   33.1965   17.0363 N   0  0  0  0  0  0  0  0  0  0  0  0
   10.2715   34.5017   17.1608 C   0  0  0  0  0  0  0  0  0  0  0  0
   11.5115   34.5235   16.5174 C   0  0  0  0  0  0  0  0  0  0  0  0
   11.7411   33.1448   15.8413 S   0  0  0  0  0  0  0  0  0  0  0  0
   12.3158   35.6763   16.3365 C   0  0  0  0  0  0  0  0  0  0  0  0
   13.0241   35.8380   15.3556 N   0  0  0  0  0  0  0  0  0  0  0  0
   12.2787   36.5134   17.2994 O   0  0  0  0  0  0  0  0  0  0  0  0
   13.9156   36.8469   15.1629 C   0  0  0  0  0  0  0  0  0  0  0  0
  1  2  2  0
  2  3  1  0
  3  4  2  0
  1  5  1  0
  4  5  1  0
  4  6  1  0
  6  7  1  0
  6  8  2  0
  7  9  1  0
M  END
>  <ID>  (1) 
conformer_0

$$$$
