
     RDKit          3D

 17 19  0  0  0  0  0  0  0  0999 V2000
    9.8752   32.8164   16.7827 N   0  0  0  0  0  0  0  0  0  0  0  0
   10.9600   32.5342   16.1294 C   0  0  0  0  0  0  0  0  0  0  0  0
    9.7737   34.0918   17.1450 C   0  0  0  0  0  0  0  0  0  0  0  0
   11.7013   33.8085   16.1544 C   0  0  0  0  0  0  0  0  0  0  0  0
   12.8958   34.1531   15.5338 N   0  0  0  0  0  0  0  0  0  0  0  0
   11.5377   31.5623   15.5837 N   0  0  0  0  0  0  0  0  0  0  0  0
   13.5745   33.2923   14.8062 C   0  0  0  0  0  0  0  0  0  0  0  0
   13.0799   31.8300   14.6931 C   0  0  0  0  0  0  0  0  0  0  0  0
   13.6596   31.1480   13.8686 N   0  0  0  0  0  0  0  0  0  0  0  0
   14.6461   31.4138   13.3118 C   0  0  0  0  0  0  0  0  0  0  0  0
   10.9558   34.8389   16.8540 N   0  0  0  0  0  0  0  0  0  0  0  0
   14.7806   33.3993   14.0126 C   0  0  0  0  0  0  0  0  0  0  0  0
   15.3190   32.5820   13.3022 N   0  0  0  0  0  0  0  0  0  0  0  0
   15.3107   34.7032   13.9469 N   0  0  0  0  0  0  0  0  0  0  0  0
   16.3519   34.8134   13.0802 C   0  0  0  0  0  0  0  0  0  0  0  0
   16.1506   35.8680   12.0521 C   0  0  0  0  0  0  0  0  0  0  0  0
   15.3492   35.2846   10.8484 C   0  0  0  0  0  0  0  0  0  0  0  0
  1  2  1  0
  1  3  2  0
  2  4  1  0
  4  5  1  0
  2  6  1  0
  5  7  2  0
  6  8  1  0
  7  8  1  0
  8  9  2  0
  9 10  1  0
  3 11  1  0
  4 11  2  0
  7 12  1  0
 10 13  2  0
 12 13  1  0
 12 14  2  3
 14 15  1  0
 15 16  1  0
 16 17  1  0
M  END
>  <ID>  (1) 
conformer_0

$$$$
