
     RDKit          3D

 17 19  0  0  0  0  0  0  0  0999 V2000
    9.5926   33.6416   16.9697 N   0  0  0  0  0  0  0  0  0  0  0  0
   10.6886   33.1710   16.5189 C   0  0  0  0  0  0  0  0  0  0  0  0
   11.7044   34.1090   16.1654 C   0  0  0  0  0  0  0  0  0  0  0  0
   12.6436   33.9976   15.4520 C   0  0  0  0  0  0  0  0  0  0  0  0
   13.4434   35.0139   14.8882 C   0  0  0  0  0  0  0  0  0  0  0  0
   14.5785   34.7147   14.0712 C   0  0  0  0  0  0  0  0  0  0  0  0
   13.0665   36.2120   15.2700 C   0  0  0  0  0  0  0  0  0  0  0  0
   14.8805   35.6182   13.0933 N   0  0  0  0  0  0  0  0  0  0  0  0
   15.9261   35.1830   12.0883 C   0  0  0  0  0  0  0  0  0  0  0  0
   12.9478   32.5782   15.2104 N   0  0  0  0  0  0  0  0  0  0  0  0
   12.0612   36.4417   16.1015 N   0  0  0  0  0  0  0  0  0  0  0  0
   11.2923   35.4913   16.5509 C   0  0  0  0  0  0  0  0  0  0  0  0
    9.5122   34.8981   17.3667 C   0  0  0  0  0  0  0  0  0  0  0  0
   11.2179   31.9736   16.2194 N   0  0  0  0  0  0  0  0  0  0  0  0
   17.1989   35.0395   12.7052 C   0  0  0  0  0  0  0  0  0  0  0  0
   12.1577   31.6513   15.5934 C   0  0  0  0  0  0  0  0  0  0  0  0
   10.3168   35.8148   17.0435 N   0  0  0  0  0  0  0  0  0  0  0  0
  1  2  1  0
  2  3  1  0
  3  4  1  0
  4  5  1  0
  5  6  1  0
  5  7  2  0
  6  8  1  0
  8  9  1  0
  4 10  2  0
  7 11  1  0
  3 12  1  0
 11 12  2  0
  1 13  2  0
  2 14  2  0
  9 15  1  0
 10 16  1  0
 14 16  1  0
 12 17  1  0
 13 17  1  0
M  END
>  <ID>  (1) 
conformer_0

$$$$
