
     RDKit          3D

 17 20  0  0  0  0  0  0  0  0999 V2000
    9.8000   32.8788   16.8361 N   0  0  0  0  0  0  0  0  0  0  0  0
   10.8775   32.5942   16.1723 C   0  0  0  0  0  0  0  0  0  0  0  0
   11.7989   33.6317   15.9242 C   0  0  0  0  0  0  0  0  0  0  0  0
   11.1525   31.3898   15.8378 N   0  0  0  0  0  0  0  0  0  0  0  0
   11.5635   34.9062   16.4452 C   0  0  0  0  0  0  0  0  0  0  0  0
    9.7432   34.3044   17.2079 C   0  0  0  0  0  0  0  0  0  0  0  0
   10.5275   35.2268   17.1066 N   0  0  0  0  0  0  0  0  0  0  0  0
   12.6750   35.8197   16.0720 N   0  0  0  0  0  0  0  0  0  0  0  0
   13.4902   35.0944   15.1996 C   0  0  0  0  0  0  0  0  0  0  0  0
   14.6348   35.5886   14.6498 N   0  0  0  0  0  0  0  0  0  0  0  0
   12.4252   31.6383   15.0276 C   0  0  0  0  0  0  0  0  0  0  0  0
   13.1675   30.6885   14.3402 C   0  0  0  0  0  0  0  0  0  0  0  0
   12.7313   32.9937   15.1865 C   0  0  0  0  0  0  0  0  0  0  0  0
   13.6624   33.7795   14.7951 C   0  0  0  0  0  0  0  0  0  0  0  0
   12.7437   29.3933   14.4143 C   0  0  0  0  0  0  0  0  0  0  0  0
   14.7705   33.6429   14.0028 C   0  0  0  0  0  0  0  0  0  0  0  0
   15.3640   34.8769   13.9249 N   0  0  0  0  0  0  0  0  0  0  0  0
  1  2  1  0
  2  3  1  0
  2  4  2  0
  3  5  1  0
  1  6  2  0
  5  7  2  0
  6  7  1  0
  5  8  1  0
  8  9  2  0
  9 10  1  0
  4 11  1  0
 11 12  2  3
  3 13  2  0
 11 13  1  0
  9 14  1  0
 13 14  1  0
 12 15  1  0
 14 16  2  0
 10 17  2  0
 16 17  1  0
M  END
>  <ID>  (1) 
conformer_0

$$$$
