
     RDKit          3D

 15 16  0  0  0  0  0  0  0  0999 V2000
   10.8727   32.1461   15.8886 C   0  0  0  0  0  0  0  0  0  0  0  0
   12.0095   32.6196   15.4762 C   0  0  0  0  0  0  0  0  0  0  0  0
   12.4513   33.9676   15.6418 C   0  0  0  0  0  0  0  0  0  0  0  0
   13.5875   34.4685   15.0077 C   0  0  0  0  0  0  0  0  0  0  0  0
   13.7346   35.7916   14.6642 C   0  0  0  0  0  0  0  0  0  0  0  0
   14.2016   33.8949   13.9180 N   0  0  0  0  0  0  0  0  0  0  0  0
   14.7057   36.0865   13.7842 N   0  0  0  0  0  0  0  0  0  0  0  0
   10.3428   33.2877   16.7238 C   0  0  0  0  0  0  0  0  0  0  0  0
   10.9584   34.5452   16.8219 C   0  0  0  0  0  0  0  0  0  0  0  0
   12.9402   36.7401   15.1602 O   0  0  0  0  0  0  0  0  0  0  0  0
    9.0792   32.9830   17.4856 O   0  0  0  0  0  0  0  0  0  0  0  0
   14.6776   32.5574   13.8862 C   0  0  0  0  0  0  0  0  0  0  0  0
   15.0513   34.8255   13.2430 C   0  0  0  0  0  0  0  0  0  0  0  0
   11.8663   34.8563   16.3521 C   0  0  0  0  0  0  0  0  0  0  0  0
   15.7137   34.6120   12.2290 O   0  0  0  0  0  0  0  0  0  0  0  0
  1  2  2  0
  2  3  1  0
  3  4  1  0
  4  5  1  0
  4  6  1  0
  5  7  1  0
  1  8  1  0
  8  9  2  0
  5 10  2  0
  8 11  1  0
  6 12  1  0
  6 13  1  0
  7 13  1  0
  3 14  2  0
  9 14  1  0
 13 15  2  0
M  END
>  <ID>  (1) 
conformer_0

$$$$
