
     RDKit          3D

 16 18  0  0  0  0  0  0  0  0999 V2000
   13.1941   36.0715   14.8311 C   0  0  0  0  0  0  0  0  0  0  0  0
   13.8444   35.9578   13.8813 N   0  0  0  0  0  0  0  0  0  0  0  0
   12.6726   34.9750   15.5379 C   0  0  0  0  0  0  0  0  0  0  0  0
   12.8876   33.6849   14.9838 C   0  0  0  0  0  0  0  0  0  0  0  0
   13.5715   33.6363   13.8199 N   0  0  0  0  0  0  0  0  0  0  0  0
   11.7746   34.8712   16.7351 C   0  0  0  0  0  0  0  0  0  0  0  0
   14.1499   34.7867   13.3316 C   0  0  0  0  0  0  0  0  0  0  0  0
   15.0893   34.6875   12.0421 C   0  0  0  0  0  0  0  0  0  0  0  0
   12.2012   32.6678   15.7550 C   0  0  0  0  0  0  0  0  0  0  0  0
   12.0795   31.3543   15.4236 C   0  0  0  0  0  0  0  0  0  0  0  0
   11.1810   30.5986   16.1287 C   0  0  0  0  0  0  0  0  0  0  0  0
   10.1924   31.2454   16.8876 C   0  0  0  0  0  0  0  0  0  0  0  0
   15.9811   35.4381   12.0488 C   0  0  0  0  0  0  0  0  0  0  0  0
   11.3529   33.5102   16.5636 C   0  0  0  0  0  0  0  0  0  0  0  0
   10.4072   32.6797   17.2198 C   0  0  0  0  0  0  0  0  0  0  0  0
   17.1667   35.1304   12.8575 C   0  0  0  0  0  0  0  0  0  0  0  0
  1  2  2  0
  1  3  1  0
  3  4  2  0
  4  5  1  0
  3  6  1  0
  2  7  1  0
  5  7  2  0
  7  8  1  0
  4  9  1  0
  9 10  2  0
 10 11  1  0
 11 12  2  0
  8 13  1  0
  6 14  2  0
  9 14  1  0
 12 15  1  0
 14 15  1  0
 13 16  1  0
M  END
>  <ID>  (1) 
conformer_0

$$$$
