
     RDKit          3D

 15 16  0  0  0  0  0  0  0  0999 V2000
   10.8946   31.2538   16.1283 C   0  0  0  0  0  0  0  0  0  0  0  0
   12.0681   31.6378   15.5103 C   0  0  0  0  0  0  0  0  0  0  0  0
   12.8344   30.8746   14.7538 N   0  0  0  0  0  0  0  0  0  0  0  0
   10.0194   32.2004   16.7679 N   0  0  0  0  0  0  0  0  0  0  0  0
   12.2695   33.1252   15.6831 C   0  0  0  0  0  0  0  0  0  0  0  0
   10.3133   33.4381   16.8088 C   0  0  0  0  0  0  0  0  0  0  0  0
   13.4252   33.6372   14.9101 C   0  0  0  0  0  0  0  0  0  0  0  0
   14.1482   33.0295   14.0707 N   0  0  0  0  0  0  0  0  0  0  0  0
   13.7922   35.0570   14.8969 C   0  0  0  0  0  0  0  0  0  0  0  0
   13.1379   35.8616   15.6721 O   0  0  0  0  0  0  0  0  0  0  0  0
   13.9161   31.5663   14.0474 C   0  0  0  0  0  0  0  0  0  0  0  0
   11.3783   33.9570   16.2644 N   0  0  0  0  0  0  0  0  0  0  0  0
   14.8158   35.4812   14.2975 N   0  0  0  0  0  0  0  0  0  0  0  0
   15.1931   36.7833   14.0730 C   0  0  0  0  0  0  0  0  0  0  0  0
   16.5762   37.0150   14.3613 C   0  0  0  0  0  0  0  0  0  0  0  0
  1  2  2  0
  2  3  1  0
  1  4  1  0
  2  5  1  0
  4  6  2  0
  5  7  1  0
  7  8  2  0
  7  9  1  0
  9 10  2  0
  3 11  2  0
  8 11  1  0
  5 12  2  0
  6 12  1  0
  9 13  1  0
 13 14  1  0
 14 15  1  0
M  END
>  <ID>  (1) 
conformer_0

$$$$
