
     RDKit          3D

 18 20  0  0  0  0  0  0  0  0999 V2000
   10.8727   32.1461   15.8886 C   0  0  0  0  0  0  0  0  0  0  0  0
   12.0095   32.6196   15.4762 C   0  0  0  0  0  0  0  0  0  0  0  0
   12.9450   31.9145   14.5963 N   0  0  0  0  0  0  0  0  0  0  0  0
   10.1165   33.0889   16.5691 N   0  0  0  0  0  0  0  0  0  0  0  0
   14.0653   32.5186   14.1629 C   0  0  0  0  0  0  0  0  0  0  0  0
   12.3418   34.0213   15.6594 C   0  0  0  0  0  0  0  0  0  0  0  0
   13.3966   34.5409   15.0369 N   0  0  0  0  0  0  0  0  0  0  0  0
   14.2913   33.8439   14.3784 C   0  0  0  0  0  0  0  0  0  0  0  0
   15.3581   34.4883   13.6063 C   0  0  0  0  0  0  0  0  0  0  0  0
   15.1281   35.5439   12.7635 C   0  0  0  0  0  0  0  0  0  0  0  0
   10.3830   34.2886   16.8165 C   0  0  0  0  0  0  0  0  0  0  0  0
   16.4937   33.8724   13.3455 C   0  0  0  0  0  0  0  0  0  0  0  0
   16.8877   32.6320   14.1158 F   0  0  0  0  0  0  0  0  0  0  0  0
   17.6624   34.1783   12.6856 C   0  0  0  0  0  0  0  0  0  0  0  0
   17.4306   35.2414   11.9954 C   0  0  0  0  0  0  0  0  0  0  0  0
   13.9738   36.2658   12.7651 F   0  0  0  0  0  0  0  0  0  0  0  0
   11.5289   34.8161   16.4330 C   0  0  0  0  0  0  0  0  0  0  0  0
   16.2330   36.0107   12.0274 C   0  0  0  0  0  0  0  0  0  0  0  0
  1  2  2  0
  2  3  1  0
  1  4  1  0
  3  5  2  0
  2  6  1  0
  6  7  1  0
  5  8  1  0
  7  8  2  0
  8  9  1  0
  9 10  1  0
  4 11  2  0
  9 12  2  0
 12 13  1  0
 12 14  1  0
 14 15  2  0
 10 16  1  0
  6 17  2  0
 11 17  1  0
 10 18  2  0
 15 18  1  0
M  END
>  <ID>  (1) 
conformer_0

$$$$
