
     RDKit          3D

 17 20  0  0  0  0  0  0  0  0999 V2000
    9.8000   32.8788   16.8361 N   0  0  0  0  0  0  0  0  0  0  0  0
   10.6346   32.1003   16.2242 C   0  0  0  0  0  0  0  0  0  0  0  0
   11.8485   32.5441   15.7278 C   0  0  0  0  0  0  0  0  0  0  0  0
   12.6982   31.7786   14.9773 C   0  0  0  0  0  0  0  0  0  0  0  0
   13.8406   32.4587   14.4314 C   0  0  0  0  0  0  0  0  0  0  0  0
   14.8393   31.6834   13.7030 C   0  0  0  0  0  0  0  0  0  0  0  0
   10.3105   34.2241   16.8890 C   0  0  0  0  0  0  0  0  0  0  0  0
   13.7726   33.8592   14.6556 C   0  0  0  0  0  0  0  0  0  0  0  0
   14.8216   34.6343   14.0020 C   0  0  0  0  0  0  0  0  0  0  0  0
   15.8963   32.6061   13.1598 N   0  0  0  0  0  0  0  0  0  0  0  0
   15.8318   33.9191   13.2655 C   0  0  0  0  0  0  0  0  0  0  0  0
   11.3597   34.7668   16.4515 C   0  0  0  0  0  0  0  0  0  0  0  0
   12.1880   33.9368   15.7729 C   0  0  0  0  0  0  0  0  0  0  0  0
   16.7821   34.5491   12.8238 O   0  0  0  0  0  0  0  0  0  0  0  0
   13.0539   34.4936   15.2861 C   0  0  0  0  0  0  0  0  0  0  0  0
   13.1464   35.8724   15.5356 N   0  0  0  0  0  0  0  0  0  0  0  0
   11.8023   36.1040   16.4931 C   0  0  0  0  0  0  0  0  0  0  0  0
  1  2  1  0
  2  3  2  0
  3  4  1  0
  4  5  2  0
  5  6  1  0
  1  7  2  0
  5  8  1  0
  8  9  1  0
  6 10  2  0
  9 11  1  0
 10 11  1  0
  7 12  1  0
  3 13  1  0
 12 13  1  0
 11 14  2  0
  8 15  2  0
 13 15  1  0
 15 16  1  0
 12 17  2  0
 16 17  2  0
M  END
>  <ID>  (1) 
conformer_0

$$$$
