
     RDKit          3D

 16 18  0  0  0  0  0  0  0  0999 V2000
   13.1941   36.0715   14.8311 C   0  0  0  0  0  0  0  0  0  0  0  0
   13.8444   35.9578   13.8813 N   0  0  0  0  0  0  0  0  0  0  0  0
   14.3392   34.8291   13.4149 C   0  0  0  0  0  0  0  0  0  0  0  0
   15.2352   34.7420   12.2112 C   0  0  0  0  0  0  0  0  0  0  0  0
   16.5550   35.0820   12.2851 C   0  0  0  0  0  0  0  0  0  0  0  0
   14.0057   33.6546   14.2142 C   0  0  0  0  0  0  0  0  0  0  0  0
   13.3774   33.7509   15.1928 C   0  0  0  0  0  0  0  0  0  0  0  0
   17.2236   35.2058   11.1710 C   0  0  0  0  0  0  0  0  0  0  0  0
   12.9248   32.5581   15.9573 N   0  0  0  0  0  0  0  0  0  0  0  0
   16.2066   34.9074   10.1299 C   0  0  0  0  0  0  0  0  0  0  0  0
   12.6369   37.2212   15.4124 O   0  0  0  0  0  0  0  0  0  0  0  0
   14.9613   34.7384   10.9189 C   0  0  0  0  0  0  0  0  0  0  0  0
   12.8012   34.9009   15.6671 C   0  0  0  0  0  0  0  0  0  0  0  0
   11.8893   35.0831   16.7734 C   0  0  0  0  0  0  0  0  0  0  0  0
   11.9302   32.6162   16.8801 C   0  0  0  0  0  0  0  0  0  0  0  0
   11.4409   33.8742   17.2775 N   0  0  0  0  0  0  0  0  0  0  0  0
  1  2  1  0
  2  3  2  0
  3  4  1  0
  4  5  1  0
  3  6  1  0
  6  7  2  0
  5  8  2  0
  7  9  1  0
  8 10  1  0
  1 11  1  0
  4 12  1  0
 10 12  2  0
  1 13  2  0
  7 13  1  0
 13 14  1  0
  9 15  2  0
 14 16  2  0
 15 16  1  0
M  END
>  <ID>  (1) 
conformer_0

$$$$
