
     RDKit          3D

 17 19  0  0  0  0  0  0  0  0999 V2000
   10.1067   31.9711   16.3926 N   0  0  0  0  0  0  0  0  0  0  0  0
   11.3381   31.9519   15.8447 C   0  0  0  0  0  0  0  0  0  0  0  0
    9.7032   33.1118   16.9149 N   0  0  0  0  0  0  0  0  0  0  0  0
   12.0228   30.9290   15.1440 C   0  0  0  0  0  0  0  0  0  0  0  0
   11.7381   33.3636   15.9463 C   0  0  0  0  0  0  0  0  0  0  0  0
   10.7195   34.0051   16.6204 C   0  0  0  0  0  0  0  0  0  0  0  0
   12.8995   33.9561   15.3426 C   0  0  0  0  0  0  0  0  0  0  0  0
   10.9404   35.3393   16.9283 N   0  0  0  0  0  0  0  0  0  0  0  0
   13.8471   33.2913   14.4833 C   0  0  0  0  0  0  0  0  0  0  0  0
   14.6410   32.3748   14.8583 O   0  0  0  0  0  0  0  0  0  0  0  0
   14.2351   33.9664   13.2939 N   0  0  0  0  0  0  0  0  0  0  0  0
   13.5005   35.0566   12.7151 C   0  0  0  0  0  0  0  0  0  0  0  0
   14.0542   35.3931   11.4718 C   0  0  0  0  0  0  0  0  0  0  0  0
   12.9468   35.3234   15.8770 N   0  0  0  0  0  0  0  0  0  0  0  0
   15.4298   33.6041   12.5298 C   0  0  0  0  0  0  0  0  0  0  0  0
   15.3632   34.5278   11.3462 C   0  0  0  0  0  0  0  0  0  0  0  0
   12.1338   35.8851   16.5250 C   0  0  0  0  0  0  0  0  0  0  0  0
  1  2  2  0
  1  3  1  0
  2  4  1  0
  2  5  1  0
  3  6  1  0
  5  6  1  0
  5  7  2  0
  6  8  2  0
  7  9  1  0
  9 10  2  0
  9 11  1  0
 11 12  1  0
 12 13  1  0
  7 14  1  0
 11 15  1  0
 13 16  1  0
 15 16  1  0
  8 17  1  0
 14 17  2  0
M  END
>  <ID>  (1) 
conformer_0

$$$$
