
     RDKit          3D

 16 18  0  0  0  0  0  0  0  0999 V2000
    9.5926   33.6416   16.9697 N   0  0  0  0  0  0  0  0  0  0  0  0
   10.6886   33.1710   16.5189 C   0  0  0  0  0  0  0  0  0  0  0  0
   11.7044   34.1090   16.1654 C   0  0  0  0  0  0  0  0  0  0  0  0
   12.6436   33.9976   15.4520 C   0  0  0  0  0  0  0  0  0  0  0  0
   13.4434   35.0139   14.8882 C   0  0  0  0  0  0  0  0  0  0  0  0
   14.5785   34.7147   14.0712 C   0  0  0  0  0  0  0  0  0  0  0  0
   15.3718   33.7570   14.2197 O   0  0  0  0  0  0  0  0  0  0  0  0
   11.5297   35.2771   17.0092 C   0  0  0  0  0  0  0  0  0  0  0  0
   15.1484   35.8403   13.3577 C   0  0  0  0  0  0  0  0  0  0  0  0
   12.7493   32.6378   14.9108 C   0  0  0  0  0  0  0  0  0  0  0  0
    9.9178   34.8846   17.5400 C   0  0  0  0  0  0  0  0  0  0  0  0
   10.9782   31.9106   15.8870 C   0  0  0  0  0  0  0  0  0  0  0  0
   14.8112   37.0193   13.7290 C   0  0  0  0  0  0  0  0  0  0  0  0
   11.9931   31.6278   15.1644 N   0  0  0  0  0  0  0  0  0  0  0  0
   13.7001   37.2966   14.4112 C   0  0  0  0  0  0  0  0  0  0  0  0
   13.0241   36.3602   15.0785 C   0  0  0  0  0  0  0  0  0  0  0  0
  1  2  1  0
  2  3  1  0
  3  4  1  0
  4  5  1  0
  5  6  1  0
  6  7  1  0
  3  8  2  0
  6  9  2  0
  4 10  2  0
  1 11  2  0
  8 11  1  0
  2 12  2  0
  9 13  1  0
 10 14  1  0
 12 14  1  0
 13 15  2  0
  5 16  2  0
 15 16  1  0
M  END
>  <ID>  (1) 
conformer_0

$$$$
