
     RDKit          3D

 18 20  0  0  0  0  0  0  0  0999 V2000
    9.5926   33.6416   16.9697 N   0  0  0  0  0  0  0  0  0  0  0  0
   10.6886   33.1710   16.5189 C   0  0  0  0  0  0  0  0  0  0  0  0
   11.7044   34.1090   16.1654 C   0  0  0  0  0  0  0  0  0  0  0  0
   12.6436   33.9976   15.4520 C   0  0  0  0  0  0  0  0  0  0  0  0
   13.4434   35.0139   14.8882 C   0  0  0  0  0  0  0  0  0  0  0  0
   14.5785   34.7147   14.0712 C   0  0  0  0  0  0  0  0  0  0  0  0
   13.0665   36.2120   15.2700 C   0  0  0  0  0  0  0  0  0  0  0  0
   14.8805   35.6182   13.0933 N   0  0  0  0  0  0  0  0  0  0  0  0
   15.9261   35.1830   12.0883 C   0  0  0  0  0  0  0  0  0  0  0  0
   12.9478   32.5782   15.2104 N   0  0  0  0  0  0  0  0  0  0  0  0
   15.4987   35.1731   10.8622 C   0  0  0  0  0  0  0  0  0  0  0  0
   11.0024   31.8971   16.4529 C   0  0  0  0  0  0  0  0  0  0  0  0
    9.6364   34.9456   17.3647 C   0  0  0  0  0  0  0  0  0  0  0  0
   12.1868   31.6151   15.6121 C   0  0  0  0  0  0  0  0  0  0  0  0
   12.0215   36.4629   16.1155 C   0  0  0  0  0  0  0  0  0  0  0  0
   11.0450   35.2388   16.6597 C   0  0  0  0  0  0  0  0  0  0  0  0
   15.4406   33.8577   14.3844 O   0  0  0  0  0  0  0  0  0  0  0  0
   17.1015   36.1841   12.2197 C   0  0  0  0  0  0  0  0  0  0  0  0
  1  2  1  0
  2  3  1  0
  3  4  1  0
  4  5  1  0
  5  6  1  0
  5  7  2  0
  6  8  1  0
  8  9  1  0
  4 10  2  0
  9 11  1  0
  2 12  2  0
  1 13  2  0
 10 14  1  0
 12 14  1  0
  7 15  1  0
  3 16  1  0
 13 16  1  0
 15 16  1  0
  6 17  2  0
  9 18  1  0
M  END
>  <ID>  (1) 
conformer_0

$$$$
