
     RDKit          3D

 13 14  0  0  0  0  0  0  0  0999 V2000
    9.8000   32.8788   16.8361 N   0  0  0  0  0  0  0  0  0  0  0  0
   10.0092   34.1583   17.0653 C   0  0  0  0  0  0  0  0  0  0  0  0
   11.2414   34.6040   16.7081 C   0  0  0  0  0  0  0  0  0  0  0  0
   11.9165   33.5731   16.0306 C   0  0  0  0  0  0  0  0  0  0  0  0
   13.0257   33.5051   15.3271 C   0  0  0  0  0  0  0  0  0  0  0  0
   13.6426   34.5273   14.6589 C   0  0  0  0  0  0  0  0  0  0  0  0
   13.3638   32.2627   14.7530 N   0  0  0  0  0  0  0  0  0  0  0  0
   14.4196   32.1665   13.9095 C   0  0  0  0  0  0  0  0  0  0  0  0
   14.8449   34.0983   13.8711 C   0  0  0  0  0  0  0  0  0  0  0  0
   15.1057   33.0876   13.5719 C   0  0  0  0  0  0  0  0  0  0  0  0
   10.8880   32.4039   15.9793 C   0  0  0  0  0  0  0  0  0  0  0  0
   15.6376   35.4592   13.3670 C   0  0  0  0  0  0  0  0  0  0  0  0
   15.2155   35.9097   12.1954 N   0  0  0  0  0  0  0  0  0  0  0  0
  1  2  1  0
  2  3  2  0
  3  4  1  0
  4  5  1  0
  5  6  1  0
  5  7  2  0
  7  8  1  0
  6  9  2  0
  8 10  2  0
  9 10  1  0
  1 11  2  0
  4 11  1  0
  9 12  1  0
 12 13  1  0
M  END
>  <ID>  (1) 
conformer_0

$$$$
