
     RDKit          3D

 16 19  0  0  0  0  0  0  0  0999 V2000
   10.1043   32.3932   16.7114 N   0  0  0  0  0  0  0  0  0  0  0  0
    9.7961   33.5365   17.0059 N   0  0  0  0  0  0  0  0  0  0  0  0
   11.3573   32.6245   16.0462 C   0  0  0  0  0  0  0  0  0  0  0  0
   11.6669   33.9548   16.2573 C   0  0  0  0  0  0  0  0  0  0  0  0
   12.1756   31.7519   15.3880 C   0  0  0  0  0  0  0  0  0  0  0  0
   13.3513   32.3116   14.8608 C   0  0  0  0  0  0  0  0  0  0  0  0
   14.2735   31.5726   13.9879 C   0  0  0  0  0  0  0  0  0  0  0  0
   13.5754   33.5395   14.8912 C   0  0  0  0  0  0  0  0  0  0  0  0
   10.5488   34.5288   16.9451 C   0  0  0  0  0  0  0  0  0  0  0  0
   12.7965   34.5829   15.6847 C   0  0  0  0  0  0  0  0  0  0  0  0
   14.7206   34.0836   14.1184 N   0  0  0  0  0  0  0  0  0  0  0  0
   15.1581   35.2624   13.7264 C   0  0  0  0  0  0  0  0  0  0  0  0
   16.3492   35.4102   13.1314 C   0  0  0  0  0  0  0  0  0  0  0  0
   15.2629   32.5564   13.5320 C   0  0  0  0  0  0  0  0  0  0  0  0
   16.4003   32.5908   12.7901 C   0  0  0  0  0  0  0  0  0  0  0  0
   17.0384   34.2287   12.4668 C   0  0  0  0  0  0  0  0  0  0  0  0
  1  2  2  0
  1  3  1  0
  3  4  1  0
  3  5  2  0
  5  6  1  0
  6  7  1  0
  6  8  2  0
  2  9  1  0
  4  9  1  0
  4 10  2  0
  8 10  1  0
  8 11  1  0
 11 12  1  0
 12 13  2  0
  7 14  2  0
 11 14  1  0
 14 15  1  0
 13 16  1  0
 15 16  2  0
M  END
>  <ID>  (1) 
conformer_0

$$$$
