
     RDKit          3D

 16 17  0  0  0  0  0  0  0  0999 V2000
    9.8000   32.8788   16.8361 N   0  0  0  0  0  0  0  0  0  0  0  0
   10.8775   32.5942   16.1723 C   0  0  0  0  0  0  0  0  0  0  0  0
   11.7989   33.6317   15.9242 C   0  0  0  0  0  0  0  0  0  0  0  0
   11.1525   31.3898   15.8378 N   0  0  0  0  0  0  0  0  0  0  0  0
   11.5635   34.9062   16.4452 C   0  0  0  0  0  0  0  0  0  0  0  0
   12.2516   31.1393   15.0490 C   0  0  0  0  0  0  0  0  0  0  0  0
   10.3896   35.1321   17.0555 N   0  0  0  0  0  0  0  0  0  0  0  0
   12.9714   33.3360   15.1881 C   0  0  0  0  0  0  0  0  0  0  0  0
   12.5410   29.8204   14.5609 N   0  0  0  0  0  0  0  0  0  0  0  0
   13.1936   32.1026   14.7340 N   0  0  0  0  0  0  0  0  0  0  0  0
    9.5493   34.1224   17.2722 C   0  0  0  0  0  0  0  0  0  0  0  0
   13.9407   34.3003   14.8324 N   0  0  0  0  0  0  0  0  0  0  0  0
   15.0460   34.0248   14.0354 C   0  0  0  0  0  0  0  0  0  0  0  0
   14.9274   34.5845   12.7976 C   0  0  0  0  0  0  0  0  0  0  0  0
   16.1438   35.2988   12.3511 C   0  0  0  0  0  0  0  0  0  0  0  0
   16.9422   35.7265   13.3602 F   0  0  0  0  0  0  0  0  0  0  0  0
  1  2  1  0
  2  3  1  0
  2  4  2  0
  3  5  1  0
  4  6  1  0
  5  7  2  0
  3  8  2  0
  6  9  1  0
  6 10  2  0
  8 10  1  0
  1 11  2  0
  7 11  1  0
  8 12  1  0
 12 13  1  0
 13 14  1  0
 14 15  1  0
 15 16  1  0
M  END
>  <ID>  (1) 
conformer_0

$$$$
