
     RDKit          3D

 18 21  0  0  0  0  0  0  0  0999 V2000
   10.8727   32.1461   15.8886 C   0  0  0  0  0  0  0  0  0  0  0  0
   12.0095   32.6196   15.4762 C   0  0  0  0  0  0  0  0  0  0  0  0
   12.4513   33.9676   15.6418 C   0  0  0  0  0  0  0  0  0  0  0  0
   13.5875   34.4685   15.0077 C   0  0  0  0  0  0  0  0  0  0  0  0
   13.7346   35.7916   14.6642 C   0  0  0  0  0  0  0  0  0  0  0  0
   14.2016   33.8949   13.9180 N   0  0  0  0  0  0  0  0  0  0  0  0
   14.7057   36.0865   13.7842 N   0  0  0  0  0  0  0  0  0  0  0  0
   14.4822   32.5463   13.6724 C   0  0  0  0  0  0  0  0  0  0  0  0
   11.4848   34.6025   16.4193 C   0  0  0  0  0  0  0  0  0  0  0  0
   15.0462   34.8434   13.2594 C   0  0  0  0  0  0  0  0  0  0  0  0
   11.8421   36.0862   16.7243 C   0  0  0  0  0  0  0  0  0  0  0  0
   12.8127   36.6416   15.7517 C   0  0  0  0  0  0  0  0  0  0  0  0
   10.4100   34.1949   17.0381 C   0  0  0  0  0  0  0  0  0  0  0  0
   15.8161   34.5744   12.1224 C   0  0  0  0  0  0  0  0  0  0  0  0
   15.4305   32.3094   12.7099 C   0  0  0  0  0  0  0  0  0  0  0  0
    9.6237   34.9557   17.7954 N   0  0  0  0  0  0  0  0  0  0  0  0
   10.0441   32.9479   16.8203 N   0  0  0  0  0  0  0  0  0  0  0  0
   16.1265   33.4089   12.0039 C   0  0  0  0  0  0  0  0  0  0  0  0
  1  2  2  0
  2  3  1  0
  3  4  1  0
  4  5  1  0
  4  6  1  0
  5  7  1  0
  6  8  1  0
  3  9  2  0
  6 10  1  0
  7 10  2  0
  9 11  1  0
  5 12  2  0
 11 12  1  0
  9 13  1  0
 10 14  1  0
  8 15  2  0
 13 16  1  0
  1 17  1  0
 13 17  2  0
 14 18  2  0
 15 18  1  0
M  END
>  <ID>  (1) 
conformer_0

$$$$
