
     RDKit          3D

 16 18  0  0  0  0  0  0  0  0999 V2000
   10.8727   32.1461   15.8886 C   0  0  0  0  0  0  0  0  0  0  0  0
   12.0095   32.6196   15.4762 C   0  0  0  0  0  0  0  0  0  0  0  0
   12.4513   33.9676   15.6418 C   0  0  0  0  0  0  0  0  0  0  0  0
   13.5875   34.4685   15.0077 C   0  0  0  0  0  0  0  0  0  0  0  0
   13.7346   35.7916   14.6642 C   0  0  0  0  0  0  0  0  0  0  0  0
   14.2016   33.8949   13.9180 N   0  0  0  0  0  0  0  0  0  0  0  0
   14.7057   36.0865   13.7842 N   0  0  0  0  0  0  0  0  0  0  0  0
   11.6291   34.7211   16.4691 C   0  0  0  0  0  0  0  0  0  0  0  0
   11.9609   36.1532   16.6658 C   0  0  0  0  0  0  0  0  0  0  0  0
   15.0008   34.7998   13.2861 C   0  0  0  0  0  0  0  0  0  0  0  0
   10.4490   34.1727   16.9147 C   0  0  0  0  0  0  0  0  0  0  0  0
   15.8907   34.4947   12.1973 C   0  0  0  0  0  0  0  0  0  0  0  0
   10.0791   32.9732   16.7857 N   0  0  0  0  0  0  0  0  0  0  0  0
   13.1051   36.6761   15.7341 C   0  0  0  0  0  0  0  0  0  0  0  0
   17.0839   33.8874   12.6500 C   0  0  0  0  0  0  0  0  0  0  0  0
   16.2271   35.7086   11.4544 N   0  0  0  0  0  0  0  0  0  0  0  0
  1  2  2  0
  2  3  1  0
  3  4  1  0
  4  5  1  0
  4  6  1  0
  5  7  1  0
  3  8  2  0
  8  9  1  0
  6 10  2  0
  7 10  1  0
  8 11  1  0
 10 12  1  0
  1 13  1  0
 11 13  2  0
  5 14  1  0
  9 14  2  0
 12 15  1  0
 12 16  1  0
M  END
>  <ID>  (1) 
conformer_0

$$$$
