
     RDKit          3D

 13 13  0  0  0  0  0  0  0  0999 V2000
   10.1067   31.9711   16.3926 N   0  0  0  0  0  0  0  0  0  0  0  0
   11.3381   31.9519   15.8447 C   0  0  0  0  0  0  0  0  0  0  0  0
   12.1450   33.0438   15.6692 C   0  0  0  0  0  0  0  0  0  0  0  0
   11.3945   34.1703   16.3584 C   0  0  0  0  0  0  0  0  0  0  0  0
   13.3215   33.2328   14.9576 C   0  0  0  0  0  0  0  0  0  0  0  0
   10.3375   34.1561   16.9993 C   0  0  0  0  0  0  0  0  0  0  0  0
   13.7061   34.3802   14.3308 N   0  0  0  0  0  0  0  0  0  0  0  0
   14.9524   34.5234   13.6986 C   0  0  0  0  0  0  0  0  0  0  0  0
   15.2201   35.3662   12.7273 C   0  0  0  0  0  0  0  0  0  0  0  0
   16.6444   35.6954   12.5536 C   0  0  0  0  0  0  0  0  0  0  0  0
    9.6262   32.9780   17.0172 C   0  0  0  0  0  0  0  0  0  0  0  0
   14.8091   34.9571   11.3903 C   0  0  0  0  0  0  0  0  0  0  0  0
   14.0261   32.1800   14.9141 O   0  0  0  0  0  0  0  0  0  0  0  0
  1  2  2  0
  2  3  1  0
  3  4  2  0
  3  5  1  0
  4  6  1  0
  5  7  1  0
  7  8  1  0
  8  9  1  0
  9 10  1  0
  1 11  1  0
  6 11  2  0
  9 12  1  0
  5 13  2  0
M  END
>  <ID>  (1) 
conformer_0

$$$$
