
     RDKit          3D

 16 17  0  0  0  0  0  0  0  0999 V2000
   10.8727   32.1461   15.8886 C   0  0  0  0  0  0  0  0  0  0  0  0
   12.0095   32.6196   15.4762 C   0  0  0  0  0  0  0  0  0  0  0  0
   12.4513   33.9676   15.6418 C   0  0  0  0  0  0  0  0  0  0  0  0
   13.5875   34.4685   15.0077 C   0  0  0  0  0  0  0  0  0  0  0  0
   13.7346   35.7916   14.6642 C   0  0  0  0  0  0  0  0  0  0  0  0
   14.2016   33.8949   13.9180 N   0  0  0  0  0  0  0  0  0  0  0  0
   14.7057   36.0865   13.7842 N   0  0  0  0  0  0  0  0  0  0  0  0
   14.4822   32.5463   13.6724 C   0  0  0  0  0  0  0  0  0  0  0  0
   11.4848   34.6025   16.4193 C   0  0  0  0  0  0  0  0  0  0  0  0
   15.0462   34.8434   13.2594 C   0  0  0  0  0  0  0  0  0  0  0  0
   15.4890   31.8781   14.2631 C   0  0  0  0  0  0  0  0  0  0  0  0
   13.2471   36.8153   15.4300 O   0  0  0  0  0  0  0  0  0  0  0  0
   15.7437   34.6693   11.9677 C   0  0  0  0  0  0  0  0  0  0  0  0
   10.4574   30.8098   15.7526 N   0  0  0  0  0  0  0  0  0  0  0  0
   10.3510   34.1504   16.9731 C   0  0  0  0  0  0  0  0  0  0  0  0
   10.0442   32.9013   16.8327 N   0  0  0  0  0  0  0  0  0  0  0  0
  1  2  2  0
  2  3  1  0
  3  4  1  0
  4  5  1  0
  4  6  1  0
  5  7  1  0
  6  8  1  0
  3  9  2  0
  6 10  1  0
  7 10  2  0
  8 11  1  0
  5 12  2  0
 10 13  1  0
  1 14  1  0
  9 15  1  0
  1 16  1  0
 15 16  2  0
M  END
>  <ID>  (1) 
conformer_0

$$$$
