
     RDKit          3D

 13 14  0  0  0  0  0  0  0  0999 V2000
   10.8727   32.1461   15.8886 C   0  0  0  0  0  0  0  0  0  0  0  0
   12.0095   32.6196   15.4762 C   0  0  0  0  0  0  0  0  0  0  0  0
   12.4513   33.9676   15.6418 C   0  0  0  0  0  0  0  0  0  0  0  0
   13.5875   34.4685   15.0077 C   0  0  0  0  0  0  0  0  0  0  0  0
   13.7346   35.7916   14.6642 C   0  0  0  0  0  0  0  0  0  0  0  0
   14.2016   33.8949   13.9180 N   0  0  0  0  0  0  0  0  0  0  0  0
   12.9320   36.7223   15.2065 O   0  0  0  0  0  0  0  0  0  0  0  0
   11.5197   34.5597   16.6472 C   0  0  0  0  0  0  0  0  0  0  0  0
   10.1520   32.8295   16.8318 C   0  0  0  0  0  0  0  0  0  0  0  0
   14.7502   34.8510   13.1683 C   0  0  0  0  0  0  0  0  0  0  0  0
   14.6122   36.1111   13.7243 N   0  0  0  0  0  0  0  0  0  0  0  0
   15.8602   34.5595   12.3477 O   0  0  0  0  0  0  0  0  0  0  0  0
   10.5095   34.0919   17.1813 C   0  0  0  0  0  0  0  0  0  0  0  0
  1  2  2  0
  2  3  1  0
  3  4  1  0
  4  5  1  0
  4  6  1  0
  5  7  2  0
  3  8  2  0
  1  9  1  0
  6 10  1  0
  5 11  1  0
 10 11  1  0
 10 12  2  0
  8 13  1  0
  9 13  2  0
M  END
>  <ID>  (1) 
conformer_0

$$$$
