
     RDKit          3D

 16 18  0  0  0  0  0  0  0  0999 V2000
    9.8000   32.8788   16.8361 N   0  0  0  0  0  0  0  0  0  0  0  0
   10.8775   32.5942   16.1723 C   0  0  0  0  0  0  0  0  0  0  0  0
   11.2358   31.4743   15.6559 N   0  0  0  0  0  0  0  0  0  0  0  0
   12.3745   31.3037   14.9740 C   0  0  0  0  0  0  0  0  0  0  0  0
   12.9971   32.6955   14.9987 C   0  0  0  0  0  0  0  0  0  0  0  0
   11.9877   33.4652   15.8179 C   0  0  0  0  0  0  0  0  0  0  0  0
   11.8389   34.8266   16.2154 C   0  0  0  0  0  0  0  0  0  0  0  0
   14.1735   33.1522   14.4838 C   0  0  0  0  0  0  0  0  0  0  0  0
   14.1666   34.2644   13.6929 N   0  0  0  0  0  0  0  0  0  0  0  0
   13.1291   35.0250   13.2371 C   0  0  0  0  0  0  0  0  0  0  0  0
   13.5649   35.9605   12.2503 N   0  0  0  0  0  0  0  0  0  0  0  0
   10.8440   35.1158   16.9809 N   0  0  0  0  0  0  0  0  0  0  0  0
   15.2718   32.4792   14.6021 O   0  0  0  0  0  0  0  0  0  0  0  0
   15.6040   34.5907   13.2356 C   0  0  0  0  0  0  0  0  0  0  0  0
   15.0808   35.4393   11.9474 C   0  0  0  0  0  0  0  0  0  0  0  0
    9.8559   34.0581   17.2070 C   0  0  0  0  0  0  0  0  0  0  0  0
  1  2  1  0
  2  3  2  0
  3  4  1  0
  4  5  2  0
  2  6  1  0
  5  6  1  0
  6  7  1  0
  5  8  1  0
  8  9  1  0
  9 10  1  0
 10 11  1  0
  7 12  2  0
  8 13  2  0
  9 14  1  0
 11 15  1  0
 14 15  1  0
  1 16  2  0
 12 16  1  0
M  END
>  <ID>  (1) 
conformer_0

$$$$
