
     RDKit          3D

 18 20  0  0  0  0  0  0  0  0999 V2000
   13.1941   36.0715   14.8311 C   0  0  0  0  0  0  0  0  0  0  0  0
   13.2489   34.8110   14.8730 C   0  0  0  0  0  0  0  0  0  0  0  0
   14.1565   34.0325   14.0644 C   0  0  0  0  0  0  0  0  0  0  0  0
   14.5066   34.6414   12.8541 N   0  0  0  0  0  0  0  0  0  0  0  0
   13.8112   32.7034   13.9379 N   0  0  0  0  0  0  0  0  0  0  0  0
   12.4645   36.6839   15.8265 N   0  0  0  0  0  0  0  0  0  0  0  0
   11.7159   35.9784   16.7148 C   0  0  0  0  0  0  0  0  0  0  0  0
   11.8924   34.4891   16.3739 C   0  0  0  0  0  0  0  0  0  0  0  0
   12.5126   34.0980   15.5899 C   0  0  0  0  0  0  0  0  0  0  0  0
   12.3281   32.5329   15.3576 C   0  0  0  0  0  0  0  0  0  0  0  0
   10.8280   33.8615   17.3642 C   0  0  0  0  0  0  0  0  0  0  0  0
   13.1259   32.0127   14.5634 C   0  0  0  0  0  0  0  0  0  0  0  0
   13.0931   30.7282   14.4360 O   0  0  0  0  0  0  0  0  0  0  0  0
   10.6587   32.5064   17.1130 C   0  0  0  0  0  0  0  0  0  0  0  0
   15.8620   34.6710   12.4329 C   0  0  0  0  0  0  0  0  0  0  0  0
   15.9639   35.3774   11.2068 C   0  0  0  0  0  0  0  0  0  0  0  0
   16.7607   35.2751   13.3622 C   0  0  0  0  0  0  0  0  0  0  0  0
   11.4164   31.8610   16.2581 C   0  0  0  0  0  0  0  0  0  0  0  0
  1  2  1  0
  2  3  1  0
  3  4  1  0
  3  5  1  0
  1  6  2  0
  6  7  1  0
  7  8  2  0
  2  9  2  0
  8  9  1  0
  9 10  1  0
  8 11  1  0
  5 12  1  0
 10 12  1  0
 12 13  2  0
 11 14  2  0
  4 15  1  0
 15 16  1  0
 15 17  1  0
 10 18  2  0
 14 18  1  0
M  END
>  <ID>  (1) 
conformer_0

$$$$
