
     RDKit          3D

 35 37  0  0  0  0  0  0  0  0999 V2000
  -16.7839   22.3872   65.4215 O   0  0  0  0  0  0  0  0  0  0  0  0
  -15.2187   22.8685   71.7527 C   0  0  0  0  0  0  0  0  0  0  0  0
  -17.6477   18.6693   72.1792 C   0  0  0  0  0  0  0  0  0  0  0  0
  -15.2450   20.8573   68.1864 O   0  0  0  0  0  0  0  0  0  0  0  0
  -18.1546   19.4448   74.8183 C   0  0  0  0  0  0  0  0  0  0  0  0
  -16.7586   20.1006   74.7814 C   0  0  0  0  0  0  0  0  0  0  0  0
  -16.1110   22.9476   66.4485 C   0  0  0  0  0  0  0  0  0  0  0  0
  -14.0226   23.7430   72.1207 C   0  0  0  0  0  0  0  0  0  0  0  0
  -18.9131   16.2392   74.0104 O   0  0  0  0  0  0  0  0  0  0  0  0
  -13.6446   21.4774   72.8759 C   0  0  0  0  0  0  0  0  0  0  0  0
  -12.6321   23.6641   72.5490 O   0  0  0  0  0  0  0  0  0  0  0  0
  -18.4740   22.3379   67.2905 O   0  0  0  0  0  0  0  0  0  0  0  0
  -14.1566   21.9953   74.1091 O   0  0  0  0  0  0  0  0  0  0  0  0
  -21.4903   22.2922   68.7680 C   0  0  0  0  0  0  0  0  0  0  0  0
  -19.2044   20.0063   68.8710 C   0  0  0  0  0  0  0  0  0  0  0  0
  -18.0970   21.7446   73.4494 C   0  0  0  0  0  0  0  0  0  0  0  0
  -20.2812   22.1436   69.8227 C   0  0  0  0  0  0  0  0  0  0  0  0
  -14.7709   21.3734   71.8426 C   0  0  0  0  0  0  0  0  0  0  0  0
  -17.4432   20.8280   70.4057 C   0  0  0  0  0  0  0  0  0  0  0  0
  -14.9359   23.7858   66.2340 C   0  0  0  0  0  0  0  0  0  0  0  0
  -14.5007   24.4391   67.4892 C   0  0  0  0  0  0  0  0  0  0  0  0
  -17.7677   20.5696   68.9407 C   0  0  0  0  0  0  0  0  0  0  0  0
  -16.7281   20.9885   73.5388 C   0  0  0  0  0  0  0  0  0  0  0  0
  -16.0254   22.0424   67.6871 C   0  0  0  0  0  0  0  0  0  0  0  0
  -15.8449   20.4711   72.3902 C   0  0  0  0  0  0  0  0  0  0  0  0
  -16.2951   20.7414   75.8634 O   0  0  0  0  0  0  0  0  0  0  0  0
  -14.5453   24.0294   65.0204 O   0  0  0  0  0  0  0  0  0  0  0  0
  -19.8281   21.8294   67.3340 C   0  0  0  0  0  0  0  0  0  0  0  0
  -17.9908   17.0851   74.2193 C   0  0  0  0  0  0  0  0  0  0  0  0
  -18.3211   18.4503   73.6085 C   0  0  0  0  0  0  0  0  0  0  0  0
  -20.1485   21.2211   68.6999 C   0  0  0  0  0  0  0  0  0  0  0  0
  -20.7824   23.0356   67.5951 C   0  0  0  0  0  0  0  0  0  0  0  0
  -16.9488   17.0589   74.9432 O   0  0  0  0  0  0  0  0  0  0  0  0
  -17.4789   21.7206   68.0455 C   0  0  0  0  0  0  0  0  0  0  0  0
  -16.7222   19.7863   71.3304 C   0  0  0  0  0  0  0  0  0  0  0  0
  1  7  1  0
  2  8  1  0
  2 18  1  0
  3 30  1  0
  3 35  1  0
  4 24  1  0
  5  6  1  0
  5 30  1  0
  6 23  1  0
  6 26  1  0
  7 20  1  0
  7 24  1  0
  8 11  1  0
  9 29  2  0
 10 13  1  0
 10 18  1  0
 12 28  1  0
 12 34  1  0
 14 17  1  0
 14 32  1  0
 15 22  1  0
 15 31  1  0
 16 23  1  0
 17 31  1  0
 18 25  1  0
 19 22  1  0
 19 35  1  0
 20 21  1  0
 20 27  1  0
 22 34  1  0
 23 25  1  0
 24 34  1  0
 25 35  1  0
 28 31  1  0
 28 32  1  0
 29 30  1  0
 29 33  1  0
M  END
>  <ID>  (1) 
conformer_0

$$$$
