
     RDKit          3D

 30 33  0  0  0  0  0  0  0  0999 V2000
  -13.2000   23.8075   73.3458 C   0  0  0  0  0  0  0  0  0  0  0  0
  -18.5221   20.3078   71.6582 C   0  0  0  0  0  0  0  0  0  0  0  0
  -21.4217   21.6514   68.6129 C   0  0  0  0  0  0  0  0  0  0  0  0
  -15.9276   19.0309   75.6142 O   0  0  0  0  0  0  0  0  0  0  0  0
  -20.5564   21.1869   69.5906 C   0  0  0  0  0  0  0  0  0  0  0  0
  -15.0833   21.9294   67.4599 C   0  0  0  0  0  0  0  0  0  0  0  0
  -16.4094   21.9652   71.7211 N   0  0  0  0  0  0  0  0  0  0  0  0
  -13.7135   22.4651   71.6522 N   0  0  0  0  0  0  0  0  0  0  0  0
  -17.9932   17.9669   73.7112 C   0  0  0  0  0  0  0  0  0  0  0  0
  -16.5380   22.6193   69.3519 C   0  0  0  0  0  0  0  0  0  0  0  0
  -17.3061   22.3649   68.1335 C   0  0  0  0  0  0  0  0  0  0  0  0
  -19.1892   17.5266   73.6898 O   0  0  0  0  0  0  0  0  0  0  0  0
  -18.7090   22.1927   68.3878 C   0  0  0  0  0  0  0  0  0  0  0  0
  -17.0701   19.7736   75.2404 C   0  0  0  0  0  0  0  0  0  0  0  0
  -16.1158   21.6361   74.0463 N   0  0  0  0  0  0  0  0  0  0  0  0
  -15.3481   22.8820   74.0138 C   0  0  0  0  0  0  0  0  0  0  0  0
  -18.3068   21.1742   70.5679 C   0  0  0  0  0  0  0  0  0  0  0  0
  -16.6397   21.2453   75.3118 C   0  0  0  0  0  0  0  0  0  0  0  0
  -17.0636   21.9326   70.5406 C   0  0  0  0  0  0  0  0  0  0  0  0
  -19.6251   22.7441   67.4830 C   0  0  0  0  0  0  0  0  0  0  0  0
  -19.2050   21.4915   69.5197 C   0  0  0  0  0  0  0  0  0  0  0  0
  -16.4046   21.8363   67.2186 N   0  0  0  0  0  0  0  0  0  0  0  0
  -16.9767   17.2046   74.0043 O   0  0  0  0  0  0  0  0  0  0  0  0
  -17.7630   20.3107   72.8167 C   0  0  0  0  0  0  0  0  0  0  0  0
  -12.6590   23.4509   71.4901 C   0  0  0  0  0  0  0  0  0  0  0  0
  -13.9312   21.6495   67.2885 N   0  0  0  0  0  0  0  0  0  0  0  0
  -14.1077   22.6128   73.0817 C   0  0  0  0  0  0  0  0  0  0  0  0
  -17.9017   19.4284   74.0226 C   0  0  0  0  0  0  0  0  0  0  0  0
  -16.7367   21.3057   72.8383 C   0  0  0  0  0  0  0  0  0  0  0  0
  -20.9737   22.4603   67.5861 C   0  0  0  0  0  0  0  0  0  0  0  0
  1 27  1  0
  2 17  1  0
  2 24  2  0
  3  5  1  0
  3 30  2  0
  4 14  1  0
  5 21  2  0
  6 22  1  0
  6 26  2  0
  7 19  1  0
  7 29  2  0
  8 25  1  0
  8 27  1  0
  9 12  2  0
  9 23  1  0
  9 28  1  0
 10 11  1  0
 10 19  1  0
 11 13  1  0
 11 22  2  3
 13 20  2  0
 13 21  1  0
 14 18  1  0
 14 28  1  0
 15 16  1  0
 15 18  1  0
 15 29  1  0
 16 27  1  0
 17 19  1  0
 17 21  1  0
 20 30  1  0
 24 28  1  0
 24 29  1  0
M  END
>  <ID>  (1) 
conformer_0

$$$$
