
     RDKit          3D

 43 47  0  0  0  0  0  0  0  0999 V2000
  -14.4955   21.8059   71.3416 O   0  0  0  0  0  0  0  0  0  0  0  0
  -13.6594   25.8913   67.0286 C   0  0  0  0  0  0  0  0  0  0  0  0
  -15.5256   20.6500   67.6943 C   0  0  0  0  0  0  0  0  0  0  0  0
  -15.6866   19.4430   75.5379 O   0  0  0  0  0  0  0  0  0  0  0  0
  -16.1219   19.8133   71.5918 C   0  0  0  0  0  0  0  0  0  0  0  0
  -19.3692   20.1655   69.4006 C   0  0  0  0  0  0  0  0  0  0  0  0
  -18.3541   16.9977   75.3217 O   0  0  0  0  0  0  0  0  0  0  0  0
  -21.7296   20.5530   68.2861 C   0  0  0  0  0  0  0  0  0  0  0  0
  -14.5294   22.8795   68.2060 C   0  0  0  0  0  0  0  0  0  0  0  0
  -12.5414   24.1096   65.6695 C   0  0  0  0  0  0  0  0  0  0  0  0
  -15.1410   20.8198   72.2159 C   0  0  0  0  0  0  0  0  0  0  0  0
  -15.4115   18.9056   70.8753 O   0  0  0  0  0  0  0  0  0  0  0  0
  -18.5292   17.4647   72.7264 O   0  0  0  0  0  0  0  0  0  0  0  0
  -15.3059   22.0399   67.2009 C   0  0  0  0  0  0  0  0  0  0  0  0
  -15.4507   22.7404   73.5541 C   0  0  0  0  0  0  0  0  0  0  0  0
  -15.3490   23.6350   69.0237 O   0  0  0  0  0  0  0  0  0  0  0  0
  -21.7238   23.0005   67.5075 C   0  0  0  0  0  0  0  0  0  0  0  0
  -20.2741   22.9581   69.4787 C   0  0  0  0  0  0  0  0  0  0  0  0
  -17.1120   19.7191   75.1915 C   0  0  0  0  0  0  0  0  0  0  0  0
  -18.5771   19.6511   70.6924 C   0  0  0  0  0  0  0  0  0  0  0  0
  -17.9536   18.3691   74.8411 C   0  0  0  0  0  0  0  0  0  0  0  0
  -14.0005   23.2540   73.3633 C   0  0  0  0  0  0  0  0  0  0  0  0
  -16.9143   20.4847   73.8164 C   0  0  0  0  0  0  0  0  0  0  0  0
  -21.0843   21.6109   67.3433 C   0  0  0  0  0  0  0  0  0  0  0  0
  -12.5030   24.1459   68.8280 C   0  0  0  0  0  0  0  0  0  0  0  0
  -13.1252   22.2003   73.7939 O   0  0  0  0  0  0  0  0  0  0  0  0
  -17.1928   20.3151   70.7325 N   0  0  0  0  0  0  0  0  0  0  0  0
  -12.2518   22.8103   66.8048 C   0  0  0  0  0  0  0  0  0  0  0  0
  -15.9265   23.0119   66.2320 C   0  0  0  0  0  0  0  0  0  0  0  0
  -21.7587   23.2112   69.0903 C   0  0  0  0  0  0  0  0  0  0  0  0
  -19.7052   21.4561   66.8182 C   0  0  0  0  0  0  0  0  0  0  0  0
  -13.3201   23.5169   67.6802 C   0  0  0  0  0  0  0  0  0  0  0  0
  -17.3948   18.0566   73.3828 C   0  0  0  0  0  0  0  0  0  0  0  0
  -20.6377   19.4946   68.7454 C   0  0  0  0  0  0  0  0  0  0  0  0
  -15.7317   25.2147   65.3834 O   0  0  0  0  0  0  0  0  0  0  0  0
  -12.5356   23.1431   70.0348 C   0  0  0  0  0  0  0  0  0  0  0  0
  -16.8857   19.3429   72.8141 C   0  0  0  0  0  0  0  0  0  0  0  0
  -13.6944   23.9459   72.0365 C   0  0  0  0  0  0  0  0  0  0  0  0
  -19.8596   21.5859   69.8813 C   0  0  0  0  0  0  0  0  0  0  0  0
  -13.7216   22.9256   70.9249 O   0  0  0  0  0  0  0  0  0  0  0  0
  -15.0222   24.1395   65.8869 C   0  0  0  0  0  0  0  0  0  0  0  0
  -13.7473   24.4887   66.5500 C   0  0  0  0  0  0  0  0  0  0  0  0
  -15.5752   21.2007   73.5669 N   0  0  0  0  0  0  0  0  0  0  0  0
  1 11  2  0
  2 42  1  0
  3 14  1  0
  4 19  1  0
  5 11  1  0
  5 12  1  0
  5 27  1  0
  5 37  1  0
  6 20  1  0
  6 34  1  0
  6 39  1  0
  7 21  1  0
  8 24  1  0
  8 34  1  0
  9 14  1  0
  9 16  1  0
  9 32  1  0
 10 28  1  0
 10 42  1  0
 11 43  1  0
 13 33  1  0
 14 29  1  0
 15 22  1  0
 15 43  1  0
 17 24  1  0
 17 30  1  0
 18 30  1  0
 18 39  1  0
 19 21  1  0
 19 23  1  0
 20 27  1  0
 21 33  1  0
 22 26  1  0
 22 38  1  0
 23 37  1  0
 23 43  1  0
 24 31  1  0
 25 32  1  0
 25 36  1  0
 28 32  1  0
 29 41  1  0
 32 42  1  0
 33 37  1  0
 35 41  1  0
 36 40  1  0
 38 40  1  0
 41 42  1  0
M  END
>  <ID>  (1) 
conformer_0

$$$$
