
     RDKit          3D

 30 31  0  0  0  0  0  0  0  0999 V2000
  -17.0743   21.1937   71.6042 C   0  0  0  0  0  0  0  0  0  0  0  0
  -15.7783   22.8818   73.0580 C   0  0  0  0  0  0  0  0  0  0  0  0
  -21.0962   22.0689   69.2812 C   0  0  0  0  0  0  0  0  0  0  0  0
  -19.1226   16.0831   74.0018 O   0  0  0  0  0  0  0  0  0  0  0  0
  -20.0782   21.6913   67.1303 C   0  0  0  0  0  0  0  0  0  0  0  0
  -19.0477   20.8655   69.1290 C   0  0  0  0  0  0  0  0  0  0  0  0
  -17.6384   20.9906   67.1107 C   0  0  0  0  0  0  0  0  0  0  0  0
  -14.1126   21.4981   67.3632 O   0  0  0  0  0  0  0  0  0  0  0  0
  -18.4999   17.4203   73.7450 C   0  0  0  0  0  0  0  0  0  0  0  0
  -12.6226   22.3146   72.4853 C   0  0  0  0  0  0  0  0  0  0  0  0
  -20.0371   21.4549   69.8999 C   0  0  0  0  0  0  0  0  0  0  0  0
  -15.7020   22.8164   66.4725 O   0  0  0  0  0  0  0  0  0  0  0  0
  -16.6757   22.2565   74.1842 C   0  0  0  0  0  0  0  0  0  0  0  0
  -16.9196   20.4099   70.3475 C   0  0  0  0  0  0  0  0  0  0  0  0
  -16.3215   16.7606   75.0813 O   0  0  0  0  0  0  0  0  0  0  0  0
  -13.4577   23.4261   72.8864 C   0  0  0  0  0  0  0  0  0  0  0  0
  -15.8731   21.9664   71.9727 N   0  0  0  0  0  0  0  0  0  0  0  0
  -15.2972   21.9133   67.2107 C   0  0  0  0  0  0  0  0  0  0  0  0
  -16.0550   20.8923   74.2872 N   0  0  0  0  0  0  0  0  0  0  0  0
  -13.5320   24.4504   72.0354 N   0  0  0  0  0  0  0  0  0  0  0  0
  -14.5462   23.1485   73.6760 N   0  0  0  0  0  0  0  0  0  0  0  0
  -16.8390   19.6990   73.8569 C   0  0  0  0  0  0  0  0  0  0  0  0
  -16.0121   19.2941   76.0739 N   0  0  0  0  0  0  0  0  0  0  0  0
  -18.1009   19.8607   69.6602 C   0  0  0  0  0  0  0  0  0  0  0  0
  -15.8379   20.9467   69.4442 C   0  0  0  0  0  0  0  0  0  0  0  0
  -21.1354   22.1487   67.9112 C   0  0  0  0  0  0  0  0  0  0  0  0
  -16.3621   21.1367   68.0033 C   0  0  0  0  0  0  0  0  0  0  0  0
  -18.9623   21.1682   67.7813 C   0  0  0  0  0  0  0  0  0  0  0  0
  -17.4617   17.5280   74.8966 C   0  0  0  0  0  0  0  0  0  0  0  0
  -17.1670   18.9795   75.1744 C   0  0  0  0  0  0  0  0  0  0  0  0
  1 14  1  0
  1 17  1  0
  2 13  1  0
  2 17  1  0
  2 21  1  0
  3 11  1  0
  3 26  2  0
  4  9  1  0
  5 26  1  0
  5 28  2  0
  6 11  1  0
  6 24  1  0
  6 28  1  0
  7 27  1  0
  7 28  1  0
  8 18  2  0
  9 29  1  0
 10 16  1  0
 12 18  1  0
 13 19  1  0
 14 24  1  0
 14 25  1  0
 15 29  1  0
 16 20  2  0
 16 21  1  0
 18 27  1  0
 19 22  1  0
 22 30  1  0
 23 30  1  0
 25 27  1  0
 29 30  1  0
M  END
>  <ID>  (1) 
conformer_0

$$$$
